AV-unprocessed.smi:1745|AV-procd|sdf|7032|dock1
  -GOLD-   22720 8253D 1   1.00000     0.00000
 Structure written by MMmdl.
 47 49  0  0  0  0  0  0  0  0  1 V2000
  144.8645  136.7311  153.8886 C   0  0  0  0  0  0  0  0  0  0  0  0
  145.5804  137.1384  152.5913 C   0  0  1  0  0  0  0  0  0  0  0  0
  146.9736  137.4488  152.9044 N   0  0  0  0  0  0  0  0  0  0  0  0
  147.3947  138.3345  153.8189 C   0  0  0  0  0  0  0  0  0  0  0  0
  146.6373  139.0000  154.5245 O   0  0  0  0  0  0  0  0  0  0  0  0
  148.7373  138.3765  153.8639 N   0  0  0  0  0  0  0  0  0  0  0  0
  149.5773  139.1517  154.7088 C   0  0  0  0  0  0  0  0  0  0  0  0
  150.9915  139.0931  154.7070 C   0  0  0  0  0  0  0  0  0  0  0  0
  151.7072  139.9079  155.6053 C   0  0  0  0  0  0  0  0  0  0  0  0
  150.9875  140.7498  156.4838 C   0  0  0  0  0  0  0  0  0  0  0  0
  151.6395  141.5871  157.3988 N   0  0  0  0  0  0  0  0  0  0  0  0
  151.3032  142.9967  157.2451 C   0  0  0  0  0  0  0  0  0  0  0  0
  152.1556  143.8472  158.2027 C   0  0  0  0  0  0  0  0  0  0  0  0
  151.9754  143.3868  159.5393 O   0  0  0  0  0  0  0  0  0  0  0  0
  152.3795  142.0293  159.6962 C   0  0  0  0  0  0  0  0  0  0  0  0
  151.5335  141.1299  158.7784 C   0  0  0  0  0  0  0  0  0  0  0  0
  149.6384  140.7998  156.4986 N   0  0  0  0  0  0  0  0  0  0  0  0
  148.9588  140.0162  155.6350 C   0  0  0  0  0  0  0  0  0  0  0  0
  145.5270  136.0339  151.5169 C   0  0  1  0  0  0  0  0  0  0  0  0
  146.2030  134.7218  151.9186 C   0  0  0  0  0  0  0  0  0  0  0  0
  145.5042  133.7293  151.0189 C   0  0  0  0  0  0  0  0  0  0  0  0
  144.0743  134.2603  151.0222 C   0  0  0  0  0  0  0  0  0  0  0  0
  144.1762  135.6651  151.2414 O   0  0  0  0  0  0  0  0  0  0  0  0
  143.8051  136.5418  153.7154 H   0  0  0  0  0  0  0  0  0  0  0  0
  144.9333  137.5207  154.6377 H   0  0  0  0  0  0  0  0  0  0  0  0
  145.2996  135.8272  154.3162 H   0  0  0  0  0  0  0  0  0  0  0  0
  145.0765  138.0237  152.1997 H   0  0  0  0  0  0  0  0  0  0  0  0
  147.6738  136.9513  152.3744 H   0  0  0  0  0  0  0  0  0  0  0  0
  149.2181  137.7241  153.2620 H   0  0  0  0  0  0  0  0  0  0  0  0
  151.5416  138.4378  154.0503 H   0  0  0  0  0  0  0  0  0  0  0  0
  152.7869  139.8803  155.6164 H   0  0  0  0  0  0  0  0  0  0  0  0
  151.4752  143.3067  156.2137 H   0  0  0  0  0  0  0  0  0  0  0  0
  150.2448  143.1521  157.4578 H   0  0  0  0  0  0  0  0  0  0  0  0
  153.2115  143.8012  157.9302 H   0  0  0  0  0  0  0  0  0  0  0  0
  151.8565  144.8937  158.1435 H   0  0  0  0  0  0  0  0  0  0  0  0
  153.4423  141.9265  159.4702 H   0  0  0  0  0  0  0  0  0  0  0  0
  152.2449  141.7359  160.7372 H   0  0  0  0  0  0  0  0  0  0  0  0
  150.4907  141.1532  159.0977 H   0  0  0  0  0  0  0  0  0  0  0  0
  151.8718  140.0954  158.8516 H   0  0  0  0  0  0  0  0  0  0  0  0
  147.8819  140.0876  155.6829 H   0  0  0  0  0  0  0  0  0  0  0  0
  145.9686  136.3910  150.5847 H   0  0  0  0  0  0  0  0  0  0  0  0
  147.2838  134.7367  151.7755 H   0  0  0  0  0  0  0  0  0  0  0  0
  145.9976  134.4858  152.9641 H   0  0  0  0  0  0  0  0  0  0  0  0
  145.9224  133.7783  150.0126 H   0  0  0  0  0  0  0  0  0  0  0  0
  145.5791  132.7005  151.3717 H   0  0  0  0  0  0  0  0  0  0  0  0
  143.5489  134.0387  150.0930 H   0  0  0  0  0  0  0  0  0  0  0  0
  143.5065  133.8237  151.8446 H   0  0  0  0  0  0  0  0  0  0  0  0
  1  2  1  0  0  0  0
  1 24  1  0  0  0  0
  1 25  1  0  0  0  0
  1 26  1  0  0  0  0
  2  3  1  0  0  0  0
  2 19  1  0  0  0  0
  2 27  1  0  0  0  0
  3  4  1  0  0  0  0
  3 28  1  0  0  0  0
  4  5  2  0  0  0  0
  4  6  1  0  0  0  0
  6  7  1  0  0  0  0
  6 29  1  0  0  0  0
  7 18  1  0  0  0  0
  7  8  2  0  0  0  0
  8  9  1  0  0  0  0
  8 30  1  0  0  0  0
  9 10  2  0  0  0  0
  9 31  1  0  0  0  0
 10 11  1  0  0  0  0
 10 17  1  0  0  0  0
 11 16  1  0  0  0  0
 11 12  1  0  0  0  0
 12 13  1  0  0  0  0
 12 32  1  0  0  0  0
 12 33  1  0  0  0  0
 13 14  1  0  0  0  0
 13 34  1  0  0  0  0
 13 35  1  0  0  0  0
 14 15  1  0  0  0  0
 15 16  1  0  0  0  0
 15 36  1  0  0  0  0
 15 37  1  0  0  0  0
 16 38  1  0  0  0  0
 16 39  1  0  0  0  0
 17 18  2  0  0  0  0
 18 40  1  0  0  0  0
 19 23  1  0  0  0  0
 19 20  1  0  0  0  0
 19 41  1  0  0  0  0
 20 21  1  0  0  0  0
 20 42  1  0  0  0  0
 20 43  1  0  0  0  0
 21 22  1  0  0  0  0
 21 44  1  0  0  0  0
 21 45  1  0  0  0  0
 22 23  1  0  0  0  0
 22 46  1  0  0  0  0
 22 47  1  0  0  0  0
M  END
> <s_m_source_file>
AV-unprocessed.smi

> <i_m_source_file_index>
1745

> <i_lp_mmshare_version>
43012

> <i_f3d_flags>
0

> <s_epik_input>
TzFbQ0gyXVtDSDJdW0NIMl1bQ0BIXTFbQ0BIXShbQ0gzXSlbTkhdQyg9TylbTkhdYzJbY0hdW2NIXWMobltjSF0yKU4zW0NIMl1bQ0gyXU9bQ0gyXVtDSDJdMw==

> <s_epik_cmdline>
J2VwaWtfcHl0aG9uJywgJy1waCcsICc3LjAnLCAnLXRuJywgJzgnLCAnLW1hJywgJzIwMCcsICctbWV0YWxfYmluZGluZycsICctaW1hZScsICc8aW5maWxlLm1hZT4nLCAnLW9tYWUnLCAnPG91dGZpbGUubWFlPic=

> <r_lp_tautomer_probability>
1

> <r_epik_Ionization_Penalty>
0.00206005

> <r_epik_Ionization_Penalty_Charging>
0

> <r_epik_Ionization_Penalty_Neutral>
0.00206005

> <r_epik_State_Penalty>
0.00138459

> <r_epik_Charging_Adjusted_Penalty>
0.00138459

> <i_epik_Tot_Q>
0

> <i_epik_Tot_abs_Q>
0

> <r_epik_Metal_State_Penalty>
-0

> <b_epik_Metal_Only>
0

> <s_lp_Force_Field>
OPLS_2005

> <r_lp_Energy>
36.7414

> <b_lp_Chiralities_Consistent>
1

> <s_lp_Variant>
AV-unprocessed.smi:1745-4

> <Gold.Version>
5.8.1

> <Gold.Id.Protein>
6NUR|6NUR_protein|mol2

> <Gold.PLP.Fitness>
42.4359

> <Gold.PLP.PLP>
-36.9403

> <Gold.PLP.part.hbond>
-2.2503

> <Gold.PLP.part.metal>
0.0000

> <Gold.PLP.part.buried>
-4.5316

> <Gold.PLP.part.nonpolar>
-30.8452

> <Gold.PLP.part.repulsive>
0.4554

> <Gold.PLP.ligand.clash>
0.0000

> <Gold.PLP.ligand.torsion>
0.1734

> <Gold.PLP.Chemscore.Hbond>
1.9040

> <Gold.PLP.Chemscore.CHOScore>
0.0000

> <Gold.PLP.Chemscore.Metal>
0.0000

> <Gold.Chemscore.Hbonds>
donor molecule, donor type, donor heavy atom, donor atom, acceptor molecule, acceptor atom, score
      L1  H     3    28       P1  7948  1.00
      L1  H     6    29       P1  7948  0.90

> <Gold.PLP.Chemscore.Internal.Correction>
0.1304

> <Gold.Rescore>
     Score         DG    S(hbond)    S(metal)    S(lipo)     H(rot)  DE(clash)    DE(int)     intcor
     16.75     -19.36       1.93        0.00      94.02       1.40       0.17       2.44       ----

> <Gold.Chemscore.Fitness>
16.7497

> <Gold.Chemscore.DG>
-19.3601

> <Gold.Chemscore.ZeroCoef>
-5.4800

> <Gold.Chemscore.Hbond>
1.9316

> <Gold.Chemscore.Metal>
0.0000

> <Gold.Chemscore.Lipo>
94.0160

> <Gold.Chemscore.Internal_Hbond>
0.0000

> <Gold.Chemscore.DEClash>
0.1679

> <Gold.Chemscore.DEInternal>
2.4425

> <Gold.Chemscore.Rot>
1.3950

> <Gold.Chemscore.Internal.Correction>
   9.000000E+99

> <Gold.Chemscore.Hbonds>
donor molecule, donor type, donor heavy atom, donor atom, acceptor molecule, acceptor atom, score
      L1  H     3    28       P1  7948  0.94
      L1  H     6    29       P1  7948  0.80

> <Gold.Chemscore.Hbond.Weighted>
-6.4514

> <Gold.Chemscore.Metal.Weighted>
-0.0000

> <Gold.Chemscore.Lipo.Weighted>
-10.9999

> <Gold.Chemscore.Internal_Hbond.Weighted>
0.0000

> <Gold.Chemscore.DEClash.Weighted>
0.1679

> <Gold.Chemscore.DEInternal.Weighted>
2.4425

> <Gold.Chemscore.Rot.Weighted>
3.5712

> <Gold.Chemscore.Internal.Correction.Weighted>
   9.000000E+99

> <Gold.Protein.RotatedTorsions>
[ 6907 6896 6895 6894 ] final  -35.07 input  -60.11 | X-H torsion
[ 7974 7965 7964 7962 ] final  137.70 input  175.53 | X-H torsion
[ 8008 7997 7996 7995 ] final  -74.65 input   59.86 | X-H torsion
[ 10167 10162 10161 10158 ] final  -70.84 input  -65.29 | X-H torsion
[ 10718 10713 10712 10709 ] final -175.85 input   66.30 | X-H torsion
[ 10763 10752 10751 10750 ] final  147.02 input  -60.55 | X-H torsion
[ 11005 11000 10999 10996 ] final    2.74 input  -57.11 | X-H torsion

> <Gold.Protein.ActiveResidues>
 VAL166  LYS551  ARG553  GLY616  TRP617  ASP618  TYR619  PRO620  LYS621  CYS622 
 ASP623  PHE694  ASN695  SER759  ASP760  ASP761  ALA762  ILE779  LEU786  VAL792 
 PHE793  MET794  SER795  GLU796  ALA797  LYS798  CYS799  TRP800  GLU811  SER814 

> <Gold.Protein.RotatedAtoms>
  151.0444  134.9630  159.8178 H   0  0  0  0  0  0  0  0  0  0  0  0  # atno 6907 bound_to 6896
  152.5370  134.2616  159.8947 H   0  0  0  0  0  0  0  0  0  0  0  0  # atno 6908 bound_to 6896
  151.2630  133.4250  159.2651 H   0  0  0  0  0  0  0  0  0  0  0  0  # atno 6909 bound_to 6896
  144.9442  139.4894  143.5557 H   0  0  0  0  0  0  0  0  0  0  0  0  # atno 7974 bound_to 7965
  154.5349  140.0758  156.8410 H   0  0  0  0  0  0  0  0  0  0  0  0  # atno 8008 bound_to 7997
  155.3299  140.3401  155.4221 H   0  0  0  0  0  0  0  0  0  0  0  0  # atno 8009 bound_to 7997
  156.1818  140.1655  156.8246 H   0  0  0  0  0  0  0  0  0  0  0  0  # atno 8010 bound_to 7997
  140.5320  143.2321  151.7244 H   0  0  0  0  0  0  0  0  0  0  0  0  # atno 10167 bound_to 10162
  156.8060  130.9569  151.3117 H   0  0  0  0  0  0  0  0  0  0  0  0  # atno 10718 bound_to 10713
  154.0315  135.2897  155.3368 H   0  0  0  0  0  0  0  0  0  0  0  0  # atno 10763 bound_to 10752
  154.6985  135.5198  153.8496 H   0  0  0  0  0  0  0  0  0  0  0  0  # atno 10764 bound_to 10752
  153.0638  135.6623  154.0528 H   0  0  0  0  0  0  0  0  0  0  0  0  # atno 10765 bound_to 10752
  140.6010  133.9836  155.8132 H   0  0  0  0  0  0  0  0  0  0  0  0  # atno 11005 bound_to 11000
  146.3297  139.8483  142.8877 LP  0  0  0  0  0  0  0  0  0  0  0  0  # atno 17320 bound_to 7965
  145.2943  141.0176  143.3645 LP  0  0  0  0  0  0  0  0  0  0  0  0  # atno 17321 bound_to 7965
  139.4957  144.4099  152.0091 LP  0  0  0  0  0  0  0  0  0  0  0  0  # atno 17342 bound_to 10162
  140.3202  144.3436  150.6011 LP  0  0  0  0  0  0  0  0  0  0  0  0  # atno 17343 bound_to 10162
  157.6530  130.8900  149.9671 LP  0  0  0  0  0  0  0  0  0  0  0  0  # atno 17370 bound_to 10713
  156.1073  130.3652  150.0111 LP  0  0  0  0  0  0  0  0  0  0  0  0  # atno 17371 bound_to 10713
  141.0872  133.9972  157.3294 LP  0  0  0  0  0  0  0  0  0  0  0  0  # atno 17394 bound_to 11000
  139.9233  135.0201  156.8142 LP  0  0  0  0  0  0  0  0  0  0  0  0  # atno 17395 bound_to 11000

$$$$
