AV-unprocessed.smi:2648|AV-procd|sdf|10288|dock6
  -GOLD-   2272014303D 1   1.00000     0.00000
 Structure written by MMmdl.
 32 33  0  0  0  0  0  0  0  0  3 V2000
  147.1170  133.2228  153.7766 O   0  0  0  0  0  0  0  0  0  0  0  0
  147.6468  132.5495  152.8932 C   0  0  0  0  0  0  0  0  0  0  0  0
  148.9047  132.0915  152.9651 N   0  0  0  0  0  0  0  0  0  0  0  0
  149.8115  132.3188  154.0835 C   0  0  0  0  0  0  0  0  0  0  0  0
  150.1514  131.0040  154.8079 C   0  0  0  0  0  0  0  0  0  0  0  0
  151.1665  131.2175  155.8431 N   0  0  0  0  0  0  0  0  0  0  0  0
  152.3236  130.5521  155.9111 C   0  0  0  0  0  0  0  0  0  0  0  0
  152.7334  129.6680  155.1585 O   0  0  0  0  0  0  0  0  0  0  0  0
  153.0859  131.0860  157.1012 C   0  0  0  0  0  0  0  0  0  0  0  0
  152.1898  132.0982  157.6134 N   0  5  0  0  0  0  0  0  0  0  0  0
  151.0858  132.1296  156.8306 C   0  0  0  0  0  0  0  0  0  0  0  0
  150.1147  132.8749  156.9583 O   0  0  0  0  0  0  0  0  0  0  0  0
  147.0499  132.1593  151.7535 N   0  0  0  0  0  0  0  0  0  0  0  0
  145.7329  132.4477  151.3033 C   0  0  0  0  0  0  0  0  0  0  0  0
  145.4415  132.2173  149.9402 C   0  0  0  0  0  0  0  0  0  0  0  0
  144.1526  132.5038  149.4459 C   0  0  0  0  0  0  0  0  0  0  0  0
  143.2110  133.0050  150.2739 N   0  3  0  0  0  0  0  0  0  0  0  0
  143.4462  133.2562  151.5797 C   0  0  0  0  0  0  0  0  0  0  0  0
  144.7162  132.9893  152.1309 C   0  0  0  0  0  0  0  0  0  0  0  0
  149.2617  131.5416  152.1976 H   0  0  0  0  0  0  0  0  0  0  0  0
  150.7215  132.7743  153.6916 H   0  0  0  0  0  0  0  0  0  0  0  0
  149.3784  133.0405  154.7785 H   0  0  0  0  0  0  0  0  0  0  0  0
  149.2536  130.5746  155.2552 H   0  0  0  0  0  0  0  0  0  0  0  0
  150.5040  130.2626  154.0889 H   0  0  0  0  0  0  0  0  0  0  0  0
  153.2770  130.2806  157.8110 H   0  0  0  0  0  0  0  0  0  0  0  0
  154.0474  131.4863  156.7773 H   0  0  0  0  0  0  0  0  0  0  0  0
  147.5833  131.5343  151.1671 H   0  0  0  0  0  0  0  0  0  0  0  0
  146.1952  131.8181  149.2767 H   0  0  0  0  0  0  0  0  0  0  0  0
  143.8500  132.3498  148.4203 H   0  0  0  0  0  0  0  0  0  0  0  0
  142.6190  133.6666  152.1407 H   0  0  0  0  0  0  0  0  0  0  0  0
  144.8880  133.2164  153.1720 H   0  0  0  0  0  0  0  0  0  0  0  0
  142.2848  133.2073  149.8961 H   0  0  0  0  0  0  0  0  0  0  0  0
  1  2  2  0  0  0  0
  2  3  1  0  0  0  0
  2 13  1  0  0  0  0
  3  4  1  0  0  0  0
  3 20  1  0  0  0  0
  4  5  1  0  0  0  0
  4 21  1  0  0  0  0
  4 22  1  0  0  0  0
  5  6  1  0  0  0  0
  5 23  1  0  0  0  0
  5 24  1  0  0  0  0
  6 11  1  0  0  0  0
  6  7  1  0  0  0  0
  7  8  2  0  0  0  0
  7  9  1  0  0  0  0
  9 10  1  0  0  0  0
  9 25  1  0  0  0  0
  9 26  1  0  0  0  0
 10 11  1  0  0  0  0
 11 12  2  0  0  0  0
 13 14  1  0  0  0  0
 13 27  1  0  0  0  0
 14 19  1  0  0  0  0
 14 15  2  0  0  0  0
 15 16  1  0  0  0  0
 15 28  1  0  0  0  0
 16 17  2  0  0  0  0
 16 29  1  0  0  0  0
 17 18  1  0  0  0  0
 17 32  1  0  0  0  0
 18 19  2  0  0  0  0
 18 30  1  0  0  0  0
 19 31  1  0  0  0  0
M  CHG  1  10  -1
M  CHG  1  17   1
M  END
> <s_m_source_file>
AV-unprocessed.smi

> <i_m_source_file_index>
2648

> <i_lp_mmshare_version>
43012

> <i_f3d_flags>
0

> <s_epik_input>
W2NIXTFbY0hdbltjSF1bY0hdYzFbTkhdQyg9TylbTkhdW0NIMl1bQ0gyXU4yQyg9TylbQ0gyXVtOSF1DMj1P

> <s_epik_cmdline>
J2VwaWtfcHl0aG9uJywgJy1waCcsICc3LjAnLCAnLXRuJywgJzgnLCAnLW1hJywgJzIwMCcsICctbWV0YWxfYmluZGluZycsICctaW1hZScsICc8aW5maWxlLm1hZT4nLCAnLW9tYWUnLCAnPG91dGZpbGUubWFlPic=

> <r_lp_tautomer_probability>
1

> <r_epik_Ionization_Penalty>
6.85559

> <r_epik_Ionization_Penalty_Charging>
6.85558

> <r_epik_Ionization_Penalty_Neutral>
1.85947e-05

> <r_epik_State_Penalty>
6.90892

> <r_epik_Charging_Adjusted_Penalty>
13.7645

> <i_epik_Tot_Q>
0

> <i_epik_Tot_abs_Q>
2

> <r_epik_Metal_State_Penalty>
2.96744

> <b_epik_Metal_Only>
1

> <s_lp_Force_Field>
OPLS_2005

> <r_lp_Energy>
20.2927

> <b_lp_Chiralities_Consistent>
1

> <s_lp_Variant>
AV-unprocessed.smi:2648-4

> <Gold.Version>
5.8.1

> <Gold.Id.Protein>
6NUR|6NUR_protein|mol2

> <Gold.PLP.Fitness>
50.3502

> <Gold.PLP.PLP>
-32.5939

> <Gold.PLP.part.hbond>
-4.0000

> <Gold.PLP.part.metal>
0.0000

> <Gold.PLP.part.buried>
-5.2842

> <Gold.PLP.part.nonpolar>
-22.6934

> <Gold.PLP.part.repulsive>
0.2053

> <Gold.PLP.ligand.clash>
0.0000

> <Gold.PLP.ligand.torsion>
0.1043

> <Gold.PLP.Chemscore.Hbond>
5.9840

> <Gold.PLP.Chemscore.CHOScore>
0.0000

> <Gold.PLP.Chemscore.Metal>
0.0000

> <Gold.Chemscore.Hbonds>
donor molecule, donor type, donor heavy atom, donor atom, acceptor molecule, acceptor atom, score
      L1  H     3    20       P1 10747  0.98
      L1  H    13    27       P1 10747  1.00
      L1  H    17    32       P1 10186  1.95
      P1  H  6896  6907       L1    10  1.59

> <Gold.PLP.Chemscore.Internal.Correction>
0.0129

> <Gold.Rescore>
     Score         DG    S(hbond)    S(metal)    S(lipo)     H(rot)  DE(clash)    DE(int)     intcor
     17.17     -18.54       3.43        0.00      55.83       1.93       0.03       1.34       ----

> <Gold.Chemscore.Fitness>
17.1712

> <Gold.Chemscore.DG>
-18.5426

> <Gold.Chemscore.ZeroCoef>
-5.4800

> <Gold.Chemscore.Hbond>
3.4331

> <Gold.Chemscore.Metal>
0.0000

> <Gold.Chemscore.Lipo>
55.8334

> <Gold.Chemscore.Internal_Hbond>
0.0000

> <Gold.Chemscore.DEClash>
0.0309

> <Gold.Chemscore.DEInternal>
1.3406

> <Gold.Chemscore.Rot>
1.9284

> <Gold.Chemscore.Internal.Correction>
   9.000000E+99

> <Gold.Chemscore.Hbonds>
donor molecule, donor type, donor heavy atom, donor atom, acceptor molecule, acceptor atom, score
      L1  H     3    20       P1 10747  0.35
      L1  H    13    27       P1 10747  0.99
      L1  H    17    32       P1 10186  0.93
      P1  H  6896  6907       L1    10  0.27

> <Gold.Chemscore.Hbond.Weighted>
-11.4667

> <Gold.Chemscore.Metal.Weighted>
-0.0000

> <Gold.Chemscore.Lipo.Weighted>
-6.5325

> <Gold.Chemscore.Internal_Hbond.Weighted>
0.0000

> <Gold.Chemscore.DEClash.Weighted>
0.0309

> <Gold.Chemscore.DEInternal.Weighted>
1.3406

> <Gold.Chemscore.Rot.Weighted>
4.9366

> <Gold.Chemscore.Internal.Correction.Weighted>
   9.000000E+99

> <Gold.Protein.RotatedTorsions>
[ 6907 6896 6895 6894 ] final -175.44 input  -60.11 | X-H torsion
[ 7974 7965 7964 7962 ] final  -39.07 input  175.53 | X-H torsion
[ 8008 7997 7996 7995 ] final  142.80 input   59.86 | X-H torsion
[ 10167 10162 10161 10158 ] final   92.28 input  -65.29 | X-H torsion
[ 10718 10713 10712 10709 ] final  121.30 input   66.30 | X-H torsion
[ 10763 10752 10751 10750 ] final  -69.53 input  -60.55 | X-H torsion
[ 11005 11000 10999 10996 ] final -103.67 input  -57.11 | X-H torsion

> <Gold.Protein.ActiveResidues>
 VAL166  LYS551  ARG553  GLY616  TRP617  ASP618  TYR619  PRO620  LYS621  CYS622 
 ASP623  PHE694  ASN695  SER759  ASP760  ASP761  ALA762  ILE779  LEU786  VAL792 
 PHE793  MET794  SER795  GLU796  ALA797  LYS798  CYS799  TRP800  GLU811  SER814 

> <Gold.Protein.RotatedAtoms>
  151.5887  133.3369  159.3022 H   0  0  0  0  0  0  0  0  0  0  0  0  # atno 6907 bound_to 6896
  150.8272  134.7512  159.6834 H   0  0  0  0  0  0  0  0  0  0  0  0  # atno 6908 bound_to 6896
  152.4360  134.5691  159.9967 H   0  0  0  0  0  0  0  0  0  0  0  0  # atno 6909 bound_to 6896
  146.0429  140.6584  142.9078 H   0  0  0  0  0  0  0  0  0  0  0  0  # atno 7974 bound_to 7965
  156.2942  140.2279  156.4787 H   0  0  0  0  0  0  0  0  0  0  0  0  # atno 8008 bound_to 7997
  154.7872  140.0456  157.1194 H   0  0  0  0  0  0  0  0  0  0  0  0  # atno 8009 bound_to 7997
  154.9688  140.3064  155.5000 H   0  0  0  0  0  0  0  0  0  0  0  0  # atno 8010 bound_to 7997
  139.8292  144.6695  150.9421 H   0  0  0  0  0  0  0  0  0  0  0  0  # atno 10167 bound_to 10162
  157.5828  131.1073  150.8154 H   0  0  0  0  0  0  0  0  0  0  0  0  # atno 10718 bound_to 10713
  154.4048  135.6023  153.5918 H   0  0  0  0  0  0  0  0  0  0  0  0  # atno 10763 bound_to 10752
  152.9789  135.5915  154.4141 H   0  0  0  0  0  0  0  0  0  0  0  0  # atno 10764 bound_to 10752
  154.3945  135.2842  155.2113 H   0  0  0  0  0  0  0  0  0  0  0  0  # atno 10765 bound_to 10752
  141.1135  133.8660  157.1515 H   0  0  0  0  0  0  0  0  0  0  0  0  # atno 11005 bound_to 11000
  144.7083  140.3941  143.7100 LP  0  0  0  0  0  0  0  0  0  0  0  0  # atno 17320 bound_to 7965
  145.6854  139.1627  143.2677 LP  0  0  0  0  0  0  0  0  0  0  0  0  # atno 17321 bound_to 7965
  140.7808  143.4017  151.1138 LP  0  0  0  0  0  0  0  0  0  0  0  0  # atno 17342 bound_to 10162
  139.7672  143.8548  152.3113 LP  0  0  0  0  0  0  0  0  0  0  0  0  # atno 17343 bound_to 10162
  156.8596  130.5108  149.5305 LP  0  0  0  0  0  0  0  0  0  0  0  0  # atno 17370 bound_to 10713
  156.0874  130.5869  150.9673 LP  0  0  0  0  0  0  0  0  0  0  0  0  # atno 17371 bound_to 10713
  140.0043  135.0015  157.0258 LP  0  0  0  0  0  0  0  0  0  0  0  0  # atno 17394 bound_to 11000
  140.4710  134.1386  155.7203 LP  0  0  0  0  0  0  0  0  0  0  0  0  # atno 17395 bound_to 11000

$$$$
