AV-unprocessed.smi:2743|AV-procd|sdf|10567|dock10
  -GOLD-   2272015 23D 1   1.00000     0.00000
 Structure written by MMmdl.
 39 40  0  0  0  0  0  0  0  0  2 V2000
  146.2475  142.4301  154.5978 N   0  0  0  0  0  0  0  0  0  0  0  0
  146.2443  142.8312  155.6834 C   0  0  0  0  0  0  0  0  0  0  0  0
  146.2424  143.3446  157.0622 C   0  0  0  0  0  0  0  0  0  0  0  0
  147.2205  142.5758  157.9443 C   0  0  0  0  0  0  0  0  0  0  0  0
  146.8073  141.9454  158.9170 O   0  0  0  0  0  0  0  0  0  0  0  0
  148.5177  142.6654  157.6109 N   0  0  0  0  0  0  0  0  0  0  0  0
  149.6391  142.1157  158.3732 C   0  0  0  0  0  0  0  0  0  0  0  0
  150.9718  142.1079  157.5641 C   0  0  0  0  0  0  0  0  0  0  0  0
  150.8622  141.0486  156.4423 C   0  0  0  0  0  0  0  0  0  0  0  0
  151.8124  139.9981  156.3651 C   0  0  0  0  0  0  0  0  0  0  0  0
  151.7405  139.0532  155.3224 C   0  0  0  0  0  0  0  0  0  0  0  0
  150.7680  139.1508  154.3935 N   0  3  0  0  0  0  0  0  0  0  0  0
  149.8412  140.1301  154.4127 C   0  0  0  0  0  0  0  0  0  0  0  0
  149.8643  141.1022  155.4329 C   0  0  0  0  0  0  0  0  0  0  0  0
  151.2118  143.5050  156.9174 C   0  0  0  0  0  0  0  0  0  0  0  0
  151.5181  144.6297  157.9240 C   0  0  0  0  0  0  0  0  0  0  0  0
  152.7110  144.2758  158.8176 C   0  0  0  0  0  0  0  0  0  0  0  0
  152.4803  142.9365  159.5244 C   0  0  0  0  0  0  0  0  0  0  0  0
  152.1800  141.8174  158.5110 C   0  0  0  0  0  0  0  0  0  0  0  0
  146.5079  144.4021  157.0374 H   0  0  0  0  0  0  0  0  0  0  0  0
  145.2307  143.2675  157.4617 H   0  0  0  0  0  0  0  0  0  0  0  0
  148.7542  143.1983  156.7861 H   0  0  0  0  0  0  0  0  0  0  0  0
  149.7681  142.6660  159.3065 H   0  0  0  0  0  0  0  0  0  0  0  0
  149.3545  141.1099  158.6775 H   0  0  0  0  0  0  0  0  0  0  0  0
  152.6123  139.9169  157.0854 H   0  0  0  0  0  0  0  0  0  0  0  0
  152.4332  138.2333  155.2004 H   0  0  0  0  0  0  0  0  0  0  0  0
  149.1163  140.1131  153.6118 H   0  0  0  0  0  0  0  0  0  0  0  0
  149.1164  141.8788  155.4041 H   0  0  0  0  0  0  0  0  0  0  0  0
  152.0514  143.4346  156.2239 H   0  0  0  0  0  0  0  0  0  0  0  0
  150.3550  143.8122  156.3185 H   0  0  0  0  0  0  0  0  0  0  0  0
  151.7281  145.5543  157.3856 H   0  0  0  0  0  0  0  0  0  0  0  0
  150.6423  144.8338  158.5399 H   0  0  0  0  0  0  0  0  0  0  0  0
  153.6178  144.2203  158.2138 H   0  0  0  0  0  0  0  0  0  0  0  0
  152.8755  145.0641  159.5526 H   0  0  0  0  0  0  0  0  0  0  0  0
  153.3649  142.6752  160.1061 H   0  0  0  0  0  0  0  0  0  0  0  0
  151.6664  143.0294  160.2431 H   0  0  0  0  0  0  0  0  0  0  0  0
  152.0348  140.8848  159.0571 H   0  0  0  0  0  0  0  0  0  0  0  0
  153.0804  141.6811  157.9100 H   0  0  0  0  0  0  0  0  0  0  0  0
  150.7356  138.4596  153.6434 H   0  0  0  0  0  0  0  0  0  0  0  0
  1  2  3  0  0  0  0
  2  3  1  0  0  0  0
  3  4  1  0  0  0  0
  3 20  1  0  0  0  0
  3 21  1  0  0  0  0
  4  5  2  0  0  0  0
  4  6  1  0  0  0  0
  6  7  1  0  0  0  0
  6 22  1  0  0  0  0
  7  8  1  0  0  0  0
  7 23  1  0  0  0  0
  7 24  1  0  0  0  0
  8 19  1  0  0  0  0
  8  9  1  0  0  0  0
  8 15  1  0  0  0  0
  9 14  1  0  0  0  0
  9 10  2  0  0  0  0
 10 11  1  0  0  0  0
 10 25  1  0  0  0  0
 11 12  2  0  0  0  0
 11 26  1  0  0  0  0
 12 13  1  0  0  0  0
 12 39  1  0  0  0  0
 13 14  2  0  0  0  0
 13 27  1  0  0  0  0
 14 28  1  0  0  0  0
 15 16  1  0  0  0  0
 15 29  1  0  0  0  0
 15 30  1  0  0  0  0
 16 17  1  0  0  0  0
 16 31  1  0  0  0  0
 16 32  1  0  0  0  0
 17 18  1  0  0  0  0
 17 33  1  0  0  0  0
 17 34  1  0  0  0  0
 18 19  1  0  0  0  0
 18 35  1  0  0  0  0
 18 36  1  0  0  0  0
 19 37  1  0  0  0  0
 19 38  1  0  0  0  0
M  CHG  1  12   1
M  END
> <s_m_source_file>
AV-unprocessed.smi

> <i_m_source_file_index>
2743

> <i_lp_mmshare_version>
43012

> <i_f3d_flags>
0

> <s_epik_input>
TiNDW0NIMl1DKD1PKVtOSF1bQ0gyXUMxKFtDSDJdW0NIMl1bQ0gyXVtDSDJdW0NIMl0xKWMyW2NIXVtjSF1uW2NIXVtjSF0y

> <s_epik_cmdline>
J2VwaWtfcHl0aG9uJywgJy1waCcsICc3LjAnLCAnLXRuJywgJzgnLCAnLW1hJywgJzIwMCcsICctbWV0YWxfYmluZGluZycsICctaW1hZScsICc8aW5maWxlLm1hZT4nLCAnLW9tYWUnLCAnPG91dGZpbGUubWFlPic=

> <r_epik_Ionization_Penalty>
1.44483

> <r_epik_Ionization_Penalty_Charging>
1.44483

> <r_epik_Ionization_Penalty_Neutral>
8.95364e-07

> <r_epik_State_Penalty>
1.53054

> <r_epik_Charging_Adjusted_Penalty>
2.97537

> <i_epik_Tot_Q>
1

> <i_epik_Tot_abs_Q>
1

> <r_epik_Metal_State_Penalty>
1.58148

> <b_epik_Metal_Only>
0

> <s_lp_Force_Field>
OPLS_2005

> <r_lp_Energy>
24.9332

> <b_lp_Chiralities_Consistent>
1

> <s_lp_Variant>
AV-unprocessed.smi:2743-2

> <Gold.Version>
5.8.1

> <Gold.Id.Protein>
6NUR|6NUR_protein|mol2

> <Gold.PLP.Fitness>
41.3474

> <Gold.PLP.PLP>
-36.7286

> <Gold.PLP.part.hbond>
-2.0000

> <Gold.PLP.part.metal>
0.0000

> <Gold.PLP.part.buried>
-0.9624

> <Gold.PLP.part.nonpolar>
-33.8823

> <Gold.PLP.part.repulsive>
0.3680

> <Gold.PLP.ligand.clash>
0.0000

> <Gold.PLP.ligand.torsion>
0.1859

> <Gold.PLP.Chemscore.Hbond>
1.6560

> <Gold.PLP.Chemscore.CHOScore>
0.0000

> <Gold.PLP.Chemscore.Metal>
0.0000

> <Gold.Chemscore.Hbonds>
donor molecule, donor type, donor heavy atom, donor atom, acceptor molecule, acceptor atom, score
      L1  H     6    22       P1  8028  1.00
      P1  H  6934  6946       L1     5  0.61

> <Gold.PLP.Chemscore.Internal.Correction>
0.0226

> <Gold.Rescore>
     Score         DG    S(hbond)    S(metal)    S(lipo)     H(rot)  DE(clash)    DE(int)     intcor
     16.25     -17.51       1.34        0.00     105.15       1.85       0.92       0.33       ----

> <Gold.Chemscore.Fitness>
16.2540

> <Gold.Chemscore.DG>
-17.5072

> <Gold.Chemscore.ZeroCoef>
-5.4800

> <Gold.Chemscore.Hbond>
1.3392

> <Gold.Chemscore.Metal>
0.0000

> <Gold.Chemscore.Lipo>
105.1529

> <Gold.Chemscore.Internal_Hbond>
0.0000

> <Gold.Chemscore.DEClash>
0.9222

> <Gold.Chemscore.DEInternal>
0.3310

> <Gold.Chemscore.Rot>
1.8550

> <Gold.Chemscore.Internal.Correction>
   9.000000E+99

> <Gold.Chemscore.Hbonds>
donor molecule, donor type, donor heavy atom, donor atom, acceptor molecule, acceptor atom, score
      L1  H     6    22       P1  8028  0.77
      P1  H  6934  6946       L1     5  0.59

> <Gold.Chemscore.Hbond.Weighted>
-4.4731

> <Gold.Chemscore.Metal.Weighted>
-0.0000

> <Gold.Chemscore.Lipo.Weighted>
-12.3029

> <Gold.Chemscore.Internal_Hbond.Weighted>
0.0000

> <Gold.Chemscore.DEClash.Weighted>
0.9222

> <Gold.Chemscore.DEInternal.Weighted>
0.3310

> <Gold.Chemscore.Rot.Weighted>
4.7488

> <Gold.Chemscore.Internal.Correction.Weighted>
   9.000000E+99

> <Gold.Protein.RotatedTorsions>
[ 6907 6896 6895 6894 ] final  125.96 input  -60.11 | X-H torsion
[ 7974 7965 7964 7962 ] final  -96.24 input  175.53 | X-H torsion
[ 8008 7997 7996 7995 ] final -115.04 input   59.86 | X-H torsion
[ 10167 10162 10161 10158 ] final -117.96 input  -65.29 | X-H torsion
[ 10718 10713 10712 10709 ] final -134.79 input   66.30 | X-H torsion
[ 10763 10752 10751 10750 ] final   77.21 input  -60.55 | X-H torsion
[ 11005 11000 10999 10996 ] final -166.48 input  -57.11 | X-H torsion

> <Gold.Protein.ActiveResidues>
 VAL166  LYS551  ARG553  GLY616  TRP617  ASP618  TYR619  PRO620  LYS621  CYS622 
 ASP623  PHE694  ASN695  SER759  ASP760  ASP761  ALA762  ILE779  LEU786  VAL792 
 PHE793  MET794  SER795  GLU796  ALA797  LYS798  CYS799  TRP800  GLU811  SER814 

> <Gold.Protein.RotatedAtoms>
  152.3946  133.6728  159.6265 H   0  0  0  0  0  0  0  0  0  0  0  0  # atno 6907 bound_to 6896
  150.7848  133.8896  159.3318 H   0  0  0  0  0  0  0  0  0  0  0  0  # atno 6908 bound_to 6896
  151.6675  135.0982  160.0243 H   0  0  0  0  0  0  0  0  0  0  0  0  # atno 6909 bound_to 6896
  145.3494  140.9474  143.2563 H   0  0  0  0  0  0  0  0  0  0  0  0  # atno 7974 bound_to 7965
  155.0458  140.0392  157.2526 H   0  0  0  0  0  0  0  0  0  0  0  0  # atno 8008 bound_to 7997
  154.7178  140.2706  155.6545 H   0  0  0  0  0  0  0  0  0  0  0  0  # atno 8009 bound_to 7997
  156.2808  140.2709  156.1840 H   0  0  0  0  0  0  0  0  0  0  0  0  # atno 8010 bound_to 7997
  140.0627  143.4952  152.2023 H   0  0  0  0  0  0  0  0  0  0  0  0  # atno 10167 bound_to 10162
  156.2592  130.7199  151.1127 H   0  0  0  0  0  0  0  0  0  0  0  0  # atno 10718 bound_to 10713
  153.0782  135.4922  154.8448 H   0  0  0  0  0  0  0  0  0  0  0  0  # atno 10763 bound_to 10752
  154.7115  135.3021  154.9191 H   0  0  0  0  0  0  0  0  0  0  0  0  # atno 10764 bound_to 10752
  153.9883  135.6781  153.4806 H   0  0  0  0  0  0  0  0  0  0  0  0  # atno 10765 bound_to 10752
  140.5640  134.5305  157.5149 H   0  0  0  0  0  0  0  0  0  0  0  0  # atno 11005 bound_to 11000
  144.8729  139.5012  143.6759 LP  0  0  0  0  0  0  0  0  0  0  0  0  # atno 17320 bound_to 7965
  146.2974  139.7320  142.9116 LP  0  0  0  0  0  0  0  0  0  0  0  0  # atno 17321 bound_to 7965
  139.5884  144.7540  151.3463 LP  0  0  0  0  0  0  0  0  0  0  0  0  # atno 17342 bound_to 10162
  140.7164  143.7255  150.7663 LP  0  0  0  0  0  0  0  0  0  0  0  0  # atno 17343 bound_to 10162
  157.7244  131.0660  150.5996 LP  0  0  0  0  0  0  0  0  0  0  0  0  # atno 17370 bound_to 10713
  156.6083  130.4373  149.5869 LP  0  0  0  0  0  0  0  0  0  0  0  0  # atno 17371 bound_to 10713
  139.9394  134.7815  156.0718 LP  0  0  0  0  0  0  0  0  0  0  0  0  # atno 17394 bound_to 11000
  141.1097  133.6647  156.2949 LP  0  0  0  0  0  0  0  0  0  0  0  0  # atno 17395 bound_to 11000

$$$$
