AV-unprocessed.smi:1499|AV-procd|sdf|6062|dock4
  -GOLD-   22720 6183D 1   1.00000     0.00000
 Structure written by MMmdl.
 40 41  0  0  0  0  0  0  0  0  1 V2000
  154.2111  131.7609  157.8562 C   0  0  0  0  0  0  0  0  0  0  0  0
  153.4616  130.9497  156.7882 C   0  0  0  0  0  0  0  0  0  0  0  0
  152.0102  131.0724  156.9155 N   0  0  0  0  0  0  0  0  0  0  0  0
  151.6504  132.4941  156.9223 C   0  0  0  0  0  0  0  0  0  0  0  0
  150.1252  132.6621  157.0682 C   0  0  0  0  0  0  0  0  0  0  0  0
  149.4665  131.9825  155.9429 N   0  0  0  0  0  0  0  0  0  0  0  0
  148.8483  132.5730  154.8895 C   0  0  0  0  0  0  0  0  0  0  0  0
  149.0294  133.7536  154.5889 O   0  0  0  0  0  0  0  0  0  0  0  0
  148.0753  131.7399  154.1667 N   0  0  0  0  0  0  0  0  0  0  0  0
  147.2904  132.0511  153.0273 C   0  0  0  0  0  0  0  0  0  0  0  0
  147.2864  133.3073  152.3670 C   0  0  0  0  0  0  0  0  0  0  0  0
  146.4587  133.3034  151.3331 N   0  0  0  0  0  0  0  0  0  0  0  0
  145.9257  132.0557  151.3140 N   0  0  0  0  0  0  0  0  0  0  0  0
  144.9635  131.6996  150.2869 C   0  0  0  0  0  0  0  0  0  0  0  0
  143.7820  132.6710  150.2793 C   0  0  0  0  0  0  0  0  0  0  0  0
  142.7386  132.3556  149.5075 N   0  0  0  0  0  0  0  0  0  0  0  0
  143.8109  133.6924  150.9626 O   0  0  0  0  0  0  0  0  0  0  0  0
  146.4133  131.2643  152.3358 C   0  0  0  0  0  0  0  0  0  0  0  0
  149.7919  130.5534  155.9660 C   0  0  0  0  0  0  0  0  0  0  0  0
  151.3168  130.3845  155.8189 C   0  0  0  0  0  0  0  0  0  0  0  0
  155.2824  131.7542  157.6553 H   0  0  0  0  0  0  0  0  0  0  0  0
  154.0710  131.3533  158.8571 H   0  0  0  0  0  0  0  0  0  0  0  0
  153.8844  132.8014  157.8639 H   0  0  0  0  0  0  0  0  0  0  0  0
  153.7613  131.3316  155.8112 H   0  0  0  0  0  0  0  0  0  0  0  0
  153.7612  129.9011  156.8193 H   0  0  0  0  0  0  0  0  0  0  0  0
  152.1501  132.9926  157.7539 H   0  0  0  0  0  0  0  0  0  0  0  0
  151.9962  132.9742  156.0051 H   0  0  0  0  0  0  0  0  0  0  0  0
  149.7856  132.2183  158.0054 H   0  0  0  0  0  0  0  0  0  0  0  0
  149.8872  133.7228  157.1449 H   0  0  0  0  0  0  0  0  0  0  0  0
  148.0345  130.7810  154.4798 H   0  0  0  0  0  0  0  0  0  0  0  0
  147.8438  134.2033  152.5980 H   0  0  0  0  0  0  0  0  0  0  0  0
  145.4639  131.7185  149.3176 H   0  0  0  0  0  0  0  0  0  0  0  0
  144.6152  130.6779  150.4475 H   0  0  0  0  0  0  0  0  0  0  0  0
  141.9386  132.9709  149.4659 H   0  0  0  0  0  0  0  0  0  0  0  0
  142.7567  131.5055  148.9631 H   0  0  0  0  0  0  0  0  0  0  0  0
  146.0969  130.2399  152.4660 H   0  0  0  0  0  0  0  0  0  0  0  0
  149.4512  130.1183  156.9071 H   0  0  0  0  0  0  0  0  0  0  0  0
  149.2811  129.9938  155.1813 H   0  0  0  0  0  0  0  0  0  0  0  0
  151.6482  130.7793  154.8570 H   0  0  0  0  0  0  0  0  0  0  0  0
  151.5544  129.3215  155.8296 H   0  0  0  0  0  0  0  0  0  0  0  0
  1  2  1  0  0  0  0
  1 21  1  0  0  0  0
  1 22  1  0  0  0  0
  1 23  1  0  0  0  0
  2  3  1  0  0  0  0
  2 24  1  0  0  0  0
  2 25  1  0  0  0  0
  3 20  1  0  0  0  0
  3  4  1  0  0  0  0
  4  5  1  0  0  0  0
  4 26  1  0  0  0  0
  4 27  1  0  0  0  0
  5  6  1  0  0  0  0
  5 28  1  0  0  0  0
  5 29  1  0  0  0  0
  6  7  1  0  0  0  0
  6 19  1  0  0  0  0
  7  8  2  0  0  0  0
  7  9  1  0  0  0  0
  9 10  1  0  0  0  0
  9 30  1  0  0  0  0
 10 18  2  0  0  0  0
 10 11  1  0  0  0  0
 11 12  2  0  0  0  0
 11 31  1  0  0  0  0
 12 13  1  0  0  0  0
 13 14  1  0  0  0  0
 13 18  1  0  0  0  0
 14 15  1  0  0  0  0
 14 32  1  0  0  0  0
 14 33  1  0  0  0  0
 15 16  1  0  0  0  0
 15 17  2  0  0  0  0
 16 34  1  0  0  0  0
 16 35  1  0  0  0  0
 18 36  1  0  0  0  0
 19 20  1  0  0  0  0
 19 37  1  0  0  0  0
 19 38  1  0  0  0  0
 20 39  1  0  0  0  0
 20 40  1  0  0  0  0
M  END
> <s_m_source_file>
AV-unprocessed.smi

> <i_m_source_file_index>
1499

> <i_lp_mmshare_version>
43012

> <i_f3d_flags>
0

> <s_epik_input>
W0NIM11bQ0gyXU4xW0NIMl1bQ0gyXU4oW0NIMl1bQ0gyXTEpQyg9TylbTkhdYzJbY0hdbm4oW2NIXTIpW0NIMl1DKD1PKVtOSDJd

> <s_epik_cmdline>
J2VwaWtfcHl0aG9uJywgJy1waCcsICc3LjAnLCAnLXRuJywgJzgnLCAnLW1hJywgJzIwMCcsICctbWV0YWxfYmluZGluZycsICctaW1hZScsICc8aW5maWxlLm1hZT4nLCAnLW9tYWUnLCAnPG91dGZpbGUubWFlPic=

> <r_lp_tautomer_probability>
1

> <r_epik_Ionization_Penalty>
0.431808

> <r_epik_Ionization_Penalty_Charging>
0

> <r_epik_Ionization_Penalty_Neutral>
0.431808

> <r_epik_State_Penalty>
0.433198

> <r_epik_Charging_Adjusted_Penalty>
0.433198

> <i_epik_Tot_Q>
0

> <i_epik_Tot_abs_Q>
0

> <r_epik_Metal_State_Penalty>
0.433196

> <b_epik_Metal_Only>
0

> <s_lp_Force_Field>
OPLS_2005

> <r_lp_Energy>
45.1289

> <b_lp_Chiralities_Consistent>
1

> <s_lp_Variant>
AV-unprocessed.smi:1499-2

> <Gold.Version>
5.8.1

> <Gold.Id.Protein>
6NUR|6NUR_protein|mol2

> <Gold.PLP.Fitness>
37.5818

> <Gold.PLP.PLP>
-31.5936

> <Gold.PLP.part.hbond>
-2.0000

> <Gold.PLP.part.metal>
0.0000

> <Gold.PLP.part.buried>
-5.9831

> <Gold.PLP.part.nonpolar>
-24.5551

> <Gold.PLP.part.repulsive>
0.6185

> <Gold.PLP.ligand.clash>
0.0000

> <Gold.PLP.ligand.torsion>
0.3456

> <Gold.PLP.Chemscore.Hbond>
1.2059

> <Gold.PLP.Chemscore.CHOScore>
1.0000

> <Gold.PLP.Chemscore.Metal>
0.0000

> <Gold.Chemscore.Hbonds>
donor molecule, donor type, donor heavy atom, donor atom, acceptor molecule, acceptor atom, score
      L1  H    16    34       P1 10186  1.00
      L1  H    16    35       P1 10952  0.03
      L1  C    11    31       P1  7948  1.00

> <Gold.PLP.Chemscore.Internal.Correction>
0.0616

> <Gold.Rescore>
     Score         DG    S(hbond)    S(metal)    S(lipo)     H(rot)  DE(clash)    DE(int)     intcor
      9.97     -13.28       1.78        0.00      56.02       1.83       0.09       3.22       ----

> <Gold.Chemscore.Fitness>
9.9733

> <Gold.Chemscore.DG>
-13.2791

> <Gold.Chemscore.ZeroCoef>
-5.4800

> <Gold.Chemscore.Hbond>
1.7774

> <Gold.Chemscore.Metal>
0.0000

> <Gold.Chemscore.Lipo>
56.0156

> <Gold.Chemscore.Internal_Hbond>
0.0000

> <Gold.Chemscore.DEClash>
0.0862

> <Gold.Chemscore.DEInternal>
3.2195

> <Gold.Chemscore.Rot>
1.8325

> <Gold.Chemscore.Internal.Correction>
   9.000000E+99

> <Gold.Chemscore.Hbonds>
donor molecule, donor type, donor heavy atom, donor atom, acceptor molecule, acceptor atom, score
      L1  H    16    34       P1 10186  1.00
      L1  H    16    35       P1 10952  0.03

> <Gold.Chemscore.Hbond.Weighted>
-5.9365

> <Gold.Chemscore.Metal.Weighted>
-0.0000

> <Gold.Chemscore.Lipo.Weighted>
-6.5538

> <Gold.Chemscore.Internal_Hbond.Weighted>
0.0000

> <Gold.Chemscore.DEClash.Weighted>
0.0862

> <Gold.Chemscore.DEInternal.Weighted>
3.2195

> <Gold.Chemscore.Rot.Weighted>
4.6912

> <Gold.Chemscore.Internal.Correction.Weighted>
   9.000000E+99

> <Gold.Protein.RotatedTorsions>
[ 6907 6896 6895 6894 ] final   74.42 input  -60.11 | X-H torsion
[ 7974 7965 7964 7962 ] final -152.51 input  175.53 | X-H torsion
[ 8008 7997 7996 7995 ] final  168.31 input   59.86 | X-H torsion
[ 10167 10162 10161 10158 ] final   86.38 input  -65.29 | X-H torsion
[ 10718 10713 10712 10709 ] final  -46.39 input   66.30 | X-H torsion
[ 10763 10752 10751 10750 ] final  171.55 input  -60.55 | X-H torsion
[ 11005 11000 10999 10996 ] final -154.97 input  -57.11 | X-H torsion

> <Gold.Protein.ActiveResidues>
 VAL166  LYS551  ARG553  GLY616  TRP617  ASP618  TYR619  PRO620  LYS621  CYS622 
 ASP623  PHE694  ASN695  SER759  ASP760  ASP761  ALA762  ILE779  LEU786  VAL792 
 PHE793  MET794  SER795  GLU796  ALA797  LYS798  CYS799  TRP800  GLU811  SER814 

> <Gold.Protein.RotatedAtoms>
  152.4975  134.4274  159.9500 H   0  0  0  0  0  0  0  0  0  0  0  0  # atno 6907 bound_to 6896
  151.4250  133.3681  159.2769 H   0  0  0  0  0  0  0  0  0  0  0  0  # atno 6908 bound_to 6896
  150.9195  134.8635  159.7539 H   0  0  0  0  0  0  0  0  0  0  0  0  # atno 6909 bound_to 6896
  144.7790  140.4652  143.5853 H   0  0  0  0  0  0  0  0  0  0  0  0  # atno 7974 bound_to 7965
  156.1558  140.1594  156.8695 H   0  0  0  0  0  0  0  0  0  0  0  0  # atno 8008 bound_to 7997
  154.5113  140.0800  156.8032 H   0  0  0  0  0  0  0  0  0  0  0  0  # atno 8009 bound_to 7997
  155.3806  140.3405  155.4249 H   0  0  0  0  0  0  0  0  0  0  0  0  # atno 8010 bound_to 7997
  139.8881  144.6401  150.8769 H   0  0  0  0  0  0  0  0  0  0  0  0  # atno 10167 bound_to 10162
  156.2188  130.4165  149.9019 H   0  0  0  0  0  0  0  0  0  0  0  0  # atno 10718 bound_to 10713
  154.4135  135.2756  155.2021 H   0  0  0  0  0  0  0  0  0  0  0  0  # atno 10763 bound_to 10752
  154.3997  135.6047  153.5893 H   0  0  0  0  0  0  0  0  0  0  0  0  # atno 10764 bound_to 10752
  152.9831  135.5923  154.4420 H   0  0  0  0  0  0  0  0  0  0  0  0  # atno 10765 bound_to 10752
  140.6916  134.4035  157.5218 H   0  0  0  0  0  0  0  0  0  0  0  0  # atno 11005 bound_to 11000
  145.6103  139.1512  143.3079 LP  0  0  0  0  0  0  0  0  0  0  0  0  # atno 17320 bound_to 7965
  146.1987  140.6220  142.9112 LP  0  0  0  0  0  0  0  0  0  0  0  0  # atno 17321 bound_to 7965
  140.7732  143.3532  151.1973 LP  0  0  0  0  0  0  0  0  0  0  0  0  # atno 17342 bound_to 10162
  139.7134  143.9339  152.2957 LP  0  0  0  0  0  0  0  0  0  0  0  0  # atno 17343 bound_to 10162
  156.6673  130.8806  151.3557 LP  0  0  0  0  0  0  0  0  0  0  0  0  # atno 17370 bound_to 10713
  157.7077  130.9404  150.0984 LP  0  0  0  0  0  0  0  0  0  0  0  0  # atno 17371 bound_to 10713
  139.8922  134.8761  156.2283 LP  0  0  0  0  0  0  0  0  0  0  0  0  # atno 17394 bound_to 11000
  141.0237  133.7027  156.1311 LP  0  0  0  0  0  0  0  0  0  0  0  0  # atno 17395 bound_to 11000

$$$$
