AV-unprocessed.smi:1568|AV-procd|sdf|6310|dock2
  -GOLD-   22720 6513D 1   1.00000     0.00000
 Structure written by MMmdl.
 43 44  0  0  0  0  0  0  0  0  1 V2000
  152.5083  143.3394  159.7667 C   0  0  0  0  0  0  0  0  0  0  0  0
  152.3882  143.9376  158.4879 O   0  0  0  0  0  0  0  0  0  0  0  0
  151.3407  143.3660  157.7236 C   0  0  0  0  0  0  0  0  0  0  0  0
  151.6042  141.8691  157.5415 C   0  0  0  0  0  0  0  0  0  0  0  0
  150.9597  141.4464  156.3450 O   0  0  0  0  0  0  0  0  0  0  0  0
  151.2636  140.2038  155.8244 C   0  0  0  0  0  0  0  0  0  0  0  0
  152.3771  139.5713  156.2737 N   0  0  0  0  0  0  0  0  0  0  0  0
  152.6564  138.3410  155.7947 C   0  0  0  0  0  0  0  0  0  0  0  0
  151.8458  137.6761  154.8554 C   0  0  0  0  0  0  0  0  0  0  0  0
  150.6922  138.3312  154.3858 C   0  0  0  0  0  0  0  0  0  0  0  0
  150.3990  139.6258  154.8624 C   0  0  0  0  0  0  0  0  0  0  0  0
  149.1698  140.3406  154.3824 C   0  0  0  0  0  0  0  0  0  0  0  0
  149.2939  141.4778  153.9271 O   0  0  0  0  0  0  0  0  0  0  0  0
  147.9814  139.6897  154.4536 N   0  0  0  0  0  0  0  0  0  0  0  0
  146.7572  140.2289  153.8474 C   0  0  0  0  0  0  0  0  0  0  0  0
  146.2135  139.2201  152.8205 C   0  0  0  0  0  0  0  0  0  0  0  0
  145.9386  137.8519  153.4814 C   0  0  0  0  0  0  0  0  0  0  0  0
  145.4775  136.8177  152.4457 C   0  0  0  0  0  0  0  0  0  0  0  0
  146.4188  136.2688  151.6742 N   0  0  0  0  0  0  0  0  0  0  0  0
  144.2903  136.5146  152.3425 O   0  0  0  0  0  0  0  0  0  0  0  0
  147.1899  137.3608  154.2411 C   0  0  0  0  0  0  0  0  0  0  0  0
  147.7270  138.4436  155.1951 C   0  0  0  0  0  0  0  0  0  0  0  0
  153.3229  143.8100  160.3171 H   0  0  0  0  0  0  0  0  0  0  0  0
  152.7290  142.2744  159.6844 H   0  0  0  0  0  0  0  0  0  0  0  0
  151.5932  143.4627  160.3479 H   0  0  0  0  0  0  0  0  0  0  0  0
  150.3840  143.5178  158.2258 H   0  0  0  0  0  0  0  0  0  0  0  0
  151.2824  143.8534  156.7504 H   0  0  0  0  0  0  0  0  0  0  0  0
  152.6784  141.6873  157.4792 H   0  0  0  0  0  0  0  0  0  0  0  0
  151.2142  141.3193  158.3996 H   0  0  0  0  0  0  0  0  0  0  0  0
  153.5501  137.8698  156.1762 H   0  0  0  0  0  0  0  0  0  0  0  0
  152.1031  136.6880  154.5039 H   0  0  0  0  0  0  0  0  0  0  0  0
  150.0496  137.8482  153.6640 H   0  0  0  0  0  0  0  0  0  0  0  0
  146.0174  140.4102  154.6284 H   0  0  0  0  0  0  0  0  0  0  0  0
  146.9155  141.1889  153.3544 H   0  0  0  0  0  0  0  0  0  0  0  0
  145.2992  139.6102  152.3717 H   0  0  0  0  0  0  0  0  0  0  0  0
  146.9356  139.1120  152.0090 H   0  0  0  0  0  0  0  0  0  0  0  0
  145.1381  137.9908  154.2105 H   0  0  0  0  0  0  0  0  0  0  0  0
  146.1648  135.5828  150.9783 H   0  0  0  0  0  0  0  0  0  0  0  0
  147.3838  136.5425  151.7907 H   0  0  0  0  0  0  0  0  0  0  0  0
  146.9523  136.4603  154.8088 H   0  0  0  0  0  0  0  0  0  0  0  0
  147.9723  137.0787  153.5381 H   0  0  0  0  0  0  0  0  0  0  0  0
  148.5997  138.0634  155.7242 H   0  0  0  0  0  0  0  0  0  0  0  0
  146.9872  138.6478  155.9703 H   0  0  0  0  0  0  0  0  0  0  0  0
  1  2  1  0  0  0  0
  1 23  1  0  0  0  0
  1 24  1  0  0  0  0
  1 25  1  0  0  0  0
  2  3  1  0  0  0  0
  3  4  1  0  0  0  0
  3 26  1  0  0  0  0
  3 27  1  0  0  0  0
  4  5  1  0  0  0  0
  4 28  1  0  0  0  0
  4 29  1  0  0  0  0
  5  6  1  0  0  0  0
  6 11  1  0  0  0  0
  6  7  2  0  0  0  0
  7  8  1  0  0  0  0
  8  9  2  0  0  0  0
  8 30  1  0  0  0  0
  9 10  1  0  0  0  0
  9 31  1  0  0  0  0
 10 11  2  0  0  0  0
 10 32  1  0  0  0  0
 11 12  1  0  0  0  0
 12 13  2  0  0  0  0
 12 14  1  0  0  0  0
 14 22  1  0  0  0  0
 14 15  1  0  0  0  0
 15 16  1  0  0  0  0
 15 33  1  0  0  0  0
 15 34  1  0  0  0  0
 16 17  1  0  0  0  0
 16 35  1  0  0  0  0
 16 36  1  0  0  0  0
 17 18  1  0  0  0  0
 17 21  1  0  0  0  0
 17 37  1  0  0  0  0
 18 19  1  0  0  0  0
 18 20  2  0  0  0  0
 19 38  1  0  0  0  0
 19 39  1  0  0  0  0
 21 22  1  0  0  0  0
 21 40  1  0  0  0  0
 21 41  1  0  0  0  0
 22 42  1  0  0  0  0
 22 43  1  0  0  0  0
M  END
> <s_m_source_file>
AV-unprocessed.smi

> <i_m_source_file_index>
1568

> <i_lp_mmshare_version>
43012

> <i_f3d_flags>
0

> <s_epik_input>
W0NIM11PW0NIMl1bQ0gyXU9jMW5bY0hdW2NIXVtjSF1jMUMoPU8pTjJbQ0gyXVtDSDJdW0NIXShDKD1PKVtOSDJdKVtDSDJdW0NIMl0y

> <s_epik_cmdline>
J2VwaWtfcHl0aG9uJywgJy1waCcsICc3LjAnLCAnLXRuJywgJzgnLCAnLW1hJywgJzIwMCcsICctbWV0YWxfYmluZGluZycsICctaW1hZScsICc8aW5maWxlLm1hZT4nLCAnLW9tYWUnLCAnPG91dGZpbGUubWFlPic=

> <r_lp_tautomer_probability>
1

> <r_epik_Ionization_Penalty>
2.36279e-06

> <r_epik_Ionization_Penalty_Charging>
0

> <r_epik_Ionization_Penalty_Neutral>
2.36279e-06

> <r_epik_State_Penalty>
-0

> <r_epik_Charging_Adjusted_Penalty>
0

> <i_epik_Tot_Q>
0

> <i_epik_Tot_abs_Q>
0

> <r_epik_Metal_State_Penalty>
-0

> <b_epik_Metal_Only>
0

> <s_lp_Force_Field>
OPLS_2005

> <r_lp_Energy>
28.0257

> <b_lp_Chiralities_Consistent>
1

> <s_lp_Variant>
AV-unprocessed.smi:1568-1

> <Gold.Version>
5.8.1

> <Gold.Id.Protein>
6NUR|6NUR_protein|mol2

> <Gold.PLP.Fitness>
39.9155

> <Gold.PLP.PLP>
-34.3917

> <Gold.PLP.part.hbond>
-3.8544

> <Gold.PLP.part.metal>
0.0000

> <Gold.PLP.part.buried>
0.0415

> <Gold.PLP.part.nonpolar>
-31.2498

> <Gold.PLP.part.repulsive>
0.7499

> <Gold.PLP.ligand.clash>
0.0000

> <Gold.PLP.ligand.torsion>
1.8174

> <Gold.PLP.Chemscore.Hbond>
2.3640

> <Gold.PLP.Chemscore.CHOScore>
0.0000

> <Gold.PLP.Chemscore.Metal>
0.0000

> <Gold.Chemscore.Hbonds>
donor molecule, donor type, donor heavy atom, donor atom, acceptor molecule, acceptor atom, score
      L1  H    19    39       P1  7948  1.00
      P1  H  7997  8009       L1     7  0.61
      P1  H  8011  8017       L1    13  0.72

> <Gold.PLP.Chemscore.Internal.Correction>
2.0667

> <Gold.Rescore>
     Score         DG    S(hbond)    S(metal)    S(lipo)     H(rot)  DE(clash)    DE(int)     intcor
     11.08     -15.35       1.78        0.00      82.04       2.21       1.30       2.97       ----

> <Gold.Chemscore.Fitness>
11.0793

> <Gold.Chemscore.DG>
-15.3502

> <Gold.Chemscore.ZeroCoef>
-5.4800

> <Gold.Chemscore.Hbond>
1.7788

> <Gold.Chemscore.Metal>
0.0000

> <Gold.Chemscore.Lipo>
82.0424

> <Gold.Chemscore.Internal_Hbond>
0.0000

> <Gold.Chemscore.DEClash>
1.3008

> <Gold.Chemscore.DEInternal>
2.9702

> <Gold.Chemscore.Rot>
2.2148

> <Gold.Chemscore.Internal.Correction>
   9.000000E+99

> <Gold.Chemscore.Hbonds>
donor molecule, donor type, donor heavy atom, donor atom, acceptor molecule, acceptor atom, score
      L1  H    19    39       P1  7948  0.94
      P1  H  7997  8009       L1     7  0.05
      P1  H  8011  8017       L1    13  0.72

> <Gold.Chemscore.Hbond.Weighted>
-5.9410

> <Gold.Chemscore.Metal.Weighted>
-0.0000

> <Gold.Chemscore.Lipo.Weighted>
-9.5990

> <Gold.Chemscore.Internal_Hbond.Weighted>
0.0000

> <Gold.Chemscore.DEClash.Weighted>
1.3008

> <Gold.Chemscore.DEInternal.Weighted>
2.9702

> <Gold.Chemscore.Rot.Weighted>
5.6698

> <Gold.Chemscore.Internal.Correction.Weighted>
   9.000000E+99

> <Gold.Protein.RotatedTorsions>
[ 6907 6896 6895 6894 ] final  -54.29 input  -60.11 | X-H torsion
[ 7974 7965 7964 7962 ] final  -54.73 input  175.53 | X-H torsion
[ 8008 7997 7996 7995 ] final -154.20 input   59.86 | X-H torsion
[ 10167 10162 10161 10158 ] final  -92.16 input  -65.29 | X-H torsion
[ 10718 10713 10712 10709 ] final -126.46 input   66.30 | X-H torsion
[ 10763 10752 10751 10750 ] final  169.94 input  -60.55 | X-H torsion
[ 11005 11000 10999 10996 ] final  -96.18 input  -57.11 | X-H torsion

> <Gold.Protein.ActiveResidues>
 VAL166  LYS551  ARG553  GLY616  TRP617  ASP618  TYR619  PRO620  LYS621  CYS622 
 ASP623  PHE694  ASN695  SER759  ASP760  ASP761  ALA762  ILE779  LEU786  VAL792 
 PHE793  MET794  SER795  GLU796  ALA797  LYS798  CYS799  TRP800  GLU811  SER814 

> <Gold.Protein.RotatedAtoms>
  150.8351  134.7621  159.6885 H   0  0  0  0  0  0  0  0  0  0  0  0  # atno 6907 bound_to 6896
  152.4449  134.5512  159.9877 H   0  0  0  0  0  0  0  0  0  0  0  0  # atno 6908 bound_to 6896
  151.5664  133.3358  159.3017 H   0  0  0  0  0  0  0  0  0  0  0  0  # atno 6909 bound_to 6896
  145.8823  140.8135  142.9833 H   0  0  0  0  0  0  0  0  0  0  0  0  # atno 7974 bound_to 7965
  155.6826  140.0746  157.2479 H   0  0  0  0  0  0  0  0  0  0  0  0  # atno 8008 bound_to 7997
  154.4103  140.1679  156.2051 H   0  0  0  0  0  0  0  0  0  0  0  0  # atno 8009 bound_to 7997
  155.9521  140.3376  155.6420 H   0  0  0  0  0  0  0  0  0  0  0  0  # atno 8010 bound_to 7997
  140.3376  143.2960  151.9872 H   0  0  0  0  0  0  0  0  0  0  0  0  # atno 10167 bound_to 10162
  156.1767  130.6704  151.0251 H   0  0  0  0  0  0  0  0  0  0  0  0  # atno 10718 bound_to 10713
  154.3905  135.2754  155.2158 H   0  0  0  0  0  0  0  0  0  0  0  0  # atno 10763 bound_to 10752
  154.4226  135.5996  153.6023 H   0  0  0  0  0  0  0  0  0  0  0  0  # atno 10764 bound_to 10752
  152.9832  135.5976  154.4159 H   0  0  0  0  0  0  0  0  0  0  0  0  # atno 10765 bound_to 10752
  141.1419  133.8079  157.0536 H   0  0  0  0  0  0  0  0  0  0  0  0  # atno 11005 bound_to 11000
  144.6727  140.1402  143.7437 LP  0  0  0  0  0  0  0  0  0  0  0  0  # atno 17320 bound_to 7965
  145.9009  139.2430  143.1494 LP  0  0  0  0  0  0  0  0  0  0  0  0  # atno 17321 bound_to 7965
  139.4846  144.6184  151.7303 LP  0  0  0  0  0  0  0  0  0  0  0  0  # atno 17342 bound_to 10162
  140.5339  144.0686  150.6063 LP  0  0  0  0  0  0  0  0  0  0  0  0  # atno 17343 bound_to 10162
  157.6840  131.0830  150.7292 LP  0  0  0  0  0  0  0  0  0  0  0  0  # atno 17370 bound_to 10713
  156.7350  130.4721  149.5490 LP  0  0  0  0  0  0  0  0  0  0  0  0  # atno 17371 bound_to 10713
  140.0616  134.9751  157.1314 LP  0  0  0  0  0  0  0  0  0  0  0  0  # atno 17394 bound_to 11000
  140.3840  134.2256  155.7169 LP  0  0  0  0  0  0  0  0  0  0  0  0  # atno 17395 bound_to 11000

$$$$
