AV-unprocessed.smi:840|AV-procd|sdf|3913|dock7
  -GOLD-   22720 1373D 1   1.00000     0.00000
 Structure written by MMmdl.
 36 37  0  0  0  0  0  0  0  0  2 V2000
  149.7768  134.1912  156.1432 C   0  0  0  0  0  0  0  0  0  0  0  0
  148.7963  135.2382  155.5893 C   0  0  2  0  0  0  0  0  0  0  0  0
  148.3698  134.8018  154.2600 N   0  0  0  0  0  0  0  0  0  0  0  0
  147.3272  134.0017  153.9889 C   0  0  0  0  0  0  0  0  0  0  0  0
  146.6305  133.5666  154.9092 O   0  0  0  0  0  0  0  0  0  0  0  0
  147.1590  133.7539  152.6699 N   0  5  0  0  0  0  0  0  0  0  0  0
  145.9229  133.7050  152.1473 C   0  0  0  0  0  0  0  0  0  0  0  0
  144.8894  134.3863  152.6553 N   0  0  0  0  0  0  0  0  0  0  0  0
  143.6994  134.1970  151.9504 C   0  0  0  0  0  0  0  0  0  0  0  0
  143.8313  133.3584  150.8755 C   0  0  0  0  0  0  0  0  0  0  0  0
  145.4641  132.7772  150.7164 S   0  0  0  0  0  0  0  0  0  0  0  0
  149.5279  136.5874  155.5080 C   0  0  0  0  0  0  0  0  0  0  0  0
  149.8743  137.1784  156.5322 O   0  0  0  0  0  0  0  0  0  0  0  0
  149.7419  137.0678  154.2739 N   0  0  0  0  0  0  0  0  0  0  0  0
  150.4241  138.3212  153.9652 C   0  0  0  0  0  0  0  0  0  0  0  0
  151.8564  138.3192  154.5340 C   0  0  0  0  0  0  0  0  0  0  0  0
  152.0156  139.6395  155.2909 C   0  0  0  0  0  0  0  0  0  0  0  0
  150.6052  139.9777  155.7627 C   0  0  0  0  0  0  0  0  0  0  0  0
  149.7086  139.5251  154.6103 C   0  0  0  0  0  0  0  0  0  0  0  0
  150.1290  134.4656  157.1385 H   0  0  0  0  0  0  0  0  0  0  0  0
  150.6506  134.0718  155.5008 H   0  0  0  0  0  0  0  0  0  0  0  0
  149.2958  133.2161  156.2273 H   0  0  0  0  0  0  0  0  0  0  0  0
  147.9316  135.3128  156.2518 H   0  0  0  0  0  0  0  0  0  0  0  0
  148.9060  135.1430  153.4759 H   0  0  0  0  0  0  0  0  0  0  0  0
  142.8048  134.7010  152.2843 H   0  0  0  0  0  0  0  0  0  0  0  0
  143.0737  133.0491  150.1715 H   0  0  0  0  0  0  0  0  0  0  0  0
  149.4255  136.5143  153.4912 H   0  0  0  0  0  0  0  0  0  0  0  0
  150.4636  138.4586  152.8829 H   0  0  0  0  0  0  0  0  0  0  0  0
  151.9933  137.4918  155.2324 H   0  0  0  0  0  0  0  0  0  0  0  0
  152.6086  138.2067  153.7525 H   0  0  0  0  0  0  0  0  0  0  0  0
  152.7285  139.5690  156.1130 H   0  0  0  0  0  0  0  0  0  0  0  0
  152.3687  140.4138  154.6083 H   0  0  0  0  0  0  0  0  0  0  0  0
  150.3694  139.4027  156.6592 H   0  0  0  0  0  0  0  0  0  0  0  0
  150.4822  141.0346  156.0010 H   0  0  0  0  0  0  0  0  0  0  0  0
  149.6321  140.3297  153.8779 H   0  0  0  0  0  0  0  0  0  0  0  0
  148.6945  139.3020  154.9457 H   0  0  0  0  0  0  0  0  0  0  0  0
  1  2  1  0  0  0  0
  1 20  1  0  0  0  0
  1 21  1  0  0  0  0
  1 22  1  0  0  0  0
  2  3  1  0  0  0  0
  2 12  1  0  0  0  0
  2 23  1  0  0  0  0
  3  4  1  0  0  0  0
  3 24  1  0  0  0  0
  4  5  2  0  0  0  0
  4  6  1  0  0  0  0
  6  7  1  0  0  0  0
  7 11  1  0  0  0  0
  7  8  2  0  0  0  0
  8  9  1  0  0  0  0
  9 10  2  0  0  0  0
  9 25  1  0  0  0  0
 10 11  1  0  0  0  0
 10 26  1  0  0  0  0
 12 13  2  0  0  0  0
 12 14  1  0  0  0  0
 14 15  1  0  0  0  0
 14 27  1  0  0  0  0
 15 19  1  0  0  0  0
 15 16  1  0  0  0  0
 15 28  1  0  0  0  0
 16 17  1  0  0  0  0
 16 29  1  0  0  0  0
 16 30  1  0  0  0  0
 17 18  1  0  0  0  0
 17 31  1  0  0  0  0
 17 32  1  0  0  0  0
 18 19  1  0  0  0  0
 18 33  1  0  0  0  0
 18 34  1  0  0  0  0
 19 35  1  0  0  0  0
 19 36  1  0  0  0  0
M  CHG  1   6  -1
M  END
> <s_m_source_file>
AV-unprocessed.smi

> <i_m_source_file_index>
840

> <i_lp_mmshare_version>
43012

> <i_f3d_flags>
0

> <s_epik_input>
W0NIMl0xW0NIMl1bQ0gyXVtDSDJdW0NIXTFbTkhdQyg9TylbQ0BIXShbQ0gzXSlbTkhdQyg9TylbTkhdYzJuW2NIXVtjSF1zMg==

> <s_epik_cmdline>
J2VwaWtfcHl0aG9uJywgJy1waCcsICc3LjAnLCAnLXRuJywgJzgnLCAnLW1hJywgJzIwMCcsICctbWV0YWxfYmluZGluZycsICctaW1hZScsICc8aW5maWxlLm1hZT4nLCAnLW9tYWUnLCAnPG91dGZpbGUubWFlPic=

> <r_lp_tautomer_probability>
1

> <r_epik_Ionization_Penalty>
6.35467

> <r_epik_Ionization_Penalty_Charging>
5.47395

> <r_epik_Ionization_Penalty_Neutral>
0.880717

> <r_epik_State_Penalty>
5.4739

> <r_epik_Charging_Adjusted_Penalty>
10.9479

> <i_epik_Tot_Q>
-1

> <i_epik_Tot_abs_Q>
1

> <r_epik_Metal_State_Penalty>
1.48639

> <b_epik_Metal_Only>
1

> <s_lp_Force_Field>
OPLS_2005

> <r_lp_Energy>
14.0087

> <b_lp_Chiralities_Consistent>
1

> <s_lp_Variant>
AV-unprocessed.smi:840-3

> <Gold.Version>
5.8.1

> <Gold.Id.Protein>
6NUR|6NUR_protein|mol2

> <Gold.PLP.Fitness>
36.7382

> <Gold.PLP.PLP>
-29.5101

> <Gold.PLP.part.hbond>
-2.5486

> <Gold.PLP.part.metal>
0.0000

> <Gold.PLP.part.buried>
-4.5522

> <Gold.PLP.part.nonpolar>
-24.5289

> <Gold.PLP.part.repulsive>
1.2225

> <Gold.PLP.ligand.clash>
0.0000

> <Gold.PLP.ligand.torsion>
0.9096

> <Gold.PLP.Chemscore.Hbond>
2.0000

> <Gold.PLP.Chemscore.CHOScore>
1.0000

> <Gold.PLP.Chemscore.Metal>
0.0000

> <Gold.Chemscore.Hbonds>
donor molecule, donor type, donor heavy atom, donor atom, acceptor molecule, acceptor atom, score
      L1  H     3    24       P1  7948  0.99
      L1  H    14    27       P1  7948  1.00
      L1  C    10    26       P1 10186  0.84

> <Gold.PLP.Chemscore.Internal.Correction>
0.0473

> <Gold.Rescore>
     Score         DG    S(hbond)    S(metal)    S(lipo)     H(rot)  DE(clash)    DE(int)     intcor
     12.44     -14.94       1.88        0.00      62.51       1.62       0.06       2.44       ----

> <Gold.Chemscore.Fitness>
12.4432

> <Gold.Chemscore.DG>
-14.9364

> <Gold.Chemscore.ZeroCoef>
-5.4800

> <Gold.Chemscore.Hbond>
1.8835

> <Gold.Chemscore.Metal>
0.0000

> <Gold.Chemscore.Lipo>
62.5092

> <Gold.Chemscore.Internal_Hbond>
0.0000

> <Gold.Chemscore.DEClash>
0.0571

> <Gold.Chemscore.DEInternal>
2.4361

> <Gold.Chemscore.Rot>
1.6204

> <Gold.Chemscore.Internal.Correction>
   9.000000E+99

> <Gold.Chemscore.Hbonds>
donor molecule, donor type, donor heavy atom, donor atom, acceptor molecule, acceptor atom, score
      L1  H     3    24       P1  7948  0.51
      L1  H    14    27       P1  7948  0.81

> <Gold.Chemscore.Hbond.Weighted>
-6.2910

> <Gold.Chemscore.Metal.Weighted>
-0.0000

> <Gold.Chemscore.Lipo.Weighted>
-7.3136

> <Gold.Chemscore.Internal_Hbond.Weighted>
0.0000

> <Gold.Chemscore.DEClash.Weighted>
0.0571

> <Gold.Chemscore.DEInternal.Weighted>
2.4361

> <Gold.Chemscore.Rot.Weighted>
4.1481

> <Gold.Chemscore.Internal.Correction.Weighted>
   9.000000E+99

> <Gold.Protein.RotatedTorsions>
[ 6907 6896 6895 6894 ] final   38.33 input  -60.11 | X-H torsion
[ 7974 7965 7964 7962 ] final   78.07 input  175.53 | X-H torsion
[ 8008 7997 7996 7995 ] final  -24.38 input   59.86 | X-H torsion
[ 10167 10162 10161 10158 ] final  169.85 input  -65.29 | X-H torsion
[ 10718 10713 10712 10709 ] final   40.38 input   66.30 | X-H torsion
[ 10763 10752 10751 10750 ] final  178.20 input  -60.55 | X-H torsion
[ 11005 11000 10999 10996 ] final   36.43 input  -57.11 | X-H torsion

> <Gold.Protein.ActiveResidues>
 VAL166  LYS551  ARG553  GLY616  TRP617  ASP618  TYR619  PRO620  LYS621  CYS622 
 ASP623  PHE694  ASN695  SER759  ASP760  ASP761  ALA762  ILE779  LEU786  VAL792 
 PHE793  MET794  SER795  GLU796  ALA797  LYS798  CYS799  TRP800  GLU811  SER814 

> <Gold.Protein.RotatedAtoms>
  152.1550  134.8958  160.0545 H   0  0  0  0  0  0  0  0  0  0  0  0  # atno 6907 bound_to 6896
  151.9975  133.3808  159.4177 H   0  0  0  0  0  0  0  0  0  0  0  0  # atno 6908 bound_to 6896
  150.6880  134.3792  159.5070 H   0  0  0  0  0  0  0  0  0  0  0  0  # atno 6909 bound_to 6896
  145.6818  139.2526  143.1809 H   0  0  0  0  0  0  0  0  0  0  0  0  # atno 7974 bound_to 7965
  154.4532  140.1955  156.0456 H   0  0  0  0  0  0  0  0  0  0  0  0  # atno 8008 bound_to 7997
  156.0692  140.3286  155.7528 H   0  0  0  0  0  0  0  0  0  0  0  0  # atno 8009 bound_to 7997
  155.5289  140.0576  157.2883 H   0  0  0  0  0  0  0  0  0  0  0  0  # atno 8010 bound_to 7997
  139.5003  144.3661  151.9774 H   0  0  0  0  0  0  0  0  0  0  0  0  # atno 10167 bound_to 10162
  157.3815  130.7756  149.7196 H   0  0  0  0  0  0  0  0  0  0  0  0  # atno 10718 bound_to 10713
  154.5045  135.2785  155.1393 H   0  0  0  0  0  0  0  0  0  0  0  0  # atno 10763 bound_to 10752
  154.3013  135.6247  153.5430 H   0  0  0  0  0  0  0  0  0  0  0  0  # atno 10764 bound_to 10752
  152.9908  135.5697  154.5496 H   0  0  0  0  0  0  0  0  0  0  0  0  # atno 10765 bound_to 10752
  140.2327  134.3508  155.7957 H   0  0  0  0  0  0  0  0  0  0  0  0  # atno 11005 bound_to 11000
  146.0957  140.7603  142.9573 LP  0  0  0  0  0  0  0  0  0  0  0  0  # atno 17320 bound_to 7965
  144.7023  140.3708  143.7145 LP  0  0  0  0  0  0  0  0  0  0  0  0  # atno 17321 bound_to 7965
  140.3097  144.3552  150.6037 LP  0  0  0  0  0  0  0  0  0  0  0  0  # atno 17342 bound_to 10162
  140.5808  143.2173  151.7431 LP  0  0  0  0  0  0  0  0  0  0  0  0  # atno 17343 bound_to 10162
  155.9777  130.4060  150.3697 LP  0  0  0  0  0  0  0  0  0  0  0  0  # atno 17370 bound_to 10713
  157.1801  131.0390  151.2752 LP  0  0  0  0  0  0  0  0  0  0  0  0  # atno 17371 bound_to 10713
  141.2216  133.7254  156.8757 LP  0  0  0  0  0  0  0  0  0  0  0  0  # atno 17394 bound_to 11000
  140.1734  134.9084  157.2861 LP  0  0  0  0  0  0  0  0  0  0  0  0  # atno 17395 bound_to 11000

$$$$
