AV-unprocessed.smi:2405|AV-procd|sdf|9514|dock7
  -GOLD-   2272013143D 1   1.00000     0.00000
 Structure written by MMmdl.
 36 37  0  0  0  0  0  0  0  0  2 V2000
  151.9497  145.4610  159.1427 C   0  0  0  0  0  0  0  0  0  0  0  0
  151.5332  143.9886  159.0603 C   0  0  0  0  0  0  0  0  0  0  0  0
  152.3108  143.1201  159.9915 C   0  0  0  0  0  0  0  0  0  0  0  0
  153.0083  142.0534  159.5931 N   0  0  0  0  0  0  0  0  0  0  0  0
  153.6716  141.4172  160.6474 C   0  0  0  0  0  0  0  0  0  0  0  0
  154.4904  140.1869  160.3845 C   0  0  0  0  0  0  0  0  0  0  0  0
  153.5750  138.9829  160.1601 C   0  0  0  0  0  0  0  0  0  0  0  0
  153.6590  137.9990  160.8955 O   0  0  0  0  0  0  0  0  0  0  0  0
  152.7092  139.0731  159.1396 N   0  0  0  0  0  0  0  0  0  0  0  0
  151.7529  138.0425  158.7491 C   0  0  2  0  0  0  0  0  0  0  0  0
  152.3481  137.0819  157.6986 C   0  0  0  0  0  0  0  0  0  0  0  0
  151.3516  137.0526  156.5340 C   0  0  0  0  0  0  0  0  0  0  0  0
  150.6390  138.4120  156.5776 C   0  0  2  0  0  0  0  0  0  0  0  0
  151.4482  139.4875  155.8205 C   0  0  0  0  0  0  0  0  0  0  0  0
  152.6534  139.6019  156.1337 O   0  0  0  0  0  0  0  0  0  0  0  0
  150.8750  140.1684  154.9406 O   0  5  0  0  0  0  0  0  0  0  0  0
  150.5146  138.6793  158.0898 C   0  0  0  0  0  0  0  0  0  0  0  0
  153.4828  142.0393  161.8572 C   0  0  0  0  0  0  0  0  0  0  0  0
  152.4565  143.4396  161.7157 S   0  0  0  0  0  0  0  0  0  0  0  0
  151.3647  146.0694  158.4527 H   0  0  0  0  0  0  0  0  0  0  0  0
  153.0022  145.5864  158.8876 H   0  0  0  0  0  0  0  0  0  0  0  0
  151.7983  145.8566  160.1473 H   0  0  0  0  0  0  0  0  0  0  0  0
  150.4729  143.8887  159.2935 H   0  0  0  0  0  0  0  0  0  0  0  0
  151.6651  143.6207  158.0420 H   0  0  0  0  0  0  0  0  0  0  0  0
  155.1311  140.3206  159.5117 H   0  0  0  0  0  0  0  0  0  0  0  0
  155.1549  139.9829  161.2249 H   0  0  0  0  0  0  0  0  0  0  0  0
  152.7168  139.9155  158.5809 H   0  0  0  0  0  0  0  0  0  0  0  0
  151.4354  137.4890  159.6348 H   0  0  0  0  0  0  0  0  0  0  0  0
  153.3096  137.4508  157.3374 H   0  0  0  0  0  0  0  0  0  0  0  0
  152.5207  136.0859  158.1071 H   0  0  0  0  0  0  0  0  0  0  0  0
  151.8413  136.8401  155.5824 H   0  0  0  0  0  0  0  0  0  0  0  0
  150.6206  136.2600  156.6986 H   0  0  0  0  0  0  0  0  0  0  0  0
  149.6543  138.3521  156.1130 H   0  0  0  0  0  0  0  0  0  0  0  0
  149.6213  138.1717  158.4556 H   0  0  0  0  0  0  0  0  0  0  0  0
  150.3830  139.7319  158.3459 H   0  0  0  0  0  0  0  0  0  0  0  0
  153.8828  141.7565  162.8197 H   0  0  0  0  0  0  0  0  0  0  0  0
  1  2  1  0  0  0  0
  1 20  1  0  0  0  0
  1 21  1  0  0  0  0
  1 22  1  0  0  0  0
  2  3  1  0  0  0  0
  2 23  1  0  0  0  0
  2 24  1  0  0  0  0
  3 19  1  0  0  0  0
  3  4  2  0  0  0  0
  4  5  1  0  0  0  0
  5  6  1  0  0  0  0
  5 18  2  0  0  0  0
  6  7  1  0  0  0  0
  6 25  1  0  0  0  0
  6 26  1  0  0  0  0
  7  8  2  0  0  0  0
  7  9  1  0  0  0  0
  9 10  1  0  0  0  0
  9 27  1  0  0  0  0
 10 17  1  0  0  0  0
 10 11  1  0  0  0  0
 10 28  1  0  0  0  0
 11 12  1  0  0  0  0
 11 29  1  0  0  0  0
 11 30  1  0  0  0  0
 12 13  1  0  0  0  0
 12 31  1  0  0  0  0
 12 32  1  0  0  0  0
 13 14  1  0  0  0  0
 13 17  1  0  0  0  0
 13 33  1  0  0  0  0
 14 15  2  0  0  0  0
 14 16  1  0  0  0  0
 17 34  1  0  0  0  0
 17 35  1  0  0  0  0
 18 19  1  0  0  0  0
 18 36  1  0  0  0  0
M  CHG  1  16  -1
M  END
> <s_m_source_file>
AV-unprocessed.smi

> <i_m_source_file_index>
2405

> <i_lp_mmshare_version>
43012

> <i_f3d_flags>
0

> <s_epik_input>
W0NIM11bQ0gyXWMxbmMoW2NIXXMxKVtDSDJdQyg9TylbTkhdW0NAQEhdMltDSDJdW0NIMl1bQ0BIXShbQ0gyXTIpQyg9TylbT0hd

> <s_epik_cmdline>
J2VwaWtfcHl0aG9uJywgJy1waCcsICc3LjAnLCAnLXRuJywgJzgnLCAnLW1hJywgJzIwMCcsICctbWV0YWxfYmluZGluZycsICctaW1hZScsICc8aW5maWxlLm1hZT4nLCAnLW9tYWUnLCAnPG91dGZpbGUubWFlPic=

> <r_epik_Ionization_Penalty>
0.000544611

> <r_epik_Ionization_Penalty_Charging>
0.000481685

> <r_epik_Ionization_Penalty_Neutral>
6.29266e-05

> <r_epik_State_Penalty>
0.00029893

> <r_epik_Charging_Adjusted_Penalty>
0.000780614

> <i_epik_Tot_Q>
-1

> <i_epik_Tot_abs_Q>
1

> <r_epik_Metal_State_Penalty>
-0

> <b_epik_Metal_Only>
0

> <s_lp_Force_Field>
OPLS_2005

> <r_lp_Energy>
7.32439

> <b_lp_Chiralities_Consistent>
1

> <s_lp_Variant>
AV-unprocessed.smi:2405-3

> <Gold.Version>
5.8.1

> <Gold.Id.Protein>
6NUR|6NUR_protein|mol2

> <Gold.PLP.Fitness>
47.0281

> <Gold.PLP.PLP>
-39.3152

> <Gold.PLP.part.hbond>
-2.0000

> <Gold.PLP.part.metal>
0.0000

> <Gold.PLP.part.buried>
-6.4187

> <Gold.PLP.part.nonpolar>
-30.6269

> <Gold.PLP.part.repulsive>
0.1498

> <Gold.PLP.ligand.clash>
0.0000

> <Gold.PLP.ligand.torsion>
0.6636

> <Gold.PLP.Chemscore.Hbond>
3.0000

> <Gold.PLP.Chemscore.CHOScore>
0.0000

> <Gold.PLP.Chemscore.Metal>
0.0000

> <Gold.Chemscore.Hbonds>
donor molecule, donor type, donor heavy atom, donor atom, acceptor molecule, acceptor atom, score
      P1  H  7989  7998       L1    16  1.00
      P1  H  7997  8010       L1    15  2.00

> <Gold.PLP.Chemscore.Internal.Correction>
0.0402

> <Gold.Rescore>
     Score         DG    S(hbond)    S(metal)    S(lipo)     H(rot)  DE(clash)    DE(int)     intcor
     16.39     -18.16       1.99        0.00      96.66       2.06       0.01       1.76       ----

> <Gold.Chemscore.Fitness>
16.3938

> <Gold.Chemscore.DG>
-18.1586

> <Gold.Chemscore.ZeroCoef>
-5.4800

> <Gold.Chemscore.Hbond>
1.9916

> <Gold.Chemscore.Metal>
0.0000

> <Gold.Chemscore.Lipo>
96.6581

> <Gold.Chemscore.Internal_Hbond>
0.0000

> <Gold.Chemscore.DEClash>
0.0089

> <Gold.Chemscore.DEInternal>
1.7560

> <Gold.Chemscore.Rot>
2.0635

> <Gold.Chemscore.Internal.Correction>
   9.000000E+99

> <Gold.Chemscore.Hbonds>
donor molecule, donor type, donor heavy atom, donor atom, acceptor molecule, acceptor atom, score
      P1  H  7989  7998       L1    16  1.00
      P1  H  7997  8010       L1    15  1.00

> <Gold.Chemscore.Hbond.Weighted>
-6.6521

> <Gold.Chemscore.Metal.Weighted>
-0.0000

> <Gold.Chemscore.Lipo.Weighted>
-11.3090

> <Gold.Chemscore.Internal_Hbond.Weighted>
0.0000

> <Gold.Chemscore.DEClash.Weighted>
0.0089

> <Gold.Chemscore.DEInternal.Weighted>
1.7560

> <Gold.Chemscore.Rot.Weighted>
5.2825

> <Gold.Chemscore.Internal.Correction.Weighted>
   9.000000E+99

> <Gold.Protein.RotatedTorsions>
[ 6907 6896 6895 6894 ] final -131.86 input  -60.11 | X-H torsion
[ 7974 7965 7964 7962 ] final  -28.88 input  175.53 | X-H torsion
[ 8008 7997 7996 7995 ] final   88.06 input   59.86 | X-H torsion
[ 10167 10162 10161 10158 ] final   92.43 input  -65.29 | X-H torsion
[ 10718 10713 10712 10709 ] final   30.32 input   66.30 | X-H torsion
[ 10763 10752 10751 10750 ] final  -74.71 input  -60.55 | X-H torsion
[ 11005 11000 10999 10996 ] final  -62.77 input  -57.11 | X-H torsion

> <Gold.Protein.ActiveResidues>
 VAL166  LYS551  ARG553  GLY616  TRP617  ASP618  TYR619  PRO620  LYS621  CYS622 
 ASP623  PHE694  ASN695  SER759  ASP760  ASP761  ALA762  ILE779  LEU786  VAL792 
 PHE793  MET794  SER795  GLU796  ALA797  LYS798  CYS799  TRP800  GLU811  SER814 

> <Gold.Protein.RotatedAtoms>
  150.9558  133.6499  159.2763 H   0  0  0  0  0  0  0  0  0  0  0  0  # atno 6907 bound_to 6896
  151.3839  135.0943  159.9514 H   0  0  0  0  0  0  0  0  0  0  0  0  # atno 6908 bound_to 6896
  152.5128  133.9087  159.7531 H   0  0  0  0  0  0  0  0  0  0  0  0  # atno 6909 bound_to 6896
  146.1257  140.5340  142.8716 H   0  0  0  0  0  0  0  0  0  0  0  0  # atno 7974 bound_to 7965
  155.9831  140.3375  155.6682 H   0  0  0  0  0  0  0  0  0  0  0  0  # atno 8008 bound_to 7997
  155.6521  140.0707  157.2601 H   0  0  0  0  0  0  0  0  0  0  0  0  # atno 8009 bound_to 7997
  154.4197  140.1723  156.1673 H   0  0  0  0  0  0  0  0  0  0  0  0  # atno 8010 bound_to 7997
  139.8278  144.6701  150.9438 H   0  0  0  0  0  0  0  0  0  0  0  0  # atno 10167 bound_to 10162
  157.2581  130.7147  149.6439 H   0  0  0  0  0  0  0  0  0  0  0  0  # atno 10718 bound_to 10713
  154.4768  135.5855  153.6361 H   0  0  0  0  0  0  0  0  0  0  0  0  # atno 10763 bound_to 10752
  152.9842  135.6080  154.3297 H   0  0  0  0  0  0  0  0  0  0  0  0  # atno 10764 bound_to 10752
  154.3184  135.2844  155.2511 H   0  0  0  0  0  0  0  0  0  0  0  0  # atno 10765 bound_to 10752
  141.1371  133.6644  156.5579 H   0  0  0  0  0  0  0  0  0  0  0  0  # atno 11005 bound_to 11000
  144.7640  140.5487  143.6716 LP  0  0  0  0  0  0  0  0  0  0  0  0  # atno 17320 bound_to 7965
  145.5371  139.1475  143.3467 LP  0  0  0  0  0  0  0  0  0  0  0  0  # atno 17321 bound_to 7965
  140.7809  143.4030  151.1118 LP  0  0  0  0  0  0  0  0  0  0  0  0  # atno 17342 bound_to 10162
  139.7686  143.8528  152.3116 LP  0  0  0  0  0  0  0  0  0  0  0  0  # atno 17343 bound_to 10162
  155.9664  130.4406  150.5307 LP  0  0  0  0  0  0  0  0  0  0  0  0  # atno 17370 bound_to 10713
  157.3206  131.0681  151.1935 LP  0  0  0  0  0  0  0  0  0  0  0  0  # atno 17371 bound_to 10713
  140.4012  134.7355  157.4780 LP  0  0  0  0  0  0  0  0  0  0  0  0  # atno 17394 bound_to 11000
  140.0495  134.6151  155.8879 LP  0  0  0  0  0  0  0  0  0  0  0  0  # atno 17395 bound_to 11000

$$$$
