AV-unprocessed.smi:148|AV-procd|sdf|1225|dock7
  -GOLD-   2262018423D 1   1.00000     0.00000
 Structure written by MMmdl.
 63 67  0  0  0  0  0  0  0  0  1 V2000
  144.7496  132.9224  160.7728 O   0  0  0  0  0  0  0  0  0  0  0  0
  146.0370  132.6419  160.2606 C   0  0  0  0  0  0  0  0  0  0  0  0
  146.7287  133.9164  159.7233 C   0  0  1  0  0  0  0  0  0  0  0  0
  146.0622  134.3306  158.3845 C   0  0  0  0  0  0  0  0  0  0  0  0
  146.2032  133.3625  157.3120 N   0  0  0  0  0  0  0  0  0  0  0  0
  145.7783  132.0522  157.3256 C   0  0  0  0  0  0  0  0  0  0  0  0
  146.0192  131.3768  156.2348 N   0  0  0  0  0  0  0  0  0  0  0  0
  146.6789  132.2858  155.4183 C   0  0  0  0  0  0  0  0  0  0  0  0
  147.2264  132.2195  154.1110 C   0  0  0  0  0  0  0  0  0  0  0  0
  147.1543  131.0964  153.3639 N   0  0  0  0  0  0  0  0  0  0  0  0
  147.4044  129.9225  154.2033 C   0  0  0  0  0  0  0  0  0  0  0  0
  147.6302  128.6674  153.3554 C   0  0  0  0  0  0  0  0  0  0  0  0
  146.4354  128.4496  152.4264 C   0  0  0  0  0  0  0  0  0  0  0  0
  146.2069  129.7013  151.5694 C   0  0  0  0  0  0  0  0  0  0  0  0
  146.0229  130.9883  152.4194 C   0  0  2  0  0  0  0  0  0  0  0  0
  145.8555  132.2385  151.4856 C   0  0  1  0  0  0  0  0  0  0  0  0
  144.8136  132.0831  150.3610 C   0  0  0  0  0  0  0  0  0  0  0  0
  144.4910  133.4985  149.8687 C   0  0  0  0  0  0  0  0  0  0  0  0
  144.9769  134.4531  150.9646 C   0  0  0  0  0  0  0  0  0  0  0  0
  145.4113  133.5683  152.1377 C   0  0  1  0  0  0  0  0  0  0  0  0
  144.3027  133.3748  152.9961 O   0  0  0  0  0  0  0  0  0  0  0  0
  147.8251  133.3330  153.6114 N   0  0  0  0  0  0  0  0  0  0  0  0
  147.8936  134.4415  154.3550 C   0  0  0  0  0  0  0  0  0  0  0  0
  147.4293  134.6493  155.5897 N   0  0  0  0  0  0  0  0  0  0  0  0
  146.8195  133.5340  156.0850 C   0  0  0  0  0  0  0  0  0  0  0  0
  146.8047  135.0510  160.7880 C   0  0  1  0  0  0  0  0  0  0  0  0
  147.2333  134.5936  162.1738 C   0  0  0  0  0  0  0  0  0  0  0  0
  147.6492  135.9004  162.8326 C   0  0  0  0  0  0  0  0  0  0  0  0
  148.2735  136.6415  161.7954 O   0  0  0  0  0  0  0  0  0  0  0  0
  147.8520  136.1469  160.5277 C   0  0  0  0  0  0  0  0  0  0  0  0
  144.5460  132.2855  161.4408 H   0  0  0  0  0  0  0  0  0  0  0  0
  146.6321  132.1703  161.0424 H   0  0  0  0  0  0  0  0  0  0  0  0
  145.9403  131.9004  159.4669 H   0  0  0  0  0  0  0  0  0  0  0  0
  147.7537  133.6199  159.4986 H   0  0  0  0  0  0  0  0  0  0  0  0
  144.9942  134.4922  158.5352 H   0  0  0  0  0  0  0  0  0  0  0  0
  146.4690  135.2829  158.0421 H   0  0  0  0  0  0  0  0  0  0  0  0
  145.2666  131.6139  158.1701 H   0  0  0  0  0  0  0  0  0  0  0  0
  148.2777  130.0939  154.8352 H   0  0  0  0  0  0  0  0  0  0  0  0
  146.5555  129.7635  154.8705 H   0  0  0  0  0  0  0  0  0  0  0  0
  148.5436  128.7761  152.7692 H   0  0  0  0  0  0  0  0  0  0  0  0
  147.7715  127.7991  153.9992 H   0  0  0  0  0  0  0  0  0  0  0  0
  146.6071  127.5821  151.7886 H   0  0  0  0  0  0  0  0  0  0  0  0
  145.5418  128.2363  153.0144 H   0  0  0  0  0  0  0  0  0  0  0  0
  147.0520  129.8297  150.8914 H   0  0  0  0  0  0  0  0  0  0  0  0
  145.3333  129.5193  150.9442 H   0  0  0  0  0  0  0  0  0  0  0  0
  145.1130  130.8590  153.0068 H   0  0  0  0  0  0  0  0  0  0  0  0
  146.8147  132.4158  150.9954 H   0  0  0  0  0  0  0  0  0  0  0  0
  145.1681  131.4495  149.5474 H   0  0  0  0  0  0  0  0  0  0  0  0
  143.9044  131.6291  150.7579 H   0  0  0  0  0  0  0  0  0  0  0  0
  145.0073  133.7094  148.9314 H   0  0  0  0  0  0  0  0  0  0  0  0
  143.4220  133.6103  149.6850 H   0  0  0  0  0  0  0  0  0  0  0  0
  145.8403  135.0077  150.5947 H   0  0  0  0  0  0  0  0  0  0  0  0
  144.2220  135.1889  151.2456 H   0  0  0  0  0  0  0  0  0  0  0  0
  146.2039  134.0617  152.6962 H   0  0  0  0  0  0  0  0  0  0  0  0
  143.6447  132.8839  152.5280 H   0  0  0  0  0  0  0  0  0  0  0  0
  148.3918  135.2818  153.8950 H   0  0  0  0  0  0  0  0  0  0  0  0
  145.8255  135.5239  160.8792 H   0  0  0  0  0  0  0  0  0  0  0  0
  146.4405  134.0880  162.7257 H   0  0  0  0  0  0  0  0  0  0  0  0
  148.0896  133.9207  162.1075 H   0  0  0  0  0  0  0  0  0  0  0  0
  146.7727  136.4484  163.1809 H   0  0  0  0  0  0  0  0  0  0  0  0
  148.3195  135.7519  163.6793 H   0  0  0  0  0  0  0  0  0  0  0  0
  148.7273  135.7436  160.0173 H   0  0  0  0  0  0  0  0  0  0  0  0
  147.4559  136.9634  159.9258 H   0  0  0  0  0  0  0  0  0  0  0  0
  1  2  1  0  0  0  0
  1 31  1  0  0  0  0
  2  3  1  0  0  0  0
  2 32  1  0  0  0  0
  2 33  1  0  0  0  0
  3  4  1  0  0  0  0
  3 26  1  0  0  0  0
  3 34  1  0  0  0  0
  4  5  1  0  0  0  0
  4 35  1  0  0  0  0
  4 36  1  0  0  0  0
  5 25  1  0  0  0  0
  5  6  1  0  0  0  0
  6  7  2  0  0  0  0
  6 37  1  0  0  0  0
  7  8  1  0  0  0  0
  8 25  2  0  0  0  0
  8  9  1  0  0  0  0
  9 10  1  0  0  0  0
  9 22  2  0  0  0  0
 10 15  1  0  0  0  0
 10 11  1  0  0  0  0
 11 12  1  0  0  0  0
 11 38  1  0  0  0  0
 11 39  1  0  0  0  0
 12 13  1  0  0  0  0
 12 40  1  0  0  0  0
 12 41  1  0  0  0  0
 13 14  1  0  0  0  0
 13 42  1  0  0  0  0
 13 43  1  0  0  0  0
 14 15  1  0  0  0  0
 14 44  1  0  0  0  0
 14 45  1  0  0  0  0
 15 16  1  0  0  0  0
 15 46  1  0  0  0  0
 16 20  1  0  0  0  0
 16 17  1  0  0  0  0
 16 47  1  0  0  0  0
 17 18  1  0  0  0  0
 17 48  1  0  0  0  0
 17 49  1  0  0  0  0
 18 19  1  0  0  0  0
 18 50  1  0  0  0  0
 18 51  1  0  0  0  0
 19 20  1  0  0  0  0
 19 52  1  0  0  0  0
 19 53  1  0  0  0  0
 20 21  1  0  0  0  0
 20 54  1  0  0  0  0
 21 55  1  0  0  0  0
 22 23  1  0  0  0  0
 23 24  2  0  0  0  0
 23 56  1  0  0  0  0
 24 25  1  0  0  0  0
 26 30  1  0  0  0  0
 26 27  1  0  0  0  0
 26 57  1  0  0  0  0
 27 28  1  0  0  0  0
 27 58  1  0  0  0  0
 27 59  1  0  0  0  0
 28 29  1  0  0  0  0
 28 60  1  0  0  0  0
 28 61  1  0  0  0  0
 29 30  1  0  0  0  0
 30 62  1  0  0  0  0
 30 63  1  0  0  0  0
M  END
> <s_m_source_file>
AV-unprocessed.smi

> <i_m_source_file_index>
148

> <i_lp_mmshare_version>
43012

> <i_f3d_flags>
0

> <s_epik_input>
W0NIMl0xT1tDSDJdW0NIMl1bQ0BIXTFbQ0BIXShbQ0gyXVtPSF0pW0NIMl1uKFtjSF1uMiljKGMyMyluW2NIXW5jM040W0NIMl1bQ0gyXVtDSDJdW0NIMl1bQ0BIXTRbQ0BASF01W0NIMl1bQ0gyXVtDSDJdW0NASF01W09IXQ==

> <s_epik_cmdline>
J2VwaWtfcHl0aG9uJywgJy1waCcsICc3LjAnLCAnLXRuJywgJzgnLCAnLW1hJywgJzIwMCcsICctbWV0YWxfYmluZGluZycsICctaW1hZScsICc8aW5maWxlLm1hZT4nLCAnLW9tYWUnLCAnPG91dGZpbGUubWFlPic=

> <r_lp_tautomer_probability>
1

> <r_epik_Ionization_Penalty>
0.00556303

> <r_epik_Ionization_Penalty_Charging>
0

> <r_epik_Ionization_Penalty_Neutral>
0.00556303

> <r_epik_State_Penalty>
0.00401767

> <r_epik_Charging_Adjusted_Penalty>
0.00401767

> <i_epik_Tot_Q>
0

> <i_epik_Tot_abs_Q>
0

> <r_epik_Metal_State_Penalty>
-0

> <b_epik_Metal_Only>
0

> <s_lp_Force_Field>
OPLS_2005

> <r_lp_Energy>
70.5137

> <b_lp_Chiralities_Consistent>
1

> <s_lp_Variant>
AV-unprocessed.smi:148-24

> <Gold.Version>
5.8.1

> <Gold.Id.Protein>
6NUR|6NUR_protein|mol2

> <Gold.PLP.Fitness>
45.3506

> <Gold.PLP.PLP>
-40.8225

> <Gold.PLP.part.hbond>
-2.0000

> <Gold.PLP.part.metal>
0.0000

> <Gold.PLP.part.buried>
-6.5023

> <Gold.PLP.part.nonpolar>
-32.4073

> <Gold.PLP.part.repulsive>
0.4212

> <Gold.PLP.ligand.clash>
0.0000

> <Gold.PLP.ligand.torsion>
1.0190

> <Gold.PLP.Chemscore.Hbond>
1.0000

> <Gold.PLP.Chemscore.CHOScore>
1.0000

> <Gold.PLP.Chemscore.Metal>
0.0000

> <Gold.Chemscore.Hbonds>
donor molecule, donor type, donor heavy atom, donor atom, acceptor molecule, acceptor atom, score
      P1  H  6931  6943       L1    29  1.00
      L1  C    23    56       P1  7948  1.00

> <Gold.PLP.Chemscore.Internal.Correction>
0.5659

> <Gold.Rescore>
     Score         DG    S(hbond)    S(metal)    S(lipo)     H(rot)  DE(clash)    DE(int)     intcor
     10.16     -12.92       0.98        0.00     108.36       3.32       0.34       2.42       ----

> <Gold.Chemscore.Fitness>
10.1555

> <Gold.Chemscore.DG>
-12.9227

> <Gold.Chemscore.ZeroCoef>
-5.4800

> <Gold.Chemscore.Hbond>
0.9775

> <Gold.Chemscore.Metal>
0.0000

> <Gold.Chemscore.Lipo>
108.3572

> <Gold.Chemscore.Internal_Hbond>
0.0000

> <Gold.Chemscore.DEClash>
0.3427

> <Gold.Chemscore.DEInternal>
2.4245

> <Gold.Chemscore.Rot>
3.3203

> <Gold.Chemscore.Internal.Correction>
   9.000000E+99

> <Gold.Chemscore.Hbonds>
donor molecule, donor type, donor heavy atom, donor atom, acceptor molecule, acceptor atom, score
      P1  H  6931  6943       L1    29  0.98

> <Gold.Chemscore.Hbond.Weighted>
-3.2649

> <Gold.Chemscore.Metal.Weighted>
-0.0000

> <Gold.Chemscore.Lipo.Weighted>
-12.6778

> <Gold.Chemscore.Internal_Hbond.Weighted>
0.0000

> <Gold.Chemscore.DEClash.Weighted>
0.3427

> <Gold.Chemscore.DEInternal.Weighted>
2.4245

> <Gold.Chemscore.Rot.Weighted>
8.5000

> <Gold.Chemscore.Internal.Correction.Weighted>
   9.000000E+99

> <Gold.Protein.RotatedTorsions>
[ 6907 6896 6895 6894 ] final -162.32 input  -60.11 | X-H torsion
[ 7974 7965 7964 7962 ] final   -7.79 input  175.53 | X-H torsion
[ 8008 7997 7996 7995 ] final   -9.31 input   59.86 | X-H torsion
[ 10167 10162 10161 10158 ] final   24.35 input  -65.29 | X-H torsion
[ 10718 10713 10712 10709 ] final   18.05 input   66.30 | X-H torsion
[ 10763 10752 10751 10750 ] final  -37.21 input  -60.55 | X-H torsion
[ 11005 11000 10999 10996 ] final  -99.16 input  -57.11 | X-H torsion

> <Gold.Protein.ActiveResidues>
 VAL166  LYS551  ARG553  GLY616  TRP617  ASP618  TYR619  PRO620  LYS621  CYS622 
 ASP623  PHE694  ASN695  SER759  ASP760  ASP761  ALA762  ILE779  LEU786  VAL792 
 PHE793  MET794  SER795  GLU796  ALA797  LYS798  CYS799  TRP800  GLU811  SER814 

> <Gold.Protein.RotatedAtoms>
  151.3784  133.3830  159.2707 H   0  0  0  0  0  0  0  0  0  0  0  0  # atno 6907 bound_to 6896
  150.9597  134.8987  159.7733 H   0  0  0  0  0  0  0  0  0  0  0  0  # atno 6908 bound_to 6896
  152.5144  134.3742  159.9381 H   0  0  0  0  0  0  0  0  0  0  0  0  # atno 6909 bound_to 6896
  146.2297  140.2372  142.8342 H   0  0  0  0  0  0  0  0  0  0  0  0  # atno 7974 bound_to 7965
  154.5658  140.2358  155.8265 H   0  0  0  0  0  0  0  0  0  0  0  0  # atno 8008 bound_to 7997
  156.2067  140.3037  155.9601 H   0  0  0  0  0  0  0  0  0  0  0  0  # atno 8009 bound_to 7997
  155.2803  140.0422  157.3005 H   0  0  0  0  0  0  0  0  0  0  0  0  # atno 8010 bound_to 7997
  140.5195  144.0026  150.6410 H   0  0  0  0  0  0  0  0  0  0  0  0  # atno 10167 bound_to 10162
  157.0908  130.6427  149.5848 H   0  0  0  0  0  0  0  0  0  0  0  0  # atno 10718 bound_to 10713
  153.8925  135.6810  153.4760 H   0  0  0  0  0  0  0  0  0  0  0  0  # atno 10763 bound_to 10752
  153.1173  135.4755  154.9135 H   0  0  0  0  0  0  0  0  0  0  0  0  # atno 10764 bound_to 10752
  154.7615  135.3212  154.8322 H   0  0  0  0  0  0  0  0  0  0  0  0  # atno 10765 bound_to 10752
  141.1318  133.8300  157.0935 H   0  0  0  0  0  0  0  0  0  0  0  0  # atno 11005 bound_to 11000
  144.9512  140.8180  143.5570 LP  0  0  0  0  0  0  0  0  0  0  0  0  # atno 17320 bound_to 7965
  145.2333  139.2105  143.5031 LP  0  0  0  0  0  0  0  0  0  0  0  0  # atno 17321 bound_to 7965
  140.3371  143.3042  152.0627 LP  0  0  0  0  0  0  0  0  0  0  0  0  # atno 17342 bound_to 10162
  139.4919  144.6468  151.6760 LP  0  0  0  0  0  0  0  0  0  0  0  0  # atno 17343 bound_to 10162
  155.9898  130.4947  150.7231 LP  0  0  0  0  0  0  0  0  0  0  0  0  # atno 17370 bound_to 10713
  157.4722  131.0894  151.0629 LP  0  0  0  0  0  0  0  0  0  0  0  0  # atno 17371 bound_to 10713
  140.0377  134.9870  157.0903 LP  0  0  0  0  0  0  0  0  0  0  0  0  # atno 17394 bound_to 11000
  140.4184  134.1907  155.7164 LP  0  0  0  0  0  0  0  0  0  0  0  0  # atno 17395 bound_to 11000

$$$$
