AV-unprocessed.smi:976|AV-procd|sdf|4302|dock5
  -GOLD-   22720 2203D 1   1.00000     0.00000
 Structure written by MMmdl.
 41 42  0  0  0  0  0  0  0  0  1 V2000
  146.1816  138.5214  158.2347 C   0  0  0  0  0  0  0  0  0  0  0  0
  146.9982  137.2717  158.5961 C   0  0  2  0  0  0  0  0  0  0  0  0
  146.8440  137.0478  159.9956 O   0  0  0  0  0  0  0  0  0  0  0  0
  147.2540  135.7659  160.4621 C   0  0  0  0  0  0  0  0  0  0  0  0
  146.8156  135.5919  161.9212 C   0  0  0  0  0  0  0  0  0  0  0  0
  145.5313  135.9275  162.0361 F   0  0  0  0  0  0  0  0  0  0  0  0
  146.9610  134.3220  162.2986 F   0  0  0  0  0  0  0  0  0  0  0  0
  147.5369  136.3815  162.7165 F   0  0  0  0  0  0  0  0  0  0  0  0
  148.4835  137.4516  158.2426 C   0  0  0  0  0  0  0  0  0  0  0  0
  149.3495  136.9689  158.9723 O   0  0  0  0  0  0  0  0  0  0  0  0
  148.7352  138.1513  157.1216 N   0  0  0  0  0  0  0  0  0  0  0  0
  149.9974  138.4798  156.5504 C   0  0  0  0  0  0  0  0  0  0  0  0
  151.2169  137.9872  157.0750 C   0  0  0  0  0  0  0  0  0  0  0  0
  152.4233  138.3118  156.4294 C   0  0  0  0  0  0  0  0  0  0  0  0
  152.3679  139.1097  155.2735 C   0  0  0  0  0  0  0  0  0  0  0  0
  151.2142  139.5743  154.7525 N   0  0  0  0  0  0  0  0  0  0  0  0
  150.0463  139.2693  155.3696 C   0  0  0  0  0  0  0  0  0  0  0  0
  148.8620  139.7893  154.8098 N   0  0  0  0  0  0  0  0  0  0  0  0
  148.9471  141.2072  154.4800 C   0  0  0  0  0  0  0  0  0  0  0  0
  147.5511  141.7489  154.1295 C   0  0  0  0  0  0  0  0  0  0  0  0
  146.9872  140.9759  153.0735 O   0  0  0  0  0  0  0  0  0  0  0  0
  146.8399  139.6043  153.4307 C   0  0  0  0  0  0  0  0  0  0  0  0
  148.2184  139.0059  153.7597 C   0  0  0  0  0  0  0  0  0  0  0  0
  146.2665  138.7572  157.1734 H   0  0  0  0  0  0  0  0  0  0  0  0
  146.5108  139.3941  158.8003 H   0  0  0  0  0  0  0  0  0  0  0  0
  145.1248  138.3682  158.4542 H   0  0  0  0  0  0  0  0  0  0  0  0
  146.5850  136.4237  158.0461 H   0  0  0  0  0  0  0  0  0  0  0  0
  146.8049  134.9850  159.8468 H   0  0  0  0  0  0  0  0  0  0  0  0
  148.3365  135.6519  160.3939 H   0  0  0  0  0  0  0  0  0  0  0  0
  147.9349  138.5739  156.6735 H   0  0  0  0  0  0  0  0  0  0  0  0
  151.2457  137.3515  157.9466 H   0  0  0  0  0  0  0  0  0  0  0  0
  153.3679  137.9496  156.8073 H   0  0  0  0  0  0  0  0  0  0  0  0
  153.2732  139.3774  154.7491 H   0  0  0  0  0  0  0  0  0  0  0  0
  149.3686  141.7770  155.3081 H   0  0  0  0  0  0  0  0  0  0  0  0
  149.6207  141.3353  153.6317 H   0  0  0  0  0  0  0  0  0  0  0  0
  146.8959  141.7261  155.0019 H   0  0  0  0  0  0  0  0  0  0  0  0
  147.6211  142.7887  153.8104 H   0  0  0  0  0  0  0  0  0  0  0  0
  146.1612  139.5089  154.2797 H   0  0  0  0  0  0  0  0  0  0  0  0
  146.3859  139.0673  152.5977 H   0  0  0  0  0  0  0  0  0  0  0  0
  148.8419  139.0065  152.8644 H   0  0  0  0  0  0  0  0  0  0  0  0
  148.1098  137.9696  154.0818 H   0  0  0  0  0  0  0  0  0  0  0  0
  1  2  1  0  0  0  0
  1 24  1  0  0  0  0
  1 25  1  0  0  0  0
  1 26  1  0  0  0  0
  2  3  1  0  0  0  0
  2  9  1  0  0  0  0
  2 27  1  0  0  0  0
  3  4  1  0  0  0  0
  4  5  1  0  0  0  0
  4 28  1  0  0  0  0
  4 29  1  0  0  0  0
  5  6  1  0  0  0  0
  5  7  1  0  0  0  0
  5  8  1  0  0  0  0
  9 10  2  0  0  0  0
  9 11  1  0  0  0  0
 11 12  1  0  0  0  0
 11 30  1  0  0  0  0
 12 17  1  0  0  0  0
 12 13  2  0  0  0  0
 13 14  1  0  0  0  0
 13 31  1  0  0  0  0
 14 15  2  0  0  0  0
 14 32  1  0  0  0  0
 15 16  1  0  0  0  0
 15 33  1  0  0  0  0
 16 17  2  0  0  0  0
 17 18  1  0  0  0  0
 18 23  1  0  0  0  0
 18 19  1  0  0  0  0
 19 20  1  0  0  0  0
 19 34  1  0  0  0  0
 19 35  1  0  0  0  0
 20 21  1  0  0  0  0
 20 36  1  0  0  0  0
 20 37  1  0  0  0  0
 21 22  1  0  0  0  0
 22 23  1  0  0  0  0
 22 38  1  0  0  0  0
 22 39  1  0  0  0  0
 23 40  1  0  0  0  0
 23 41  1  0  0  0  0
M  END
> <s_m_source_file>
AV-unprocessed.smi

> <i_m_source_file_index>
976

> <i_lp_mmshare_version>
43012

> <i_f3d_flags>
0

> <s_epik_input>
RkMoRikoRilbQ0gyXU9bQ0BASF0oW0NIM10pQyg9TylbTkhdYzFbY0hdW2NIXVtjSF1uYzFOMltDSDJdW0NIMl1PW0NIMl1bQ0gyXTI=

> <s_epik_cmdline>
J2VwaWtfcHl0aG9uJywgJy1waCcsICc3LjAnLCAnLXRuJywgJzgnLCAnLW1hJywgJzIwMCcsICctbWV0YWxfYmluZGluZycsICctaW1hZScsICc8aW5maWxlLm1hZT4nLCAnLW9tYWUnLCAnPG91dGZpbGUubWFlPic=

> <r_lp_tautomer_probability>
1

> <r_epik_Ionization_Penalty>
0.000443367

> <r_epik_Ionization_Penalty_Charging>
0

> <r_epik_Ionization_Penalty_Neutral>
0.000443367

> <r_epik_State_Penalty>
0.00027288

> <r_epik_Charging_Adjusted_Penalty>
0.00027288

> <i_epik_Tot_Q>
0

> <i_epik_Tot_abs_Q>
0

> <r_epik_Metal_State_Penalty>
-0

> <b_epik_Metal_Only>
0

> <s_lp_Force_Field>
OPLS_2005

> <r_lp_Energy>
26.1193

> <b_lp_Chiralities_Consistent>
1

> <s_lp_Variant>
AV-unprocessed.smi:976-1

> <Gold.Version>
5.8.1

> <Gold.Id.Protein>
6NUR|6NUR_protein|mol2

> <Gold.PLP.Fitness>
40.6023

> <Gold.PLP.PLP>
-37.0611

> <Gold.PLP.part.hbond>
-2.0000

> <Gold.PLP.part.metal>
0.0000

> <Gold.PLP.part.buried>
-4.2828

> <Gold.PLP.part.nonpolar>
-30.5645

> <Gold.PLP.part.repulsive>
0.3674

> <Gold.PLP.ligand.clash>
0.0000

> <Gold.PLP.ligand.torsion>
1.3922

> <Gold.PLP.Chemscore.Hbond>
2.0000

> <Gold.PLP.Chemscore.CHOScore>
0.0000

> <Gold.PLP.Chemscore.Metal>
0.0000

> <Gold.Chemscore.Hbonds>
donor molecule, donor type, donor heavy atom, donor atom, acceptor molecule, acceptor atom, score
      P1  H  6934  6947       L1     3  0.57
      P1  H  7989  7998       L1    16  1.00

> <Gold.PLP.Chemscore.Internal.Correction>
0.3256

> <Gold.Rescore>
     Score         DG    S(hbond)    S(metal)    S(lipo)     H(rot)  DE(clash)    DE(int)     intcor
      8.95     -13.18       1.60        0.00      62.93       1.95       0.20       4.02       ----

> <Gold.Chemscore.Fitness>
8.9527

> <Gold.Chemscore.DG>
-13.1822

> <Gold.Chemscore.ZeroCoef>
-5.4800

> <Gold.Chemscore.Hbond>
1.5957

> <Gold.Chemscore.Metal>
0.0000

> <Gold.Chemscore.Lipo>
62.9261

> <Gold.Chemscore.Internal_Hbond>
0.0000

> <Gold.Chemscore.DEClash>
0.2046

> <Gold.Chemscore.DEInternal>
4.0249

> <Gold.Chemscore.Rot>
1.9491

> <Gold.Chemscore.Internal.Correction>
   9.000000E+99

> <Gold.Chemscore.Hbonds>
donor molecule, donor type, donor heavy atom, donor atom, acceptor molecule, acceptor atom, score
      P1  H  6934  6947       L1     3  0.25
      P1  H  7989  7998       L1    16  0.65

> <Gold.Chemscore.Hbond.Weighted>
-5.3295

> <Gold.Chemscore.Metal.Weighted>
-0.0000

> <Gold.Chemscore.Lipo.Weighted>
-7.3623

> <Gold.Chemscore.Internal_Hbond.Weighted>
0.0000

> <Gold.Chemscore.DEClash.Weighted>
0.2046

> <Gold.Chemscore.DEInternal.Weighted>
4.0249

> <Gold.Chemscore.Rot.Weighted>
4.9897

> <Gold.Chemscore.Internal.Correction.Weighted>
   9.000000E+99

> <Gold.Protein.RotatedTorsions>
[ 6907 6896 6895 6894 ] final   73.56 input  -60.11 | X-H torsion
[ 7974 7965 7964 7962 ] final -120.12 input  175.53 | X-H torsion
[ 8008 7997 7996 7995 ] final -161.64 input   59.86 | X-H torsion
[ 10167 10162 10161 10158 ] final   64.54 input  -65.29 | X-H torsion
[ 10718 10713 10712 10709 ] final   -0.93 input   66.30 | X-H torsion
[ 10763 10752 10751 10750 ] final   27.55 input  -60.55 | X-H torsion
[ 11005 11000 10999 10996 ] final  -69.09 input  -57.11 | X-H torsion

> <Gold.Protein.ActiveResidues>
 VAL166  LYS551  ARG553  GLY616  TRP617  ASP618  TYR619  PRO620  LYS621  CYS622 
 ASP623  PHE694  ASN695  SER759  ASP760  ASP761  ALA762  ILE779  LEU786  VAL792 
 PHE793  MET794  SER795  GLU796  ALA797  LYS798  CYS799  TRP800  GLU811  SER814 

> <Gold.Protein.RotatedAtoms>
  152.4930  134.4402  159.9540 H   0  0  0  0  0  0  0  0  0  0  0  0  # atno 6907 bound_to 6896
  151.4386  133.3643  159.2786 H   0  0  0  0  0  0  0  0  0  0  0  0  # atno 6908 bound_to 6896
  150.9103  134.8543  159.7481 H   0  0  0  0  0  0  0  0  0  0  0  0  # atno 6909 bound_to 6896
  145.0549  140.8246  143.4187 H   0  0  0  0  0  0  0  0  0  0  0  0  # atno 7974 bound_to 7965
  155.7952  140.0884  157.1987 H   0  0  0  0  0  0  0  0  0  0  0  0  # atno 8008 bound_to 7997
  154.3984  140.1482  156.3268 H   0  0  0  0  0  0  0  0  0  0  0  0  # atno 8009 bound_to 7997
  155.8518  140.3434  155.5701 H   0  0  0  0  0  0  0  0  0  0  0  0  # atno 8010 bound_to 7997
  140.1210  144.4731  150.6920 H   0  0  0  0  0  0  0  0  0  0  0  0  # atno 10167 bound_to 10162
  156.8131  130.5431  149.5706 H   0  0  0  0  0  0  0  0  0  0  0  0  # atno 10718 bound_to 10713
  153.0548  135.6534  154.0603 H   0  0  0  0  0  0  0  0  0  0  0  0  # atno 10763 bound_to 10752
  154.0283  135.2914  155.3373 H   0  0  0  0  0  0  0  0  0  0  0  0  # atno 10764 bound_to 10752
  154.6858  135.5302  153.8391 H   0  0  0  0  0  0  0  0  0  0  0  0  # atno 10765 bound_to 10752
  141.1546  133.6756  156.6546 H   0  0  0  0  0  0  0  0  0  0  0  0  # atno 11005 bound_to 11000
  145.1481  139.2531  143.5455 LP  0  0  0  0  0  0  0  0  0  0  0  0  # atno 17320 bound_to 7965
  146.3520  140.1176  142.8601 LP  0  0  0  0  0  0  0  0  0  0  0  0  # atno 17321 bound_to 7965
  140.6872  143.2356  151.5229 LP  0  0  0  0  0  0  0  0  0  0  0  0  # atno 17342 bound_to 10162
  139.5568  144.2254  152.1626 LP  0  0  0  0  0  0  0  0  0  0  0  0  # atno 17343 bound_to 10162
  156.1033  130.5985  150.9929 LP  0  0  0  0  0  0  0  0  0  0  0  0  # atno 17370 bound_to 10713
  157.6496  131.0899  150.8080 LP  0  0  0  0  0  0  0  0  0  0  0  0  # atno 17371 bound_to 10713
  140.3294  134.7941  157.4314 LP  0  0  0  0  0  0  0  0  0  0  0  0  # atno 17394 bound_to 11000
  140.1029  134.5448  155.8336 LP  0  0  0  0  0  0  0  0  0  0  0  0  # atno 17395 bound_to 11000

$$$$
