AV-unprocessed.smi:49|AV-procd|sdf|463|dock8
  -GOLD-   2262016333D 1   1.00000     0.00000
 Structure written by MMmdl.
 28 29  0  0  0  0  0  0  0  0  2 V2000
  139.3974  137.3947  154.1348 C   0  0  0  0  0  0  0  0  0  0  0  0
  140.5432  138.2983  153.6667 C   0  0  0  0  0  0  0  0  0  0  0  0
  141.7637  137.5269  153.2845 C   0  0  0  0  0  0  0  0  0  0  0  0
  141.9170  136.2147  153.4284 N   0  0  0  0  0  0  0  0  0  0  0  0
  143.1700  136.0553  152.9059 C   0  0  0  0  0  0  0  0  0  0  0  0
  143.8576  134.7235  152.8760 C   0  0  2  0  0  0  0  0  0  0  0  0
  145.0192  134.6827  151.8693 C   0  0  0  0  0  0  0  0  0  0  0  0
  144.4468  133.9286  150.6716 C   0  0  1  0  0  0  0  0  0  0  0  0
  145.4516  133.2927  149.9109 O   0  0  0  0  0  0  0  0  0  0  0  0
  143.4988  132.9271  151.3280 C   0  0  0  0  0  0  0  0  0  0  0  0
  142.9271  133.6408  152.4836 N   0  3  0  0  0  0  0  0  0  0  0  0
  143.7702  137.1700  152.4847 N   0  0  0  0  0  0  0  0  0  0  0  0
  142.8301  138.1067  152.7303 N   0  0  0  0  0  0  0  0  0  0  0  0
  144.2353  134.5076  153.8763 H   0  0  0  0  0  0  0  0  0  0  0  0
  143.8831  134.6133  150.0361 H   0  0  0  0  0  0  0  0  0  0  0  0
  142.9567  139.0867  152.5195 H   0  0  0  0  0  0  0  0  0  0  0  0
  138.5229  137.9859  154.4071 H   0  0  0  0  0  0  0  0  0  0  0  0
  139.6884  136.8099  155.0079 H   0  0  0  0  0  0  0  0  0  0  0  0
  139.0985  136.6995  153.3497 H   0  0  0  0  0  0  0  0  0  0  0  0
  140.2186  138.8979  152.8154 H   0  0  0  0  0  0  0  0  0  0  0  0
  140.8077  139.0005  154.4580 H   0  0  0  0  0  0  0  0  0  0  0  0
  145.4156  135.6666  151.6141 H   0  0  0  0  0  0  0  0  0  0  0  0
  145.8380  134.1043  152.3010 H   0  0  0  0  0  0  0  0  0  0  0  0
  145.8111  133.9180  149.2995 H   0  0  0  0  0  0  0  0  0  0  0  0
  142.7248  132.5665  150.6501 H   0  0  0  0  0  0  0  0  0  0  0  0
  144.0524  132.0643  151.7021 H   0  0  0  0  0  0  0  0  0  0  0  0
  142.7567  133.0082  153.2520 H   0  0  0  0  0  0  0  0  0  0  0  0
  142.0588  134.0721  152.1990 H   0  0  0  0  0  0  0  0  0  0  0  0
  1  2  1  0  0  0  0
  1 17  1  0  0  0  0
  1 18  1  0  0  0  0
  1 19  1  0  0  0  0
  2  3  1  0  0  0  0
  2 20  1  0  0  0  0
  2 21  1  0  0  0  0
  3 13  1  0  0  0  0
  3  4  2  0  0  0  0
  4  5  1  0  0  0  0
  5  6  1  0  0  0  0
  5 12  2  0  0  0  0
  6 14  1  0  0  0  0
  6 11  1  0  0  0  0
  6  7  1  0  0  0  0
  7  8  1  0  0  0  0
  7 22  1  0  0  0  0
  7 23  1  0  0  0  0
  8 15  1  0  0  0  0
  8  9  1  0  0  0  0
  8 10  1  0  0  0  0
  9 24  1  0  0  0  0
 10 11  1  0  0  0  0
 10 25  1  0  0  0  0
 10 26  1  0  0  0  0
 11 27  1  0  0  0  0
 11 28  1  0  0  0  0
 12 13  1  0  0  0  0
 13 16  1  0  0  0  0
M  CHG  1  11   1
M  END
> <s_m_source_file>
AV-unprocessed.smi

> <i_m_source_file_index>
49

> <i_lp_mmshare_version>
43012

> <i_f3d_flags>
0

> <s_epik_input>
W0NIM11bQ0gyXWMxbmMobltuSF0xKVtDQEBIXTJbQ0gyXVtDQEBIXShbT0hdKVtDSDJdW05IXTI=

> <s_epik_cmdline>
J2VwaWtfcHl0aG9uJywgJy1waCcsICc3LjAnLCAnLXRuJywgJzgnLCAnLW1hJywgJzIwMCcsICctbWV0YWxfYmluZGluZycsICctaW1hZScsICc8aW5maWxlLm1hZT4nLCAnLW9tYWUnLCAnPG91dGZpbGUubWFlPic=

> <r_lp_tautomer_probability>
0.948284

> <r_epik_Ionization_Penalty>
0.045643

> <r_epik_Ionization_Penalty_Charging>
0.0371552

> <r_epik_Ionization_Penalty_Neutral>
0.00848778

> <r_epik_State_Penalty>
0.283309

> <r_epik_Charging_Adjusted_Penalty>
0.320465

> <i_epik_Tot_Q>
1

> <i_epik_Tot_abs_Q>
1

> <r_epik_Metal_State_Penalty>
0.558162

> <b_epik_Metal_Only>
0

> <s_lp_Force_Field>
OPLS_2005

> <r_lp_Energy>
17.5806

> <b_lp_Chiralities_Consistent>
1

> <s_lp_Variant>
AV-unprocessed.smi:49-1

> <Gold.Version>
5.8.1

> <Gold.Id.Protein>
6NUR|6NUR_protein|mol2

> <Gold.PLP.Fitness>
33.8438

> <Gold.PLP.PLP>
-23.0068

> <Gold.PLP.part.hbond>
-3.7667

> <Gold.PLP.part.metal>
0.0000

> <Gold.PLP.part.buried>
-6.2536

> <Gold.PLP.part.nonpolar>
-14.6047

> <Gold.PLP.part.repulsive>
1.3517

> <Gold.PLP.ligand.clash>
0.0000

> <Gold.PLP.ligand.torsion>
0.5879

> <Gold.PLP.Chemscore.Hbond>
4.0000

> <Gold.PLP.Chemscore.CHOScore>
0.0000

> <Gold.PLP.Chemscore.Metal>
0.0000

> <Gold.Chemscore.Hbonds>
donor molecule, donor type, donor heavy atom, donor atom, acceptor molecule, acceptor atom, score
      L1  H     9    24       P1  7921  1.00
      L1  H    11    27       P1 10957  2.00
      L1  H    13    16       P1 10175  0.91

> <Gold.PLP.Chemscore.Internal.Correction>
0.0128

> <Gold.Rescore>
     Score         DG    S(hbond)    S(metal)    S(lipo)     H(rot)  DE(clash)    DE(int)     intcor
     12.86     -13.33       2.72        0.00      30.81       1.89       0.00       0.47       ----

> <Gold.Chemscore.Fitness>
12.8618

> <Gold.Chemscore.DG>
-13.3317

> <Gold.Chemscore.ZeroCoef>
-5.4800

> <Gold.Chemscore.Hbond>
2.7190

> <Gold.Chemscore.Metal>
0.0000

> <Gold.Chemscore.Lipo>
30.8061

> <Gold.Chemscore.Internal_Hbond>
0.0000

> <Gold.Chemscore.DEClash>
0.0029

> <Gold.Chemscore.DEInternal>
0.4670

> <Gold.Chemscore.Rot>
1.8883

> <Gold.Chemscore.Internal.Correction>
   9.000000E+99

> <Gold.Chemscore.Hbonds>
donor molecule, donor type, donor heavy atom, donor atom, acceptor molecule, acceptor atom, score
      L1  H     9    24       P1  7921  0.30
      L1  H    11    27       P1 10957  0.73
      L1  H    13    16       P1 10175  0.88

> <Gold.Chemscore.Hbond.Weighted>
-9.0813

> <Gold.Chemscore.Metal.Weighted>
-0.0000

> <Gold.Chemscore.Lipo.Weighted>
-3.6043

> <Gold.Chemscore.Internal_Hbond.Weighted>
0.0000

> <Gold.Chemscore.DEClash.Weighted>
0.0029

> <Gold.Chemscore.DEInternal.Weighted>
0.4670

> <Gold.Chemscore.Rot.Weighted>
4.8340

> <Gold.Chemscore.Internal.Correction.Weighted>
   9.000000E+99

> <Gold.Protein.RotatedTorsions>
[ 6907 6896 6895 6894 ] final   90.32 input  -60.11 | X-H torsion
[ 7974 7965 7964 7962 ] final -103.14 input  175.53 | X-H torsion
[ 8008 7997 7996 7995 ] final   31.71 input   59.86 | X-H torsion
[ 10167 10162 10161 10158 ] final   63.88 input  -65.29 | X-H torsion
[ 10718 10713 10712 10709 ] final  -84.35 input   66.30 | X-H torsion
[ 10763 10752 10751 10750 ] final   61.75 input  -60.55 | X-H torsion
[ 11005 11000 10999 10996 ] final   65.55 input  -57.11 | X-H torsion

> <Gold.Protein.ActiveResidues>
 VAL166  LYS551  ARG553  GLY616  TRP617  ASP618  TYR619  PRO620  LYS621  CYS622 
 ASP623  PHE694  ASN695  SER759  ASP760  ASP761  ALA762  ILE779  LEU786  VAL792 
 PHE793  MET794  SER795  GLU796  ALA797  LYS798  CYS799  TRP800  GLU811  SER814 

> <Gold.Protein.RotatedAtoms>
  152.5443  134.1829  159.8642 H   0  0  0  0  0  0  0  0  0  0  0  0  # atno 6907 bound_to 6896
  151.1830  133.4706  159.2601 H   0  0  0  0  0  0  0  0  0  0  0  0  # atno 6908 bound_to 6896
  151.1159  135.0064  159.8571 H   0  0  0  0  0  0  0  0  0  0  0  0  # atno 6909 bound_to 6896
  145.2597  140.9265  143.3047 H   0  0  0  0  0  0  0  0  0  0  0  0  # atno 7974 bound_to 7965
  155.1108  140.3239  155.4522 H   0  0  0  0  0  0  0  0  0  0  0  0  # atno 8008 bound_to 7997
  156.2691  140.2044  156.6180 H   0  0  0  0  0  0  0  0  0  0  0  0  # atno 8009 bound_to 7997
  154.6757  140.0531  157.0200 H   0  0  0  0  0  0  0  0  0  0  0  0  # atno 8010 bound_to 7997
  140.1282  144.4667  150.6880 H   0  0  0  0  0  0  0  0  0  0  0  0  # atno 10167 bound_to 10162
  156.0007  130.4695  150.4397 H   0  0  0  0  0  0  0  0  0  0  0  0  # atno 10718 bound_to 10713
  152.9960  135.5489  154.6083 H   0  0  0  0  0  0  0  0  0  0  0  0  # atno 10763 bound_to 10752
  154.5410  135.2820  155.1098 H   0  0  0  0  0  0  0  0  0  0  0  0  # atno 10764 bound_to 10752
  154.2375  135.6422  153.5248 H   0  0  0  0  0  0  0  0  0  0  0  0  # atno 10765 bound_to 10752
  139.9888  134.6625  156.0128 H   0  0  0  0  0  0  0  0  0  0  0  0  # atno 11005 bound_to 11000
  144.9429  139.4169  143.6440 LP  0  0  0  0  0  0  0  0  0  0  0  0  # atno 17320 bound_to 7965
  146.3278  139.8398  142.8892 LP  0  0  0  0  0  0  0  0  0  0  0  0  # atno 17321 bound_to 7965
  140.6832  143.2337  151.5329 LP  0  0  0  0  0  0  0  0  0  0  0  0  # atno 17342 bound_to 10162
  139.5533  144.2340  152.1569 LP  0  0  0  0  0  0  0  0  0  0  0  0  # atno 17343 bound_to 10162
  157.2439  131.0531  151.2420 LP  0  0  0  0  0  0  0  0  0  0  0  0  # atno 17370 bound_to 10713
  157.3594  130.7123  149.6491 LP  0  0  0  0  0  0  0  0  0  0  0  0  # atno 17371 bound_to 10713
  141.1548  133.6544  156.4125 LP  0  0  0  0  0  0  0  0  0  0  0  0  # atno 17394 bound_to 11000
  140.4950  134.6540  157.5226 LP  0  0  0  0  0  0  0  0  0  0  0  0  # atno 17395 bound_to 11000

$$$$
