AV-unprocessed.smi:203|AV-procd|sdf|1588|dock2
  -GOLD-   2262019483D 1   1.00000     0.00000
 Structure written by MMmdl.
 57 61  0  0  0  0  0  0  0  0  1 V2000
  152.5620  136.7328  159.5148 O   0  0  0  0  0  0  0  0  0  0  0  0
  152.1514  137.6050  158.7530 C   0  0  0  0  0  0  0  0  0  0  0  0
  150.8576  138.3696  158.9741 C   0  0  0  0  0  0  0  0  0  0  0  0
  150.9055  139.4832  157.9094 C   0  0  1  0  0  0  0  0  0  0  0  0
  151.0769  140.9192  158.4993 C   0  0  1  0  0  0  0  0  0  0  0  0
  152.5093  141.1800  159.0367 C   0  0  0  0  0  0  0  0  0  0  0  0
  152.6561  142.5974  159.6051 C   0  0  0  0  0  0  0  0  0  0  0  0
  152.2571  143.6276  158.5436 C   0  0  0  0  0  0  0  0  0  0  0  0
  150.8329  143.3523  158.0442 C   0  0  0  0  0  0  0  0  0  0  0  0
  150.6977  141.9821  157.5502 N   0  0  0  0  0  0  0  0  0  0  0  0
  149.5122  141.8248  156.9204 C   0  0  0  0  0  0  0  0  0  0  0  0
  149.5402  141.3004  155.6706 N   0  0  0  0  0  0  0  0  0  0  0  0
  148.3986  141.1089  155.0023 C   0  0  0  0  0  0  0  0  0  0  0  0
  147.1485  141.3690  155.3920 N   0  0  0  0  0  0  0  0  0  0  0  0
  147.1208  141.9050  156.6463 C   0  0  0  0  0  0  0  0  0  0  0  0
  148.2468  142.1668  157.4754 C   0  0  0  0  0  0  0  0  0  0  0  0
  147.8309  142.7167  158.6822 N   0  0  0  0  0  0  0  0  0  0  0  0
  146.5319  142.7786  158.5717 C   0  0  0  0  0  0  0  0  0  0  0  0
  146.0218  142.3112  157.3819 N   0  0  0  0  0  0  0  0  0  0  0  0
  144.6228  142.2670  156.9960 C   0  0  0  0  0  0  0  0  0  0  0  0
  144.3702  142.9427  155.6310 C   0  0  1  0  0  0  0  0  0  0  0  0
  143.4690  142.1782  154.8550 O   0  0  0  0  0  0  0  0  0  0  0  0
  143.8371  144.3874  155.7245 C   0  0  2  0  0  0  0  0  0  0  0  0
  143.8107  145.1389  154.3896 C   0  0  0  0  0  0  0  0  0  0  0  0
  144.0086  146.5979  154.7784 C   0  0  0  0  0  0  0  0  0  0  0  0
  144.2916  146.5532  156.2806 C   0  0  0  0  0  0  0  0  0  0  0  0
  144.6704  145.2088  156.5292 O   0  0  0  0  0  0  0  0  0  0  0  0
  152.0371  139.0629  156.9442 C   0  0  0  0  0  0  0  0  0  0  0  0
  152.7533  138.0096  157.6368 N   0  0  0  0  0  0  0  0  0  0  0  0
  150.0166  137.6971  158.8008 H   0  0  0  0  0  0  0  0  0  0  0  0
  150.7804  138.7462  159.9940 H   0  0  0  0  0  0  0  0  0  0  0  0
  149.9595  139.4335  157.3694 H   0  0  0  0  0  0  0  0  0  0  0  0
  150.4009  141.0007  159.3511 H   0  0  0  0  0  0  0  0  0  0  0  0
  152.7693  140.4633  159.8148 H   0  0  0  0  0  0  0  0  0  0  0  0
  153.2430  141.0446  158.2420 H   0  0  0  0  0  0  0  0  0  0  0  0
  152.0245  142.7096  160.4873 H   0  0  0  0  0  0  0  0  0  0  0  0
  153.6829  142.7687  159.9296 H   0  0  0  0  0  0  0  0  0  0  0  0
  152.3216  144.6355  158.9542 H   0  0  0  0  0  0  0  0  0  0  0  0
  152.9553  143.5848  157.7067 H   0  0  0  0  0  0  0  0  0  0  0  0
  150.1216  143.5193  158.8545 H   0  0  0  0  0  0  0  0  0  0  0  0
  150.5834  144.0599  157.2519 H   0  0  0  0  0  0  0  0  0  0  0  0
  148.5014  140.6865  154.0138 H   0  0  0  0  0  0  0  0  0  0  0  0
  145.9051  143.1713  159.3595 H   0  0  0  0  0  0  0  0  0  0  0  0
  144.3030  141.2243  156.9775 H   0  0  0  0  0  0  0  0  0  0  0  0
  144.0416  142.7545  157.7788 H   0  0  0  0  0  0  0  0  0  0  0  0
  145.3046  142.9621  155.0687 H   0  0  0  0  0  0  0  0  0  0  0  0
  143.9302  141.8530  154.0966 H   0  0  0  0  0  0  0  0  0  0  0  0
  142.8277  144.3923  156.1420 H   0  0  0  0  0  0  0  0  0  0  0  0
  144.6289  144.8216  153.7428 H   0  0  0  0  0  0  0  0  0  0  0  0
  142.8789  144.9729  153.8483 H   0  0  0  0  0  0  0  0  0  0  0  0
  144.8542  147.0215  154.2352 H   0  0  0  0  0  0  0  0  0  0  0  0
  143.1305  147.2063  154.5595 H   0  0  0  0  0  0  0  0  0  0  0  0
  145.0722  147.2515  156.5837 H   0  0  0  0  0  0  0  0  0  0  0  0
  143.3888  146.7826  156.8488 H   0  0  0  0  0  0  0  0  0  0  0  0
  151.6263  138.6618  156.0168 H   0  0  0  0  0  0  0  0  0  0  0  0
  152.7058  139.8821  156.6799 H   0  0  0  0  0  0  0  0  0  0  0  0
  153.6273  137.6339  157.2982 H   0  0  0  0  0  0  0  0  0  0  0  0
  1  2  2  0  0  0  0
  2 29  1  0  0  0  0
  2  3  1  0  0  0  0
  3  4  1  0  0  0  0
  3 30  1  0  0  0  0
  3 31  1  0  0  0  0
  4  5  1  0  0  0  0
  4 28  1  0  0  0  0
  4 32  1  0  0  0  0
  5 10  1  0  0  0  0
  5  6  1  0  0  0  0
  5 33  1  0  0  0  0
  6  7  1  0  0  0  0
  6 34  1  0  0  0  0
  6 35  1  0  0  0  0
  7  8  1  0  0  0  0
  7 36  1  0  0  0  0
  7 37  1  0  0  0  0
  8  9  1  0  0  0  0
  8 38  1  0  0  0  0
  8 39  1  0  0  0  0
  9 10  1  0  0  0  0
  9 40  1  0  0  0  0
  9 41  1  0  0  0  0
 10 11  1  0  0  0  0
 11 16  1  0  0  0  0
 11 12  2  0  0  0  0
 12 13  1  0  0  0  0
 13 14  2  0  0  0  0
 13 42  1  0  0  0  0
 14 15  1  0  0  0  0
 15 19  1  0  0  0  0
 15 16  2  0  0  0  0
 16 17  1  0  0  0  0
 17 18  2  0  0  0  0
 18 19  1  0  0  0  0
 18 43  1  0  0  0  0
 19 20  1  0  0  0  0
 20 21  1  0  0  0  0
 20 44  1  0  0  0  0
 20 45  1  0  0  0  0
 21 22  1  0  0  0  0
 21 23  1  0  0  0  0
 21 46  1  0  0  0  0
 22 47  1  0  0  0  0
 23 27  1  0  0  0  0
 23 24  1  0  0  0  0
 23 48  1  0  0  0  0
 24 25  1  0  0  0  0
 24 49  1  0  0  0  0
 24 50  1  0  0  0  0
 25 26  1  0  0  0  0
 25 51  1  0  0  0  0
 25 52  1  0  0  0  0
 26 27  1  0  0  0  0
 26 53  1  0  0  0  0
 26 54  1  0  0  0  0
 28 29  1  0  0  0  0
 28 55  1  0  0  0  0
 28 56  1  0  0  0  0
 29 57  1  0  0  0  0
M  END
> <s_m_source_file>
AV-unprocessed.smi

> <i_m_source_file_index>
203

> <i_lp_mmshare_version>
43012

> <i_f3d_flags>
0

> <s_epik_input>
Tz1DMVtDSDJdW0NASF0oW0NIMl1bTkhdMSlbQ0BASF0yW0NIMl1bQ0gyXVtDSDJdW0NIMl1OMmMobltjSF1uMyljKGMzNCluW2NIXW40W0NIMl1bQ0BIXShbT0hdKVtDQEBIXTVbQ0gyXVtDSDJdW0NIMl1PNQ==

> <s_epik_cmdline>
J2VwaWtfcHl0aG9uJywgJy1waCcsICc3LjAnLCAnLXRuJywgJzgnLCAnLW1hJywgJzIwMCcsICctbWV0YWxfYmluZGluZycsICctaW1hZScsICc8aW5maWxlLm1hZT4nLCAnLW9tYWUnLCAnPG91dGZpbGUubWFlPic=

> <r_lp_tautomer_probability>
1

> <r_epik_Ionization_Penalty>
0.00175146

> <r_epik_Ionization_Penalty_Charging>
0

> <r_epik_Ionization_Penalty_Neutral>
0.00175146

> <r_epik_State_Penalty>
0.00109045

> <r_epik_Charging_Adjusted_Penalty>
0.00109045

> <i_epik_Tot_Q>
0

> <i_epik_Tot_abs_Q>
0

> <r_epik_Metal_State_Penalty>
-0

> <b_epik_Metal_Only>
0

> <s_lp_Force_Field>
OPLS_2005

> <r_lp_Energy>
57.1274

> <b_lp_Chiralities_Consistent>
1

> <s_lp_Variant>
AV-unprocessed.smi:203-7

> <Gold.Version>
5.8.1

> <Gold.Id.Protein>
6NUR|6NUR_protein|mol2

> <Gold.PLP.Fitness>
42.5983

> <Gold.PLP.PLP>
-39.3747

> <Gold.PLP.part.hbond>
-2.9056

> <Gold.PLP.part.metal>
0.0000

> <Gold.PLP.part.buried>
-7.4815

> <Gold.PLP.part.nonpolar>
-30.2248

> <Gold.PLP.part.repulsive>
0.5723

> <Gold.PLP.ligand.clash>
0.0000

> <Gold.PLP.ligand.torsion>
1.2839

> <Gold.PLP.Chemscore.Hbond>
1.8320

> <Gold.PLP.Chemscore.CHOScore>
0.0000

> <Gold.PLP.Chemscore.Metal>
0.0000

> <Gold.Chemscore.Hbonds>
donor molecule, donor type, donor heavy atom, donor atom, acceptor molecule, acceptor atom, score
      L1  H    22    47       P1 10175  0.30
      P1  H  6896  6908       L1     1  1.00

> <Gold.PLP.Chemscore.Internal.Correction>
0.2954

> <Gold.Rescore>
     Score         DG    S(hbond)    S(metal)    S(lipo)     H(rot)  DE(clash)    DE(int)     intcor
     12.95     -14.62       1.61        0.00      91.52       2.72       0.10       1.58       ----

> <Gold.Chemscore.Fitness>
12.9465

> <Gold.Chemscore.DG>
-14.6205

> <Gold.Chemscore.ZeroCoef>
-5.4800

> <Gold.Chemscore.Hbond>
1.6132

> <Gold.Chemscore.Metal>
0.0000

> <Gold.Chemscore.Lipo>
91.5231

> <Gold.Chemscore.Internal_Hbond>
0.0000

> <Gold.Chemscore.DEClash>
0.0962

> <Gold.Chemscore.DEInternal>
1.5778

> <Gold.Chemscore.Rot>
2.7171

> <Gold.Chemscore.Internal.Correction>
   9.000000E+99

> <Gold.Chemscore.Hbonds>
donor molecule, donor type, donor heavy atom, donor atom, acceptor molecule, acceptor atom, score
      L1  H    22    47       P1 10175  0.01
      P1  H  6896  6908       L1     1  0.99

> <Gold.Chemscore.Hbond.Weighted>
-5.3880

> <Gold.Chemscore.Metal.Weighted>
-0.0000

> <Gold.Chemscore.Lipo.Weighted>
-10.7082

> <Gold.Chemscore.Internal_Hbond.Weighted>
0.0000

> <Gold.Chemscore.DEClash.Weighted>
0.0962

> <Gold.Chemscore.DEInternal.Weighted>
1.5778

> <Gold.Chemscore.Rot.Weighted>
6.9557

> <Gold.Chemscore.Internal.Correction.Weighted>
   9.000000E+99

> <Gold.Protein.RotatedTorsions>
[ 6907 6896 6895 6894 ] final  -95.97 input  -60.11 | X-H torsion
[ 7974 7965 7964 7962 ] final -118.70 input  175.53 | X-H torsion
[ 8008 7997 7996 7995 ] final   81.43 input   59.86 | X-H torsion
[ 10167 10162 10161 10158 ] final -109.32 input  -65.29 | X-H torsion
[ 10718 10713 10712 10709 ] final  176.76 input   66.30 | X-H torsion
[ 10763 10752 10751 10750 ] final  139.70 input  -60.55 | X-H torsion
[ 11005 11000 10999 10996 ] final  -53.73 input  -57.11 | X-H torsion

> <Gold.Protein.ActiveResidues>
 VAL166  LYS551  ARG553  GLY616  TRP617  ASP618  TYR619  PRO620  LYS621  CYS622 
 ASP623  PHE694  ASN695  SER759  ASP760  ASP761  ALA762  ILE779  LEU786  VAL792 
 PHE793  MET794  SER795  GLU796  ALA797  LYS798  CYS799  TRP800  GLU811  SER814 

> <Gold.Protein.RotatedAtoms>
  150.6977  134.1574  159.4163 H   0  0  0  0  0  0  0  0  0  0  0  0  # atno 6907 bound_to 6896
  151.9556  135.0146  160.0554 H   0  0  0  0  0  0  0  0  0  0  0  0  # atno 6908 bound_to 6896
  152.1972  133.4780  159.5076 H   0  0  0  0  0  0  0  0  0  0  0  0  # atno 6909 bound_to 6896
  145.0708  140.8358  143.4097 H   0  0  0  0  0  0  0  0  0  0  0  0  # atno 7974 bound_to 7965
  155.8970  140.3435  155.5998 H   0  0  0  0  0  0  0  0  0  0  0  0  # atno 8008 bound_to 7997
  155.7545  140.0824  157.2204 H   0  0  0  0  0  0  0  0  0  0  0  0  # atno 8009 bound_to 7997
  154.4039  140.1547  156.2749 H   0  0  0  0  0  0  0  0  0  0  0  0  # atno 8010 bound_to 7997
  140.1566  143.4155  152.1456 H   0  0  0  0  0  0  0  0  0  0  0  0  # atno 10167 bound_to 10162
  156.9153  130.9923  151.3014 H   0  0  0  0  0  0  0  0  0  0  0  0  # atno 10718 bound_to 10713
  153.9104  135.3012  155.3448 H   0  0  0  0  0  0  0  0  0  0  0  0  # atno 10763 bound_to 10752
  154.7626  135.4926  153.9496 H   0  0  0  0  0  0  0  0  0  0  0  0  # atno 10764 bound_to 10752
  153.1196  135.6779  153.9460 H   0  0  0  0  0  0  0  0  0  0  0  0  # atno 10765 bound_to 10752
  141.0991  133.6620  156.4215 H   0  0  0  0  0  0  0  0  0  0  0  0  # atno 11005 bound_to 11000
  145.1295  139.2641  143.5547 LP  0  0  0  0  0  0  0  0  0  0  0  0  # atno 17320 bound_to 7965
  146.3528  140.0941  142.8611 LP  0  0  0  0  0  0  0  0  0  0  0  0  # atno 17321 bound_to 7965
  139.5401  144.7248  151.4763 LP  0  0  0  0  0  0  0  0  0  0  0  0  # atno 17342 bound_to 10162
  140.6669  143.8378  150.6953 LP  0  0  0  0  0  0  0  0  0  0  0  0  # atno 17343 bound_to 10162
  157.5942  130.8465  149.8704 LP  0  0  0  0  0  0  0  0  0  0  0  0  # atno 17370 bound_to 10713
  156.0516  130.3716  150.1187 LP  0  0  0  0  0  0  0  0  0  0  0  0  # atno 17371 bound_to 10713
  140.5068  134.6433  157.5269 LP  0  0  0  0  0  0  0  0  0  0  0  0  # atno 17394 bound_to 11000
  139.9836  134.7097  155.9814 LP  0  0  0  0  0  0  0  0  0  0  0  0  # atno 17395 bound_to 11000

$$$$
