AV-unprocessed.smi:1535|AV-procd|sdf|6173|dock4
  -GOLD-   22720 6323D 1   1.00000     0.00000
 Structure written by MMmdl.
 46 47  0  0  0  0  0  0  0  0  1 V2000
  152.8247  143.4857  161.7754 C   0  0  0  0  0  0  0  0  0  0  0  0
  152.3371  143.0035  160.4206 C   0  0  0  0  0  0  0  0  0  0  0  0
  152.8321  141.7839  159.9068 C   0  0  0  0  0  0  0  0  0  0  0  0
  152.4025  141.2991  158.6519 C   0  0  0  0  0  0  0  0  0  0  0  0
  152.7504  140.1475  157.9671 N   0  0  0  0  0  0  0  0  0  0  0  0
  152.0155  140.2597  156.8645 C   0  0  0  0  0  0  0  0  0  0  0  0
  151.2328  141.3498  156.7527 N   0  0  0  0  0  0  0  0  0  0  0  0
  150.3508  141.6779  155.6463 C   0  0  0  0  0  0  0  0  0  0  0  0
  148.8747  141.3655  155.9578 C   0  0  1  0  0  0  0  0  0  0  0  0
  148.0587  141.9198  154.9439 O   0  0  0  0  0  0  0  0  0  0  0  0
  148.6205  139.8442  156.0211 C   0  0  0  0  0  0  0  0  0  0  0  0
  148.5857  139.2558  157.3634 N   0  0  0  0  0  0  0  0  0  0  0  0
  147.2564  139.4239  157.9414 C   0  0  0  0  0  0  0  0  0  0  0  0
  148.9814  137.8427  157.3607 C   0  0  0  0  0  0  0  0  0  0  0  0
  149.6354  137.3362  158.6608 C   0  0  1  0  0  0  0  0  0  0  0  0
  150.9577  138.0637  158.9341 C   0  0  0  0  0  0  0  0  0  0  0  0
  148.7262  137.4658  159.8118 C   0  0  0  0  0  0  0  0  0  0  0  0
  148.0121  137.5670  160.7166 N   0  0  0  0  0  0  0  0  0  0  0  0
  151.4566  142.0741  157.9188 C   0  0  0  0  0  0  0  0  0  0  0  0
  150.9579  143.2898  158.4192 C   0  0  0  0  0  0  0  0  0  0  0  0
  151.3984  143.7601  159.6741 C   0  0  0  0  0  0  0  0  0  0  0  0
  150.8540  145.0744  160.2052 C   0  0  0  0  0  0  0  0  0  0  0  0
  153.5037  142.7659  162.2335 H   0  0  0  0  0  0  0  0  0  0  0  0
  151.9850  143.6311  162.4553 H   0  0  0  0  0  0  0  0  0  0  0  0
  153.3573  144.4316  161.6745 H   0  0  0  0  0  0  0  0  0  0  0  0
  153.5478  141.2076  160.4743 H   0  0  0  0  0  0  0  0  0  0  0  0
  152.0460  139.5051  156.0922 H   0  0  0  0  0  0  0  0  0  0  0  0
  150.4778  142.7318  155.3948 H   0  0  0  0  0  0  0  0  0  0  0  0
  150.6775  141.1094  154.7747 H   0  0  0  0  0  0  0  0  0  0  0  0
  148.6199  141.8476  156.9001 H   0  0  0  0  0  0  0  0  0  0  0  0
  148.2217  142.8494  154.9008 H   0  0  0  0  0  0  0  0  0  0  0  0
  147.6740  139.6480  155.5145 H   0  0  0  0  0  0  0  0  0  0  0  0
  149.3793  139.3287  155.4302 H   0  0  0  0  0  0  0  0  0  0  0  0
  147.2307  139.0999  158.9810 H   0  0  0  0  0  0  0  0  0  0  0  0
  146.5087  138.8566  157.3855 H   0  0  0  0  0  0  0  0  0  0  0  0
  146.9600  140.4734  157.9322 H   0  0  0  0  0  0  0  0  0  0  0  0
  148.1130  137.2243  157.1287 H   0  0  0  0  0  0  0  0  0  0  0  0
  149.6960  137.6591  156.5608 H   0  0  0  0  0  0  0  0  0  0  0  0
  149.8636  136.2751  158.5694 H   0  0  0  0  0  0  0  0  0  0  0  0
  151.4322  137.6833  159.8390 H   0  0  0  0  0  0  0  0  0  0  0  0
  150.7993  139.1345  159.0666 H   0  0  0  0  0  0  0  0  0  0  0  0
  151.6592  137.9280  158.1105 H   0  0  0  0  0  0  0  0  0  0  0  0
  150.2405  143.8543  157.8424 H   0  0  0  0  0  0  0  0  0  0  0  0
  150.1874  145.5493  159.4848 H   0  0  0  0  0  0  0  0  0  0  0  0
  151.6671  145.7694  160.4152 H   0  0  0  0  0  0  0  0  0  0  0  0
  150.2921  144.9096  161.1246 H   0  0  0  0  0  0  0  0  0  0  0  0
  1  2  1  0  0  0  0
  1 23  1  0  0  0  0
  1 24  1  0  0  0  0
  1 25  1  0  0  0  0
  2 21  1  0  0  0  0
  2  3  2  0  0  0  0
  3  4  1  0  0  0  0
  3 26  1  0  0  0  0
  4 19  2  0  0  0  0
  4  5  1  0  0  0  0
  5  6  2  0  0  0  0
  6  7  1  0  0  0  0
  6 27  1  0  0  0  0
  7  8  1  0  0  0  0
  7 19  1  0  0  0  0
  8  9  1  0  0  0  0
  8 28  1  0  0  0  0
  8 29  1  0  0  0  0
  9 10  1  0  0  0  0
  9 11  1  0  0  0  0
  9 30  1  0  0  0  0
 10 31  1  0  0  0  0
 11 12  1  0  0  0  0
 11 32  1  0  0  0  0
 11 33  1  0  0  0  0
 12 13  1  0  0  0  0
 12 14  1  0  0  0  0
 13 34  1  0  0  0  0
 13 35  1  0  0  0  0
 13 36  1  0  0  0  0
 14 15  1  0  0  0  0
 14 37  1  0  0  0  0
 14 38  1  0  0  0  0
 15 16  1  0  0  0  0
 15 17  1  0  0  0  0
 15 39  1  0  0  0  0
 16 40  1  0  0  0  0
 16 41  1  0  0  0  0
 16 42  1  0  0  0  0
 17 18  3  0  0  0  0
 19 20  1  0  0  0  0
 20 21  2  0  0  0  0
 20 43  1  0  0  0  0
 21 22  1  0  0  0  0
 22 44  1  0  0  0  0
 22 45  1  0  0  0  0
 22 46  1  0  0  0  0
M  END
> <s_m_source_file>
AV-unprocessed.smi

> <i_m_source_file_index>
1535

> <i_lp_mmshare_version>
43012

> <i_f3d_flags>
0

> <s_epik_input>
W0NIM11jKFtjSF0xKWMoW0NIM10pW2NIXWMoYzEyKW4oW2NIXW4yKVtDSDJdW0NASF0oW09IXSlbQ0gyXU4oW0NIM10pW0NIMl1bQ0BIXShbQ0gzXSlDI04=

> <s_epik_cmdline>
J2VwaWtfcHl0aG9uJywgJy1waCcsICc3LjAnLCAnLXRuJywgJzgnLCAnLW1hJywgJzIwMCcsICctbWV0YWxfYmluZGluZycsICctaW1hZScsICc8aW5maWxlLm1hZT4nLCAnLW9tYWUnLCAnPG91dGZpbGUubWFlPic=

> <r_epik_Ionization_Penalty>
0.098511

> <r_epik_Ionization_Penalty_Charging>
0

> <r_epik_Ionization_Penalty_Neutral>
0.098511

> <r_epik_State_Penalty>
0.0881608

> <r_epik_Charging_Adjusted_Penalty>
0.0881608

> <i_epik_Tot_Q>
0

> <i_epik_Tot_abs_Q>
0

> <r_epik_Metal_State_Penalty>
0.0128087

> <b_epik_Metal_Only>
0

> <s_lp_Force_Field>
OPLS_2005

> <r_lp_Energy>
24.0286

> <b_lp_Chiralities_Consistent>
1

> <s_lp_Variant>
AV-unprocessed.smi:1535-4

> <Gold.Version>
5.8.1

> <Gold.Id.Protein>
6NUR|6NUR_protein|mol2

> <Gold.PLP.Fitness>
47.3865

> <Gold.PLP.PLP>
-39.9650

> <Gold.PLP.part.hbond>
-4.0000

> <Gold.PLP.part.metal>
0.0000

> <Gold.PLP.part.buried>
-5.3358

> <Gold.PLP.part.nonpolar>
-29.8678

> <Gold.PLP.part.repulsive>
0.0000

> <Gold.PLP.ligand.clash>
0.0000

> <Gold.PLP.ligand.torsion>
1.4612

> <Gold.PLP.Chemscore.Hbond>
3.4191

> <Gold.PLP.Chemscore.CHOScore>
0.0000

> <Gold.PLP.Chemscore.Metal>
0.0000

> <Gold.Chemscore.Hbonds>
donor molecule, donor type, donor heavy atom, donor atom, acceptor molecule, acceptor atom, score
      L1  H    10    31       P1  8028  0.83
      P1  H  6931  6943       L1    18  0.64
      P1  H  6934  6947       L1    18  0.66
      P1  H  7997  8009       L1     5  0.67

> <Gold.PLP.Chemscore.Internal.Correction>
0.0867

> <Gold.Rescore>
     Score         DG    S(hbond)    S(metal)    S(lipo)     H(rot)  DE(clash)    DE(int)     intcor
     16.57     -19.13       2.49        0.00     100.51       2.51       0.16       2.40       ----

> <Gold.Chemscore.Fitness>
16.5735

> <Gold.Chemscore.DG>
-19.1339

> <Gold.Chemscore.ZeroCoef>
-5.4800

> <Gold.Chemscore.Hbond>
2.4920

> <Gold.Chemscore.Metal>
0.0000

> <Gold.Chemscore.Lipo>
100.5096

> <Gold.Chemscore.Internal_Hbond>
0.0000

> <Gold.Chemscore.DEClash>
0.1647

> <Gold.Chemscore.DEInternal>
2.3957

> <Gold.Chemscore.Rot>
2.5113

> <Gold.Chemscore.Internal.Correction>
   9.000000E+99

> <Gold.Chemscore.Hbonds>
donor molecule, donor type, donor heavy atom, donor atom, acceptor molecule, acceptor atom, score
      L1  H    10    31       P1  8028  0.79
      P1  H  6931  6943       L1    18  0.22
      P1  H  6934  6947       L1    18  0.63
      P1  H  7997  8009       L1     5  0.06

> <Gold.Chemscore.Hbond.Weighted>
-8.3232

> <Gold.Chemscore.Metal.Weighted>
-0.0000

> <Gold.Chemscore.Lipo.Weighted>
-11.7596

> <Gold.Chemscore.Internal_Hbond.Weighted>
0.0000

> <Gold.Chemscore.DEClash.Weighted>
0.1647

> <Gold.Chemscore.DEInternal.Weighted>
2.3957

> <Gold.Chemscore.Rot.Weighted>
6.4289

> <Gold.Chemscore.Internal.Correction.Weighted>
   9.000000E+99

> <Gold.Protein.RotatedTorsions>
[ 6907 6896 6895 6894 ] final -137.00 input  -60.11 | X-H torsion
[ 7974 7965 7964 7962 ] final  120.01 input  175.53 | X-H torsion
[ 8008 7997 7996 7995 ] final  160.59 input   59.86 | X-H torsion
[ 10167 10162 10161 10158 ] final  170.14 input  -65.29 | X-H torsion
[ 10718 10713 10712 10709 ] final   28.56 input   66.30 | X-H torsion
[ 10763 10752 10751 10750 ] final -118.71 input  -60.55 | X-H torsion
[ 11005 11000 10999 10996 ] final   73.63 input  -57.11 | X-H torsion

> <Gold.Protein.ActiveResidues>
 VAL166  LYS551  ARG553  GLY616  TRP617  ASP618  TYR619  PRO620  LYS621  CYS622 
 ASP623  PHE694  ASN695  SER759  ASP760  ASP761  ALA762  ILE779  LEU786  VAL792 
 PHE793  MET794  SER795  GLU796  ALA797  LYS798  CYS799  TRP800  GLU811  SER814 

> <Gold.Protein.RotatedAtoms>
  151.0170  133.5912  159.2675 H   0  0  0  0  0  0  0  0  0  0  0  0  # atno 6907 bound_to 6896
  151.3042  135.0776  159.9259 H   0  0  0  0  0  0  0  0  0  0  0  0  # atno 6908 bound_to 6896
  152.5314  133.9846  159.7877 H   0  0  0  0  0  0  0  0  0  0  0  0  # atno 6909 bound_to 6896
  145.1362  139.3296  143.4639 H   0  0  0  0  0  0  0  0  0  0  0  0  # atno 7974 bound_to 7965
  156.2161  140.1800  156.7584 H   0  0  0  0  0  0  0  0  0  0  0  0  # atno 8008 bound_to 7997
  154.5794  140.0669  156.9111 H   0  0  0  0  0  0  0  0  0  0  0  0  # atno 8009 bound_to 7997
  155.2529  140.3330  155.4283 H   0  0  0  0  0  0  0  0  0  0  0  0  # atno 8010 bound_to 7997
  139.5011  144.3629  151.9806 H   0  0  0  0  0  0  0  0  0  0  0  0  # atno 10167 bound_to 10162
  157.2350  130.7042  149.6331 H   0  0  0  0  0  0  0  0  0  0  0  0  # atno 10718 bound_to 10713
  154.8596  135.4264  154.2183 H   0  0  0  0  0  0  0  0  0  0  0  0  # atno 10763 bound_to 10752
  153.3194  135.6981  153.7050 H   0  0  0  0  0  0  0  0  0  0  0  0  # atno 10764 bound_to 10752
  153.6111  135.3519  155.2953 H   0  0  0  0  0  0  0  0  0  0  0  0  # atno 10765 bound_to 10752
  139.9430  134.7364  156.1050 H   0  0  0  0  0  0  0  0  0  0  0  0  # atno 11005 bound_to 11000
  146.3509  140.1381  142.8595 LP  0  0  0  0  0  0  0  0  0  0  0  0  # atno 17320 bound_to 7965
  145.0581  140.9067  143.4955 LP  0  0  0  0  0  0  0  0  0  0  0  0  # atno 17321 bound_to 7965
  140.3065  144.3587  150.6045 LP  0  0  0  0  0  0  0  0  0  0  0  0  # atno 17342 bound_to 10162
  140.5833  143.2171  151.7389 LP  0  0  0  0  0  0  0  0  0  0  0  0  # atno 17343 bound_to 10162
  155.9673  130.4476  150.5588 LP  0  0  0  0  0  0  0  0  0  0  0  0  # atno 17370 bound_to 10713
  157.3438  131.0721  151.1767 LP  0  0  0  0  0  0  0  0  0  0  0  0  # atno 17371 bound_to 10713
  141.1071  133.6656  156.2890 LP  0  0  0  0  0  0  0  0  0  0  0  0  # atno 17394 bound_to 11000
  140.5904  134.5656  157.5498 LP  0  0  0  0  0  0  0  0  0  0  0  0  # atno 17395 bound_to 11000

$$$$
