AV-unprocessed.smi:213|AV-procd|sdf|1634|dock2
  -GOLD-   2262019593D 1   1.00000     0.00000
 Structure written by MMmdl.
 59 62  0  0  0  0  0  0  0  0  2 V2000
  144.2738  136.9894  153.5971 C   0  0  0  0  0  0  0  0  0  0  0  0
  145.6672  136.8477  152.9566 C   0  0  1  0  0  0  0  0  0  0  0  0
  145.5960  136.2695  151.5236 C   0  0  0  0  0  0  0  0  0  0  0  0
  145.1574  134.8516  151.5020 N   0  3  0  0  0  0  0  0  0  0  0  0
  143.9173  134.6516  150.7155 C   0  0  0  0  0  0  0  0  0  0  0  0
  143.4788  133.1781  150.7673 C   0  0  0  0  0  0  0  0  0  0  0  0
  144.5309  132.3502  150.2882 O   0  0  0  0  0  0  0  0  0  0  0  0
  145.7029  132.4647  151.0854 C   0  0  0  0  0  0  0  0  0  0  0  0
  146.2151  133.9145  151.0477 C   0  0  0  0  0  0  0  0  0  0  0  0
  146.3909  138.1262  152.9845 N   0  0  0  0  0  0  0  0  0  0  0  0
  146.5055  138.9265  151.7670 C   0  0  0  0  0  0  0  0  0  0  0  0
  147.3060  138.3673  153.9662 C   0  0  0  0  0  0  0  0  0  0  0  0
  147.6835  137.3523  154.7908 N   0  0  0  0  0  0  0  0  0  0  0  0
  148.5850  137.5544  155.7553 C   0  0  0  0  0  0  0  0  0  0  0  0
  149.2281  138.6781  156.0720 N   0  0  0  0  0  0  0  0  0  0  0  0
  148.8552  139.7053  155.2569 C   0  0  0  0  0  0  0  0  0  0  0  0
  147.9109  139.6405  154.1920 C   0  0  0  0  0  0  0  0  0  0  0  0
  147.7886  140.8950  153.6029 N   0  0  0  0  0  0  0  0  0  0  0  0
  148.6253  141.6470  154.2633 C   0  0  0  0  0  0  0  0  0  0  0  0
  149.3145  141.0109  155.2694 N   0  0  0  0  0  0  0  0  0  0  0  0
  150.3085  141.5984  156.1525 C   0  0  0  0  0  0  0  0  0  0  0  0
  149.7815  141.9215  157.5692 C   0  0  2  0  0  0  0  0  0  0  0  0
  148.5598  142.6319  157.5038 O   0  0  0  0  0  0  0  0  0  0  0  0
  150.7821  142.6495  158.4964 C   0  0  2  0  0  0  0  0  0  0  0  0
  151.4126  143.9228  157.9311 C   0  0  0  0  0  0  0  0  0  0  0  0
  152.6169  144.0779  158.8330 C   0  0  0  0  0  0  0  0  0  0  0  0
  153.0544  142.6286  159.0375 C   0  0  0  0  0  0  0  0  0  0  0  0
  151.8818  141.8333  158.8893 O   0  0  0  0  0  0  0  0  0  0  0  0
  143.7834  136.0205  153.6910 H   0  0  0  0  0  0  0  0  0  0  0  0
  143.6164  137.6323  153.0118 H   0  0  0  0  0  0  0  0  0  0  0  0
  144.3473  137.4127  154.5994 H   0  0  0  0  0  0  0  0  0  0  0  0
  146.2064  136.1500  153.5959 H   0  0  0  0  0  0  0  0  0  0  0  0
  144.9004  136.8714  150.9373 H   0  0  0  0  0  0  0  0  0  0  0  0
  146.5602  136.3507  151.0197 H   0  0  0  0  0  0  0  0  0  0  0  0
  143.1207  135.2828  151.1111 H   0  0  0  0  0  0  0  0  0  0  0  0
  144.0861  134.9567  149.6814 H   0  0  0  0  0  0  0  0  0  0  0  0
  143.2047  132.8880  151.7830 H   0  0  0  0  0  0  0  0  0  0  0  0
  142.5975  133.0260  150.1442 H   0  0  0  0  0  0  0  0  0  0  0  0
  145.4938  132.1511  152.1095 H   0  0  0  0  0  0  0  0  0  0  0  0
  146.4624  131.7878  150.6942 H   0  0  0  0  0  0  0  0  0  0  0  0
  146.5216  134.1724  150.0326 H   0  0  0  0  0  0  0  0  0  0  0  0
  147.0997  134.0004  151.6777 H   0  0  0  0  0  0  0  0  0  0  0  0
  147.5422  139.2009  151.5670 H   0  0  0  0  0  0  0  0  0  0  0  0
  145.9180  139.8400  151.8615 H   0  0  0  0  0  0  0  0  0  0  0  0
  146.1413  138.3875  150.8934 H   0  0  0  0  0  0  0  0  0  0  0  0
  148.8270  136.6922  156.3590 H   0  0  0  0  0  0  0  0  0  0  0  0
  148.7679  142.6920  154.0295 H   0  0  0  0  0  0  0  0  0  0  0  0
  151.1550  140.9136  156.2150 H   0  0  0  0  0  0  0  0  0  0  0  0
  150.6895  142.5076  155.6867 H   0  0  0  0  0  0  0  0  0  0  0  0
  149.5426  140.9686  158.0425 H   0  0  0  0  0  0  0  0  0  0  0  0
  148.5594  143.1573  156.7185 H   0  0  0  0  0  0  0  0  0  0  0  0
  150.2597  142.9180  159.4163 H   0  0  0  0  0  0  0  0  0  0  0  0
  151.7396  143.7814  156.9006 H   0  0  0  0  0  0  0  0  0  0  0  0
  150.7411  144.7809  157.9635 H   0  0  0  0  0  0  0  0  0  0  0  0
  153.3997  144.7031  158.4030 H   0  0  0  0  0  0  0  0  0  0  0  0
  152.3147  144.5158  159.7853 H   0  0  0  0  0  0  0  0  0  0  0  0
  153.7701  142.3326  158.2700 H   0  0  0  0  0  0  0  0  0  0  0  0
  153.5175  142.4707  160.0115 H   0  0  0  0  0  0  0  0  0  0  0  0
  144.9297  134.6057  152.4548 H   0  0  0  0  0  0  0  0  0  0  0  0
  1  2  1  0  0  0  0
  1 29  1  0  0  0  0
  1 30  1  0  0  0  0
  1 31  1  0  0  0  0
  2  3  1  0  0  0  0
  2 10  1  0  0  0  0
  2 32  1  0  0  0  0
  3  4  1  0  0  0  0
  3 33  1  0  0  0  0
  3 34  1  0  0  0  0
  4  9  1  0  0  0  0
  4  5  1  0  0  0  0
  4 59  1  0  0  0  0
  5  6  1  0  0  0  0
  5 35  1  0  0  0  0
  5 36  1  0  0  0  0
  6  7  1  0  0  0  0
  6 37  1  0  0  0  0
  6 38  1  0  0  0  0
  7  8  1  0  0  0  0
  8  9  1  0  0  0  0
  8 39  1  0  0  0  0
  8 40  1  0  0  0  0
  9 41  1  0  0  0  0
  9 42  1  0  0  0  0
 10 11  1  0  0  0  0
 10 12  1  0  0  0  0
 11 43  1  0  0  0  0
 11 44  1  0  0  0  0
 11 45  1  0  0  0  0
 12 17  1  0  0  0  0
 12 13  2  0  0  0  0
 13 14  1  0  0  0  0
 14 15  2  0  0  0  0
 14 46  1  0  0  0  0
 15 16  1  0  0  0  0
 16 20  1  0  0  0  0
 16 17  2  0  0  0  0
 17 18  1  0  0  0  0
 18 19  2  0  0  0  0
 19 20  1  0  0  0  0
 19 47  1  0  0  0  0
 20 21  1  0  0  0  0
 21 22  1  0  0  0  0
 21 48  1  0  0  0  0
 21 49  1  0  0  0  0
 22 23  1  0  0  0  0
 22 24  1  0  0  0  0
 22 50  1  0  0  0  0
 23 51  1  0  0  0  0
 24 28  1  0  0  0  0
 24 25  1  0  0  0  0
 24 52  1  0  0  0  0
 25 26  1  0  0  0  0
 25 53  1  0  0  0  0
 25 54  1  0  0  0  0
 26 27  1  0  0  0  0
 26 55  1  0  0  0  0
 26 56  1  0  0  0  0
 27 28  1  0  0  0  0
 27 57  1  0  0  0  0
 27 58  1  0  0  0  0
M  CHG  1   4   1
M  END
> <s_m_source_file>
AV-unprocessed.smi

> <i_m_source_file_index>
213

> <i_lp_mmshare_version>
43012

> <i_f3d_flags>
0

> <s_epik_input>
W0NIMl0xW0NIMl1PW0NIMl1bQ0gyXU4xW0NIMl1bQ0BASF0oW0NIM10pTihbQ0gzXSljKG5bY0hdbjIpYyhjMjMpbltjSF1uM1tDSDJdW0NASF0oW09IXSlbQ0BASF00W0NIMl1bQ0gyXVtDSDJdTzQ=

> <s_epik_cmdline>
J2VwaWtfcHl0aG9uJywgJy1waCcsICc3LjAnLCAnLXRuJywgJzgnLCAnLW1hJywgJzIwMCcsICctbWV0YWxfYmluZGluZycsICctaW1hZScsICc8aW5maWxlLm1hZT4nLCAnLW9tYWUnLCAnPG91dGZpbGUubWFlPic=

> <r_lp_tautomer_probability>
1

> <r_epik_Ionization_Penalty>
0.399679

> <r_epik_Ionization_Penalty_Charging>
0.399433

> <r_epik_Ionization_Penalty_Neutral>
0.000246213

> <r_epik_State_Penalty>
0.286032

> <r_epik_Charging_Adjusted_Penalty>
0.685465

> <i_epik_Tot_Q>
1

> <i_epik_Tot_abs_Q>
1

> <r_epik_Metal_State_Penalty>
0.286072

> <b_epik_Metal_Only>
0

> <s_lp_Force_Field>
OPLS_2005

> <r_lp_Energy>
46.153

> <b_lp_Chiralities_Consistent>
1

> <s_lp_Variant>
AV-unprocessed.smi:213-2

> <Gold.Version>
5.8.1

> <Gold.Id.Protein>
6NUR|6NUR_protein|mol2

> <Gold.PLP.Fitness>
49.3288

> <Gold.PLP.PLP>
-46.3732

> <Gold.PLP.part.hbond>
-1.0268

> <Gold.PLP.part.metal>
0.0000

> <Gold.PLP.part.buried>
-6.2382

> <Gold.PLP.part.nonpolar>
-42.1901

> <Gold.PLP.part.repulsive>
0.4148

> <Gold.PLP.ligand.clash>
0.0000

> <Gold.PLP.ligand.torsion>
1.9548

> <Gold.PLP.Chemscore.Hbond>
1.0000

> <Gold.PLP.Chemscore.CHOScore>
0.9899

> <Gold.PLP.Chemscore.Metal>
0.0000

> <Gold.Chemscore.Hbonds>
donor molecule, donor type, donor heavy atom, donor atom, acceptor molecule, acceptor atom, score
      L1  H    23    51       P1  8028  1.00
      L1  C    19    47       P1  8028  0.88

> <Gold.PLP.Chemscore.Internal.Correction>
0.8955

> <Gold.Rescore>
     Score         DG    S(hbond)    S(metal)    S(lipo)     H(rot)  DE(clash)    DE(int)     intcor
     10.74     -14.03       0.69        0.00     115.11       2.83       0.43       2.87       ----

> <Gold.Chemscore.Fitness>
10.7408

> <Gold.Chemscore.DG>
-14.0347

> <Gold.Chemscore.ZeroCoef>
-5.4800

> <Gold.Chemscore.Hbond>
0.6947

> <Gold.Chemscore.Metal>
0.0000

> <Gold.Chemscore.Lipo>
115.1058

> <Gold.Chemscore.Internal_Hbond>
0.0000

> <Gold.Chemscore.DEClash>
0.4258

> <Gold.Chemscore.DEInternal>
2.8681

> <Gold.Chemscore.Rot>
2.8254

> <Gold.Chemscore.Internal.Correction>
   9.000000E+99

> <Gold.Chemscore.Hbonds>
donor molecule, donor type, donor heavy atom, donor atom, acceptor molecule, acceptor atom, score
      L1  H    23    51       P1  8028  0.64

> <Gold.Chemscore.Hbond.Weighted>
-2.3203

> <Gold.Chemscore.Metal.Weighted>
-0.0000

> <Gold.Chemscore.Lipo.Weighted>
-13.4674

> <Gold.Chemscore.Internal_Hbond.Weighted>
0.0000

> <Gold.Chemscore.DEClash.Weighted>
0.4258

> <Gold.Chemscore.DEInternal.Weighted>
2.8681

> <Gold.Chemscore.Rot.Weighted>
7.2330

> <Gold.Chemscore.Internal.Correction.Weighted>
   9.000000E+99

> <Gold.Protein.RotatedTorsions>
[ 6907 6896 6895 6894 ] final   39.22 input  -60.11 | X-H torsion
[ 7974 7965 7964 7962 ] final   58.80 input  175.53 | X-H torsion
[ 8008 7997 7996 7995 ] final  154.07 input   59.86 | X-H torsion
[ 10167 10162 10161 10158 ] final   14.02 input  -65.29 | X-H torsion
[ 10718 10713 10712 10709 ] final   46.64 input   66.30 | X-H torsion
[ 10763 10752 10751 10750 ] final    1.83 input  -60.55 | X-H torsion
[ 11005 11000 10999 10996 ] final  -82.73 input  -57.11 | X-H torsion

> <Gold.Protein.ActiveResidues>
 VAL166  LYS551  ARG553  GLY616  TRP617  ASP618  TYR619  PRO620  LYS621  CYS622 
 ASP623  PHE694  ASN695  SER759  ASP760  ASP761  ALA762  ILE779  LEU786  VAL792 
 PHE793  MET794  SER795  GLU796  ALA797  LYS798  CYS799  TRP800  GLU811  SER814 

> <Gold.Protein.RotatedAtoms>
  152.1668  134.8867  160.0537 H   0  0  0  0  0  0  0  0  0  0  0  0  # atno 6907 bound_to 6896
  151.9842  133.3763  159.4127 H   0  0  0  0  0  0  0  0  0  0  0  0  # atno 6908 bound_to 6896
  150.6895  134.3928  159.5128 H   0  0  0  0  0  0  0  0  0  0  0  0  # atno 6909 bound_to 6896
  145.9141  139.3677  143.0517 H   0  0  0  0  0  0  0  0  0  0  0  0  # atno 7974 bound_to 7965
  156.2550  140.1976  156.6589 H   0  0  0  0  0  0  0  0  0  0  0  0  # atno 8008 bound_to 7997
  154.6480  140.0575  156.9948 H   0  0  0  0  0  0  0  0  0  0  0  0  # atno 8009 bound_to 7997
  155.1462  140.3247  155.4444 H   0  0  0  0  0  0  0  0  0  0  0  0  # atno 8010 bound_to 7997
  140.5963  143.8694  150.6922 H   0  0  0  0  0  0  0  0  0  0  0  0  # atno 10167 bound_to 10162
  157.4502  130.8134  149.7781 H   0  0  0  0  0  0  0  0  0  0  0  0  # atno 10718 bound_to 10713
  153.3032  135.6957  153.7184 H   0  0  0  0  0  0  0  0  0  0  0  0  # atno 10763 bound_to 10752
  153.6090  135.3448  155.2973 H   0  0  0  0  0  0  0  0  0  0  0  0  # atno 10764 bound_to 10752
  154.8556  135.4359  154.2149 H   0  0  0  0  0  0  0  0  0  0  0  0  # atno 10765 bound_to 10752
  141.1661  133.7259  156.8615 H   0  0  0  0  0  0  0  0  0  0  0  0  # atno 11005 bound_to 11000
  145.8633  140.9462  143.0688 LP  0  0  0  0  0  0  0  0  0  0  0  0  # atno 17320 bound_to 7965
  144.6746  140.0559  143.7477 LP  0  0  0  0  0  0  0  0  0  0  0  0  # atno 17321 bound_to 7965
  140.2229  143.3795  152.1628 LP  0  0  0  0  0  0  0  0  0  0  0  0  # atno 17342 bound_to 10162
  139.5261  144.7103  151.5226 LP  0  0  0  0  0  0  0  0  0  0  0  0  # atno 17343 bound_to 10162
  155.9984  130.3894  150.2703 LP  0  0  0  0  0  0  0  0  0  0  0  0  # atno 17370 bound_to 10713
  157.0874  131.0160  151.3134 LP  0  0  0  0  0  0  0  0  0  0  0  0  # atno 17371 bound_to 10713
  140.1845  134.9009  157.2988 LP  0  0  0  0  0  0  0  0  0  0  0  0  # atno 17394 bound_to 11000
  140.2358  134.3855  155.7502 LP  0  0  0  0  0  0  0  0  0  0  0  0  # atno 17395 bound_to 11000

$$$$
