AV-unprocessed.smi:1897|AV-procd|sdf|7694|dock5
  -GOLD-   22720 9433D 1   1.00000     0.00000
 Structure written by MMmdl.
 38 40  0  0  0  0  0  0  0  0  3 V2000
  155.5112  130.9949  157.2026 C   0  0  0  0  0  0  0  0  0  0  0  0
  154.0715  131.3802  157.2019 C   0  0  0  0  0  0  0  0  0  0  0  0
  153.5216  132.1194  158.1682 N   0  0  0  0  0  0  0  0  0  0  0  0
  152.1724  132.3516  157.9450 N   0  0  0  0  0  0  0  0  0  0  0  0
  151.7181  131.7755  156.8232 C   0  0  0  0  0  0  0  0  0  0  0  0
  150.4351  131.8757  156.4280 N   0  5  0  0  0  0  0  0  0  0  0  0
  150.0191  131.5061  155.1889 C   0  0  0  0  0  0  0  0  0  0  0  0
  150.3716  130.4639  154.6387 O   0  0  0  0  0  0  0  0  0  0  0  0
  149.1775  132.3311  154.5385 N   0  0  0  0  0  0  0  0  0  0  0  0
  148.6200  132.1089  153.2104 C   0  0  2  0  0  0  0  0  0  0  0  0
  147.7858  133.2896  152.6781 C   0  0  0  0  0  0  0  0  0  0  0  0
  146.5865  132.6468  151.9539 C   0  0  0  0  0  0  0  0  0  0  0  0
  146.8440  131.1945  151.9898 N   0  3  2  0  0  0  0  0  0  0  0  0
  145.6753  130.2966  151.8666 C   0  0  0  0  0  0  0  0  0  0  0  0
  146.1598  128.8327  151.8463 C   0  0  0  0  0  0  0  0  0  0  0  0
  147.0590  128.5098  153.0579 C   0  0  0  0  0  0  0  0  0  0  0  0
  148.2028  129.5340  153.1910 C   0  0  0  0  0  0  0  0  0  0  0  0
  147.6193  130.9560  153.2156 C   0  0  1  0  0  0  0  0  0  0  0  0
  152.9595  130.8939  155.9335 S   0  0  0  0  0  0  0  0  0  0  0  0
  155.6654  130.1318  157.8503 H   0  0  0  0  0  0  0  0  0  0  0  0
  156.1237  131.8211  157.5648 H   0  0  0  0  0  0  0  0  0  0  0  0
  155.8346  130.7391  156.1936 H   0  0  0  0  0  0  0  0  0  0  0  0
  148.9082  133.1817  155.0108 H   0  0  0  0  0  0  0  0  0  0  0  0
  149.4191  131.8818  152.5017 H   0  0  0  0  0  0  0  0  0  0  0  0
  147.4307  133.9261  153.4900 H   0  0  0  0  0  0  0  0  0  0  0  0
  148.3781  133.9137  152.0082 H   0  0  0  0  0  0  0  0  0  0  0  0
  145.6623  132.8763  152.4865 H   0  0  0  0  0  0  0  0  0  0  0  0
  146.4827  132.9980  150.9270 H   0  0  0  0  0  0  0  0  0  0  0  0
  144.9903  130.4612  152.6998 H   0  0  0  0  0  0  0  0  0  0  0  0
  145.1316  130.5268  150.9499 H   0  0  0  0  0  0  0  0  0  0  0  0
  145.3051  128.1559  151.8238 H   0  0  0  0  0  0  0  0  0  0  0  0
  146.7185  128.6518  150.9271 H   0  0  0  0  0  0  0  0  0  0  0  0
  146.4571  128.5185  153.9676 H   0  0  0  0  0  0  0  0  0  0  0  0
  147.4657  127.5023  152.9657 H   0  0  0  0  0  0  0  0  0  0  0  0
  148.7744  129.3441  154.1001 H   0  0  0  0  0  0  0  0  0  0  0  0
  148.8962  129.4261  152.3558 H   0  0  0  0  0  0  0  0  0  0  0  0
  146.9523  131.0614  154.0752 H   0  0  0  0  0  0  0  0  0  0  0  0
  147.4638  130.9936  151.2182 H   0  0  0  0  0  0  0  0  0  0  0  0
  1  2  1  0  0  0  0
  1 20  1  0  0  0  0
  1 21  1  0  0  0  0
  1 22  1  0  0  0  0
  2 19  1  0  0  0  0
  2  3  2  0  0  0  0
  3  4  1  0  0  0  0
  4  5  2  0  0  0  0
  5  6  1  0  0  0  0
  5 19  1  0  0  0  0
  6  7  1  0  0  0  0
  7  8  2  0  0  0  0
  7  9  1  0  0  0  0
  9 10  1  0  0  0  0
  9 23  1  0  0  0  0
 10 18  1  0  0  0  0
 10 11  1  0  0  0  0
 10 24  1  0  0  0  0
 11 12  1  0  0  0  0
 11 25  1  0  0  0  0
 11 26  1  0  0  0  0
 12 13  1  0  0  0  0
 12 27  1  0  0  0  0
 12 28  1  0  0  0  0
 13 18  1  0  0  0  0
 13 14  1  0  0  0  0
 13 38  1  0  0  0  0
 14 15  1  0  0  0  0
 14 29  1  0  0  0  0
 14 30  1  0  0  0  0
 15 16  1  0  0  0  0
 15 31  1  0  0  0  0
 15 32  1  0  0  0  0
 16 17  1  0  0  0  0
 16 33  1  0  0  0  0
 16 34  1  0  0  0  0
 17 18  1  0  0  0  0
 17 35  1  0  0  0  0
 17 36  1  0  0  0  0
 18 37  1  0  0  0  0
M  CHG  1   6  -1
M  CHG  1  13   1
M  END
> <s_m_source_file>
AV-unprocessed.smi

> <i_m_source_file_index>
1897

> <i_lp_mmshare_version>
43012

> <i_f3d_flags>
0

> <s_epik_input>
W0NIM11jMW5uYyhzMSlbTkhdQyg9TylbTkhdW0NASF0oW0NIMl1bQ0gyXTIpW0NAQEhdKE4yMylbQ0gyXVtDSDJdW0NIMl1bQ0gyXTM=

> <s_epik_cmdline>
J2VwaWtfcHl0aG9uJywgJy1waCcsICc3LjAnLCAnLXRuJywgJzgnLCAnLW1hJywgJzIwMCcsICctbWV0YWxfYmluZGluZycsICctaW1hZScsICc8aW5maWxlLm1hZT4nLCAnLW9tYWUnLCAnPG91dGZpbGUubWFlPic=

> <r_lp_tautomer_probability>
1

> <r_epik_Ionization_Penalty>
3.77712

> <r_epik_Ionization_Penalty_Charging>
3.67739

> <r_epik_Ionization_Penalty_Neutral>
0.0997294

> <r_epik_State_Penalty>
3.67514

> <r_epik_Charging_Adjusted_Penalty>
7.35254

> <i_epik_Tot_Q>
0

> <i_epik_Tot_abs_Q>
2

> <r_epik_Metal_State_Penalty>
0.540795

> <b_epik_Metal_Only>
1

> <s_lp_Force_Field>
OPLS_2005

> <r_lp_Energy>
28.3617

> <b_lp_Chiralities_Consistent>
1

> <s_lp_Variant>
AV-unprocessed.smi:1897-11

> <Gold.Version>
5.8.1

> <Gold.Id.Protein>
6NUR|6NUR_protein|mol2

> <Gold.PLP.Fitness>
34.2820

> <Gold.PLP.PLP>
-29.1811

> <Gold.PLP.part.hbond>
-2.0000

> <Gold.PLP.part.metal>
0.0000

> <Gold.PLP.part.buried>
-2.3996

> <Gold.PLP.part.nonpolar>
-23.1838

> <Gold.PLP.part.repulsive>
0.0570

> <Gold.PLP.ligand.clash>
0.0000

> <Gold.PLP.ligand.torsion>
0.4544

> <Gold.PLP.Chemscore.Hbond>
2.0000

> <Gold.PLP.Chemscore.CHOScore>
0.0000

> <Gold.PLP.Chemscore.Metal>
0.0000

> <Gold.Chemscore.Hbonds>
donor molecule, donor type, donor heavy atom, donor atom, acceptor molecule, acceptor atom, score
      L1  H    13    38       P1 10747  1.00
      P1  H  6896  6908       L1     4  0.85

> <Gold.PLP.Chemscore.Internal.Correction>
0.0097

> <Gold.Rescore>
     Score         DG    S(hbond)    S(metal)    S(lipo)     H(rot)  DE(clash)    DE(int)     intcor
     13.63     -16.71       1.93        0.00      62.91       1.00       0.00       3.08       ----

> <Gold.Chemscore.Fitness>
13.6341

> <Gold.Chemscore.DG>
-16.7147

> <Gold.Chemscore.ZeroCoef>
-5.4800

> <Gold.Chemscore.Hbond>
1.9263

> <Gold.Chemscore.Metal>
0.0000

> <Gold.Chemscore.Lipo>
62.9144

> <Gold.Chemscore.Internal_Hbond>
0.0000

> <Gold.Chemscore.DEClash>
0.0000

> <Gold.Chemscore.DEInternal>
3.0806

> <Gold.Chemscore.Rot>
1.0000

> <Gold.Chemscore.Internal.Correction>
   9.000000E+99

> <Gold.Chemscore.Hbonds>
donor molecule, donor type, donor heavy atom, donor atom, acceptor molecule, acceptor atom, score
      L1  H    13    38       P1 10747  1.00
      P1  H  6896  6908       L1     4  0.15

> <Gold.Chemscore.Hbond.Weighted>
-6.4337

> <Gold.Chemscore.Metal.Weighted>
-0.0000

> <Gold.Chemscore.Lipo.Weighted>
-7.3610

> <Gold.Chemscore.Internal_Hbond.Weighted>
0.0000

> <Gold.Chemscore.DEClash.Weighted>
0.0000

> <Gold.Chemscore.DEInternal.Weighted>
3.0806

> <Gold.Chemscore.Rot.Weighted>
2.5600

> <Gold.Chemscore.Internal.Correction.Weighted>
   9.000000E+99

> <Gold.Protein.RotatedTorsions>
[ 6907 6896 6895 6894 ] final   45.33 input  -60.11 | X-H torsion
[ 7974 7965 7964 7962 ] final -175.62 input  175.53 | X-H torsion
[ 8008 7997 7996 7995 ] final   84.30 input   59.86 | X-H torsion
[ 10167 10162 10161 10158 ] final   29.40 input  -65.29 | X-H torsion
[ 10718 10713 10712 10709 ] final   -4.01 input   66.30 | X-H torsion
[ 10763 10752 10751 10750 ] final  -50.67 input  -60.55 | X-H torsion
[ 11005 11000 10999 10996 ] final -137.27 input  -57.11 | X-H torsion

> <Gold.Protein.ActiveResidues>
 VAL166  LYS551  ARG553  GLY616  TRP617  ASP618  TYR619  PRO620  LYS621  CYS622 
 ASP623  PHE694  ASN695  SER759  ASP760  ASP761  ALA762  ILE779  LEU786  VAL792 
 PHE793  MET794  SER795  GLU796  ALA797  LYS798  CYS799  TRP800  GLU811  SER814 

> <Gold.Protein.RotatedAtoms>
  152.2433  134.8207  160.0456 H   0  0  0  0  0  0  0  0  0  0  0  0  # atno 6907 bound_to 6896
  151.8914  133.3512  159.3807 H   0  0  0  0  0  0  0  0  0  0  0  0  # atno 6908 bound_to 6896
  150.7060  134.4846  159.5531 H   0  0  0  0  0  0  0  0  0  0  0  0  # atno 6909 bound_to 6896
  144.7128  140.1294  143.6400 H   0  0  0  0  0  0  0  0  0  0  0  0  # atno 7974 bound_to 7965
  155.9353  140.3412  155.6282 H   0  0  0  0  0  0  0  0  0  0  0  0  # atno 8008 bound_to 7997
  155.7107  140.0771  157.2391 H   0  0  0  0  0  0  0  0  0  0  0  0  # atno 8009 bound_to 7997
  154.4092  140.1623  156.2280 H   0  0  0  0  0  0  0  0  0  0  0  0  # atno 8010 bound_to 7997
  140.4769  144.0676  150.6253 H   0  0  0  0  0  0  0  0  0  0  0  0  # atno 10167 bound_to 10162
  156.7677  130.5290  149.5773 H   0  0  0  0  0  0  0  0  0  0  0  0  # atno 10718 bound_to 10713
  154.1141  135.6544  153.4890 H   0  0  0  0  0  0  0  0  0  0  0  0  # atno 10763 bound_to 10752
  153.0247  135.5254  154.7162 H   0  0  0  0  0  0  0  0  0  0  0  0  # atno 10764 bound_to 10752
  154.6351  135.2981  155.0140 H   0  0  0  0  0  0  0  0  0  0  0  0  # atno 10765 bound_to 10752
  140.8726  134.2031  157.4641 H   0  0  0  0  0  0  0  0  0  0  0  0  # atno 11005 bound_to 11000
  145.9300  139.2600  143.1330 LP  0  0  0  0  0  0  0  0  0  0  0  0  # atno 17320 bound_to 7965
  145.9532  140.8893  143.0248 LP  0  0  0  0  0  0  0  0  0  0  0  0  # atno 17321 bound_to 7965
  140.3907  143.2754  152.0063 LP  0  0  0  0  0  0  0  0  0  0  0  0  # atno 17342 bound_to 10162
  139.4827  144.6079  151.7487 LP  0  0  0  0  0  0  0  0  0  0  0  0  # atno 17343 bound_to 10162
  156.1298  130.6170  151.0317 LP  0  0  0  0  0  0  0  0  0  0  0  0  # atno 17370 bound_to 10713
  157.6705  131.0862  150.7623 LP  0  0  0  0  0  0  0  0  0  0  0  0  # atno 17371 bound_to 10713
  139.8713  134.9781  156.4985 LP  0  0  0  0  0  0  0  0  0  0  0  0  # atno 17394 bound_to 11000
  140.8555  133.8099  155.9212 LP  0  0  0  0  0  0  0  0  0  0  0  0  # atno 17395 bound_to 11000

$$$$
