AV-unprocessed.smi:2061|AV-procd|sdf|8360|dock3
  -GOLD-   2272011 33D 1   1.00000     0.00000
 Structure written by MMmdl.
 45 46  0  0  0  0  0  0  0  0  1 V2000
  144.0345  132.5893  149.1492 C   0  0  0  0  0  0  0  0  0  0  0  0
  144.9626  132.7553  150.3032 C   0  0  0  0  0  0  0  0  0  0  0  0
  145.8667  133.7236  150.6395 C   0  0  0  0  0  0  0  0  0  0  0  0
  146.4045  133.2475  151.8650 C   0  0  0  0  0  0  0  0  0  0  0  0
  147.4005  133.9825  152.5578 N   0  0  0  0  0  0  0  0  0  0  0  0
  147.6981  133.9250  153.8673 C   0  0  0  0  0  0  0  0  0  0  0  0
  147.1356  133.2007  154.6889 O   0  0  0  0  0  0  0  0  0  0  0  0
  148.7014  134.7609  154.1756 N   0  0  0  0  0  0  0  0  0  0  0  0
  149.2747  134.9446  155.5077 C   0  0  0  0  0  0  0  0  0  0  0  0
  149.1607  136.4068  156.0253 C   0  0  2  0  0  0  0  0  0  0  0  0
  147.6680  136.7431  156.2742 C   0  0  0  0  0  0  0  0  0  0  0  0
  149.8300  137.3891  155.1396 N   0  0  0  0  0  0  0  0  0  0  0  0
  151.2861  137.4161  155.3175 C   0  0  0  0  0  0  0  0  0  0  0  0
  151.9843  138.4502  154.4130 C   0  0  2  0  0  0  0  0  0  0  0  0
  153.4925  138.5235  154.6739 C   0  0  0  0  0  0  0  0  0  0  0  0
  151.4290  139.7363  154.6564 O   0  0  0  0  0  0  0  0  0  0  0  0
  150.0286  139.7809  154.4159 C   0  0  2  0  0  0  0  0  0  0  0  0
  149.5419  141.2115  154.6708 C   0  0  0  0  0  0  0  0  0  0  0  0
  149.3282  138.7549  155.3266 C   0  0  0  0  0  0  0  0  0  0  0  0
  145.8757  132.0937  152.2427 N   0  0  0  0  0  0  0  0  0  0  0  0
  144.9491  131.7725  151.2440 O   0  0  0  0  0  0  0  0  0  0  0  0
  144.1520  133.4034  148.4339 H   0  0  0  0  0  0  0  0  0  0  0  0
  142.9977  132.5819  149.4855 H   0  0  0  0  0  0  0  0  0  0  0  0
  144.2285  131.6512  148.6289 H   0  0  0  0  0  0  0  0  0  0  0  0
  146.1036  134.6251  150.0943 H   0  0  0  0  0  0  0  0  0  0  0  0
  147.9450  134.6190  151.9954 H   0  0  0  0  0  0  0  0  0  0  0  0
  149.1025  135.3142  153.4328 H   0  0  0  0  0  0  0  0  0  0  0  0
  148.7167  134.2577  156.1413 H   0  0  0  0  0  0  0  0  0  0  0  0
  150.3155  134.6186  155.5454 H   0  0  0  0  0  0  0  0  0  0  0  0
  149.6574  136.4390  156.9964 H   0  0  0  0  0  0  0  0  0  0  0  0
  147.1747  136.0041  156.9040 H   0  0  0  0  0  0  0  0  0  0  0  0
  147.1145  136.7967  155.3362 H   0  0  0  0  0  0  0  0  0  0  0  0
  147.5360  137.6878  156.7995 H   0  0  0  0  0  0  0  0  0  0  0  0
  151.5252  137.6242  156.3617 H   0  0  0  0  0  0  0  0  0  0  0  0
  151.7194  136.4469  155.0795 H   0  0  0  0  0  0  0  0  0  0  0  0
  151.8236  138.1864  153.3662 H   0  0  0  0  0  0  0  0  0  0  0  0
  153.9706  137.5618  154.4858 H   0  0  0  0  0  0  0  0  0  0  0  0
  153.7014  138.8056  155.7063 H   0  0  0  0  0  0  0  0  0  0  0  0
  153.9643  139.2613  154.0246 H   0  0  0  0  0  0  0  0  0  0  0  0
  149.8396  139.5303  153.3705 H   0  0  0  0  0  0  0  0  0  0  0  0
  148.4708  141.2998  154.4868 H   0  0  0  0  0  0  0  0  0  0  0  0
  150.0502  141.9185  154.0149 H   0  0  0  0  0  0  0  0  0  0  0  0
  149.7314  141.5162  155.7002 H   0  0  0  0  0  0  0  0  0  0  0  0
  148.2650  138.8059  155.1006 H   0  0  0  0  0  0  0  0  0  0  0  0
  149.4460  139.0509  156.3703 H   0  0  0  0  0  0  0  0  0  0  0  0
  1  2  1  0  0  0  0
  1 22  1  0  0  0  0
  1 23  1  0  0  0  0
  1 24  1  0  0  0  0
  2 21  1  0  0  0  0
  2  3  2  0  0  0  0
  3  4  1  0  0  0  0
  3 25  1  0  0  0  0
  4  5  1  0  0  0  0
  4 20  2  0  0  0  0
  5  6  1  0  0  0  0
  5 26  1  0  0  0  0
  6  7  2  0  0  0  0
  6  8  1  0  0  0  0
  8  9  1  0  0  0  0
  8 27  1  0  0  0  0
  9 10  1  0  0  0  0
  9 28  1  0  0  0  0
  9 29  1  0  0  0  0
 10 11  1  0  0  0  0
 10 12  1  0  0  0  0
 10 30  1  0  0  0  0
 11 31  1  0  0  0  0
 11 32  1  0  0  0  0
 11 33  1  0  0  0  0
 12 19  1  0  0  0  0
 12 13  1  0  0  0  0
 13 14  1  0  0  0  0
 13 34  1  0  0  0  0
 13 35  1  0  0  0  0
 14 15  1  0  0  0  0
 14 16  1  0  0  0  0
 14 36  1  0  0  0  0
 15 37  1  0  0  0  0
 15 38  1  0  0  0  0
 15 39  1  0  0  0  0
 16 17  1  0  0  0  0
 17 18  1  0  0  0  0
 17 19  1  0  0  0  0
 17 40  1  0  0  0  0
 18 41  1  0  0  0  0
 18 42  1  0  0  0  0
 18 43  1  0  0  0  0
 19 44  1  0  0  0  0
 19 45  1  0  0  0  0
 20 21  1  0  0  0  0
M  END
> <s_m_source_file>
AV-unprocessed.smi

> <i_m_source_file_index>
2061

> <i_lp_mmshare_version>
43012

> <i_f3d_flags>
0

> <s_epik_input>
W0NIM11jMVtjSF1jKG5vMSlbTkhdQyg9TylbTkhdW0NIMl1bQ0BIXShbQ0gzXSlOMltDSDJdW0NAQEhdKFtDSDNdKU9bQ0BASF0oW0NIM10pW0NIMl0y

> <s_epik_cmdline>
J2VwaWtfcHl0aG9uJywgJy1waCcsICc3LjAnLCAnLXRuJywgJzgnLCAnLW1hJywgJzIwMCcsICctbWV0YWxfYmluZGluZycsICctaW1hZScsICc8aW5maWxlLm1hZT4nLCAnLW9tYWUnLCAnPG91dGZpbGUubWFlPic=

> <r_epik_Ionization_Penalty>
0.214073

> <r_epik_Ionization_Penalty_Charging>
0

> <r_epik_Ionization_Penalty_Neutral>
0.214073

> <r_epik_State_Penalty>
0.204211

> <r_epik_Charging_Adjusted_Penalty>
0.204211

> <i_epik_Tot_Q>
0

> <i_epik_Tot_abs_Q>
0

> <r_epik_Metal_State_Penalty>
0.217067

> <b_epik_Metal_Only>
0

> <s_lp_Force_Field>
OPLS_2005

> <r_lp_Energy>
26.137

> <b_lp_Chiralities_Consistent>
1

> <s_lp_Variant>
AV-unprocessed.smi:2061-1

> <Gold.Version>
5.8.1

> <Gold.Id.Protein>
6NUR|6NUR_protein|mol2

> <Gold.PLP.Fitness>
40.9333

> <Gold.PLP.PLP>
-33.0070

> <Gold.PLP.part.hbond>
-3.0000

> <Gold.PLP.part.metal>
0.0000

> <Gold.PLP.part.buried>
-7.1307

> <Gold.PLP.part.nonpolar>
-23.6667

> <Gold.PLP.part.repulsive>
0.4982

> <Gold.PLP.ligand.clash>
0.0000

> <Gold.PLP.ligand.torsion>
0.5820

> <Gold.PLP.Chemscore.Hbond>
3.0000

> <Gold.PLP.Chemscore.CHOScore>
0.0000

> <Gold.PLP.Chemscore.Metal>
0.0000

> <Gold.Chemscore.Hbonds>
donor molecule, donor type, donor heavy atom, donor atom, acceptor molecule, acceptor atom, score
      L1  H     5    26       P1  7948  1.00
      L1  H     8    27       P1  7948  1.00
      P1  H  7989  7998       L1    16  0.50

> <Gold.PLP.Chemscore.Internal.Correction>
0.0903

> <Gold.Rescore>
     Score         DG    S(hbond)    S(metal)    S(lipo)     H(rot)  DE(clash)    DE(int)     intcor
     14.46     -16.33       1.73        0.00      77.26       1.55       0.14       1.74       ----

> <Gold.Chemscore.Fitness>
14.4573

> <Gold.Chemscore.DG>
-16.3342

> <Gold.Chemscore.ZeroCoef>
-5.4800

> <Gold.Chemscore.Hbond>
1.7294

> <Gold.Chemscore.Metal>
0.0000

> <Gold.Chemscore.Lipo>
77.2594

> <Gold.Chemscore.Internal_Hbond>
0.0000

> <Gold.Chemscore.DEClash>
0.1395

> <Gold.Chemscore.DEInternal>
1.7374

> <Gold.Chemscore.Rot>
1.5474

> <Gold.Chemscore.Internal.Correction>
   9.000000E+99

> <Gold.Chemscore.Hbonds>
donor molecule, donor type, donor heavy atom, donor atom, acceptor molecule, acceptor atom, score
      L1  H     5    26       P1  7948  0.24
      L1  H     8    27       P1  7948  0.38
      P1  H  7989  7998       L1    16  0.02

> <Gold.Chemscore.Hbond.Weighted>
-5.7761

> <Gold.Chemscore.Metal.Weighted>
-0.0000

> <Gold.Chemscore.Lipo.Weighted>
-9.0394

> <Gold.Chemscore.Internal_Hbond.Weighted>
0.0000

> <Gold.Chemscore.DEClash.Weighted>
0.1395

> <Gold.Chemscore.DEInternal.Weighted>
1.7374

> <Gold.Chemscore.Rot.Weighted>
3.9612

> <Gold.Chemscore.Internal.Correction.Weighted>
   9.000000E+99

> <Gold.Protein.RotatedTorsions>
[ 6907 6896 6895 6894 ] final   52.50 input  -60.11 | X-H torsion
[ 7974 7965 7964 7962 ] final  100.70 input  175.53 | X-H torsion
[ 8008 7997 7996 7995 ] final   40.50 input   59.86 | X-H torsion
[ 10167 10162 10161 10158 ] final  -88.22 input  -65.29 | X-H torsion
[ 10718 10713 10712 10709 ] final  113.85 input   66.30 | X-H torsion
[ 10763 10752 10751 10750 ] final -171.52 input  -60.55 | X-H torsion
[ 11005 11000 10999 10996 ] final -169.03 input  -57.11 | X-H torsion

> <Gold.Protein.ActiveResidues>
 VAL166  LYS551  ARG553  GLY616  TRP617  ASP618  TYR619  PRO620  LYS621  CYS622 
 ASP623  PHE694  ASN695  SER759  ASP760  ASP761  ALA762  ILE779  LEU786  VAL792 
 PHE793  MET794  SER795  GLU796  ALA797  LYS798  CYS799  TRP800  GLU811  SER814 

> <Gold.Protein.RotatedAtoms>
  152.3239  134.7345  160.0306 H   0  0  0  0  0  0  0  0  0  0  0  0  # atno 6907 bound_to 6896
  151.7784  133.3342  159.3472 H   0  0  0  0  0  0  0  0  0  0  0  0  # atno 6908 bound_to 6896
  150.7385  134.5885  159.6020 H   0  0  0  0  0  0  0  0  0  0  0  0  # atno 6909 bound_to 6896
  145.3821  139.2378  143.3397 H   0  0  0  0  0  0  0  0  0  0  0  0  # atno 7974 bound_to 7965
  155.2542  140.3354  155.4279 H   0  0  0  0  0  0  0  0  0  0  0  0  # atno 8008 bound_to 7997
  156.2203  140.1806  156.7537 H   0  0  0  0  0  0  0  0  0  0  0  0  # atno 8009 bound_to 7997
  154.5814  140.0653  156.9095 H   0  0  0  0  0  0  0  0  0  0  0  0  # atno 8010 bound_to 7997
  140.3768  143.2767  151.9432 H   0  0  0  0  0  0  0  0  0  0  0  0  # atno 10167 bound_to 10162
  157.6315  131.0990  150.7101 H   0  0  0  0  0  0  0  0  0  0  0  0  # atno 10718 bound_to 10713
  154.6295  135.2885  155.0233 H   0  0  0  0  0  0  0  0  0  0  0  0  # atno 10763 bound_to 10752
  154.1398  135.6520  153.4943 H   0  0  0  0  0  0  0  0  0  0  0  0  # atno 10764 bound_to 10752
  153.0273  135.5330  154.7117 H   0  0  0  0  0  0  0  0  0  0  0  0  # atno 10765 bound_to 10752
  140.5353  134.5576  157.5085 H   0  0  0  0  0  0  0  0  0  0  0  0  # atno 11005 bound_to 11000
  146.2837  140.4491  142.8766 LP  0  0  0  0  0  0  0  0  0  0  0  0  # atno 17320 bound_to 7965
  144.8500  140.6986  143.6174 LP  0  0  0  0  0  0  0  0  0  0  0  0  # atno 17321 bound_to 7965
  139.4798  144.5855  151.7860 LP  0  0  0  0  0  0  0  0  0  0  0  0  # atno 17342 bound_to 10162
  140.4977  144.1215  150.5964 LP  0  0  0  0  0  0  0  0  0  0  0  0  # atno 17343 bound_to 10162
  156.7440  130.4748  149.5471 LP  0  0  0  0  0  0  0  0  0  0  0  0  # atno 17370 bound_to 10713
  156.1521  130.6317  151.0609 LP  0  0  0  0  0  0  0  0  0  0  0  0  # atno 17371 bound_to 10713
  139.9532  134.7580  156.0400 LP  0  0  0  0  0  0  0  0  0  0  0  0  # atno 17394 bound_to 11000
  141.1258  133.6599  156.3333 LP  0  0  0  0  0  0  0  0  0  0  0  0  # atno 17395 bound_to 11000

$$$$
