AV-unprocessed.smi:3228|AV-procd|sdf|12325|dock2
  -GOLD-   2272018173D 1   1.00000     0.00000
 Structure written by MMmdl.
 30 31  0  0  0  0  0  0  0  0  2 V2000
  150.7178  140.8735  157.8066 O   0  0  0  0  0  0  0  0  0  0  0  0
  151.9114  140.5848  157.6922 C   0  0  0  0  0  0  0  0  0  0  0  0
  152.7695  140.8855  158.6775 N   0  0  0  0  0  0  0  0  0  0  0  0
  152.4355  141.5669  159.9245 C   0  0  0  0  0  0  0  0  0  0  0  0
  152.6538  143.0920  159.8245 C   0  0  2  0  0  0  0  0  0  0  0  0
  152.0031  143.9188  160.9399 C   0  0  0  0  0  0  0  0  0  0  0  0
  151.9006  145.3467  160.3840 C   0  0  0  0  0  0  0  0  0  0  0  0
  152.1470  145.2465  158.8692 C   0  0  0  0  0  0  0  0  0  0  0  0
  152.1483  143.7503  158.5329 C   0  0  2  0  0  0  0  0  0  0  0  0
  150.8261  143.3469  158.2260 O   0  0  0  0  0  0  0  0  0  0  0  0
  152.4903  139.9739  156.6334 N   0  5  0  0  0  0  0  0  0  0  0  0
  151.7447  139.2386  155.7925 C   0  0  0  0  0  0  0  0  0  0  0  0
  150.9306  139.7769  154.8772 N   0  0  0  0  0  0  0  0  0  0  0  0
  150.2476  138.8274  154.1149 C   0  0  0  0  0  0  0  0  0  0  0  0
  150.5411  137.5359  154.4646 C   0  0  0  0  0  0  0  0  0  0  0  0
  151.6917  137.4734  155.7690 S   0  0  0  0  0  0  0  0  0  0  0  0
  153.7368  140.6306  158.5419 H   0  0  0  0  0  0  0  0  0  0  0  0
  151.4033  141.3487  160.2024 H   0  0  0  0  0  0  0  0  0  0  0  0
  153.0621  141.1417  160.7084 H   0  0  0  0  0  0  0  0  0  0  0  0
  153.7278  143.2813  159.8694 H   0  0  0  0  0  0  0  0  0  0  0  0
  151.0026  143.5373  161.1490 H   0  0  0  0  0  0  0  0  0  0  0  0
  152.5706  143.8757  161.8701 H   0  0  0  0  0  0  0  0  0  0  0  0
  150.9191  145.7707  160.5983 H   0  0  0  0  0  0  0  0  0  0  0  0
  152.6440  145.9979  160.8452 H   0  0  0  0  0  0  0  0  0  0  0  0
  151.4184  145.8130  158.2875 H   0  0  0  0  0  0  0  0  0  0  0  0
  153.1291  145.6638  158.6429 H   0  0  0  0  0  0  0  0  0  0  0  0
  152.7918  143.5249  157.6817 H   0  0  0  0  0  0  0  0  0  0  0  0
  150.6483  143.5678  157.3245 H   0  0  0  0  0  0  0  0  0  0  0  0
  149.5688  139.1610  153.3443 H   0  0  0  0  0  0  0  0  0  0  0  0
  150.1526  136.6230  154.0390 H   0  0  0  0  0  0  0  0  0  0  0  0
  1  2  2  0  0  0  0
  2  3  1  0  0  0  0
  2 11  1  0  0  0  0
  3  4  1  0  0  0  0
  3 17  1  0  0  0  0
  4  5  1  0  0  0  0
  4 18  1  0  0  0  0
  4 19  1  0  0  0  0
  5  9  1  0  0  0  0
  5  6  1  0  0  0  0
  5 20  1  0  0  0  0
  6  7  1  0  0  0  0
  6 21  1  0  0  0  0
  6 22  1  0  0  0  0
  7  8  1  0  0  0  0
  7 23  1  0  0  0  0
  7 24  1  0  0  0  0
  8  9  1  0  0  0  0
  8 25  1  0  0  0  0
  8 26  1  0  0  0  0
  9 10  1  0  0  0  0
  9 27  1  0  0  0  0
 10 28  1  0  0  0  0
 11 12  1  0  0  0  0
 12 16  1  0  0  0  0
 12 13  2  0  0  0  0
 13 14  1  0  0  0  0
 14 15  2  0  0  0  0
 14 29  1  0  0  0  0
 15 16  1  0  0  0  0
 15 30  1  0  0  0  0
M  CHG  1  11  -1
M  END
> <s_m_source_file>
AV-unprocessed.smi

> <i_m_source_file_index>
3228

> <i_lp_mmshare_version>
43012

> <i_f3d_flags>
0

> <s_epik_input>
czFbY0hdW2NIXW5jMVtOSF1DKD1PKVtOSF1bQ0gyXVtDQEBIXTJbQ0gyXVtDSDJdW0NIMl1bQ0BIXTJbT0hd

> <s_epik_cmdline>
J2VwaWtfcHl0aG9uJywgJy1waCcsICc3LjAnLCAnLXRuJywgJzgnLCAnLW1hJywgJzIwMCcsICctbWV0YWxfYmluZGluZycsICctaW1hZScsICc8aW5maWxlLm1hZT4nLCAnLW9tYWUnLCAnPG91dGZpbGUubWFlPic=

> <r_lp_tautomer_probability>
0.999

> <r_epik_Ionization_Penalty>
8.49756

> <r_epik_Ionization_Penalty_Charging>
6.79645

> <r_epik_Ionization_Penalty_Neutral>
1.70111

> <r_epik_State_Penalty>
6.79662

> <r_epik_Charging_Adjusted_Penalty>
13.5931

> <i_epik_Tot_Q>
-1

> <i_epik_Tot_abs_Q>
1

> <r_epik_Metal_State_Penalty>
2.71629

> <b_epik_Metal_Only>
1

> <s_lp_Force_Field>
OPLS_2005

> <r_lp_Energy>
19.9343

> <b_lp_Chiralities_Consistent>
1

> <s_lp_Variant>
AV-unprocessed.smi:3228-7

> <Gold.Version>
5.8.1

> <Gold.Id.Protein>
6NUR|6NUR_protein|mol2

> <Gold.PLP.Fitness>
50.6241

> <Gold.PLP.PLP>
-37.7466

> <Gold.PLP.part.hbond>
-2.0000

> <Gold.PLP.part.metal>
0.0000

> <Gold.PLP.part.buried>
-4.0866

> <Gold.PLP.part.nonpolar>
-31.9965

> <Gold.PLP.part.repulsive>
0.1622

> <Gold.PLP.ligand.clash>
0.0000

> <Gold.PLP.ligand.torsion>
1.1110

> <Gold.PLP.Chemscore.Hbond>
3.0000

> <Gold.PLP.Chemscore.CHOScore>
2.0189

> <Gold.PLP.Chemscore.Metal>
0.0000

> <Gold.Chemscore.Hbonds>
donor molecule, donor type, donor heavy atom, donor atom, acceptor molecule, acceptor atom, score
      P1  H  7989  7998       L1    13  1.00
      P1  H  7997  8010       L1    11  2.00
      L1  C    14    29       P1  7957  1.00
      L1  C    15    30       P1  7948  0.96
      L1  C    15    30       P1  7949  0.04

> <Gold.PLP.Chemscore.Internal.Correction>
0.0427

> <Gold.Rescore>
     Score         DG    S(hbond)    S(metal)    S(lipo)     H(rot)  DE(clash)    DE(int)     intcor
     17.97     -19.58       2.50        0.00      89.45       1.85       0.52       1.09       ----

> <Gold.Chemscore.Fitness>
17.9654

> <Gold.Chemscore.DG>
-19.5770

> <Gold.Chemscore.ZeroCoef>
-5.4800

> <Gold.Chemscore.Hbond>
2.5039

> <Gold.Chemscore.Metal>
0.0000

> <Gold.Chemscore.Lipo>
89.4458

> <Gold.Chemscore.Internal_Hbond>
0.0000

> <Gold.Chemscore.DEClash>
0.5176

> <Gold.Chemscore.DEInternal>
1.0940

> <Gold.Chemscore.Rot>
1.8481

> <Gold.Chemscore.Internal.Correction>
   9.000000E+99

> <Gold.Chemscore.Hbonds>
donor molecule, donor type, donor heavy atom, donor atom, acceptor molecule, acceptor atom, score
      P1  H  7989  7998       L1    13  0.25
      P1  H  7997  8010       L1    11  0.83

> <Gold.Chemscore.Hbond.Weighted>
-8.3631

> <Gold.Chemscore.Metal.Weighted>
-0.0000

> <Gold.Chemscore.Lipo.Weighted>
-10.4652

> <Gold.Chemscore.Internal_Hbond.Weighted>
0.0000

> <Gold.Chemscore.DEClash.Weighted>
0.5176

> <Gold.Chemscore.DEInternal.Weighted>
1.0940

> <Gold.Chemscore.Rot.Weighted>
4.7313

> <Gold.Chemscore.Internal.Correction.Weighted>
   9.000000E+99

> <Gold.Protein.RotatedTorsions>
[ 6907 6896 6895 6894 ] final   14.61 input  -60.11 | X-H torsion
[ 7974 7965 7964 7962 ] final  -79.10 input  175.53 | X-H torsion
[ 8008 7997 7996 7995 ] final   59.33 input   59.86 | X-H torsion
[ 10167 10162 10161 10158 ] final  166.05 input  -65.29 | X-H torsion
[ 10718 10713 10712 10709 ] final  -74.36 input   66.30 | X-H torsion
[ 10763 10752 10751 10750 ] final  147.74 input  -60.55 | X-H torsion
[ 11005 11000 10999 10996 ] final -124.79 input  -57.11 | X-H torsion

> <Gold.Protein.ActiveResidues>
 VAL166  LYS551  ARG553  GLY616  TRP617  ASP618  TYR619  PRO620  LYS621  CYS622 
 ASP623  PHE694  ASN695  SER759  ASP760  ASP761  ALA762  ILE779  LEU786  VAL792 
 PHE793  MET794  SER795  GLU796  ALA797  LYS798  CYS799  TRP800  GLU811  SER814 

> <Gold.Protein.RotatedAtoms>
  151.8050  135.0697  160.0405 H   0  0  0  0  0  0  0  0  0  0  0  0  # atno 6907 bound_to 6896
  152.3061  133.5700  159.5659 H   0  0  0  0  0  0  0  0  0  0  0  0  # atno 6908 bound_to 6896
  150.7297  134.0136  159.3720 H   0  0  0  0  0  0  0  0  0  0  0  0  # atno 6909 bound_to 6896
  145.5777  140.9454  143.1361 H   0  0  0  0  0  0  0  0  0  0  0  0  # atno 7974 bound_to 7965
  155.5644  140.3489  155.4499 H   0  0  0  0  0  0  0  0  0  0  0  0  # atno 8008 bound_to 7997
  156.0490  140.1313  157.0097 H   0  0  0  0  0  0  0  0  0  0  0  0  # atno 8009 bound_to 7997
  154.4426  140.1008  156.6334 H   0  0  0  0  0  0  0  0  0  0  0  0  # atno 8010 bound_to 7997
  139.4917  144.4068  151.9346 H   0  0  0  0  0  0  0  0  0  0  0  0  # atno 10167 bound_to 10162
  156.0245  130.4415  150.2881 H   0  0  0  0  0  0  0  0  0  0  0  0  # atno 10718 bound_to 10713
  154.0434  135.2887  155.3351 H   0  0  0  0  0  0  0  0  0  0  0  0  # atno 10763 bound_to 10752
  154.6915  135.5224  153.8402 H   0  0  0  0  0  0  0  0  0  0  0  0  # atno 10764 bound_to 10752
  153.0590  135.6606  154.0636 H   0  0  0  0  0  0  0  0  0  0  0  0  # atno 10765 bound_to 10752
  140.9813  134.0669  157.3761 H   0  0  0  0  0  0  0  0  0  0  0  0  # atno 11005 bound_to 11000
  144.7408  139.7454  143.7311 LP  0  0  0  0  0  0  0  0  0  0  0  0  # atno 17320 bound_to 7965
  146.1739  139.4901  142.9910 LP  0  0  0  0  0  0  0  0  0  0  0  0  # atno 17321 bound_to 7965
  140.3508  144.3091  150.5949 LP  0  0  0  0  0  0  0  0  0  0  0  0  # atno 17342 bound_to 10162
  140.5486  143.2210  151.7964 LP  0  0  0  0  0  0  0  0  0  0  0  0  # atno 17343 bound_to 10162
  157.0984  131.0189  151.3095 LP  0  0  0  0  0  0  0  0  0  0  0  0  # atno 17370 bound_to 10713
  157.4799  130.7759  149.7404 LP  0  0  0  0  0  0  0  0  0  0  0  0  # atno 17371 bound_to 10713
  139.8951  135.0139  156.6987 LP  0  0  0  0  0  0  0  0  0  0  0  0  # atno 17394 bound_to 11000
  140.7182  133.9164  155.8129 LP  0  0  0  0  0  0  0  0  0  0  0  0  # atno 17395 bound_to 11000

$$$$
