AV-unprocessed.smi:787|AV-procd|sdf|3729|dock2
  -GOLD-   22720 1163D 1   1.00000     0.00000
 Structure written by MMmdl.
 46 48  0  0  0  0  0  0  0  0  1 V2000
  149.4161  136.0030  155.6902 C   0  0  0  0  0  0  0  0  0  0  0  0
  148.8646  137.1461  154.9800 N   0  0  0  0  0  0  0  0  0  0  0  0
  149.5293  138.3804  154.9978 C   0  0  0  0  0  0  0  0  0  0  0  0
  150.7883  138.4642  155.4877 N   0  0  0  0  0  0  0  0  0  0  0  0
  151.3781  139.6668  155.4955 C   0  0  0  0  0  0  0  0  0  0  0  0
  150.8964  140.8483  155.0788 N   0  0  0  0  0  0  0  0  0  0  0  0
  149.6524  140.7745  154.5862 C   0  0  0  0  0  0  0  0  0  0  0  0
  148.9122  141.8314  154.0844 N   0  0  0  0  0  0  0  0  0  0  0  0
  147.7797  141.2265  153.7343 C   0  0  0  0  0  0  0  0  0  0  0  0
  147.6890  139.9004  153.9560 N   0  0  0  0  0  0  0  0  0  0  0  0
  146.5559  139.0415  153.6619 C   0  0  0  0  0  0  0  0  0  0  0  0
  146.7963  138.1745  152.4122 C   0  0  2  0  0  0  0  0  0  0  0  0
  147.1600  139.0385  151.3551 O   0  0  0  0  0  0  0  0  0  0  0  0
  145.5396  137.3860  151.9813 C   0  0  0  0  0  0  0  0  0  0  0  0
  145.0184  136.4291  152.9653 N   0  0  0  0  0  0  0  0  0  0  0  0
  146.1015  135.5890  153.4616 C   0  0  0  0  0  0  0  0  0  0  0  0
  143.9617  135.5657  152.4243 C   0  0  0  0  0  0  0  0  0  0  0  0
  144.4303  134.3357  151.6688 C   0  0  0  0  0  0  0  0  0  0  0  0
  145.4754  134.4353  150.7257 C   0  0  0  0  0  0  0  0  0  0  0  0
  145.8969  133.2952  150.0142 C   0  0  0  0  0  0  0  0  0  0  0  0
  145.2655  132.0554  150.2323 C   0  0  0  0  0  0  0  0  0  0  0  0
  144.2148  131.9556  151.1643 C   0  0  0  0  0  0  0  0  0  0  0  0
  143.8015  133.0917  151.8859 C   0  0  0  0  0  0  0  0  0  0  0  0
  148.9148  139.5547  154.5193 C   0  0  0  0  0  0  0  0  0  0  0  0
  148.7588  135.1414  155.5741 H   0  0  0  0  0  0  0  0  0  0  0  0
  149.5113  136.2183  156.7548 H   0  0  0  0  0  0  0  0  0  0  0  0
  150.3979  135.7381  155.2964 H   0  0  0  0  0  0  0  0  0  0  0  0
  147.9223  137.0896  154.6205 H   0  0  0  0  0  0  0  0  0  0  0  0
  152.3796  139.6900  155.8983 H   0  0  0  0  0  0  0  0  0  0  0  0
  146.9638  141.7819  153.2950 H   0  0  0  0  0  0  0  0  0  0  0  0
  146.3476  138.4166  154.5316 H   0  0  0  0  0  0  0  0  0  0  0  0
  145.6802  139.6771  153.5266 H   0  0  0  0  0  0  0  0  0  0  0  0
  147.6420  137.5190  152.6031 H   0  0  0  0  0  0  0  0  0  0  0  0
  148.0705  139.2705  151.4551 H   0  0  0  0  0  0  0  0  0  0  0  0
  144.7412  138.0757  151.7069 H   0  0  0  0  0  0  0  0  0  0  0  0
  145.7893  136.8681  151.0538 H   0  0  0  0  0  0  0  0  0  0  0  0
  145.7388  134.8943  154.2199 H   0  0  0  0  0  0  0  0  0  0  0  0
  146.8821  136.1944  153.9238 H   0  0  0  0  0  0  0  0  0  0  0  0
  146.5529  135.0090  152.6553 H   0  0  0  0  0  0  0  0  0  0  0  0
  143.2831  135.2631  153.2233 H   0  0  0  0  0  0  0  0  0  0  0  0
  143.3548  136.1379  151.7214 H   0  0  0  0  0  0  0  0  0  0  0  0
  145.9588  135.3856  150.5516 H   0  0  0  0  0  0  0  0  0  0  0  0
  146.7020  133.3725  149.2984 H   0  0  0  0  0  0  0  0  0  0  0  0
  145.5879  131.1810  149.6864 H   0  0  0  0  0  0  0  0  0  0  0  0
  143.7312  131.0047  151.3324 H   0  0  0  0  0  0  0  0  0  0  0  0
  142.9989  133.0042  152.6036 H   0  0  0  0  0  0  0  0  0  0  0  0
  1  2  1  0  0  0  0
  1 25  1  0  0  0  0
  1 26  1  0  0  0  0
  1 27  1  0  0  0  0
  2  3  1  0  0  0  0
  2 28  1  0  0  0  0
  3 24  1  0  0  0  0
  3  4  2  0  0  0  0
  4  5  1  0  0  0  0
  5  6  2  0  0  0  0
  5 29  1  0  0  0  0
  6  7  1  0  0  0  0
  7 24  2  0  0  0  0
  7  8  1  0  0  0  0
  8  9  2  0  0  0  0
  9 10  1  0  0  0  0
  9 30  1  0  0  0  0
 10 11  1  0  0  0  0
 10 24  1  0  0  0  0
 11 12  1  0  0  0  0
 11 31  1  0  0  0  0
 11 32  1  0  0  0  0
 12 13  1  0  0  0  0
 12 14  1  0  0  0  0
 12 33  1  0  0  0  0
 13 34  1  0  0  0  0
 14 15  1  0  0  0  0
 14 35  1  0  0  0  0
 14 36  1  0  0  0  0
 15 16  1  0  0  0  0
 15 17  1  0  0  0  0
 16 37  1  0  0  0  0
 16 38  1  0  0  0  0
 16 39  1  0  0  0  0
 17 18  1  0  0  0  0
 17 40  1  0  0  0  0
 17 41  1  0  0  0  0
 18 23  1  0  0  0  0
 18 19  2  0  0  0  0
 19 20  1  0  0  0  0
 19 42  1  0  0  0  0
 20 21  2  0  0  0  0
 20 43  1  0  0  0  0
 21 22  1  0  0  0  0
 21 44  1  0  0  0  0
 22 23  2  0  0  0  0
 22 45  1  0  0  0  0
 23 46  1  0  0  0  0
M  END
> <s_m_source_file>
AV-unprocessed.smi

> <i_m_source_file_index>
787

> <i_lp_mmshare_version>
43012

> <i_f3d_flags>
0

> <s_epik_input>
bjFbY0hdbmMoW05IXVtDSDNdKWMoYzEyKW4oW2NIXW4yKVtDSDJdW0NASF0oW09IXSlbQ0gyXU4oW0NIM10pW0NIMl1jM1tjSF1bY0hdW2NIXVtjSF1bY0hdMw==

> <s_epik_cmdline>
J2VwaWtfcHl0aG9uJywgJy1waCcsICc3LjAnLCAnLXRuJywgJzgnLCAnLW1hJywgJzIwMCcsICctbWV0YWxfYmluZGluZycsICctaW1hZScsICc8aW5maWxlLm1hZT4nLCAnLW9tYWUnLCAnPG91dGZpbGUubWFlPic=

> <r_lp_tautomer_probability>
0.999987

> <r_epik_Ionization_Penalty>
1.52367

> <r_epik_Ionization_Penalty_Charging>
0

> <r_epik_Ionization_Penalty_Neutral>
1.52367

> <r_epik_State_Penalty>
1.60995

> <r_epik_Charging_Adjusted_Penalty>
1.60995

> <i_epik_Tot_Q>
0

> <i_epik_Tot_abs_Q>
0

> <r_epik_Metal_State_Penalty>
1.60969

> <b_epik_Metal_Only>
0

> <s_lp_Force_Field>
OPLS_2005

> <r_lp_Energy>
20.724

> <b_lp_Chiralities_Consistent>
1

> <s_lp_Variant>
AV-unprocessed.smi:787-5

> <Gold.Version>
5.8.1

> <Gold.Id.Protein>
6NUR|6NUR_protein|mol2

> <Gold.PLP.Fitness>
45.8064

> <Gold.PLP.PLP>
-38.9532

> <Gold.PLP.part.hbond>
-4.8349

> <Gold.PLP.part.metal>
0.0000

> <Gold.PLP.part.buried>
4.0175

> <Gold.PLP.part.nonpolar>
-37.1711

> <Gold.PLP.part.repulsive>
0.5183

> <Gold.PLP.ligand.clash>
0.0000

> <Gold.PLP.ligand.torsion>
0.7338

> <Gold.PLP.Chemscore.Hbond>
2.6185

> <Gold.PLP.Chemscore.CHOScore>
0.0000

> <Gold.PLP.Chemscore.Metal>
0.0000

> <Gold.Chemscore.Hbonds>
donor molecule, donor type, donor heavy atom, donor atom, acceptor molecule, acceptor atom, score
      L1  H    13    34       P1  7957  1.00
      P1  H  7989  7998       L1     6  0.53
      P1  H  8011  8017       L1     8  0.48

> <Gold.PLP.Chemscore.Internal.Correction>
0.4651

> <Gold.Rescore>
     Score         DG    S(hbond)    S(metal)    S(lipo)     H(rot)  DE(clash)    DE(int)     intcor
      7.51     -11.28       1.38        0.00      78.06       3.11       2.09       1.68       ----

> <Gold.Chemscore.Fitness>
7.5079

> <Gold.Chemscore.DG>
-11.2778

> <Gold.Chemscore.ZeroCoef>
-5.4800

> <Gold.Chemscore.Hbond>
1.3831

> <Gold.Chemscore.Metal>
0.0000

> <Gold.Chemscore.Lipo>
78.0644

> <Gold.Chemscore.Internal_Hbond>
0.0000

> <Gold.Chemscore.DEClash>
2.0918

> <Gold.Chemscore.DEInternal>
1.6782

> <Gold.Chemscore.Rot>
3.1075

> <Gold.Chemscore.Internal.Correction>
   9.000000E+99

> <Gold.Chemscore.Hbonds>
donor molecule, donor type, donor heavy atom, donor atom, acceptor molecule, acceptor atom, score
      L1  H    13    34       P1  7957  0.90
      P1  H  7989  7998       L1     6  0.01
      P1  H  8011  8017       L1     8  0.16

> <Gold.Chemscore.Hbond.Weighted>
-4.6194

> <Gold.Chemscore.Metal.Weighted>
-0.0000

> <Gold.Chemscore.Lipo.Weighted>
-9.1335

> <Gold.Chemscore.Internal_Hbond.Weighted>
0.0000

> <Gold.Chemscore.DEClash.Weighted>
2.0918

> <Gold.Chemscore.DEInternal.Weighted>
1.6782

> <Gold.Chemscore.Rot.Weighted>
7.9551

> <Gold.Chemscore.Internal.Correction.Weighted>
   9.000000E+99

> <Gold.Protein.RotatedTorsions>
[ 6907 6896 6895 6894 ] final -163.36 input  -60.11 | X-H torsion
[ 7974 7965 7964 7962 ] final  -53.52 input  175.53 | X-H torsion
[ 8008 7997 7996 7995 ] final  155.46 input   59.86 | X-H torsion
[ 10167 10162 10161 10158 ] final  139.31 input  -65.29 | X-H torsion
[ 10718 10713 10712 10709 ] final   94.39 input   66.30 | X-H torsion
[ 10763 10752 10751 10750 ] final   -3.33 input  -60.55 | X-H torsion
[ 11005 11000 10999 10996 ] final  149.33 input  -57.11 | X-H torsion

> <Gold.Protein.ActiveResidues>
 VAL166  LYS551  ARG553  GLY616  TRP617  ASP618  TYR619  PRO620  LYS621  CYS622 
 ASP623  PHE694  ASN695  SER759  ASP760  ASP761  ALA762  ILE779  LEU786  VAL792 
 PHE793  MET794  SER795  GLU796  ALA797  LYS798  CYS799  TRP800  GLU811  SER814 

> <Gold.Protein.RotatedAtoms>
  151.3947  133.3777  159.2724 H   0  0  0  0  0  0  0  0  0  0  0  0  # atno 6907 bound_to 6896
  150.9478  134.8882  159.7663 H   0  0  0  0  0  0  0  0  0  0  0  0  # atno 6908 bound_to 6896
  152.5099  134.3901  159.9433 H   0  0  0  0  0  0  0  0  0  0  0  0  # atno 6909 bound_to 6896
  145.8959  140.8033  142.9768 H   0  0  0  0  0  0  0  0  0  0  0  0  # atno 7974 bound_to 7965
  156.2477  140.1939  156.6805 H   0  0  0  0  0  0  0  0  0  0  0  0  # atno 8008 bound_to 7997
  154.6326  140.0594  156.9776 H   0  0  0  0  0  0  0  0  0  0  0  0  # atno 8009 bound_to 7997
  155.1688  140.3266  155.4399 H   0  0  0  0  0  0  0  0  0  0  0  0  # atno 8010 bound_to 7997
  139.5083  144.6302  151.5837 H   0  0  0  0  0  0  0  0  0  0  0  0  # atno 10167 bound_to 10162
  157.6948  131.0510  150.4179 H   0  0  0  0  0  0  0  0  0  0  0  0  # atno 10718 bound_to 10713
  153.3700  135.6994  153.6645 H   0  0  0  0  0  0  0  0  0  0  0  0  # atno 10763 bound_to 10752
  153.5299  135.3594  155.2671 H   0  0  0  0  0  0  0  0  0  0  0  0  # atno 10764 bound_to 10752
  154.8680  135.4178  154.2976 H   0  0  0  0  0  0  0  0  0  0  0  0  # atno 10765 bound_to 10752
  140.1036  134.8968  157.1832 H   0  0  0  0  0  0  0  0  0  0  0  0  # atno 11005 bound_to 11000
  144.6733  140.1601  143.7423 LP  0  0  0  0  0  0  0  0  0  0  0  0  # atno 17320 bound_to 7965
  145.8851  139.2344  143.1582 LP  0  0  0  0  0  0  0  0  0  0  0  0  # atno 17321 bound_to 7965
  140.6032  143.9572  150.6400 LP  0  0  0  0  0  0  0  0  0  0  0  0  # atno 17342 bound_to 10162
  140.2790  143.3402  152.1168 LP  0  0  0  0  0  0  0  0  0  0  0  0  # atno 17343 bound_to 10162
  156.4556  130.4021  149.6608 LP  0  0  0  0  0  0  0  0  0  0  0  0  # atno 17370 bound_to 10713
  156.3741  130.7546  151.2532 LP  0  0  0  0  0  0  0  0  0  0  0  0  # atno 17371 bound_to 10713
  140.3186  134.2942  155.7251 LP  0  0  0  0  0  0  0  0  0  0  0  0  # atno 17394 bound_to 11000
  141.2112  133.7696  156.9879 LP  0  0  0  0  0  0  0  0  0  0  0  0  # atno 17395 bound_to 11000

$$$$
