AV-unprocessed.smi:1263|AV-procd|sdf|5310|dock9
  -GOLD-   22720 4433D 1   1.00000     0.00000
 Structure written by MMmdl.
 44 46  0  0  0  0  0  0  0  0  2 V2000
  155.4665  126.1634  154.7502 C   0  0  0  0  0  0  0  0  0  0  0  0
  154.4148  127.1115  154.6053 O   0  0  0  0  0  0  0  0  0  0  0  0
  154.5677  128.3596  155.1789 C   0  0  0  0  0  0  0  0  0  0  0  0
  155.7189  128.6266  155.8455 N   0  0  0  0  0  0  0  0  0  0  0  0
  155.8671  129.8423  156.4109 C   0  0  0  0  0  0  0  0  0  0  0  0
  154.8827  130.8455  156.3493 C   0  0  0  0  0  0  0  0  0  0  0  0
  153.6883  130.5714  155.6579 C   0  0  0  0  0  0  0  0  0  0  0  0
  153.5239  129.3052  155.0454 C   0  0  0  0  0  0  0  0  0  0  0  0
  152.3508  128.9181  154.3405 N   0  0  0  0  0  0  0  0  0  0  0  0
  151.1029  129.4010  154.4638 C   0  0  0  0  0  0  0  0  0  0  0  0
  150.7591  130.3029  155.2276 O   0  0  0  0  0  0  0  0  0  0  0  0
  150.2589  128.7838  153.6243 N   0  0  0  0  0  0  0  0  0  0  0  0
  148.8381  129.0908  153.4860 C   0  0  2  0  0  0  0  0  0  0  0  0
  148.2655  128.4945  152.1859 C   0  0  0  0  0  0  0  0  0  0  0  0
  146.7950  128.9004  151.9920 C   0  0  0  0  0  0  0  0  0  0  0  0
  146.6428  130.3766  152.0026 N   0  3  1  0  0  0  0  0  0  0  0  0
  145.2550  130.7956  151.7084 C   0  0  0  0  0  0  0  0  0  0  0  0
  145.1116  131.5515  150.4079 C   0  0  0  0  0  0  0  0  0  0  0  0
  145.0554  132.2932  151.7248 C   0  0  0  0  0  0  0  0  0  0  0  0
  147.1517  130.9734  153.2625 C   0  0  0  0  0  0  0  0  0  0  0  0
  148.6303  130.6144  153.4872 C   0  0  0  0  0  0  0  0  0  0  0  0
  155.1893  125.2374  154.2467 H   0  0  0  0  0  0  0  0  0  0  0  0
  155.6489  125.9268  155.7995 H   0  0  0  0  0  0  0  0  0  0  0  0
  156.3921  126.5215  154.2973 H   0  0  0  0  0  0  0  0  0  0  0  0
  156.7951  130.0180  156.9342 H   0  0  0  0  0  0  0  0  0  0  0  0
  155.0376  131.8019  156.8261 H   0  0  0  0  0  0  0  0  0  0  0  0
  152.9207  131.3285  155.6248 H   0  0  0  0  0  0  0  0  0  0  0  0
  152.4956  128.2400  153.6068 H   0  0  0  0  0  0  0  0  0  0  0  0
  150.6299  128.0581  153.0284 H   0  0  0  0  0  0  0  0  0  0  0  0
  148.3005  128.6707  154.3384 H   0  0  0  0  0  0  0  0  0  0  0  0
  148.8518  128.8345  151.3308 H   0  0  0  0  0  0  0  0  0  0  0  0
  148.3436  127.4067  152.2004 H   0  0  0  0  0  0  0  0  0  0  0  0
  146.4297  128.5018  151.0448 H   0  0  0  0  0  0  0  0  0  0  0  0
  146.1773  128.4636  152.7784 H   0  0  0  0  0  0  0  0  0  0  0  0
  144.4652  130.1291  152.0511 H   0  0  0  0  0  0  0  0  0  0  0  0
  145.9977  131.6916  149.7912 H   0  0  0  0  0  0  0  0  0  0  0  0
  144.1784  131.4365  149.8603 H   0  0  0  0  0  0  0  0  0  0  0  0
  144.0848  132.6675  152.0445 H   0  0  0  0  0  0  0  0  0  0  0  0
  145.9041  132.9244  151.9820 H   0  0  0  0  0  0  0  0  0  0  0  0
  147.0431  132.0578  153.2235 H   0  0  0  0  0  0  0  0  0  0  0  0
  146.5480  130.6252  154.1023 H   0  0  0  0  0  0  0  0  0  0  0  0
  148.9722  131.0386  154.4322 H   0  0  0  0  0  0  0  0  0  0  0  0
  149.2366  131.0735  152.7046 H   0  0  0  0  0  0  0  0  0  0  0  0
  147.2187  130.7356  151.2547 H   0  0  0  0  0  0  0  0  0  0  0  0
  1  2  1  0  0  0  0
  1 22  1  0  0  0  0
  1 23  1  0  0  0  0
  1 24  1  0  0  0  0
  2  3  1  0  0  0  0
  3  8  1  0  0  0  0
  3  4  2  0  0  0  0
  4  5  1  0  0  0  0
  5  6  2  0  0  0  0
  5 25  1  0  0  0  0
  6  7  1  0  0  0  0
  6 26  1  0  0  0  0
  7  8  2  0  0  0  0
  7 27  1  0  0  0  0
  8  9  1  0  0  0  0
  9 10  1  0  0  0  0
  9 28  1  0  0  0  0
 10 11  2  0  0  0  0
 10 12  1  0  0  0  0
 12 13  1  0  0  0  0
 12 29  1  0  0  0  0
 13 21  1  0  0  0  0
 13 14  1  0  0  0  0
 13 30  1  0  0  0  0
 14 15  1  0  0  0  0
 14 31  1  0  0  0  0
 14 32  1  0  0  0  0
 15 16  1  0  0  0  0
 15 33  1  0  0  0  0
 15 34  1  0  0  0  0
 16 17  1  0  0  0  0
 16 20  1  0  0  0  0
 16 44  1  0  0  0  0
 17 19  1  0  0  0  0
 17 18  1  0  0  0  0
 17 35  1  0  0  0  0
 18 19  1  0  0  0  0
 18 36  1  0  0  0  0
 18 37  1  0  0  0  0
 19 38  1  0  0  0  0
 19 39  1  0  0  0  0
 20 21  1  0  0  0  0
 20 40  1  0  0  0  0
 20 41  1  0  0  0  0
 21 42  1  0  0  0  0
 21 43  1  0  0  0  0
M  CHG  1  16   1
M  END
> <s_m_source_file>
AV-unprocessed.smi

> <i_m_source_file_index>
1263

> <i_lp_mmshare_version>
43012

> <i_f3d_flags>
0

> <s_epik_input>
W0NIM11PYzFuW2NIXVtjSF1bY0hdYzFbTkhdQyg9TylbTkhdW0NIXTJbQ0gyXVtDSDJdTihbQ0gyXVtDSDJdMilbQ0hdM1tDSDJdW0NIMl0z

> <s_epik_cmdline>
J2VwaWtfcHl0aG9uJywgJy1waCcsICc3LjAnLCAnLXRuJywgJzgnLCAnLW1hJywgJzIwMCcsICctbWV0YWxfYmluZGluZycsICctaW1hZScsICc8aW5maWxlLm1hZT4nLCAnLW9tYWUnLCAnPG91dGZpbGUubWFlPic=

> <r_lp_tautomer_probability>
1

> <r_epik_Ionization_Penalty>
0.115628

> <r_epik_Ionization_Penalty_Charging>
0.115549

> <r_epik_Ionization_Penalty_Neutral>
7.89431e-05

> <r_epik_State_Penalty>
0.105184

> <r_epik_Charging_Adjusted_Penalty>
0.220733

> <i_epik_Tot_Q>
1

> <i_epik_Tot_abs_Q>
1

> <r_epik_Metal_State_Penalty>
0.105186

> <b_epik_Metal_Only>
0

> <s_lp_Force_Field>
OPLS_2005

> <r_lp_Energy>
28.8205

> <b_lp_Chiralities_Consistent>
1

> <s_lp_Variant>
AV-unprocessed.smi:1263-1

> <Gold.Version>
5.8.1

> <Gold.Id.Protein>
6NUR|6NUR_protein|mol2

> <Gold.PLP.Fitness>
39.2044

> <Gold.PLP.PLP>
-31.8776

> <Gold.PLP.part.hbond>
-3.0000

> <Gold.PLP.part.metal>
0.0000

> <Gold.PLP.part.buried>
-2.7568

> <Gold.PLP.part.nonpolar>
-25.5999

> <Gold.PLP.part.repulsive>
0.2277

> <Gold.PLP.ligand.clash>
0.0000

> <Gold.PLP.ligand.torsion>
1.1073

> <Gold.PLP.Chemscore.Hbond>
2.7600

> <Gold.PLP.Chemscore.CHOScore>
0.0000

> <Gold.PLP.Chemscore.Metal>
0.0000

> <Gold.Chemscore.Hbonds>
donor molecule, donor type, donor heavy atom, donor atom, acceptor molecule, acceptor atom, score
      L1  H     9    28       P1 10737  0.93
      L1  H    12    29       P1 10737  0.83
      L1  H    16    44       P1 10747  1.00

> <Gold.PLP.Chemscore.Internal.Correction>
1.2613

> <Gold.Rescore>
     Score         DG    S(hbond)    S(metal)    S(lipo)     H(rot)  DE(clash)    DE(int)     intcor
     15.19     -19.12       2.32        0.00      81.66       1.43       0.36       3.57       ----

> <Gold.Chemscore.Fitness>
15.1932

> <Gold.Chemscore.DG>
-19.1230

> <Gold.Chemscore.ZeroCoef>
-5.4800

> <Gold.Chemscore.Hbond>
2.3215

> <Gold.Chemscore.Metal>
0.0000

> <Gold.Chemscore.Lipo>
81.6639

> <Gold.Chemscore.Internal_Hbond>
0.0000

> <Gold.Chemscore.DEClash>
0.3643

> <Gold.Chemscore.DEInternal>
3.5654

> <Gold.Chemscore.Rot>
1.4318

> <Gold.Chemscore.Internal.Correction>
   9.000000E+99

> <Gold.Chemscore.Hbonds>
donor molecule, donor type, donor heavy atom, donor atom, acceptor molecule, acceptor atom, score
      L1  H     9    28       P1 10737  0.57
      L1  H    12    29       P1 10737  0.81
      L1  H    16    44       P1 10747  0.91

> <Gold.Chemscore.Hbond.Weighted>
-7.7537

> <Gold.Chemscore.Metal.Weighted>
-0.0000

> <Gold.Chemscore.Lipo.Weighted>
-9.5547

> <Gold.Chemscore.Internal_Hbond.Weighted>
0.0000

> <Gold.Chemscore.DEClash.Weighted>
0.3643

> <Gold.Chemscore.DEInternal.Weighted>
3.5654

> <Gold.Chemscore.Rot.Weighted>
3.6653

> <Gold.Chemscore.Internal.Correction.Weighted>
   9.000000E+99

> <Gold.Protein.RotatedTorsions>
[ 6907 6896 6895 6894 ] final -105.75 input  -60.11 | X-H torsion
[ 7974 7965 7964 7962 ] final  138.20 input  175.53 | X-H torsion
[ 8008 7997 7996 7995 ] final   63.18 input   59.86 | X-H torsion
[ 10167 10162 10161 10158 ] final -171.32 input  -65.29 | X-H torsion
[ 10718 10713 10712 10709 ] final -116.73 input   66.30 | X-H torsion
[ 10763 10752 10751 10750 ] final   84.04 input  -60.55 | X-H torsion
[ 11005 11000 10999 10996 ] final -168.75 input  -57.11 | X-H torsion

> <Gold.Protein.ActiveResidues>
 VAL166  LYS551  ARG553  GLY616  TRP617  ASP618  TYR619  PRO620  LYS621  CYS622 
 ASP623  PHE694  ASN695  SER759  ASP760  ASP761  ALA762  ILE779  LEU786  VAL792 
 PHE793  MET794  SER795  GLU796  ALA797  LYS798  CYS799  TRP800  GLU811  SER814 

> <Gold.Protein.RotatedAtoms>
  150.7353  134.0080  159.3659 H   0  0  0  0  0  0  0  0  0  0  0  0  # atno 6907 bound_to 6896
  151.8038  135.0699  160.0413 H   0  0  0  0  0  0  0  0  0  0  0  0  # atno 6908 bound_to 6896
  152.3122  133.5728  159.5724 H   0  0  0  0  0  0  0  0  0  0  0  0  # atno 6909 bound_to 6896
  144.9395  139.4948  143.5579 H   0  0  0  0  0  0  0  0  0  0  0  0  # atno 7974 bound_to 7965
  155.6262  140.3496  155.4668 H   0  0  0  0  0  0  0  0  0  0  0  0  # atno 8008 bound_to 7997
  156.0040  140.1219  157.0543 H   0  0  0  0  0  0  0  0  0  0  0  0  # atno 8009 bound_to 7997
  154.4258  140.1095  156.5722 H   0  0  0  0  0  0  0  0  0  0  0  0  # atno 8010 bound_to 7997
  139.5809  144.1425  152.1514 H   0  0  0  0  0  0  0  0  0  0  0  0  # atno 10167 bound_to 10162
  156.0984  130.6151  150.9073 H   0  0  0  0  0  0  0  0  0  0  0  0  # atno 10718 bound_to 10713
  153.1345  135.4669  154.9401 H   0  0  0  0  0  0  0  0  0  0  0  0  # atno 10763 bound_to 10752
  154.7694  135.3154  154.8223 H   0  0  0  0  0  0  0  0  0  0  0  0  # atno 10764 bound_to 10752
  153.8758  135.6899  153.4824 H   0  0  0  0  0  0  0  0  0  0  0  0  # atno 10765 bound_to 10752
  140.5385  134.5546  157.5093 H   0  0  0  0  0  0  0  0  0  0  0  0  # atno 11005 bound_to 11000
  146.3280  139.8404  142.8891 LP  0  0  0  0  0  0  0  0  0  0  0  0  # atno 17320 bound_to 7965
  145.3014  141.0195  143.3607 LP  0  0  0  0  0  0  0  0  0  0  0  0  # atno 17321 bound_to 7965
  140.0978  144.5566  150.7010 LP  0  0  0  0  0  0  0  0  0  0  0  0  # atno 17342 bound_to 10162
  140.7088  143.2488  151.4646 LP  0  0  0  0  0  0  0  0  0  0  0  0  # atno 17343 bound_to 10162
  157.6149  131.0934  150.8728 LP  0  0  0  0  0  0  0  0  0  0  0  0  # atno 17370 bound_to 10713
  156.8861  130.5196  149.5288 LP  0  0  0  0  0  0  0  0  0  0  0  0  # atno 17371 bound_to 10713
  139.9516  134.7607  156.0435 LP  0  0  0  0  0  0  0  0  0  0  0  0  # atno 17394 bound_to 11000
  141.1241  133.6604  156.3290 LP  0  0  0  0  0  0  0  0  0  0  0  0  # atno 17395 bound_to 11000

$$$$
