AV-unprocessed.smi:2563|AV-procd|sdf|10056|dock10
  -GOLD-   2272014 93D 1   1.00000     0.00000
 Structure written by MMmdl.
 35 36  0  0  0  0  0  0  0  0  2 V2000
  145.7456  143.2155  154.3841 C   0  0  0  0  0  0  0  0  0  0  0  0
  146.5036  142.2058  155.2558 C   0  0  0  0  0  0  0  0  0  0  0  0
  147.4975  141.4546  154.4921 N   0  0  0  0  0  0  0  0  0  0  0  0
  147.1421  140.9737  153.1562 C   0  0  0  0  0  0  0  0  0  0  0  0
  147.1144  139.4371  153.0718 C   0  0  2  0  0  0  0  0  0  0  0  0
  146.8183  138.9506  151.6398 C   0  0  0  0  0  0  0  0  0  0  0  0
  146.7312  137.4771  151.6118 N   0  3  0  0  0  0  0  0  0  0  0  0
  145.7399  136.9726  152.5818 C   0  0  0  0  0  0  0  0  0  0  0  0
  146.0435  137.5281  153.9834 C   0  0  0  0  0  0  0  0  0  0  0  0
  146.0856  138.9502  153.9310 O   0  0  0  0  0  0  0  0  0  0  0  0
  148.7802  141.1883  155.0303 C   0  0  0  0  0  0  0  0  0  0  0  0
  149.1509  141.6119  156.3302 C   0  0  0  0  0  0  0  0  0  0  0  0
  150.4424  141.2978  156.7871 C   0  0  0  0  0  0  0  0  0  0  0  0
  151.2807  140.5815  155.9163 C   0  0  0  0  0  0  0  0  0  0  0  0
  150.8864  140.1993  154.6828 N   0  0  0  0  0  0  0  0  0  0  0  0
  149.6575  140.5013  154.2518 N   0  0  0  0  0  0  0  0  0  0  0  0
  145.0004  143.7500  154.9733 H   0  0  0  0  0  0  0  0  0  0  0  0
  145.2254  142.7181  153.5650 H   0  0  0  0  0  0  0  0  0  0  0  0
  146.4191  143.9557  153.9519 H   0  0  0  0  0  0  0  0  0  0  0  0
  146.9604  142.6979  156.1142 H   0  0  0  0  0  0  0  0  0  0  0  0
  145.7864  141.5021  155.6788 H   0  0  0  0  0  0  0  0  0  0  0  0
  146.1662  141.3733  152.8777 H   0  0  0  0  0  0  0  0  0  0  0  0
  147.8403  141.3806  152.4236 H   0  0  0  0  0  0  0  0  0  0  0  0
  148.0775  139.0363  153.3924 H   0  0  0  0  0  0  0  0  0  0  0  0
  145.8795  139.3734  151.2788 H   0  0  0  0  0  0  0  0  0  0  0  0
  147.6022  139.2738  150.9542 H   0  0  0  0  0  0  0  0  0  0  0  0
  146.4795  137.1721  150.6823 H   0  0  0  0  0  0  0  0  0  0  0  0
  144.7417  137.2767  152.2644 H   0  0  0  0  0  0  0  0  0  0  0  0
  145.7587  135.8825  152.5871 H   0  0  0  0  0  0  0  0  0  0  0  0
  145.2676  137.2226  154.6853 H   0  0  0  0  0  0  0  0  0  0  0  0
  146.9890  137.1382  154.3633 H   0  0  0  0  0  0  0  0  0  0  0  0
  148.4867  142.1682  156.9734 H   0  0  0  0  0  0  0  0  0  0  0  0
  150.7786  141.5963  157.7688 H   0  0  0  0  0  0  0  0  0  0  0  0
  152.2837  140.3113  156.2117 H   0  0  0  0  0  0  0  0  0  0  0  0
  147.6368  137.0972  151.8490 H   0  0  0  0  0  0  0  0  0  0  0  0
  1  2  1  0  0  0  0
  1 17  1  0  0  0  0
  1 18  1  0  0  0  0
  1 19  1  0  0  0  0
  2  3  1  0  0  0  0
  2 20  1  0  0  0  0
  2 21  1  0  0  0  0
  3  4  1  0  0  0  0
  3 11  1  0  0  0  0
  4  5  1  0  0  0  0
  4 22  1  0  0  0  0
  4 23  1  0  0  0  0
  5 10  1  0  0  0  0
  5  6  1  0  0  0  0
  5 24  1  0  0  0  0
  6  7  1  0  0  0  0
  6 25  1  0  0  0  0
  6 26  1  0  0  0  0
  7  8  1  0  0  0  0
  7 27  1  0  0  0  0
  7 35  1  0  0  0  0
  8  9  1  0  0  0  0
  8 28  1  0  0  0  0
  8 29  1  0  0  0  0
  9 10  1  0  0  0  0
  9 30  1  0  0  0  0
  9 31  1  0  0  0  0
 11 16  1  0  0  0  0
 11 12  2  0  0  0  0
 12 13  1  0  0  0  0
 12 32  1  0  0  0  0
 13 14  2  0  0  0  0
 13 33  1  0  0  0  0
 14 15  1  0  0  0  0
 14 34  1  0  0  0  0
 15 16  2  0  0  0  0
M  CHG  1   7   1
M  END
> <s_m_source_file>
AV-unprocessed.smi

> <i_m_source_file_index>
2563

> <i_lp_mmshare_version>
43012

> <i_f3d_flags>
0

> <s_epik_input>
bjFuW2NIXVtjSF1bY0hdYzFOKFtDSDJdW0NIM10pW0NIMl1bQ0BASF0yW0NIMl1bTkhdW0NIMl1bQ0gyXU8y

> <s_epik_cmdline>
J2VwaWtfcHl0aG9uJywgJy1waCcsICc3LjAnLCAnLXRuJywgJzgnLCAnLW1hJywgJzIwMCcsICctbWV0YWxfYmluZGluZycsICctaW1hZScsICc8aW5maWxlLm1hZT4nLCAnLW9tYWUnLCAnPG91dGZpbGUubWFlPic=

> <r_lp_tautomer_probability>
1

> <r_epik_Ionization_Penalty>
0.0472862

> <r_epik_Ionization_Penalty_Charging>
0.0127794

> <r_epik_Ionization_Penalty_Neutral>
0.0345068

> <r_epik_State_Penalty>
0.0614045

> <r_epik_Charging_Adjusted_Penalty>
0.0741839

> <i_epik_Tot_Q>
1

> <i_epik_Tot_abs_Q>
1

> <r_epik_Metal_State_Penalty>
0.0547208

> <b_epik_Metal_Only>
0

> <s_lp_Force_Field>
OPLS_2005

> <r_lp_Energy>
24.8207

> <b_lp_Chiralities_Consistent>
1

> <s_lp_Variant>
AV-unprocessed.smi:2563-1

> <Gold.Version>
5.8.1

> <Gold.Id.Protein>
6NUR|6NUR_protein|mol2

> <Gold.PLP.Fitness>
38.8812

> <Gold.PLP.PLP>
-30.8732

> <Gold.PLP.part.hbond>
-2.9989

> <Gold.PLP.part.metal>
0.0000

> <Gold.PLP.part.buried>
-3.3896

> <Gold.PLP.part.nonpolar>
-25.6953

> <Gold.PLP.part.repulsive>
0.5328

> <Gold.PLP.ligand.clash>
0.0000

> <Gold.PLP.ligand.torsion>
0.2781

> <Gold.PLP.Chemscore.Hbond>
2.8500

> <Gold.PLP.Chemscore.CHOScore>
0.0000

> <Gold.PLP.Chemscore.Metal>
0.0000

> <Gold.Chemscore.Hbonds>
donor molecule, donor type, donor heavy atom, donor atom, acceptor molecule, acceptor atom, score
      L1  H     7    35       P1  7948  2.00
      P1  H  7989  7998       L1    15  0.80

> <Gold.PLP.Chemscore.Internal.Correction>
0.0141

> <Gold.Rescore>
     Score         DG    S(hbond)    S(metal)    S(lipo)     H(rot)  DE(clash)    DE(int)     intcor
     13.26     -14.38       1.65        0.00      59.68       1.40       0.11       1.01       ----

> <Gold.Chemscore.Fitness>
13.2630

> <Gold.Chemscore.DG>
-14.3822

> <Gold.Chemscore.ZeroCoef>
-5.4800

> <Gold.Chemscore.Hbond>
1.6503

> <Gold.Chemscore.Metal>
0.0000

> <Gold.Chemscore.Lipo>
59.6814

> <Gold.Chemscore.Internal_Hbond>
0.0000

> <Gold.Chemscore.DEClash>
0.1077

> <Gold.Chemscore.DEInternal>
1.0115

> <Gold.Chemscore.Rot>
1.4033

> <Gold.Chemscore.Internal.Correction>
   9.000000E+99

> <Gold.Chemscore.Hbonds>
donor molecule, donor type, donor heavy atom, donor atom, acceptor molecule, acceptor atom, score
      L1  H     7    35       P1  7948  0.95
      P1  H  7989  7998       L1    15  0.10

> <Gold.Chemscore.Hbond.Weighted>
-5.5119

> <Gold.Chemscore.Metal.Weighted>
-0.0000

> <Gold.Chemscore.Lipo.Weighted>
-6.9827

> <Gold.Chemscore.Internal_Hbond.Weighted>
0.0000

> <Gold.Chemscore.DEClash.Weighted>
0.1077

> <Gold.Chemscore.DEInternal.Weighted>
1.0115

> <Gold.Chemscore.Rot.Weighted>
3.5924

> <Gold.Chemscore.Internal.Correction.Weighted>
   9.000000E+99

> <Gold.Protein.RotatedTorsions>
[ 6907 6896 6895 6894 ] final  174.04 input  -60.11 | X-H torsion
[ 7974 7965 7964 7962 ] final -166.16 input  175.53 | X-H torsion
[ 8008 7997 7996 7995 ] final   51.50 input   59.86 | X-H torsion
[ 10167 10162 10161 10158 ] final   38.17 input  -65.29 | X-H torsion
[ 10718 10713 10712 10709 ] final   70.80 input   66.30 | X-H torsion
[ 10763 10752 10751 10750 ] final -106.58 input  -60.55 | X-H torsion
[ 11005 11000 10999 10996 ] final   -2.07 input  -57.11 | X-H torsion

> <Gold.Protein.ActiveResidues>
 VAL166  LYS551  ARG553  GLY616  TRP617  ASP618  TYR619  PRO620  LYS621  CYS622 
 ASP623  PHE694  ASN695  SER759  ASP760  ASP761  ALA762  ILE779  LEU786  VAL792 
 PHE793  MET794  SER795  GLU796  ALA797  LYS798  CYS799  TRP800  GLU811  SER814 

> <Gold.Protein.RotatedAtoms>
  151.7587  133.3332  159.3411 H   0  0  0  0  0  0  0  0  0  0  0  0  # atno 6907 bound_to 6896
  150.7506  134.6126  159.6103 H   0  0  0  0  0  0  0  0  0  0  0  0  # atno 6908 bound_to 6896
  152.3420  134.7124  160.0312 H   0  0  0  0  0  0  0  0  0  0  0  0  # atno 6909 bound_to 6896
  144.7252  140.2707  143.6251 H   0  0  0  0  0  0  0  0  0  0  0  0  # atno 7974 bound_to 7965
  155.4363  140.3452  155.4285 H   0  0  0  0  0  0  0  0  0  0  0  0  # atno 8008 bound_to 7997
  156.1306  140.1513  156.9102 H   0  0  0  0  0  0  0  0  0  0  0  0  # atno 8009 bound_to 7997
  154.4891  140.0846  156.7535 H   0  0  0  0  0  0  0  0  0  0  0  0  # atno 8010 bound_to 7997
  140.3962  144.1785  150.6132 H   0  0  0  0  0  0  0  0  0  0  0  0  # atno 10167 bound_to 10162
  157.6419  130.9495  150.0700 H   0  0  0  0  0  0  0  0  0  0  0  0  # atno 10718 bound_to 10713
  154.8021  135.4707  154.0301 H   0  0  0  0  0  0  0  0  0  0  0  0  # atno 10763 bound_to 10752
  153.1799  135.6839  153.8500 H   0  0  0  0  0  0  0  0  0  0  0  0  # atno 10764 bound_to 10752
  153.8054  135.3224  155.3372 H   0  0  0  0  0  0  0  0  0  0  0  0  # atno 10765 bound_to 10752
  140.6543  133.9377  155.8398 H   0  0  0  0  0  0  0  0  0  0  0  0  # atno 11005 bound_to 11000
  145.8046  139.1978  143.2028 LP  0  0  0  0  0  0  0  0  0  0  0  0  # atno 17320 bound_to 7965
  146.0648  140.7932  142.9717 LP  0  0  0  0  0  0  0  0  0  0  0  0  # atno 17321 bound_to 7965
  140.4788  143.2386  151.8985 LP  0  0  0  0  0  0  0  0  0  0  0  0  # atno 17342 bound_to 10162
  139.4786  144.5292  151.8691 LP  0  0  0  0  0  0  0  0  0  0  0  0  # atno 17343 bound_to 10162
  156.1707  130.3646  149.9169 LP  0  0  0  0  0  0  0  0  0  0  0  0  # atno 17370 bound_to 10713
  156.7145  130.8983  151.3612 LP  0  0  0  0  0  0  0  0  0  0  0  0  # atno 17371 bound_to 10713
  141.0513  134.0480  157.3779 LP  0  0  0  0  0  0  0  0  0  0  0  0  # atno 17394 bound_to 11000
  139.9035  135.0172  156.7379 LP  0  0  0  0  0  0  0  0  0  0  0  0  # atno 17395 bound_to 11000

$$$$
