AV-unprocessed.smi:2089|AV-procd|sdf|8531|dock7
  -GOLD-   2272011253D 1   1.00000     0.00000
 Structure written by MMmdl.
 40 41  0  0  0  0  0  0  0  0  2 V2000
  145.9959  135.5183  161.5958 C   0  0  0  0  0  0  0  0  0  0  0  0
  147.1488  136.8608  161.0943 S   0  0  0  0  0  0  0  0  0  0  0  0
  146.4688  137.7556  160.1455 O   0  0  0  0  0  0  0  0  0  0  0  0
  147.7629  137.4139  162.3112 O   0  0  0  0  0  0  0  0  0  0  0  0
  148.3770  136.0035  160.2235 N   0  0  0  0  0  0  0  0  0  0  0  0
  148.2540  134.5444  160.0974 C   0  0  0  0  0  0  0  0  0  0  0  0
  148.3307  134.2523  158.6020 C   0  0  0  0  0  0  0  0  0  0  0  0
  149.2339  135.3597  158.0820 C   0  0  0  0  0  0  0  0  0  0  0  0
  148.8514  136.5702  158.9490 C   0  0  2  0  0  0  0  0  0  0  0  0
  149.9996  137.5732  159.1141 C   0  0  0  0  0  0  0  0  0  0  0  0
  150.8819  137.3789  159.9508 O   0  0  0  0  0  0  0  0  0  0  0  0
  149.9634  138.6589  158.3284 N   0  0  0  0  0  0  0  0  0  0  0  0
  150.9342  139.7422  158.3833 C   0  0  0  0  0  0  0  0  0  0  0  0
  150.5108  140.8988  157.4681 C   0  0  0  0  0  0  0  0  0  0  0  0
  151.1121  142.2213  157.9035 C   0  0  0  0  0  0  0  0  0  0  0  0
  152.0062  142.3194  158.9919 C   0  0  0  0  0  0  0  0  0  0  0  0
  152.5207  143.5835  159.3486 C   0  0  0  0  0  0  0  0  0  0  0  0
  152.1295  144.7211  158.6125 C   0  0  0  0  0  0  0  0  0  0  0  0
  151.2325  144.5659  157.5362 C   0  0  0  0  0  0  0  0  0  0  0  0
  150.7619  143.3380  157.2249 N   0  3  0  0  0  0  0  0  0  0  0  0
  145.1796  135.9419  162.1804 H   0  0  0  0  0  0  0  0  0  0  0  0
  146.5315  134.7869  162.2004 H   0  0  0  0  0  0  0  0  0  0  0  0
  145.5890  135.0299  160.7110 H   0  0  0  0  0  0  0  0  0  0  0  0
  149.0861  134.0776  160.6255 H   0  0  0  0  0  0  0  0  0  0  0  0
  147.3258  134.1758  160.5348 H   0  0  0  0  0  0  0  0  0  0  0  0
  148.7126  133.2548  158.3837 H   0  0  0  0  0  0  0  0  0  0  0  0
  147.3394  134.3406  158.1551 H   0  0  0  0  0  0  0  0  0  0  0  0
  150.2779  135.0751  158.2233 H   0  0  0  0  0  0  0  0  0  0  0  0
  149.0808  135.5462  157.0187 H   0  0  0  0  0  0  0  0  0  0  0  0
  148.0034  137.0664  158.4726 H   0  0  0  0  0  0  0  0  0  0  0  0
  149.1998  138.7508  157.6740 H   0  0  0  0  0  0  0  0  0  0  0  0
  151.0207  140.0902  159.4138 H   0  0  0  0  0  0  0  0  0  0  0  0
  151.9148  139.3681  158.0844 H   0  0  0  0  0  0  0  0  0  0  0  0
  150.8106  140.6908  156.4398 H   0  0  0  0  0  0  0  0  0  0  0  0
  149.4237  140.9921  157.4595 H   0  0  0  0  0  0  0  0  0  0  0  0
  152.2940  141.4397  159.5493 H   0  0  0  0  0  0  0  0  0  0  0  0
  153.2064  143.6796  160.1777 H   0  0  0  0  0  0  0  0  0  0  0  0
  152.5114  145.6982  158.8705 H   0  0  0  0  0  0  0  0  0  0  0  0
  150.8794  145.3802  156.9203 H   0  0  0  0  0  0  0  0  0  0  0  0
  150.1125  143.2489  156.4427 H   0  0  0  0  0  0  0  0  0  0  0  0
  1  2  1  0  0  0  0
  1 21  1  0  0  0  0
  1 22  1  0  0  0  0
  1 23  1  0  0  0  0
  2  3  2  0  0  0  0
  2  4  2  0  0  0  0
  2  5  1  0  0  0  0
  5  9  1  0  0  0  0
  5  6  1  0  0  0  0
  6  7  1  0  0  0  0
  6 24  1  0  0  0  0
  6 25  1  0  0  0  0
  7  8  1  0  0  0  0
  7 26  1  0  0  0  0
  7 27  1  0  0  0  0
  8  9  1  0  0  0  0
  8 28  1  0  0  0  0
  8 29  1  0  0  0  0
  9 10  1  0  0  0  0
  9 30  1  0  0  0  0
 10 11  2  0  0  0  0
 10 12  1  0  0  0  0
 12 13  1  0  0  0  0
 12 31  1  0  0  0  0
 13 14  1  0  0  0  0
 13 32  1  0  0  0  0
 13 33  1  0  0  0  0
 14 15  1  0  0  0  0
 14 34  1  0  0  0  0
 14 35  1  0  0  0  0
 15 20  1  0  0  0  0
 15 16  2  0  0  0  0
 16 17  1  0  0  0  0
 16 36  1  0  0  0  0
 17 18  2  0  0  0  0
 17 37  1  0  0  0  0
 18 19  1  0  0  0  0
 18 38  1  0  0  0  0
 19 20  2  0  0  0  0
 19 39  1  0  0  0  0
 20 40  1  0  0  0  0
M  CHG  1  20   1
M  END
> <s_m_source_file>
AV-unprocessed.smi

> <i_m_source_file_index>
2089

> <i_lp_mmshare_version>
43012

> <i_f3d_flags>
0

> <s_epik_input>
W0NIM11TKD1PKSg9TylOMVtDSDJdW0NIMl1bQ0gyXVtDQEhdMUMoPU8pW05IXVtDSDJdW0NIMl1jMltjSF1bY0hdW2NIXVtjSF1uMg==

> <s_epik_cmdline>
J2VwaWtfcHl0aG9uJywgJy1waCcsICc3LjAnLCAnLXRuJywgJzgnLCAnLW1hJywgJzIwMCcsICctbWV0YWxfYmluZGluZycsICctaW1hZScsICc8aW5maWxlLm1hZT4nLCAnLW9tYWUnLCAnPG91dGZpbGUubWFlPic=

> <r_epik_Ionization_Penalty>
1.90116

> <r_epik_Ionization_Penalty_Charging>
1.90116

> <r_epik_Ionization_Penalty_Neutral>
1.4017e-07

> <r_epik_State_Penalty>
2.02245

> <r_epik_Charging_Adjusted_Penalty>
3.9236

> <i_epik_Tot_Q>
1

> <i_epik_Tot_abs_Q>
1

> <r_epik_Metal_State_Penalty>
2.04621

> <b_epik_Metal_Only>
0

> <s_lp_Force_Field>
OPLS_2005

> <r_lp_Energy>
13.4041

> <b_lp_Chiralities_Consistent>
1

> <s_lp_Variant>
AV-unprocessed.smi:2089-4

> <Gold.Version>
5.8.1

> <Gold.Id.Protein>
6NUR|6NUR_protein|mol2

> <Gold.PLP.Fitness>
46.3711

> <Gold.PLP.PLP>
-34.4852

> <Gold.PLP.part.hbond>
-3.9399

> <Gold.PLP.part.metal>
0.0000

> <Gold.PLP.part.buried>
-5.6245

> <Gold.PLP.part.nonpolar>
-26.3884

> <Gold.PLP.part.repulsive>
0.1286

> <Gold.PLP.ligand.clash>
0.0000

> <Gold.PLP.ligand.torsion>
1.0715

> <Gold.PLP.Chemscore.Hbond>
4.5134

> <Gold.PLP.Chemscore.CHOScore>
0.0000

> <Gold.PLP.Chemscore.Metal>
0.0000

> <Gold.Chemscore.Hbonds>
donor molecule, donor type, donor heavy atom, donor atom, acceptor molecule, acceptor atom, score
      L1  H    20    40       P1  8028  0.96
      P1  H  6896  6907       L1    11  0.29
      P1  H  6931  6943       L1     4  0.83
      P1  H  6934  6947       L1     3  0.45

> <Gold.PLP.Chemscore.Internal.Correction>
0.4886

> <Gold.Rescore>
     Score         DG    S(hbond)    S(metal)    S(lipo)     H(rot)  DE(clash)    DE(int)     intcor
     19.51     -20.56       3.22        0.00      80.76       2.00       0.00       1.04       ----

> <Gold.Chemscore.Fitness>
19.5143

> <Gold.Chemscore.DG>
-20.5556

> <Gold.Chemscore.ZeroCoef>
-5.4800

> <Gold.Chemscore.Hbond>
3.2208

> <Gold.Chemscore.Metal>
0.0000

> <Gold.Chemscore.Lipo>
80.7604

> <Gold.Chemscore.Internal_Hbond>
0.0000

> <Gold.Chemscore.DEClash>
0.0000

> <Gold.Chemscore.DEInternal>
1.0413

> <Gold.Chemscore.Rot>
2.0043

> <Gold.Chemscore.Internal.Correction>
   9.000000E+99

> <Gold.Chemscore.Hbonds>
donor molecule, donor type, donor heavy atom, donor atom, acceptor molecule, acceptor atom, score
      L1  H    20    40       P1  8028  0.47
      P1  H  6896  6907       L1    11  0.10
      P1  H  6931  6943       L1     4  0.58
      P1  H  6934  6947       L1     3  0.02

> <Gold.Chemscore.Hbond.Weighted>
-10.7575

> <Gold.Chemscore.Metal.Weighted>
-0.0000

> <Gold.Chemscore.Lipo.Weighted>
-9.4490

> <Gold.Chemscore.Internal_Hbond.Weighted>
0.0000

> <Gold.Chemscore.DEClash.Weighted>
0.0000

> <Gold.Chemscore.DEInternal.Weighted>
1.0413

> <Gold.Chemscore.Rot.Weighted>
5.1309

> <Gold.Chemscore.Internal.Correction.Weighted>
   9.000000E+99

> <Gold.Protein.RotatedTorsions>
[ 6907 6896 6895 6894 ] final  -29.51 input  -60.11 | X-H torsion
[ 7974 7965 7964 7962 ] final  -67.91 input  175.53 | X-H torsion
[ 8008 7997 7996 7995 ] final   30.79 input   59.86 | X-H torsion
[ 10167 10162 10161 10158 ] final  -60.30 input  -65.29 | X-H torsion
[ 10718 10713 10712 10709 ] final -177.38 input   66.30 | X-H torsion
[ 10763 10752 10751 10750 ] final -148.91 input  -60.55 | X-H torsion
[ 11005 11000 10999 10996 ] final  159.59 input  -57.11 | X-H torsion

> <Gold.Protein.ActiveResidues>
 VAL166  LYS551  ARG553  GLY616  TRP617  ASP618  TYR619  PRO620  LYS621  CYS622 
 ASP623  PHE694  ASN695  SER759  ASP760  ASP761  ALA762  ILE779  LEU786  VAL792 
 PHE793  MET794  SER795  GLU796  ALA797  LYS798  CYS799  TRP800  GLU811  SER814 

> <Gold.Protein.RotatedAtoms>
  151.1182  135.0064  159.8525 H   0  0  0  0  0  0  0  0  0  0  0  0  # atno 6907 bound_to 6896
  152.5446  134.1754  159.8624 H   0  0  0  0  0  0  0  0  0  0  0  0  # atno 6908 bound_to 6896
  151.1810  133.4680  159.2627 H   0  0  0  0  0  0  0  0  0  0  0  0  # atno 6909 bound_to 6896
  145.7231  140.9029  143.0619 H   0  0  0  0  0  0  0  0  0  0  0  0  # atno 7974 bound_to 7965
  155.0960  140.3225  155.4560 H   0  0  0  0  0  0  0  0  0  0  0  0  # atno 8008 bound_to 7997
  156.2730  140.2069  156.6034 H   0  0  0  0  0  0  0  0  0  0  0  0  # atno 8009 bound_to 7997
  154.6866  140.0521  157.0307 H   0  0  0  0  0  0  0  0  0  0  0  0  # atno 8010 bound_to 7997
  140.6080  143.2379  151.5776 H   0  0  0  0  0  0  0  0  0  0  0  0  # atno 10167 bound_to 10162
  156.8286  130.9645  151.3108 H   0  0  0  0  0  0  0  0  0  0  0  0  # atno 10718 bound_to 10713
  154.8206  135.3322  154.7048 H   0  0  0  0  0  0  0  0  0  0  0  0  # atno 10763 bound_to 10752
  153.7681  135.6927  153.4916 H   0  0  0  0  0  0  0  0  0  0  0  0  # atno 10764 bound_to 10752
  153.2063  135.4498  155.0276 H   0  0  0  0  0  0  0  0  0  0  0  0  # atno 10765 bound_to 10752
  140.1976  134.8361  157.2983 H   0  0  0  0  0  0  0  0  0  0  0  0  # atno 11005 bound_to 11000
  144.6911  139.9230  143.7468 LP  0  0  0  0  0  0  0  0  0  0  0  0  # atno 17320 bound_to 7965
  146.0607  139.3600  143.0583 LP  0  0  0  0  0  0  0  0  0  0  0  0  # atno 17321 bound_to 7965
  139.5339  144.2836  152.1209 LP  0  0  0  0  0  0  0  0  0  0  0  0  # atno 17342 bound_to 10162
  140.2029  144.4639  150.6422 LP  0  0  0  0  0  0  0  0  0  0  0  0  # atno 17343 bound_to 10162
  157.6419  130.8812  149.9464 LP  0  0  0  0  0  0  0  0  0  0  0  0  # atno 17370 bound_to 10713
  156.0947  130.3660  150.0328 LP  0  0  0  0  0  0  0  0  0  0  0  0  # atno 17371 bound_to 10713
  140.2089  134.4162  155.7623 LP  0  0  0  0  0  0  0  0  0  0  0  0  # atno 17394 bound_to 11000
  141.2227  133.7108  156.8306 LP  0  0  0  0  0  0  0  0  0  0  0  0  # atno 17395 bound_to 11000

$$$$
