AV-unprocessed.smi:1012|AV-procd|sdf|4423|dock9
  -GOLD-   22720 2373D 1   1.00000     0.00000
 Structure written by MMmdl.
 43 45  0  0  0  0  0  0  0  0  1 V2000
  152.7014  139.5378  159.5517 C   0  0  0  0  0  0  0  0  0  0  0  0
  151.6636  140.3026  158.9569 O   0  0  0  0  0  0  0  0  0  0  0  0
  151.6428  141.6646  159.1795 C   0  0  0  0  0  0  0  0  0  0  0  0
  152.6002  142.3439  159.9757 C   0  0  0  0  0  0  0  0  0  0  0  0
  152.5220  143.7377  160.1576 C   0  0  0  0  0  0  0  0  0  0  0  0
  151.4891  144.4716  159.5485 C   0  0  0  0  0  0  0  0  0  0  0  0
  150.5336  143.8098  158.7565 C   0  0  0  0  0  0  0  0  0  0  0  0
  150.6051  142.4126  158.5725 C   0  0  0  0  0  0  0  0  0  0  0  0
  149.5706  141.7180  157.7050 C   0  0  0  0  0  0  0  0  0  0  0  0
  150.1783  140.9907  156.6499 O   0  0  0  0  0  0  0  0  0  0  0  0
  149.2357  140.3403  155.8141 C   0  0  0  0  0  0  0  0  0  0  0  0
  148.9238  141.2485  154.6148 C   0  0  1  0  0  0  0  0  0  0  0  0
  149.8123  140.9221  153.5638 O   0  0  0  0  0  0  0  0  0  0  0  0
  147.4744  141.0736  154.1219 C   0  0  0  0  0  0  0  0  0  0  0  0
  146.5253  141.8524  154.8977 N   0  0  0  0  0  0  0  0  0  0  0  0
  146.0835  141.5824  156.1408 C   0  0  0  0  0  0  0  0  0  0  0  0
  145.2081  142.4297  156.6743 N   0  0  0  0  0  0  0  0  0  0  0  0
  145.0658  143.3600  155.6591 C   0  0  0  0  0  0  0  0  0  0  0  0
  144.2721  144.5271  155.5901 C   0  0  0  0  0  0  0  0  0  0  0  0
  144.2902  145.3364  154.4352 C   0  0  0  0  0  0  0  0  0  0  0  0
  143.5243  146.4521  154.3859 F   0  0  0  0  0  0  0  0  0  0  0  0
  145.1009  144.9913  153.3334 C   0  0  0  0  0  0  0  0  0  0  0  0
  145.1136  145.7750  152.2292 F   0  0  0  0  0  0  0  0  0  0  0  0
  145.8992  143.8323  153.3787 C   0  0  0  0  0  0  0  0  0  0  0  0
  145.8775  143.0277  154.5328 C   0  0  0  0  0  0  0  0  0  0  0  0
  152.5610  138.4866  159.3005 H   0  0  0  0  0  0  0  0  0  0  0  0
  152.6848  139.6212  160.6392 H   0  0  0  0  0  0  0  0  0  0  0  0
  153.6818  139.8377  159.1796 H   0  0  0  0  0  0  0  0  0  0  0  0
  153.4095  141.8177  160.4584 H   0  0  0  0  0  0  0  0  0  0  0  0
  153.2575  144.2441  160.7651 H   0  0  0  0  0  0  0  0  0  0  0  0
  151.4303  145.5410  159.6871 H   0  0  0  0  0  0  0  0  0  0  0  0
  149.7437  144.3809  158.2914 H   0  0  0  0  0  0  0  0  0  0  0  0
  148.9642  141.0435  158.3115 H   0  0  0  0  0  0  0  0  0  0  0  0
  148.8983  142.4769  157.3015 H   0  0  0  0  0  0  0  0  0  0  0  0
  149.5956  139.3619  155.4899 H   0  0  0  0  0  0  0  0  0  0  0  0
  148.3253  140.1741  156.3926 H   0  0  0  0  0  0  0  0  0  0  0  0
  149.0776  142.2911  154.8974 H   0  0  0  0  0  0  0  0  0  0  0  0
  149.3728  140.3250  152.9776 H   0  0  0  0  0  0  0  0  0  0  0  0
  147.3883  141.3578  153.0723 H   0  0  0  0  0  0  0  0  0  0  0  0
  147.1807  140.0249  154.1844 H   0  0  0  0  0  0  0  0  0  0  0  0
  146.4250  140.7142  156.6851 H   0  0  0  0  0  0  0  0  0  0  0  0
  143.6484  144.8016  156.4276 H   0  0  0  0  0  0  0  0  0  0  0  0
  146.5235  143.5672  152.5386 H   0  0  0  0  0  0  0  0  0  0  0  0
  1  2  1  0  0  0  0
  1 26  1  0  0  0  0
  1 27  1  0  0  0  0
  1 28  1  0  0  0  0
  2  3  1  0  0  0  0
  3  8  1  0  0  0  0
  3  4  2  0  0  0  0
  4  5  1  0  0  0  0
  4 29  1  0  0  0  0
  5  6  2  0  0  0  0
  5 30  1  0  0  0  0
  6  7  1  0  0  0  0
  6 31  1  0  0  0  0
  7  8  2  0  0  0  0
  7 32  1  0  0  0  0
  8  9  1  0  0  0  0
  9 10  1  0  0  0  0
  9 33  1  0  0  0  0
  9 34  1  0  0  0  0
 10 11  1  0  0  0  0
 11 12  1  0  0  0  0
 11 35  1  0  0  0  0
 11 36  1  0  0  0  0
 12 13  1  0  0  0  0
 12 14  1  0  0  0  0
 12 37  1  0  0  0  0
 13 38  1  0  0  0  0
 14 15  1  0  0  0  0
 14 39  1  0  0  0  0
 14 40  1  0  0  0  0
 15 25  1  0  0  0  0
 15 16  1  0  0  0  0
 16 17  2  0  0  0  0
 16 41  1  0  0  0  0
 17 18  1  0  0  0  0
 18 25  2  0  0  0  0
 18 19  1  0  0  0  0
 19 20  2  0  0  0  0
 19 42  1  0  0  0  0
 20 21  1  0  0  0  0
 20 22  1  0  0  0  0
 22 23  1  0  0  0  0
 22 24  2  0  0  0  0
 24 25  1  0  0  0  0
 24 43  1  0  0  0  0
M  END
> <s_m_source_file>
AV-unprocessed.smi

> <i_m_source_file_index>
1012

> <i_lp_mmshare_version>
43012

> <i_f3d_flags>
0

> <s_epik_input>
W0NIM11PYzFbY0hdW2NIXVtjSF1bY0hdYzFbQ0gyXU9bQ0gyXVtDQEhdKFtPSF0pW0NIMl1uKFtjSF1uMiljKGMyMylbY0hdYyhGKWMoRilbY0hdMw==

> <s_epik_cmdline>
J2VwaWtfcHl0aG9uJywgJy1waCcsICc3LjAnLCAnLXRuJywgJzgnLCAnLW1hJywgJzIwMCcsICctbWV0YWxfYmluZGluZycsICctaW1hZScsICc8aW5maWxlLm1hZT4nLCAnLW9tYWUnLCAnPG91dGZpbGUubWFlPic=

> <r_lp_tautomer_probability>
1

> <r_epik_Ionization_Penalty>
0.0160257

> <r_epik_Ionization_Penalty_Charging>
0

> <r_epik_Ionization_Penalty_Neutral>
0.0160257

> <r_epik_State_Penalty>
0.0126263

> <r_epik_Charging_Adjusted_Penalty>
0.0126263

> <i_epik_Tot_Q>
0

> <i_epik_Tot_abs_Q>
0

> <r_epik_Metal_State_Penalty>
1.27616e-05

> <b_epik_Metal_Only>
0

> <s_lp_Force_Field>
OPLS_2005

> <r_lp_Energy>
17.5925

> <b_lp_Chiralities_Consistent>
1

> <s_lp_Variant>
AV-unprocessed.smi:1012-2

> <Gold.Version>
5.8.1

> <Gold.Id.Protein>
6NUR|6NUR_protein|mol2

> <Gold.PLP.Fitness>
57.4433

> <Gold.PLP.PLP>
-53.9141

> <Gold.PLP.part.hbond>
-2.4362

> <Gold.PLP.part.metal>
0.0000

> <Gold.PLP.part.buried>
-4.2022

> <Gold.PLP.part.nonpolar>
-47.6392

> <Gold.PLP.part.repulsive>
0.1192

> <Gold.PLP.ligand.clash>
0.0000

> <Gold.PLP.ligand.torsion>
1.0705

> <Gold.PLP.Chemscore.Hbond>
1.8480

> <Gold.PLP.Chemscore.CHOScore>
0.0000

> <Gold.PLP.Chemscore.Metal>
0.0000

> <Gold.Chemscore.Hbonds>
donor molecule, donor type, donor heavy atom, donor atom, acceptor molecule, acceptor atom, score
      L1  H    13    38       P1  7957  0.59
      P1  H  7989  7998       L1    13  0.32
      P1  H  8011  8017       L1    13  0.75

> <Gold.PLP.Chemscore.Internal.Correction>
0.1263

> <Gold.Rescore>
     Score         DG    S(hbond)    S(metal)    S(lipo)     H(rot)  DE(clash)    DE(int)     intcor
     13.54     -16.98       1.15        0.00     129.59       2.93       0.87       2.58       ----

> <Gold.Chemscore.Fitness>
13.5410

> <Gold.Chemscore.DG>
-16.9840

> <Gold.Chemscore.ZeroCoef>
-5.4800

> <Gold.Chemscore.Hbond>
1.1531

> <Gold.Chemscore.Metal>
0.0000

> <Gold.Chemscore.Lipo>
129.5920

> <Gold.Chemscore.Internal_Hbond>
0.0000

> <Gold.Chemscore.DEClash>
0.8659

> <Gold.Chemscore.DEInternal>
2.5771

> <Gold.Chemscore.Rot>
2.9335

> <Gold.Chemscore.Internal.Correction>
   9.000000E+99

> <Gold.Chemscore.Hbonds>
donor molecule, donor type, donor heavy atom, donor atom, acceptor molecule, acceptor atom, score
      L1  H    13    38       P1  7957  0.60
      P1  H  7989  7998       L1    13  0.29
      P1  H  8011  8017       L1    13  0.05

> <Gold.Chemscore.Hbond.Weighted>
-3.8514

> <Gold.Chemscore.Metal.Weighted>
-0.0000

> <Gold.Chemscore.Lipo.Weighted>
-15.1623

> <Gold.Chemscore.Internal_Hbond.Weighted>
0.0000

> <Gold.Chemscore.DEClash.Weighted>
0.8659

> <Gold.Chemscore.DEInternal.Weighted>
2.5771

> <Gold.Chemscore.Rot.Weighted>
7.5097

> <Gold.Chemscore.Internal.Correction.Weighted>
   9.000000E+99

> <Gold.Protein.RotatedTorsions>
[ 6907 6896 6895 6894 ] final -161.42 input  -60.11 | X-H torsion
[ 7974 7965 7964 7962 ] final -116.34 input  175.53 | X-H torsion
[ 8008 7997 7996 7995 ] final   53.04 input   59.86 | X-H torsion
[ 10167 10162 10161 10158 ] final  121.36 input  -65.29 | X-H torsion
[ 10718 10713 10712 10709 ] final  -55.02 input   66.30 | X-H torsion
[ 10763 10752 10751 10750 ] final   92.22 input  -60.55 | X-H torsion
[ 11005 11000 10999 10996 ] final  158.95 input  -57.11 | X-H torsion

> <Gold.Protein.ActiveResidues>
 VAL166  LYS551  ARG553  GLY616  TRP617  ASP618  TYR619  PRO620  LYS621  CYS622 
 ASP623  PHE694  ASN695  SER759  ASP760  ASP761  ALA762  ILE779  LEU786  VAL792 
 PHE793  MET794  SER795  GLU796  ALA797  LYS798  CYS799  TRP800  GLU811  SER814 

> <Gold.Protein.RotatedAtoms>
  151.3644  133.3878  159.2692 H   0  0  0  0  0  0  0  0  0  0  0  0  # atno 6907 bound_to 6896
  150.9700  134.9076  159.7793 H   0  0  0  0  0  0  0  0  0  0  0  0  # atno 6908 bound_to 6896
  152.5181  134.3605  159.9335 H   0  0  0  0  0  0  0  0  0  0  0  0  # atno 6909 bound_to 6896
  145.0979  140.8533  143.3943 H   0  0  0  0  0  0  0  0  0  0  0  0  # atno 7974 bound_to 7965
  155.4618  140.3462  155.4314 H   0  0  0  0  0  0  0  0  0  0  0  0  # atno 8008 bound_to 7997
  156.1156  140.1473  156.9306 H   0  0  0  0  0  0  0  0  0  0  0  0  # atno 8009 bound_to 7997
  154.4787  140.0877  156.7303 H   0  0  0  0  0  0  0  0  0  0  0  0  # atno 8010 bound_to 7997
  139.5924  144.7030  151.3257 H   0  0  0  0  0  0  0  0  0  0  0  0  # atno 10167 bound_to 10162
  156.1402  130.4155  150.0115 H   0  0  0  0  0  0  0  0  0  0  0  0  # atno 10718 bound_to 10713
  153.2167  135.4369  155.0443 H   0  0  0  0  0  0  0  0  0  0  0  0  # atno 10763 bound_to 10752
  154.8229  135.3346  154.6987 H   0  0  0  0  0  0  0  0  0  0  0  0  # atno 10764 bound_to 10752
  153.7422  135.7004  153.5020 H   0  0  0  0  0  0  0  0  0  0  0  0  # atno 10765 bound_to 10752
  140.1914  134.8404  157.2917 H   0  0  0  0  0  0  0  0  0  0  0  0  # atno 11005 bound_to 11000
  145.0989  139.2836  143.5696 LP  0  0  0  0  0  0  0  0  0  0  0  0  # atno 17320 bound_to 7965
  146.3530  140.0550  142.8633 LP  0  0  0  0  0  0  0  0  0  0  0  0  # atno 17321 bound_to 7965
  140.7184  143.7203  150.7701 LP  0  0  0  0  0  0  0  0  0  0  0  0  # atno 17342 bound_to 10162
  140.0761  143.5013  152.2554 LP  0  0  0  0  0  0  0  0  0  0  0  0  # atno 17343 bound_to 10162
  156.8003  130.9288  151.3646 LP  0  0  0  0  0  0  0  0  0  0  0  0  # atno 17370 bound_to 10713
  157.6569  130.8932  149.9748 LP  0  0  0  0  0  0  0  0  0  0  0  0  # atno 17371 bound_to 10713
  140.2155  134.4087  155.7591 LP  0  0  0  0  0  0  0  0  0  0  0  0  # atno 17394 bound_to 11000
  141.2226  133.7139  156.8406 LP  0  0  0  0  0  0  0  0  0  0  0  0  # atno 17395 bound_to 11000

$$$$
