AV-unprocessed.smi:487|AV-procd|sdf|2700|dock9
  -GOLD-   2262023133D 1   1.00000     0.00000
 Structure written by MMmdl.
 40 41  0  0  0  0  0  0  0  0  2 V2000
  152.3598  140.1617  156.2559 O   0  0  0  0  0  0  0  0  0  0  0  0
  151.1783  140.4854  156.1362 C   0  0  0  0  0  0  0  0  0  0  0  0
  150.3363  139.8413  155.0209 C   0  0  0  0  0  0  0  0  0  0  0  0
  150.3083  138.3669  155.0369 N   0  0  0  0  0  0  0  0  0  0  0  0
  149.0710  137.7434  155.2765 C   0  0  0  0  0  0  0  0  0  0  0  0
  148.9469  136.4032  155.3192 C   0  0  0  0  0  0  0  0  0  0  0  0
  150.1398  135.5926  155.1086 C   0  0  0  0  0  0  0  0  0  0  0  0
  150.0453  134.3673  155.1433 O   0  0  0  0  0  0  0  0  0  0  0  0
  151.3178  136.2442  154.8818 N   0  5  0  0  0  0  0  0  0  0  0  0
  151.4295  137.6081  154.8433 C   0  0  0  0  0  0  0  0  0  0  0  0
  152.5043  138.1759  154.6485 O   0  0  0  0  0  0  0  0  0  0  0  0
  150.5846  141.3883  156.9359 N   0  0  0  0  0  0  0  0  0  0  0  0
  151.2088  142.0959  158.0507 C   0  0  0  0  0  0  0  0  0  0  0  0
  151.9471  143.3463  157.5184 C   0  0  0  0  0  0  0  0  0  0  0  0
  151.5122  144.6779  158.1606 C   0  0  0  0  0  0  0  0  0  0  0  0
  151.3283  144.7072  159.6925 C   0  0  0  0  0  0  0  0  0  0  0  0
  152.5053  144.1848  160.5348 C   0  0  0  0  0  0  0  0  0  0  0  0
  152.4441  142.6853  160.8996 C   0  0  0  0  0  0  0  0  0  0  0  0
  153.0803  141.7348  159.8705 C   0  0  0  0  0  0  0  0  0  0  0  0
  152.1272  141.1220  158.8235 C   0  0  0  0  0  0  0  0  0  0  0  0
  149.3210  140.2323  155.0979 H   0  0  0  0  0  0  0  0  0  0  0  0
  150.7034  140.2019  154.0586 H   0  0  0  0  0  0  0  0  0  0  0  0
  148.2391  138.4154  155.4279 H   0  0  0  0  0  0  0  0  0  0  0  0
  147.9894  135.9401  155.5071 H   0  0  0  0  0  0  0  0  0  0  0  0
  149.6085  141.5850  156.7660 H   0  0  0  0  0  0  0  0  0  0  0  0
  150.4043  142.4087  158.7148 H   0  0  0  0  0  0  0  0  0  0  0  0
  153.0245  143.2311  157.6238 H   0  0  0  0  0  0  0  0  0  0  0  0
  151.8005  143.4418  156.4411 H   0  0  0  0  0  0  0  0  0  0  0  0
  152.2328  145.4449  157.8751 H   0  0  0  0  0  0  0  0  0  0  0  0
  150.5682  144.9840  157.7081 H   0  0  0  0  0  0  0  0  0  0  0  0
  151.1623  145.7498  159.9656 H   0  0  0  0  0  0  0  0  0  0  0  0
  150.4076  144.2029  159.9848 H   0  0  0  0  0  0  0  0  0  0  0  0
  153.4599  144.4442  160.0757 H   0  0  0  0  0  0  0  0  0  0  0  0
  152.4840  144.7350  161.4763 H   0  0  0  0  0  0  0  0  0  0  0  0
  153.0076  142.5668  161.8259 H   0  0  0  0  0  0  0  0  0  0  0  0
  151.4274  142.3750  161.1441 H   0  0  0  0  0  0  0  0  0  0  0  0
  153.9263  142.2222  159.3865 H   0  0  0  0  0  0  0  0  0  0  0  0
  153.5241  140.9010  160.4156 H   0  0  0  0  0  0  0  0  0  0  0  0
  151.5019  140.3779  159.3185 H   0  0  0  0  0  0  0  0  0  0  0  0
  152.7361  140.5630  158.1111 H   0  0  0  0  0  0  0  0  0  0  0  0
  1  2  2  0  0  0  0
  2  3  1  0  0  0  0
  2 12  1  0  0  0  0
  3  4  1  0  0  0  0
  3 21  1  0  0  0  0
  3 22  1  0  0  0  0
  4 10  1  0  0  0  0
  4  5  1  0  0  0  0
  5  6  2  0  0  0  0
  5 23  1  0  0  0  0
  6  7  1  0  0  0  0
  6 24  1  0  0  0  0
  7  8  2  0  0  0  0
  7  9  1  0  0  0  0
  9 10  1  0  0  0  0
 10 11  2  0  0  0  0
 12 13  1  0  0  0  0
 12 25  1  0  0  0  0
 13 20  1  0  0  0  0
 13 14  1  0  0  0  0
 13 26  1  0  0  0  0
 14 15  1  0  0  0  0
 14 27  1  0  0  0  0
 14 28  1  0  0  0  0
 15 16  1  0  0  0  0
 15 29  1  0  0  0  0
 15 30  1  0  0  0  0
 16 17  1  0  0  0  0
 16 31  1  0  0  0  0
 16 32  1  0  0  0  0
 17 18  1  0  0  0  0
 17 33  1  0  0  0  0
 17 34  1  0  0  0  0
 18 19  1  0  0  0  0
 18 35  1  0  0  0  0
 18 36  1  0  0  0  0
 19 20  1  0  0  0  0
 19 37  1  0  0  0  0
 19 38  1  0  0  0  0
 20 39  1  0  0  0  0
 20 40  1  0  0  0  0
M  CHG  1   9  -1
M  END
> <s_m_source_file>
AV-unprocessed.smi

> <i_m_source_file_index>
487

> <i_lp_mmshare_version>
43012

> <i_f3d_flags>
0

> <s_epik_input>
Tz1jMVtuSF1jKD1PKVtjSF1bY0hdbjFbQ0gyXUMoPU8pW05IXVtDSF0yW0NIMl1bQ0gyXVtDSDJdW0NIMl1bQ0gyXVtDSDJdW0NIMl0y

> <s_epik_cmdline>
J2VwaWtfcHl0aG9uJywgJy1waCcsICc3LjAnLCAnLXRuJywgJzgnLCAnLW1hJywgJzIwMCcsICctbWV0YWxfYmluZGluZycsICctaW1hZScsICc8aW5maWxlLm1hZT4nLCAnLW9tYWUnLCAnPG91dGZpbGUubWFlPic=

> <r_lp_tautomer_probability>
0.999537

> <r_epik_Ionization_Penalty>
3.09244

> <r_epik_Ionization_Penalty_Charging>
2.84692e-08

> <r_epik_Ionization_Penalty_Neutral>
3.09244

> <r_epik_State_Penalty>
3.09149

> <r_epik_Charging_Adjusted_Penalty>
3.09149

> <i_epik_Tot_Q>
-1

> <i_epik_Tot_abs_Q>
1

> <r_epik_Metal_State_Penalty>
0.461034

> <b_epik_Metal_Only>
1

> <s_lp_Force_Field>
OPLS_2005

> <r_lp_Energy>
30.2877

> <b_lp_Chiralities_Consistent>
1

> <s_lp_Variant>
AV-unprocessed.smi:487-2

> <Gold.Version>
5.8.1

> <Gold.Id.Protein>
6NUR|6NUR_protein|mol2

> <Gold.PLP.Fitness>
47.9313

> <Gold.PLP.PLP>
-39.6241

> <Gold.PLP.part.hbond>
-2.1217

> <Gold.PLP.part.metal>
0.0000

> <Gold.PLP.part.buried>
-5.8733

> <Gold.PLP.part.nonpolar>
-31.2457

> <Gold.PLP.part.repulsive>
0.3676

> <Gold.PLP.ligand.clash>
0.0000

> <Gold.PLP.ligand.torsion>
0.3528

> <Gold.PLP.Chemscore.Hbond>
3.0000

> <Gold.PLP.Chemscore.CHOScore>
0.0000

> <Gold.PLP.Chemscore.Metal>
0.0000

> <Gold.Chemscore.Hbonds>
donor molecule, donor type, donor heavy atom, donor atom, acceptor molecule, acceptor atom, score
      P1  H  7997  8008       L1     1  1.00
      P1  H 10752 10765       L1     9  2.00

> <Gold.PLP.Chemscore.Internal.Correction>
0.0127

> <Gold.Rescore>
     Score         DG    S(hbond)    S(metal)    S(lipo)     H(rot)  DE(clash)    DE(int)     intcor
     15.11     -18.78       1.88        0.00      96.04       1.64       0.26       3.41       ----

> <Gold.Chemscore.Fitness>
15.1099

> <Gold.Chemscore.DG>
-18.7829

> <Gold.Chemscore.ZeroCoef>
-5.4800

> <Gold.Chemscore.Hbond>
1.8785

> <Gold.Chemscore.Metal>
0.0000

> <Gold.Chemscore.Lipo>
96.0400

> <Gold.Chemscore.Internal_Hbond>
0.0000

> <Gold.Chemscore.DEClash>
0.2588

> <Gold.Chemscore.DEInternal>
3.4142

> <Gold.Chemscore.Rot>
1.6438

> <Gold.Chemscore.Internal.Correction>
   9.000000E+99

> <Gold.Chemscore.Hbonds>
donor molecule, donor type, donor heavy atom, donor atom, acceptor molecule, acceptor atom, score
      P1  H  7997  8008       L1     1  0.97
      P1  H 10752 10765       L1     9  0.60

> <Gold.Chemscore.Hbond.Weighted>
-6.2742

> <Gold.Chemscore.Metal.Weighted>
-0.0000

> <Gold.Chemscore.Lipo.Weighted>
-11.2367

> <Gold.Chemscore.Internal_Hbond.Weighted>
0.0000

> <Gold.Chemscore.DEClash.Weighted>
0.2588

> <Gold.Chemscore.DEInternal.Weighted>
3.4142

> <Gold.Chemscore.Rot.Weighted>
4.2080

> <Gold.Chemscore.Internal.Correction.Weighted>
   9.000000E+99

> <Gold.Protein.RotatedTorsions>
[ 6907 6896 6895 6894 ] final  -39.29 input  -60.11 | X-H torsion
[ 7974 7965 7964 7962 ] final  165.80 input  175.53 | X-H torsion
[ 8008 7997 7996 7995 ] final  -37.61 input   59.86 | X-H torsion
[ 10167 10162 10161 10158 ] final -166.11 input  -65.29 | X-H torsion
[ 10718 10713 10712 10709 ] final  179.45 input   66.30 | X-H torsion
[ 10763 10752 10751 10750 ] final -177.70 input  -60.55 | X-H torsion
[ 11005 11000 10999 10996 ] final  162.53 input  -57.11 | X-H torsion

> <Gold.Protein.ActiveResidues>
 VAL166  LYS551  ARG553  GLY616  TRP617  ASP618  TYR619  PRO620  LYS621  CYS622 
 ASP623  PHE694  ASN695  SER759  ASP760  ASP761  ALA762  ILE779  LEU786  VAL792 
 PHE793  MET794  SER795  GLU796  ALA797  LYS798  CYS799  TRP800  GLU811  SER814 

> <Gold.Protein.RotatedAtoms>
  150.9921  134.9254  159.7905 H   0  0  0  0  0  0  0  0  0  0  0  0  # atno 6907 bound_to 6896
  152.5254  134.3267  159.9178 H   0  0  0  0  0  0  0  0  0  0  0  0  # atno 6908 bound_to 6896
  151.3273  133.3974  159.2694 H   0  0  0  0  0  0  0  0  0  0  0  0  # atno 6909 bound_to 6896
  144.7488  139.8523  143.6373 H   0  0  0  0  0  0  0  0  0  0  0  0  # atno 7974 bound_to 7965
  154.4050  140.1600  156.2564 H   0  0  0  0  0  0  0  0  0  0  0  0  # atno 8008 bound_to 7997
  155.9074  140.3429  155.6050 H   0  0  0  0  0  0  0  0  0  0  0  0  # atno 8009 bound_to 7997
  155.7376  140.0788  157.2251 H   0  0  0  0  0  0  0  0  0  0  0  0  # atno 8010 bound_to 7997
  139.6137  144.0764  152.1867 H   0  0  0  0  0  0  0  0  0  0  0  0  # atno 10167 bound_to 10162
  156.8756  130.9798  151.3068 H   0  0  0  0  0  0  0  0  0  0  0  0  # atno 10718 bound_to 10713
  154.5569  135.2817  155.0956 H   0  0  0  0  0  0  0  0  0  0  0  0  # atno 10763 bound_to 10752
  154.2380  135.6362  153.5201 H   0  0  0  0  0  0  0  0  0  0  0  0  # atno 10764 bound_to 10752
  153.0018  135.5553  154.6151 H   0  0  0  0  0  0  0  0  0  0  0  0  # atno 10765 bound_to 10752
  140.2267  134.8155  157.3275 H   0  0  0  0  0  0  0  0  0  0  0  0  # atno 11005 bound_to 11000
  146.1407  139.4463  143.0111 LP  0  0  0  0  0  0  0  0  0  0  0  0  # atno 17320 bound_to 7965
  145.7023  141.0132  143.1498 LP  0  0  0  0  0  0  0  0  0  0  0  0  # atno 17321 bound_to 7965
  140.0388  144.6023  150.7427 LP  0  0  0  0  0  0  0  0  0  0  0  0  # atno 17342 bound_to 10162
  140.7336  143.2719  151.3861 LP  0  0  0  0  0  0  0  0  0  0  0  0  # atno 17343 bound_to 10162
  157.6170  130.8626  149.9045 LP  0  0  0  0  0  0  0  0  0  0  0  0  # atno 17370 bound_to 10713
  156.0704  130.3686  150.0788 LP  0  0  0  0  0  0  0  0  0  0  0  0  # atno 17371 bound_to 10713
  140.1793  134.4510  155.7782 LP  0  0  0  0  0  0  0  0  0  0  0  0  # atno 17394 bound_to 11000
  141.2220  133.6976  156.7841 LP  0  0  0  0  0  0  0  0  0  0  0  0  # atno 17395 bound_to 11000

$$$$
