AV-unprocessed.smi:485|AV-procd|sdf|2691|dock10
  -GOLD-   2262023123D 1   1.00000     0.00000
 Structure written by MMmdl.
 36 38  0  0  0  0  0  0  0  0  1 V2000
  153.2230  139.4455  155.0645 O   0  0  0  0  0  0  0  0  0  0  0  0
  152.0901  138.7462  155.5323 C   0  0  0  0  0  0  0  0  0  0  0  0
  150.7995  139.3006  155.0086 C   0  0  0  0  0  0  0  0  0  0  0  0
  150.0082  138.5874  154.2061 N   0  0  0  0  0  0  0  0  0  0  0  0
  148.9454  139.4414  153.9879 C   0  0  0  0  0  0  0  0  0  0  0  0
  147.7709  139.2679  153.2211 C   0  0  0  0  0  0  0  0  0  0  0  0
  146.8058  140.2939  153.1513 C   0  0  0  0  0  0  0  0  0  0  0  0
  146.9997  141.5045  153.8473 C   0  0  0  0  0  0  0  0  0  0  0  0
  148.1633  141.6979  154.6165 C   0  0  0  0  0  0  0  0  0  0  0  0
  149.1261  140.6724  154.6794 C   0  0  0  0  0  0  0  0  0  0  0  0
  150.3539  140.5452  155.3225 N   0  0  0  0  0  0  0  0  0  0  0  0
  150.9852  141.5560  156.1634 C   0  0  0  0  0  0  0  0  0  0  0  0
  150.2790  141.7319  157.5239 C   0  0  2  0  0  0  0  0  0  0  0  0
  149.1062  142.5064  157.3693 O   0  0  0  0  0  0  0  0  0  0  0  0
  151.2215  142.3179  158.5633 C   0  0  0  0  0  0  0  0  0  0  0  0
  151.5219  143.6971  158.5455 C   0  0  0  0  0  0  0  0  0  0  0  0
  152.3897  144.2473  159.5090 C   0  0  0  0  0  0  0  0  0  0  0  0
  152.9599  143.4220  160.4973 C   0  0  0  0  0  0  0  0  0  0  0  0
  152.6602  142.0465  160.5230 C   0  0  0  0  0  0  0  0  0  0  0  0
  151.7927  141.4958  159.5598 C   0  0  0  0  0  0  0  0  0  0  0  0
  153.3994  139.1718  154.1777 H   0  0  0  0  0  0  0  0  0  0  0  0
  152.1822  137.7025  155.2296 H   0  0  0  0  0  0  0  0  0  0  0  0
  152.0778  138.7516  156.6220 H   0  0  0  0  0  0  0  0  0  0  0  0
  147.6119  138.3429  152.6867 H   0  0  0  0  0  0  0  0  0  0  0  0
  145.9119  140.1505  152.5622 H   0  0  0  0  0  0  0  0  0  0  0  0
  146.2549  142.2848  153.7905 H   0  0  0  0  0  0  0  0  0  0  0  0
  148.3130  142.6238  155.1513 H   0  0  0  0  0  0  0  0  0  0  0  0
  152.0219  141.2568  156.3219 H   0  0  0  0  0  0  0  0  0  0  0  0
  151.0232  142.5076  155.6350 H   0  0  0  0  0  0  0  0  0  0  0  0
  149.9515  140.7553  157.8811 H   0  0  0  0  0  0  0  0  0  0  0  0
  149.2771  143.1847  156.7345 H   0  0  0  0  0  0  0  0  0  0  0  0
  151.0877  144.3393  157.7930 H   0  0  0  0  0  0  0  0  0  0  0  0
  152.6175  145.3029  159.4905 H   0  0  0  0  0  0  0  0  0  0  0  0
  153.6253  143.8444  161.2357 H   0  0  0  0  0  0  0  0  0  0  0  0
  153.0956  141.4131  161.2819 H   0  0  0  0  0  0  0  0  0  0  0  0
  151.5655  140.4399  159.5890 H   0  0  0  0  0  0  0  0  0  0  0  0
  1  2  1  0  0  0  0
  1 21  1  0  0  0  0
  2  3  1  0  0  0  0
  2 22  1  0  0  0  0
  2 23  1  0  0  0  0
  3 11  1  0  0  0  0
  3  4  2  0  0  0  0
  4  5  1  0  0  0  0
  5 10  2  0  0  0  0
  5  6  1  0  0  0  0
  6  7  2  0  0  0  0
  6 24  1  0  0  0  0
  7  8  1  0  0  0  0
  7 25  1  0  0  0  0
  8  9  2  0  0  0  0
  8 26  1  0  0  0  0
  9 10  1  0  0  0  0
  9 27  1  0  0  0  0
 10 11  1  0  0  0  0
 11 12  1  0  0  0  0
 12 13  1  0  0  0  0
 12 28  1  0  0  0  0
 12 29  1  0  0  0  0
 13 14  1  0  0  0  0
 13 15  1  0  0  0  0
 13 30  1  0  0  0  0
 14 31  1  0  0  0  0
 15 20  1  0  0  0  0
 15 16  2  0  0  0  0
 16 17  1  0  0  0  0
 16 32  1  0  0  0  0
 17 18  2  0  0  0  0
 17 33  1  0  0  0  0
 18 19  1  0  0  0  0
 18 34  1  0  0  0  0
 19 20  2  0  0  0  0
 19 35  1  0  0  0  0
 20 36  1  0  0  0  0
M  END
> <s_m_source_file>
AV-unprocessed.smi

> <i_m_source_file_index>
485

> <i_lp_mmshare_version>
43012

> <i_f3d_flags>
0

> <s_epik_input>
W2NIXTFbY0hdW2NIXVtjSF1jKGMxMiluKGMobjIpW0NIMl1bT0hdKVtDSDJdW0NASF0oW09IXSljM1tjSF1bY0hdW2NIXVtjSF1bY0hdMw==

> <s_epik_cmdline>
J2VwaWtfcHl0aG9uJywgJy1waCcsICc3LjAnLCAnLXRuJywgJzgnLCAnLW1hJywgJzIwMCcsICctbWV0YWxfYmluZGluZycsICctaW1hZScsICc8aW5maWxlLm1hZT4nLCAnLW9tYWUnLCAnPG91dGZpbGUubWFlPic=

> <r_epik_Ionization_Penalty>
0.0634722

> <r_epik_Ionization_Penalty_Charging>
0

> <r_epik_Ionization_Penalty_Neutral>
0.0634722

> <r_epik_State_Penalty>
0.0551572

> <r_epik_Charging_Adjusted_Penalty>
0.0551572

> <i_epik_Tot_Q>
0

> <i_epik_Tot_abs_Q>
0

> <r_epik_Metal_State_Penalty>
5.78034e-05

> <b_epik_Metal_Only>
0

> <s_lp_Force_Field>
OPLS_2005

> <r_lp_Energy>
12.7627

> <b_lp_Chiralities_Consistent>
1

> <s_lp_Variant>
AV-unprocessed.smi:485-1

> <Gold.Version>
5.8.1

> <Gold.Id.Protein>
6NUR|6NUR_protein|mol2

> <Gold.PLP.Fitness>
50.1747

> <Gold.PLP.PLP>
-45.6007

> <Gold.PLP.part.hbond>
-2.3562

> <Gold.PLP.part.metal>
0.0000

> <Gold.PLP.part.buried>
-1.2366

> <Gold.PLP.part.nonpolar>
-41.7921

> <Gold.PLP.part.repulsive>
0.2233

> <Gold.PLP.ligand.clash>
0.0000

> <Gold.PLP.ligand.torsion>
0.7275

> <Gold.PLP.Chemscore.Hbond>
2.0000

> <Gold.PLP.Chemscore.CHOScore>
0.0000

> <Gold.PLP.Chemscore.Metal>
0.0000

> <Gold.Chemscore.Hbonds>
donor molecule, donor type, donor heavy atom, donor atom, acceptor molecule, acceptor atom, score
      L1  H    14    31       P1  8028  1.00
      P1  H  7997  8010       L1     1  1.00

> <Gold.PLP.Chemscore.Internal.Correction>
0.0291

> <Gold.Rescore>
     Score         DG    S(hbond)    S(metal)    S(lipo)     H(rot)  DE(clash)    DE(int)     intcor
     18.86     -20.19       1.95        0.00     127.39       2.62       0.25       1.09       ----

> <Gold.Chemscore.Fitness>
18.8590

> <Gold.Chemscore.DG>
-20.1895

> <Gold.Chemscore.ZeroCoef>
-5.4800

> <Gold.Chemscore.Hbond>
1.9520

> <Gold.Chemscore.Metal>
0.0000

> <Gold.Chemscore.Lipo>
127.3950

> <Gold.Chemscore.Internal_Hbond>
0.0000

> <Gold.Chemscore.DEClash>
0.2455

> <Gold.Chemscore.DEInternal>
1.0850

> <Gold.Chemscore.Rot>
2.6232

> <Gold.Chemscore.Internal.Correction>
   9.000000E+99

> <Gold.Chemscore.Hbonds>
donor molecule, donor type, donor heavy atom, donor atom, acceptor molecule, acceptor atom, score
      L1  H    14    31       P1  8028  0.97
      P1  H  7997  8010       L1     1  0.97

> <Gold.Chemscore.Hbond.Weighted>
-6.5198

> <Gold.Chemscore.Metal.Weighted>
-0.0000

> <Gold.Chemscore.Lipo.Weighted>
-14.9052

> <Gold.Chemscore.Internal_Hbond.Weighted>
0.0000

> <Gold.Chemscore.DEClash.Weighted>
0.2455

> <Gold.Chemscore.DEInternal.Weighted>
1.0850

> <Gold.Chemscore.Rot.Weighted>
6.7154

> <Gold.Chemscore.Internal.Correction.Weighted>
   9.000000E+99

> <Gold.Protein.RotatedTorsions>
[ 6907 6896 6895 6894 ] final  155.86 input  -60.11 | X-H torsion
[ 7974 7965 7964 7962 ] final  153.84 input  175.53 | X-H torsion
[ 8008 7997 7996 7995 ] final  101.10 input   59.86 | X-H torsion
[ 10167 10162 10161 10158 ] final  -84.62 input  -65.29 | X-H torsion
[ 10718 10713 10712 10709 ] final  112.07 input   66.30 | X-H torsion
[ 10763 10752 10751 10750 ] final   32.61 input  -60.55 | X-H torsion
[ 11005 11000 10999 10996 ] final -163.87 input  -57.11 | X-H torsion

> <Gold.Protein.ActiveResidues>
 VAL166  LYS551  ARG553  GLY616  TRP617  ASP618  TYR619  PRO620  LYS621  CYS622 
 ASP623  PHE694  ASN695  SER759  ASP760  ASP761  ALA762  ILE779  LEU786  VAL792 
 PHE793  MET794  SER795  GLU796  ALA797  LYS798  CYS799  TRP800  GLU811  SER814 

> <Gold.Protein.RotatedAtoms>
  152.0380  133.3965  159.4324 H   0  0  0  0  0  0  0  0  0  0  0  0  # atno 6907 bound_to 6896
  150.6877  134.3447  159.4892 H   0  0  0  0  0  0  0  0  0  0  0  0  # atno 6908 bound_to 6896
  152.1241  134.9183  160.0612 H   0  0  0  0  0  0  0  0  0  0  0  0  # atno 6909 bound_to 6896
  144.8128  139.6853  143.6134 H   0  0  0  0  0  0  0  0  0  0  0  0  # atno 7974 bound_to 7965
  156.1267  140.3203  155.8288 H   0  0  0  0  0  0  0  0  0  0  0  0  # atno 8008 bound_to 7997
  155.4406  140.0525  157.3028 H   0  0  0  0  0  0  0  0  0  0  0  0  # atno 8009 bound_to 7997
  154.4868  140.2076  155.9650 H   0  0  0  0  0  0  0  0  0  0  0  0  # atno 8010 bound_to 7997
  140.4115  143.2621  151.9011 H   0  0  0  0  0  0  0  0  0  0  0  0  # atno 10167 bound_to 10162
  157.6412  131.0961  150.6842 H   0  0  0  0  0  0  0  0  0  0  0  0  # atno 10718 bound_to 10713
  153.0253  135.6408  154.1382 H   0  0  0  0  0  0  0  0  0  0  0  0  # atno 10763 bound_to 10752
  154.1112  135.2853  155.3231 H   0  0  0  0  0  0  0  0  0  0  0  0  # atno 10764 bound_to 10752
  154.6330  135.5486  153.7765 H   0  0  0  0  0  0  0  0  0  0  0  0  # atno 10765 bound_to 10752
  140.5933  134.5022  157.5196 H   0  0  0  0  0  0  0  0  0  0  0  0  # atno 11005 bound_to 11000
  146.2428  139.6037  142.9480 LP  0  0  0  0  0  0  0  0  0  0  0  0  # atno 17320 bound_to 7965
  145.5284  141.0428  143.2397 LP  0  0  0  0  0  0  0  0  0  0  0  0  # atno 17321 bound_to 7965
  139.4782  144.5532  151.8354 LP  0  0  0  0  0  0  0  0  0  0  0  0  # atno 17342 bound_to 10162
  140.4632  144.1692  150.5908 LP  0  0  0  0  0  0  0  0  0  0  0  0  # atno 17343 bound_to 10162
  156.7165  130.4668  149.5533 LP  0  0  0  0  0  0  0  0  0  0  0  0  # atno 17370 bound_to 10713
  156.1694  130.6427  151.0818 LP  0  0  0  0  0  0  0  0  0  0  0  0  # atno 17371 bound_to 10713
  139.9264  134.8047  156.1055 LP  0  0  0  0  0  0  0  0  0  0  0  0  # atno 17394 bound_to 11000
  141.0921  133.6710  156.2563 LP  0  0  0  0  0  0  0  0  0  0  0  0  # atno 17395 bound_to 11000

$$$$
