AV-unprocessed.smi:1630|AV-procd|sdf|6525|dock8
  -GOLD-   22720 7203D 1   1.00000     0.00000
 Structure written by MMmdl.
 36 37  0  0  0  0  0  0  0  0  1 V2000
  150.5873  129.8923  158.3251 C   0  0  0  0  0  0  0  0  0  0  0  0
  151.7400  131.0185  157.4390 S   0  0  0  0  0  0  0  0  0  0  0  0
  152.0993  132.1187  158.3472 O   0  0  0  0  0  0  0  0  0  0  0  0
  152.8023  130.1962  156.8391 O   0  0  0  0  0  0  0  0  0  0  0  0
  150.7413  131.6987  156.1187 C   0  0  0  0  0  0  0  0  0  0  0  0
  150.1766  130.8539  155.1420 C   0  0  0  0  0  0  0  0  0  0  0  0
  149.3715  131.4369  154.1446 C   0  0  0  0  0  0  0  0  0  0  0  0
  149.1484  132.8358  154.1747 C   0  0  0  0  0  0  0  0  0  0  0  0
  148.3739  133.5506  153.2206 N   0  0  0  0  0  0  0  0  0  0  0  0
  147.2453  133.1765  152.5856 C   0  0  0  0  0  0  0  0  0  0  0  0
  146.6602  132.1105  152.7621 O   0  0  0  0  0  0  0  0  0  0  0  0
  146.7769  134.0891  151.7145 N   0  0  0  0  0  0  0  0  0  0  0  0
  145.5848  134.0054  150.8666 C   0  0  0  0  0  0  0  0  0  0  0  0
  144.3109  133.9150  151.7280 C   0  0  0  0  0  0  0  0  0  0  0  0
  143.4643  132.7992  151.1144 C   0  0  0  0  0  0  0  0  0  0  0  0
  144.4880  131.8324  150.5299 C   0  0  0  0  0  0  0  0  0  0  0  0
  145.5922  132.7389  149.9843 C   0  0  0  0  0  0  0  0  0  0  0  0
  149.7630  133.5788  155.2056 C   0  0  0  0  0  0  0  0  0  0  0  0
  150.5360  133.0320  156.1672 N   0  0  0  0  0  0  0  0  0  0  0  0
  151.1072  129.4260  159.1615 H   0  0  0  0  0  0  0  0  0  0  0  0
  150.2341  129.1211  157.6410 H   0  0  0  0  0  0  0  0  0  0  0  0
  149.7373  130.4629  158.6990 H   0  0  0  0  0  0  0  0  0  0  0  0
  150.3574  129.7892  155.1468 H   0  0  0  0  0  0  0  0  0  0  0  0
  148.9564  130.8016  153.3787 H   0  0  0  0  0  0  0  0  0  0  0  0
  148.6997  134.4841  153.0157 H   0  0  0  0  0  0  0  0  0  0  0  0
  147.3251  134.9313  151.6123 H   0  0  0  0  0  0  0  0  0  0  0  0
  145.5185  134.8917  150.2331 H   0  0  0  0  0  0  0  0  0  0  0  0
  144.5605  133.6422  152.7549 H   0  0  0  0  0  0  0  0  0  0  0  0
  143.7716  134.8618  151.7695 H   0  0  0  0  0  0  0  0  0  0  0  0
  142.8041  132.3246  151.8411 H   0  0  0  0  0  0  0  0  0  0  0  0
  142.8440  133.2047  150.3142 H   0  0  0  0  0  0  0  0  0  0  0  0
  144.8891  131.1996  151.3227 H   0  0  0  0  0  0  0  0  0  0  0  0
  144.0634  131.1809  149.7657 H   0  0  0  0  0  0  0  0  0  0  0  0
  145.3545  133.0177  148.9570 H   0  0  0  0  0  0  0  0  0  0  0  0
  146.5564  132.2295  149.9605 H   0  0  0  0  0  0  0  0  0  0  0  0
  149.6268  134.6488  155.2645 H   0  0  0  0  0  0  0  0  0  0  0  0
  1  2  1  0  0  0  0
  1 20  1  0  0  0  0
  1 21  1  0  0  0  0
  1 22  1  0  0  0  0
  2  3  2  0  0  0  0
  2  4  2  0  0  0  0
  2  5  1  0  0  0  0
  5 19  1  0  0  0  0
  5  6  2  0  0  0  0
  6  7  1  0  0  0  0
  6 23  1  0  0  0  0
  7  8  2  0  0  0  0
  7 24  1  0  0  0  0
  8  9  1  0  0  0  0
  8 18  1  0  0  0  0
  9 10  1  0  0  0  0
  9 25  1  0  0  0  0
 10 11  2  0  0  0  0
 10 12  1  0  0  0  0
 12 13  1  0  0  0  0
 12 26  1  0  0  0  0
 13 17  1  0  0  0  0
 13 14  1  0  0  0  0
 13 27  1  0  0  0  0
 14 15  1  0  0  0  0
 14 28  1  0  0  0  0
 14 29  1  0  0  0  0
 15 16  1  0  0  0  0
 15 30  1  0  0  0  0
 15 31  1  0  0  0  0
 16 17  1  0  0  0  0
 16 32  1  0  0  0  0
 16 33  1  0  0  0  0
 17 34  1  0  0  0  0
 17 35  1  0  0  0  0
 18 19  2  0  0  0  0
 18 36  1  0  0  0  0
M  END
> <s_m_source_file>
AV-unprocessed.smi

> <i_m_source_file_index>
1630

> <i_lp_mmshare_version>
43012

> <i_f3d_flags>
0

> <s_epik_input>
W0NIM11TKD1PKSg9TyljMVtjSF1bY0hdYyhbY0hdbjEpW05IXUMoPU8pW05IXVtDSF0yW0NIMl1bQ0gyXVtDSDJdW0NIMl0y

> <s_epik_cmdline>
J2VwaWtfcHl0aG9uJywgJy1waCcsICc3LjAnLCAnLXRuJywgJzgnLCAnLW1hJywgJzIwMCcsICctbWV0YWxfYmluZGluZycsICctaW1hZScsICc8aW5maWxlLm1hZT4nLCAnLW9tYWUnLCAnPG91dGZpbGUubWFlPic=

> <r_lp_tautomer_probability>
1

> <r_epik_Ionization_Penalty>
4.04514e-05

> <r_epik_Ionization_Penalty_Charging>
0

> <r_epik_Ionization_Penalty_Neutral>
4.04514e-05

> <r_epik_State_Penalty>
-0

> <r_epik_Charging_Adjusted_Penalty>
0

> <i_epik_Tot_Q>
0

> <i_epik_Tot_abs_Q>
0

> <r_epik_Metal_State_Penalty>
-0

> <b_epik_Metal_Only>
0

> <s_lp_Force_Field>
OPLS_2005

> <r_lp_Energy>
32.1208

> <b_lp_Chiralities_Consistent>
1

> <s_lp_Variant>
AV-unprocessed.smi:1630-1

> <Gold.Version>
5.8.1

> <Gold.Id.Protein>
6NUR|6NUR_protein|mol2

> <Gold.PLP.Fitness>
40.4669

> <Gold.PLP.PLP>
-32.8865

> <Gold.PLP.part.hbond>
-3.0000

> <Gold.PLP.part.metal>
0.0000

> <Gold.PLP.part.buried>
-4.8863

> <Gold.PLP.part.nonpolar>
-25.0036

> <Gold.PLP.part.repulsive>
0.1677

> <Gold.PLP.ligand.clash>
0.0000

> <Gold.PLP.ligand.torsion>
1.3332

> <Gold.PLP.Chemscore.Hbond>
2.7413

> <Gold.PLP.Chemscore.CHOScore>
0.0000

> <Gold.PLP.Chemscore.Metal>
0.0000

> <Gold.Chemscore.Hbonds>
donor molecule, donor type, donor heavy atom, donor atom, acceptor molecule, acceptor atom, score
      L1  H     9    25       P1  7948  0.74
      L1  H    12    26       P1  7948  0.96
      P1  H  6896  6907       L1     3  1.00

> <Gold.PLP.Chemscore.Internal.Correction>
2.0231

> <Gold.Rescore>
     Score         DG    S(hbond)    S(metal)    S(lipo)     H(rot)  DE(clash)    DE(int)     intcor
     15.18     -17.62       2.36        0.00      58.18       1.00       0.24       2.19       ----

> <Gold.Chemscore.Fitness>
15.1814

> <Gold.Chemscore.DG>
-17.6156

> <Gold.Chemscore.ZeroCoef>
-5.4800

> <Gold.Chemscore.Hbond>
2.3619

> <Gold.Chemscore.Metal>
0.0000

> <Gold.Chemscore.Lipo>
58.1772

> <Gold.Chemscore.Internal_Hbond>
0.0000

> <Gold.Chemscore.DEClash>
0.2429

> <Gold.Chemscore.DEInternal>
2.1914

> <Gold.Chemscore.Rot>
1.0000

> <Gold.Chemscore.Internal.Correction>
   9.000000E+99

> <Gold.Chemscore.Hbonds>
donor molecule, donor type, donor heavy atom, donor atom, acceptor molecule, acceptor atom, score
      L1  H     9    25       P1  7948  0.10
      L1  H    12    26       P1  7948  0.67
      P1  H  6896  6907       L1     3  0.94

> <Gold.Chemscore.Hbond.Weighted>
-7.8889

> <Gold.Chemscore.Metal.Weighted>
-0.0000

> <Gold.Chemscore.Lipo.Weighted>
-6.8067

> <Gold.Chemscore.Internal_Hbond.Weighted>
0.0000

> <Gold.Chemscore.DEClash.Weighted>
0.2429

> <Gold.Chemscore.DEInternal.Weighted>
2.1914

> <Gold.Chemscore.Rot.Weighted>
2.5600

> <Gold.Chemscore.Internal.Correction.Weighted>
   9.000000E+99

> <Gold.Protein.RotatedTorsions>
[ 6907 6896 6895 6894 ] final  177.68 input  -60.11 | X-H torsion
[ 7974 7965 7964 7962 ] final -141.65 input  175.53 | X-H torsion
[ 8008 7997 7996 7995 ] final  -87.07 input   59.86 | X-H torsion
[ 10167 10162 10161 10158 ] final   11.03 input  -65.29 | X-H torsion
[ 10718 10713 10712 10709 ] final   -2.56 input   66.30 | X-H torsion
[ 10763 10752 10751 10750 ] final   -7.47 input  -60.55 | X-H torsion
[ 11005 11000 10999 10996 ] final -148.93 input  -57.11 | X-H torsion

> <Gold.Protein.ActiveResidues>
 VAL166  LYS551  ARG553  GLY616  TRP617  ASP618  TYR619  PRO620  LYS621  CYS622 
 ASP623  PHE694  ASN695  SER759  ASP760  ASP761  ALA762  ILE779  LEU786  VAL792 
 PHE793  MET794  SER795  GLU796  ALA797  LYS798  CYS799  TRP800  GLU811  SER814 

> <Gold.Protein.RotatedAtoms>
  151.7001  133.3311  159.3264 H   0  0  0  0  0  0  0  0  0  0  0  0  # atno 6907 bound_to 6896
  150.7740  134.6623  159.6356 H   0  0  0  0  0  0  0  0  0  0  0  0  # atno 6908 bound_to 6896
  152.3775  134.6644  160.0207 H   0  0  0  0  0  0  0  0  0  0  0  0  # atno 6909 bound_to 6896
  144.8503  140.6054  143.5394 H   0  0  0  0  0  0  0  0  0  0  0  0  # atno 7974 bound_to 7965
  154.6590  140.0570  157.0041 H   0  0  0  0  0  0  0  0  0  0  0  0  # atno 8008 bound_to 7997
  155.1256  140.3251  155.4468 H   0  0  0  0  0  0  0  0  0  0  0  0  # atno 8009 bound_to 7997
  156.2610  140.1990  156.6377 H   0  0  0  0  0  0  0  0  0  0  0  0  # atno 8010 bound_to 7997
  140.6157  143.8312  150.7116 H   0  0  0  0  0  0  0  0  0  0  0  0  # atno 10167 bound_to 10162
  156.7890  130.5355  149.5739 H   0  0  0  0  0  0  0  0  0  0  0  0  # atno 10718 bound_to 10713
  153.4269  135.7011  153.6257 H   0  0  0  0  0  0  0  0  0  0  0  0  # atno 10763 bound_to 10752
  153.4688  135.3719  155.2379 H   0  0  0  0  0  0  0  0  0  0  0  0  # atno 10764 bound_to 10752
  154.8724  135.4038  154.3646 H   0  0  0  0  0  0  0  0  0  0  0  0  # atno 10765 bound_to 10752
  140.7560  134.3352  157.5114 H   0  0  0  0  0  0  0  0  0  0  0  0  # atno 11005 bound_to 11000
  145.4513  139.1523  143.3917 LP  0  0  0  0  0  0  0  0  0  0  0  0  # atno 17320 bound_to 7965
  146.2779  140.4639  142.8788 LP  0  0  0  0  0  0  0  0  0  0  0  0  # atno 17321 bound_to 7965
  140.1891  143.4051  152.1876 LP  0  0  0  0  0  0  0  0  0  0  0  0  # atno 17342 bound_to 10162
  139.5397  144.7244  151.4775 LP  0  0  0  0  0  0  0  0  0  0  0  0  # atno 17343 bound_to 10162
  156.1171  130.6083  151.0137 LP  0  0  0  0  0  0  0  0  0  0  0  0  # atno 17370 bound_to 10713
  157.6610  131.0881  150.7838 LP  0  0  0  0  0  0  0  0  0  0  0  0  # atno 17371 bound_to 10713
  139.8779  134.9172  156.3173 LP  0  0  0  0  0  0  0  0  0  0  0  0  # atno 17394 bound_to 11000
  140.9707  133.7329  156.0530 LP  0  0  0  0  0  0  0  0  0  0  0  0  # atno 17395 bound_to 11000

$$$$
