AV-unprocessed.smi:1180|AV-procd|sdf|4963|dock4
  -GOLD-   22720 3553D 1   1.00000     0.00000
 Structure written by MMmdl.
 38 39  0  0  0  0  0  0  0  0  1 V2000
  143.6172  140.0140  156.1412 C   0  0  0  0  0  0  0  0  0  0  0  0
  145.0082  140.4728  155.7600 C   0  0  0  0  0  0  0  0  0  0  0  0
  145.3945  140.0788  154.4898 N   0  0  0  0  0  0  0  0  0  0  0  0
  146.6478  140.4610  154.0450 C   0  0  0  0  0  0  0  0  0  0  0  0
  146.9814  139.9967  152.6379 C   0  0  0  0  0  0  0  0  0  0  0  0
  147.4776  141.1947  154.8301 C   0  0  0  0  0  0  0  0  0  0  0  0
  148.8677  141.6449  154.3858 C   0  0  0  0  0  0  0  0  0  0  0  0
  150.0007  141.3196  155.3594 C   0  0  0  0  0  0  0  0  0  0  0  0
  150.6955  140.3189  155.1862 O   0  0  0  0  0  0  0  0  0  0  0  0
  150.1717  142.1742  156.3797 N   0  0  0  0  0  0  0  0  0  0  0  0
  151.1777  142.0538  157.4298 C   0  0  0  0  0  0  0  0  0  0  0  0
  151.1449  143.2511  158.3983 C   0  0  1  0  0  0  0  0  0  0  0  0
  152.0303  143.0771  159.6152 C   0  0  0  0  0  0  0  0  0  0  0  0
  152.1631  144.5113  160.1187 C   0  0  0  0  0  0  0  0  0  0  0  0
  152.0779  145.3402  158.9630 O   0  0  0  0  0  0  0  0  0  0  0  0
  151.6896  144.5644  157.8334 C   0  0  0  0  0  0  0  0  0  0  0  0
  147.0139  141.5736  156.1860 C   0  0  0  0  0  0  0  0  0  0  0  0
  147.7283  142.2196  156.9519 O   0  0  0  0  0  0  0  0  0  0  0  0
  145.7295  141.1695  156.5847 N   0  0  0  0  0  0  0  0  0  0  0  0
  144.8069  139.5375  153.8720 H   0  0  0  0  0  0  0  0  0  0  0  0
  143.3560  140.3519  157.1449 H   0  0  0  0  0  0  0  0  0  0  0  0
  143.5572  138.9254  156.1221 H   0  0  0  0  0  0  0  0  0  0  0  0
  142.8803  140.4144  155.4441 H   0  0  0  0  0  0  0  0  0  0  0  0
  147.8712  139.3676  152.6429 H   0  0  0  0  0  0  0  0  0  0  0  0
  147.1651  140.8514  151.9867 H   0  0  0  0  0  0  0  0  0  0  0  0
  146.1665  139.4167  152.2030 H   0  0  0  0  0  0  0  0  0  0  0  0
  148.8655  142.7148  154.1716 H   0  0  0  0  0  0  0  0  0  0  0  0
  149.1086  141.1796  153.4303 H   0  0  0  0  0  0  0  0  0  0  0  0
  149.5501  142.9680  156.4369 H   0  0  0  0  0  0  0  0  0  0  0  0
  150.9670  141.1369  157.9805 H   0  0  0  0  0  0  0  0  0  0  0  0
  152.1741  141.9290  157.0020 H   0  0  0  0  0  0  0  0  0  0  0  0
  150.1206  143.4139  158.7386 H   0  0  0  0  0  0  0  0  0  0  0  0
  151.6078  142.4037  160.3615 H   0  0  0  0  0  0  0  0  0  0  0  0
  153.0086  142.6924  159.3235 H   0  0  0  0  0  0  0  0  0  0  0  0
  151.3349  144.7595  160.7835 H   0  0  0  0  0  0  0  0  0  0  0  0
  153.0943  144.6771  160.6610 H   0  0  0  0  0  0  0  0  0  0  0  0
  152.5747  144.3840  157.2217 H   0  0  0  0  0  0  0  0  0  0  0  0
  150.9581  145.0931  157.2218 H   0  0  0  0  0  0  0  0  0  0  0  0
  1 21  1  0  0  0  0
  1 22  1  0  0  0  0
  1 23  1  0  0  0  0
  1  2  1  0  0  0  0
  2  3  1  0  0  0  0
  2 19  2  0  0  0  0
  3  4  1  0  0  0  0
  3 20  1  0  0  0  0
  4  6  2  0  0  0  0
  4  5  1  0  0  0  0
  5 24  1  0  0  0  0
  5 25  1  0  0  0  0
  5 26  1  0  0  0  0
  6 17  1  0  0  0  0
  6  7  1  0  0  0  0
  7  8  1  0  0  0  0
  7 27  1  0  0  0  0
  7 28  1  0  0  0  0
  8  9  2  0  0  0  0
  8 10  1  0  0  0  0
 10 11  1  0  0  0  0
 10 29  1  0  0  0  0
 11 12  1  0  0  0  0
 11 30  1  0  0  0  0
 11 31  1  0  0  0  0
 12 16  1  0  0  0  0
 12 13  1  0  0  0  0
 12 32  1  0  0  0  0
 13 14  1  0  0  0  0
 13 33  1  0  0  0  0
 13 34  1  0  0  0  0
 14 15  1  0  0  0  0
 14 35  1  0  0  0  0
 14 36  1  0  0  0  0
 15 16  1  0  0  0  0
 16 37  1  0  0  0  0
 16 38  1  0  0  0  0
 17 18  2  0  0  0  0
 17 19  1  0  0  0  0
M  END
> <s_m_source_file>
AV-unprocessed.smi

> <i_m_source_file_index>
1180

> <i_lp_mmshare_version>
43012

> <i_f3d_flags>
0

> <s_epik_input>
W0NIM11jMW5jKFtDSDNdKWMoYyg9TylbbkhdMSlbQ0gyXUMoPU8pW05IXVtDSDJdW0NAQEhdMltDSDJdW0NIMl1PW0NIMl0y

> <s_epik_cmdline>
J2VwaWtfcHl0aG9uJywgJy1waCcsICc3LjAnLCAnLXRuJywgJzgnLCAnLW1hJywgJzIwMCcsICctbWV0YWxfYmluZGluZycsICctaW1hZScsICc8aW5maWxlLm1hZT4nLCAnLW9tYWUnLCAnPG91dGZpbGUubWFlPic=

> <r_lp_tautomer_probability>
0.156392

> <r_epik_Ionization_Penalty>
0.014237

> <r_epik_Ionization_Penalty_Charging>
0.0141173

> <r_epik_Ionization_Penalty_Neutral>
0.000119724

> <r_epik_State_Penalty>
1.52876

> <r_epik_Charging_Adjusted_Penalty>
1.54288

> <i_epik_Tot_Q>
0

> <i_epik_Tot_abs_Q>
0

> <r_epik_Metal_State_Penalty>
1.70686

> <b_epik_Metal_Only>
0

> <s_lp_Force_Field>
OPLS_2005

> <r_lp_Energy>
23.3722

> <b_lp_Chiralities_Consistent>
1

> <s_lp_Variant>
AV-unprocessed.smi:1180-4

> <Gold.Version>
5.8.1

> <Gold.Id.Protein>
6NUR|6NUR_protein|mol2

> <Gold.PLP.Fitness>
38.6354

> <Gold.PLP.PLP>
-32.1650

> <Gold.PLP.part.hbond>
-3.0000

> <Gold.PLP.part.metal>
0.0000

> <Gold.PLP.part.buried>
-2.5409

> <Gold.PLP.part.nonpolar>
-27.6864

> <Gold.PLP.part.repulsive>
1.2871

> <Gold.PLP.ligand.clash>
0.0000

> <Gold.PLP.ligand.torsion>
0.4545

> <Gold.PLP.Chemscore.Hbond>
2.4560

> <Gold.PLP.Chemscore.CHOScore>
0.0000

> <Gold.PLP.Chemscore.Metal>
0.0000

> <Gold.Chemscore.Hbonds>
donor molecule, donor type, donor heavy atom, donor atom, acceptor molecule, acceptor atom, score
      L1  H     3    20       P1 10175  0.40
      L1  H    10    29       P1  8028  0.99
      P1  H  7989  7998       L1     9  0.95

> <Gold.PLP.Chemscore.Internal.Correction>
0.0114

> <Gold.Rescore>
     Score         DG    S(hbond)    S(metal)    S(lipo)     H(rot)  DE(clash)    DE(int)     intcor
     13.75     -17.08       1.95        0.00      83.03       1.81       0.40       2.93       ----

> <Gold.Chemscore.Fitness>
13.7521

> <Gold.Chemscore.DG>
-17.0841

> <Gold.Chemscore.ZeroCoef>
-5.4800

> <Gold.Chemscore.Hbond>
1.9504

> <Gold.Chemscore.Metal>
0.0000

> <Gold.Chemscore.Lipo>
83.0289

> <Gold.Chemscore.Internal_Hbond>
0.0000

> <Gold.Chemscore.DEClash>
0.4004

> <Gold.Chemscore.DEInternal>
2.9315

> <Gold.Chemscore.Rot>
1.8065

> <Gold.Chemscore.Internal.Correction>
   9.000000E+99

> <Gold.Chemscore.Hbonds>
donor molecule, donor type, donor heavy atom, donor atom, acceptor molecule, acceptor atom, score
      L1  H     3    20       P1 10175  0.38
      L1  H    10    29       P1  8028  0.87
      P1  H  7989  7998       L1     9  0.20

> <Gold.Chemscore.Hbond.Weighted>
-6.5143

> <Gold.Chemscore.Metal.Weighted>
-0.0000

> <Gold.Chemscore.Lipo.Weighted>
-9.7144

> <Gold.Chemscore.Internal_Hbond.Weighted>
0.0000

> <Gold.Chemscore.DEClash.Weighted>
0.4004

> <Gold.Chemscore.DEInternal.Weighted>
2.9315

> <Gold.Chemscore.Rot.Weighted>
4.6246

> <Gold.Chemscore.Internal.Correction.Weighted>
   9.000000E+99

> <Gold.Protein.RotatedTorsions>
[ 6907 6896 6895 6894 ] final  -82.39 input  -60.11 | X-H torsion
[ 7974 7965 7964 7962 ] final   45.56 input  175.53 | X-H torsion
[ 8008 7997 7996 7995 ] final  -89.28 input   59.86 | X-H torsion
[ 10167 10162 10161 10158 ] final   34.20 input  -65.29 | X-H torsion
[ 10718 10713 10712 10709 ] final  -98.96 input   66.30 | X-H torsion
[ 10763 10752 10751 10750 ] final  -42.07 input  -60.55 | X-H torsion
[ 11005 11000 10999 10996 ] final  147.35 input  -57.11 | X-H torsion

> <Gold.Protein.ActiveResidues>
 VAL166  LYS551  ARG553  GLY616  TRP617  ASP618  TYR619  PRO620  LYS621  CYS622 
 ASP623  PHE694  ASN695  SER759  ASP760  ASP761  ALA762  ILE779  LEU786  VAL792 
 PHE793  MET794  SER795  GLU796  ALA797  LYS798  CYS799  TRP800  GLU811  SER814 

> <Gold.Protein.RotatedAtoms>
  150.6898  134.3673  159.4976 H   0  0  0  0  0  0  0  0  0  0  0  0  # atno 6907 bound_to 6896
  152.1493  134.8998  160.0558 H   0  0  0  0  0  0  0  0  0  0  0  0  # atno 6908 bound_to 6896
  152.0102  133.3823  159.4253 H   0  0  0  0  0  0  0  0  0  0  0  0  # atno 6909 bound_to 6896
  146.0469  139.4951  142.9743 H   0  0  0  0  0  0  0  0  0  0  0  0  # atno 7974 bound_to 7965
  154.6847  140.0543  157.0302 H   0  0  0  0  0  0  0  0  0  0  0  0  # atno 8008 bound_to 7997
  155.0901  140.3218  155.4557 H   0  0  0  0  0  0  0  0  0  0  0  0  # atno 8009 bound_to 7997
  156.2707  140.2049  156.6028 H   0  0  0  0  0  0  0  0  0  0  0  0  # atno 8010 bound_to 7997
  140.4337  144.1288  150.6163 H   0  0  0  0  0  0  0  0  0  0  0  0  # atno 10167 bound_to 10162
  156.0121  130.5261  150.6599 H   0  0  0  0  0  0  0  0  0  0  0  0  # atno 10718 bound_to 10713
  153.9729  135.6726  153.4747 H   0  0  0  0  0  0  0  0  0  0  0  0  # atno 10763 bound_to 10752
  153.0784  135.4936  154.8449 H   0  0  0  0  0  0  0  0  0  0  0  0  # atno 10764 bound_to 10752
  154.7209  135.3117  154.9010 H   0  0  0  0  0  0  0  0  0  0  0  0  # atno 10765 bound_to 10752
  140.0868  134.9064  157.1588 H   0  0  0  0  0  0  0  0  0  0  0  0  # atno 11005 bound_to 11000
  145.6790  141.0196  143.1617 LP  0  0  0  0  0  0  0  0  0  0  0  0  # atno 17320 bound_to 7965
  144.7102  139.8399  143.7417 LP  0  0  0  0  0  0  0  0  0  0  0  0  # atno 17321 bound_to 7965
  140.4398  143.2531  151.9488 LP  0  0  0  0  0  0  0  0  0  0  0  0  # atno 17342 bound_to 10162
  139.4786  144.5665  151.8157 LP  0  0  0  0  0  0  0  0  0  0  0  0  # atno 17343 bound_to 10162
  157.4343  131.0853  151.1007 LP  0  0  0  0  0  0  0  0  0  0  0  0  # atno 17370 bound_to 10713
  157.1570  130.6209  149.5599 LP  0  0  0  0  0  0  0  0  0  0  0  0  # atno 17371 bound_to 10713
  140.3409  134.2705  155.7212 LP  0  0  0  0  0  0  0  0  0  0  0  0  # atno 17394 bound_to 11000
  141.2065  133.7831  157.0172 LP  0  0  0  0  0  0  0  0  0  0  0  0  # atno 17395 bound_to 11000

$$$$
