AV-unprocessed.smi:2564|AV-procd|sdf|10063|dock2
  -GOLD-   2272014103D 1   1.00000     0.00000
 Structure written by MMmdl.
 29 30  0  0  0  0  0  0  0  0  2 V2000
  152.2134  144.6275  158.4821 C   0  0  0  0  0  0  0  0  0  0  0  0
  152.5069  143.7048  159.5027 C   0  0  0  0  0  0  0  0  0  0  0  0
  152.0766  142.4236  159.4708 N   0  0  0  0  0  0  0  0  0  0  0  0
  151.3436  141.9894  158.4395 N   0  0  0  0  0  0  0  0  0  0  0  0
  151.0194  142.8249  157.4206 C   0  0  0  0  0  0  0  0  0  0  0  0
  150.2485  142.3432  156.3523 N   0  0  0  0  0  0  0  0  0  0  0  0
  150.0906  140.9151  156.1009 C   0  0  0  0  0  0  0  0  0  0  0  0
  149.3180  140.6273  154.8015 C   0  0  1  0  0  0  0  0  0  0  0  0
  149.3890  139.1352  154.4206 C   0  0  0  0  0  0  0  0  0  0  0  0
  148.5816  138.8757  153.2121 N   0  3  0  0  0  0  0  0  0  0  0  0
  147.1898  139.3374  153.3779 C   0  0  0  0  0  0  0  0  0  0  0  0
  147.1729  140.8144  153.8038 C   0  0  0  0  0  0  0  0  0  0  0  0
  147.9472  140.9729  154.9872 O   0  0  0  0  0  0  0  0  0  0  0  0
  151.4406  144.1695  157.4011 C   0  0  0  0  0  0  0  0  0  0  0  0
  152.5680  145.6465  158.5276 H   0  0  0  0  0  0  0  0  0  0  0  0
  153.0963  143.9972  160.3590 H   0  0  0  0  0  0  0  0  0  0  0  0
  149.6882  142.9916  155.8178 H   0  0  0  0  0  0  0  0  0  0  0  0
  151.0953  140.5001  156.0169 H   0  0  0  0  0  0  0  0  0  0  0  0
  149.6289  140.4111  156.9506 H   0  0  0  0  0  0  0  0  0  0  0  0
  149.7419  141.2271  153.9933 H   0  0  0  0  0  0  0  0  0  0  0  0
  150.4198  138.8352  154.2301 H   0  0  0  0  0  0  0  0  0  0  0  0
  149.0188  138.5147  155.2381 H   0  0  0  0  0  0  0  0  0  0  0  0
  148.9956  139.3720  152.4357 H   0  0  0  0  0  0  0  0  0  0  0  0
  146.6473  139.2003  152.4421 H   0  0  0  0  0  0  0  0  0  0  0  0
  146.6957  138.7220  154.1308 H   0  0  0  0  0  0  0  0  0  0  0  0
  147.5618  141.4558  153.0114 H   0  0  0  0  0  0  0  0  0  0  0  0
  146.1509  141.1373  154.0030 H   0  0  0  0  0  0  0  0  0  0  0  0
  151.1815  144.8298  156.5864 H   0  0  0  0  0  0  0  0  0  0  0  0
  148.5853  137.8860  153.0102 H   0  0  0  0  0  0  0  0  0  0  0  0
  1 14  1  0  0  0  0
  1  2  2  0  0  0  0
  1 15  1  0  0  0  0
  2  3  1  0  0  0  0
  2 16  1  0  0  0  0
  3  4  2  0  0  0  0
  4  5  1  0  0  0  0
  5  6  1  0  0  0  0
  5 14  2  0  0  0  0
  6  7  1  0  0  0  0
  6 17  1  0  0  0  0
  7  8  1  0  0  0  0
  7 18  1  0  0  0  0
  7 19  1  0  0  0  0
  8 13  1  0  0  0  0
  8  9  1  0  0  0  0
  8 20  1  0  0  0  0
  9 10  1  0  0  0  0
  9 21  1  0  0  0  0
  9 22  1  0  0  0  0
 10 11  1  0  0  0  0
 10 23  1  0  0  0  0
 10 29  1  0  0  0  0
 11 12  1  0  0  0  0
 11 24  1  0  0  0  0
 11 25  1  0  0  0  0
 12 13  1  0  0  0  0
 12 26  1  0  0  0  0
 12 27  1  0  0  0  0
 14 28  1  0  0  0  0
M  CHG  1  10   1
M  END
> <s_m_source_file>
AV-unprocessed.smi

> <i_m_source_file_index>
2564

> <i_lp_mmshare_version>
43012

> <i_f3d_flags>
0

> <s_epik_input>
W2NIXTFbY0hdW2NIXW5uYzFbTkhdW0NIMl1bQ0BASF0yW0NIMl1bTkhdW0NIMl1bQ0gyXU8y

> <s_epik_cmdline>
J2VwaWtfcHl0aG9uJywgJy1waCcsICc3LjAnLCAnLXRuJywgJzgnLCAnLW1hJywgJzIwMCcsICctbWV0YWxfYmluZGluZycsICctaW1hZScsICc8aW5maWxlLm1hZT4nLCAnLW9tYWUnLCAnPG91dGZpbGUubWFlPic=

> <r_lp_tautomer_probability>
0.999978

> <r_epik_Ionization_Penalty>
0.0278973

> <r_epik_Ionization_Penalty_Charging>
0.00959556

> <r_epik_Ionization_Penalty_Neutral>
0.0183017

> <r_epik_State_Penalty>
0.0323017

> <r_epik_Charging_Adjusted_Penalty>
0.0418973

> <i_epik_Tot_Q>
1

> <i_epik_Tot_abs_Q>
1

> <r_epik_Metal_State_Penalty>
0.0301524

> <b_epik_Metal_Only>
0

> <s_lp_Force_Field>
OPLS_2005

> <r_lp_Energy>
20.3405

> <b_lp_Chiralities_Consistent>
1

> <s_lp_Variant>
AV-unprocessed.smi:2564-2

> <Gold.Version>
5.8.1

> <Gold.Id.Protein>
6NUR|6NUR_protein|mol2

> <Gold.PLP.Fitness>
43.3902

> <Gold.PLP.PLP>
-31.7183

> <Gold.PLP.part.hbond>
-3.0000

> <Gold.PLP.part.metal>
0.0000

> <Gold.PLP.part.buried>
-5.2674

> <Gold.PLP.part.nonpolar>
-25.7962

> <Gold.PLP.part.repulsive>
0.2924

> <Gold.PLP.ligand.clash>
0.0000

> <Gold.PLP.ligand.torsion>
0.1413

> <Gold.PLP.Chemscore.Hbond>
3.9833

> <Gold.PLP.Chemscore.CHOScore>
0.0000

> <Gold.PLP.Chemscore.Metal>
0.0000

> <Gold.Chemscore.Hbonds>
donor molecule, donor type, donor heavy atom, donor atom, acceptor molecule, acceptor atom, score
      L1  H     6    17       P1  8028  0.98
      L1  H    10    23       P1  7957  1.00
      L1  H    10    29       P1  7948  2.00

> <Gold.PLP.Chemscore.Internal.Correction>
0.0047

> <Gold.Rescore>
     Score         DG    S(hbond)    S(metal)    S(lipo)     H(rot)  DE(clash)    DE(int)     intcor
     20.20     -20.44       2.85        0.00      75.62       1.33       0.07       0.18       ----

> <Gold.Chemscore.Fitness>
20.1964

> <Gold.Chemscore.DG>
-20.4399

> <Gold.Chemscore.ZeroCoef>
-5.4800

> <Gold.Chemscore.Hbond>
2.8459

> <Gold.Chemscore.Metal>
0.0000

> <Gold.Chemscore.Lipo>
75.6157

> <Gold.Chemscore.Internal_Hbond>
0.0000

> <Gold.Chemscore.DEClash>
0.0672

> <Gold.Chemscore.DEInternal>
0.1763

> <Gold.Chemscore.Rot>
1.3251

> <Gold.Chemscore.Internal.Correction>
   9.000000E+99

> <Gold.Chemscore.Hbonds>
donor molecule, donor type, donor heavy atom, donor atom, acceptor molecule, acceptor atom, score
      L1  H     6    17       P1  8028  0.93
      L1  H    10    23       P1  7957  0.96
      L1  H    10    29       P1  7948  0.91

> <Gold.Chemscore.Hbond.Weighted>
-9.5053

> <Gold.Chemscore.Metal.Weighted>
-0.0000

> <Gold.Chemscore.Lipo.Weighted>
-8.8470

> <Gold.Chemscore.Internal_Hbond.Weighted>
0.0000

> <Gold.Chemscore.DEClash.Weighted>
0.0672

> <Gold.Chemscore.DEInternal.Weighted>
0.1763

> <Gold.Chemscore.Rot.Weighted>
3.3924

> <Gold.Chemscore.Internal.Correction.Weighted>
   9.000000E+99

> <Gold.Protein.RotatedTorsions>
[ 6907 6896 6895 6894 ] final  -76.42 input  -60.11 | X-H torsion
[ 7974 7965 7964 7962 ] final  113.38 input  175.53 | X-H torsion
[ 8008 7997 7996 7995 ] final   36.18 input   59.86 | X-H torsion
[ 10167 10162 10161 10158 ] final  143.49 input  -65.29 | X-H torsion
[ 10718 10713 10712 10709 ] final   12.65 input   66.30 | X-H torsion
[ 10763 10752 10751 10750 ] final -137.00 input  -60.55 | X-H torsion
[ 11005 11000 10999 10996 ] final -138.63 input  -57.11 | X-H torsion

> <Gold.Protein.ActiveResidues>
 VAL166  LYS551  ARG553  GLY616  TRP617  ASP618  TYR619  PRO620  LYS621  CYS622 
 ASP623  PHE694  ASN695  SER759  ASP760  ASP761  ALA762  ILE779  LEU786  VAL792 
 PHE793  MET794  SER795  GLU796  ALA797  LYS798  CYS799  TRP800  GLU811  SER814 

> <Gold.Protein.RotatedAtoms>
  150.7028  134.4574  159.5364 H   0  0  0  0  0  0  0  0  0  0  0  0  # atno 6907 bound_to 6896
  152.2255  134.8369  160.0489 H   0  0  0  0  0  0  0  0  0  0  0  0  # atno 6908 bound_to 6896
  151.9204  133.3549  159.3932 H   0  0  0  0  0  0  0  0  0  0  0  0  # atno 6909 bound_to 6896
  145.2177  139.2876  143.4235 H   0  0  0  0  0  0  0  0  0  0  0  0  # atno 7974 bound_to 7965
  155.1832  140.3301  155.4371 H   0  0  0  0  0  0  0  0  0  0  0  0  # atno 8008 bound_to 7997
  156.2469  140.1923  156.6879 H   0  0  0  0  0  0  0  0  0  0  0  0  # atno 8009 bound_to 7997
  154.6257  140.0589  156.9656 H   0  0  0  0  0  0  0  0  0  0  0  0  # atno 8010 bound_to 7997
  139.4968  144.6036  151.6426 H   0  0  0  0  0  0  0  0  0  0  0  0  # atno 10167 bound_to 10162
  157.0132  130.6125  149.5711 H   0  0  0  0  0  0  0  0  0  0  0  0  # atno 10718 bound_to 10713
  154.8671  135.3655  154.5153 H   0  0  0  0  0  0  0  0  0  0  0  0  # atno 10763 bound_to 10752
  153.5786  135.7019  153.5478 H   0  0  0  0  0  0  0  0  0  0  0  0  # atno 10764 bound_to 10752
  153.3478  135.4080  155.1585 H   0  0  0  0  0  0  0  0  0  0  0  0  # atno 10765 bound_to 10752
  140.8598  134.2183  157.4714 H   0  0  0  0  0  0  0  0  0  0  0  0  # atno 11005 bound_to 11000
  146.3383  140.2473  142.8597 LP  0  0  0  0  0  0  0  0  0  0  0  0  # atno 17320 bound_to 7965
  144.9795  140.8446  143.5406 LP  0  0  0  0  0  0  0  0  0  0  0  0  # atno 17321 bound_to 7965
  140.5693  144.0137  150.6208 LP  0  0  0  0  0  0  0  0  0  0  0  0  # atno 17342 bound_to 10162
  140.3249  143.3114  152.0747 LP  0  0  0  0  0  0  0  0  0  0  0  0  # atno 17343 bound_to 10162
  156.0129  130.5221  150.8044 LP  0  0  0  0  0  0  0  0  0  0  0  0  # atno 17370 bound_to 10713
  157.5305  131.0936  150.9961 LP  0  0  0  0  0  0  0  0  0  0  0  0  # atno 17371 bound_to 10713
  139.8706  134.9724  156.4771 LP  0  0  0  0  0  0  0  0  0  0  0  0  # atno 17394 bound_to 11000
  140.8696  133.7998  155.9350 LP  0  0  0  0  0  0  0  0  0  0  0  0  # atno 17395 bound_to 11000

$$$$
