AV-unprocessed.smi:2196|AV-procd|sdf|8908|dock10
  -GOLD-   2272012123D 1   1.00000     0.00000
 Structure written by MMmdl.
 45 46  0  0  0  0  0  0  0  0  1 V2000
  150.4984  141.5141  155.2342 C   0  0  0  0  0  0  0  0  0  0  0  0
  150.1580  141.7911  156.7044 C   0  0  0  0  0  0  0  0  0  0  0  0
  150.9590  140.9822  157.6192 N   0  0  0  0  0  0  0  0  0  0  0  0
  152.2876  141.4972  157.9514 C   0  0  0  0  0  0  0  0  0  0  0  0
  152.2638  142.7880  158.7514 C   0  0  0  0  0  0  0  0  0  0  0  0
  152.3318  144.0305  158.0875 C   0  0  0  0  0  0  0  0  0  0  0  0
  152.2800  145.2299  158.8240 C   0  0  0  0  0  0  0  0  0  0  0  0
  152.1586  145.1904  160.2264 C   0  0  0  0  0  0  0  0  0  0  0  0
  152.0889  143.9515  160.8923 C   0  0  0  0  0  0  0  0  0  0  0  0
  152.1413  142.7519  160.1563 C   0  0  0  0  0  0  0  0  0  0  0  0
  150.5177  139.7363  158.0664 C   0  0  0  0  0  0  0  0  0  0  0  0
  149.3493  139.1571  157.6610 C   0  0  0  0  0  0  0  0  0  0  0  0
  148.5089  139.8290  156.7872 N   0  0  0  0  0  0  0  0  0  0  0  0
  148.9629  137.8868  158.0978 N   0  0  0  0  0  0  0  0  0  0  0  0
  147.7453  137.2274  157.6713 C   0  0  0  0  0  0  0  0  0  0  0  0
  146.9280  136.6850  158.8527 C   0  0  0  0  0  0  0  0  0  0  0  0
  147.2283  137.4516  160.0061 O   0  0  0  0  0  0  0  0  0  0  0  0
  147.0593  136.7154  161.2046 C   0  0  0  0  0  0  0  0  0  0  0  0
  149.8097  137.1436  158.9536 C   0  0  0  0  0  0  0  0  0  0  0  0
  149.5558  136.0022  159.3400 O   0  0  0  0  0  0  0  0  0  0  0  0
  150.9889  137.7549  159.3624 N   0  0  0  0  0  0  0  0  0  0  0  0
  151.4174  139.0243  158.9833 C   0  0  0  0  0  0  0  0  0  0  0  0
  152.4900  139.4493  159.4116 O   0  0  0  0  0  0  0  0  0  0  0  0
  151.5920  137.2296  159.9782 H   0  0  0  0  0  0  0  0  0  0  0  0
  149.8700  142.1115  154.5735 H   0  0  0  0  0  0  0  0  0  0  0  0
  150.3378  140.4647  154.9858 H   0  0  0  0  0  0  0  0  0  0  0  0
  151.5372  141.7576  155.0100 H   0  0  0  0  0  0  0  0  0  0  0  0
  150.3059  142.8474  156.9323 H   0  0  0  0  0  0  0  0  0  0  0  0
  149.0974  141.5935  156.8663 H   0  0  0  0  0  0  0  0  0  0  0  0
  152.8469  140.7352  158.4942 H   0  0  0  0  0  0  0  0  0  0  0  0
  152.8549  141.6858  157.0389 H   0  0  0  0  0  0  0  0  0  0  0  0
  152.4141  144.0651  157.0109 H   0  0  0  0  0  0  0  0  0  0  0  0
  152.3290  146.1799  158.3125 H   0  0  0  0  0  0  0  0  0  0  0  0
  152.1162  146.1101  160.7908 H   0  0  0  0  0  0  0  0  0  0  0  0
  151.9918  143.9211  161.9674 H   0  0  0  0  0  0  0  0  0  0  0  0
  152.0772  141.8051  160.6723 H   0  0  0  0  0  0  0  0  0  0  0  0
  148.7381  140.7476  156.4363 H   0  0  0  0  0  0  0  0  0  0  0  0
  147.6066  139.4596  156.5239 H   0  0  0  0  0  0  0  0  0  0  0  0
  147.1714  137.9271  157.0610 H   0  0  0  0  0  0  0  0  0  0  0  0
  148.0359  136.4303  156.9878 H   0  0  0  0  0  0  0  0  0  0  0  0
  145.8611  136.7475  158.6314 H   0  0  0  0  0  0  0  0  0  0  0  0
  147.1667  135.6351  159.0298 H   0  0  0  0  0  0  0  0  0  0  0  0
  147.3021  137.3461  162.0596 H   0  0  0  0  0  0  0  0  0  0  0  0
  147.7180  135.8464  161.2299 H   0  0  0  0  0  0  0  0  0  0  0  0
  146.0284  136.3771  161.3175 H   0  0  0  0  0  0  0  0  0  0  0  0
  1  2  1  0  0  0  0
  1 25  1  0  0  0  0
  1 26  1  0  0  0  0
  1 27  1  0  0  0  0
  2  3  1  0  0  0  0
  2 28  1  0  0  0  0
  2 29  1  0  0  0  0
  3  4  1  0  0  0  0
  3 11  1  0  0  0  0
  4  5  1  0  0  0  0
  4 30  1  0  0  0  0
  4 31  1  0  0  0  0
  5 10  1  0  0  0  0
  5  6  2  0  0  0  0
  6  7  1  0  0  0  0
  6 32  1  0  0  0  0
  7  8  2  0  0  0  0
  7 33  1  0  0  0  0
  8  9  1  0  0  0  0
  8 34  1  0  0  0  0
  9 10  2  0  0  0  0
  9 35  1  0  0  0  0
 10 36  1  0  0  0  0
 11 22  1  0  0  0  0
 11 12  2  0  0  0  0
 12 13  1  0  0  0  0
 12 14  1  0  0  0  0
 13 37  1  0  0  0  0
 13 38  1  0  0  0  0
 14 15  1  0  0  0  0
 14 19  1  0  0  0  0
 15 16  1  0  0  0  0
 15 39  1  0  0  0  0
 15 40  1  0  0  0  0
 16 17  1  0  0  0  0
 16 41  1  0  0  0  0
 16 42  1  0  0  0  0
 17 18  1  0  0  0  0
 18 43  1  0  0  0  0
 18 44  1  0  0  0  0
 18 45  1  0  0  0  0
 19 20  2  0  0  0  0
 19 21  1  0  0  0  0
 21 24  1  0  0  0  0
 21 22  1  0  0  0  0
 22 23  2  0  0  0  0
M  END
> <s_m_source_file>
AV-unprocessed.smi

> <i_m_source_file_index>
2196

> <i_lp_mmshare_version>
43012

> <i_f3d_flags>
0

> <s_epik_input>
W0NIM11PW0NIMl1bQ0gyXW4oYyg9TylbbkhdYzE9TyljKFtOSDJdKWMxTihbQ0gyXVtDSDNdKVtDSDJdYzJbY0hdW2NIXVtjSF1bY0hdW2NIXTI=

> <s_epik_cmdline>
J2VwaWtfcHl0aG9uJywgJy1waCcsICc3LjAnLCAnLXRuJywgJzgnLCAnLW1hJywgJzIwMCcsICctbWV0YWxfYmluZGluZycsICctaW1hZScsICc8aW5maWxlLm1hZT4nLCAnLW9tYWUnLCAnPG91dGZpbGUubWFlPic=

> <r_lp_tautomer_probability>
1

> <r_epik_Ionization_Penalty>
0.000571321

> <r_epik_Ionization_Penalty_Charging>
3.00664e-06

> <r_epik_Ionization_Penalty_Neutral>
0.000568314

> <r_epik_State_Penalty>
-0

> <r_epik_Charging_Adjusted_Penalty>
3.00664e-06

> <i_epik_Tot_Q>
0

> <i_epik_Tot_abs_Q>
0

> <r_epik_Metal_State_Penalty>
-0

> <b_epik_Metal_Only>
0

> <s_lp_Force_Field>
OPLS_2005

> <r_lp_Energy>
20.6449

> <b_lp_Chiralities_Consistent>
1

> <s_lp_Variant>
AV-unprocessed.smi:2196-1

> <Gold.Version>
5.8.1

> <Gold.Id.Protein>
6NUR|6NUR_protein|mol2

> <Gold.PLP.Fitness>
46.1209

> <Gold.PLP.PLP>
-42.4229

> <Gold.PLP.part.hbond>
-2.6306

> <Gold.PLP.part.metal>
0.0000

> <Gold.PLP.part.buried>
-5.6672

> <Gold.PLP.part.nonpolar>
-33.5180

> <Gold.PLP.part.repulsive>
0.2430

> <Gold.PLP.ligand.clash>
21.3695

> <Gold.PLP.ligand.torsion>
1.2087

> <Gold.PLP.Chemscore.Hbond>
2.0000

> <Gold.PLP.Chemscore.CHOScore>
0.0000

> <Gold.PLP.Chemscore.Metal>
0.0000

> <Gold.Chemscore.Hbonds>
donor molecule, donor type, donor heavy atom, donor atom, acceptor molecule, acceptor atom, score
      P1  H  6896  6907       L1    20  1.00
      P1  H  6934  6947       L1    17  0.60

> <Gold.PLP.Chemscore.Internal.Correction>
21.4847

> <Gold.Rescore>
     Score         DG    S(hbond)    S(metal)    S(lipo)     H(rot)  DE(clash)    DE(int)     intcor
     10.81     -19.41       1.90        0.00     109.74       2.06       0.04       8.56       ----

> <Gold.Chemscore.Fitness>
10.8069

> <Gold.Chemscore.DG>
-19.4057

> <Gold.Chemscore.ZeroCoef>
-5.4800

> <Gold.Chemscore.Hbond>
1.9020

> <Gold.Chemscore.Metal>
0.0000

> <Gold.Chemscore.Lipo>
109.7361

> <Gold.Chemscore.Internal_Hbond>
0.0000

> <Gold.Chemscore.DEClash>
0.0359

> <Gold.Chemscore.DEInternal>
8.5629

> <Gold.Chemscore.Rot>
2.0571

> <Gold.Chemscore.Internal.Correction>
   9.000000E+99

> <Gold.Chemscore.Hbonds>
donor molecule, donor type, donor heavy atom, donor atom, acceptor molecule, acceptor atom, score
      P1  H  6896  6907       L1    20  0.99
      P1  H  6934  6947       L1    17  0.04

> <Gold.Chemscore.Hbond.Weighted>
-6.3527

> <Gold.Chemscore.Metal.Weighted>
-0.0000

> <Gold.Chemscore.Lipo.Weighted>
-12.8391

> <Gold.Chemscore.Internal_Hbond.Weighted>
0.0000

> <Gold.Chemscore.DEClash.Weighted>
0.0359

> <Gold.Chemscore.DEInternal.Weighted>
8.5629

> <Gold.Chemscore.Rot.Weighted>
5.2661

> <Gold.Chemscore.Internal.Correction.Weighted>
   9.000000E+99

> <Gold.Protein.RotatedTorsions>
[ 6907 6896 6895 6894 ] final  -51.43 input  -60.11 | X-H torsion
[ 7974 7965 7964 7962 ] final  156.06 input  175.53 | X-H torsion
[ 8008 7997 7996 7995 ] final  115.58 input   59.86 | X-H torsion
[ 10167 10162 10161 10158 ] final  -10.45 input  -65.29 | X-H torsion
[ 10718 10713 10712 10709 ] final  134.29 input   66.30 | X-H torsion
[ 10763 10752 10751 10750 ] final  142.79 input  -60.55 | X-H torsion
[ 11005 11000 10999 10996 ] final -102.16 input  -57.11 | X-H torsion

> <Gold.Protein.ActiveResidues>
 VAL166  LYS551  ARG553  GLY616  TRP617  ASP618  TYR619  PRO620  LYS621  CYS622 
 ASP623  PHE694  ASN695  SER759  ASP760  ASP761  ALA762  ILE779  LEU786  VAL792 
 PHE793  MET794  SER795  GLU796  ALA797  LYS798  CYS799  TRP800  GLU811  SER814 

> <Gold.Protein.RotatedAtoms>
  150.8612  134.7965  159.7084 H   0  0  0  0  0  0  0  0  0  0  0  0  # atno 6907 bound_to 6896
  152.4648  134.5096  159.9759 H   0  0  0  0  0  0  0  0  0  0  0  0  # atno 6908 bound_to 6896
  151.5200  133.3430  159.2935 H   0  0  0  0  0  0  0  0  0  0  0  0  # atno 6909 bound_to 6896
  144.7986  139.7152  143.6191 H   0  0  0  0  0  0  0  0  0  0  0  0  # atno 7974 bound_to 7965
  156.2390  140.2935  156.0391 H   0  0  0  0  0  0  0  0  0  0  0  0  # atno 8008 bound_to 7997
  155.2008  140.0409  157.2934 H   0  0  0  0  0  0  0  0  0  0  0  0  # atno 8009 bound_to 7997
  154.6132  140.2457  155.7650 H   0  0  0  0  0  0  0  0  0  0  0  0  # atno 8010 bound_to 7997
  140.7114  143.5746  150.9056 H   0  0  0  0  0  0  0  0  0  0  0  0  # atno 10167 bound_to 10162
  157.4687  131.1078  150.9830 H   0  0  0  0  0  0  0  0  0  0  0  0  # atno 10718 bound_to 10713
  153.9616  135.2959  155.3433 H   0  0  0  0  0  0  0  0  0  0  0  0  # atno 10763 bound_to 10752
  154.7372  135.5041  153.9064 H   0  0  0  0  0  0  0  0  0  0  0  0  # atno 10764 bound_to 10752
  153.0944  135.6717  153.9902 H   0  0  0  0  0  0  0  0  0  0  0  0  # atno 10765 bound_to 10752
  141.1201  133.8536  157.1324 H   0  0  0  0  0  0  0  0  0  0  0  0  # atno 11005 bound_to 11000
  146.2262  139.5726  142.9586 LP  0  0  0  0  0  0  0  0  0  0  0  0  # atno 17320 bound_to 7965
  145.5609  141.0404  143.2226 LP  0  0  0  0  0  0  0  0  0  0  0  0  # atno 17321 bound_to 7965
  139.9472  143.6313  152.3038 LP  0  0  0  0  0  0  0  0  0  0  0  0  # atno 17342 bound_to 10162
  139.6819  144.7655  151.1593 LP  0  0  0  0  0  0  0  0  0  0  0  0  # atno 17343 bound_to 10162
  157.0602  130.5822  149.5384 LP  0  0  0  0  0  0  0  0  0  0  0  0  # atno 17370 bound_to 10713
  156.0063  130.5150  150.7840 LP  0  0  0  0  0  0  0  0  0  0  0  0  # atno 17371 bound_to 10713
  140.0151  134.9971  157.0477 LP  0  0  0  0  0  0  0  0  0  0  0  0  # atno 17394 bound_to 11000
  140.4533  134.1560  155.7183 LP  0  0  0  0  0  0  0  0  0  0  0  0  # atno 17395 bound_to 11000

$$$$
