AV-unprocessed.smi:1793|AV-procd|sdf|7224|dock10
  -GOLD-   22720 8463D 1   1.00000     0.00000
 Structure written by MMmdl.
 46 48  0  0  0  0  0  0  0  0  1 V2000
  151.9669  145.4278  158.7299 C   0  0  0  0  0  0  0  0  0  0  0  0
  152.0808  143.9183  158.4487 C   0  0  2  0  0  0  0  0  0  0  0  0
  151.0604  143.5168  157.4839 N   0  0  0  0  0  0  0  0  0  0  0  0
  150.8892  142.2776  157.0029 C   0  0  0  0  0  0  0  0  0  0  0  0
  151.5969  141.3205  157.3167 O   0  0  0  0  0  0  0  0  0  0  0  0
  149.8677  142.2347  156.1319 N   0  0  0  0  0  0  0  0  0  0  0  0
  149.4395  141.1360  155.3348 C   0  0  0  0  0  0  0  0  0  0  0  0
  150.2120  139.9537  155.2280 C   0  0  0  0  0  0  0  0  0  0  0  0
  149.7158  138.8705  154.4822 C   0  0  0  0  0  0  0  0  0  0  0  0
  148.4530  139.0007  153.8816 C   0  0  0  0  0  0  0  0  0  0  0  0
  147.6989  140.1130  153.9858 N   0  0  0  0  0  0  0  0  0  0  0  0
  148.1700  141.1724  154.6891 C   0  0  0  0  0  0  0  0  0  0  0  0
  147.3414  142.3167  154.7496 N   0  0  0  0  0  0  0  0  0  0  0  0
  146.1707  142.3385  155.6199 C   0  0  0  0  0  0  0  0  0  0  0  0
  145.3468  143.5309  155.1426 C   0  0  0  0  0  0  0  0  0  0  0  0
  145.5824  143.5047  153.6354 C   0  0  0  0  0  0  0  0  0  0  0  0
  147.0259  143.0074  153.5024 C   0  0  0  0  0  0  0  0  0  0  0  0
  151.9222  143.0744  159.7285 C   0  0  2  0  0  0  0  0  0  0  0  0
  152.3101  143.7933  161.0210 C   0  0  0  0  0  0  0  0  0  0  0  0
  152.5964  142.6302  161.9428 C   0  0  0  0  0  0  0  0  0  0  0  0
  153.2617  141.6316  160.9994 C   0  0  0  0  0  0  0  0  0  0  0  0
  152.7861  141.9405  159.6911 O   0  0  0  0  0  0  0  0  0  0  0  0
  152.7443  145.7643  159.4156 H   0  0  0  0  0  0  0  0  0  0  0  0
  151.0019  145.6767  159.1726 H   0  0  0  0  0  0  0  0  0  0  0  0
  152.0727  146.0115  157.8150 H   0  0  0  0  0  0  0  0  0  0  0  0
  153.0658  143.7141  158.0244 H   0  0  0  0  0  0  0  0  0  0  0  0
  150.4280  144.2386  157.1706 H   0  0  0  0  0  0  0  0  0  0  0  0
  149.4317  143.1193  155.9165 H   0  0  0  0  0  0  0  0  0  0  0  0
  151.1651  139.8514  155.7239 H   0  0  0  0  0  0  0  0  0  0  0  0
  150.2844  137.9575  154.3847 H   0  0  0  0  0  0  0  0  0  0  0  0
  148.0334  138.1883  153.3067 H   0  0  0  0  0  0  0  0  0  0  0  0
  145.5860  141.4250  155.5042 H   0  0  0  0  0  0  0  0  0  0  0  0
  146.4556  142.4346  156.6680 H   0  0  0  0  0  0  0  0  0  0  0  0
  144.2935  143.4563  155.4140 H   0  0  0  0  0  0  0  0  0  0  0  0
  145.7440  144.4543  155.5666 H   0  0  0  0  0  0  0  0  0  0  0  0
  144.9031  142.7874  153.1724 H   0  0  0  0  0  0  0  0  0  0  0  0
  145.4229  144.4732  153.1609 H   0  0  0  0  0  0  0  0  0  0  0  0
  147.7003  143.8565  153.3903 H   0  0  0  0  0  0  0  0  0  0  0  0
  147.1467  142.3614  152.6315 H   0  0  0  0  0  0  0  0  0  0  0  0
  150.8971  142.7095  159.8166 H   0  0  0  0  0  0  0  0  0  0  0  0
  153.2142  144.3870  160.8760 H   0  0  0  0  0  0  0  0  0  0  0  0
  151.5248  144.4491  161.3981 H   0  0  0  0  0  0  0  0  0  0  0  0
  153.2248  142.8987  162.7924 H   0  0  0  0  0  0  0  0  0  0  0  0
  151.6609  142.2195  162.3251 H   0  0  0  0  0  0  0  0  0  0  0  0
  154.3452  141.7548  161.0112 H   0  0  0  0  0  0  0  0  0  0  0  0
  153.0360  140.5997  161.2694 H   0  0  0  0  0  0  0  0  0  0  0  0
  1  2  1  0  0  0  0
  1 23  1  0  0  0  0
  1 24  1  0  0  0  0
  1 25  1  0  0  0  0
  2  3  1  0  0  0  0
  2 18  1  0  0  0  0
  2 26  1  0  0  0  0
  3  4  1  0  0  0  0
  3 27  1  0  0  0  0
  4  5  2  0  0  0  0
  4  6  1  0  0  0  0
  6  7  1  0  0  0  0
  6 28  1  0  0  0  0
  7 12  1  0  0  0  0
  7  8  2  0  0  0  0
  8  9  1  0  0  0  0
  8 29  1  0  0  0  0
  9 10  2  0  0  0  0
  9 30  1  0  0  0  0
 10 11  1  0  0  0  0
 10 31  1  0  0  0  0
 11 12  2  0  0  0  0
 12 13  1  0  0  0  0
 13 17  1  0  0  0  0
 13 14  1  0  0  0  0
 14 15  1  0  0  0  0
 14 32  1  0  0  0  0
 14 33  1  0  0  0  0
 15 16  1  0  0  0  0
 15 34  1  0  0  0  0
 15 35  1  0  0  0  0
 16 17  1  0  0  0  0
 16 36  1  0  0  0  0
 16 37  1  0  0  0  0
 17 38  1  0  0  0  0
 17 39  1  0  0  0  0
 18 22  1  0  0  0  0
 18 19  1  0  0  0  0
 18 40  1  0  0  0  0
 19 20  1  0  0  0  0
 19 41  1  0  0  0  0
 19 42  1  0  0  0  0
 20 21  1  0  0  0  0
 20 43  1  0  0  0  0
 20 44  1  0  0  0  0
 21 22  1  0  0  0  0
 21 45  1  0  0  0  0
 21 46  1  0  0  0  0
M  END
> <s_m_source_file>
AV-unprocessed.smi

> <i_m_source_file_index>
1793

> <i_lp_mmshare_version>
43012

> <i_f3d_flags>
0

> <s_epik_input>
TzFbQ0gyXVtDSDJdW0NIMl1bQ0BIXTFbQ0BIXShbQ0gzXSlbTkhdQyg9TylbTkhdYzJbY0hdW2NIXVtjSF1uYzJOM1tDSDJdW0NIMl1bQ0gyXVtDSDJdMw==

> <s_epik_cmdline>
J2VwaWtfcHl0aG9uJywgJy1waCcsICc3LjAnLCAnLXRuJywgJzgnLCAnLW1hJywgJzIwMCcsICctbWV0YWxfYmluZGluZycsICctaW1hZScsICc8aW5maWxlLm1hZT4nLCAnLW9tYWUnLCAnPG91dGZpbGUubWFlPic=

> <r_lp_tautomer_probability>
1

> <r_epik_Ionization_Penalty>
0.0992086

> <r_epik_Ionization_Penalty_Charging>
0

> <r_epik_Ionization_Penalty_Neutral>
0.0992086

> <r_epik_State_Penalty>
0.0887141

> <r_epik_Charging_Adjusted_Penalty>
0.0887141

> <i_epik_Tot_Q>
0

> <i_epik_Tot_abs_Q>
0

> <r_epik_Metal_State_Penalty>
0.075945

> <b_epik_Metal_Only>
0

> <s_lp_Force_Field>
OPLS_2005

> <r_lp_Energy>
46.4352

> <b_lp_Chiralities_Consistent>
1

> <s_lp_Variant>
AV-unprocessed.smi:1793-1

> <Gold.Version>
5.8.1

> <Gold.Id.Protein>
6NUR|6NUR_protein|mol2

> <Gold.PLP.Fitness>
54.2329

> <Gold.PLP.PLP>
-49.0036

> <Gold.PLP.part.hbond>
-1.7593

> <Gold.PLP.part.metal>
0.0000

> <Gold.PLP.part.buried>
-5.4942

> <Gold.PLP.part.nonpolar>
-42.1986

> <Gold.PLP.part.repulsive>
0.4396

> <Gold.PLP.ligand.clash>
0.0000

> <Gold.PLP.ligand.torsion>
1.1615

> <Gold.PLP.Chemscore.Hbond>
1.3996

> <Gold.PLP.Chemscore.CHOScore>
1.0000

> <Gold.PLP.Chemscore.Metal>
0.0000

> <Gold.Chemscore.Hbonds>
donor molecule, donor type, donor heavy atom, donor atom, acceptor molecule, acceptor atom, score
      L1  H     3    27       P1  8028  0.55
      L1  H     6    28       P1  8028  1.00
      L1  C    10    31       P1  7948  0.86

> <Gold.PLP.Chemscore.Internal.Correction>
0.3533

> <Gold.Rescore>
     Score         DG    S(hbond)    S(metal)    S(lipo)     H(rot)  DE(clash)    DE(int)     intcor
     14.96     -19.86       1.13        0.00     120.34       1.36       1.93       2.97       ----

> <Gold.Chemscore.Fitness>
14.9584

> <Gold.Chemscore.DG>
-19.8557

> <Gold.Chemscore.ZeroCoef>
-5.4800

> <Gold.Chemscore.Hbond>
1.1296

> <Gold.Chemscore.Metal>
0.0000

> <Gold.Chemscore.Lipo>
120.3399

> <Gold.Chemscore.Internal_Hbond>
0.0000

> <Gold.Chemscore.DEClash>
1.9315

> <Gold.Chemscore.DEInternal>
2.9658

> <Gold.Chemscore.Rot>
1.3582

> <Gold.Chemscore.Internal.Correction>
   9.000000E+99

> <Gold.Chemscore.Hbonds>
donor molecule, donor type, donor heavy atom, donor atom, acceptor molecule, acceptor atom, score
      L1  H     3    27       P1  8028  0.47
      L1  H     6    28       P1  8028  1.00

> <Gold.Chemscore.Hbond.Weighted>
-3.7729

> <Gold.Chemscore.Metal.Weighted>
-0.0000

> <Gold.Chemscore.Lipo.Weighted>
-14.0798

> <Gold.Chemscore.Internal_Hbond.Weighted>
0.0000

> <Gold.Chemscore.DEClash.Weighted>
1.9315

> <Gold.Chemscore.DEInternal.Weighted>
2.9658

> <Gold.Chemscore.Rot.Weighted>
3.4771

> <Gold.Chemscore.Internal.Correction.Weighted>
   9.000000E+99

> <Gold.Protein.RotatedTorsions>
[ 6907 6896 6895 6894 ] final  -56.05 input  -60.11 | X-H torsion
[ 7974 7965 7964 7962 ] final -147.59 input  175.53 | X-H torsion
[ 8008 7997 7996 7995 ] final  -57.37 input   59.86 | X-H torsion
[ 10167 10162 10161 10158 ] final  130.77 input  -65.29 | X-H torsion
[ 10718 10713 10712 10709 ] final   95.49 input   66.30 | X-H torsion
[ 10763 10752 10751 10750 ] final  -13.72 input  -60.55 | X-H torsion
[ 11005 11000 10999 10996 ] final -127.98 input  -57.11 | X-H torsion

> <Gold.Protein.ActiveResidues>
 VAL166  LYS551  ARG553  GLY616  TRP617  ASP618  TYR619  PRO620  LYS621  CYS622 
 ASP623  PHE694  ASN695  SER759  ASP760  ASP761  ALA762  ILE779  LEU786  VAL792 
 PHE793  MET794  SER795  GLU796  ALA797  LYS798  CYS799  TRP800  GLU811  SER814 

> <Gold.Protein.RotatedAtoms>
  150.8200  134.7402  159.6763 H   0  0  0  0  0  0  0  0  0  0  0  0  # atno 6907 bound_to 6896
  152.4316  134.5763  159.9945 H   0  0  0  0  0  0  0  0  0  0  0  0  # atno 6908 bound_to 6896
  151.5950  133.3325  159.3071 H   0  0  0  0  0  0  0  0  0  0  0  0  # atno 6909 bound_to 6896
  144.8084  140.5307  143.5659 H   0  0  0  0  0  0  0  0  0  0  0  0  # atno 7974 bound_to 7965
  154.4265  140.1108  156.5787 H   0  0  0  0  0  0  0  0  0  0  0  0  # atno 8008 bound_to 7997
  155.6135  140.3494  155.4611 H   0  0  0  0  0  0  0  0  0  0  0  0  # atno 8009 bound_to 7997
  156.0080  140.1213  157.0471 H   0  0  0  0  0  0  0  0  0  0  0  0  # atno 8010 bound_to 7997
  139.5414  144.6734  151.4612 H   0  0  0  0  0  0  0  0  0  0  0  0  # atno 10167 bound_to 10162
  157.6938  131.0547  150.4347 H   0  0  0  0  0  0  0  0  0  0  0  0  # atno 10718 bound_to 10713
  153.5175  135.7016  153.5748 H   0  0  0  0  0  0  0  0  0  0  0  0  # atno 10763 bound_to 10752
  153.3812  135.3920  155.1858 H   0  0  0  0  0  0  0  0  0  0  0  0  # atno 10764 bound_to 10752
  154.8697  135.3835  154.4661 H   0  0  0  0  0  0  0  0  0  0  0  0  # atno 10765 bound_to 10752
  140.9554  134.1009  157.4021 H   0  0  0  0  0  0  0  0  0  0  0  0  # atno 11005 bound_to 11000
  145.5384  139.1475  143.3461 LP  0  0  0  0  0  0  0  0  0  0  0  0  # atno 17320 bound_to 7965
  146.2378  140.5523  142.8947 LP  0  0  0  0  0  0  0  0  0  0  0  0  # atno 17321 bound_to 7965
  140.6646  143.8426  150.6926 LP  0  0  0  0  0  0  0  0  0  0  0  0  # atno 17342 bound_to 10162
  140.1831  143.4098  152.1918 LP  0  0  0  0  0  0  0  0  0  0  0  0  # atno 17343 bound_to 10162
  156.4710  130.4053  149.6518 LP  0  0  0  0  0  0  0  0  0  0  0  0  # atno 17370 bound_to 10713
  156.3598  130.7475  151.2446 LP  0  0  0  0  0  0  0  0  0  0  0  0  # atno 17371 bound_to 10713
  139.8860  135.0078  156.6474 LP  0  0  0  0  0  0  0  0  0  0  0  0  # atno 17394 bound_to 11000
  140.7544  133.8870  155.8370 LP  0  0  0  0  0  0  0  0  0  0  0  0  # atno 17395 bound_to 11000

$$$$
