AV-unprocessed.smi:2649|AV-procd|sdf|10289|dock9
  -GOLD-   2272014303D 1   1.00000     0.00000
 Structure written by MMmdl.
 34 35  0  0  0  0  0  0  0  0  1 V2000
  154.5063  138.9395  160.2484 C   0  0  0  0  0  0  0  0  0  0  0  0
  155.7787  140.1715  160.6394 S   0  0  0  0  0  0  0  0  0  0  0  0
  154.8866  141.2336  161.8156 C   0  0  0  0  0  0  0  0  0  0  0  0
  153.7412  141.9631  161.1315 C   0  0  0  0  0  0  0  0  0  0  0  0
  153.3753  141.4673  159.9285 N   0  0  0  0  0  0  0  0  0  0  0  0
  152.3698  142.0569  159.2371 C   0  0  0  0  0  0  0  0  0  0  0  0
  151.9199  141.6070  157.9677 N   0  0  0  0  0  0  0  0  0  0  0  0
  152.3773  140.5708  157.2383 C   0  0  0  0  0  0  0  0  0  0  0  0
  153.2980  139.8303  157.5867 O   0  0  0  0  0  0  0  0  0  0  0  0
  151.6556  140.3268  155.9044 C   0  0  2  0  0  0  0  0  0  0  0  0
  150.1245  140.5246  155.9977 C   0  0  0  0  0  0  0  0  0  0  0  0
  149.5377  140.2484  154.7325 O   0  0  0  0  0  0  0  0  0  0  0  0
  149.8009  138.9147  154.3193 C   0  0  0  0  0  0  0  0  0  0  0  0
  151.3218  138.7148  154.2167 C   0  0  0  0  0  0  0  0  0  0  0  0
  151.9126  138.9899  155.4802 O   0  0  0  0  0  0  0  0  0  0  0  0
  151.6877  143.1800  159.7539 C   0  0  0  0  0  0  0  0  0  0  0  0
  152.0594  143.6969  161.0096 C   0  0  0  0  0  0  0  0  0  0  0  0
  153.1063  143.0808  161.7192 C   0  0  0  0  0  0  0  0  0  0  0  0
  153.5759  143.6968  163.2642 Cl  0  0  0  0  0  0  0  0  0  0  0  0
  154.9236  138.1626  159.6079 H   0  0  0  0  0  0  0  0  0  0  0  0
  153.6696  139.4000  159.7236 H   0  0  0  0  0  0  0  0  0  0  0  0
  154.1333  138.4730  161.1603 H   0  0  0  0  0  0  0  0  0  0  0  0
  154.5147  140.6214  162.6383 H   0  0  0  0  0  0  0  0  0  0  0  0
  155.5799  141.9542  162.2495 H   0  0  0  0  0  0  0  0  0  0  0  0
  151.1651  142.1382  157.5583 H   0  0  0  0  0  0  0  0  0  0  0  0
  152.0718  141.0227  155.1738 H   0  0  0  0  0  0  0  0  0  0  0  0
  149.6864  139.8785  156.7609 H   0  0  0  0  0  0  0  0  0  0  0  0
  149.8835  141.5531  156.2690 H   0  0  0  0  0  0  0  0  0  0  0  0
  149.3606  138.2071  155.0237 H   0  0  0  0  0  0  0  0  0  0  0  0
  149.3293  138.7417  153.3519 H   0  0  0  0  0  0  0  0  0  0  0  0
  151.5509  137.6878  153.9321 H   0  0  0  0  0  0  0  0  0  0  0  0
  151.7493  139.3639  153.4508 H   0  0  0  0  0  0  0  0  0  0  0  0
  150.8861  143.6441  159.1978 H   0  0  0  0  0  0  0  0  0  0  0  0
  151.5469  144.5543  161.4206 H   0  0  0  0  0  0  0  0  0  0  0  0
  1  2  1  0  0  0  0
  1 20  1  0  0  0  0
  1 21  1  0  0  0  0
  1 22  1  0  0  0  0
  2  3  1  0  0  0  0
  3  4  1  0  0  0  0
  3 23  1  0  0  0  0
  3 24  1  0  0  0  0
  4 18  1  0  0  0  0
  4  5  2  0  0  0  0
  5  6  1  0  0  0  0
  6  7  1  0  0  0  0
  6 16  2  0  0  0  0
  7  8  1  0  0  0  0
  7 25  1  0  0  0  0
  8  9  2  0  0  0  0
  8 10  1  0  0  0  0
 10 15  1  0  0  0  0
 10 11  1  0  0  0  0
 10 26  1  0  0  0  0
 11 12  1  0  0  0  0
 11 27  1  0  0  0  0
 11 28  1  0  0  0  0
 12 13  1  0  0  0  0
 13 14  1  0  0  0  0
 13 29  1  0  0  0  0
 13 30  1  0  0  0  0
 14 15  1  0  0  0  0
 14 31  1  0  0  0  0
 14 32  1  0  0  0  0
 16 17  1  0  0  0  0
 16 33  1  0  0  0  0
 17 18  2  0  0  0  0
 17 34  1  0  0  0  0
 18 19  1  0  0  0  0
M  END
> <s_m_source_file>
AV-unprocessed.smi

> <i_m_source_file_index>
2649

> <i_lp_mmshare_version>
43012

> <i_f3d_flags>
0

> <s_epik_input>
W0NIM11TW0NIMl1jMW5jKFtjSF1bY0hdYzFDbClbTkhdQyg9TylbQ0BASF0yW0NIMl1PW0NIMl1bQ0gyXU8y

> <s_epik_cmdline>
J2VwaWtfcHl0aG9uJywgJy1waCcsICc3LjAnLCAnLXRuJywgJzgnLCAnLW1hJywgJzIwMCcsICctbWV0YWxfYmluZGluZycsICctaW1hZScsICc8aW5maWxlLm1hZT4nLCAnLW9tYWUnLCAnPG91dGZpbGUubWFlPic=

> <r_lp_tautomer_probability>
1

> <r_epik_Ionization_Penalty>
9.71596e-06

> <r_epik_Ionization_Penalty_Charging>
0

> <r_epik_Ionization_Penalty_Neutral>
9.71596e-06

> <r_epik_State_Penalty>
-0

> <r_epik_Charging_Adjusted_Penalty>
0

> <i_epik_Tot_Q>
0

> <i_epik_Tot_abs_Q>
0

> <r_epik_Metal_State_Penalty>
-0

> <b_epik_Metal_Only>
0

> <s_lp_Force_Field>
OPLS_2005

> <r_lp_Energy>
11.5794

> <b_lp_Chiralities_Consistent>
1

> <s_lp_Variant>
AV-unprocessed.smi:2649-1

> <Gold.Version>
5.8.1

> <Gold.Id.Protein>
6NUR|6NUR_protein|mol2

> <Gold.PLP.Fitness>
41.9570

> <Gold.PLP.PLP>
-40.3511

> <Gold.PLP.part.hbond>
-1.3743

> <Gold.PLP.part.metal>
0.0000

> <Gold.PLP.part.buried>
-5.3047

> <Gold.PLP.part.nonpolar>
-33.1979

> <Gold.PLP.part.repulsive>
0.1859

> <Gold.PLP.ligand.clash>
0.0000

> <Gold.PLP.ligand.torsion>
0.7582

> <Gold.PLP.Chemscore.Hbond>
1.0398

> <Gold.PLP.Chemscore.CHOScore>
0.0000

> <Gold.PLP.Chemscore.Metal>
0.0000

> <Gold.Chemscore.Hbonds>
donor molecule, donor type, donor heavy atom, donor atom, acceptor molecule, acceptor atom, score
      P1  H  7997  8010       L1     9  0.79

> <Gold.PLP.Chemscore.Internal.Correction>
0.0031

> <Gold.Rescore>
     Score         DG    S(hbond)    S(metal)    S(lipo)     H(rot)  DE(clash)    DE(int)     intcor
     14.91     -17.01       0.81        0.00     104.85       1.34       0.21       1.90       ----

> <Gold.Chemscore.Fitness>
14.9065

> <Gold.Chemscore.DG>
-17.0118

> <Gold.Chemscore.ZeroCoef>
-5.4800

> <Gold.Chemscore.Hbond>
0.8077

> <Gold.Chemscore.Metal>
0.0000

> <Gold.Chemscore.Lipo>
104.8479

> <Gold.Chemscore.Internal_Hbond>
0.0000

> <Gold.Chemscore.DEClash>
0.2081

> <Gold.Chemscore.DEInternal>
1.8973

> <Gold.Chemscore.Rot>
1.3410

> <Gold.Chemscore.Internal.Correction>
   9.000000E+99

> <Gold.Chemscore.Hbonds>
donor molecule, donor type, donor heavy atom, donor atom, acceptor molecule, acceptor atom, score
      P1  H  7997  8010       L1     9  0.75

> <Gold.Chemscore.Hbond.Weighted>
-2.6977

> <Gold.Chemscore.Metal.Weighted>
-0.0000

> <Gold.Chemscore.Lipo.Weighted>
-12.2672

> <Gold.Chemscore.Internal_Hbond.Weighted>
0.0000

> <Gold.Chemscore.DEClash.Weighted>
0.2081

> <Gold.Chemscore.DEInternal.Weighted>
1.8973

> <Gold.Chemscore.Rot.Weighted>
3.4331

> <Gold.Chemscore.Internal.Correction.Weighted>
   9.000000E+99

> <Gold.Protein.RotatedTorsions>
[ 6907 6896 6895 6894 ] final -152.81 input  -60.11 | X-H torsion
[ 7974 7965 7964 7962 ] final  -56.89 input  175.53 | X-H torsion
[ 8008 7997 7996 7995 ] final   24.48 input   59.86 | X-H torsion
[ 10167 10162 10161 10158 ] final -132.91 input  -65.29 | X-H torsion
[ 10718 10713 10712 10709 ] final   68.44 input   66.30 | X-H torsion
[ 10763 10752 10751 10750 ] final  -64.39 input  -60.55 | X-H torsion
[ 11005 11000 10999 10996 ] final   31.61 input  -57.11 | X-H torsion

> <Gold.Protein.ActiveResidues>
 VAL166  LYS551  ARG553  GLY616  TRP617  ASP618  TYR619  PRO620  LYS621  CYS622 
 ASP623  PHE694  ASN695  SER759  ASP760  ASP761  ALA762  ILE779  LEU786  VAL792 
 PHE793  MET794  SER795  GLU796  ALA797  LYS798  CYS799  TRP800  GLU811  SER814 

> <Gold.Protein.RotatedAtoms>
  151.2332  133.4439  159.2604 H   0  0  0  0  0  0  0  0  0  0  0  0  # atno 6907 bound_to 6896
  151.0775  134.9837  159.8349 H   0  0  0  0  0  0  0  0  0  0  0  0  # atno 6908 bound_to 6896
  152.5420  134.2274  159.8864 H   0  0  0  0  0  0  0  0  0  0  0  0  # atno 6909 bound_to 6896
  145.8574  140.8309  142.9954 H   0  0  0  0  0  0  0  0  0  0  0  0  # atno 7974 bound_to 7965
  154.9970  140.3120  155.4883 H   0  0  0  0  0  0  0  0  0  0  0  0  # atno 8008 bound_to 7997
  156.2931  140.2239  156.5018 H   0  0  0  0  0  0  0  0  0  0  0  0  # atno 8009 bound_to 7997
  154.7653  140.0456  157.0995 H   0  0  0  0  0  0  0  0  0  0  0  0  # atno 8010 bound_to 7997
  139.9036  143.6577  152.2590 H   0  0  0  0  0  0  0  0  0  0  0  0  # atno 10167 bound_to 10162
  157.6289  130.9373  150.0377 H   0  0  0  0  0  0  0  0  0  0  0  0  # atno 10718 bound_to 10713
  154.3293  135.6180  153.5544 H   0  0  0  0  0  0  0  0  0  0  0  0  # atno 10763 bound_to 10752
  152.9813  135.5743  154.4980 H   0  0  0  0  0  0  0  0  0  0  0  0  # atno 10764 bound_to 10752
  154.4663  135.2857  155.1652 H   0  0  0  0  0  0  0  0  0  0  0  0  # atno 10765 bound_to 10752
  140.2821  134.2961  155.7798 H   0  0  0  0  0  0  0  0  0  0  0  0  # atno 11005 bound_to 11000
  144.6727  140.1045  143.7459 LP  0  0  0  0  0  0  0  0  0  0  0  0  # atno 17320 bound_to 7965
  145.9287  139.2592  143.1338 LP  0  0  0  0  0  0  0  0  0  0  0  0  # atno 17321 bound_to 7965
  139.7003  144.7636  151.1284 LP  0  0  0  0  0  0  0  0  0  0  0  0  # atno 17342 bound_to 10162
  140.7701  143.5467  150.9251 LP  0  0  0  0  0  0  0  0  0  0  0  0  # atno 17343 bound_to 10162
  156.1479  130.3642  149.9482 LP  0  0  0  0  0  0  0  0  0  0  0  0  # atno 17370 bound_to 10713
  156.7509  130.9115  151.3637 LP  0  0  0  0  0  0  0  0  0  0  0  0  # atno 17371 bound_to 10713
  141.2161  133.7532  156.9496 LP  0  0  0  0  0  0  0  0  0  0  0  0  # atno 17394 bound_to 11000
  140.1274  134.9378  157.2289 LP  0  0  0  0  0  0  0  0  0  0  0  0  # atno 17395 bound_to 11000

$$$$
