AV-unprocessed.smi:1286|AV-procd|sdf|5378|dock10
  -GOLD-   22720 4523D 1   1.00000     0.00000
 Structure written by MMmdl.
 36 37  0  0  0  0  0  0  0  0  1 V2000
  146.8628  142.7316  158.0094 C   0  0  0  0  0  0  0  0  0  0  0  0
  148.1697  141.9200  157.9445 C   0  0  1  0  0  0  0  0  0  0  0  0
  148.1065  140.7372  156.9577 C   0  0  0  0  0  0  0  0  0  0  0  0
  147.7704  141.1491  155.6065 N   0  0  0  0  0  0  0  0  0  0  0  0
  146.6338  141.7944  155.1678 C   0  0  0  0  0  0  0  0  0  0  0  0
  146.7637  141.9749  153.8206 C   0  0  0  0  0  0  0  0  0  0  0  0
  148.0284  141.3949  153.5223 C   0  0  0  0  0  0  0  0  0  0  0  0
  148.6277  140.8994  154.5929 N   0  0  0  0  0  0  0  0  0  0  0  0
  149.2816  142.7903  157.5725 N   0  0  0  0  0  0  0  0  0  0  0  0
  150.5835  142.4984  157.7161 C   0  0  0  0  0  0  0  0  0  0  0  0
  150.9915  141.4410  158.1966 O   0  0  0  0  0  0  0  0  0  0  0  0
  151.5766  143.5691  157.2506 C   0  0  0  0  0  0  0  0  0  0  0  0
  152.3590  144.2371  158.4026 C   0  0  1  0  0  0  0  0  0  0  0  0
  151.5677  145.2856  159.1475 C   0  0  0  0  0  0  0  0  0  0  0  0
  151.5363  145.0702  160.4605 C   0  0  0  0  0  0  0  0  0  0  0  0
  152.2948  143.8354  160.8599 C   0  0  0  0  0  0  0  0  0  0  0  0
  152.7702  143.2395  159.5158 C   0  0  0  0  0  0  0  0  0  0  0  0
  146.0293  142.1202  158.3559 H   0  0  0  0  0  0  0  0  0  0  0  0
  146.5975  143.1322  157.0305 H   0  0  0  0  0  0  0  0  0  0  0  0
  146.9527  143.5711  158.6994 H   0  0  0  0  0  0  0  0  0  0  0  0
  148.3626  141.5098  158.9376 H   0  0  0  0  0  0  0  0  0  0  0  0
  149.0607  140.2076  156.9392 H   0  0  0  0  0  0  0  0  0  0  0  0
  147.3572  140.0152  157.2850 H   0  0  0  0  0  0  0  0  0  0  0  0
  145.8384  142.0708  155.8444 H   0  0  0  0  0  0  0  0  0  0  0  0
  146.0624  142.4489  153.1504 H   0  0  0  0  0  0  0  0  0  0  0  0
  148.5251  141.3191  152.5663 H   0  0  0  0  0  0  0  0  0  0  0  0
  149.0418  143.6854  157.1714 H   0  0  0  0  0  0  0  0  0  0  0  0
  152.2774  143.1299  156.5384 H   0  0  0  0  0  0  0  0  0  0  0  0
  151.0173  144.3279  156.7022 H   0  0  0  0  0  0  0  0  0  0  0  0
  153.2531  144.7219  158.0074 H   0  0  0  0  0  0  0  0  0  0  0  0
  151.1016  146.1219  158.6474 H   0  0  0  0  0  0  0  0  0  0  0  0
  151.0403  145.7007  161.1834 H   0  0  0  0  0  0  0  0  0  0  0  0
  153.1339  144.1058  161.5015 H   0  0  0  0  0  0  0  0  0  0  0  0
  151.6472  143.1466  161.4032 H   0  0  0  0  0  0  0  0  0  0  0  0
  152.3029  142.2661  159.3603 H   0  0  0  0  0  0  0  0  0  0  0  0
  153.8485  143.0762  159.5171 H   0  0  0  0  0  0  0  0  0  0  0  0
  1  2  1  0  0  0  0
  1 18  1  0  0  0  0
  1 19  1  0  0  0  0
  1 20  1  0  0  0  0
  2  3  1  0  0  0  0
  2  9  1  0  0  0  0
  2 21  1  0  0  0  0
  3  4  1  0  0  0  0
  3 22  1  0  0  0  0
  3 23  1  0  0  0  0
  4  8  1  0  0  0  0
  4  5  1  0  0  0  0
  5  6  2  0  0  0  0
  5 24  1  0  0  0  0
  6  7  1  0  0  0  0
  6 25  1  0  0  0  0
  7  8  2  0  0  0  0
  7 26  1  0  0  0  0
  9 10  1  0  0  0  0
  9 27  1  0  0  0  0
 10 11  2  0  0  0  0
 10 12  1  0  0  0  0
 12 13  1  0  0  0  0
 12 28  1  0  0  0  0
 12 29  1  0  0  0  0
 13 17  1  0  0  0  0
 13 14  1  0  0  0  0
 13 30  1  0  0  0  0
 14 15  2  0  0  0  0
 14 31  1  0  0  0  0
 15 16  1  0  0  0  0
 15 32  1  0  0  0  0
 16 17  1  0  0  0  0
 16 33  1  0  0  0  0
 16 34  1  0  0  0  0
 17 35  1  0  0  0  0
 17 36  1  0  0  0  0
M  END
> <s_m_source_file>
AV-unprocessed.smi

> <i_m_source_file_index>
1286

> <i_lp_mmshare_version>
43012

> <i_f3d_flags>
0

> <s_epik_input>
bjFbY0hdW2NIXVtjSF1uMVtDSDJdW0NAQEhdKFtDSDNdKVtOSF1DKD1PKVtDSDJdW0NAQEhdMltDSF09W0NIXVtDSDJdW0NIMl0y

> <s_epik_cmdline>
J2VwaWtfcHl0aG9uJywgJy1waCcsICc3LjAnLCAnLXRuJywgJzgnLCAnLW1hJywgJzIwMCcsICctbWV0YWxfYmluZGluZycsICctaW1hZScsICc8aW5maWxlLm1hZT4nLCAnLW9tYWUnLCAnPG91dGZpbGUubWFlPic=

> <r_lp_tautomer_probability>
1

> <r_epik_Ionization_Penalty>
0.000301761

> <r_epik_Ionization_Penalty_Charging>
0

> <r_epik_Ionization_Penalty_Neutral>
0.000301761

> <r_epik_State_Penalty>
-0

> <r_epik_Charging_Adjusted_Penalty>
0

> <i_epik_Tot_Q>
0

> <i_epik_Tot_abs_Q>
0

> <r_epik_Metal_State_Penalty>
-0

> <b_epik_Metal_Only>
0

> <s_lp_Force_Field>
OPLS_2005

> <r_lp_Energy>
16.9784

> <b_lp_Chiralities_Consistent>
1

> <s_lp_Variant>
AV-unprocessed.smi:1286-4

> <Gold.Version>
5.8.1

> <Gold.Id.Protein>
6NUR|6NUR_protein|mol2

> <Gold.PLP.Fitness>
44.0627

> <Gold.PLP.PLP>
-39.1895

> <Gold.PLP.part.hbond>
-1.0000

> <Gold.PLP.part.metal>
0.0000

> <Gold.PLP.part.buried>
-6.2618

> <Gold.PLP.part.nonpolar>
-31.9762

> <Gold.PLP.part.repulsive>
0.1870

> <Gold.PLP.ligand.clash>
0.0000

> <Gold.PLP.ligand.torsion>
0.4262

> <Gold.PLP.Chemscore.Hbond>
0.8960

> <Gold.PLP.Chemscore.CHOScore>
1.0000

> <Gold.PLP.Chemscore.Metal>
0.0000

> <Gold.Chemscore.Hbonds>
donor molecule, donor type, donor heavy atom, donor atom, acceptor molecule, acceptor atom, score
      L1  H     9    27       P1  8028  0.98
      L1  C     7    26       P1  7957  1.00

> <Gold.PLP.Chemscore.Internal.Correction>
0.0376

> <Gold.Rescore>
     Score         DG    S(hbond)    S(metal)    S(lipo)     H(rot)  DE(clash)    DE(int)     intcor
     13.18     -14.09       0.40        0.00      98.00       1.64       0.40       0.51       ----

> <Gold.Chemscore.Fitness>
13.1788

> <Gold.Chemscore.DG>
-14.0853

> <Gold.Chemscore.ZeroCoef>
-5.4800

> <Gold.Chemscore.Hbond>
0.4002

> <Gold.Chemscore.Metal>
0.0000

> <Gold.Chemscore.Lipo>
97.9964

> <Gold.Chemscore.Internal_Hbond>
0.0000

> <Gold.Chemscore.DEClash>
0.3970

> <Gold.Chemscore.DEInternal>
0.5095

> <Gold.Chemscore.Rot>
1.6394

> <Gold.Chemscore.Internal.Correction>
   9.000000E+99

> <Gold.Chemscore.Hbonds>
donor molecule, donor type, donor heavy atom, donor atom, acceptor molecule, acceptor atom, score
      L1  H     9    27       P1  8028  0.37

> <Gold.Chemscore.Hbond.Weighted>
-1.3366

> <Gold.Chemscore.Metal.Weighted>
-0.0000

> <Gold.Chemscore.Lipo.Weighted>
-11.4656

> <Gold.Chemscore.Internal_Hbond.Weighted>
0.0000

> <Gold.Chemscore.DEClash.Weighted>
0.3970

> <Gold.Chemscore.DEInternal.Weighted>
0.5095

> <Gold.Chemscore.Rot.Weighted>
4.1969

> <Gold.Chemscore.Internal.Correction.Weighted>
   9.000000E+99

> <Gold.Protein.RotatedTorsions>
[ 6907 6896 6895 6894 ] final  155.60 input  -60.11 | X-H torsion
[ 7974 7965 7964 7962 ] final  -16.67 input  175.53 | X-H torsion
[ 8008 7997 7996 7995 ] final -116.43 input   59.86 | X-H torsion
[ 10167 10162 10161 10158 ] final   25.05 input  -65.29 | X-H torsion
[ 10718 10713 10712 10709 ] final  -54.33 input   66.30 | X-H torsion
[ 10763 10752 10751 10750 ] final -130.79 input  -60.55 | X-H torsion
[ 11005 11000 10999 10996 ] final   59.79 input  -57.11 | X-H torsion

> <Gold.Protein.ActiveResidues>
 VAL166  LYS551  ARG553  GLY616  TRP617  ASP618  TYR619  PRO620  LYS621  CYS622 
 ASP623  PHE694  ASN695  SER759  ASP760  ASP761  ALA762  ILE779  LEU786  VAL792 
 PHE793  MET794  SER795  GLU796  ALA797  LYS798  CYS799  TRP800  GLU811  SER814 

> <Gold.Protein.RotatedAtoms>
  152.0418  133.3980  159.4339 H   0  0  0  0  0  0  0  0  0  0  0  0  # atno 6907 bound_to 6896
  150.6875  134.3407  159.4876 H   0  0  0  0  0  0  0  0  0  0  0  0  # atno 6908 bound_to 6896
  152.1206  134.9208  160.0614 H   0  0  0  0  0  0  0  0  0  0  0  0  # atno 6909 bound_to 6896
  146.1977  140.3670  142.8435 H   0  0  0  0  0  0  0  0  0  0  0  0  # atno 7974 bound_to 7965
  155.0676  140.0393  157.2598 H   0  0  0  0  0  0  0  0  0  0  0  0  # atno 8008 bound_to 7997
  154.7008  140.2673  155.6697 H   0  0  0  0  0  0  0  0  0  0  0  0  # atno 8009 bound_to 7997
  156.2760  140.2741  156.1618 H   0  0  0  0  0  0  0  0  0  0  0  0  # atno 8010 bound_to 7997
  140.5138  144.0116  150.6384 H   0  0  0  0  0  0  0  0  0  0  0  0  # atno 10167 bound_to 10162
  156.1460  130.4153  150.0023 H   0  0  0  0  0  0  0  0  0  0  0  0  # atno 10718 bound_to 10713
  154.8754  135.3851  154.4141 H   0  0  0  0  0  0  0  0  0  0  0  0  # atno 10763 bound_to 10752
  153.4852  135.7030  153.5920 H   0  0  0  0  0  0  0  0  0  0  0  0  # atno 10764 bound_to 10752
  153.4319  135.3876  155.2142 H   0  0  0  0  0  0  0  0  0  0  0  0  # atno 10765 bound_to 10752
  140.0278  134.6056  155.9548 H   0  0  0  0  0  0  0  0  0  0  0  0  # atno 11005 bound_to 11000
  144.8615  140.7145  143.6104 LP  0  0  0  0  0  0  0  0  0  0  0  0  # atno 17320 bound_to 7965
  145.3590  139.1686  143.4393 LP  0  0  0  0  0  0  0  0  0  0  0  0  # atno 17321 bound_to 7965
  140.3446  143.2999  152.0552 LP  0  0  0  0  0  0  0  0  0  0  0  0  # atno 17342 bound_to 10162
  139.4903  144.6418  151.6862 LP  0  0  0  0  0  0  0  0  0  0  0  0  # atno 17343 bound_to 10162
  156.7895  130.9251  151.3646 LP  0  0  0  0  0  0  0  0  0  0  0  0  # atno 17370 bound_to 10713
  157.6617  130.8972  149.9844 LP  0  0  0  0  0  0  0  0  0  0  0  0  # atno 17371 bound_to 10713
  141.1813  133.6547  156.5033 LP  0  0  0  0  0  0  0  0  0  0  0  0  # atno 17394 bound_to 11000
  140.4276  134.7130  157.4924 LP  0  0  0  0  0  0  0  0  0  0  0  0  # atno 17395 bound_to 11000

$$$$
