AV-unprocessed.smi:1120|AV-procd|sdf|4823|dock8
  -GOLD-   22720 3383D 1   1.00000     0.00000
 Structure written by MMmdl.
 47 48  0  0  0  0  0  0  0  0  2 V2000
  157.2514  137.8421  151.9767 C   0  0  0  0  0  0  0  0  0  0  0  0
  157.6344  137.2605  153.3443 C   0  0  2  0  0  0  0  0  0  0  0  0
  156.9974  135.8716  153.5782 C   0  0  0  0  0  0  0  0  0  0  0  0
  157.3300  135.2791  154.9725 C   0  0  0  0  0  0  0  0  0  0  0  0
  156.9738  136.2073  156.1601 C   0  0  2  0  0  0  0  0  0  0  0  0
  155.5268  136.2788  156.3163 N   0  5  0  0  0  0  0  0  0  0  0  0
  154.8813  137.0632  157.5815 S   0  0  0  0  0  0  0  0  0  0  0  0
  154.4390  136.1362  158.6357 O   0  0  0  0  0  0  0  0  0  0  0  0
  155.6824  138.2231  158.0081 O   0  0  0  0  0  0  0  0  0  0  0  0
  153.3287  137.7276  156.8238 C   0  0  0  0  0  0  0  0  0  0  0  0
  152.4206  138.3670  157.8758 C   0  0  0  0  0  0  0  0  0  0  0  0
  151.4145  137.7731  158.2640 O   0  0  0  0  0  0  0  0  0  0  0  0
  152.7971  139.5664  158.3460 N   0  0  0  0  0  0  0  0  0  0  0  0
  152.0808  140.3352  159.3560 C   0  0  0  0  0  0  0  0  0  0  0  0
  152.9177  141.5228  159.8597 C   0  0  0  0  0  0  0  0  0  0  0  0
  152.3283  142.8579  159.4462 C   0  0  0  0  0  0  0  0  0  0  0  0
  152.3494  143.9591  160.3285 C   0  0  0  0  0  0  0  0  0  0  0  0
  151.7842  145.1751  159.8976 C   0  0  0  0  0  0  0  0  0  0  0  0
  151.2204  145.2421  158.6091 C   0  0  0  0  0  0  0  0  0  0  0  0
  151.2471  144.0852  157.8052 C   0  0  0  0  0  0  0  0  0  0  0  0
  151.7874  142.9150  158.2079 N   0  0  0  0  0  0  0  0  0  0  0  0
  157.5689  137.6153  155.8993 C   0  0  0  0  0  0  0  0  0  0  0  0
  157.2309  138.1999  154.5034 C   0  0  0  0  0  0  0  0  0  0  0  0
  156.1734  137.9836  151.8944 H   0  0  0  0  0  0  0  0  0  0  0  0
  157.5628  137.1803  151.1682 H   0  0  0  0  0  0  0  0  0  0  0  0
  157.7282  138.8089  151.8142 H   0  0  0  0  0  0  0  0  0  0  0  0
  158.7189  137.1433  153.3654 H   0  0  0  0  0  0  0  0  0  0  0  0
  155.9148  135.9384  153.4502 H   0  0  0  0  0  0  0  0  0  0  0  0
  157.3419  135.1807  152.8081 H   0  0  0  0  0  0  0  0  0  0  0  0
  156.8377  134.3128  155.0906 H   0  0  0  0  0  0  0  0  0  0  0  0
  158.3999  135.0699  155.0079 H   0  0  0  0  0  0  0  0  0  0  0  0
  157.4391  135.7951  157.0562 H   0  0  0  0  0  0  0  0  0  0  0  0
  153.5943  138.4432  156.0456 H   0  0  0  0  0  0  0  0  0  0  0  0
  152.8067  136.8988  156.3457 H   0  0  0  0  0  0  0  0  0  0  0  0
  153.6310  139.9853  157.9604 H   0  0  0  0  0  0  0  0  0  0  0  0
  151.1544  140.6944  158.9075 H   0  0  0  0  0  0  0  0  0  0  0  0
  151.7939  139.6887  160.1868 H   0  0  0  0  0  0  0  0  0  0  0  0
  152.9996  141.4917  160.9470 H   0  0  0  0  0  0  0  0  0  0  0  0
  153.9361  141.4521  159.4749 H   0  0  0  0  0  0  0  0  0  0  0  0
  152.7861  143.8749  161.3129 H   0  0  0  0  0  0  0  0  0  0  0  0
  151.7829  146.0403  160.5440 H   0  0  0  0  0  0  0  0  0  0  0  0
  150.7779  146.1577  158.2454 H   0  0  0  0  0  0  0  0  0  0  0  0
  150.8241  144.1006  156.8117 H   0  0  0  0  0  0  0  0  0  0  0  0
  157.2560  138.3134  156.6756 H   0  0  0  0  0  0  0  0  0  0  0  0
  158.6538  137.5501  155.9873 H   0  0  0  0  0  0  0  0  0  0  0  0
  157.7400  139.1573  154.3881 H   0  0  0  0  0  0  0  0  0  0  0  0
  156.1637  138.4242  154.4413 H   0  0  0  0  0  0  0  0  0  0  0  0
  1  2  1  0  0  0  0
  1 24  1  0  0  0  0
  1 25  1  0  0  0  0
  1 26  1  0  0  0  0
  2 23  1  0  0  0  0
  2  3  1  0  0  0  0
  2 27  1  0  0  0  0
  3  4  1  0  0  0  0
  3 28  1  0  0  0  0
  3 29  1  0  0  0  0
  4  5  1  0  0  0  0
  4 30  1  0  0  0  0
  4 31  1  0  0  0  0
  5  6  1  0  0  0  0
  5 22  1  0  0  0  0
  5 32  1  0  0  0  0
  6  7  1  0  0  0  0
  7  8  2  0  0  0  0
  7  9  2  0  0  0  0
  7 10  1  0  0  0  0
 10 11  1  0  0  0  0
 10 33  1  0  0  0  0
 10 34  1  0  0  0  0
 11 12  2  0  0  0  0
 11 13  1  0  0  0  0
 13 14  1  0  0  0  0
 13 35  1  0  0  0  0
 14 15  1  0  0  0  0
 14 36  1  0  0  0  0
 14 37  1  0  0  0  0
 15 16  1  0  0  0  0
 15 38  1  0  0  0  0
 15 39  1  0  0  0  0
 16 21  1  0  0  0  0
 16 17  2  0  0  0  0
 17 18  1  0  0  0  0
 17 40  1  0  0  0  0
 18 19  2  0  0  0  0
 18 41  1  0  0  0  0
 19 20  1  0  0  0  0
 19 42  1  0  0  0  0
 20 21  2  0  0  0  0
 20 43  1  0  0  0  0
 22 23  1  0  0  0  0
 22 44  1  0  0  0  0
 22 45  1  0  0  0  0
 23 46  1  0  0  0  0
 23 47  1  0  0  0  0
M  CHG  1   6  -1
M  END
> <s_m_source_file>
AV-unprocessed.smi

> <i_m_source_file_index>
1120

> <i_lp_mmshare_version>
43012

> <i_f3d_flags>
0

> <s_epik_input>
W0NIM11bQ0BASF0xW0NIMl1bQ0gyXVtDQEhdKFtDSDJdW0NIMl0xKVtOSF1TKD1PKSg9TylbQ0gyXUMoPU8pW05IXVtDSDJdW0NIMl1jMltjSF1bY0hdW2NIXVtjSF1uMg==

> <s_epik_cmdline>
J2VwaWtfcHl0aG9uJywgJy1waCcsICc3LjAnLCAnLXRuJywgJzgnLCAnLW1hJywgJzIwMCcsICctbWV0YWxfYmluZGluZycsICctaW1hZScsICc8aW5maWxlLm1hZT4nLCAnLW9tYWUnLCAnPG91dGZpbGUubWFlPic=

> <r_epik_Ionization_Penalty>
5.68623

> <r_epik_Ionization_Penalty_Charging>
5.66033

> <r_epik_Ionization_Penalty_Neutral>
0.0259005

> <r_epik_State_Penalty>
5.67764

> <r_epik_Charging_Adjusted_Penalty>
11.338

> <i_epik_Tot_Q>
-1

> <i_epik_Tot_abs_Q>
1

> <r_epik_Metal_State_Penalty>
1.68319

> <b_epik_Metal_Only>
1

> <s_lp_Force_Field>
OPLS_2005

> <r_lp_Energy>
10.049

> <b_lp_Chiralities_Consistent>
1

> <s_lp_Variant>
AV-unprocessed.smi:1120-6

> <Gold.Version>
5.8.1

> <Gold.Id.Protein>
6NUR|6NUR_protein|mol2

> <Gold.PLP.Fitness>
50.9431

> <Gold.PLP.PLP>
-41.8286

> <Gold.PLP.part.hbond>
-2.0000

> <Gold.PLP.part.metal>
0.0000

> <Gold.PLP.part.buried>
-3.6638

> <Gold.PLP.part.nonpolar>
-36.6119

> <Gold.PLP.part.repulsive>
0.1541

> <Gold.PLP.ligand.clash>
0.0000

> <Gold.PLP.ligand.torsion>
1.6088

> <Gold.PLP.Chemscore.Hbond>
2.7680

> <Gold.PLP.Chemscore.CHOScore>
1.0000

> <Gold.PLP.Chemscore.Metal>
0.0000

> <Gold.Chemscore.Hbonds>
donor molecule, donor type, donor heavy atom, donor atom, acceptor molecule, acceptor atom, score
      P1  H  7997  8010       L1     9  0.75
      P1  H 10752 10763       L1     6  2.00
      L1  C    20    43       P1  8028  1.00

> <Gold.PLP.Chemscore.Internal.Correction>
1.0280

> <Gold.Rescore>
     Score         DG    S(hbond)    S(metal)    S(lipo)     H(rot)  DE(clash)    DE(int)     intcor
     19.85     -22.42       1.60        0.00     139.80       1.86       0.03       2.54       ----

> <Gold.Chemscore.Fitness>
19.8473

> <Gold.Chemscore.DG>
-22.4161

> <Gold.Chemscore.ZeroCoef>
-5.4800

> <Gold.Chemscore.Hbond>
1.5992

> <Gold.Chemscore.Metal>
0.0000

> <Gold.Chemscore.Lipo>
139.8022

> <Gold.Chemscore.Internal_Hbond>
0.0000

> <Gold.Chemscore.DEClash>
0.0252

> <Gold.Chemscore.DEInternal>
2.5435

> <Gold.Chemscore.Rot>
1.8602

> <Gold.Chemscore.Internal.Correction>
   9.000000E+99

> <Gold.Chemscore.Hbonds>
donor molecule, donor type, donor heavy atom, donor atom, acceptor molecule, acceptor atom, score
      P1  H  7997  8010       L1     9  0.73
      P1  H 10752 10763       L1     6  0.88

> <Gold.Chemscore.Hbond.Weighted>
-5.3414

> <Gold.Chemscore.Metal.Weighted>
-0.0000

> <Gold.Chemscore.Lipo.Weighted>
-16.3569

> <Gold.Chemscore.Internal_Hbond.Weighted>
0.0000

> <Gold.Chemscore.DEClash.Weighted>
0.0252

> <Gold.Chemscore.DEInternal.Weighted>
2.5435

> <Gold.Chemscore.Rot.Weighted>
4.7622

> <Gold.Chemscore.Internal.Correction.Weighted>
   9.000000E+99

> <Gold.Protein.RotatedTorsions>
[ 6907 6896 6895 6894 ] final  -55.51 input  -60.11 | X-H torsion
[ 7974 7965 7964 7962 ] final  -45.16 input  175.53 | X-H torsion
[ 8008 7997 7996 7995 ] final  -32.34 input   59.86 | X-H torsion
[ 10167 10162 10161 10158 ] final -149.29 input  -65.29 | X-H torsion
[ 10718 10713 10712 10709 ] final  -21.07 input   66.30 | X-H torsion
[ 10763 10752 10751 10750 ] final -177.64 input  -60.55 | X-H torsion
[ 11005 11000 10999 10996 ] final   87.17 input  -57.11 | X-H torsion

> <Gold.Protein.ActiveResidues>
 VAL166  LYS551  ARG553  GLY616  TRP617  ASP618  TYR619  PRO620  LYS621  CYS622 
 ASP623  PHE694  ASN695  SER759  ASP760  ASP761  ALA762  ILE779  LEU786  VAL792 
 PHE793  MET794  SER795  GLU796  ALA797  LYS798  CYS799  TRP800  GLU811  SER814 

> <Gold.Protein.RotatedAtoms>
  150.8245  134.7469  159.6800 H   0  0  0  0  0  0  0  0  0  0  0  0  # atno 6907 bound_to 6896
  152.4357  134.5687  159.9925 H   0  0  0  0  0  0  0  0  0  0  0  0  # atno 6908 bound_to 6896
  151.5863  133.3334  159.3054 H   0  0  0  0  0  0  0  0  0  0  0  0  # atno 6909 bound_to 6896
  145.9848  140.7245  142.9346 H   0  0  0  0  0  0  0  0  0  0  0  0  # atno 7974 bound_to 7965
  154.4183  140.1740  156.1712 H   0  0  0  0  0  0  0  0  0  0  0  0  # atno 8008 bound_to 7997
  155.9759  140.3381  155.6594 H   0  0  0  0  0  0  0  0  0  0  0  0  # atno 8009 bound_to 7997
  155.6564  140.0696  157.2560 H   0  0  0  0  0  0  0  0  0  0  0  0  # atno 8010 bound_to 7997
  139.7455  143.8597  152.2573 H   0  0  0  0  0  0  0  0  0  0  0  0  # atno 10167 bound_to 10162
  156.5232  130.4637  149.6586 H   0  0  0  0  0  0  0  0  0  0  0  0  # atno 10718 bound_to 10713
  154.5577  135.2817  155.0949 H   0  0  0  0  0  0  0  0  0  0  0  0  # atno 10763 bound_to 10752
  154.2370  135.6364  153.5198 H   0  0  0  0  0  0  0  0  0  0  0  0  # atno 10764 bound_to 10752
  153.0020  135.5551  154.6161 H   0  0  0  0  0  0  0  0  0  0  0  0  # atno 10765 bound_to 10752
  139.8926  134.8404  156.2823 H   0  0  0  0  0  0  0  0  0  0  0  0  # atno 11005 bound_to 11000
  144.6871  140.2969  143.7269 LP  0  0  0  0  0  0  0  0  0  0  0  0  # atno 17320 bound_to 7965
  145.7717  139.1859  143.2209 LP  0  0  0  0  0  0  0  0  0  0  0  0  # atno 17321 bound_to 7965
  139.8560  144.7141  150.9157 LP  0  0  0  0  0  0  0  0  0  0  0  0  # atno 17342 bound_to 10162
  140.7791  143.3858  151.1396 LP  0  0  0  0  0  0  0  0  0  0  0  0  # atno 17343 bound_to 10162
  156.3129  130.7239  151.2135 LP  0  0  0  0  0  0  0  0  0  0  0  0  # atno 17370 bound_to 10713
  157.7433  131.0476  150.4953 LP  0  0  0  0  0  0  0  0  0  0  0  0  # atno 17371 bound_to 10713
  141.0031  133.7140  156.0991 LP  0  0  0  0  0  0  0  0  0  0  0  0  # atno 17394 bound_to 11000
  140.7471  134.4086  157.5547 LP  0  0  0  0  0  0  0  0  0  0  0  0  # atno 17395 bound_to 11000

$$$$
