AV-unprocessed.smi:3124|AV-procd|sdf|11902|dock2
  -GOLD-   2272017283D 1   1.00000     0.00000
 Structure written by MMmdl.
 24 24  0  0  0  0  0  0  0  0  2 V2000
  145.8836  137.6749  152.1400 C   0  0  0  0  0  0  0  0  0  0  0  0
  145.5773  136.2622  151.7744 C   0  0  0  0  0  0  0  0  0  0  0  0
  144.3904  135.6200  151.5587 C   0  0  0  0  0  0  0  0  0  0  0  0
  144.7663  134.2815  151.2410 C   0  0  0  0  0  0  0  0  0  0  0  0
  143.8676  133.1214  150.9061 C   0  0  0  0  0  0  0  0  0  0  0  0
  144.0083  132.6567  149.4435 C   0  0  2  0  0  0  0  0  0  0  0  0
  145.4287  132.1609  149.1395 C   0  0  0  0  0  0  0  0  0  0  0  0
  143.6347  133.7327  148.5068 N   0  3  0  0  0  0  0  0  0  0  0  0
  146.0797  134.1077  151.2599 N   0  0  0  0  0  0  0  0  0  0  0  0
  146.5628  135.3209  151.5867 N   0  0  0  0  0  0  0  0  0  0  0  0
  147.5551  135.4915  151.6727 H   0  0  0  0  0  0  0  0  0  0  0  0
  144.9862  138.2924  152.0961 H   0  0  0  0  0  0  0  0  0  0  0  0
  146.6191  138.1023  151.4581 H   0  0  0  0  0  0  0  0  0  0  0  0
  146.2846  137.7347  153.1519 H   0  0  0  0  0  0  0  0  0  0  0  0
  143.3991  136.0447  151.6159 H   0  0  0  0  0  0  0  0  0  0  0  0
  142.8307  133.4009  151.0988 H   0  0  0  0  0  0  0  0  0  0  0  0
  144.0779  132.2878  151.5776 H   0  0  0  0  0  0  0  0  0  0  0  0
  143.3201  131.8280  149.2723 H   0  0  0  0  0  0  0  0  0  0  0  0
  145.7042  131.3338  149.7947 H   0  0  0  0  0  0  0  0  0  0  0  0
  146.1656  132.9529  149.2782 H   0  0  0  0  0  0  0  0  0  0  0  0
  145.5104  131.8048  148.1119 H   0  0  0  0  0  0  0  0  0  0  0  0
  143.3444  133.3306  147.6272 H   0  0  0  0  0  0  0  0  0  0  0  0
  144.4312  134.3355  148.3546 H   0  0  0  0  0  0  0  0  0  0  0  0
  142.8754  134.2719  148.8978 H   0  0  0  0  0  0  0  0  0  0  0  0
  1 12  1  0  0  0  0
  1 13  1  0  0  0  0
  1 14  1  0  0  0  0
  1  2  1  0  0  0  0
  2 10  1  0  0  0  0
  2  3  2  0  0  0  0
  3  4  1  0  0  0  0
  3 15  1  0  0  0  0
  4  5  1  0  0  0  0
  4  9  2  0  0  0  0
  5  6  1  0  0  0  0
  5 16  1  0  0  0  0
  5 17  1  0  0  0  0
  6  7  1  0  0  0  0
  6  8  1  0  0  0  0
  6 18  1  0  0  0  0
  7 19  1  0  0  0  0
  7 20  1  0  0  0  0
  7 21  1  0  0  0  0
  8 22  1  0  0  0  0
  8 23  1  0  0  0  0
  8 24  1  0  0  0  0
  9 10  1  0  0  0  0
 10 11  1  0  0  0  0
M  CHG  1   8   1
M  END
> <s_m_source_file>
AV-unprocessed.smi

> <i_m_source_file_index>
3124

> <i_lp_mmshare_version>
43012

> <i_f3d_flags>
0

> <s_epik_input>
W0NIM11jMVtjSF1jKFtuSF1uMSlbQ0gyXVtDQEhdKFtDSDNdKVtOSDJd

> <s_epik_cmdline>
J2VwaWtfcHl0aG9uJywgJy1waCcsICc3LjAnLCAnLXRuJywgJzgnLCAnLW1hJywgJzIwMCcsICctbWV0YWxfYmluZGluZycsICctaW1hZScsICc8aW5maWxlLm1hZT4nLCAnLW9tYWUnLCAnPG91dGZpbGUubWFlPic=

> <r_lp_tautomer_probability>
0.5

> <r_epik_Ionization_Penalty>
0.00151643

> <r_epik_Ionization_Penalty_Charging>
0.00146569

> <r_epik_Ionization_Penalty_Neutral>
5.07401e-05

> <r_epik_State_Penalty>
0.379573

> <r_epik_Charging_Adjusted_Penalty>
0.381038

> <i_epik_Tot_Q>
1

> <i_epik_Tot_abs_Q>
1

> <r_epik_Metal_State_Penalty>
0.378341

> <b_epik_Metal_Only>
0

> <s_lp_Force_Field>
OPLS_2005

> <r_lp_Energy>
2.04404

> <b_lp_Chiralities_Consistent>
1

> <s_lp_Variant>
AV-unprocessed.smi:3124-1

> <Gold.Version>
5.8.1

> <Gold.Id.Protein>
6NUR|6NUR_protein|mol2

> <Gold.PLP.Fitness>
35.3724

> <Gold.PLP.PLP>
-23.4772

> <Gold.PLP.part.hbond>
-3.0000

> <Gold.PLP.part.metal>
0.0000

> <Gold.PLP.part.buried>
-4.0025

> <Gold.PLP.part.nonpolar>
-17.2823

> <Gold.PLP.part.repulsive>
0.4163

> <Gold.PLP.ligand.clash>
0.0000

> <Gold.PLP.ligand.torsion>
0.0539

> <Gold.PLP.Chemscore.Hbond>
4.0000

> <Gold.PLP.Chemscore.CHOScore>
0.0000

> <Gold.PLP.Chemscore.Metal>
0.0000

> <Gold.Chemscore.Hbonds>
donor molecule, donor type, donor heavy atom, donor atom, acceptor molecule, acceptor atom, score
      L1  H     8    23       P1  7921  1.00
      L1  H     8    24       P1 10186  2.00
      L1  H    10    11       P1  7948  1.00

> <Gold.PLP.Chemscore.Internal.Correction>
0.0030

> <Gold.Rescore>
     Score         DG    S(hbond)    S(metal)    S(lipo)     H(rot)  DE(clash)    DE(int)     intcor
     17.56     -18.84       3.05        0.00      55.66       1.30       0.03       1.26       ----

> <Gold.Chemscore.Fitness>
17.5625

> <Gold.Chemscore.DG>
-18.8434

> <Gold.Chemscore.ZeroCoef>
-5.4800

> <Gold.Chemscore.Hbond>
3.0465

> <Gold.Chemscore.Metal>
0.0000

> <Gold.Chemscore.Lipo>
55.6638

> <Gold.Chemscore.Internal_Hbond>
0.0000

> <Gold.Chemscore.DEClash>
0.0255

> <Gold.Chemscore.DEInternal>
1.2554

> <Gold.Chemscore.Rot>
1.2987

> <Gold.Chemscore.Internal.Correction>
   9.000000E+99

> <Gold.Chemscore.Hbonds>
donor molecule, donor type, donor heavy atom, donor atom, acceptor molecule, acceptor atom, score
      L1  H     8    23       P1  7921  0.98
      L1  H     8    24       P1 10186  0.95
      L1  H    10    11       P1  7948  0.92

> <Gold.Chemscore.Hbond.Weighted>
-10.1753

> <Gold.Chemscore.Metal.Weighted>
-0.0000

> <Gold.Chemscore.Lipo.Weighted>
-6.5127

> <Gold.Chemscore.Internal_Hbond.Weighted>
0.0000

> <Gold.Chemscore.DEClash.Weighted>
0.0255

> <Gold.Chemscore.DEInternal.Weighted>
1.2554

> <Gold.Chemscore.Rot.Weighted>
3.3246

> <Gold.Chemscore.Internal.Correction.Weighted>
   9.000000E+99

> <Gold.Protein.RotatedTorsions>
[ 6907 6896 6895 6894 ] final  155.28 input  -60.11 | X-H torsion
[ 7974 7965 7964 7962 ] final  -24.10 input  175.53 | X-H torsion
[ 8008 7997 7996 7995 ] final  145.19 input   59.86 | X-H torsion
[ 10167 10162 10161 10158 ] final -108.06 input  -65.29 | X-H torsion
[ 10718 10713 10712 10709 ] final  -54.08 input   66.30 | X-H torsion
[ 10763 10752 10751 10750 ] final  -81.47 input  -60.55 | X-H torsion
[ 11005 11000 10999 10996 ] final  -15.40 input  -57.11 | X-H torsion

> <Gold.Protein.ActiveResidues>
 VAL166  LYS551  ARG553  GLY616  TRP617  ASP618  TYR619  PRO620  LYS621  CYS622 
 ASP623  PHE694  ASN695  SER759  ASP760  ASP761  ALA762  ILE779  LEU786  VAL792 
 PHE793  MET794  SER795  GLU796  ALA797  LYS798  CYS799  TRP800  GLU811  SER814 

> <Gold.Protein.RotatedAtoms>
  152.0464  133.4000  159.4358 H   0  0  0  0  0  0  0  0  0  0  0  0  # atno 6907 bound_to 6896
  150.6872  134.3357  159.4855 H   0  0  0  0  0  0  0  0  0  0  0  0  # atno 6908 bound_to 6896
  152.1162  134.9238  160.0615 H   0  0  0  0  0  0  0  0  0  0  0  0  # atno 6909 bound_to 6896
  146.1576  140.4706  142.8585 H   0  0  0  0  0  0  0  0  0  0  0  0  # atno 7974 bound_to 7965
  156.2889  140.2215  156.5175 H   0  0  0  0  0  0  0  0  0  0  0  0  # atno 8008 bound_to 7997
  154.7556  140.0477  157.0952 H   0  0  0  0  0  0  0  0  0  0  0  0  # atno 8009 bound_to 7997
  155.0055  140.3106  155.4853 H   0  0  0  0  0  0  0  0  0  0  0  0  # atno 8010 bound_to 7997
  140.1702  143.4049  152.1360 H   0  0  0  0  0  0  0  0  0  0  0  0  # atno 10167 bound_to 10162
  156.1481  130.4152  149.9990 H   0  0  0  0  0  0  0  0  0  0  0  0  # atno 10718 bound_to 10713
  154.5640  135.5625  153.7033 H   0  0  0  0  0  0  0  0  0  0  0  0  # atno 10763 bound_to 10752
  153.0027  135.6281  154.2206 H   0  0  0  0  0  0  0  0  0  0  0  0  # atno 10764 bound_to 10752
  154.2144  135.2872  155.2927 H   0  0  0  0  0  0  0  0  0  0  0  0  # atno 10765 bound_to 10752
  140.7962  133.8249  155.9426 H   0  0  0  0  0  0  0  0  0  0  0  0  # atno 11005 bound_to 11000
  144.7983  140.6165  143.6495 LP  0  0  0  0  0  0  0  0  0  0  0  0  # atno 17320 bound_to 7965
  145.4670  139.1507  143.3835 LP  0  0  0  0  0  0  0  0  0  0  0  0  # atno 17321 bound_to 7965
  139.5341  144.7191  151.4953 LP  0  0  0  0  0  0  0  0  0  0  0  0  # atno 17342 bound_to 10162
  140.6587  143.8545  150.6863 LP  0  0  0  0  0  0  0  0  0  0  0  0  # atno 17343 bound_to 10162
  156.7856  130.9237  151.3646 LP  0  0  0  0  0  0  0  0  0  0  0  0  # atno 17370 bound_to 10713
  157.6634  130.8986  149.9878 LP  0  0  0  0  0  0  0  0  0  0  0  0  # atno 17371 bound_to 10713
  140.9340  134.1986  157.4844 LP  0  0  0  0  0  0  0  0  0  0  0  0  # atno 17394 bound_to 11000
  139.8726  134.9844  156.5240 LP  0  0  0  0  0  0  0  0  0  0  0  0  # atno 17395 bound_to 11000

$$$$
