AV-unprocessed.smi:227|AV-procd|sdf|1734|dock7
  -GOLD-   2262020233D 1   1.00000     0.00000
 Structure written by MMmdl.
 54 58  0  0  0  0  0  0  0  0  1 V2000
  151.8426  135.3965  157.4358 O   0  0  0  0  0  0  0  0  0  0  0  0
  151.8183  136.6763  156.8379 C   0  0  0  0  0  0  0  0  0  0  0  0
  150.6425  136.8161  155.8366 C   0  0  1  0  0  0  0  0  0  0  0  0
  149.2756  136.5607  156.5388 C   0  0  0  0  0  0  0  0  0  0  0  0
  148.2433  136.0258  155.6621 N   0  0  0  0  0  0  0  0  0  0  0  0
  147.0058  136.5755  155.4195 C   0  0  0  0  0  0  0  0  0  0  0  0
  146.2550  135.9087  154.5876 N   0  0  0  0  0  0  0  0  0  0  0  0
  147.0214  134.8037  154.2347 C   0  0  0  0  0  0  0  0  0  0  0  0
  146.8278  133.6805  153.3750 C   0  0  0  0  0  0  0  0  0  0  0  0
  145.7099  133.4527  152.6298 N   0  0  0  0  0  0  0  0  0  0  0  0
  144.5857  134.3782  152.6439 C   0  0  1  0  0  0  0  0  0  0  0  0
  145.0907  135.5886  151.8343 C   0  0  0  0  0  0  0  0  0  0  0  0
  145.9799  134.8968  150.7896 C   0  0  0  0  0  0  0  0  0  0  0  0
  145.8035  133.4095  151.1756 C   0  0  2  0  0  0  0  0  0  0  0  0
  144.4015  132.8813  150.7958 C   0  0  2  0  0  0  0  0  0  0  0  0
  143.9584  133.0313  149.3279 C   0  0  0  0  0  0  0  0  0  0  0  0
  142.8474  132.2021  149.0619 O   0  0  0  0  0  0  0  0  0  0  0  0
  143.5251  133.6332  151.8127 C   0  0  0  0  0  0  0  0  0  0  0  0
  147.8303  132.7637  153.3199 N   0  0  0  0  0  0  0  0  0  0  0  0
  148.9492  132.9336  154.0277 C   0  0  0  0  0  0  0  0  0  0  0  0
  149.2708  133.9338  154.8475 N   0  0  0  0  0  0  0  0  0  0  0  0
  148.2696  134.8557  154.9218 C   0  0  0  0  0  0  0  0  0  0  0  0
  150.6835  138.1821  155.0808 C   0  0  2  0  0  0  0  0  0  0  0  0
  151.7962  138.2867  154.0411 C   0  0  0  0  0  0  0  0  0  0  0  0
  153.0095  138.7579  154.8433 C   0  0  0  0  0  0  0  0  0  0  0  0
  152.4893  139.3483  156.0286 O   0  0  0  0  0  0  0  0  0  0  0  0
  151.0729  139.3931  155.9412 C   0  0  0  0  0  0  0  0  0  0  0  0
  152.7395  135.1015  157.4775 H   0  0  0  0  0  0  0  0  0  0  0  0
  151.7698  137.4392  157.6144 H   0  0  0  0  0  0  0  0  0  0  0  0
  152.7814  136.7914  156.3461 H   0  0  0  0  0  0  0  0  0  0  0  0
  150.7667  136.0270  155.0938 H   0  0  0  0  0  0  0  0  0  0  0  0
  149.3883  135.8873  157.3866 H   0  0  0  0  0  0  0  0  0  0  0  0
  148.8953  137.4840  156.9762 H   0  0  0  0  0  0  0  0  0  0  0  0
  146.6775  137.4976  155.8770 H   0  0  0  0  0  0  0  0  0  0  0  0
  144.2026  134.6442  153.6270 H   0  0  0  0  0  0  0  0  0  0  0  0
  144.2797  136.1648  151.3879 H   0  0  0  0  0  0  0  0  0  0  0  0
  145.6807  136.2614  152.4579 H   0  0  0  0  0  0  0  0  0  0  0  0
  145.6996  135.1250  149.7628 H   0  0  0  0  0  0  0  0  0  0  0  0
  147.0181  135.2065  150.9158 H   0  0  0  0  0  0  0  0  0  0  0  0
  146.5982  132.7705  150.7892 H   0  0  0  0  0  0  0  0  0  0  0  0
  144.3693  131.8189  151.0456 H   0  0  0  0  0  0  0  0  0  0  0  0
  143.6690  134.0643  149.1336 H   0  0  0  0  0  0  0  0  0  0  0  0
  144.7625  132.8004  148.6302 H   0  0  0  0  0  0  0  0  0  0  0  0
  142.0625  132.7260  149.1112 H   0  0  0  0  0  0  0  0  0  0  0  0
  142.9666  132.9282  152.4300 H   0  0  0  0  0  0  0  0  0  0  0  0
  142.8089  134.3128  151.3494 H   0  0  0  0  0  0  0  0  0  0  0  0
  149.6931  132.1579  153.9212 H   0  0  0  0  0  0  0  0  0  0  0  0
  149.7113  138.3611  154.6200 H   0  0  0  0  0  0  0  0  0  0  0  0
  152.0007  137.3770  153.4808 H   0  0  0  0  0  0  0  0  0  0  0  0
  151.5296  139.0521  153.3106 H   0  0  0  0  0  0  0  0  0  0  0  0
  153.6472  137.9178  155.1201 H   0  0  0  0  0  0  0  0  0  0  0  0
  153.6126  139.4712  154.2810 H   0  0  0  0  0  0  0  0  0  0  0  0
  150.7941  140.3143  155.4265 H   0  0  0  0  0  0  0  0  0  0  0  0
  150.6123  139.4377  156.9250 H   0  0  0  0  0  0  0  0  0  0  0  0
  1  2  1  0  0  0  0
  1 28  1  0  0  0  0
  2  3  1  0  0  0  0
  2 29  1  0  0  0  0
  2 30  1  0  0  0  0
  3  4  1  0  0  0  0
  3 23  1  0  0  0  0
  3 31  1  0  0  0  0
  4  5  1  0  0  0  0
  4 32  1  0  0  0  0
  4 33  1  0  0  0  0
  5 22  1  0  0  0  0
  5  6  1  0  0  0  0
  6  7  2  0  0  0  0
  6 34  1  0  0  0  0
  7  8  1  0  0  0  0
  8 22  2  0  0  0  0
  8  9  1  0  0  0  0
  9 10  1  0  0  0  0
  9 19  2  0  0  0  0
 10 14  1  0  0  0  0
 10 11  1  0  0  0  0
 11 18  1  0  0  0  0
 11 12  1  0  0  0  0
 11 35  1  0  0  0  0
 12 13  1  0  0  0  0
 12 36  1  0  0  0  0
 12 37  1  0  0  0  0
 13 14  1  0  0  0  0
 13 38  1  0  0  0  0
 13 39  1  0  0  0  0
 14 15  1  0  0  0  0
 14 40  1  0  0  0  0
 15 16  1  0  0  0  0
 15 18  1  0  0  0  0
 15 41  1  0  0  0  0
 16 17  1  0  0  0  0
 16 42  1  0  0  0  0
 16 43  1  0  0  0  0
 17 44  1  0  0  0  0
 18 45  1  0  0  0  0
 18 46  1  0  0  0  0
 19 20  1  0  0  0  0
 20 21  2  0  0  0  0
 20 47  1  0  0  0  0
 21 22  1  0  0  0  0
 23 27  1  0  0  0  0
 23 24  1  0  0  0  0
 23 48  1  0  0  0  0
 24 25  1  0  0  0  0
 24 49  1  0  0  0  0
 24 50  1  0  0  0  0
 25 26  1  0  0  0  0
 25 51  1  0  0  0  0
 25 52  1  0  0  0  0
 26 27  1  0  0  0  0
 27 53  1  0  0  0  0
 27 54  1  0  0  0  0
M  END
> <s_m_source_file>
AV-unprocessed.smi

> <i_m_source_file_index>
227

> <i_lp_mmshare_version>
43012

> <i_f3d_flags>
0

> <s_epik_input>
W0NIMl0xT1tDSDJdW0NIMl1bQ0BIXTFbQ0BIXShbQ0gyXVtPSF0pW0NIMl1uKFtjSF1uMiljKGMyMyluW2NIXW5jM04oW0NASF00NSlbQ0BASF0oW0NIMl1bQ0gyXTQpW0NASF0oW0NIMl01KVtDSDJdW09IXQ==

> <s_epik_cmdline>
J2VwaWtfcHl0aG9uJywgJy1waCcsICc3LjAnLCAnLXRuJywgJzgnLCAnLW1hJywgJzIwMCcsICctbWV0YWxfYmluZGluZycsICctaW1hZScsICc8aW5maWxlLm1hZT4nLCAnLW9tYWUnLCAnPG91dGZpbGUubWFlPic=

> <r_lp_tautomer_probability>
1

> <r_epik_Ionization_Penalty>
0.0055791

> <r_epik_Ionization_Penalty_Charging>
0

> <r_epik_Ionization_Penalty_Neutral>
0.0055791

> <r_epik_State_Penalty>
0.00401299

> <r_epik_Charging_Adjusted_Penalty>
0.00401299

> <i_epik_Tot_Q>
0

> <i_epik_Tot_abs_Q>
0

> <r_epik_Metal_State_Penalty>
-0

> <b_epik_Metal_Only>
0

> <s_lp_Force_Field>
OPLS_2005

> <r_lp_Energy>
91.5897

> <b_lp_Chiralities_Consistent>
1

> <s_lp_Variant>
AV-unprocessed.smi:227-8

> <Gold.Version>
5.8.1

> <Gold.Id.Protein>
6NUR|6NUR_protein|mol2

> <Gold.PLP.Fitness>
46.6550

> <Gold.PLP.PLP>
-39.4972

> <Gold.PLP.part.hbond>
-5.0000

> <Gold.PLP.part.metal>
0.0000

> <Gold.PLP.part.buried>
-8.1866

> <Gold.PLP.part.nonpolar>
-26.8266

> <Gold.PLP.part.repulsive>
0.3729

> <Gold.PLP.ligand.clash>
0.0000

> <Gold.PLP.ligand.torsion>
0.7980

> <Gold.PLP.Chemscore.Hbond>
2.8688

> <Gold.PLP.Chemscore.CHOScore>
0.0000

> <Gold.PLP.Chemscore.Metal>
0.0000

> <Gold.Chemscore.Hbonds>
donor molecule, donor type, donor heavy atom, donor atom, acceptor molecule, acceptor atom, score
      L1  H    17    44       P1 10186  1.00
      P1  H  7997  8008       L1    26  0.50
      P1  H 10785 10796       L1    17  0.80

> <Gold.PLP.Chemscore.Internal.Correction>
0.1475

> <Gold.Rescore>
     Score         DG    S(hbond)    S(metal)    S(lipo)     H(rot)  DE(clash)    DE(int)     intcor
      9.68     -15.56       2.59        0.00      91.01       3.61       1.43       4.44       ----

> <Gold.Chemscore.Fitness>
9.6815

> <Gold.Chemscore.DG>
-15.5586

> <Gold.Chemscore.ZeroCoef>
-5.4800

> <Gold.Chemscore.Hbond>
2.5943

> <Gold.Chemscore.Metal>
0.0000

> <Gold.Chemscore.Lipo>
91.0072

> <Gold.Chemscore.Internal_Hbond>
0.0000

> <Gold.Chemscore.DEClash>
1.4327

> <Gold.Chemscore.DEInternal>
4.4444

> <Gold.Chemscore.Rot>
3.6071

> <Gold.Chemscore.Internal.Correction>
   9.000000E+99

> <Gold.Chemscore.Hbonds>
donor molecule, donor type, donor heavy atom, donor atom, acceptor molecule, acceptor atom, score
      L1  H    17    44       P1 10186  0.92
      P1  H  7997  8008       L1    26  0.03
      P1  H 10785 10796       L1    17  0.75

> <Gold.Chemscore.Hbond.Weighted>
-8.6649

> <Gold.Chemscore.Metal.Weighted>
-0.0000

> <Gold.Chemscore.Lipo.Weighted>
-10.6478

> <Gold.Chemscore.Internal_Hbond.Weighted>
0.0000

> <Gold.Chemscore.DEClash.Weighted>
1.4327

> <Gold.Chemscore.DEInternal.Weighted>
4.4444

> <Gold.Chemscore.Rot.Weighted>
9.2342

> <Gold.Chemscore.Internal.Correction.Weighted>
   9.000000E+99

> <Gold.Protein.RotatedTorsions>
[ 6907 6896 6895 6894 ] final   24.92 input  -60.11 | X-H torsion
[ 7974 7965 7964 7962 ] final -150.19 input  175.53 | X-H torsion
[ 8008 7997 7996 7995 ] final  -54.19 input   59.86 | X-H torsion
[ 10167 10162 10161 10158 ] final   62.25 input  -65.29 | X-H torsion
[ 10718 10713 10712 10709 ] final  132.62 input   66.30 | X-H torsion
[ 10763 10752 10751 10750 ] final   76.03 input  -60.55 | X-H torsion
[ 11005 11000 10999 10996 ] final -144.50 input  -57.11 | X-H torsion

> <Gold.Protein.ActiveResidues>
 VAL166  LYS551  ARG553  GLY616  TRP617  ASP618  TYR619  PRO620  LYS621  CYS622 
 ASP623  PHE694  ASN695  SER759  ASP760  ASP761  ALA762  ILE779  LEU786  VAL792 
 PHE793  MET794  SER795  GLU796  ALA797  LYS798  CYS799  TRP800  GLU811  SER814 

> <Gold.Protein.RotatedAtoms>
  151.9647  135.0106  160.0549 H   0  0  0  0  0  0  0  0  0  0  0  0  # atno 6907 bound_to 6896
  152.1837  133.4720  159.4980 H   0  0  0  0  0  0  0  0  0  0  0  0  # atno 6908 bound_to 6896
  150.6922  134.1718  159.4258 H   0  0  0  0  0  0  0  0  0  0  0  0  # atno 6909 bound_to 6896
  144.7922  140.4964  143.5765 H   0  0  0  0  0  0  0  0  0  0  0  0  # atno 7974 bound_to 7965
  154.4155  140.1182  156.5275 H   0  0  0  0  0  0  0  0  0  0  0  0  # atno 8008 bound_to 7997
  155.6639  140.3496  155.4774 H   0  0  0  0  0  0  0  0  0  0  0  0  # atno 8009 bound_to 7997
  155.9690  140.1137  157.0819 H   0  0  0  0  0  0  0  0  0  0  0  0  # atno 8010 bound_to 7997
  140.1459  144.4509  150.6785 H   0  0  0  0  0  0  0  0  0  0  0  0  # atno 10167 bound_to 10162
  157.4853  131.1088  150.9628 H   0  0  0  0  0  0  0  0  0  0  0  0  # atno 10718 bound_to 10713
  153.0696  135.4966  154.8276 H   0  0  0  0  0  0  0  0  0  0  0  0  # atno 10763 bound_to 10752
  154.7004  135.3000  154.9352 H   0  0  0  0  0  0  0  0  0  0  0  0  # atno 10764 bound_to 10752
  154.0078  135.6758  153.4816 H   0  0  0  0  0  0  0  0  0  0  0  0  # atno 10765 bound_to 10752
  140.8017  134.2848  157.4976 H   0  0  0  0  0  0  0  0  0  0  0  0  # atno 11005 bound_to 11000
  145.5765  139.1486  143.3259 LP  0  0  0  0  0  0  0  0  0  0  0  0  # atno 17320 bound_to 7965
  146.2178  140.5896  142.9031 LP  0  0  0  0  0  0  0  0  0  0  0  0  # atno 17321 bound_to 7965
  140.6732  143.2294  151.5573 LP  0  0  0  0  0  0  0  0  0  0  0  0  # atno 17342 bound_to 10162
  139.5449  144.2547  152.1423 LP  0  0  0  0  0  0  0  0  0  0  0  0  # atno 17343 bound_to 10162
  157.0348  130.5725  149.5348 LP  0  0  0  0  0  0  0  0  0  0  0  0  # atno 17370 bound_to 10713
  156.0143  130.5237  150.8087 LP  0  0  0  0  0  0  0  0  0  0  0  0  # atno 17371 bound_to 10713
  139.8721  134.9433  156.3850 LP  0  0  0  0  0  0  0  0  0  0  0  0  # atno 17394 bound_to 11000
  140.9287  133.7594  155.9998 LP  0  0  0  0  0  0  0  0  0  0  0  0  # atno 17395 bound_to 11000

$$$$
