AV-unprocessed.smi:907|AV-procd|sdf|4110|dock10
  -GOLD-   22720 2 03D 1   1.00000     0.00000
 Structure written by MMmdl.
 54 57  0  0  0  0  0  0  0  0  3 V2000
  149.1136  140.6071  156.0226 O   0  0  0  0  0  0  0  0  0  0  0  0
  150.0020  139.8445  155.6407 C   0  0  0  0  0  0  0  0  0  0  0  0
  151.2643  139.9352  156.0942 N   0  0  0  0  0  0  0  0  0  0  0  0
  151.7251  140.8959  157.0905 C   0  0  0  0  0  0  0  0  0  0  0  0
  151.1637  142.3030  156.8246 C   0  0  0  0  0  0  0  0  0  0  0  0
  151.3635  143.2318  158.0059 C   0  0  0  0  0  0  0  0  0  0  0  0
  152.2193  142.9009  159.0788 C   0  0  0  0  0  0  0  0  0  0  0  0
  152.3697  143.8102  160.1464 C   0  0  0  0  0  0  0  0  0  0  0  0
  151.6629  145.0304  160.1180 C   0  0  0  0  0  0  0  0  0  0  0  0
  150.8241  145.3114  159.0201 C   0  0  0  0  0  0  0  0  0  0  0  0
  150.7063  144.4144  158.0160 N   0  3  0  0  0  0  0  0  0  0  0  0
  149.8071  138.8993  154.6879 N   0  0  0  0  0  0  0  0  0  0  0  0
  150.8148  137.9549  154.1882 C   0  0  0  0  0  0  0  0  0  0  0  0
  150.5314  136.5619  154.7816 C   0  0  0  0  0  0  0  0  0  0  0  0
  149.1439  136.1031  154.4824 N   0  3  0  0  0  0  0  0  0  0  0  0
  148.8520  134.7551  155.0496 C   0  0  2  0  0  0  0  0  0  0  0  0
  149.6553  133.6006  154.4014 C   0  0  0  0  0  0  0  0  0  0  0  0
  148.5690  132.5578  154.0760 C   0  0  2  0  0  0  0  0  0  0  0  0
  147.7864  133.0298  152.8390 C   0  0  0  0  0  0  0  0  0  0  0  0
  146.9801  134.2195  153.3890 C   0  0  0  0  0  0  0  0  0  0  0  0
  147.3932  134.2620  154.8769 C   0  0  1  0  0  0  0  0  0  0  0  0
  147.5520  132.7780  155.1897 C   0  0  0  0  0  0  0  0  0  0  0  0
  148.1239  137.1277  154.8475 C   0  0  0  0  0  0  0  0  0  0  0  0
  148.4660  138.5049  154.2517 C   0  0  0  0  0  0  0  0  0  0  0  0
  151.9512  139.2960  155.7208 H   0  0  0  0  0  0  0  0  0  0  0  0
  151.4418  140.5555  158.0880 H   0  0  0  0  0  0  0  0  0  0  0  0
  152.8151  140.9170  157.0688 H   0  0  0  0  0  0  0  0  0  0  0  0
  151.6396  142.7370  155.9439 H   0  0  0  0  0  0  0  0  0  0  0  0
  150.0972  142.2504  156.6009 H   0  0  0  0  0  0  0  0  0  0  0  0
  152.7563  141.9633  159.0839 H   0  0  0  0  0  0  0  0  0  0  0  0
  153.0203  143.5747  160.9759 H   0  0  0  0  0  0  0  0  0  0  0  0
  151.7645  145.7405  160.9259 H   0  0  0  0  0  0  0  0  0  0  0  0
  150.2484  146.2194  158.9156 H   0  0  0  0  0  0  0  0  0  0  0  0
  150.7559  137.9143  153.0994 H   0  0  0  0  0  0  0  0  0  0  0  0
  151.8410  138.2446  154.4135 H   0  0  0  0  0  0  0  0  0  0  0  0
  151.2621  135.8570  154.3869 H   0  0  0  0  0  0  0  0  0  0  0  0
  150.6754  136.5891  155.8631 H   0  0  0  0  0  0  0  0  0  0  0  0
  149.0774  134.7863  156.1175 H   0  0  0  0  0  0  0  0  0  0  0  0
  150.1933  133.8942  153.4994 H   0  0  0  0  0  0  0  0  0  0  0  0
  150.3849  133.2010  155.1070 H   0  0  0  0  0  0  0  0  0  0  0  0
  148.9484  131.5391  153.9900 H   0  0  0  0  0  0  0  0  0  0  0  0
  148.4406  133.3138  152.0137 H   0  0  0  0  0  0  0  0  0  0  0  0
  147.1179  132.2463  152.4797 H   0  0  0  0  0  0  0  0  0  0  0  0
  147.1959  135.1474  152.8592 H   0  0  0  0  0  0  0  0  0  0  0  0
  145.9105  134.0280  153.2933 H   0  0  0  0  0  0  0  0  0  0  0  0
  146.6745  134.7732  155.5181 H   0  0  0  0  0  0  0  0  0  0  0  0
  146.6322  132.2057  155.0553 H   0  0  0  0  0  0  0  0  0  0  0  0
  147.9518  132.5821  156.1864 H   0  0  0  0  0  0  0  0  0  0  0  0
  147.1392  136.8321  154.4872 H   0  0  0  0  0  0  0  0  0  0  0  0
  148.0563  137.2002  155.9344 H   0  0  0  0  0  0  0  0  0  0  0  0
  147.7023  139.2328  154.5296 H   0  0  0  0  0  0  0  0  0  0  0  0
  148.4422  138.4579  153.1618 H   0  0  0  0  0  0  0  0  0  0  0  0
  149.0891  136.0056  153.4787 H   0  0  0  0  0  0  0  0  0  0  0  0
  150.0939  144.6392  157.2318 H   0  0  0  0  0  0  0  0  0  0  0  0
  1  2  2  0  0  0  0
  2  3  1  0  0  0  0
  2 12  1  0  0  0  0
  3  4  1  0  0  0  0
  3 25  1  0  0  0  0
  4  5  1  0  0  0  0
  4 26  1  0  0  0  0
  4 27  1  0  0  0  0
  5  6  1  0  0  0  0
  5 28  1  0  0  0  0
  5 29  1  0  0  0  0
  6 11  1  0  0  0  0
  6  7  2  0  0  0  0
  7  8  1  0  0  0  0
  7 30  1  0  0  0  0
  8  9  2  0  0  0  0
  8 31  1  0  0  0  0
  9 10  1  0  0  0  0
  9 32  1  0  0  0  0
 10 11  2  0  0  0  0
 10 33  1  0  0  0  0
 11 54  1  0  0  0  0
 12 24  1  0  0  0  0
 12 13  1  0  0  0  0
 13 14  1  0  0  0  0
 13 34  1  0  0  0  0
 13 35  1  0  0  0  0
 14 15  1  0  0  0  0
 14 36  1  0  0  0  0
 14 37  1  0  0  0  0
 15 16  1  0  0  0  0
 15 23  1  0  0  0  0
 15 53  1  0  0  0  0
 16 21  1  0  0  0  0
 16 17  1  0  0  0  0
 16 38  1  0  0  0  0
 17 18  1  0  0  0  0
 17 39  1  0  0  0  0
 17 40  1  0  0  0  0
 18 22  1  0  0  0  0
 18 19  1  0  0  0  0
 18 41  1  0  0  0  0
 19 20  1  0  0  0  0
 19 42  1  0  0  0  0
 19 43  1  0  0  0  0
 20 21  1  0  0  0  0
 20 44  1  0  0  0  0
 20 45  1  0  0  0  0
 21 22  1  0  0  0  0
 21 46  1  0  0  0  0
 22 47  1  0  0  0  0
 22 48  1  0  0  0  0
 23 24  1  0  0  0  0
 23 49  1  0  0  0  0
 23 50  1  0  0  0  0
 24 51  1  0  0  0  0
 24 52  1  0  0  0  0
M  CHG  1  11   1
M  CHG  1  15   1
M  END
> <s_m_source_file>
AV-unprocessed.smi

> <i_m_source_file_index>
907

> <i_lp_mmshare_version>
43012

> <i_f3d_flags>
0

> <s_epik_input>
W0NIMl0xW0NIMl1bQ0BASF0oW0NIMl0yKVtDQEBIXShbQ0gyXVtDQEhdMTIpTihbQ0gyXVtDSDJdMylbQ0gyXVtDSDJdTjNDKD1PKVtOSF1bQ0gyXVtDSDJdYzRbY0hdW2NIXVtjSF1bY0hdbjQ=

> <s_epik_cmdline>
J2VwaWtfcHl0aG9uJywgJy1waCcsICc3LjAnLCAnLXRuJywgJzgnLCAnLW1hJywgJzIwMCcsICctbWV0YWxfYmluZGluZycsICctaW1hZScsICc8aW5maWxlLm1hZT4nLCAnLW9tYWUnLCAnPG91dGZpbGUubWFlPic=

> <r_epik_Ionization_Penalty>
1.63018

> <r_epik_Ionization_Penalty_Charging>
1.63015

> <r_epik_Ionization_Penalty_Neutral>
2.64641e-05

> <r_epik_State_Penalty>
1.72761

> <r_epik_Charging_Adjusted_Penalty>
3.35777

> <i_epik_Tot_Q>
2

> <i_epik_Tot_abs_Q>
2

> <r_epik_Metal_State_Penalty>
1.76501

> <b_epik_Metal_Only>
0

> <s_lp_Force_Field>
OPLS_2005

> <r_lp_Energy>
102.759

> <b_lp_Chiralities_Consistent>
1

> <s_lp_Variant>
AV-unprocessed.smi:907-5

> <Gold.Version>
5.8.1

> <Gold.Id.Protein>
6NUR|6NUR_protein|mol2

> <Gold.PLP.Fitness>
55.3940

> <Gold.PLP.PLP>
-44.1823

> <Gold.PLP.part.hbond>
-2.0000

> <Gold.PLP.part.metal>
0.0000

> <Gold.PLP.part.buried>
-5.5181

> <Gold.PLP.part.nonpolar>
-36.5303

> <Gold.PLP.part.repulsive>
0.2622

> <Gold.PLP.ligand.clash>
0.0000

> <Gold.PLP.ligand.torsion>
0.4416

> <Gold.PLP.Chemscore.Hbond>
4.0000

> <Gold.PLP.Chemscore.CHOScore>
0.0000

> <Gold.PLP.Chemscore.Metal>
0.0000

> <Gold.Chemscore.Hbonds>
donor molecule, donor type, donor heavy atom, donor atom, acceptor molecule, acceptor atom, score
      L1  H    11    54       P1  8028  2.00
      L1  H    15    53       P1  7948  2.00

> <Gold.PLP.Chemscore.Internal.Correction>
0.0948

> <Gold.Rescore>
     Score         DG    S(hbond)    S(metal)    S(lipo)     H(rot)  DE(clash)    DE(int)     intcor
     19.53     -21.82       1.72        0.00     122.54       1.46       0.49       1.80       ----

> <Gold.Chemscore.Fitness>
19.5307

> <Gold.Chemscore.DG>
-21.8226

> <Gold.Chemscore.ZeroCoef>
-5.4800

> <Gold.Chemscore.Hbond>
1.7173

> <Gold.Chemscore.Metal>
0.0000

> <Gold.Chemscore.Lipo>
122.5428

> <Gold.Chemscore.Internal_Hbond>
0.0000

> <Gold.Chemscore.DEClash>
0.4918

> <Gold.Chemscore.DEInternal>
1.8001

> <Gold.Chemscore.Rot>
1.4572

> <Gold.Chemscore.Internal.Correction>
   9.000000E+99

> <Gold.Chemscore.Hbonds>
donor molecule, donor type, donor heavy atom, donor atom, acceptor molecule, acceptor atom, score
      L1  H    11    54       P1  8028  0.30
      L1  H    15    53       P1  7948  0.90

> <Gold.Chemscore.Hbond.Weighted>
-5.7356

> <Gold.Chemscore.Metal.Weighted>
-0.0000

> <Gold.Chemscore.Lipo.Weighted>
-14.3375

> <Gold.Chemscore.Internal_Hbond.Weighted>
0.0000

> <Gold.Chemscore.DEClash.Weighted>
0.4918

> <Gold.Chemscore.DEInternal.Weighted>
1.8001

> <Gold.Chemscore.Rot.Weighted>
3.7305

> <Gold.Chemscore.Internal.Correction.Weighted>
   9.000000E+99

> <Gold.Protein.RotatedTorsions>
[ 6907 6896 6895 6894 ] final  -83.96 input  -60.11 | X-H torsion
[ 7974 7965 7964 7962 ] final  -26.51 input  175.53 | X-H torsion
[ 8008 7997 7996 7995 ] final  127.72 input   59.86 | X-H torsion
[ 10167 10162 10161 10158 ] final  145.71 input  -65.29 | X-H torsion
[ 10718 10713 10712 10709 ] final  167.18 input   66.30 | X-H torsion
[ 10763 10752 10751 10750 ] final    2.20 input  -60.55 | X-H torsion
[ 11005 11000 10999 10996 ] final  108.52 input  -57.11 | X-H torsion

> <Gold.Protein.ActiveResidues>
 VAL166  LYS551  ARG553  GLY616  TRP617  ASP618  TYR619  PRO620  LYS621  CYS622 
 ASP623  PHE694  ASN695  SER759  ASP760  ASP761  ALA762  ILE779  LEU786  VAL792 
 PHE793  MET794  SER795  GLU796  ALA797  LYS798  CYS799  TRP800  GLU811  SER814 

> <Gold.Protein.RotatedAtoms>
  150.6880  134.3431  159.4876 H   0  0  0  0  0  0  0  0  0  0  0  0  # atno 6907 bound_to 6896
  152.1282  134.9152  160.0569 H   0  0  0  0  0  0  0  0  0  0  0  0  # atno 6908 bound_to 6896
  152.0332  133.3911  159.4343 H   0  0  0  0  0  0  0  0  0  0  0  0  # atno 6909 bound_to 6896
  146.1420  140.5030  142.8648 H   0  0  0  0  0  0  0  0  0  0  0  0  # atno 7974 bound_to 7965
  156.2898  140.2662  156.2319 H   0  0  0  0  0  0  0  0  0  0  0  0  # atno 8008 bound_to 7997
  155.0064  140.0387  157.2399 H   0  0  0  0  0  0  0  0  0  0  0  0  # atno 8009 bound_to 7997
  154.7556  140.2751  155.6261 H   0  0  0  0  0  0  0  0  0  0  0  0  # atno 8010 bound_to 7997
  139.4921  144.5882  151.6735 H   0  0  0  0  0  0  0  0  0  0  0  0  # atno 10167 bound_to 10162
  157.0552  131.0325  151.2666 H   0  0  0  0  0  0  0  0  0  0  0  0  # atno 10718 bound_to 10713
  153.2985  135.6954  153.7225 H   0  0  0  0  0  0  0  0  0  0  0  0  # atno 10763 bound_to 10752
  153.6148  135.3438  155.2992 H   0  0  0  0  0  0  0  0  0  0  0  0  # atno 10764 bound_to 10752
  154.8544  135.4372  154.2089 H   0  0  0  0  0  0  0  0  0  0  0  0  # atno 10765 bound_to 10752
  139.8845  134.9432  156.5984 H   0  0  0  0  0  0  0  0  0  0  0  0  # atno 11005 bound_to 11000
  144.7803  140.5827  143.6610 LP  0  0  0  0  0  0  0  0  0  0  0  0  # atno 17320 bound_to 7965
  145.5025  139.1482  143.3649 LP  0  0  0  0  0  0  0  0  0  0  0  0  # atno 17321 bound_to 7965
  140.5503  144.0436  150.6124 LP  0  0  0  0  0  0  0  0  0  0  0  0  # atno 17342 bound_to 10162
  140.3488  143.2975  152.0509 LP  0  0  0  0  0  0  0  0  0  0  0  0  # atno 17343 bound_to 10162
  157.4998  130.7873  149.7593 LP  0  0  0  0  0  0  0  0  0  0  0  0  # atno 17370 bound_to 10713
  155.9995  130.3888  150.2661 LP  0  0  0  0  0  0  0  0  0  0  0  0  # atno 17371 bound_to 10713
  140.7902  133.8588  155.8640 LP  0  0  0  0  0  0  0  0  0  0  0  0  # atno 17394 bound_to 11000
  140.9684  134.1564  157.4597 LP  0  0  0  0  0  0  0  0  0  0  0  0  # atno 17395 bound_to 11000

$$$$
