AV-unprocessed.smi:2858|AV-procd|sdf|11000|dock5
  -GOLD-   2272015453D 1   1.00000     0.00000
 Structure written by MMmdl.
 40 41  0  0  0  0  0  0  0  0  2 V2000
  149.2460  135.1266  156.5162 O   0  0  0  0  0  0  0  0  0  0  0  0
  149.5084  136.1075  155.8252 C   0  0  0  0  0  0  0  0  0  0  0  0
  148.3763  137.0434  155.3748 C   0  0  0  0  0  0  0  0  0  0  0  0
  148.7520  137.9518  154.2605 N   0  3  1  0  0  0  0  0  0  0  0  0
  147.6684  138.9108  153.9302 C   0  0  0  0  0  0  0  0  0  0  0  0
  147.7176  140.1753  154.8040 C   0  0  0  0  0  0  0  0  0  0  0  0
  148.5569  141.2940  154.1642 C   0  0  0  0  0  0  0  0  0  0  0  0
  149.0572  142.2320  155.1631 N   0  0  0  0  0  0  0  0  0  0  0  0
  149.9325  141.9239  156.1316 C   0  0  0  0  0  0  0  0  0  0  0  0
  150.4174  140.8004  156.2706 O   0  0  0  0  0  0  0  0  0  0  0  0
  150.2020  142.9902  156.9055 N   0  0  0  0  0  0  0  0  0  0  0  0
  151.0802  143.0657  158.0196 C   0  0  0  0  0  0  0  0  0  0  0  0
  151.3072  144.3693  158.5164 C   0  0  0  0  0  0  0  0  0  0  0  0
  152.1645  144.5508  159.6192 C   0  0  0  0  0  0  0  0  0  0  0  0
  152.7717  143.4226  160.1986 C   0  0  0  0  0  0  0  0  0  0  0  0
  152.4921  142.1605  159.6432 C   0  0  0  0  0  0  0  0  0  0  0  0
  151.6723  141.9842  158.5854 N   0  0  0  0  0  0  0  0  0  0  0  0
  150.0662  138.5973  154.4966 C   0  0  0  0  0  0  0  0  0  0  0  0
  151.1667  137.5295  154.6254 C   0  0  0  0  0  0  0  0  0  0  0  0
  150.7663  136.3930  155.4513 N   0  0  0  0  0  0  0  0  0  0  0  0
  147.5185  136.4394  155.0759 H   0  0  0  0  0  0  0  0  0  0  0  0
  148.0664  137.6358  156.2371 H   0  0  0  0  0  0  0  0  0  0  0  0
  147.7707  139.2172  152.8881 H   0  0  0  0  0  0  0  0  0  0  0  0
  146.6987  138.4174  154.0132 H   0  0  0  0  0  0  0  0  0  0  0  0
  146.7084  140.5451  154.9821 H   0  0  0  0  0  0  0  0  0  0  0  0
  148.1315  139.9266  155.7822 H   0  0  0  0  0  0  0  0  0  0  0  0
  149.4130  140.8661  153.6420 H   0  0  0  0  0  0  0  0  0  0  0  0
  147.9720  141.8301  153.4147 H   0  0  0  0  0  0  0  0  0  0  0  0
  148.7063  143.1777  155.1191 H   0  0  0  0  0  0  0  0  0  0  0  0
  149.7260  143.8485  156.6703 H   0  0  0  0  0  0  0  0  0  0  0  0
  150.8319  145.2254  158.0600 H   0  0  0  0  0  0  0  0  0  0  0  0
  152.3515  145.5387  160.0135 H   0  0  0  0  0  0  0  0  0  0  0  0
  153.4339  143.5213  161.0460 H   0  0  0  0  0  0  0  0  0  0  0  0
  152.9376  141.2687  160.0585 H   0  0  0  0  0  0  0  0  0  0  0  0
  150.3253  139.2810  153.6891 H   0  0  0  0  0  0  0  0  0  0  0  0
  150.0126  139.1936  155.4090 H   0  0  0  0  0  0  0  0  0  0  0  0
  151.4198  137.1443  153.6369 H   0  0  0  0  0  0  0  0  0  0  0  0
  152.0772  137.9699  155.0323 H   0  0  0  0  0  0  0  0  0  0  0  0
  151.5009  135.7710  155.7583 H   0  0  0  0  0  0  0  0  0  0  0  0
  148.8664  137.3598  153.4502 H   0  0  0  0  0  0  0  0  0  0  0  0
  1  2  2  0  0  0  0
  2 20  1  0  0  0  0
  2  3  1  0  0  0  0
  3  4  1  0  0  0  0
  3 21  1  0  0  0  0
  3 22  1  0  0  0  0
  4  5  1  0  0  0  0
  4 18  1  0  0  0  0
  4 40  1  0  0  0  0
  5  6  1  0  0  0  0
  5 23  1  0  0  0  0
  5 24  1  0  0  0  0
  6  7  1  0  0  0  0
  6 25  1  0  0  0  0
  6 26  1  0  0  0  0
  7  8  1  0  0  0  0
  7 27  1  0  0  0  0
  7 28  1  0  0  0  0
  8  9  1  0  0  0  0
  8 29  1  0  0  0  0
  9 10  2  0  0  0  0
  9 11  1  0  0  0  0
 11 12  1  0  0  0  0
 11 30  1  0  0  0  0
 12 17  1  0  0  0  0
 12 13  2  0  0  0  0
 13 14  1  0  0  0  0
 13 31  1  0  0  0  0
 14 15  2  0  0  0  0
 14 32  1  0  0  0  0
 15 16  1  0  0  0  0
 15 33  1  0  0  0  0
 16 17  2  0  0  0  0
 16 34  1  0  0  0  0
 18 19  1  0  0  0  0
 18 35  1  0  0  0  0
 18 36  1  0  0  0  0
 19 20  1  0  0  0  0
 19 37  1  0  0  0  0
 19 38  1  0  0  0  0
 20 39  1  0  0  0  0
M  CHG  1   4   1
M  END
> <s_m_source_file>
AV-unprocessed.smi

> <i_m_source_file_index>
2858

> <i_lp_mmshare_version>
43012

> <i_f3d_flags>
0

> <s_epik_input>
Tz1DMVtDSDJdTihbQ0gyXVtDSDJdW05IXTEpW0NIMl1bQ0gyXVtDSDJdW05IXUMoPU8pW05IXWMyW2NIXVtjSF1bY0hdW2NIXW4y

> <s_epik_cmdline>
J2VwaWtfcHl0aG9uJywgJy1waCcsICc3LjAnLCAnLXRuJywgJzgnLCAnLW1hJywgJzIwMCcsICctbWV0YWxfYmluZGluZycsICctaW1hZScsICc8aW5maWxlLm1hZT4nLCAnLW9tYWUnLCAnPG91dGZpbGUubWFlPic=

> <r_epik_Ionization_Penalty>
0.11034

> <r_epik_Ionization_Penalty_Charging>
0.110189

> <r_epik_Ionization_Penalty_Neutral>
0.000150894

> <r_epik_State_Penalty>
0.0999426

> <r_epik_Charging_Adjusted_Penalty>
0.210132

> <i_epik_Tot_Q>
1

> <i_epik_Tot_abs_Q>
1

> <r_epik_Metal_State_Penalty>
0.172915

> <b_epik_Metal_Only>
0

> <s_lp_Force_Field>
OPLS_2005

> <r_lp_Energy>
20.0709

> <b_lp_Chiralities_Consistent>
1

> <s_lp_Variant>
AV-unprocessed.smi:2858-2

> <Gold.Version>
5.8.1

> <Gold.Id.Protein>
6NUR|6NUR_protein|mol2

> <Gold.PLP.Fitness>
48.7624

> <Gold.PLP.PLP>
-37.8908

> <Gold.PLP.part.hbond>
-3.0000

> <Gold.PLP.part.metal>
0.0000

> <Gold.PLP.part.buried>
-5.2951

> <Gold.PLP.part.nonpolar>
-30.9191

> <Gold.PLP.part.repulsive>
0.3953

> <Gold.PLP.ligand.clash>
0.0000

> <Gold.PLP.ligand.torsion>
0.5824

> <Gold.PLP.Chemscore.Hbond>
4.0000

> <Gold.PLP.Chemscore.CHOScore>
0.0000

> <Gold.PLP.Chemscore.Metal>
0.0000

> <Gold.Chemscore.Hbonds>
donor molecule, donor type, donor heavy atom, donor atom, acceptor molecule, acceptor atom, score
      L1  H     4    40       P1  7948  2.00
      L1  H     8    29       P1  8028  0.94
      L1  H    11    30       P1  8028  1.00

> <Gold.PLP.Chemscore.Internal.Correction>
0.0363

> <Gold.Rescore>
     Score         DG    S(hbond)    S(metal)    S(lipo)     H(rot)  DE(clash)    DE(int)     intcor
     18.21     -20.02       2.93        0.00      86.06       2.08       0.12       1.68       ----

> <Gold.Chemscore.Fitness>
18.2117

> <Gold.Chemscore.DG>
-20.0160

> <Gold.Chemscore.ZeroCoef>
-5.4800

> <Gold.Chemscore.Hbond>
2.9299

> <Gold.Chemscore.Metal>
0.0000

> <Gold.Chemscore.Lipo>
86.0599

> <Gold.Chemscore.Internal_Hbond>
0.0000

> <Gold.Chemscore.DEClash>
0.1230

> <Gold.Chemscore.DEInternal>
1.6812

> <Gold.Chemscore.Rot>
2.0777

> <Gold.Chemscore.Internal.Correction>
   9.000000E+99

> <Gold.Chemscore.Hbonds>
donor molecule, donor type, donor heavy atom, donor atom, acceptor molecule, acceptor atom, score
      L1  H     4    40       P1  7948  0.99
      L1  H     8    29       P1  8028  0.90
      L1  H    11    30       P1  8028  0.92

> <Gold.Chemscore.Hbond.Weighted>
-9.7858

> <Gold.Chemscore.Metal.Weighted>
-0.0000

> <Gold.Chemscore.Lipo.Weighted>
-10.0690

> <Gold.Chemscore.Internal_Hbond.Weighted>
0.0000

> <Gold.Chemscore.DEClash.Weighted>
0.1230

> <Gold.Chemscore.DEInternal.Weighted>
1.6812

> <Gold.Chemscore.Rot.Weighted>
5.3188

> <Gold.Chemscore.Internal.Correction.Weighted>
   9.000000E+99

> <Gold.Protein.RotatedTorsions>
[ 6907 6896 6895 6894 ] final   18.19 input  -60.11 | X-H torsion
[ 7974 7965 7964 7962 ] final  156.95 input  175.53 | X-H torsion
[ 8008 7997 7996 7995 ] final  -97.40 input   59.86 | X-H torsion
[ 10167 10162 10161 10158 ] final  -93.95 input  -65.29 | X-H torsion
[ 10718 10713 10712 10709 ] final -151.37 input   66.30 | X-H torsion
[ 10763 10752 10751 10750 ] final   86.82 input  -60.55 | X-H torsion
[ 11005 11000 10999 10996 ] final  -45.47 input  -57.11 | X-H torsion

> <Gold.Protein.ActiveResidues>
 VAL166  LYS551  ARG553  GLY616  TRP617  ASP618  TYR619  PRO620  LYS621  CYS622 
 ASP623  PHE694  ASN695  SER759  ASP760  ASP761  ALA762  ILE779  LEU786  VAL792 
 PHE793  MET794  SER795  GLU796  ALA797  LYS798  CYS799  TRP800  GLU811  SER814 

> <Gold.Protein.RotatedAtoms>
  151.8613  135.0523  160.0469 H   0  0  0  0  0  0  0  0  0  0  0  0  # atno 6907 bound_to 6896
  152.2660  133.5335  159.5419 H   0  0  0  0  0  0  0  0  0  0  0  0  # atno 6908 bound_to 6896
  150.7134  134.0680  159.3896 H   0  0  0  0  0  0  0  0  0  0  0  0  # atno 6909 bound_to 6896
  144.7932  139.7273  143.6212 H   0  0  0  0  0  0  0  0  0  0  0  0  # atno 7974 bound_to 7965
  154.7872  140.0463  157.1173 H   0  0  0  0  0  0  0  0  0  0  0  0  # atno 8008 bound_to 7997
  154.9634  140.3080  155.5001 H   0  0  0  0  0  0  0  0  0  0  0  0  # atno 8009 bound_to 7997
  156.2945  140.2266  156.4721 H   0  0  0  0  0  0  0  0  0  0  0  0  # atno 8010 bound_to 7997
  140.3194  143.3058  152.0063 H   0  0  0  0  0  0  0  0  0  0  0  0  # atno 10167 bound_to 10162
  156.4584  130.8201  151.2432 H   0  0  0  0  0  0  0  0  0  0  0  0  # atno 10718 bound_to 10713
  153.1608  135.4566  154.9768 H   0  0  0  0  0  0  0  0  0  0  0  0  # atno 10763 bound_to 10752
  154.7896  135.3216  154.7811 H   0  0  0  0  0  0  0  0  0  0  0  0  # atno 10764 bound_to 10752
  153.8301  135.6939  153.4870 H   0  0  0  0  0  0  0  0  0  0  0  0  # atno 10765 bound_to 10752
  141.0517  133.6740  156.3018 H   0  0  0  0  0  0  0  0  0  0  0  0  # atno 11005 bound_to 11000
  146.2192  139.5604  142.9630 LP  0  0  0  0  0  0  0  0  0  0  0  0  # atno 17320 bound_to 7965
  145.5740  141.0391  143.2159 LP  0  0  0  0  0  0  0  0  0  0  0  0  # atno 17321 bound_to 7965
  139.4877  144.6323  151.7046 LP  0  0  0  0  0  0  0  0  0  0  0  0  # atno 17342 bound_to 10162
  140.5497  144.0445  150.6122 LP  0  0  0  0  0  0  0  0  0  0  0  0  # atno 17343 bound_to 10162
  157.7499  131.0115  150.3348 LP  0  0  0  0  0  0  0  0  0  0  0  0  # atno 17370 bound_to 10713
  156.3743  130.3869  149.7151 LP  0  0  0  0  0  0  0  0  0  0  0  0  # atno 17371 bound_to 10713
  140.6042  134.5524  157.5522 LP  0  0  0  0  0  0  0  0  0  0  0  0  # atno 17394 bound_to 11000
  139.9356  134.7881  156.0811 LP  0  0  0  0  0  0  0  0  0  0  0  0  # atno 17395 bound_to 11000

$$$$
