AV-unprocessed.smi:3268|AV-procd|sdf|12508|dock7
  -GOLD-   2272018413D 1   1.00000     0.00000
 Structure written by MMmdl.
 40 41  0  0  0  0  0  0  0  0  2 V2000
  146.5943  141.8112  156.1603 C   0  0  0  0  0  0  0  0  0  0  0  0
  147.2751  141.2204  154.9093 C   0  0  2  0  0  0  0  0  0  0  0  0
  146.5716  139.9432  154.4271 C   0  0  0  0  0  0  0  0  0  0  0  0
  145.7652  139.3623  155.1544 O   0  0  0  0  0  0  0  0  0  0  0  0
  146.8847  139.5131  153.1942 N   0  0  0  0  0  0  0  0  0  0  0  0
  146.3272  138.3257  152.5562 C   0  0  0  0  0  0  0  0  0  0  0  0
  146.4198  137.0907  153.4744 C   0  0  0  0  0  0  0  0  0  0  0  0
  146.5869  135.8288  152.7104 N   0  3  0  0  0  0  0  0  0  0  0  0
  146.8373  134.6634  153.5992 C   0  0  0  0  0  0  0  0  0  0  0  0
  147.1360  133.3928  152.7856 C   0  0  0  0  0  0  0  0  0  0  0  0
  145.9999  133.0909  151.8005 C   0  0  0  0  0  0  0  0  0  0  0  0
  145.7398  134.3146  150.9131 C   0  0  0  0  0  0  0  0  0  0  0  0
  145.4681  135.5659  151.7652 C   0  0  0  0  0  0  0  0  0  0  0  0
  148.6957  140.9652  155.1175 N   0  0  0  0  0  0  0  0  0  0  0  0
  149.5360  140.1888  154.4297 C   0  0  0  0  0  0  0  0  0  0  0  0
  150.7644  140.1504  154.9266 N   0  0  0  0  0  0  0  0  0  0  0  0
  150.6001  140.9730  156.0046 C   0  0  0  0  0  0  0  0  0  0  0  0
  149.3782  141.4781  156.1722 N   0  0  0  0  0  0  0  0  0  0  0  0
  145.5475  142.0451  155.9628 H   0  0  0  0  0  0  0  0  0  0  0  0
  147.0822  142.7367  156.4672 H   0  0  0  0  0  0  0  0  0  0  0  0
  146.6230  141.1260  157.0086 H   0  0  0  0  0  0  0  0  0  0  0  0
  147.2009  141.9686  154.1182 H   0  0  0  0  0  0  0  0  0  0  0  0
  147.5583  140.0457  152.6624 H   0  0  0  0  0  0  0  0  0  0  0  0
  145.2902  138.5492  152.3080 H   0  0  0  0  0  0  0  0  0  0  0  0
  146.8397  138.1385  151.6110 H   0  0  0  0  0  0  0  0  0  0  0  0
  147.2783  137.2183  154.1351 H   0  0  0  0  0  0  0  0  0  0  0  0
  145.5446  137.0205  154.1222 H   0  0  0  0  0  0  0  0  0  0  0  0
  147.6856  134.8726  154.2524 H   0  0  0  0  0  0  0  0  0  0  0  0
  145.9718  134.5035  154.2445 H   0  0  0  0  0  0  0  0  0  0  0  0
  148.0716  133.5189  152.2389 H   0  0  0  0  0  0  0  0  0  0  0  0
  147.2822  132.5458  153.4568 H   0  0  0  0  0  0  0  0  0  0  0  0
  146.2513  132.2255  151.1864 H   0  0  0  0  0  0  0  0  0  0  0  0
  145.0934  132.8326  152.3496 H   0  0  0  0  0  0  0  0  0  0  0  0
  146.6015  134.4901  150.2675 H   0  0  0  0  0  0  0  0  0  0  0  0
  144.8928  134.1218  150.2535 H   0  0  0  0  0  0  0  0  0  0  0  0
  144.5397  135.4413  152.3249 H   0  0  0  0  0  0  0  0  0  0  0  0
  145.3234  136.4179  151.1022 H   0  0  0  0  0  0  0  0  0  0  0  0
  149.2427  139.6383  153.5479 H   0  0  0  0  0  0  0  0  0  0  0  0
  151.4032  141.2018  156.6896 H   0  0  0  0  0  0  0  0  0  0  0  0
  147.4238  135.9401  152.1557 H   0  0  0  0  0  0  0  0  0  0  0  0
  1  2  1  0  0  0  0
  1 19  1  0  0  0  0
  1 20  1  0  0  0  0
  1 21  1  0  0  0  0
  2  3  1  0  0  0  0
  2 14  1  0  0  0  0
  2 22  1  0  0  0  0
  3  4  2  0  0  0  0
  3  5  1  0  0  0  0
  5  6  1  0  0  0  0
  5 23  1  0  0  0  0
  6  7  1  0  0  0  0
  6 24  1  0  0  0  0
  6 25  1  0  0  0  0
  7  8  1  0  0  0  0
  7 26  1  0  0  0  0
  7 27  1  0  0  0  0
  8 13  1  0  0  0  0
  8  9  1  0  0  0  0
  8 40  1  0  0  0  0
  9 10  1  0  0  0  0
  9 28  1  0  0  0  0
  9 29  1  0  0  0  0
 10 11  1  0  0  0  0
 10 30  1  0  0  0  0
 10 31  1  0  0  0  0
 11 12  1  0  0  0  0
 11 32  1  0  0  0  0
 11 33  1  0  0  0  0
 12 13  1  0  0  0  0
 12 34  1  0  0  0  0
 12 35  1  0  0  0  0
 13 36  1  0  0  0  0
 13 37  1  0  0  0  0
 14 18  1  0  0  0  0
 14 15  1  0  0  0  0
 15 16  2  0  0  0  0
 15 38  1  0  0  0  0
 16 17  1  0  0  0  0
 17 18  2  0  0  0  0
 17 39  1  0  0  0  0
M  CHG  1   8   1
M  END
> <s_m_source_file>
AV-unprocessed.smi

> <i_m_source_file_index>
3268

> <i_lp_mmshare_version>
43012

> <i_f3d_flags>
0

> <s_epik_input>
bjFbY0hdbltjSF1uMVtDQEhdKFtDSDNdKUMoPU8pW05IXVtDSDJdW0NIMl1OMltDSDJdW0NIMl1bQ0gyXVtDSDJdW0NIMl0y

> <s_epik_cmdline>
J2VwaWtfcHl0aG9uJywgJy1waCcsICc3LjAnLCAnLXRuJywgJzgnLCAnLW1hJywgJzIwMCcsICctbWV0YWxfYmluZGluZycsICctaW1hZScsICc8aW5maWxlLm1hZT4nLCAnLW9tYWUnLCAnPG91dGZpbGUubWFlPic=

> <r_lp_tautomer_probability>
1

> <r_epik_Ionization_Penalty>
0.00266407

> <r_epik_Ionization_Penalty_Charging>
0.00265606

> <r_epik_Ionization_Penalty_Neutral>
8.01095e-06

> <r_epik_State_Penalty>
0.00184955

> <r_epik_Charging_Adjusted_Penalty>
0.00450561

> <i_epik_Tot_Q>
1

> <i_epik_Tot_abs_Q>
1

> <r_epik_Metal_State_Penalty>
-0

> <b_epik_Metal_Only>
0

> <s_lp_Force_Field>
OPLS_2005

> <r_lp_Energy>
22.0187

> <b_lp_Chiralities_Consistent>
1

> <s_lp_Variant>
AV-unprocessed.smi:3268-1

> <Gold.Version>
5.8.1

> <Gold.Id.Protein>
6NUR|6NUR_protein|mol2

> <Gold.PLP.Fitness>
40.7477

> <Gold.PLP.PLP>
-29.0244

> <Gold.PLP.part.hbond>
-3.0000

> <Gold.PLP.part.metal>
0.0000

> <Gold.PLP.part.buried>
0.5323

> <Gold.PLP.part.nonpolar>
-26.8942

> <Gold.PLP.part.repulsive>
0.8937

> <Gold.PLP.ligand.clash>
0.0000

> <Gold.PLP.ligand.torsion>
1.0155

> <Gold.PLP.Chemscore.Hbond>
3.5500

> <Gold.PLP.Chemscore.CHOScore>
0.9992

> <Gold.PLP.Chemscore.Metal>
0.0000

> <Gold.Chemscore.Hbonds>
donor molecule, donor type, donor heavy atom, donor atom, acceptor molecule, acceptor atom, score
      L1  H     8    40       P1  7948  2.00
      P1  H  7989  7998       L1    16  0.90
      L1  C    15    38       P1  7957  1.00

> <Gold.PLP.Chemscore.Internal.Correction>
0.1067

> <Gold.Rescore>
     Score         DG    S(hbond)    S(metal)    S(lipo)     H(rot)  DE(clash)    DE(int)     intcor
      8.39     -11.17       1.97        0.00      48.45       2.57       1.60       1.18       ----

> <Gold.Chemscore.Fitness>
8.3881

> <Gold.Chemscore.DG>
-11.1666

> <Gold.Chemscore.ZeroCoef>
-5.4800

> <Gold.Chemscore.Hbond>
1.9743

> <Gold.Chemscore.Metal>
0.0000

> <Gold.Chemscore.Lipo>
48.4543

> <Gold.Chemscore.Internal_Hbond>
0.0000

> <Gold.Chemscore.DEClash>
1.6005

> <Gold.Chemscore.DEInternal>
1.1780

> <Gold.Chemscore.Rot>
2.5690

> <Gold.Chemscore.Internal.Correction>
   9.000000E+99

> <Gold.Chemscore.Hbonds>
donor molecule, donor type, donor heavy atom, donor atom, acceptor molecule, acceptor atom, score
      L1  H     5    23       P1  7957  0.01
      L1  H     8    40       P1  7948  0.96
      P1  H  7989  7998       L1    16  0.17

> <Gold.Chemscore.Hbond.Weighted>
-6.5940

> <Gold.Chemscore.Metal.Weighted>
-0.0000

> <Gold.Chemscore.Lipo.Weighted>
-5.6692

> <Gold.Chemscore.Internal_Hbond.Weighted>
0.0000

> <Gold.Chemscore.DEClash.Weighted>
1.6005

> <Gold.Chemscore.DEInternal.Weighted>
1.1780

> <Gold.Chemscore.Rot.Weighted>
6.5766

> <Gold.Chemscore.Internal.Correction.Weighted>
   9.000000E+99

> <Gold.Protein.RotatedTorsions>
[ 6907 6896 6895 6894 ] final    9.66 input  -60.11 | X-H torsion
[ 7974 7965 7964 7962 ] final   17.92 input  175.53 | X-H torsion
[ 8008 7997 7996 7995 ] final    7.74 input   59.86 | X-H torsion
[ 10167 10162 10161 10158 ] final  178.28 input  -65.29 | X-H torsion
[ 10718 10713 10712 10709 ] final  147.46 input   66.30 | X-H torsion
[ 10763 10752 10751 10750 ] final  -87.73 input  -60.55 | X-H torsion
[ 11005 11000 10999 10996 ] final -100.03 input  -57.11 | X-H torsion

> <Gold.Protein.ActiveResidues>
 VAL166  LYS551  ARG553  GLY616  TRP617  ASP618  TYR619  PRO620  LYS621  CYS622 
 ASP623  PHE694  ASN695  SER759  ASP760  ASP761  ALA762  ILE779  LEU786  VAL792 
 PHE793  MET794  SER795  GLU796  ALA797  LYS798  CYS799  TRP800  GLU811  SER814 

> <Gold.Protein.RotatedAtoms>
  151.7258  135.0885  160.0291 H   0  0  0  0  0  0  0  0  0  0  0  0  # atno 6907 bound_to 6896
  152.3573  133.6248  159.5997 H   0  0  0  0  0  0  0  0  0  0  0  0  # atno 6908 bound_to 6896
  150.7580  133.9396  159.3493 H   0  0  0  0  0  0  0  0  0  0  0  0  # atno 6909 bound_to 6896
  146.2202  139.8532  142.8618 H   0  0  0  0  0  0  0  0  0  0  0  0  # atno 7974 bound_to 7965
  154.7578  140.2779  155.6239 H   0  0  0  0  0  0  0  0  0  0  0  0  # atno 8008 bound_to 7997
  156.2909  140.2666  156.2276 H   0  0  0  0  0  0  0  0  0  0  0  0  # atno 8009 bound_to 7997
  155.0055  140.0372  157.2368 H   0  0  0  0  0  0  0  0  0  0  0  0  # atno 8010 bound_to 7997
  139.5287  144.2699  152.0636 H   0  0  0  0  0  0  0  0  0  0  0  0  # atno 10167 bound_to 10162
  157.3207  131.0904  151.1243 H   0  0  0  0  0  0  0  0  0  0  0  0  # atno 10718 bound_to 10713
  154.6368  135.5403  153.7743 H   0  0  0  0  0  0  0  0  0  0  0  0  # atno 10763 bound_to 10752
  153.0312  135.6449  154.1220 H   0  0  0  0  0  0  0  0  0  0  0  0  # atno 10764 bound_to 10752
  154.1147  135.2924  155.3202 H   0  0  0  0  0  0  0  0  0  0  0  0  # atno 10765 bound_to 10752
  141.1286  133.8367  157.1049 H   0  0  0  0  0  0  0  0  0  0  0  0  # atno 11005 bound_to 11000
  145.2780  141.0130  143.3734 LP  0  0  0  0  0  0  0  0  0  0  0  0  # atno 17320 bound_to 7965
  144.9172  139.4456  143.6559 LP  0  0  0  0  0  0  0  0  0  0  0  0  # atno 17321 bound_to 7965
  140.2159  144.4515  150.6364 LP  0  0  0  0  0  0  0  0  0  0  0  0  # atno 17342 bound_to 10162
  140.6450  143.2211  151.6206 LP  0  0  0  0  0  0  0  0  0  0  0  0  # atno 17343 bound_to 10162
  157.2529  130.6622  149.5939 LP  0  0  0  0  0  0  0  0  0  0  0  0  # atno 17370 bound_to 10713
  155.9685  130.4533  150.5805 LP  0  0  0  0  0  0  0  0  0  0  0  0  # atno 17371 bound_to 10713
  140.0311  134.9901  157.0781 LP  0  0  0  0  0  0  0  0  0  0  0  0  # atno 17394 bound_to 11000
  140.4284  134.1806  155.7167 LP  0  0  0  0  0  0  0  0  0  0  0  0  # atno 17395 bound_to 11000

$$$$
