AV-unprocessed.smi:1952|AV-procd|sdf|7885|dock6
  -GOLD-   2272010 33D 1   1.00000     0.00000
 Structure written by MMmdl.
 40 41  0  0  0  0  0  0  0  0  2 V2000
  151.0692  141.6753  156.2075 C   0  0  0  0  0  0  0  0  0  0  0  0
  151.1438  140.2830  155.6811 C   0  0  0  0  0  0  0  0  0  0  0  0
  150.1940  139.3996  155.2504 C   0  0  0  0  0  0  0  0  0  0  0  0
  150.9598  138.2611  154.8844 C   0  0  0  0  0  0  0  0  0  0  0  0
  150.3328  137.0946  154.3767 N   0  0  0  0  0  0  0  0  0  0  0  0
  150.1976  135.9065  154.9894 C   0  0  0  0  0  0  0  0  0  0  0  0
  150.6249  135.6348  156.1117 O   0  0  0  0  0  0  0  0  0  0  0  0
  149.5209  135.0363  154.2248 N   0  0  0  0  0  0  0  0  0  0  0  0
  149.2266  133.6421  154.5604 C   0  0  2  0  0  0  0  0  0  0  0  0
  150.5324  132.9418  154.9610 C   0  0  0  0  0  0  0  0  0  0  0  0
  148.5368  132.9075  153.3867 C   0  0  0  0  0  0  0  0  0  0  0  0
  147.3356  133.6162  152.8765 N   0  3  0  0  0  0  0  0  0  0  0  0
  146.6805  132.9116  151.7499 C   0  0  0  0  0  0  0  0  0  0  0  0
  145.4934  133.7365  151.2236 C   0  0  0  0  0  0  0  0  0  0  0  0
  144.5786  133.9916  152.2825 O   0  0  0  0  0  0  0  0  0  0  0  0
  145.1760  134.7385  153.3354 C   0  0  0  0  0  0  0  0  0  0  0  0
  146.3447  133.9376  153.9325 C   0  0  0  0  0  0  0  0  0  0  0  0
  152.2586  138.4313  155.0790 N   0  0  0  0  0  0  0  0  0  0  0  0
  152.3833  139.7291  155.5888 O   0  0  0  0  0  0  0  0  0  0  0  0
  150.0402  141.9483  156.4416 H   0  0  0  0  0  0  0  0  0  0  0  0
  151.4492  142.3861  155.4736 H   0  0  0  0  0  0  0  0  0  0  0  0
  151.6608  141.7782  157.1172 H   0  0  0  0  0  0  0  0  0  0  0  0
  149.1254  139.5485  155.2043 H   0  0  0  0  0  0  0  0  0  0  0  0
  149.9453  137.1759  153.4480 H   0  0  0  0  0  0  0  0  0  0  0  0
  149.2095  135.3534  153.3180 H   0  0  0  0  0  0  0  0  0  0  0  0
  148.5764  133.6171  155.4357 H   0  0  0  0  0  0  0  0  0  0  0  0
  150.3490  131.9068  155.2518 H   0  0  0  0  0  0  0  0  0  0  0  0
  151.0022  133.4414  155.8089 H   0  0  0  0  0  0  0  0  0  0  0  0
  151.2496  132.9337  154.1394 H   0  0  0  0  0  0  0  0  0  0  0  0
  149.2625  132.8063  152.5780 H   0  0  0  0  0  0  0  0  0  0  0  0
  148.2625  131.8913  153.6743 H   0  0  0  0  0  0  0  0  0  0  0  0
  147.3981  132.7502  150.9447 H   0  0  0  0  0  0  0  0  0  0  0  0
  146.3395  131.9292  152.0805 H   0  0  0  0  0  0  0  0  0  0  0  0
  145.8352  134.6769  150.7880 H   0  0  0  0  0  0  0  0  0  0  0  0
  144.9766  133.1895  150.4349 H   0  0  0  0  0  0  0  0  0  0  0  0
  145.5153  135.7078  152.9660 H   0  0  0  0  0  0  0  0  0  0  0  0
  144.4247  134.9343  154.1005 H   0  0  0  0  0  0  0  0  0  0  0  0
  145.9739  133.0161  154.3839 H   0  0  0  0  0  0  0  0  0  0  0  0
  146.8100  134.5175  154.7289 H   0  0  0  0  0  0  0  0  0  0  0  0
  147.6619  134.4979  152.5061 H   0  0  0  0  0  0  0  0  0  0  0  0
  1  2  1  0  0  0  0
  1 20  1  0  0  0  0
  1 21  1  0  0  0  0
  1 22  1  0  0  0  0
  2 19  1  0  0  0  0
  2  3  2  0  0  0  0
  3  4  1  0  0  0  0
  3 23  1  0  0  0  0
  4  5  1  0  0  0  0
  4 18  2  0  0  0  0
  5  6  1  0  0  0  0
  5 24  1  0  0  0  0
  6  7  2  0  0  0  0
  6  8  1  0  0  0  0
  8  9  1  0  0  0  0
  8 25  1  0  0  0  0
  9 10  1  0  0  0  0
  9 11  1  0  0  0  0
  9 26  1  0  0  0  0
 10 27  1  0  0  0  0
 10 28  1  0  0  0  0
 10 29  1  0  0  0  0
 11 12  1  0  0  0  0
 11 30  1  0  0  0  0
 11 31  1  0  0  0  0
 12 17  1  0  0  0  0
 12 13  1  0  0  0  0
 12 40  1  0  0  0  0
 13 14  1  0  0  0  0
 13 32  1  0  0  0  0
 13 33  1  0  0  0  0
 14 15  1  0  0  0  0
 14 34  1  0  0  0  0
 14 35  1  0  0  0  0
 15 16  1  0  0  0  0
 16 17  1  0  0  0  0
 16 36  1  0  0  0  0
 16 37  1  0  0  0  0
 17 38  1  0  0  0  0
 17 39  1  0  0  0  0
 18 19  1  0  0  0  0
M  CHG  1  12   1
M  END
> <s_m_source_file>
AV-unprocessed.smi

> <i_m_source_file_index>
1952

> <i_lp_mmshare_version>
43012

> <i_f3d_flags>
0

> <s_epik_input>
W0NIM11jMVtjSF1jKG5vMSlbTkhdQyg9TylbTkhdW0NASF0oW0NIM10pW0NIMl1OMltDSDJdW0NIMl1PW0NIMl1bQ0gyXTI=

> <s_epik_cmdline>
J2VwaWtfcHl0aG9uJywgJy1waCcsICc3LjAnLCAnLXRuJywgJzgnLCAnLW1hJywgJzIwMCcsICctbWV0YWxfYmluZGluZycsICctaW1hZScsICc8aW5maWxlLm1hZT4nLCAnLW9tYWUnLCAnPG91dGZpbGUubWFlPic=

> <r_epik_Ionization_Penalty>
0.707079

> <r_epik_Ionization_Penalty_Charging>
0.707039

> <r_epik_Ionization_Penalty_Neutral>
4.01892e-05

> <r_epik_State_Penalty>
0.730276

> <r_epik_Charging_Adjusted_Penalty>
1.43732

> <i_epik_Tot_Q>
1

> <i_epik_Tot_abs_Q>
1

> <r_epik_Metal_State_Penalty>
0.744847

> <b_epik_Metal_Only>
0

> <s_lp_Force_Field>
OPLS_2005

> <r_lp_Energy>
19.2222

> <b_lp_Chiralities_Consistent>
1

> <s_lp_Variant>
AV-unprocessed.smi:1952-3

> <Gold.Version>
5.8.1

> <Gold.Id.Protein>
6NUR|6NUR_protein|mol2

> <Gold.PLP.Fitness>
42.0860

> <Gold.PLP.PLP>
-29.6203

> <Gold.PLP.part.hbond>
-4.5258

> <Gold.PLP.part.metal>
0.0000

> <Gold.PLP.part.buried>
-4.3126

> <Gold.PLP.part.nonpolar>
-21.1800

> <Gold.PLP.part.repulsive>
0.2603

> <Gold.PLP.ligand.clash>
0.0000

> <Gold.PLP.ligand.torsion>
0.7433

> <Gold.PLP.Chemscore.Hbond>
4.6371

> <Gold.PLP.Chemscore.CHOScore>
0.0000

> <Gold.PLP.Chemscore.Metal>
0.0000

> <Gold.Chemscore.Hbonds>
donor molecule, donor type, donor heavy atom, donor atom, acceptor molecule, acceptor atom, score
      L1  H     5    24       P1  7948  0.90
      L1  H     8    25       P1  7948  1.00
      L1  H    12    40       P1  7948  1.07
      P1  H  7997  8009       L1    19  0.84

> <Gold.PLP.Chemscore.Internal.Correction>
0.0411

> <Gold.Rescore>
     Score         DG    S(hbond)    S(metal)    S(lipo)     H(rot)  DE(clash)    DE(int)     intcor
     12.26     -14.53       2.14        0.00      51.48       1.61       0.30       1.97       ----

> <Gold.Chemscore.Fitness>
12.2556

> <Gold.Chemscore.DG>
-14.5278

> <Gold.Chemscore.ZeroCoef>
-5.4800

> <Gold.Chemscore.Hbond>
2.1380

> <Gold.Chemscore.Metal>
0.0000

> <Gold.Chemscore.Lipo>
51.4775

> <Gold.Chemscore.Internal_Hbond>
0.0000

> <Gold.Chemscore.DEClash>
0.3027

> <Gold.Chemscore.DEInternal>
1.9695

> <Gold.Chemscore.Rot>
1.6078

> <Gold.Chemscore.Internal.Correction>
   9.000000E+99

> <Gold.Chemscore.Hbonds>
donor molecule, donor type, donor heavy atom, donor atom, acceptor molecule, acceptor atom, score
      L1  H     5    24       P1  7948  0.33
      L1  H     8    25       P1  7948  0.26
      L1  H    12    40       P1  7948  0.40
      P1  H  7997  8009       L1    19  0.68

> <Gold.Chemscore.Hbond.Weighted>
-7.1408

> <Gold.Chemscore.Metal.Weighted>
-0.0000

> <Gold.Chemscore.Lipo.Weighted>
-6.0229

> <Gold.Chemscore.Internal_Hbond.Weighted>
0.0000

> <Gold.Chemscore.DEClash.Weighted>
0.3027

> <Gold.Chemscore.DEInternal.Weighted>
1.9695

> <Gold.Chemscore.Rot.Weighted>
4.1158

> <Gold.Chemscore.Internal.Correction.Weighted>
   9.000000E+99

> <Gold.Protein.RotatedTorsions>
[ 6907 6896 6895 6894 ] final   66.82 input  -60.11 | X-H torsion
[ 7974 7965 7964 7962 ] final -129.85 input  175.53 | X-H torsion
[ 8008 7997 7996 7995 ] final -151.22 input   59.86 | X-H torsion
[ 10167 10162 10161 10158 ] final -148.57 input  -65.29 | X-H torsion
[ 10718 10713 10712 10709 ] final  123.72 input   66.30 | X-H torsion
[ 10763 10752 10751 10750 ] final   90.30 input  -60.55 | X-H torsion
[ 11005 11000 10999 10996 ] final  106.59 input  -57.11 | X-H torsion

> <Gold.Protein.ActiveResidues>
 VAL166  LYS551  ARG553  GLY616  TRP617  ASP618  TYR619  PRO620  LYS621  CYS622 
 ASP623  PHE694  ASN695  SER759  ASP760  ASP761  ALA762  ILE779  LEU786  VAL792 
 PHE793  MET794  SER795  GLU796  ALA797  LYS798  CYS799  TRP800  GLU811  SER814 

> <Gold.Protein.RotatedAtoms>
  152.4508  134.5398  159.9835 H   0  0  0  0  0  0  0  0  0  0  0  0  # atno 6907 bound_to 6896
  151.5471  133.3417  159.2954 H   0  0  0  0  0  0  0  0  0  0  0  0  # atno 6908 bound_to 6896
  150.8436  134.7769  159.7016 H   0  0  0  0  0  0  0  0  0  0  0  0  # atno 6909 bound_to 6896
  144.9532  140.7367  143.4775 H   0  0  0  0  0  0  0  0  0  0  0  0  # atno 7974 bound_to 7965
  155.6360  140.0696  157.2634 H   0  0  0  0  0  0  0  0  0  0  0  0  # atno 8008 bound_to 7997
  154.4195  140.1759  156.1571 H   0  0  0  0  0  0  0  0  0  0  0  0  # atno 8009 bound_to 7997
  155.9894  140.3346  155.6742 H   0  0  0  0  0  0  0  0  0  0  0  0  # atno 8010 bound_to 7997
  139.7520  143.8505  152.2588 H   0  0  0  0  0  0  0  0  0  0  0  0  # atno 10167 bound_to 10162
  157.5642  131.1087  150.8484 H   0  0  0  0  0  0  0  0  0  0  0  0  # atno 10718 bound_to 10713
  153.1961  135.4439  155.0210 H   0  0  0  0  0  0  0  0  0  0  0  0  # atno 10763 bound_to 10752
  154.8120  135.3298  154.7283 H   0  0  0  0  0  0  0  0  0  0  0  0  # atno 10764 bound_to 10752
  153.7732  135.6983  153.4958 H   0  0  0  0  0  0  0  0  0  0  0  0  # atno 10765 bound_to 10752
  139.8816  134.9374  156.5689 H   0  0  0  0  0  0  0  0  0  0  0  0  # atno 11005 bound_to 11000
  145.2813  139.1917  143.4790 LP  0  0  0  0  0  0  0  0  0  0  0  0  # atno 17320 bound_to 7965
  146.3328  140.2775  142.8608 LP  0  0  0  0  0  0  0  0  0  0  0  0  # atno 17321 bound_to 7965
  139.8486  144.7175  150.9242 LP  0  0  0  0  0  0  0  0  0  0  0  0  # atno 17342 bound_to 10162
  140.7799  143.3920  151.1294 LP  0  0  0  0  0  0  0  0  0  0  0  0  # atno 17343 bound_to 10162
  156.8973  130.5234  149.5284 LP  0  0  0  0  0  0  0  0  0  0  0  0  # atno 17370 bound_to 10713
  156.0692  130.5728  150.9349 LP  0  0  0  0  0  0  0  0  0  0  0  0  # atno 17371 bound_to 10713
  140.8113  133.8427  155.8812 LP  0  0  0  0  0  0  0  0  0  0  0  0  # atno 17394 bound_to 11000
  140.9503  134.1787  157.4732 LP  0  0  0  0  0  0  0  0  0  0  0  0  # atno 17395 bound_to 11000

$$$$
