AV-unprocessed.smi:2591|AV-procd|sdf|10153|dock3
  -GOLD-   2272014163D 1   1.00000     0.00000
 Structure written by MMmdl.
 35 36  0  0  0  0  0  0  0  0  2 V2000
  149.8103  134.6047  154.6920 C   0  0  0  0  0  0  0  0  0  0  0  0
  149.7484  136.0803  154.6256 N   0  3  1  0  0  0  0  0  0  0  0  0
  148.4320  136.6149  155.0397 C   0  0  0  0  0  0  0  0  0  0  0  0
  148.4156  138.1456  154.9091 C   0  0  0  0  0  0  0  0  0  0  0  0
  149.4681  138.6987  155.6893 O   0  0  0  0  0  0  0  0  0  0  0  0
  150.7581  138.2706  155.2525 C   0  0  1  0  0  0  0  0  0  0  0  0
  151.8303  138.9916  156.0848 C   0  0  0  0  0  0  0  0  0  0  0  0
  153.0209  138.8404  155.8088 O   0  0  0  0  0  0  0  0  0  0  0  0
  151.3770  139.7814  157.0779 N   0  0  0  0  0  0  0  0  0  0  0  0
  152.1276  140.5560  158.0016 C   0  0  0  0  0  0  0  0  0  0  0  0
  151.5898  141.8299  158.2896 C   0  0  0  0  0  0  0  0  0  0  0  0
  152.2540  142.6817  159.1975 C   0  0  0  0  0  0  0  0  0  0  0  0
  151.6835  144.0557  159.5122 C   0  0  0  0  0  0  0  0  0  0  0  0
  150.4005  144.1501  159.1612 F   0  0  0  0  0  0  0  0  0  0  0  0
  151.7862  144.2873  160.8203 F   0  0  0  0  0  0  0  0  0  0  0  0
  152.3704  144.9901  158.8552 F   0  0  0  0  0  0  0  0  0  0  0  0
  153.4508  142.2261  159.7879 C   0  0  0  0  0  0  0  0  0  0  0  0
  153.9173  140.9438  159.4462 C   0  0  0  0  0  0  0  0  0  0  0  0
  153.2774  140.1309  158.5804 N   0  0  0  0  0  0  0  0  0  0  0  0
  150.8457  136.7310  155.3781 C   0  0  0  0  0  0  0  0  0  0  0  0
  149.6828  134.2524  155.7164 H   0  0  0  0  0  0  0  0  0  0  0  0
  150.7706  134.2436  154.3227 H   0  0  0  0  0  0  0  0  0  0  0  0
  149.0278  134.1594  154.0769 H   0  0  0  0  0  0  0  0  0  0  0  0
  147.6457  136.1808  154.4210 H   0  0  0  0  0  0  0  0  0  0  0  0
  148.2260  136.3260  156.0717 H   0  0  0  0  0  0  0  0  0  0  0  0
  148.5181  138.4513  153.8667 H   0  0  0  0  0  0  0  0  0  0  0  0
  147.4653  138.5428  155.2660 H   0  0  0  0  0  0  0  0  0  0  0  0
  150.8998  138.5656  154.2113 H   0  0  0  0  0  0  0  0  0  0  0  0
  150.3748  139.8207  157.1922 H   0  0  0  0  0  0  0  0  0  0  0  0
  150.6734  142.1573  157.8197 H   0  0  0  0  0  0  0  0  0  0  0  0
  154.0040  142.8369  160.4858 H   0  0  0  0  0  0  0  0  0  0  0  0
  154.8296  140.5605  159.8787 H   0  0  0  0  0  0  0  0  0  0  0  0
  150.7924  136.4320  156.4266 H   0  0  0  0  0  0  0  0  0  0  0  0
  151.8007  136.3730  154.9901 H   0  0  0  0  0  0  0  0  0  0  0  0
  149.8729  136.3320  153.6552 H   0  0  0  0  0  0  0  0  0  0  0  0
  1  2  1  0  0  0  0
  1 21  1  0  0  0  0
  1 22  1  0  0  0  0
  1 23  1  0  0  0  0
  2 20  1  0  0  0  0
  2  3  1  0  0  0  0
  2 35  1  0  0  0  0
  3  4  1  0  0  0  0
  3 24  1  0  0  0  0
  3 25  1  0  0  0  0
  4  5  1  0  0  0  0
  4 26  1  0  0  0  0
  4 27  1  0  0  0  0
  5  6  1  0  0  0  0
  6  7  1  0  0  0  0
  6 20  1  0  0  0  0
  6 28  1  0  0  0  0
  7  8  2  0  0  0  0
  7  9  1  0  0  0  0
  9 10  1  0  0  0  0
  9 29  1  0  0  0  0
 10 19  1  0  0  0  0
 10 11  2  0  0  0  0
 11 12  1  0  0  0  0
 11 30  1  0  0  0  0
 12 13  1  0  0  0  0
 12 17  2  0  0  0  0
 13 14  1  0  0  0  0
 13 15  1  0  0  0  0
 13 16  1  0  0  0  0
 17 18  1  0  0  0  0
 17 31  1  0  0  0  0
 18 19  2  0  0  0  0
 18 32  1  0  0  0  0
 20 33  1  0  0  0  0
 20 34  1  0  0  0  0
M  CHG  1   2   1
M  END
> <s_m_source_file>
AV-unprocessed.smi

> <i_m_source_file_index>
2591

> <i_lp_mmshare_version>
43012

> <i_f3d_flags>
0

> <s_epik_input>
W0NIM11OMVtDSDJdW0NIMl1PW0NASF0oW0NIMl0xKUMoPU8pW05IXWMyW2NIXWMoQyhGKShGKUYpW2NIXVtjSF1uMg==

> <s_epik_cmdline>
J2VwaWtfcHl0aG9uJywgJy1waCcsICc3LjAnLCAnLXRuJywgJzgnLCAnLW1hJywgJzIwMCcsICctbWV0YWxfYmluZGluZycsICctaW1hZScsICc8aW5maWxlLm1hZT4nLCAnLW9tYWUnLCAnPG91dGZpbGUubWFlPic=

> <r_epik_Ionization_Penalty>
0.314028

> <r_epik_Ionization_Penalty_Charging>
0.314023

> <r_epik_Ionization_Penalty_Neutral>
5.2303e-06

> <r_epik_State_Penalty>
0.308208

> <r_epik_Charging_Adjusted_Penalty>
0.62223

> <i_epik_Tot_Q>
1

> <i_epik_Tot_abs_Q>
1

> <r_epik_Metal_State_Penalty>
0.308209

> <b_epik_Metal_Only>
0

> <s_lp_Force_Field>
OPLS_2005

> <r_lp_Energy>
17.8582

> <b_lp_Chiralities_Consistent>
1

> <s_lp_Variant>
AV-unprocessed.smi:2591-1

> <Gold.Version>
5.8.1

> <Gold.Id.Protein>
6NUR|6NUR_protein|mol2

> <Gold.PLP.Fitness>
45.2912

> <Gold.PLP.PLP>
-39.1301

> <Gold.PLP.part.hbond>
-3.0000

> <Gold.PLP.part.metal>
0.0000

> <Gold.PLP.part.buried>
-5.7137

> <Gold.PLP.part.nonpolar>
-30.9488

> <Gold.PLP.part.repulsive>
0.1420

> <Gold.PLP.ligand.clash>
0.0355

> <Gold.PLP.ligand.torsion>
1.0466

> <Gold.PLP.Chemscore.Hbond>
2.7600

> <Gold.PLP.Chemscore.CHOScore>
0.0000

> <Gold.PLP.Chemscore.Metal>
0.0000

> <Gold.Chemscore.Hbonds>
donor molecule, donor type, donor heavy atom, donor atom, acceptor molecule, acceptor atom, score
      L1  H     2    35       P1  7948  1.64
      P1  H  7997  8008       L1     8  1.00

> <Gold.PLP.Chemscore.Internal.Correction>
0.0097

> <Gold.Rescore>
     Score         DG    S(hbond)    S(metal)    S(lipo)     H(rot)  DE(clash)    DE(int)     intcor
     15.69     -16.92       1.74        0.00      70.00       1.00       0.04       1.19       ----

> <Gold.Chemscore.Fitness>
15.6937

> <Gold.Chemscore.DG>
-16.9245

> <Gold.Chemscore.ZeroCoef>
-5.4800

> <Gold.Chemscore.Hbond>
1.7407

> <Gold.Chemscore.Metal>
0.0000

> <Gold.Chemscore.Lipo>
70.0033

> <Gold.Chemscore.Internal_Hbond>
0.0000

> <Gold.Chemscore.DEClash>
0.0422

> <Gold.Chemscore.DEInternal>
1.1885

> <Gold.Chemscore.Rot>
1.0000

> <Gold.Chemscore.Internal.Correction>
   9.000000E+99

> <Gold.Chemscore.Hbonds>
donor molecule, donor type, donor heavy atom, donor atom, acceptor molecule, acceptor atom, score
      L1  H     2    35       P1  7948  0.18
      P1  H  7997  8008       L1     8  0.97

> <Gold.Chemscore.Hbond.Weighted>
-5.8141

> <Gold.Chemscore.Metal.Weighted>
-0.0000

> <Gold.Chemscore.Lipo.Weighted>
-8.1904

> <Gold.Chemscore.Internal_Hbond.Weighted>
0.0000

> <Gold.Chemscore.DEClash.Weighted>
0.0422

> <Gold.Chemscore.DEInternal.Weighted>
1.1885

> <Gold.Chemscore.Rot.Weighted>
2.5600

> <Gold.Chemscore.Internal.Correction.Weighted>
   9.000000E+99

> <Gold.Protein.RotatedTorsions>
[ 6907 6896 6895 6894 ] final -157.57 input  -60.11 | X-H torsion
[ 7974 7965 7964 7962 ] final -178.52 input  175.53 | X-H torsion
[ 8008 7997 7996 7995 ] final  -42.42 input   59.86 | X-H torsion
[ 10167 10162 10161 10158 ] final  161.46 input  -65.29 | X-H torsion
[ 10718 10713 10712 10709 ] final   70.71 input   66.30 | X-H torsion
[ 10763 10752 10751 10750 ] final   18.91 input  -60.55 | X-H torsion
[ 11005 11000 10999 10996 ] final   75.98 input  -57.11 | X-H torsion

> <Gold.Protein.ActiveResidues>
 VAL166  LYS551  ARG553  GLY616  TRP617  ASP618  TYR619  PRO620  LYS621  CYS622 
 ASP623  PHE694  ASN695  SER759  ASP760  ASP761  ALA762  ILE779  LEU786  VAL792 
 PHE793  MET794  SER795  GLU796  ALA797  LYS798  CYS799  TRP800  GLU811  SER814 

> <Gold.Protein.RotatedAtoms>
  151.3048  133.4106  159.2642 H   0  0  0  0  0  0  0  0  0  0  0  0  # atno 6907 bound_to 6896
  151.0164  134.9437  159.8046 H   0  0  0  0  0  0  0  0  0  0  0  0  # atno 6908 bound_to 6896
  152.5313  134.3012  159.9131 H   0  0  0  0  0  0  0  0  0  0  0  0  # atno 6909 bound_to 6896
  144.7131  140.0856  143.6423 H   0  0  0  0  0  0  0  0  0  0  0  0  # atno 7974 bound_to 7965
  154.3999  140.1474  156.3352 H   0  0  0  0  0  0  0  0  0  0  0  0  # atno 8008 bound_to 7997
  155.8407  140.3462  155.5609 H   0  0  0  0  0  0  0  0  0  0  0  0  # atno 8009 bound_to 7997
  155.8090  140.0881  157.1905 H   0  0  0  0  0  0  0  0  0  0  0  0  # atno 8010 bound_to 7997
  139.4849  144.4534  151.8800 H   0  0  0  0  0  0  0  0  0  0  0  0  # atno 10167 bound_to 10162
  157.6414  130.9491  150.0689 H   0  0  0  0  0  0  0  0  0  0  0  0  # atno 10718 bound_to 10713
  153.1208  135.6718  153.9340 H   0  0  0  0  0  0  0  0  0  0  0  0  # atno 10763 bound_to 10752
  153.8856  135.3053  155.3447 H   0  0  0  0  0  0  0  0  0  0  0  0  # atno 10764 bound_to 10752
  154.7619  135.4983  153.9560 H   0  0  0  0  0  0  0  0  0  0  0  0  # atno 10765 bound_to 10752
  139.9319  134.7563  156.1339 H   0  0  0  0  0  0  0  0  0  0  0  0  # atno 11005 bound_to 11000
  145.9664  139.2838  143.1125 LP  0  0  0  0  0  0  0  0  0  0  0  0  # atno 17320 bound_to 7965
  145.9164  140.9145  143.0427 LP  0  0  0  0  0  0  0  0  0  0  0  0  # atno 17321 bound_to 7965
  140.3992  144.2515  150.5894 LP  0  0  0  0  0  0  0  0  0  0  0  0  # atno 17342 bound_to 10162
  140.5073  143.2300  151.8589 LP  0  0  0  0  0  0  0  0  0  0  0  0  # atno 17343 bound_to 10162
  156.1699  130.3646  149.9180 LP  0  0  0  0  0  0  0  0  0  0  0  0  # atno 17370 bound_to 10713
  156.7158  130.8987  151.3613 LP  0  0  0  0  0  0  0  0  0  0  0  0  # atno 17371 bound_to 10713
  141.0912  133.6714  156.2544 LP  0  0  0  0  0  0  0  0  0  0  0  0  # atno 17394 bound_to 11000
  140.6180  134.5391  157.5543 LP  0  0  0  0  0  0  0  0  0  0  0  0  # atno 17395 bound_to 11000

$$$$
