AV-unprocessed.smi:148|AV-procd|sdf|1214|dock8
  -GOLD-   2262018393D 1   1.00000     0.00000
 Structure written by MMmdl.
 63 67  0  0  0  0  0  0  0  0  1 V2000
  140.4394  135.4587  151.1784 O   0  0  0  0  0  0  0  0  0  0  0  0
  141.4863  135.7583  150.2788 C   0  0  0  0  0  0  0  0  0  0  0  0
  142.8079  135.0789  150.7098 C   0  0  2  0  0  0  0  0  0  0  0  0
  144.0381  135.9667  150.3851 C   0  0  0  0  0  0  0  0  0  0  0  0
  144.7722  136.3582  151.5756 N   0  0  0  0  0  0  0  0  0  0  0  0
  146.0282  136.9188  151.6167 C   0  0  0  0  0  0  0  0  0  0  0  0
  146.4851  137.1709  152.8127 N   0  0  0  0  0  0  0  0  0  0  0  0
  145.4657  136.7537  153.6606 C   0  0  0  0  0  0  0  0  0  0  0  0
  145.2962  136.7169  155.0744 C   0  0  0  0  0  0  0  0  0  0  0  0
  146.2185  137.1203  155.9788 N   0  0  0  0  0  0  0  0  0  0  0  0
  146.7000  135.9604  156.7307 C   0  0  0  0  0  0  0  0  0  0  0  0
  147.9116  136.3139  157.6035 C   0  0  0  0  0  0  0  0  0  0  0  0
  147.5834  137.4976  158.5190 C   0  0  0  0  0  0  0  0  0  0  0  0
  147.1105  138.6862  157.6728 C   0  0  0  0  0  0  0  0  0  0  0  0
  145.8924  138.3095  156.7895 C   0  0  1  0  0  0  0  0  0  0  0  0
  145.3458  139.5142  155.9554 C   0  0  1  0  0  0  0  0  0  0  0  0
  144.7176  140.6385  156.8036 C   0  0  0  0  0  0  0  0  0  0  0  0
  145.0033  141.9583  156.0696 C   0  0  0  0  0  0  0  0  0  0  0  0
  145.6431  141.5706  154.7355 C   0  0  0  0  0  0  0  0  0  0  0  0
  146.3356  140.2400  155.0253 C   0  0  2  0  0  0  0  0  0  0  0  0
  146.5817  139.5329  153.8283 O   0  0  0  0  0  0  0  0  0  0  0  0
  144.1187  136.2538  155.5613 N   0  0  0  0  0  0  0  0  0  0  0  0
  143.1730  135.8195  154.7232 C   0  0  0  0  0  0  0  0  0  0  0  0
  143.1982  135.7689  153.3895 N   0  0  0  0  0  0  0  0  0  0  0  0
  144.3735  136.2551  152.8967 C   0  0  0  0  0  0  0  0  0  0  0  0
  142.9223  133.6339  150.1488 C   0  0  2  0  0  0  0  0  0  0  0  0
  144.0228  132.7667  150.7637 C   0  0  0  0  0  0  0  0  0  0  0  0
  144.7565  132.1826  149.5563 C   0  0  0  0  0  0  0  0  0  0  0  0
  143.8053  132.2546  148.5069 O   0  0  0  0  0  0  0  0  0  0  0  0
  143.1579  133.5091  148.6371 C   0  0  0  0  0  0  0  0  0  0  0  0
  139.8943  134.7898  150.7929 H   0  0  0  0  0  0  0  0  0  0  0  0
  141.1999  135.4499  149.2731 H   0  0  0  0  0  0  0  0  0  0  0  0
  141.5872  136.8431  150.2596 H   0  0  0  0  0  0  0  0  0  0  0  0
  142.7711  134.9832  151.7962 H   0  0  0  0  0  0  0  0  0  0  0  0
  144.7373  135.4523  149.7272 H   0  0  0  0  0  0  0  0  0  0  0  0
  143.7350  136.8722  149.8605 H   0  0  0  0  0  0  0  0  0  0  0  0
  146.6018  137.1274  150.7252 H   0  0  0  0  0  0  0  0  0  0  0  0
  145.8931  135.5816  157.3601 H   0  0  0  0  0  0  0  0  0  0  0  0
  146.9715  135.1554  156.0456 H   0  0  0  0  0  0  0  0  0  0  0  0
  148.2094  135.4495  158.1973 H   0  0  0  0  0  0  0  0  0  0  0  0
  148.7616  136.5640  156.9672 H   0  0  0  0  0  0  0  0  0  0  0  0
  146.8071  137.2154  159.2314 H   0  0  0  0  0  0  0  0  0  0  0  0
  148.4609  137.7759  159.1035 H   0  0  0  0  0  0  0  0  0  0  0  0
  146.8766  139.5199  158.3332 H   0  0  0  0  0  0  0  0  0  0  0  0
  147.9455  139.0087  157.0516 H   0  0  0  0  0  0  0  0  0  0  0  0
  145.0966  138.0105  157.4718 H   0  0  0  0  0  0  0  0  0  0  0  0
  144.5239  139.1713  155.3262 H   0  0  0  0  0  0  0  0  0  0  0  0
  143.6449  140.4743  156.9141 H   0  0  0  0  0  0  0  0  0  0  0  0
  145.1291  140.6839  157.8108 H   0  0  0  0  0  0  0  0  0  0  0  0
  144.1034  142.5582  155.9305 H   0  0  0  0  0  0  0  0  0  0  0  0
  145.7060  142.5543  156.6534 H   0  0  0  0  0  0  0  0  0  0  0  0
  144.8606  141.4312  153.9877 H   0  0  0  0  0  0  0  0  0  0  0  0
  146.3290  142.3309  154.3607 H   0  0  0  0  0  0  0  0  0  0  0  0
  147.2814  140.4434  155.5251 H   0  0  0  0  0  0  0  0  0  0  0  0
  145.9179  139.7693  153.1978 H   0  0  0  0  0  0  0  0  0  0  0  0
  142.2685  135.4566  155.1885 H   0  0  0  0  0  0  0  0  0  0  0  0
  141.9879  133.1130  150.3624 H   0  0  0  0  0  0  0  0  0  0  0  0
  144.7017  133.3060  151.4231 H   0  0  0  0  0  0  0  0  0  0  0  0
  143.5738  131.9667  151.3539 H   0  0  0  0  0  0  0  0  0  0  0  0
  145.6228  132.7946  149.2998 H   0  0  0  0  0  0  0  0  0  0  0  0
  145.0969  131.1604  149.7228 H   0  0  0  0  0  0  0  0  0  0  0  0
  142.2305  133.5409  148.0651 H   0  0  0  0  0  0  0  0  0  0  0  0
  143.8205  134.2820  148.2497 H   0  0  0  0  0  0  0  0  0  0  0  0
  1  2  1  0  0  0  0
  1 31  1  0  0  0  0
  2  3  1  0  0  0  0
  2 32  1  0  0  0  0
  2 33  1  0  0  0  0
  3  4  1  0  0  0  0
  3 26  1  0  0  0  0
  3 34  1  0  0  0  0
  4  5  1  0  0  0  0
  4 35  1  0  0  0  0
  4 36  1  0  0  0  0
  5 25  1  0  0  0  0
  5  6  1  0  0  0  0
  6  7  2  0  0  0  0
  6 37  1  0  0  0  0
  7  8  1  0  0  0  0
  8 25  2  0  0  0  0
  8  9  1  0  0  0  0
  9 10  1  0  0  0  0
  9 22  2  0  0  0  0
 10 15  1  0  0  0  0
 10 11  1  0  0  0  0
 11 12  1  0  0  0  0
 11 38  1  0  0  0  0
 11 39  1  0  0  0  0
 12 13  1  0  0  0  0
 12 40  1  0  0  0  0
 12 41  1  0  0  0  0
 13 14  1  0  0  0  0
 13 42  1  0  0  0  0
 13 43  1  0  0  0  0
 14 15  1  0  0  0  0
 14 44  1  0  0  0  0
 14 45  1  0  0  0  0
 15 16  1  0  0  0  0
 15 46  1  0  0  0  0
 16 20  1  0  0  0  0
 16 17  1  0  0  0  0
 16 47  1  0  0  0  0
 17 18  1  0  0  0  0
 17 48  1  0  0  0  0
 17 49  1  0  0  0  0
 18 19  1  0  0  0  0
 18 50  1  0  0  0  0
 18 51  1  0  0  0  0
 19 20  1  0  0  0  0
 19 52  1  0  0  0  0
 19 53  1  0  0  0  0
 20 21  1  0  0  0  0
 20 54  1  0  0  0  0
 21 55  1  0  0  0  0
 22 23  1  0  0  0  0
 23 24  2  0  0  0  0
 23 56  1  0  0  0  0
 24 25  1  0  0  0  0
 26 30  1  0  0  0  0
 26 27  1  0  0  0  0
 26 57  1  0  0  0  0
 27 28  1  0  0  0  0
 27 58  1  0  0  0  0
 27 59  1  0  0  0  0
 28 29  1  0  0  0  0
 28 60  1  0  0  0  0
 28 61  1  0  0  0  0
 29 30  1  0  0  0  0
 30 62  1  0  0  0  0
 30 63  1  0  0  0  0
M  END
> <s_m_source_file>
AV-unprocessed.smi

> <i_m_source_file_index>
148

> <i_lp_mmshare_version>
43012

> <i_f3d_flags>
0

> <s_epik_input>
W0NIMl0xT1tDSDJdW0NIMl1bQ0BIXTFbQ0BIXShbQ0gyXVtPSF0pW0NIMl1uKFtjSF1uMiljKGMyMyluW2NIXW5jM040W0NIMl1bQ0gyXVtDSDJdW0NIMl1bQ0BIXTRbQ0BASF01W0NIMl1bQ0gyXVtDSDJdW0NASF01W09IXQ==

> <s_epik_cmdline>
J2VwaWtfcHl0aG9uJywgJy1waCcsICc3LjAnLCAnLXRuJywgJzgnLCAnLW1hJywgJzIwMCcsICctbWV0YWxfYmluZGluZycsICctaW1hZScsICc8aW5maWxlLm1hZT4nLCAnLW9tYWUnLCAnPG91dGZpbGUubWFlPic=

> <r_lp_tautomer_probability>
1

> <r_epik_Ionization_Penalty>
0.00556303

> <r_epik_Ionization_Penalty_Charging>
0

> <r_epik_Ionization_Penalty_Neutral>
0.00556303

> <r_epik_State_Penalty>
0.00401767

> <r_epik_Charging_Adjusted_Penalty>
0.00401767

> <i_epik_Tot_Q>
0

> <i_epik_Tot_abs_Q>
0

> <r_epik_Metal_State_Penalty>
-0

> <b_epik_Metal_Only>
0

> <s_lp_Force_Field>
OPLS_2005

> <r_lp_Energy>
68.8384

> <b_lp_Chiralities_Consistent>
1

> <s_lp_Variant>
AV-unprocessed.smi:148-13

> <Gold.Version>
5.8.1

> <Gold.Id.Protein>
6NUR|6NUR_protein|mol2

> <Gold.PLP.Fitness>
47.9610

> <Gold.PLP.PLP>
-42.1106

> <Gold.PLP.part.hbond>
-2.9679

> <Gold.PLP.part.metal>
0.0000

> <Gold.PLP.part.buried>
-3.4750

> <Gold.PLP.part.nonpolar>
-38.6031

> <Gold.PLP.part.repulsive>
0.6347

> <Gold.PLP.ligand.clash>
0.0114

> <Gold.PLP.ligand.torsion>
1.5457

> <Gold.PLP.Chemscore.Hbond>
2.0000

> <Gold.PLP.Chemscore.CHOScore>
0.8502

> <Gold.PLP.Chemscore.Metal>
0.0000

> <Gold.Chemscore.Hbonds>
donor molecule, donor type, donor heavy atom, donor atom, acceptor molecule, acceptor atom, score
      P1  H 10785 10796       L1    29  0.26
      L1  C     6    37       P1  7948  0.15
      L1  C    23    56       P1 11000  0.29

> <Gold.PLP.Chemscore.Internal.Correction>
0.4027

> <Gold.Rescore>
     Score         DG    S(hbond)    S(metal)    S(lipo)     H(rot)  DE(clash)    DE(int)     intcor
      9.32     -12.30       1.78        0.00      80.07       3.32       0.12       2.86       ----

> <Gold.Chemscore.Fitness>
9.3233

> <Gold.Chemscore.DG>
-12.2971

> <Gold.Chemscore.ZeroCoef>
-5.4800

> <Gold.Chemscore.Hbond>
1.7810

> <Gold.Chemscore.Metal>
0.0000

> <Gold.Chemscore.Lipo>
80.0724

> <Gold.Chemscore.Internal_Hbond>
0.0000

> <Gold.Chemscore.DEClash>
0.1172

> <Gold.Chemscore.DEInternal>
2.8566

> <Gold.Chemscore.Rot>
3.3203

> <Gold.Chemscore.Internal.Correction>
   9.000000E+99

> <Gold.Chemscore.Hbonds>
donor molecule, donor type, donor heavy atom, donor atom, acceptor molecule, acceptor atom, score
      L1  H    21    55       P1 10175  0.05
      P1  H 10785 10796       L1    29  0.03

> <Gold.Chemscore.Hbond.Weighted>
-5.9487

> <Gold.Chemscore.Metal.Weighted>
-0.0000

> <Gold.Chemscore.Lipo.Weighted>
-9.3685

> <Gold.Chemscore.Internal_Hbond.Weighted>
0.0000

> <Gold.Chemscore.DEClash.Weighted>
0.1172

> <Gold.Chemscore.DEInternal.Weighted>
2.8566

> <Gold.Chemscore.Rot.Weighted>
8.5000

> <Gold.Chemscore.Internal.Correction.Weighted>
   9.000000E+99

> <Gold.Protein.RotatedTorsions>
[ 6907 6896 6895 6894 ] final   16.42 input  -60.11 | X-H torsion
[ 7974 7965 7964 7962 ] final   94.86 input  175.53 | X-H torsion
[ 8008 7997 7996 7995 ] final  -75.88 input   59.86 | X-H torsion
[ 10167 10162 10161 10158 ] final -177.52 input  -65.29 | X-H torsion
[ 10718 10713 10712 10709 ] final -114.22 input   66.30 | X-H torsion
[ 10763 10752 10751 10750 ] final  -41.76 input  -60.55 | X-H torsion
[ 11005 11000 10999 10996 ] final  159.28 input  -57.11 | X-H torsion

> <Gold.Protein.ActiveResidues>
 VAL166  LYS551  ARG553  GLY616  TRP617  ASP618  TYR619  PRO620  LYS621  CYS622 
 ASP623  PHE694  ASN695  SER759  ASP760  ASP761  ALA762  ILE779  LEU786  VAL792 
 PHE793  MET794  SER795  GLU796  ALA797  LYS798  CYS799  TRP800  GLU811  SER814 

> <Gold.Protein.RotatedAtoms>
  151.8336  135.0613  160.0439 H   0  0  0  0  0  0  0  0  0  0  0  0  # atno 6907 bound_to 6896
  152.2862  133.5513  159.5537 H   0  0  0  0  0  0  0  0  0  0  0  0  # atno 6908 bound_to 6896
  150.7210  134.0410  159.3808 H   0  0  0  0  0  0  0  0  0  0  0  0  # atno 6909 bound_to 6896
  145.4599  139.2287  143.2993 H   0  0  0  0  0  0  0  0  0  0  0  0  # atno 7974 bound_to 7965
  154.5456  140.0736  156.8583 H   0  0  0  0  0  0  0  0  0  0  0  0  # atno 8008 bound_to 7997
  155.3094  140.3389  155.4226 H   0  0  0  0  0  0  0  0  0  0  0  0  # atno 8009 bound_to 7997
  156.1915  140.1688  156.8069 H   0  0  0  0  0  0  0  0  0  0  0  0  # atno 8010 bound_to 7997
  139.5476  144.2194  152.1017 H   0  0  0  0  0  0  0  0  0  0  0  0  # atno 10167 bound_to 10162
  156.0816  130.6015  150.8745 H   0  0  0  0  0  0  0  0  0  0  0  0  # atno 10718 bound_to 10713
  153.9679  135.6732  153.4746 H   0  0  0  0  0  0  0  0  0  0  0  0  # atno 10763 bound_to 10752
  153.0807  135.4925  154.8493 H   0  0  0  0  0  0  0  0  0  0  0  0  # atno 10764 bound_to 10752
  154.7236  135.3122  154.8968 H   0  0  0  0  0  0  0  0  0  0  0  0  # atno 10765 bound_to 10752
  140.1946  134.8382  157.2951 H   0  0  0  0  0  0  0  0  0  0  0  0  # atno 11005 bound_to 11000
  146.2457  140.5367  142.8915 LP  0  0  0  0  0  0  0  0  0  0  0  0  # atno 17320 bound_to 7965
  144.8009  140.6211  143.6479 LP  0  0  0  0  0  0  0  0  0  0  0  0  # atno 17321 bound_to 7965
  140.1684  144.4960  150.6593 LP  0  0  0  0  0  0  0  0  0  0  0  0  # atno 17342 bound_to 10162
  140.6729  143.2293  151.5580 LP  0  0  0  0  0  0  0  0  0  0  0  0  # atno 17343 bound_to 10162
  157.5934  131.0944  150.9080 LP  0  0  0  0  0  0  0  0  0  0  0  0  # atno 17370 bound_to 10713
  156.9252  130.5329  149.5279 LP  0  0  0  0  0  0  0  0  0  0  0  0  # atno 17371 bound_to 10713
  140.2121  134.4126  155.7607 LP  0  0  0  0  0  0  0  0  0  0  0  0  # atno 17394 bound_to 11000
  141.2227  133.7123  156.8355 LP  0  0  0  0  0  0  0  0  0  0  0  0  # atno 17395 bound_to 11000

$$$$
