AV-unprocessed.smi:3137|AV-procd|sdf|11952|dock4
  -GOLD-   2272017343D 1   1.00000     0.00000
 Structure written by MMmdl.
 40 40  0  0  0  0  0  0  0  0  2 V2000
  145.3928  134.3682  151.0079 C   0  0  0  0  0  0  0  0  0  0  0  0
  144.3808  135.5120  151.1571 C   0  0  0  0  0  0  0  0  0  0  0  0
  145.0394  136.8128  151.1940 N   0  0  0  0  0  0  0  0  0  0  0  0
  145.8961  137.2176  152.1441 C   0  0  0  0  0  0  0  0  0  0  0  0
  146.2132  136.5213  153.1085 O   0  0  0  0  0  0  0  0  0  0  0  0
  146.4786  138.6249  151.9779 C   0  0  0  0  0  0  0  0  0  0  0  0
  147.2522  139.1011  153.2195 C   0  0  0  0  0  0  0  0  0  0  0  0
  148.6801  138.7303  153.1257 N   0  3  0  0  0  0  0  0  0  0  0  0
  149.4911  139.0110  154.3321 C   0  0  2  0  0  0  0  0  0  0  0  0
  148.7605  138.4652  155.5711 C   0  0  0  0  0  0  0  0  0  0  0  0
  149.8121  140.5200  154.4505 C   0  0  0  0  0  0  0  0  0  0  0  0
  150.5468  140.8563  155.6567 N   0  0  0  0  0  0  0  0  0  0  0  0
  150.3437  141.9122  156.5199 C   0  0  0  0  0  0  0  0  0  0  0  0
  151.2886  141.8268  157.5027 C   0  0  0  0  0  0  0  0  0  0  0  0
  151.4980  142.7302  158.6837 C   0  0  0  0  0  0  0  0  0  0  0  0
  152.0375  140.6706  157.1426 C   0  0  0  0  0  0  0  0  0  0  0  0
  151.5952  140.0956  156.0360 N   0  0  0  0  0  0  0  0  0  0  0  0
  144.8879  133.4022  151.0185 H   0  0  0  0  0  0  0  0  0  0  0  0
  146.1172  134.3730  151.8228 H   0  0  0  0  0  0  0  0  0  0  0  0
  145.9429  134.4425  150.0695 H   0  0  0  0  0  0  0  0  0  0  0  0
  143.6491  135.4804  150.3481 H   0  0  0  0  0  0  0  0  0  0  0  0
  143.8222  135.3880  152.0849 H   0  0  0  0  0  0  0  0  0  0  0  0
  144.8322  137.4479  150.4366 H   0  0  0  0  0  0  0  0  0  0  0  0
  147.1407  138.6345  151.1104 H   0  0  0  0  0  0  0  0  0  0  0  0
  145.6618  139.3133  151.7581 H   0  0  0  0  0  0  0  0  0  0  0  0
  147.1729  140.1846  153.3203 H   0  0  0  0  0  0  0  0  0  0  0  0
  146.8153  138.6593  154.1152 H   0  0  0  0  0  0  0  0  0  0  0  0
  148.7557  137.7480  152.9033 H   0  0  0  0  0  0  0  0  0  0  0  0
  150.4265  138.4568  154.2395 H   0  0  0  0  0  0  0  0  0  0  0  0
  149.3696  138.5564  156.4706 H   0  0  0  0  0  0  0  0  0  0  0  0
  148.5235  137.4075  155.4522 H   0  0  0  0  0  0  0  0  0  0  0  0
  147.8254  138.9981  155.7471 H   0  0  0  0  0  0  0  0  0  0  0  0
  150.4019  140.8626  153.6004 H   0  0  0  0  0  0  0  0  0  0  0  0
  148.8884  141.1002  154.4417 H   0  0  0  0  0  0  0  0  0  0  0  0
  149.5511  142.6298  156.3666 H   0  0  0  0  0  0  0  0  0  0  0  0
  152.5351  142.7229  159.0198 H   0  0  0  0  0  0  0  0  0  0  0  0
  150.8825  142.4304  159.5320 H   0  0  0  0  0  0  0  0  0  0  0  0
  151.2442  143.7646  158.4513 H   0  0  0  0  0  0  0  0  0  0  0  0
  152.8870  140.2361  157.6491 H   0  0  0  0  0  0  0  0  0  0  0  0
  149.0763  139.2614  152.3634 H   0  0  0  0  0  0  0  0  0  0  0  0
  1  2  1  0  0  0  0
  1 18  1  0  0  0  0
  1 19  1  0  0  0  0
  1 20  1  0  0  0  0
  2  3  1  0  0  0  0
  2 21  1  0  0  0  0
  2 22  1  0  0  0  0
  3  4  1  0  0  0  0
  3 23  1  0  0  0  0
  4  5  2  0  0  0  0
  4  6  1  0  0  0  0
  6  7  1  0  0  0  0
  6 24  1  0  0  0  0
  6 25  1  0  0  0  0
  7  8  1  0  0  0  0
  7 26  1  0  0  0  0
  7 27  1  0  0  0  0
  8  9  1  0  0  0  0
  8 28  1  0  0  0  0
  8 40  1  0  0  0  0
  9 10  1  0  0  0  0
  9 11  1  0  0  0  0
  9 29  1  0  0  0  0
 10 30  1  0  0  0  0
 10 31  1  0  0  0  0
 10 32  1  0  0  0  0
 11 12  1  0  0  0  0
 11 33  1  0  0  0  0
 11 34  1  0  0  0  0
 12 17  1  0  0  0  0
 12 13  1  0  0  0  0
 13 14  2  0  0  0  0
 13 35  1  0  0  0  0
 14 15  1  0  0  0  0
 14 16  1  0  0  0  0
 15 36  1  0  0  0  0
 15 37  1  0  0  0  0
 15 38  1  0  0  0  0
 16 17  2  0  0  0  0
 16 39  1  0  0  0  0
M  CHG  1   8   1
M  END
> <s_m_source_file>
AV-unprocessed.smi

> <i_m_source_file_index>
3137

> <i_lp_mmshare_version>
43012

> <i_f3d_flags>
0

> <s_epik_input>
W0NIM11bQ0gyXVtOSF1DKD1PKVtDSDJdW0NIMl1bTkhdW0NASF0oW0NIM10pW0NIMl1uMVtjSF1jKFtDSDNdKVtjSF1uMQ==

> <s_epik_cmdline>
J2VwaWtfcHl0aG9uJywgJy1waCcsICc3LjAnLCAnLXRuJywgJzgnLCAnLW1hJywgJzIwMCcsICctbWV0YWxfYmluZGluZycsICctaW1hZScsICc8aW5maWxlLm1hZT4nLCAnLW9tYWUnLCAnPG91dGZpbGUubWFlPic=

> <r_lp_tautomer_probability>
1

> <r_epik_Ionization_Penalty>
0.00598586

> <r_epik_Ionization_Penalty_Charging>
0.00597743

> <r_epik_Ionization_Penalty_Neutral>
8.43172e-06

> <r_epik_State_Penalty>
0.00439883

> <r_epik_Charging_Adjusted_Penalty>
0.0103763

> <i_epik_Tot_Q>
1

> <i_epik_Tot_abs_Q>
1

> <r_epik_Metal_State_Penalty>
-0

> <b_epik_Metal_Only>
0

> <s_lp_Force_Field>
OPLS_2005

> <r_lp_Energy>
5.54244

> <b_lp_Chiralities_Consistent>
1

> <s_lp_Variant>
AV-unprocessed.smi:3137-1

> <Gold.Version>
5.8.1

> <Gold.Id.Protein>
6NUR|6NUR_protein|mol2

> <Gold.PLP.Fitness>
46.1403

> <Gold.PLP.PLP>
-32.3677

> <Gold.PLP.part.hbond>
-2.9000

> <Gold.PLP.part.metal>
0.0000

> <Gold.PLP.part.buried>
-3.9773

> <Gold.PLP.part.nonpolar>
-27.4220

> <Gold.PLP.part.repulsive>
1.0913

> <Gold.PLP.ligand.clash>
0.0000

> <Gold.PLP.ligand.torsion>
0.6004

> <Gold.PLP.Chemscore.Hbond>
3.9280

> <Gold.PLP.Chemscore.CHOScore>
1.0000

> <Gold.PLP.Chemscore.Metal>
0.0000

> <Gold.Chemscore.Hbonds>
donor molecule, donor type, donor heavy atom, donor atom, acceptor molecule, acceptor atom, score
      L1  H     3    23       P1 10171  0.99
      L1  H     8    28       P1  7948  2.00
      L1  H     8    40       P1  7957  0.98
      L1  C    13    35       P1  8028  1.00

> <Gold.PLP.Chemscore.Internal.Correction>
0.1893

> <Gold.Rescore>
     Score         DG    S(hbond)    S(metal)    S(lipo)     H(rot)  DE(clash)    DE(int)     intcor
     15.09     -17.35       2.93        0.00      67.99       2.30       0.38       1.88       ----

> <Gold.Chemscore.Fitness>
15.0879

> <Gold.Chemscore.DG>
-17.3525

> <Gold.Chemscore.ZeroCoef>
-5.4800

> <Gold.Chemscore.Hbond>
2.9329

> <Gold.Chemscore.Metal>
0.0000

> <Gold.Chemscore.Lipo>
67.9940

> <Gold.Chemscore.Internal_Hbond>
0.0000

> <Gold.Chemscore.DEClash>
0.3829

> <Gold.Chemscore.DEInternal>
1.8817

> <Gold.Chemscore.Rot>
2.2963

> <Gold.Chemscore.Internal.Correction>
   9.000000E+99

> <Gold.Chemscore.Hbonds>
donor molecule, donor type, donor heavy atom, donor atom, acceptor molecule, acceptor atom, score
      L1  H     3    23       P1 10171  0.93
      L1  H     8    28       P1  7948  0.99
      L1  H     8    40       P1  7957  0.91

> <Gold.Chemscore.Hbond.Weighted>
-9.7958

> <Gold.Chemscore.Metal.Weighted>
-0.0000

> <Gold.Chemscore.Lipo.Weighted>
-7.9553

> <Gold.Chemscore.Internal_Hbond.Weighted>
0.0000

> <Gold.Chemscore.DEClash.Weighted>
0.3829

> <Gold.Chemscore.DEInternal.Weighted>
1.8817

> <Gold.Chemscore.Rot.Weighted>
5.8786

> <Gold.Chemscore.Internal.Correction.Weighted>
   9.000000E+99

> <Gold.Protein.RotatedTorsions>
[ 6907 6896 6895 6894 ] final  177.43 input  -60.11 | X-H torsion
[ 7974 7965 7964 7962 ] final   58.23 input  175.53 | X-H torsion
[ 8008 7997 7996 7995 ] final  165.92 input   59.86 | X-H torsion
[ 10167 10162 10161 10158 ] final -136.65 input  -65.29 | X-H torsion
[ 10718 10713 10712 10709 ] final  174.57 input   66.30 | X-H torsion
[ 10763 10752 10751 10750 ] final -148.88 input  -60.55 | X-H torsion
[ 11005 11000 10999 10996 ] final   93.87 input  -57.11 | X-H torsion

> <Gold.Protein.ActiveResidues>
 VAL166  LYS551  ARG553  GLY616  TRP617  ASP618  TYR619  PRO620  LYS621  CYS622 
 ASP623  PHE694  ASN695  SER759  ASP760  ASP761  ALA762  ILE779  LEU786  VAL792 
 PHE793  MET794  SER795  GLU796  ALA797  LYS798  CYS799  TRP800  GLU811  SER814 

> <Gold.Protein.RotatedAtoms>
  151.7041  133.3311  159.3273 H   0  0  0  0  0  0  0  0  0  0  0  0  # atno 6907 bound_to 6896
  150.7723  134.6589  159.6338 H   0  0  0  0  0  0  0  0  0  0  0  0  # atno 6908 bound_to 6896
  152.3751  134.6678  160.0214 H   0  0  0  0  0  0  0  0  0  0  0  0  # atno 6909 bound_to 6896
  145.9204  139.3725  143.0482 H   0  0  0  0  0  0  0  0  0  0  0  0  # atno 7974 bound_to 7965
  156.1761  140.1657  156.8360 H   0  0  0  0  0  0  0  0  0  0  0  0  # atno 8008 bound_to 7997
  154.5309  140.0757  156.8376 H   0  0  0  0  0  0  0  0  0  0  0  0  # atno 8009 bound_to 7997
  155.3410  140.3384  155.4241 H   0  0  0  0  0  0  0  0  0  0  0  0  # atno 8010 bound_to 7997
  139.8657  143.7021  152.2645 H   0  0  0  0  0  0  0  0  0  0  0  0  # atno 10167 bound_to 10162
  156.9477  131.0021  151.2955 H   0  0  0  0  0  0  0  0  0  0  0  0  # atno 10718 bound_to 10713
  154.8208  135.3323  154.7042 H   0  0  0  0  0  0  0  0  0  0  0  0  # atno 10763 bound_to 10752
  153.7675  135.6928  153.4917 H   0  0  0  0  0  0  0  0  0  0  0  0  # atno 10764 bound_to 10752
  153.2067  135.4496  155.0280 H   0  0  0  0  0  0  0  0  0  0  0  0  # atno 10765 bound_to 10752
  139.8805  134.8814  156.3781 H   0  0  0  0  0  0  0  0  0  0  0  0  # atno 11005 bound_to 11000
  145.8557  140.9504  143.0726 LP  0  0  0  0  0  0  0  0  0  0  0  0  # atno 17320 bound_to 7965
  144.6752  140.0465  143.7480 LP  0  0  0  0  0  0  0  0  0  0  0  0  # atno 17321 bound_to 7965
  139.7331  144.7577  151.0770 LP  0  0  0  0  0  0  0  0  0  0  0  0  # atno 17342 bound_to 10162
  140.7768  143.5063  150.9708 LP  0  0  0  0  0  0  0  0  0  0  0  0  # atno 17343 bound_to 10162
  157.5743  130.8332  149.8434 LP  0  0  0  0  0  0  0  0  0  0  0  0  # atno 17370 bound_to 10713
  156.0376  130.3747  150.1519 LP  0  0  0  0  0  0  0  0  0  0  0  0  # atno 17371 bound_to 10713
  140.9417  133.7510  156.0156 LP  0  0  0  0  0  0  0  0  0  0  0  0  # atno 17394 bound_to 11000
  140.8211  134.3288  157.5381 LP  0  0  0  0  0  0  0  0  0  0  0  0  # atno 17395 bound_to 11000

$$$$
