AV-unprocessed.smi:3045|AV-procd|sdf|11611|dock5
  -GOLD-   2272016593D 1   1.00000     0.00000
 Structure written by MMmdl.
 36 37  0  0  0  0  0  0  0  0  2 V2000
  146.1817  143.5042  153.6317 C   0  0  0  0  0  0  0  0  0  0  0  0
  146.6995  142.3935  154.4190 N   0  0  0  0  0  0  0  0  0  0  0  0
  147.4613  141.3240  153.7979 C   0  0  0  0  0  0  0  0  0  0  0  0
  147.9749  140.4498  154.9630 C   0  0  1  0  0  0  0  0  0  0  0  0
  149.4977  140.5549  155.1417 C   0  0  0  0  0  0  0  0  0  0  0  0
  150.2471  140.4329  154.1716 O   0  0  0  0  0  0  0  0  0  0  0  0
  149.9422  140.7781  156.3882 N   0  0  0  0  0  0  0  0  0  0  0  0
  151.3444  140.9209  156.7609 C   0  0  0  0  0  0  0  0  0  0  0  0
  151.5132  141.1592  158.2712 C   0  0  0  0  0  0  0  0  0  0  0  0
  151.3754  142.6241  158.6369 C   0  0  0  0  0  0  0  0  0  0  0  0
  152.3984  143.2807  159.3565 C   0  0  0  0  0  0  0  0  0  0  0  0
  152.2500  144.6453  159.6811 C   0  0  0  0  0  0  0  0  0  0  0  0
  151.0802  145.3224  159.2798 C   0  0  0  0  0  0  0  0  0  0  0  0
  150.1223  144.6610  158.5936 N   0  3  0  0  0  0  0  0  0  0  0  0
  150.2271  143.3551  158.2625 C   0  0  0  0  0  0  0  0  0  0  0  0
  147.2189  140.9547  156.2097 C   0  0  0  0  0  0  0  0  0  0  0  0
  146.5176  142.2147  155.7301 C   0  0  0  0  0  0  0  0  0  0  0  0
  145.8824  142.9530  156.4812 O   0  0  0  0  0  0  0  0  0  0  0  0
  145.0936  143.5428  153.6921 H   0  0  0  0  0  0  0  0  0  0  0  0
  146.4589  143.4049  152.5819 H   0  0  0  0  0  0  0  0  0  0  0  0
  146.5805  144.4504  153.9992 H   0  0  0  0  0  0  0  0  0  0  0  0
  146.8072  140.7488  153.1412 H   0  0  0  0  0  0  0  0  0  0  0  0
  148.2652  141.7347  153.1846 H   0  0  0  0  0  0  0  0  0  0  0  0
  147.7115  139.4071  154.7757 H   0  0  0  0  0  0  0  0  0  0  0  0
  149.2595  140.8665  157.1275 H   0  0  0  0  0  0  0  0  0  0  0  0
  151.8993  140.0350  156.4469 H   0  0  0  0  0  0  0  0  0  0  0  0
  151.7596  141.7611  156.2037 H   0  0  0  0  0  0  0  0  0  0  0  0
  150.7765  140.5770  158.8263 H   0  0  0  0  0  0  0  0  0  0  0  0
  152.4920  140.8124  158.6051 H   0  0  0  0  0  0  0  0  0  0  0  0
  153.2889  142.7455  159.6539 H   0  0  0  0  0  0  0  0  0  0  0  0
  153.0228  145.1645  160.2292 H   0  0  0  0  0  0  0  0  0  0  0  0
  150.8836  146.3648  159.4847 H   0  0  0  0  0  0  0  0  0  0  0  0
  149.3958  142.9395  157.7116 H   0  0  0  0  0  0  0  0  0  0  0  0
  146.4753  140.2291  156.5403 H   0  0  0  0  0  0  0  0  0  0  0  0
  147.8684  141.1801  157.0573 H   0  0  0  0  0  0  0  0  0  0  0  0
  149.2833  145.1698  158.3130 H   0  0  0  0  0  0  0  0  0  0  0  0
  1  2  1  0  0  0  0
  1 19  1  0  0  0  0
  1 20  1  0  0  0  0
  1 21  1  0  0  0  0
  2 17  1  0  0  0  0
  2  3  1  0  0  0  0
  3  4  1  0  0  0  0
  3 22  1  0  0  0  0
  3 23  1  0  0  0  0
  4  5  1  0  0  0  0
  4 16  1  0  0  0  0
  4 24  1  0  0  0  0
  5  6  2  0  0  0  0
  5  7  1  0  0  0  0
  7  8  1  0  0  0  0
  7 25  1  0  0  0  0
  8  9  1  0  0  0  0
  8 26  1  0  0  0  0
  8 27  1  0  0  0  0
  9 10  1  0  0  0  0
  9 28  1  0  0  0  0
  9 29  1  0  0  0  0
 10 15  1  0  0  0  0
 10 11  2  0  0  0  0
 11 12  1  0  0  0  0
 11 30  1  0  0  0  0
 12 13  2  0  0  0  0
 12 31  1  0  0  0  0
 13 14  1  0  0  0  0
 13 32  1  0  0  0  0
 14 15  2  0  0  0  0
 14 36  1  0  0  0  0
 15 33  1  0  0  0  0
 16 17  1  0  0  0  0
 16 34  1  0  0  0  0
 16 35  1  0  0  0  0
 17 18  2  0  0  0  0
M  CHG  1  14   1
M  END
> <s_m_source_file>
AV-unprocessed.smi

> <i_m_source_file_index>
3045

> <i_lp_mmshare_version>
43012

> <i_f3d_flags>
0

> <s_epik_input>
W0NIM11OMVtDSDJdW0NASF0oW0NIMl1DMT1PKUMoPU8pW05IXVtDSDJdW0NIMl1jMltjSF1bY0hdW2NIXW5bY0hdMg==

> <s_epik_cmdline>
J2VwaWtfcHl0aG9uJywgJy1waCcsICc3LjAnLCAnLXRuJywgJzgnLCAnLW1hJywgJzIwMCcsICctbWV0YWxfYmluZGluZycsICctaW1hZScsICc8aW5maWxlLm1hZT4nLCAnLW9tYWUnLCAnPG91dGZpbGUubWFlPic=

> <r_epik_Ionization_Penalty>
2.26523

> <r_epik_Ionization_Penalty_Charging>
2.26523

> <r_epik_Ionization_Penalty_Neutral>
2.92809e-08

> <r_epik_State_Penalty>
2.41338

> <r_epik_Charging_Adjusted_Penalty>
4.67861

> <i_epik_Tot_Q>
1

> <i_epik_Tot_abs_Q>
1

> <r_epik_Metal_State_Penalty>
2.42626

> <b_epik_Metal_Only>
0

> <s_lp_Force_Field>
OPLS_2005

> <r_lp_Energy>
17.4677

> <b_lp_Chiralities_Consistent>
1

> <s_lp_Variant>
AV-unprocessed.smi:3045-3

> <Gold.Version>
5.8.1

> <Gold.Id.Protein>
6NUR|6NUR_protein|mol2

> <Gold.PLP.Fitness>
43.5628

> <Gold.PLP.PLP>
-36.3860

> <Gold.PLP.part.hbond>
-2.3034

> <Gold.PLP.part.metal>
0.0000

> <Gold.PLP.part.buried>
-5.4917

> <Gold.PLP.part.nonpolar>
-29.3970

> <Gold.PLP.part.repulsive>
0.8041

> <Gold.PLP.ligand.clash>
0.5525

> <Gold.PLP.ligand.torsion>
0.4454

> <Gold.PLP.Chemscore.Hbond>
2.8640

> <Gold.PLP.Chemscore.CHOScore>
0.0000

> <Gold.PLP.Chemscore.Metal>
0.0000

> <Gold.Chemscore.Hbonds>
donor molecule, donor type, donor heavy atom, donor atom, acceptor molecule, acceptor atom, score
      L1  H    14    36       P1  8029  2.00
      P1  H  7989  7998       L1     6  0.88

> <Gold.PLP.Chemscore.Internal.Correction>
0.0280

> <Gold.Rescore>
     Score         DG    S(hbond)    S(metal)    S(lipo)     H(rot)  DE(clash)    DE(int)     intcor
     16.54     -16.85       1.83        0.00      82.30       1.71       0.00       0.31       ----

> <Gold.Chemscore.Fitness>
16.5357

> <Gold.Chemscore.DG>
-16.8504

> <Gold.Chemscore.ZeroCoef>
-5.4800

> <Gold.Chemscore.Hbond>
1.8324

> <Gold.Chemscore.Metal>
0.0000

> <Gold.Chemscore.Lipo>
82.2982

> <Gold.Chemscore.Internal_Hbond>
0.0000

> <Gold.Chemscore.DEClash>
0.0047

> <Gold.Chemscore.DEInternal>
0.3100

> <Gold.Chemscore.Rot>
1.7105

> <Gold.Chemscore.Internal.Correction>
   9.000000E+99

> <Gold.Chemscore.Hbonds>
donor molecule, donor type, donor heavy atom, donor atom, acceptor molecule, acceptor atom, score
      L1  H    14    36       P1  8029  0.65
      P1  H  7989  7998       L1     6  0.85

> <Gold.Chemscore.Hbond.Weighted>
-6.1204

> <Gold.Chemscore.Metal.Weighted>
-0.0000

> <Gold.Chemscore.Lipo.Weighted>
-9.6289

> <Gold.Chemscore.Internal_Hbond.Weighted>
0.0000

> <Gold.Chemscore.DEClash.Weighted>
0.0047

> <Gold.Chemscore.DEInternal.Weighted>
0.3100

> <Gold.Chemscore.Rot.Weighted>
4.3789

> <Gold.Chemscore.Internal.Correction.Weighted>
   9.000000E+99

> <Gold.Protein.RotatedTorsions>
[ 6907 6896 6895 6894 ] final  160.80 input  -60.11 | X-H torsion
[ 7974 7965 7964 7962 ] final -178.07 input  175.53 | X-H torsion
[ 8008 7997 7996 7995 ] final  -16.95 input   59.86 | X-H torsion
[ 10167 10162 10161 10158 ] final -153.47 input  -65.29 | X-H torsion
[ 10718 10713 10712 10709 ] final  -79.87 input   66.30 | X-H torsion
[ 10763 10752 10751 10750 ] final  -32.18 input  -60.55 | X-H torsion
[ 11005 11000 10999 10996 ] final  -59.15 input  -57.11 | X-H torsion

> <Gold.Protein.ActiveResidues>
 VAL166  LYS551  ARG553  GLY616  TRP617  ASP618  TYR619  PRO620  LYS621  CYS622 
 ASP623  PHE694  ASN695  SER759  ASP760  ASP761  ALA762  ILE779  LEU786  VAL792 
 PHE793  MET794  SER795  GLU796  ALA797  LYS798  CYS799  TRP800  GLU811  SER814 

> <Gold.Protein.RotatedAtoms>
  151.9651  133.3708  159.4049 H   0  0  0  0  0  0  0  0  0  0  0  0  # atno 6907 bound_to 6896
  150.6958  134.4199  159.5209 H   0  0  0  0  0  0  0  0  0  0  0  0  # atno 6908 bound_to 6896
  152.1894  134.8685  160.0570 H   0  0  0  0  0  0  0  0  0  0  0  0  # atno 6909 bound_to 6896
  144.7129  140.0923  143.6420 H   0  0  0  0  0  0  0  0  0  0  0  0  # atno 7974 bound_to 7965
  154.5014  140.2155  155.9339 H   0  0  0  0  0  0  0  0  0  0  0  0  # atno 8008 bound_to 7997
  156.1439  140.3174  155.8505 H   0  0  0  0  0  0  0  0  0  0  0  0  # atno 8009 bound_to 7997
  155.4069  140.0488  157.3024 H   0  0  0  0  0  0  0  0  0  0  0  0  # atno 8010 bound_to 7997
  139.7094  143.9133  152.2462 H   0  0  0  0  0  0  0  0  0  0  0  0  # atno 10167 bound_to 10162
  156.0083  130.4558  150.3713 H   0  0  0  0  0  0  0  0  0  0  0  0  # atno 10718 bound_to 10713
  153.8096  135.6883  153.4843 H   0  0  0  0  0  0  0  0  0  0  0  0  # atno 10763 bound_to 10752
  153.1637  135.4570  154.9805 H   0  0  0  0  0  0  0  0  0  0  0  0  # atno 10764 bound_to 10752
  154.7973  135.3324  154.7578 H   0  0  0  0  0  0  0  0  0  0  0  0  # atno 10765 bound_to 10752
  141.1236  133.6615  156.5027 H   0  0  0  0  0  0  0  0  0  0  0  0  # atno 11005 bound_to 11000
  145.9609  139.2800  143.1156 LP  0  0  0  0  0  0  0  0  0  0  0  0  # atno 17320 bound_to 7965
  145.9221  140.9108  143.0399 LP  0  0  0  0  0  0  0  0  0  0  0  0  # atno 17321 bound_to 7965
  139.8998  144.6918  150.8678 LP  0  0  0  0  0  0  0  0  0  0  0  0  # atno 17342 bound_to 10162
  140.7729  143.3522  151.1991 LP  0  0  0  0  0  0  0  0  0  0  0  0  # atno 17343 bound_to 10162
  157.1798  131.0389  151.2754 LP  0  0  0  0  0  0  0  0  0  0  0  0  # atno 17370 bound_to 10713
  157.4156  130.7409  149.6873 LP  0  0  0  0  0  0  0  0  0  0  0  0  # atno 17371 bound_to 10713
  140.4432  134.6996  157.5002 LP  0  0  0  0  0  0  0  0  0  0  0  0  # atno 17394 bound_to 11000
  140.0215  134.6540  155.9233 LP  0  0  0  0  0  0  0  0  0  0  0  0  # atno 17395 bound_to 11000

$$$$
