AV-unprocessed.smi:1783|AV-procd|sdf|7192|dock2
  -GOLD-   22720 8433D 1   1.00000     0.00000
 Structure written by MMmdl.
 30 31  0  0  0  0  0  0  0  0  1 V2000
  149.6575  142.4464  158.9034 O   0  0  0  0  0  0  0  0  0  0  0  0
  150.8159  142.5236  158.4944 C   0  0  0  0  0  0  0  0  0  0  0  0
  151.2670  142.0097  157.3329 N   0  0  0  0  0  0  0  0  0  0  0  0
  150.5732  141.3078  156.3320 C   0  0  0  0  0  0  0  0  0  0  0  0
  149.2949  141.5591  155.9448 C   0  0  0  0  0  0  0  0  0  0  0  0
  148.6400  140.7919  154.8986 C   0  0  0  0  0  0  0  0  0  0  0  0
  147.2274  141.1191  154.4394 C   0  0  0  0  0  0  0  0  0  0  0  0
  146.7901  142.2554  154.9839 F   0  0  0  0  0  0  0  0  0  0  0  0
  147.2024  141.2570  153.1146 F   0  0  0  0  0  0  0  0  0  0  0  0
  146.3807  140.1439  154.7702 F   0  0  0  0  0  0  0  0  0  0  0  0
  149.3761  139.8332  154.3071 C   0  0  0  0  0  0  0  0  0  0  0  0
  150.6903  139.5683  154.6981 N   0  0  0  0  0  0  0  0  0  0  0  0
  151.3445  140.2422  155.6704 C   0  0  0  0  0  0  0  0  0  0  0  0
  152.5066  139.9519  155.9525 O   0  0  0  0  0  0  0  0  0  0  0  0
  151.8696  143.2462  159.3423 C   0  0  2  0  0  0  0  0  0  0  0  0
  153.0835  142.3745  159.7170 C   0  0  0  0  0  0  0  0  0  0  0  0
  152.9496  142.1923  161.2167 C   0  0  0  0  0  0  0  0  0  0  0  0
  152.2115  143.4594  161.6224 C   0  0  0  0  0  0  0  0  0  0  0  0
  151.2652  143.6208  160.5783 O   0  0  0  0  0  0  0  0  0  0  0  0
  151.1730  138.8267  154.2117 H   0  0  0  0  0  0  0  0  0  0  0  0
  152.2572  142.1100  157.1611 H   0  0  0  0  0  0  0  0  0  0  0  0
  148.7202  142.3499  156.3973 H   0  0  0  0  0  0  0  0  0  0  0  0
  149.0257  139.2073  153.4996 H   0  0  0  0  0  0  0  0  0  0  0  0
  152.2134  144.1474  158.8316 H   0  0  0  0  0  0  0  0  0  0  0  0
  153.1282  141.4185  159.1932 H   0  0  0  0  0  0  0  0  0  0  0  0
  154.0044  142.9120  159.4876 H   0  0  0  0  0  0  0  0  0  0  0  0
  152.3356  141.3178  161.4350 H   0  0  0  0  0  0  0  0  0  0  0  0
  153.9084  142.0744  161.7221 H   0  0  0  0  0  0  0  0  0  0  0  0
  151.7271  143.3750  162.5952 H   0  0  0  0  0  0  0  0  0  0  0  0
  152.8866  144.3164  161.6427 H   0  0  0  0  0  0  0  0  0  0  0  0
  1  2  2  0  0  0  0
  2  3  1  0  0  0  0
  2 15  1  0  0  0  0
  3  4  1  0  0  0  0
  3 21  1  0  0  0  0
  4 13  1  0  0  0  0
  4  5  2  0  0  0  0
  5  6  1  0  0  0  0
  5 22  1  0  0  0  0
  6  7  1  0  0  0  0
  6 11  2  0  0  0  0
  7  8  1  0  0  0  0
  7  9  1  0  0  0  0
  7 10  1  0  0  0  0
 11 12  1  0  0  0  0
 11 23  1  0  0  0  0
 12 20  1  0  0  0  0
 12 13  1  0  0  0  0
 13 14  2  0  0  0  0
 15 19  1  0  0  0  0
 15 16  1  0  0  0  0
 15 24  1  0  0  0  0
 16 17  1  0  0  0  0
 16 25  1  0  0  0  0
 16 26  1  0  0  0  0
 17 18  1  0  0  0  0
 17 27  1  0  0  0  0
 17 28  1  0  0  0  0
 18 19  1  0  0  0  0
 18 29  1  0  0  0  0
 18 30  1  0  0  0  0
M  END
> <s_m_source_file>
AV-unprocessed.smi

> <i_m_source_file_index>
1783

> <i_lp_mmshare_version>
43012

> <i_f3d_flags>
0

> <s_epik_input>
TzFbQ0gyXVtDSDJdW0NIMl1bQ0BIXTFDKD1PKVtOSF1jMltjSF1jKEMoRikoRilGKVtjSF1bbkhdYzI9Tw==

> <s_epik_cmdline>
J2VwaWtfcHl0aG9uJywgJy1waCcsICc3LjAnLCAnLXRuJywgJzgnLCAnLW1hJywgJzIwMCcsICctbWV0YWxfYmluZGluZycsICctaW1hZScsICc8aW5maWxlLm1hZT4nLCAnLW9tYWUnLCAnPG91dGZpbGUubWFlPic=

> <r_lp_tautomer_probability>
0.999

> <r_epik_Ionization_Penalty>
0.00885957

> <r_epik_Ionization_Penalty_Charging>
0.00885947

> <r_epik_Ionization_Penalty_Neutral>
9.33956e-08

> <r_epik_State_Penalty>
0.00669851

> <r_epik_Charging_Adjusted_Penalty>
0.015558

> <i_epik_Tot_Q>
0

> <i_epik_Tot_abs_Q>
0

> <r_epik_Metal_State_Penalty>
0.320804

> <b_epik_Metal_Only>
0

> <s_lp_Force_Field>
OPLS_2005

> <r_lp_Energy>
32.169

> <b_lp_Chiralities_Consistent>
1

> <s_lp_Variant>
AV-unprocessed.smi:1783-1

> <Gold.Version>
5.8.1

> <Gold.Id.Protein>
6NUR|6NUR_protein|mol2

> <Gold.PLP.Fitness>
42.8251

> <Gold.PLP.PLP>
-39.1556

> <Gold.PLP.part.hbond>
-2.3742

> <Gold.PLP.part.metal>
0.0000

> <Gold.PLP.part.buried>
-3.6752

> <Gold.PLP.part.nonpolar>
-32.6155

> <Gold.PLP.part.repulsive>
0.7783

> <Gold.PLP.ligand.clash>
0.0000

> <Gold.PLP.ligand.torsion>
0.5599

> <Gold.PLP.Chemscore.Hbond>
1.0000

> <Gold.PLP.Chemscore.CHOScore>
0.5838

> <Gold.PLP.Chemscore.Metal>
0.0000

> <Gold.Chemscore.Hbonds>
donor molecule, donor type, donor heavy atom, donor atom, acceptor molecule, acceptor atom, score
      P1  H  7997  8008       L1    14  1.00
      L1  C    11    23       P1  7957  0.68

> <Gold.PLP.Chemscore.Internal.Correction>
0.0380

> <Gold.Rescore>
     Score         DG    S(hbond)    S(metal)    S(lipo)     H(rot)  DE(clash)    DE(int)     intcor
     15.12     -15.42       1.00        0.00      78.34       1.00       0.02       0.28       ----

> <Gold.Chemscore.Fitness>
15.1184

> <Gold.Chemscore.DG>
-15.4242

> <Gold.Chemscore.ZeroCoef>
-5.4800

> <Gold.Chemscore.Hbond>
0.9995

> <Gold.Chemscore.Metal>
0.0000

> <Gold.Chemscore.Lipo>
78.3392

> <Gold.Chemscore.Internal_Hbond>
0.0000

> <Gold.Chemscore.DEClash>
0.0237

> <Gold.Chemscore.DEInternal>
0.2821

> <Gold.Chemscore.Rot>
1.0000

> <Gold.Chemscore.Internal.Correction>
   9.000000E+99

> <Gold.Chemscore.Hbonds>
donor molecule, donor type, donor heavy atom, donor atom, acceptor molecule, acceptor atom, score
      P1  H  7997  8008       L1    14  0.94

> <Gold.Chemscore.Hbond.Weighted>
-3.3385

> <Gold.Chemscore.Metal.Weighted>
-0.0000

> <Gold.Chemscore.Lipo.Weighted>
-9.1657

> <Gold.Chemscore.Internal_Hbond.Weighted>
0.0000

> <Gold.Chemscore.DEClash.Weighted>
0.0237

> <Gold.Chemscore.DEInternal.Weighted>
0.2821

> <Gold.Chemscore.Rot.Weighted>
2.5600

> <Gold.Chemscore.Internal.Correction.Weighted>
   9.000000E+99

> <Gold.Protein.RotatedTorsions>
[ 6907 6896 6895 6894 ] final  168.65 input  -60.11 | X-H torsion
[ 7974 7965 7964 7962 ] final -132.38 input  175.53 | X-H torsion
[ 8008 7997 7996 7995 ] final  -18.49 input   59.86 | X-H torsion
[ 10167 10162 10161 10158 ] final -136.36 input  -65.29 | X-H torsion
[ 10718 10713 10712 10709 ] final  -63.63 input   66.30 | X-H torsion
[ 10763 10752 10751 10750 ] final  -90.35 input  -60.55 | X-H torsion
[ 11005 11000 10999 10996 ] final   50.63 input  -57.11 | X-H torsion

> <Gold.Protein.ActiveResidues>
 VAL166  LYS551  ARG553  GLY616  TRP617  ASP618  TYR619  PRO620  LYS621  CYS622 
 ASP623  PHE694  ASN695  SER759  ASP760  ASP761  ALA762  ILE779  LEU786  VAL792 
 PHE793  MET794  SER795  GLU796  ALA797  LYS798  CYS799  TRP800  GLU811  SER814 

> <Gold.Protein.RotatedAtoms>
  151.8443  133.3429  159.3652 H   0  0  0  0  0  0  0  0  0  0  0  0  # atno 6907 bound_to 6896
  150.7225  134.5361  159.5733 H   0  0  0  0  0  0  0  0  0  0  0  0  # atno 6908 bound_to 6896
  152.2841  134.7796  160.0442 H   0  0  0  0  0  0  0  0  0  0  0  0  # atno 6909 bound_to 6896
  144.9291  140.7106  143.4917 H   0  0  0  0  0  0  0  0  0  0  0  0  # atno 7974 bound_to 7965
  154.4902  140.2114  155.9565 H   0  0  0  0  0  0  0  0  0  0  0  0  # atno 8008 bound_to 7997
  156.1294  140.3199  155.8295 H   0  0  0  0  0  0  0  0  0  0  0  0  # atno 8009 bound_to 7997
  155.4323  140.0504  157.3008 H   0  0  0  0  0  0  0  0  0  0  0  0  # atno 8010 bound_to 7997
  139.8686  143.6986  152.2642 H   0  0  0  0  0  0  0  0  0  0  0  0  # atno 10167 bound_to 10162
  156.0779  130.4223  150.1305 H   0  0  0  0  0  0  0  0  0  0  0  0  # atno 10718 bound_to 10713
  154.6648  135.5308  153.8063 H   0  0  0  0  0  0  0  0  0  0  0  0  # atno 10763 bound_to 10752
  153.0464  135.6514  154.0816 H   0  0  0  0  0  0  0  0  0  0  0  0  # atno 10764 bound_to 10752
  154.0721  135.2953  155.3286 H   0  0  0  0  0  0  0  0  0  0  0  0  # atno 10765 bound_to 10752
  140.1001  134.5093  155.8771 H   0  0  0  0  0  0  0  0  0  0  0  0  # atno 11005 bound_to 11000
  145.3171  139.1800  143.4607 LP  0  0  0  0  0  0  0  0  0  0  0  0  # atno 17320 bound_to 7965
  146.3239  140.3184  142.8631 LP  0  0  0  0  0  0  0  0  0  0  0  0  # atno 17321 bound_to 7965
  139.7305  144.7583  151.0809 LP  0  0  0  0  0  0  0  0  0  0  0  0  # atno 17342 bound_to 10162
  140.7764  143.5094  150.9672 LP  0  0  0  0  0  0  0  0  0  0  0  0  # atno 17343 bound_to 10162
  156.9342  130.9724  151.3527 LP  0  0  0  0  0  0  0  0  0  0  0  0  # atno 17370 bound_to 10713
  157.5882  130.8425  149.8621 LP  0  0  0  0  0  0  0  0  0  0  0  0  # atno 17371 bound_to 10713
  141.2103  133.6693  156.6500 LP  0  0  0  0  0  0  0  0  0  0  0  0  # atno 17394 bound_to 11000
  140.3232  134.7990  157.4269 LP  0  0  0  0  0  0  0  0  0  0  0  0  # atno 17395 bound_to 11000

$$$$
