AV-unprocessed.smi:1363|AV-procd|sdf|5565|dock1
  -GOLD-   22720 5153D 1   1.00000     0.00000
 Structure written by MMmdl.
 44 45  0  0  0  0  0  0  0  0  1 V2000
  150.2995  133.8740  154.2840 C   0  0  0  0  0  0  0  0  0  0  0  0
  150.8934  135.1080  154.9278 C   0  0  0  0  0  0  0  0  0  0  0  0
  150.6148  136.2805  154.2454 N   0  0  0  0  0  0  0  0  0  0  0  0
  151.1064  137.4649  154.7651 C   0  0  0  0  0  0  0  0  0  0  0  0
  150.7510  138.7029  153.9602 C   0  0  0  0  0  0  0  0  0  0  0  0
  151.8441  137.4794  155.9043 C   0  0  0  0  0  0  0  0  0  0  0  0
  152.4020  138.7666  156.5102 C   0  0  0  0  0  0  0  0  0  0  0  0
  151.3699  139.8359  156.8769 C   0  0  0  0  0  0  0  0  0  0  0  0
  150.1790  139.5426  156.9849 O   0  0  0  0  0  0  0  0  0  0  0  0
  151.8447  141.0750  157.0729 N   0  0  0  0  0  0  0  0  0  0  0  0
  151.0419  142.2304  157.4551 C   0  0  0  0  0  0  0  0  0  0  0  0
  151.9214  143.3593  158.0286 C   0  0  0  0  0  0  0  0  0  0  0  0
  152.2778  143.2376  159.5069 C   0  0  0  0  0  0  0  0  0  0  0  0
  151.9763  144.1643  160.4417 C   0  0  0  0  0  0  0  0  0  0  0  0
  152.3046  144.0269  161.9181 C   0  0  0  0  0  0  0  0  0  0  0  0
  152.6861  142.5890  162.3039 C   0  0  0  0  0  0  0  0  0  0  0  0
  153.6393  141.9786  161.2706 C   0  0  0  0  0  0  0  0  0  0  0  0
  153.0006  141.9456  159.8706 C   0  0  0  0  0  0  0  0  0  0  0  0
  152.1205  136.1910  156.5829 C   0  0  0  0  0  0  0  0  0  0  0  0
  152.7981  136.1351  157.6082 O   0  0  0  0  0  0  0  0  0  0  0  0
  151.5890  135.0191  156.0205 N   0  0  0  0  0  0  0  0  0  0  0  0
  150.0708  136.3147  153.3953 H   0  0  0  0  0  0  0  0  0  0  0  0
  150.6398  132.9688  154.7885 H   0  0  0  0  0  0  0  0  0  0  0  0
  150.5944  133.8102  153.2362 H   0  0  0  0  0  0  0  0  0  0  0  0
  149.2109  133.9059  154.3370 H   0  0  0  0  0  0  0  0  0  0  0  0
  150.1619  139.3943  154.5630 H   0  0  0  0  0  0  0  0  0  0  0  0
  150.1671  138.4516  153.0739 H   0  0  0  0  0  0  0  0  0  0  0  0
  151.6546  139.2159  153.6297 H   0  0  0  0  0  0  0  0  0  0  0  0
  153.1400  139.2186  155.8472 H   0  0  0  0  0  0  0  0  0  0  0  0
  152.9622  138.5032  157.4081 H   0  0  0  0  0  0  0  0  0  0  0  0
  152.8366  141.2263  156.9607 H   0  0  0  0  0  0  0  0  0  0  0  0
  150.5205  142.5763  156.5621 H   0  0  0  0  0  0  0  0  0  0  0  0
  150.2773  141.9299  158.1739 H   0  0  0  0  0  0  0  0  0  0  0  0
  152.8549  143.4140  157.4670 H   0  0  0  0  0  0  0  0  0  0  0  0
  151.4171  144.3154  157.8822 H   0  0  0  0  0  0  0  0  0  0  0  0
  151.4756  145.0813  160.1716 H   0  0  0  0  0  0  0  0  0  0  0  0
  153.1250  144.7084  162.1452 H   0  0  0  0  0  0  0  0  0  0  0  0
  151.4478  144.3533  162.5082 H   0  0  0  0  0  0  0  0  0  0  0  0
  153.1391  142.5754  163.2956 H   0  0  0  0  0  0  0  0  0  0  0  0
  151.7857  141.9763  162.3663 H   0  0  0  0  0  0  0  0  0  0  0  0
  154.5566  142.5682  161.2383 H   0  0  0  0  0  0  0  0  0  0  0  0
  153.9307  140.9715  161.5705 H   0  0  0  0  0  0  0  0  0  0  0  0
  152.2791  141.1301  159.8112 H   0  0  0  0  0  0  0  0  0  0  0  0
  153.7716  141.7363  159.1285 H   0  0  0  0  0  0  0  0  0  0  0  0
  1 23  1  0  0  0  0
  1 24  1  0  0  0  0
  1 25  1  0  0  0  0
  1  2  1  0  0  0  0
  2  3  1  0  0  0  0
  2 21  2  0  0  0  0
  3  4  1  0  0  0  0
  3 22  1  0  0  0  0
  4  6  2  0  0  0  0
  4  5  1  0  0  0  0
  5 26  1  0  0  0  0
  5 27  1  0  0  0  0
  5 28  1  0  0  0  0
  6 19  1  0  0  0  0
  6  7  1  0  0  0  0
  7  8  1  0  0  0  0
  7 29  1  0  0  0  0
  7 30  1  0  0  0  0
  8  9  2  0  0  0  0
  8 10  1  0  0  0  0
 10 11  1  0  0  0  0
 10 31  1  0  0  0  0
 11 12  1  0  0  0  0
 11 32  1  0  0  0  0
 11 33  1  0  0  0  0
 12 13  1  0  0  0  0
 12 34  1  0  0  0  0
 12 35  1  0  0  0  0
 13 18  1  0  0  0  0
 13 14  2  0  0  0  0
 14 15  1  0  0  0  0
 14 36  1  0  0  0  0
 15 16  1  0  0  0  0
 15 37  1  0  0  0  0
 15 38  1  0  0  0  0
 16 17  1  0  0  0  0
 16 39  1  0  0  0  0
 16 40  1  0  0  0  0
 17 18  1  0  0  0  0
 17 41  1  0  0  0  0
 17 42  1  0  0  0  0
 18 43  1  0  0  0  0
 18 44  1  0  0  0  0
 19 20  2  0  0  0  0
 19 21  1  0  0  0  0
M  END
> <s_m_source_file>
AV-unprocessed.smi

> <i_m_source_file_index>
1363

> <i_lp_mmshare_version>
43012

> <i_f3d_flags>
0

> <s_epik_input>
W0NIM11jMW5jKFtDSDNdKWMoYyg9TylbbkhdMSlbQ0gyXUMoPU8pW05IXVtDSDJdW0NIMl1DMj1bQ0hdW0NIMl1bQ0gyXVtDSDJdW0NIMl0y

> <s_epik_cmdline>
J2VwaWtfcHl0aG9uJywgJy1waCcsICc3LjAnLCAnLXRuJywgJzgnLCAnLW1hJywgJzIwMCcsICctbWV0YWxfYmluZGluZycsICctaW1hZScsICc8aW5maWxlLm1hZT4nLCAnLW9tYWUnLCAnPG91dGZpbGUubWFlPic=

> <r_lp_tautomer_probability>
0.156392

> <r_epik_Ionization_Penalty>
0.0140998

> <r_epik_Ionization_Penalty_Charging>
0.0139776

> <r_epik_Ionization_Penalty_Neutral>
0.000122158

> <r_epik_State_Penalty>
1.53009

> <r_epik_Charging_Adjusted_Penalty>
1.54407

> <i_epik_Tot_Q>
0

> <i_epik_Tot_abs_Q>
0

> <r_epik_Metal_State_Penalty>
1.7066

> <b_epik_Metal_Only>
0

> <s_lp_Force_Field>
OPLS_2005

> <r_lp_Energy>
12.7953

> <b_lp_Chiralities_Consistent>
1

> <s_lp_Variant>
AV-unprocessed.smi:1363-2

> <Gold.Version>
5.8.1

> <Gold.Id.Protein>
6NUR|6NUR_protein|mol2

> <Gold.PLP.Fitness>
47.7451

> <Gold.PLP.PLP>
-45.6475

> <Gold.PLP.part.hbond>
-2.9663

> <Gold.PLP.part.metal>
0.0000

> <Gold.PLP.part.buried>
-4.4541

> <Gold.PLP.part.nonpolar>
-37.4575

> <Gold.PLP.part.repulsive>
0.1782

> <Gold.PLP.ligand.clash>
0.0000

> <Gold.PLP.ligand.torsion>
0.4845

> <Gold.PLP.Chemscore.Hbond>
1.0000

> <Gold.PLP.Chemscore.CHOScore>
0.0000

> <Gold.PLP.Chemscore.Metal>
0.0000

> <Gold.Chemscore.Hbonds>
donor molecule, donor type, donor heavy atom, donor atom, acceptor molecule, acceptor atom, score
      L1  H     3    22       P1  7948  0.55

> <Gold.PLP.Chemscore.Internal.Correction>
0.0666

> <Gold.Rescore>
     Score         DG    S(hbond)    S(metal)    S(lipo)     H(rot)  DE(clash)    DE(int)     intcor
     18.86     -19.43       1.53        0.00     116.49       1.86       0.06       0.51       ----

> <Gold.Chemscore.Fitness>
18.8626

> <Gold.Chemscore.DG>
-19.4333

> <Gold.Chemscore.ZeroCoef>
-5.4800

> <Gold.Chemscore.Hbond>
1.5250

> <Gold.Chemscore.Metal>
0.0000

> <Gold.Chemscore.Lipo>
116.4911

> <Gold.Chemscore.Internal_Hbond>
0.0000

> <Gold.Chemscore.DEClash>
0.0609

> <Gold.Chemscore.DEInternal>
0.5098

> <Gold.Chemscore.Rot>
1.8631

> <Gold.Chemscore.Internal.Correction>
   9.000000E+99

> <Gold.Chemscore.Hbonds>
donor molecule, donor type, donor heavy atom, donor atom, acceptor molecule, acceptor atom, score
      L1  H     3    22       P1  7948  0.03

> <Gold.Chemscore.Hbond.Weighted>
-5.0935

> <Gold.Chemscore.Metal.Weighted>
-0.0000

> <Gold.Chemscore.Lipo.Weighted>
-13.6295

> <Gold.Chemscore.Internal_Hbond.Weighted>
0.0000

> <Gold.Chemscore.DEClash.Weighted>
0.0609

> <Gold.Chemscore.DEInternal.Weighted>
0.5098

> <Gold.Chemscore.Rot.Weighted>
4.7697

> <Gold.Chemscore.Internal.Correction.Weighted>
   9.000000E+99

> <Gold.Protein.RotatedTorsions>
[ 6907 6896 6895 6894 ] final  -21.73 input  -60.11 | X-H torsion
[ 7974 7965 7964 7962 ] final -101.01 input  175.53 | X-H torsion
[ 8008 7997 7996 7995 ] final  -94.71 input   59.86 | X-H torsion
[ 10167 10162 10161 10158 ] final  -25.08 input  -65.29 | X-H torsion
[ 10718 10713 10712 10709 ] final    0.57 input   66.30 | X-H torsion
[ 10763 10752 10751 10750 ] final   54.60 input  -60.55 | X-H torsion
[ 11005 11000 10999 10996 ] final  107.33 input  -57.11 | X-H torsion

> <Gold.Protein.ActiveResidues>
 VAL166  LYS551  ARG553  GLY616  TRP617  ASP618  TYR619  PRO620  LYS621  CYS622 
 ASP623  PHE694  ASN695  SER759  ASP760  ASP761  ALA762  ILE779  LEU786  VAL792 
 PHE793  MET794  SER795  GLU796  ALA797  LYS798  CYS799  TRP800  GLU811  SER814 

> <Gold.Protein.RotatedAtoms>
  151.2291  135.0547  159.8980 H   0  0  0  0  0  0  0  0  0  0  0  0  # atno 6907 bound_to 6896
  152.5407  134.0557  159.8140 H   0  0  0  0  0  0  0  0  0  0  0  0  # atno 6908 bound_to 6896
  151.0734  133.5399  159.2657 H   0  0  0  0  0  0  0  0  0  0  0  0  # atno 6909 bound_to 6896
  145.2871  140.9342  143.2899 H   0  0  0  0  0  0  0  0  0  0  0  0  # atno 7974 bound_to 7965
  154.7519  140.0487  157.0901 H   0  0  0  0  0  0  0  0  0  0  0  0  # atno 8008 bound_to 7997
  155.0046  140.3128  155.4834 H   0  0  0  0  0  0  0  0  0  0  0  0  # atno 8009 bound_to 7997
  156.2887  140.2195  156.5157 H   0  0  0  0  0  0  0  0  0  0  0  0  # atno 8010 bound_to 7997
  140.7287  143.4297  151.0822 H   0  0  0  0  0  0  0  0  0  0  0  0  # atno 10167 bound_to 10162
  156.8353  130.5502  149.5683 H   0  0  0  0  0  0  0  0  0  0  0  0  # atno 10718 bound_to 10713
  152.9806  135.5739  154.4931 H   0  0  0  0  0  0  0  0  0  0  0  0  # atno 10763 bound_to 10752
  154.4462  135.2777  155.1815 H   0  0  0  0  0  0  0  0  0  0  0  0  # atno 10764 bound_to 10752
  154.3462  135.6219  153.5674 H   0  0  0  0  0  0  0  0  0  0  0  0  # atno 10765 bound_to 10752
  139.8826  134.9397  156.5804 H   0  0  0  0  0  0  0  0  0  0  0  0  # atno 11005 bound_to 11000
  144.9204  139.4419  143.6544 LP  0  0  0  0  0  0  0  0  0  0  0  0  # atno 17320 bound_to 7965
  146.3197  139.8061  142.8955 LP  0  0  0  0  0  0  0  0  0  0  0  0  # atno 17321 bound_to 7965
  139.7952  143.8162  152.3156 LP  0  0  0  0  0  0  0  0  0  0  0  0  # atno 17342 bound_to 10162
  139.8159  144.7316  150.9635 LP  0  0  0  0  0  0  0  0  0  0  0  0  # atno 17343 bound_to 10162
  156.0911  130.5896  150.9734 LP  0  0  0  0  0  0  0  0  0  0  0  0  # atno 17370 bound_to 10713
  157.6385  131.0913  150.8300 LP  0  0  0  0  0  0  0  0  0  0  0  0  # atno 17371 bound_to 10713
  140.8032  133.8489  155.8744 LP  0  0  0  0  0  0  0  0  0  0  0  0  # atno 17394 bound_to 11000
  140.9574  134.1700  157.4681 LP  0  0  0  0  0  0  0  0  0  0  0  0  # atno 17395 bound_to 11000

$$$$
