AV-unprocessed.smi:1047|AV-procd|sdf|4580|dock1
  -GOLD-   22720 3 43D 1   1.00000     0.00000
 Structure written by MMmdl.
 58 60  0  0  0  0  0  0  0  0  4 V2000
  145.9985  143.7656  153.4837 C   0  0  0  0  0  0  0  0  0  0  0  0
  146.2981  143.2490  154.8982 C   0  0  0  0  0  0  0  0  0  0  0  0
  146.0718  141.7881  155.0333 N   0  3  1  0  0  0  0  0  0  0  0  0
  144.6347  141.4526  155.1763 C   0  0  0  0  0  0  0  0  0  0  0  0
  144.4506  139.9391  155.3777 C   0  0  0  0  0  0  0  0  0  0  0  0
  145.0335  139.2352  154.2872 O   0  0  0  0  0  0  0  0  0  0  0  0
  146.4312  139.4809  154.1735 C   0  0  1  0  0  0  0  0  0  0  0  0
  147.0071  138.5871  153.0616 C   0  0  0  0  0  0  0  0  0  0  0  0
  148.4847  138.5640  153.0744 N   0  3  0  0  0  0  0  0  0  0  0  0
  149.0779  138.6662  154.4226 C   0  0  0  0  0  0  0  0  0  0  0  0
  150.6155  138.6072  154.3593 C   0  0  2  0  0  0  0  0  0  0  0  0
  151.0094  137.2758  154.0974 O   0  0  0  0  0  0  0  0  0  0  0  0
  151.3168  139.0579  155.6562 C   0  0  0  0  0  0  0  0  0  0  0  0
  150.9272  140.4112  156.0775 N   0  0  0  0  0  0  0  0  0  0  0  0
  150.1485  141.3245  155.4352 C   0  0  0  0  0  0  0  0  0  0  0  0
  150.0848  142.4353  156.2197 N   0  3  0  0  0  0  0  0  0  0  0  0
  150.8376  142.2320  157.3778 C   0  0  0  0  0  0  0  0  0  0  0  0
  151.0746  143.0647  158.4648 C   0  0  0  0  0  0  0  0  0  0  0  0
  151.8956  142.5593  159.4977 C   0  0  0  0  0  0  0  0  0  0  0  0
  152.1763  143.4456  160.6995 C   0  0  0  0  0  0  0  0  0  0  0  0
  152.4470  141.2544  159.4188 C   0  0  0  0  0  0  0  0  0  0  0  0
  153.3275  140.7204  160.5358 C   0  0  0  0  0  0  0  0  0  0  0  0
  152.1951  140.4230  158.3038 C   0  0  0  0  0  0  0  0  0  0  0  0
  151.3845  140.9363  157.2932 C   0  0  0  0  0  0  0  0  0  0  0  0
  146.6819  140.9867  153.9431 C   0  0  0  0  0  0  0  0  0  0  0  0
  146.2715  144.8174  153.3952 H   0  0  0  0  0  0  0  0  0  0  0  0
  144.9409  143.6868  153.2337 H   0  0  0  0  0  0  0  0  0  0  0  0
  146.5654  143.2143  152.7331 H   0  0  0  0  0  0  0  0  0  0  0  0
  147.3441  143.4664  155.1186 H   0  0  0  0  0  0  0  0  0  0  0  0
  145.7075  143.7910  155.6383 H   0  0  0  0  0  0  0  0  0  0  0  0
  144.2118  141.9877  156.0277 H   0  0  0  0  0  0  0  0  0  0  0  0
  144.0910  141.7811  154.2890 H   0  0  0  0  0  0  0  0  0  0  0  0
  144.8981  139.6138  156.3182 H   0  0  0  0  0  0  0  0  0  0  0  0
  143.3897  139.6932  155.4294 H   0  0  0  0  0  0  0  0  0  0  0  0
  146.9092  139.1871  155.1101 H   0  0  0  0  0  0  0  0  0  0  0  0
  146.6286  137.5704  153.1748 H   0  0  0  0  0  0  0  0  0  0  0  0
  146.6682  138.9454  152.0886 H   0  0  0  0  0  0  0  0  0  0  0  0
  148.7976  137.6993  152.6548 H   0  0  0  0  0  0  0  0  0  0  0  0
  148.7537  139.6132  154.8544 H   0  0  0  0  0  0  0  0  0  0  0  0
  148.6903  137.8726  155.0632 H   0  0  0  0  0  0  0  0  0  0  0  0
  150.9677  139.2289  153.5350 H   0  0  0  0  0  0  0  0  0  0  0  0
  151.1638  137.1791  153.1695 H   0  0  0  0  0  0  0  0  0  0  0  0
  151.1384  138.3555  156.4705 H   0  0  0  0  0  0  0  0  0  0  0  0
  152.3972  139.0767  155.5046 H   0  0  0  0  0  0  0  0  0  0  0  0
  149.6693  141.1930  154.4755 H   0  0  0  0  0  0  0  0  0  0  0  0
  150.6507  144.0571  158.5183 H   0  0  0  0  0  0  0  0  0  0  0  0
  153.2498  143.5763  160.8396 H   0  0  0  0  0  0  0  0  0  0  0  0
  151.7596  143.0046  161.6054 H   0  0  0  0  0  0  0  0  0  0  0  0
  151.7353  144.4353  160.5771 H   0  0  0  0  0  0  0  0  0  0  0  0
  153.6097  139.6817  160.3604 H   0  0  0  0  0  0  0  0  0  0  0  0
  152.8073  140.7650  161.4927 H   0  0  0  0  0  0  0  0  0  0  0  0
  154.2434  141.3071  160.6113 H   0  0  0  0  0  0  0  0  0  0  0  0
  152.6186  139.4313  158.2486 H   0  0  0  0  0  0  0  0  0  0  0  0
  146.2616  141.3047  152.9877 H   0  0  0  0  0  0  0  0  0  0  0  0
  147.7554  141.1674  153.8962 H   0  0  0  0  0  0  0  0  0  0  0  0
  148.8280  139.3333  152.5177 H   0  0  0  0  0  0  0  0  0  0  0  0
  146.5162  141.5062  155.8959 H   0  0  0  0  0  0  0  0  0  0  0  0
  149.5694  143.2723  155.9772 H   0  0  0  0  0  0  0  0  0  0  0  0
  1  2  1  0  0  0  0
  1 26  1  0  0  0  0
  1 27  1  0  0  0  0
  1 28  1  0  0  0  0
  2  3  1  0  0  0  0
  2 29  1  0  0  0  0
  2 30  1  0  0  0  0
  3 25  1  0  0  0  0
  3  4  1  0  0  0  0
  3 57  1  0  0  0  0
  4  5  1  0  0  0  0
  4 31  1  0  0  0  0
  4 32  1  0  0  0  0
  5  6  1  0  0  0  0
  5 33  1  0  0  0  0
  5 34  1  0  0  0  0
  6  7  1  0  0  0  0
  7  8  1  0  0  0  0
  7 25  1  0  0  0  0
  7 35  1  0  0  0  0
  8  9  1  0  0  0  0
  8 36  1  0  0  0  0
  8 37  1  0  0  0  0
  9 10  1  0  0  0  0
  9 38  1  0  0  0  0
  9 56  1  0  0  0  0
 10 11  1  0  0  0  0
 10 39  1  0  0  0  0
 10 40  1  0  0  0  0
 11 12  1  0  0  0  0
 11 13  1  0  0  0  0
 11 41  1  0  0  0  0
 12 42  1  0  0  0  0
 13 14  1  0  0  0  0
 13 43  1  0  0  0  0
 13 44  1  0  0  0  0
 14 24  1  0  0  0  0
 14 15  1  0  0  0  0
 15 16  2  0  0  0  0
 15 45  1  0  0  0  0
 16 17  1  0  0  0  0
 16 58  1  0  0  0  0
 17 24  2  0  0  0  0
 17 18  1  0  0  0  0
 18 19  2  0  0  0  0
 18 46  1  0  0  0  0
 19 20  1  0  0  0  0
 19 21  1  0  0  0  0
 20 47  1  0  0  0  0
 20 48  1  0  0  0  0
 20 49  1  0  0  0  0
 21 22  1  0  0  0  0
 21 23  2  0  0  0  0
 22 50  1  0  0  0  0
 22 51  1  0  0  0  0
 22 52  1  0  0  0  0
 23 24  1  0  0  0  0
 23 53  1  0  0  0  0
 25 54  1  0  0  0  0
 25 55  1  0  0  0  0
M  CHG  1   3   1
M  CHG  1   9   1
M  CHG  1  16   1
M  END
> <s_m_source_file>
AV-unprocessed.smi

> <i_m_source_file_index>
1047

> <i_lp_mmshare_version>
43012

> <i_f3d_flags>
0

> <s_epik_input>
W0NIM11bQ0gyXU4xW0NIMl1bQ0gyXU9bQ0BIXShbQ0gyXTEpW0NIMl1bTkhdW0NIMl1bQ0BIXShbT0hdKVtDSDJdbihbY0hdbjIpYyhjMjMpW2NIXWMoW0NIM10pYyhbY0hdMylbQ0gzXQ==

> <s_epik_cmdline>
J2VwaWtfcHl0aG9uJywgJy1waCcsICc3LjAnLCAnLXRuJywgJzgnLCAnLW1hJywgJzIwMCcsICctbWV0YWxfYmluZGluZycsICctaW1hZScsICc8aW5maWxlLm1hZT4nLCAnLW9tYWUnLCAnPG91dGZpbGUubWFlPic=

> <r_epik_Ionization_Penalty>
1.6114

> <r_epik_Ionization_Penalty_Charging>
1.61139

> <r_epik_Ionization_Penalty_Neutral>
5.04732e-06

> <r_epik_State_Penalty>
1.63724

> <r_epik_Charging_Adjusted_Penalty>
3.24864

> <i_epik_Tot_Q>
3

> <i_epik_Tot_abs_Q>
3

> <r_epik_Metal_State_Penalty>
5.64594

> <b_epik_Metal_Only>
0

> <s_lp_Force_Field>
OPLS_2005

> <r_lp_Energy>
43.5462

> <b_lp_Chiralities_Consistent>
1

> <s_lp_Variant>
AV-unprocessed.smi:1047-21

> <Gold.Version>
5.8.1

> <Gold.Id.Protein>
6NUR|6NUR_protein|mol2

> <Gold.PLP.Fitness>
65.5330

> <Gold.PLP.PLP>
-48.4637

> <Gold.PLP.part.hbond>
-4.3778

> <Gold.PLP.part.metal>
0.0000

> <Gold.PLP.part.buried>
-6.3118

> <Gold.PLP.part.nonpolar>
-37.7487

> <Gold.PLP.part.repulsive>
0.4742

> <Gold.PLP.ligand.clash>
0.0000

> <Gold.PLP.ligand.torsion>
0.4749

> <Gold.PLP.Chemscore.Hbond>
5.9280

> <Gold.PLP.Chemscore.CHOScore>
0.0000

> <Gold.PLP.Chemscore.Metal>
0.0000

> <Gold.Chemscore.Hbonds>
donor molecule, donor type, donor heavy atom, donor atom, acceptor molecule, acceptor atom, score
      L1  H     9    38       P1  7948  2.00
      L1  H     9    56       P1  7957  1.00
      L1  H    12    42       P1  7949  0.92
      L1  H    16    58       P1  8028  2.00

> <Gold.PLP.Chemscore.Internal.Correction>
0.2351

> <Gold.Rescore>
     Score         DG    S(hbond)    S(metal)    S(lipo)     H(rot)  DE(clash)    DE(int)     intcor
     23.43     -24.15       3.50        0.00     120.69       2.78       0.12       0.60       ----

> <Gold.Chemscore.Fitness>
23.4309

> <Gold.Chemscore.DG>
-24.1506

> <Gold.Chemscore.ZeroCoef>
-5.4800

> <Gold.Chemscore.Hbond>
3.4968

> <Gold.Chemscore.Metal>
0.0000

> <Gold.Chemscore.Lipo>
120.6871

> <Gold.Chemscore.Internal_Hbond>
0.0000

> <Gold.Chemscore.DEClash>
0.1244

> <Gold.Chemscore.DEInternal>
0.5953

> <Gold.Chemscore.Rot>
2.7848

> <Gold.Chemscore.Internal.Correction>
   9.000000E+99

> <Gold.Chemscore.Hbonds>
donor molecule, donor type, donor heavy atom, donor atom, acceptor molecule, acceptor atom, score
      L1  H     9    38       P1  7948  1.00
      L1  H     9    56       P1  7957  0.98
      L1  H    12    42       P1  7949  0.42
      L1  H    16    58       P1  8028  1.00

> <Gold.Chemscore.Hbond.Weighted>
-11.6793

> <Gold.Chemscore.Metal.Weighted>
-0.0000

> <Gold.Chemscore.Lipo.Weighted>
-14.1204

> <Gold.Chemscore.Internal_Hbond.Weighted>
0.0000

> <Gold.Chemscore.DEClash.Weighted>
0.1244

> <Gold.Chemscore.DEInternal.Weighted>
0.5953

> <Gold.Chemscore.Rot.Weighted>
7.1291

> <Gold.Chemscore.Internal.Correction.Weighted>
   9.000000E+99

> <Gold.Protein.RotatedTorsions>
[ 6907 6896 6895 6894 ] final  -58.05 input  -60.11 | X-H torsion
[ 7974 7965 7964 7962 ] final   68.90 input  175.53 | X-H torsion
[ 8008 7997 7996 7995 ] final   28.38 input   59.86 | X-H torsion
[ 10167 10162 10161 10158 ] final -117.69 input  -65.29 | X-H torsion
[ 10718 10713 10712 10709 ] final  134.82 input   66.30 | X-H torsion
[ 10763 10752 10751 10750 ] final  146.48 input  -60.55 | X-H torsion
[ 11005 11000 10999 10996 ] final    6.63 input  -57.11 | X-H torsion

> <Gold.Protein.ActiveResidues>
 VAL166  LYS551  ARG553  GLY616  TRP617  ASP618  TYR619  PRO620  LYS621  CYS622 
 ASP623  PHE694  ASN695  SER759  ASP760  ASP761  ALA762  ILE779  LEU786  VAL792 
 PHE793  MET794  SER795  GLU796  ALA797  LYS798  CYS799  TRP800  GLU811  SER814 

> <Gold.Protein.RotatedAtoms>
  150.8038  134.7149  159.6624 H   0  0  0  0  0  0  0  0  0  0  0  0  # atno 6907 bound_to 6896
  152.4156  134.6044  160.0018 H   0  0  0  0  0  0  0  0  0  0  0  0  # atno 6908 bound_to 6896
  151.6274  133.3297  159.3137 H   0  0  0  0  0  0  0  0  0  0  0  0  # atno 6909 bound_to 6896
  145.7970  139.2962  143.1177 H   0  0  0  0  0  0  0  0  0  0  0  0  # atno 7974 bound_to 7965
  155.0577  140.3187  155.4671 H   0  0  0  0  0  0  0  0  0  0  0  0  # atno 8008 bound_to 7997
  156.2820  140.2134  156.5648 H   0  0  0  0  0  0  0  0  0  0  0  0  # atno 8009 bound_to 7997
  154.7157  140.0494  157.0580 H   0  0  0  0  0  0  0  0  0  0  0  0  # atno 8010 bound_to 7997
  140.0656  143.4926  152.2008 H   0  0  0  0  0  0  0  0  0  0  0  0  # atno 10167 bound_to 10162
  157.4634  131.1075  150.9892 H   0  0  0  0  0  0  0  0  0  0  0  0  # atno 10718 bound_to 10713
  154.0225  135.2904  155.3379 H   0  0  0  0  0  0  0  0  0  0  0  0  # atno 10763 bound_to 10752
  154.7037  135.5178  153.8567 H   0  0  0  0  0  0  0  0  0  0  0  0  # atno 10764 bound_to 10752
  153.0675  135.6636  154.0446 H   0  0  0  0  0  0  0  0  0  0  0  0  # atno 10765 bound_to 10752
  140.5573  134.0226  155.7958 H   0  0  0  0  0  0  0  0  0  0  0  0  # atno 11005 bound_to 11000
  145.9918  140.8596  143.0063 LP  0  0  0  0  0  0  0  0  0  0  0  0  # atno 17320 bound_to 7965
  144.6774  140.2226  143.7364 LP  0  0  0  0  0  0  0  0  0  0  0  0  # atno 17321 bound_to 7965
  139.5867  144.7534  151.3503 LP  0  0  0  0  0  0  0  0  0  0  0  0  # atno 17342 bound_to 10162
  140.7151  143.7289  150.7639 LP  0  0  0  0  0  0  0  0  0  0  0  0  # atno 17343 bound_to 10162
  157.0682  130.5853  149.5397 LP  0  0  0  0  0  0  0  0  0  0  0  0  # atno 17370 bound_to 10713
  156.0039  130.5123  150.7761 LP  0  0  0  0  0  0  0  0  0  0  0  0  # atno 17371 bound_to 10713
  141.1136  133.9577  157.2865 LP  0  0  0  0  0  0  0  0  0  0  0  0  # atno 17394 bound_to 11000
  139.9425  135.0189  156.8752 LP  0  0  0  0  0  0  0  0  0  0  0  0  # atno 17395 bound_to 11000

$$$$
