AV-unprocessed.smi:2990|AV-procd|sdf|11394|dock7
  -GOLD-   2272016313D 1   1.00000     0.00000
 Structure written by MMmdl.
 39 41  0  0  0  0  0  0  0  0  1 V2000
  153.0354  139.1343  160.2874 C   0  0  0  0  0  0  0  0  0  0  0  0
  152.6769  140.5171  159.8439 C   0  0  0  0  0  0  0  0  0  0  0  0
  153.0946  141.6025  160.4963 N   0  0  0  0  0  0  0  0  0  0  0  0
  152.5397  142.6310  159.7594 C   0  0  0  0  0  0  0  0  0  0  0  0
  152.6128  144.0313  159.9359 C   0  0  0  0  0  0  0  0  0  0  0  0
  151.9526  144.8991  159.0413 C   0  0  0  0  0  0  0  0  0  0  0  0
  151.2108  144.3806  157.9601 C   0  0  0  0  0  0  0  0  0  0  0  0
  151.1251  142.9885  157.7659 C   0  0  0  0  0  0  0  0  0  0  0  0
  151.7865  142.1269  158.6613 C   0  0  0  0  0  0  0  0  0  0  0  0
  151.9038  140.7440  158.7531 N   0  0  0  0  0  0  0  0  0  0  0  0
  151.3053  139.7696  157.8513 C   0  0  0  0  0  0  0  0  0  0  0  0
  152.1730  139.5117  156.6026 C   0  0  1  0  0  0  0  0  0  0  0  0
  153.2183  138.5990  156.8730 O   0  0  0  0  0  0  0  0  0  0  0  0
  151.3707  139.0224  155.3855 C   0  0  0  0  0  0  0  0  0  0  0  0
  150.5953  140.0899  154.8542 O   0  0  0  0  0  0  0  0  0  0  0  0
  149.3114  139.8205  154.4322 C   0  0  0  0  0  0  0  0  0  0  0  0
  148.5272  140.9217  154.0300 C   0  0  0  0  0  0  0  0  0  0  0  0
  147.2050  140.7401  153.5810 C   0  0  0  0  0  0  0  0  0  0  0  0
  146.6507  139.4478  153.5312 C   0  0  0  0  0  0  0  0  0  0  0  0
  147.4210  138.3400  153.9313 C   0  0  0  0  0  0  0  0  0  0  0  0
  148.7442  138.5217  154.3792 C   0  0  0  0  0  0  0  0  0  0  0  0
  153.7351  139.1697  161.1230 H   0  0  0  0  0  0  0  0  0  0  0  0
  153.5040  138.5818  159.4727 H   0  0  0  0  0  0  0  0  0  0  0  0
  152.1418  138.5997  160.6099 H   0  0  0  0  0  0  0  0  0  0  0  0
  153.1778  144.4383  160.7613 H   0  0  0  0  0  0  0  0  0  0  0  0
  152.0158  145.9677  159.1854 H   0  0  0  0  0  0  0  0  0  0  0  0
  150.7081  145.0524  157.2800 H   0  0  0  0  0  0  0  0  0  0  0  0
  150.5587  142.5872  156.9387 H   0  0  0  0  0  0  0  0  0  0  0  0
  151.1185  138.8421  158.3923 H   0  0  0  0  0  0  0  0  0  0  0  0
  150.3268  140.1456  157.5502 H   0  0  0  0  0  0  0  0  0  0  0  0
  152.6587  140.4464  156.3200 H   0  0  0  0  0  0  0  0  0  0  0  0
  153.1714  138.3492  157.7832 H   0  0  0  0  0  0  0  0  0  0  0  0
  152.0714  138.6778  154.6231 H   0  0  0  0  0  0  0  0  0  0  0  0
  150.7383  138.1765  155.6616 H   0  0  0  0  0  0  0  0  0  0  0  0
  148.9446  141.9175  154.0655 H   0  0  0  0  0  0  0  0  0  0  0  0
  146.6167  141.5928  153.2749 H   0  0  0  0  0  0  0  0  0  0  0  0
  145.6366  139.3068  153.1874 H   0  0  0  0  0  0  0  0  0  0  0  0
  146.9963  137.3477  153.8940 H   0  0  0  0  0  0  0  0  0  0  0  0
  149.3032  137.6478  154.6774 H   0  0  0  0  0  0  0  0  0  0  0  0
  1  2  1  0  0  0  0
  1 22  1  0  0  0  0
  1 23  1  0  0  0  0
  1 24  1  0  0  0  0
  2 10  1  0  0  0  0
  2  3  2  0  0  0  0
  3  4  1  0  0  0  0
  4  9  2  0  0  0  0
  4  5  1  0  0  0  0
  5  6  2  0  0  0  0
  5 25  1  0  0  0  0
  6  7  1  0  0  0  0
  6 26  1  0  0  0  0
  7  8  2  0  0  0  0
  7 27  1  0  0  0  0
  8  9  1  0  0  0  0
  8 28  1  0  0  0  0
  9 10  1  0  0  0  0
 10 11  1  0  0  0  0
 11 12  1  0  0  0  0
 11 29  1  0  0  0  0
 11 30  1  0  0  0  0
 12 13  1  0  0  0  0
 12 14  1  0  0  0  0
 12 31  1  0  0  0  0
 13 32  1  0  0  0  0
 14 15  1  0  0  0  0
 14 33  1  0  0  0  0
 14 34  1  0  0  0  0
 15 16  1  0  0  0  0
 16 21  1  0  0  0  0
 16 17  2  0  0  0  0
 17 18  1  0  0  0  0
 17 35  1  0  0  0  0
 18 19  2  0  0  0  0
 18 36  1  0  0  0  0
 19 20  1  0  0  0  0
 19 37  1  0  0  0  0
 20 21  2  0  0  0  0
 20 38  1  0  0  0  0
 21 39  1  0  0  0  0
M  END
> <s_m_source_file>
AV-unprocessed.smi

> <i_m_source_file_index>
2990

> <i_lp_mmshare_version>
43012

> <i_f3d_flags>
0

> <s_epik_input>
W2NIXTFbY0hdW2NIXVtjSF1jKGMxMiluKGMobjIpW0NIM10pW0NIMl1bQ0BIXShbT0hdKVtDSDJdT2MzW2NIXVtjSF1bY0hdW2NIXVtjSF0z

> <s_epik_cmdline>
J2VwaWtfcHl0aG9uJywgJy1waCcsICc3LjAnLCAnLXRuJywgJzgnLCAnLW1hJywgJzIwMCcsICctbWV0YWxfYmluZGluZycsICctaW1hZScsICc8aW5maWxlLm1hZT4nLCAnLW9tYWUnLCAnPG91dGZpbGUubWFlPic=

> <r_lp_tautomer_probability>
1

> <r_epik_Ionization_Penalty>
0.119634

> <r_epik_Ionization_Penalty_Charging>
0

> <r_epik_Ionization_Penalty_Neutral>
0.119634

> <r_epik_State_Penalty>
0.10919

> <r_epik_Charging_Adjusted_Penalty>
0.10919

> <i_epik_Tot_Q>
0

> <i_epik_Tot_abs_Q>
0

> <r_epik_Metal_State_Penalty>
0.000119887

> <b_epik_Metal_Only>
0

> <s_lp_Force_Field>
OPLS_2005

> <r_lp_Energy>
16.8637

> <b_lp_Chiralities_Consistent>
1

> <s_lp_Variant>
AV-unprocessed.smi:2990-2

> <Gold.Version>
5.8.1

> <Gold.Id.Protein>
6NUR|6NUR_protein|mol2

> <Gold.PLP.Fitness>
49.3157

> <Gold.PLP.PLP>
-47.1755

> <Gold.PLP.part.hbond>
-2.0000

> <Gold.PLP.part.metal>
0.0000

> <Gold.PLP.part.buried>
-2.6828

> <Gold.PLP.part.nonpolar>
-43.2600

> <Gold.PLP.part.repulsive>
0.0867

> <Gold.PLP.ligand.clash>
0.0000

> <Gold.PLP.ligand.torsion>
1.0263

> <Gold.PLP.Chemscore.Hbond>
1.3776

> <Gold.PLP.Chemscore.CHOScore>
0.0000

> <Gold.PLP.Chemscore.Metal>
0.0000

> <Gold.Chemscore.Hbonds>
donor molecule, donor type, donor heavy atom, donor atom, acceptor molecule, acceptor atom, score
      P1  H  7989  7998       L1    15  1.00
      P1  H  7997  8008       L1    13  0.35

> <Gold.PLP.Chemscore.Internal.Correction>
0.0600

> <Gold.Rescore>
     Score         DG    S(hbond)    S(metal)    S(lipo)     H(rot)  DE(clash)    DE(int)     intcor
     16.78     -17.82       0.69        0.00     130.30       2.04       0.06       0.98       ----

> <Gold.Chemscore.Fitness>
16.7783

> <Gold.Chemscore.DG>
-17.8217

> <Gold.Chemscore.ZeroCoef>
-5.4800

> <Gold.Chemscore.Hbond>
0.6914

> <Gold.Chemscore.Metal>
0.0000

> <Gold.Chemscore.Lipo>
130.2992

> <Gold.Chemscore.Internal_Hbond>
0.0000

> <Gold.Chemscore.DEClash>
0.0592

> <Gold.Chemscore.DEInternal>
0.9842

> <Gold.Chemscore.Rot>
2.0361

> <Gold.Chemscore.Internal.Correction>
   9.000000E+99

> <Gold.Chemscore.Hbonds>
donor molecule, donor type, donor heavy atom, donor atom, acceptor molecule, acceptor atom, score
      P1  H  7989  7998       L1    15  0.49

> <Gold.Chemscore.Hbond.Weighted>
-2.3091

> <Gold.Chemscore.Metal.Weighted>
-0.0000

> <Gold.Chemscore.Lipo.Weighted>
-15.2450

> <Gold.Chemscore.Internal_Hbond.Weighted>
0.0000

> <Gold.Chemscore.DEClash.Weighted>
0.0592

> <Gold.Chemscore.DEInternal.Weighted>
0.9842

> <Gold.Chemscore.Rot.Weighted>
5.2124

> <Gold.Chemscore.Internal.Correction.Weighted>
   9.000000E+99

> <Gold.Protein.RotatedTorsions>
[ 6907 6896 6895 6894 ] final  -25.37 input  -60.11 | X-H torsion
[ 7974 7965 7964 7962 ] final   56.52 input  175.53 | X-H torsion
[ 8008 7997 7996 7995 ] final  -64.08 input   59.86 | X-H torsion
[ 10167 10162 10161 10158 ] final   90.65 input  -65.29 | X-H torsion
[ 10718 10713 10712 10709 ] final  -86.65 input   66.30 | X-H torsion
[ 10763 10752 10751 10750 ] final  112.43 input  -60.55 | X-H torsion
[ 11005 11000 10999 10996 ] final   -3.55 input  -57.11 | X-H torsion

> <Gold.Protein.ActiveResidues>
 VAL166  LYS551  ARG553  GLY616  TRP617  ASP618  TYR619  PRO620  LYS621  CYS622 
 ASP623  PHE694  ASN695  SER759  ASP760  ASP761  ALA762  ILE779  LEU786  VAL792 
 PHE793  MET794  SER795  GLU796  ALA797  LYS798  CYS799  TRP800  GLU811  SER814 

> <Gold.Protein.RotatedAtoms>
  151.1761  135.0340  159.8772 H   0  0  0  0  0  0  0  0  0  0  0  0  # atno 6907 bound_to 6896
  152.5447  134.1115  159.8370 H   0  0  0  0  0  0  0  0  0  0  0  0  # atno 6908 bound_to 6896
  151.1227  133.5046  159.2634 H   0  0  0  0  0  0  0  0  0  0  0  0  # atno 6909 bound_to 6896
  145.9389  139.3871  143.0376 H   0  0  0  0  0  0  0  0  0  0  0  0  # atno 7974 bound_to 7965
  154.4591  140.0961  156.6842 H   0  0  0  0  0  0  0  0  0  0  0  0  # atno 8008 bound_to 7997
  155.5048  140.3474  155.4359 H   0  0  0  0  0  0  0  0  0  0  0  0  # atno 8009 bound_to 7997
  156.0835  140.1379  156.9671 H   0  0  0  0  0  0  0  0  0  0  0  0  # atno 8010 bound_to 7997
  139.8452  144.6621  150.9235 H   0  0  0  0  0  0  0  0  0  0  0  0  # atno 10167 bound_to 10162
  155.9989  130.4772  150.4748 H   0  0  0  0  0  0  0  0  0  0  0  0  # atno 10718 bound_to 10713
  153.4777  135.3686  155.2425 H   0  0  0  0  0  0  0  0  0  0  0  0  # atno 10763 bound_to 10752
  154.8756  135.3947  154.3736 H   0  0  0  0  0  0  0  0  0  0  0  0  # atno 10764 bound_to 10752
  153.4335  135.7083  153.6280 H   0  0  0  0  0  0  0  0  0  0  0  0  # atno 10765 bound_to 10752
  140.6706  133.9240  155.8492 H   0  0  0  0  0  0  0  0  0  0  0  0  # atno 11005 bound_to 11000
  145.8327  140.9622  143.0841 LP  0  0  0  0  0  0  0  0  0  0  0  0  # atno 17320 bound_to 7965
  144.6776  140.0183  143.7484 LP  0  0  0  0  0  0  0  0  0  0  0  0  # atno 17321 bound_to 7965
  140.7794  143.3876  151.1366 LP  0  0  0  0  0  0  0  0  0  0  0  0  # atno 17342 bound_to 10162
  139.7519  143.8766  152.3079 LP  0  0  0  0  0  0  0  0  0  0  0  0  # atno 17343 bound_to 10162
  157.2759  131.0597  151.2229 LP  0  0  0  0  0  0  0  0  0  0  0  0  # atno 17370 bound_to 10713
  157.3293  130.6977  149.6315 LP  0  0  0  0  0  0  0  0  0  0  0  0  # atno 17371 bound_to 10713
  141.0395  134.0642  157.3919 LP  0  0  0  0  0  0  0  0  0  0  0  0  # atno 17394 bound_to 11000
  139.8983  135.0154  156.7141 LP  0  0  0  0  0  0  0  0  0  0  0  0  # atno 17395 bound_to 11000

$$$$
