AV-unprocessed.smi:160|AV-procd|sdf|1354|dock4
  -GOLD-   2262019 63D 1   1.00000     0.00000
 Structure written by MMmdl.
 29 30  0  0  0  0  0  0  0  0  1 V2000
  151.7820  137.5190  153.6897 N   0  0  0  0  0  0  0  0  0  0  0  0
  152.2127  138.1173  154.8051 C   0  0  0  0  0  0  0  0  0  0  0  0
  153.2133  137.7382  155.4114 O   0  0  0  0  0  0  0  0  0  0  0  0
  151.4038  139.2911  155.2837 C   0  0  0  0  0  0  0  0  0  0  0  0
  151.5762  139.8029  156.5381 N   0  0  0  0  0  0  0  0  0  0  0  0
  150.6805  140.7803  156.4880 C   0  0  0  0  0  0  0  0  0  0  0  0
  150.0154  140.8573  155.3307 N   0  0  0  0  0  0  0  0  0  0  0  0
  148.9668  141.8328  154.8994 C   0  0  1  0  0  0  0  0  0  0  0  0
  148.7431  141.6487  153.5326 O   0  0  0  0  0  0  0  0  0  0  0  0
  147.3836  141.3151  153.2541 C   0  0  1  0  0  0  0  0  0  0  0  0
  147.2849  139.8035  152.9505 C   0  0  0  0  0  0  0  0  0  0  0  0
  146.3091  139.5784  151.9556 O   0  0  0  0  0  0  0  0  0  0  0  0
  146.6304  141.7956  154.5062 C   0  0  1  0  0  0  0  0  0  0  0  0
  145.4377  141.0764  154.7536 O   0  0  0  0  0  0  0  0  0  0  0  0
  147.6353  141.6152  155.6347 C   0  0  2  0  0  0  0  0  0  0  0  0
  147.4139  142.6072  156.6176 O   0  0  0  0  0  0  0  0  0  0  0  0
  150.4898  139.8842  154.5142 N   0  0  0  0  0  0  0  0  0  0  0  0
  149.4082  142.8165  155.0684 H   0  0  0  0  0  0  0  0  0  0  0  0
  147.0362  141.8761  152.3852 H   0  0  0  0  0  0  0  0  0  0  0  0
  146.3907  142.8531  154.3810 H   0  0  0  0  0  0  0  0  0  0  0  0
  147.5809  140.6126  156.0610 H   0  0  0  0  0  0  0  0  0  0  0  0
  152.2832  136.7253  153.3185 H   0  0  0  0  0  0  0  0  0  0  0  0
  150.9558  137.8671  153.2254 H   0  0  0  0  0  0  0  0  0  0  0  0
  150.5052  141.4549  157.3132 H   0  0  0  0  0  0  0  0  0  0  0  0
  148.2385  139.3747  152.6517 H   0  0  0  0  0  0  0  0  0  0  0  0
  146.9542  139.2527  153.8306 H   0  0  0  0  0  0  0  0  0  0  0  0
  145.4539  139.6568  152.3500 H   0  0  0  0  0  0  0  0  0  0  0  0
  145.0136  140.9042  153.9268 H   0  0  0  0  0  0  0  0  0  0  0  0
  148.0520  143.2943  156.5009 H   0  0  0  0  0  0  0  0  0  0  0  0
  1  2  1  0  0  0  0
  1 22  1  0  0  0  0
  1 23  1  0  0  0  0
  2  3  2  0  0  0  0
  2  4  1  0  0  0  0
  4 17  2  0  0  0  0
  4  5  1  0  0  0  0
  5  6  2  0  0  0  0
  6  7  1  0  0  0  0
  6 24  1  0  0  0  0
  7  8  1  0  0  0  0
  7 17  1  0  0  0  0
  8 18  1  0  0  0  0
  8 15  1  0  0  0  0
  8  9  1  0  0  0  0
  9 10  1  0  0  0  0
 10 19  1  0  0  0  0
 10 11  1  0  0  0  0
 10 13  1  0  0  0  0
 11 12  1  0  0  0  0
 11 25  1  0  0  0  0
 11 26  1  0  0  0  0
 12 27  1  0  0  0  0
 13 20  1  0  0  0  0
 13 14  1  0  0  0  0
 13 15  1  0  0  0  0
 14 28  1  0  0  0  0
 15 21  1  0  0  0  0
 15 16  1  0  0  0  0
 16 29  1  0  0  0  0
M  END
> <s_m_source_file>
AV-unprocessed.smi

> <i_m_source_file_index>
160

> <i_lp_mmshare_version>
43012

> <i_f3d_flags>
0

> <s_epik_input>
W05IMl1DKD1PKWMxbltjSF1uKG4xKVtDQEBIXTJPW0NASF0oW0NIMl1bT0hdKVtDQEBIXShbT0hdKVtDQEhdMltPSF0=

> <s_epik_cmdline>
J2VwaWtfcHl0aG9uJywgJy1waCcsICc3LjAnLCAnLXRuJywgJzgnLCAnLW1hJywgJzIwMCcsICctbWV0YWxfYmluZGluZycsICctaW1hZScsICc8aW5maWxlLm1hZT4nLCAnLW9tYWUnLCAnPG91dGZpbGUubWFlPic=

> <r_lp_tautomer_probability>
1

> <r_epik_Ionization_Penalty>
1.06932e-05

> <r_epik_Ionization_Penalty_Charging>
0

> <r_epik_Ionization_Penalty_Neutral>
1.06932e-05

> <r_epik_State_Penalty>
-0

> <r_epik_Charging_Adjusted_Penalty>
0

> <i_epik_Tot_Q>
0

> <i_epik_Tot_abs_Q>
0

> <r_epik_Metal_State_Penalty>
0.0142097

> <b_epik_Metal_Only>
0

> <s_epik_Chemistry_Notes>
This compound contains an acetal/aminal-like group ( X-CH(R)-Y where X, Y are N, S, or O) that may be acid/base labile, releasing an aldehyde.

> <s_lp_Force_Field>
OPLS_2005

> <r_lp_Energy>
39.4321

> <b_lp_Chiralities_Consistent>
1

> <s_lp_Variant>
AV-unprocessed.smi:160-12

> <Gold.Version>
5.8.1

> <Gold.Id.Protein>
6NUR|6NUR_protein|mol2

> <Gold.PLP.Fitness>
40.3417

> <Gold.PLP.PLP>
-27.4741

> <Gold.PLP.part.hbond>
-7.0000

> <Gold.PLP.part.metal>
0.0000

> <Gold.PLP.part.buried>
0.3371

> <Gold.PLP.part.nonpolar>
-20.7199

> <Gold.PLP.part.repulsive>
1.3468

> <Gold.PLP.ligand.clash>
0.0000

> <Gold.PLP.ligand.torsion>
0.7665

> <Gold.PLP.Chemscore.Hbond>
4.7961

> <Gold.PLP.Chemscore.CHOScore>
0.0000

> <Gold.PLP.Chemscore.Metal>
0.0000

> <Gold.Chemscore.Hbonds>
donor molecule, donor type, donor heavy atom, donor atom, acceptor molecule, acceptor atom, score
      L1  H     1    22       P1  7949  0.08
      L1  H    12    27       P1 10175  1.00
      L1  H    14    28       P1 10175  1.00
      L1  H    16    29       P1  8028  0.90
      P1  H  7989  7998       L1    17  0.90
      P1  H  8011  8017       L1     9  0.69
      P1  H 10752 10765       L1     3  0.12

> <Gold.PLP.Chemscore.Internal.Correction>
0.0124

> <Gold.Rescore>
     Score         DG    S(hbond)    S(metal)    S(lipo)     H(rot)  DE(clash)    DE(int)     intcor
      7.50      -8.82       3.23        0.00      25.04       4.06       0.51       0.81       ----

> <Gold.Chemscore.Fitness>
7.4972

> <Gold.Chemscore.DG>
-8.8171

> <Gold.Chemscore.ZeroCoef>
-5.4800

> <Gold.Chemscore.Hbond>
3.2339

> <Gold.Chemscore.Metal>
0.0000

> <Gold.Chemscore.Lipo>
25.0399

> <Gold.Chemscore.Internal_Hbond>
0.0000

> <Gold.Chemscore.DEClash>
0.5077

> <Gold.Chemscore.DEInternal>
0.8122

> <Gold.Chemscore.Rot>
4.0600

> <Gold.Chemscore.Internal.Correction>
   9.000000E+99

> <Gold.Chemscore.Hbonds>
donor molecule, donor type, donor heavy atom, donor atom, acceptor molecule, acceptor atom, score
      L1  H     1    22       P1  7949  0.08
      L1  H    12    27       P1 10175  0.93
      L1  H    14    28       P1 10175  0.87
      L1  H    16    29       P1  8028  0.18
      P1  H  7989  7998       L1    17  0.05
      P1  H  8011  8017       L1     9  0.68
      P1  H 10752 10765       L1     3  0.03

> <Gold.Chemscore.Hbond.Weighted>
-10.8011

> <Gold.Chemscore.Metal.Weighted>
-0.0000

> <Gold.Chemscore.Lipo.Weighted>
-2.9297

> <Gold.Chemscore.Internal_Hbond.Weighted>
0.0000

> <Gold.Chemscore.DEClash.Weighted>
0.5077

> <Gold.Chemscore.DEInternal.Weighted>
0.8122

> <Gold.Chemscore.Rot.Weighted>
10.3936

> <Gold.Chemscore.Internal.Correction.Weighted>
   9.000000E+99

> <Gold.Protein.RotatedTorsions>
[ 6907 6896 6895 6894 ] final  -59.26 input  -60.11 | X-H torsion
[ 7974 7965 7964 7962 ] final  167.21 input  175.53 | X-H torsion
[ 8008 7997 7996 7995 ] final  -20.22 input   59.86 | X-H torsion
[ 10167 10162 10161 10158 ] final  -38.81 input  -65.29 | X-H torsion
[ 10718 10713 10712 10709 ] final -127.74 input   66.30 | X-H torsion
[ 10763 10752 10751 10750 ] final -158.50 input  -60.55 | X-H torsion
[ 11005 11000 10999 10996 ] final   61.72 input  -57.11 | X-H torsion

> <Gold.Protein.ActiveResidues>
 VAL166  LYS551  ARG553  GLY616  TRP617  ASP618  TYR619  PRO620  LYS621  CYS622 
 ASP623  PHE694  ASN695  SER759  ASP760  ASP761  ALA762  ILE779  LEU786  VAL792 
 PHE793  MET794  SER795  GLU796  ALA797  LYS798  CYS799  TRP800  GLU811  SER814 

> <Gold.Protein.RotatedAtoms>
  150.7944  134.6992  159.6539 H   0  0  0  0  0  0  0  0  0  0  0  0  # atno 6907 bound_to 6896
  152.4054  134.6213  160.0061 H   0  0  0  0  0  0  0  0  0  0  0  0  # atno 6908 bound_to 6896
  151.6472  133.3286  159.3179 H   0  0  0  0  0  0  0  0  0  0  0  0  # atno 6909 bound_to 6896
  144.7433  139.8728  143.6390 H   0  0  0  0  0  0  0  0  0  0  0  0  # atno 7974 bound_to 7965
  154.4784  140.2068  155.9822 H   0  0  0  0  0  0  0  0  0  0  0  0  # atno 8008 bound_to 7997
  156.1126  140.3226  155.8064 H   0  0  0  0  0  0  0  0  0  0  0  0  # atno 8009 bound_to 7997
  155.4608  140.0524  157.2982 H   0  0  0  0  0  0  0  0  0  0  0  0  # atno 8010 bound_to 7997
  140.7082  143.3254  151.2693 H   0  0  0  0  0  0  0  0  0  0  0  0  # atno 10167 bound_to 10162
  156.1885  130.6780  151.0395 H   0  0  0  0  0  0  0  0  0  0  0  0  # atno 10718 bound_to 10713
  154.7552  135.3103  154.8484 H   0  0  0  0  0  0  0  0  0  0  0  0  # atno 10763 bound_to 10752
  153.9260  135.6790  153.4750 H   0  0  0  0  0  0  0  0  0  0  0  0  # atno 10764 bound_to 10752
  153.1149  135.4849  154.9027 H   0  0  0  0  0  0  0  0  0  0  0  0  # atno 10765 bound_to 10752
  140.0142  134.6250  155.9735 H   0  0  0  0  0  0  0  0  0  0  0  0  # atno 11005 bound_to 11000
  146.1268  139.4295  143.0194 LP  0  0  0  0  0  0  0  0  0  0  0  0  # atno 17320 bound_to 7965
  145.7223  141.0071  143.1396 LP  0  0  0  0  0  0  0  0  0  0  0  0  # atno 17321 bound_to 7965
  139.6720  144.0003  152.2758 LP  0  0  0  0  0  0  0  0  0  0  0  0  # atno 17342 bound_to 10162
  139.9605  144.6561  150.8084 LP  0  0  0  0  0  0  0  0  0  0  0  0  # atno 17343 bound_to 10162
  157.6914  131.0808  150.7096 LP  0  0  0  0  0  0  0  0  0  0  0  0  # atno 17370 bound_to 10713
  156.7152  130.4664  149.5537 LP  0  0  0  0  0  0  0  0  0  0  0  0  # atno 17371 bound_to 10713
  141.1731  133.6538  156.4727 LP  0  0  0  0  0  0  0  0  0  0  0  0  # atno 17394 bound_to 11000
  140.4501  134.6937  157.5035 LP  0  0  0  0  0  0  0  0  0  0  0  0  # atno 17395 bound_to 11000

$$$$
