AV-unprocessed.smi:21|AV-procd|sdf|123|dock3
  -GOLD-   2262015303D 1   1.00000     0.00000
 Structure written by MMmdl.
 62 65  0  0  0  0  0  0  0  0  2 V2000
  145.7840  131.6989  149.8732 C   0  0  0  0  0  0  0  0  0  0  0  0
  145.9596  131.7036  151.2815 O   0  0  0  0  0  0  0  0  0  0  0  0
  145.5123  132.8990  151.9062 C   0  0  1  0  0  0  0  0  0  0  0  0
  145.8875  132.8650  153.3918 C   0  0  0  0  0  0  0  0  0  0  0  0
  147.1016  133.7893  153.5053 C   0  0  2  0  0  0  0  0  0  0  0  0
  147.3868  134.3298  154.9263 C   0  0  0  0  0  0  0  0  0  0  0  0
  148.7487  134.8360  155.0786 N   0  0  0  0  0  0  0  0  0  0  0  0
  149.8521  134.0168  154.5786 C   0  0  0  0  0  0  0  0  0  0  0  0
  149.0063  136.1006  155.5295 C   0  0  0  0  0  0  0  0  0  0  0  0
  148.0151  136.7462  156.2026 N   0  0  0  0  0  0  0  0  0  0  0  0
  148.1885  137.9843  156.6698 C   0  0  0  0  0  0  0  0  0  0  0  0
  149.2657  138.7620  156.5809 N   0  0  0  0  0  0  0  0  0  0  0  0
  150.2727  138.1334  155.9128 C   0  0  0  0  0  0  0  0  0  0  0  0
  150.2336  136.8190  155.3575 C   0  0  0  0  0  0  0  0  0  0  0  0
  151.4622  136.5436  154.7607 N   0  0  0  0  0  0  0  0  0  0  0  0
  152.1740  137.6197  154.9498 C   0  0  0  0  0  0  0  0  0  0  0  0
  151.5380  138.6230  155.6392 N   0  0  0  0  0  0  0  0  0  0  0  0
  152.0955  139.9183  155.9898 C   0  0  0  0  0  0  0  0  0  0  0  0
  151.0725  140.8553  156.6791 C   0  0  2  0  0  0  0  0  0  0  0  0
  150.1509  141.5805  155.6678 C   0  0  0  0  0  0  0  0  0  0  0  0
  150.6776  142.8385  155.2990 O   0  0  0  0  0  0  0  0  0  0  0  0
  151.7659  141.8431  157.6514 C   0  0  2  0  0  0  0  0  0  0  0  0
  152.4124  141.1978  158.8649 C   0  0  0  0  0  0  0  0  0  0  0  0
  152.5708  142.3823  159.8118 C   0  0  0  0  0  0  0  0  0  0  0  0
  151.4694  143.2410  159.5404 O   0  0  0  0  0  0  0  0  0  0  0  0
  150.8231  142.8379  158.3372 C   0  0  0  0  0  0  0  0  0  0  0  0
  146.8715  134.8325  152.4772 N   0  3  2  0  0  0  0  0  0  0  0  0
  146.0809  136.0076  152.9196 C   0  0  0  0  0  0  0  0  0  0  0  0
  146.2462  134.1298  151.3352 C   0  0  0  0  0  0  0  0  0  0  0  0
  144.4294  132.9982  151.8116 H   0  0  0  0  0  0  0  0  0  0  0  0
  147.9709  133.2269  153.1616 H   0  0  0  0  0  0  0  0  0  0  0  0
  146.1451  130.7553  149.4643 H   0  0  0  0  0  0  0  0  0  0  0  0
  146.3408  132.5048  149.3942 H   0  0  0  0  0  0  0  0  0  0  0  0
  144.7306  131.7970  149.6074 H   0  0  0  0  0  0  0  0  0  0  0  0
  145.0618  133.2639  153.9827 H   0  0  0  0  0  0  0  0  0  0  0  0
  146.0918  131.8572  153.7549 H   0  0  0  0  0  0  0  0  0  0  0  0
  146.6738  135.1038  155.2050 H   0  0  0  0  0  0  0  0  0  0  0  0
  147.2351  133.5364  155.6588 H   0  0  0  0  0  0  0  0  0  0  0  0
  150.5674  133.8067  155.3747 H   0  0  0  0  0  0  0  0  0  0  0  0
  150.3744  134.5253  153.7671 H   0  0  0  0  0  0  0  0  0  0  0  0
  149.4959  133.0604  154.1956 H   0  0  0  0  0  0  0  0  0  0  0  0
  147.3437  138.4128  157.1887 H   0  0  0  0  0  0  0  0  0  0  0  0
  153.1900  137.7112  154.5939 H   0  0  0  0  0  0  0  0  0  0  0  0
  152.9511  139.7396  156.6410 H   0  0  0  0  0  0  0  0  0  0  0  0
  152.4909  140.3862  155.0877 H   0  0  0  0  0  0  0  0  0  0  0  0
  150.4217  140.2196  157.2812 H   0  0  0  0  0  0  0  0  0  0  0  0
  150.0073  140.9833  154.7676 H   0  0  0  0  0  0  0  0  0  0  0  0
  149.1564  141.7300  156.0875 H   0  0  0  0  0  0  0  0  0  0  0  0
  149.9745  143.3738  154.9639 H   0  0  0  0  0  0  0  0  0  0  0  0
  152.5328  142.4056  157.1160 H   0  0  0  0  0  0  0  0  0  0  0  0
  151.7455  140.4545  159.3042 H   0  0  0  0  0  0  0  0  0  0  0  0
  153.3643  140.7148  158.6425 H   0  0  0  0  0  0  0  0  0  0  0  0
  152.5935  142.0805  160.8592 H   0  0  0  0  0  0  0  0  0  0  0  0
  153.4930  142.9221  159.5937 H   0  0  0  0  0  0  0  0  0  0  0  0
  150.5974  143.6992  157.7079 H   0  0  0  0  0  0  0  0  0  0  0  0
  149.8801  142.3581  158.6028 H   0  0  0  0  0  0  0  0  0  0  0  0
  145.1050  135.7092  153.3045 H   0  0  0  0  0  0  0  0  0  0  0  0
  145.9207  136.6920  152.0857 H   0  0  0  0  0  0  0  0  0  0  0  0
  146.6023  136.5691  153.6947 H   0  0  0  0  0  0  0  0  0  0  0  0
  147.0509  133.8129  150.6706 H   0  0  0  0  0  0  0  0  0  0  0  0
  145.5853  134.7715  150.7508 H   0  0  0  0  0  0  0  0  0  0  0  0
  147.7695  135.1874  152.1800 H   0  0  0  0  0  0  0  0  0  0  0  0
  1  2  1  0  0  0  0
  1 32  1  0  0  0  0
  1 33  1  0  0  0  0
  1 34  1  0  0  0  0
  2  3  1  0  0  0  0
  3 30  1  0  0  0  0
  3 29  1  0  0  0  0
  3  4  1  0  0  0  0
  4  5  1  0  0  0  0
  4 35  1  0  0  0  0
  4 36  1  0  0  0  0
  5 31  1  0  0  0  0
  5  6  1  0  0  0  0
  5 27  1  0  0  0  0
  6  7  1  0  0  0  0
  6 37  1  0  0  0  0
  6 38  1  0  0  0  0
  7  8  1  0  0  0  0
  7  9  1  0  0  0  0
  8 39  1  0  0  0  0
  8 40  1  0  0  0  0
  8 41  1  0  0  0  0
  9 14  1  0  0  0  0
  9 10  2  0  0  0  0
 10 11  1  0  0  0  0
 11 12  2  0  0  0  0
 11 42  1  0  0  0  0
 12 13  1  0  0  0  0
 13 17  1  0  0  0  0
 13 14  2  0  0  0  0
 14 15  1  0  0  0  0
 15 16  2  0  0  0  0
 16 17  1  0  0  0  0
 16 43  1  0  0  0  0
 17 18  1  0  0  0  0
 18 19  1  0  0  0  0
 18 44  1  0  0  0  0
 18 45  1  0  0  0  0
 19 20  1  0  0  0  0
 19 22  1  0  0  0  0
 19 46  1  0  0  0  0
 20 21  1  0  0  0  0
 20 47  1  0  0  0  0
 20 48  1  0  0  0  0
 21 49  1  0  0  0  0
 22 26  1  0  0  0  0
 22 23  1  0  0  0  0
 22 50  1  0  0  0  0
 23 24  1  0  0  0  0
 23 51  1  0  0  0  0
 23 52  1  0  0  0  0
 24 25  1  0  0  0  0
 24 53  1  0  0  0  0
 24 54  1  0  0  0  0
 25 26  1  0  0  0  0
 26 55  1  0  0  0  0
 26 56  1  0  0  0  0
 27 28  1  0  0  0  0
 27 29  1  0  0  0  0
 27 62  1  0  0  0  0
 28 57  1  0  0  0  0
 28 58  1  0  0  0  0
 28 59  1  0  0  0  0
 29 60  1  0  0  0  0
 29 61  1  0  0  0  0
M  CHG  1  27   1
M  END
> <s_m_source_file>
AV-unprocessed.smi

> <i_m_source_file_index>
21

> <i_lp_mmshare_version>
43012

> <i_f3d_flags>
0

> <s_epik_input>
W0NIM11PW0NASF0xW0NIMl1bQ0BIXShOKFtDSDNdKVtDSDJdMSlbQ0gyXU4oW0NIM10pYyhuW2NIXW4yKWMoYzIzKW5bY0hdbjNbQ0gyXVtDQEhdKFtDSDJdW09IXSlbQ0BASF00W0NIMl1bQ0gyXU9bQ0gyXTQ=

> <s_epik_cmdline>
J2VwaWtfcHl0aG9uJywgJy1waCcsICc3LjAnLCAnLXRuJywgJzgnLCAnLW1hJywgJzIwMCcsICctbWV0YWxfYmluZGluZycsICctaW1hZScsICc8aW5maWxlLm1hZT4nLCAnLW9tYWUnLCAnPG91dGZpbGUubWFlPic=

> <r_lp_tautomer_probability>
1

> <r_epik_Ionization_Penalty>
0.0157465

> <r_epik_Ionization_Penalty_Charging>
0.015354

> <r_epik_Ionization_Penalty_Neutral>
0.000392529

> <r_epik_State_Penalty>
0.0120612

> <r_epik_Charging_Adjusted_Penalty>
0.0274152

> <i_epik_Tot_Q>
1

> <i_epik_Tot_abs_Q>
1

> <r_epik_Metal_State_Penalty>
0.0121253

> <b_epik_Metal_Only>
0

> <s_lp_Force_Field>
OPLS_2005

> <r_lp_Energy>
63.0646

> <b_lp_Chiralities_Consistent>
1

> <s_lp_Variant>
AV-unprocessed.smi:21-3

> <Gold.Version>
5.8.1

> <Gold.Id.Protein>
6NUR|6NUR_protein|mol2

> <Gold.PLP.Fitness>
49.8744

> <Gold.PLP.PLP>
-39.7720

> <Gold.PLP.part.hbond>
-2.8207

> <Gold.PLP.part.metal>
0.0000

> <Gold.PLP.part.buried>
-5.2517

> <Gold.PLP.part.nonpolar>
-31.8987

> <Gold.PLP.part.repulsive>
0.6402

> <Gold.PLP.ligand.clash>
0.0000

> <Gold.PLP.ligand.torsion>
1.1054

> <Gold.PLP.Chemscore.Hbond>
3.8833

> <Gold.PLP.Chemscore.CHOScore>
0.0000

> <Gold.PLP.Chemscore.Metal>
0.0000

> <Gold.Chemscore.Hbonds>
donor molecule, donor type, donor heavy atom, donor atom, acceptor molecule, acceptor atom, score
      L1  H    21    49       P1  8028  0.72
      L1  H    27    62       P1  7948  2.00
      P1  H 10752 10764       L1    15  0.50

> <Gold.PLP.Chemscore.Internal.Correction>
0.6632

> <Gold.Rescore>
     Score         DG    S(hbond)    S(metal)    S(lipo)     H(rot)  DE(clash)    DE(int)     intcor
     11.53     -15.96       2.20        0.00      94.10       3.08       0.21       4.22       ----

> <Gold.Chemscore.Fitness>
11.5324

> <Gold.Chemscore.DG>
-15.9646

> <Gold.Chemscore.ZeroCoef>
-5.4800

> <Gold.Chemscore.Hbond>
2.2002

> <Gold.Chemscore.Metal>
0.0000

> <Gold.Chemscore.Lipo>
94.1045

> <Gold.Chemscore.Internal_Hbond>
0.0000

> <Gold.Chemscore.DEClash>
0.2144

> <Gold.Chemscore.DEInternal>
4.2178

> <Gold.Chemscore.Rot>
3.0758

> <Gold.Chemscore.Internal.Correction>
   9.000000E+99

> <Gold.Chemscore.Hbonds>
donor molecule, donor type, donor heavy atom, donor atom, acceptor molecule, acceptor atom, score
      L1  H    21    49       P1  8028  0.72
      L1  H    27    62       P1  7948  0.93
      P1  H 10752 10764       L1    15  0.02

> <Gold.Chemscore.Hbond.Weighted>
-7.3485

> <Gold.Chemscore.Metal.Weighted>
-0.0000

> <Gold.Chemscore.Lipo.Weighted>
-11.0102

> <Gold.Chemscore.Internal_Hbond.Weighted>
0.0000

> <Gold.Chemscore.DEClash.Weighted>
0.2144

> <Gold.Chemscore.DEInternal.Weighted>
4.2178

> <Gold.Chemscore.Rot.Weighted>
7.8741

> <Gold.Chemscore.Internal.Correction.Weighted>
   9.000000E+99

> <Gold.Protein.RotatedTorsions>
[ 6907 6896 6895 6894 ] final  159.83 input  -60.11 | X-H torsion
[ 7974 7965 7964 7962 ] final  131.75 input  175.53 | X-H torsion
[ 8008 7997 7996 7995 ] final  -26.12 input   59.86 | X-H torsion
[ 10167 10162 10161 10158 ] final -129.46 input  -65.29 | X-H torsion
[ 10718 10713 10712 10709 ] final   50.97 input   66.30 | X-H torsion
[ 10763 10752 10751 10750 ] final  -69.09 input  -60.55 | X-H torsion
[ 11005 11000 10999 10996 ] final  -37.41 input  -57.11 | X-H torsion

> <Gold.Protein.ActiveResidues>
 VAL166  LYS551  ARG553  GLY616  TRP617  ASP618  TYR619  PRO620  LYS621  CYS622 
 ASP623  PHE694  ASN695  SER759  ASP760  ASP761  ALA762  ILE779  LEU786  VAL792 
 PHE793  MET794  SER795  GLU796  ALA797  LYS798  CYS799  TRP800  GLU811  SER814 

> <Gold.Protein.RotatedAtoms>
  151.9798  133.3754  159.4102 H   0  0  0  0  0  0  0  0  0  0  0  0  # atno 6907 bound_to 6896
  150.6936  134.4051  159.5145 H   0  0  0  0  0  0  0  0  0  0  0  0  # atno 6908 bound_to 6896
  152.1768  134.8788  160.0580 H   0  0  0  0  0  0  0  0  0  0  0  0  # atno 6909 bound_to 6896
  145.0040  139.4284  143.5278 H   0  0  0  0  0  0  0  0  0  0  0  0  # atno 7974 bound_to 7965
  154.4441  140.1908  156.0725 H   0  0  0  0  0  0  0  0  0  0  0  0  # atno 8008 bound_to 7997
  156.0500  140.3309  155.7314 H   0  0  0  0  0  0  0  0  0  0  0  0  # atno 8009 bound_to 7997
  155.5571  140.0600  157.2828 H   0  0  0  0  0  0  0  0  0  0  0  0  # atno 8010 bound_to 7997
  139.9395  143.6179  152.2507 H   0  0  0  0  0  0  0  0  0  0  0  0  # atno 10167 bound_to 10162
  157.4935  130.8391  149.8231 H   0  0  0  0  0  0  0  0  0  0  0  0  # atno 10718 bound_to 10713
  154.3983  135.6037  153.5883 H   0  0  0  0  0  0  0  0  0  0  0  0  # atno 10763 bound_to 10752
  152.9788  135.5900  154.4214 H   0  0  0  0  0  0  0  0  0  0  0  0  # atno 10764 bound_to 10752
  154.4009  135.2843  155.2075 H   0  0  0  0  0  0  0  0  0  0  0  0  # atno 10765 bound_to 10752
  140.9949  133.6985  156.1917 H   0  0  0  0  0  0  0  0  0  0  0  0  # atno 11005 bound_to 11000
  146.3457  139.9445  142.8736 LP  0  0  0  0  0  0  0  0  0  0  0  0  # atno 17320 bound_to 7965
  145.2114  140.9897  143.4098 LP  0  0  0  0  0  0  0  0  0  0  0  0  # atno 17321 bound_to 7965
  139.6716  144.7660  151.1773 LP  0  0  0  0  0  0  0  0  0  0  0  0  # atno 17342 bound_to 10162
  140.7615  143.5857  150.8848 LP  0  0  0  0  0  0  0  0  0  0  0  0  # atno 17343 bound_to 10162
  156.0187  130.3803  150.2029 LP  0  0  0  0  0  0  0  0  0  0  0  0  # atno 17370 bound_to 10713
  157.0218  130.9981  151.3337 LP  0  0  0  0  0  0  0  0  0  0  0  0  # atno 17371 bound_to 10713
  140.6981  134.4594  157.5587 LP  0  0  0  0  0  0  0  0  0  0  0  0  # atno 17394 bound_to 11000
  139.9010  134.8556  156.1896 LP  0  0  0  0  0  0  0  0  0  0  0  0  # atno 17395 bound_to 11000

$$$$
