AV-unprocessed.smi:2079|AV-procd|sdf|8477|dock1
  -GOLD-   2272011183D 1   1.00000     0.00000
 Structure written by MMmdl.
 42 43  0  0  0  0  0  0  0  0  2 V2000
  153.5049  137.5669  156.5979 C   0  0  0  0  0  0  0  0  0  0  0  0
  152.5314  138.2949  155.7358 C   0  0  0  0  0  0  0  0  0  0  0  0
  151.4226  137.8964  155.0432 C   0  0  0  0  0  0  0  0  0  0  0  0
  150.9770  139.0994  154.4339 C   0  0  0  0  0  0  0  0  0  0  0  0
  149.8261  139.1133  153.6051 N   0  0  0  0  0  0  0  0  0  0  0  0
  148.5894  138.6887  153.9160 C   0  0  0  0  0  0  0  0  0  0  0  0
  148.2543  138.2069  154.9985 O   0  0  0  0  0  0  0  0  0  0  0  0
  147.7425  138.8503  152.8888 N   0  0  0  0  0  0  0  0  0  0  0  0
  146.3281  138.4965  152.9154 C   0  0  0  0  0  0  0  0  0  0  0  0
  145.9718  137.5085  151.7866 C   0  0  0  0  0  0  0  0  0  0  0  0
  146.4153  136.1147  152.0586 N   0  3  2  0  0  0  0  0  0  0  0  0
  145.8784  135.1548  151.0557 C   0  0  0  0  0  0  0  0  0  0  0  0
  146.5170  133.7655  151.2094 C   0  0  0  0  0  0  0  0  0  0  0  0
  146.3332  133.2282  152.6328 C   0  0  0  0  0  0  0  0  0  0  0  0
  146.8776  134.2432  153.6469 C   0  0  0  0  0  0  0  0  0  0  0  0
  146.2477  135.6417  153.4695 C   0  0  2  0  0  0  0  0  0  0  0  0
  144.7881  135.6912  153.9706 C   0  0  0  0  0  0  0  0  0  0  0  0
  151.7411  140.1393  154.7318 N   0  0  0  0  0  0  0  0  0  0  0  0
  152.7420  139.6286  155.5667 O   0  0  0  0  0  0  0  0  0  0  0  0
  153.1299  136.5770  156.8585 H   0  0  0  0  0  0  0  0  0  0  0  0
  153.6879  138.1137  157.5233 H   0  0  0  0  0  0  0  0  0  0  0  0
  154.4578  137.4430  156.0834 H   0  0  0  0  0  0  0  0  0  0  0  0
  151.0030  136.9031  154.9823 H   0  0  0  0  0  0  0  0  0  0  0  0
  149.9590  139.4911  152.6786 H   0  0  0  0  0  0  0  0  0  0  0  0
  148.0980  139.2538  152.0340 H   0  0  0  0  0  0  0  0  0  0  0  0
  146.0649  138.0804  153.8895 H   0  0  0  0  0  0  0  0  0  0  0  0
  145.7697  139.4258  152.8086 H   0  0  0  0  0  0  0  0  0  0  0  0
  144.9025  137.5337  151.5759 H   0  0  0  0  0  0  0  0  0  0  0  0
  146.4633  137.8419  150.8716 H   0  0  0  0  0  0  0  0  0  0  0  0
  144.7937  135.0876  151.1444 H   0  0  0  0  0  0  0  0  0  0  0  0
  146.0833  135.5237  150.0499 H   0  0  0  0  0  0  0  0  0  0  0  0
  146.0799  133.0728  150.4895 H   0  0  0  0  0  0  0  0  0  0  0  0
  147.5807  133.8246  150.9747 H   0  0  0  0  0  0  0  0  0  0  0  0
  145.2777  133.0329  152.8245 H   0  0  0  0  0  0  0  0  0  0  0  0
  146.8496  132.2743  152.7436 H   0  0  0  0  0  0  0  0  0  0  0  0
  146.7165  133.8797  154.6624 H   0  0  0  0  0  0  0  0  0  0  0  0
  147.9589  134.3206  153.5237 H   0  0  0  0  0  0  0  0  0  0  0  0
  146.8255  136.3045  154.1123 H   0  0  0  0  0  0  0  0  0  0  0  0
  144.7208  135.3179  154.9927 H   0  0  0  0  0  0  0  0  0  0  0  0
  144.1183  135.0851  153.3613 H   0  0  0  0  0  0  0  0  0  0  0  0
  144.3983  136.7086  153.9840 H   0  0  0  0  0  0  0  0  0  0  0  0
  147.4129  136.1230  151.9000 H   0  0  0  0  0  0  0  0  0  0  0  0
  1  2  1  0  0  0  0
  1 20  1  0  0  0  0
  1 21  1  0  0  0  0
  1 22  1  0  0  0  0
  2 19  1  0  0  0  0
  2  3  2  0  0  0  0
  3  4  1  0  0  0  0
  3 23  1  0  0  0  0
  4  5  1  0  0  0  0
  4 18  2  0  0  0  0
  5  6  1  0  0  0  0
  5 24  1  0  0  0  0
  6  7  2  0  0  0  0
  6  8  1  0  0  0  0
  8  9  1  0  0  0  0
  8 25  1  0  0  0  0
  9 10  1  0  0  0  0
  9 26  1  0  0  0  0
  9 27  1  0  0  0  0
 10 11  1  0  0  0  0
 10 28  1  0  0  0  0
 10 29  1  0  0  0  0
 11 16  1  0  0  0  0
 11 12  1  0  0  0  0
 11 42  1  0  0  0  0
 12 13  1  0  0  0  0
 12 30  1  0  0  0  0
 12 31  1  0  0  0  0
 13 14  1  0  0  0  0
 13 32  1  0  0  0  0
 13 33  1  0  0  0  0
 14 15  1  0  0  0  0
 14 34  1  0  0  0  0
 14 35  1  0  0  0  0
 15 16  1  0  0  0  0
 15 36  1  0  0  0  0
 15 37  1  0  0  0  0
 16 17  1  0  0  0  0
 16 38  1  0  0  0  0
 17 39  1  0  0  0  0
 17 40  1  0  0  0  0
 17 41  1  0  0  0  0
 18 19  1  0  0  0  0
M  CHG  1  11   1
M  END
> <s_m_source_file>
AV-unprocessed.smi

> <i_m_source_file_index>
2079

> <i_lp_mmshare_version>
43012

> <i_f3d_flags>
0

> <s_epik_input>
W0NIM11jMVtjSF1jKG5vMSlbTkhdQyg9TylbTkhdW0NIMl1bQ0gyXU4yW0NIMl1bQ0gyXVtDSDJdW0NIMl1bQ0BIXTJbQ0gzXQ==

> <s_epik_cmdline>
J2VwaWtfcHl0aG9uJywgJy1waCcsICc3LjAnLCAnLXRuJywgJzgnLCAnLW1hJywgJzIwMCcsICctbWV0YWxfYmluZGluZycsICctaW1hZScsICc8aW5maWxlLm1hZT4nLCAnLW9tYWUnLCAnPG91dGZpbGUubWFlPic=

> <r_epik_Ionization_Penalty>
0.00265971

> <r_epik_Ionization_Penalty_Charging>
0.00262393

> <r_epik_Ionization_Penalty_Neutral>
3.57846e-05

> <r_epik_State_Penalty>
0.00182566

> <r_epik_Charging_Adjusted_Penalty>
0.00444959

> <i_epik_Tot_Q>
1

> <i_epik_Tot_abs_Q>
1

> <r_epik_Metal_State_Penalty>
0.0216344

> <b_epik_Metal_Only>
0

> <s_lp_Force_Field>
OPLS_2005

> <r_lp_Energy>
16.7127

> <b_lp_Chiralities_Consistent>
1

> <s_lp_Variant>
AV-unprocessed.smi:2079-3

> <Gold.Version>
5.8.1

> <Gold.Id.Protein>
6NUR|6NUR_protein|mol2

> <Gold.PLP.Fitness>
44.5923

> <Gold.PLP.PLP>
-27.8981

> <Gold.PLP.part.hbond>
-5.8179

> <Gold.PLP.part.metal>
0.0000

> <Gold.PLP.part.buried>
-2.3576

> <Gold.PLP.part.nonpolar>
-20.4374

> <Gold.PLP.part.repulsive>
0.3505

> <Gold.PLP.ligand.clash>
0.0000

> <Gold.PLP.ligand.torsion>
0.6865

> <Gold.PLP.Chemscore.Hbond>
5.9920

> <Gold.PLP.Chemscore.CHOScore>
0.0000

> <Gold.PLP.Chemscore.Metal>
0.0000

> <Gold.Chemscore.Hbonds>
donor molecule, donor type, donor heavy atom, donor atom, acceptor molecule, acceptor atom, score
      L1  H     5    24       P1  7957  1.00
      L1  H     8    25       P1  7957  0.94
      L1  H    11    42       P1  7948  1.95
      P1  H  7989  7998       L1    18  0.73
      P1  H  7997  8010       L1    19  1.00

> <Gold.PLP.Chemscore.Internal.Correction>
0.0912

> <Gold.Rescore>
     Score         DG    S(hbond)    S(metal)    S(lipo)     H(rot)  DE(clash)    DE(int)     intcor
     21.66     -22.24       4.38        0.00      52.56       1.57       0.04       0.54       ----

> <Gold.Chemscore.Fitness>
21.6597

> <Gold.Chemscore.DG>
-22.2413

> <Gold.Chemscore.ZeroCoef>
-5.4800

> <Gold.Chemscore.Hbond>
4.3801

> <Gold.Chemscore.Metal>
0.0000

> <Gold.Chemscore.Lipo>
52.5648

> <Gold.Chemscore.Internal_Hbond>
0.0000

> <Gold.Chemscore.DEClash>
0.0411

> <Gold.Chemscore.DEInternal>
0.5404

> <Gold.Chemscore.Rot>
1.5697

> <Gold.Chemscore.Internal.Correction>
   9.000000E+99

> <Gold.Chemscore.Hbonds>
donor molecule, donor type, donor heavy atom, donor atom, acceptor molecule, acceptor atom, score
      L1  H     5    24       P1  7957  0.97
      L1  H     8    25       P1  7957  0.91
      L1  H    11    42       P1  7948  0.91
      P1  H  7989  7998       L1    18  0.17
      P1  H  7997  8010       L1    19  0.88

> <Gold.Chemscore.Hbond.Weighted>
-14.6297

> <Gold.Chemscore.Metal.Weighted>
-0.0000

> <Gold.Chemscore.Lipo.Weighted>
-6.1501

> <Gold.Chemscore.Internal_Hbond.Weighted>
0.0000

> <Gold.Chemscore.DEClash.Weighted>
0.0411

> <Gold.Chemscore.DEInternal.Weighted>
0.5404

> <Gold.Chemscore.Rot.Weighted>
4.0185

> <Gold.Chemscore.Internal.Correction.Weighted>
   9.000000E+99

> <Gold.Protein.RotatedTorsions>
[ 6907 6896 6895 6894 ] final  100.25 input  -60.11 | X-H torsion
[ 7974 7965 7964 7962 ] final  110.98 input  175.53 | X-H torsion
[ 8008 7997 7996 7995 ] final   96.04 input   59.86 | X-H torsion
[ 10167 10162 10161 10158 ] final   23.35 input  -65.29 | X-H torsion
[ 10718 10713 10712 10709 ] final   24.51 input   66.30 | X-H torsion
[ 10763 10752 10751 10750 ] final  -75.21 input  -60.55 | X-H torsion
[ 11005 11000 10999 10996 ] final  -69.48 input  -57.11 | X-H torsion

> <Gold.Protein.ActiveResidues>
 VAL166  LYS551  ARG553  GLY616  TRP617  ASP618  TYR619  PRO620  LYS621  CYS622 
 ASP623  PHE694  ASN695  SER759  ASP760  ASP761  ALA762  ILE779  LEU786  VAL792 
 PHE793  MET794  SER795  GLU796  ALA797  LYS798  CYS799  TRP800  GLU811  SER814 

> <Gold.Protein.RotatedAtoms>
  152.5376  134.0305  159.8022 H   0  0  0  0  0  0  0  0  0  0  0  0  # atno 6907 bound_to 6896
  151.0476  133.5644  159.2652 H   0  0  0  0  0  0  0  0  0  0  0  0  # atno 6908 bound_to 6896
  151.2590  135.0655  159.9144 H   0  0  0  0  0  0  0  0  0  0  0  0  # atno 6909 bound_to 6896
  145.2480  139.2751  143.4082 H   0  0  0  0  0  0  0  0  0  0  0  0  # atno 7974 bound_to 7965
  156.0753  140.3278  155.7626 H   0  0  0  0  0  0  0  0  0  0  0  0  # atno 8008 bound_to 7997
  155.5240  140.0587  157.2919 H   0  0  0  0  0  0  0  0  0  0  0  0  # atno 8009 bound_to 7997
  154.4552  140.1939  156.0418 H   0  0  0  0  0  0  0  0  0  0  0  0  # atno 8010 bound_to 7997
  140.5276  143.9896  150.6448 H   0  0  0  0  0  0  0  0  0  0  0  0  # atno 10167 bound_to 10162
  157.1807  130.6801  149.6112 H   0  0  0  0  0  0  0  0  0  0  0  0  # atno 10718 bound_to 10713
  154.4835  135.5839  153.6407 H   0  0  0  0  0  0  0  0  0  0  0  0  # atno 10763 bound_to 10752
  152.9851  135.6095  154.3216 H   0  0  0  0  0  0  0  0  0  0  0  0  # atno 10764 bound_to 10752
  154.3109  135.2845  155.2545 H   0  0  0  0  0  0  0  0  0  0  0  0  # atno 10765 bound_to 10752
  141.1555  133.6765  156.6606 H   0  0  0  0  0  0  0  0  0  0  0  0  # atno 11005 bound_to 11000
  146.3310  140.2862  142.8613 LP  0  0  0  0  0  0  0  0  0  0  0  0  # atno 17320 bound_to 7965
  144.9529  140.8196  143.5561 LP  0  0  0  0  0  0  0  0  0  0  0  0  # atno 17321 bound_to 7965
  140.3262  143.3106  152.0734 LP  0  0  0  0  0  0  0  0  0  0  0  0  # atno 17342 bound_to 10162
  139.4943  144.6540  151.6613 LP  0  0  0  0  0  0  0  0  0  0  0  0  # atno 17343 bound_to 10162
  155.9725  130.4647  150.6229 LP  0  0  0  0  0  0  0  0  0  0  0  0  # atno 17370 bound_to 10713
  157.3955  131.0802  151.1355 LP  0  0  0  0  0  0  0  0  0  0  0  0  # atno 17371 bound_to 10713
  140.3250  134.7976  157.4282 LP  0  0  0  0  0  0  0  0  0  0  0  0  # atno 17394 bound_to 11000
  140.1064  134.5403  155.8305 LP  0  0  0  0  0  0  0  0  0  0  0  0  # atno 17395 bound_to 11000

$$$$
