AV-unprocessed.smi:1196|AV-procd|sdf|4998|dock1
  -GOLD-   22720 4 03D 1   1.00000     0.00000
 Structure written by MMmdl.
 37 38  0  0  0  0  0  0  0  0  1 V2000
  152.6964  142.3546  162.3884 C   0  0  0  0  0  0  0  0  0  0  0  0
  153.4862  141.8911  161.1545 C   0  0  2  0  0  0  0  0  0  0  0  0
  152.5515  141.5862  159.9675 C   0  0  0  0  0  0  0  0  0  0  0  0
  151.8651  142.7704  159.4818 N   0  0  0  0  0  0  0  0  0  0  0  0
  152.4081  143.9774  159.0937 C   0  0  0  0  0  0  0  0  0  0  0  0
  151.3739  144.7859  158.7180 C   0  0  0  0  0  0  0  0  0  0  0  0
  150.2221  143.9732  158.9115 C   0  0  0  0  0  0  0  0  0  0  0  0
  150.5195  142.7669  159.3670 N   0  0  0  0  0  0  0  0  0  0  0  0
  154.2790  140.7077  161.4833 N   0  0  0  0  0  0  0  0  0  0  0  0
  155.0657  140.0360  160.6293 C   0  0  0  0  0  0  0  0  0  0  0  0
  155.2345  140.3757  159.4577 O   0  0  0  0  0  0  0  0  0  0  0  0
  155.7534  138.7913  161.1989 C   0  0  0  0  0  0  0  0  0  0  0  0
  155.2960  137.4744  160.5407 C   0  0  0  0  0  0  0  0  0  0  0  0
  156.2238  136.2859  160.8578 C   0  0  1  0  0  0  0  0  0  0  0  0
  156.2250  135.9345  162.2678 N   0  0  0  0  0  0  0  0  0  0  0  0
  155.8138  134.6776  162.4835 C   0  0  0  0  0  0  0  0  0  0  0  0
  155.7213  134.1262  163.5777 O   0  0  0  0  0  0  0  0  0  0  0  0
  155.5217  134.1301  161.2989 N   0  0  0  0  0  0  0  0  0  0  0  0
  155.7134  134.9745  160.2871 C   0  0  0  0  0  0  0  0  0  0  0  0
  155.5178  134.7556  159.0931 O   0  0  0  0  0  0  0  0  0  0  0  0
  152.1085  143.2451  162.1645 H   0  0  0  0  0  0  0  0  0  0  0  0
  153.3632  142.6029  163.2148 H   0  0  0  0  0  0  0  0  0  0  0  0
  152.0102  141.5812  162.7345 H   0  0  0  0  0  0  0  0  0  0  0  0
  154.1552  142.7015  160.8583 H   0  0  0  0  0  0  0  0  0  0  0  0
  153.1107  141.1428  159.1423 H   0  0  0  0  0  0  0  0  0  0  0  0
  151.7977  140.8541  160.2606 H   0  0  0  0  0  0  0  0  0  0  0  0
  153.4723  144.1592  159.1199 H   0  0  0  0  0  0  0  0  0  0  0  0
  151.4310  145.8029  158.3597 H   0  0  0  0  0  0  0  0  0  0  0  0
  149.1860  144.2222  158.7360 H   0  0  0  0  0  0  0  0  0  0  0  0
  154.2020  140.3581  162.4273 H   0  0  0  0  0  0  0  0  0  0  0  0
  156.8316  138.9052  161.0788 H   0  0  0  0  0  0  0  0  0  0  0  0
  155.5581  138.7603  162.2714 H   0  0  0  0  0  0  0  0  0  0  0  0
  154.2777  137.2396  160.8570 H   0  0  0  0  0  0  0  0  0  0  0  0
  155.2551  137.6112  159.4588 H   0  0  0  0  0  0  0  0  0  0  0  0
  157.2427  136.4712  160.5152 H   0  0  0  0  0  0  0  0  0  0  0  0
  156.5067  136.5763  162.9945 H   0  0  0  0  0  0  0  0  0  0  0  0
  155.1838  133.1854  161.1855 H   0  0  0  0  0  0  0  0  0  0  0  0
  1  2  1  0  0  0  0
  1 21  1  0  0  0  0
  1 22  1  0  0  0  0
  1 23  1  0  0  0  0
  2  3  1  0  0  0  0
  2  9  1  0  0  0  0
  2 24  1  0  0  0  0
  3  4  1  0  0  0  0
  3 25  1  0  0  0  0
  3 26  1  0  0  0  0
  4  8  1  0  0  0  0
  4  5  1  0  0  0  0
  5  6  2  0  0  0  0
  5 27  1  0  0  0  0
  6  7  1  0  0  0  0
  6 28  1  0  0  0  0
  7  8  2  0  0  0  0
  7 29  1  0  0  0  0
  9 10  1  0  0  0  0
  9 30  1  0  0  0  0
 10 11  2  0  0  0  0
 10 12  1  0  0  0  0
 12 13  1  0  0  0  0
 12 31  1  0  0  0  0
 12 32  1  0  0  0  0
 13 14  1  0  0  0  0
 13 33  1  0  0  0  0
 13 34  1  0  0  0  0
 14 19  1  0  0  0  0
 14 15  1  0  0  0  0
 14 35  1  0  0  0  0
 15 16  1  0  0  0  0
 15 36  1  0  0  0  0
 16 17  2  0  0  0  0
 16 18  1  0  0  0  0
 18 19  1  0  0  0  0
 18 37  1  0  0  0  0
 19 20  2  0  0  0  0
M  END
> <s_m_source_file>
AV-unprocessed.smi

> <i_m_source_file_index>
1196

> <i_lp_mmshare_version>
43012

> <i_f3d_flags>
0

> <s_epik_input>
bjFbY0hdW2NIXVtjSF1uMVtDSDJdW0NAQEhdKFtDSDNdKVtOSF1DKD1PKVtDSDJdW0NIMl1bQ0BASF0yW05IXUMoPU8pW05IXUMyPU8=

> <s_epik_cmdline>
J2VwaWtfcHl0aG9uJywgJy1waCcsICc3LjAnLCAnLXRuJywgJzgnLCAnLW1hJywgJzIwMCcsICctbWV0YWxfYmluZGluZycsICctaW1hZScsICc8aW5maWxlLm1hZT4nLCAnLW9tYWUnLCAnPG91dGZpbGUubWFlPic=

> <r_lp_tautomer_probability>
1

> <r_epik_Ionization_Penalty>
0.00815973

> <r_epik_Ionization_Penalty_Charging>
0

> <r_epik_Ionization_Penalty_Neutral>
0.00815973

> <r_epik_State_Penalty>
0.00583796

> <r_epik_Charging_Adjusted_Penalty>
0.00583796

> <i_epik_Tot_Q>
0

> <i_epik_Tot_abs_Q>
0

> <r_epik_Metal_State_Penalty>
0.409204

> <b_epik_Metal_Only>
0

> <s_lp_Force_Field>
OPLS_2005

> <r_lp_Energy>
16.3903

> <b_lp_Chiralities_Consistent>
1

> <s_lp_Variant>
AV-unprocessed.smi:1196-3

> <Gold.Version>
5.8.1

> <Gold.Id.Protein>
6NUR|6NUR_protein|mol2

> <Gold.PLP.Fitness>
45.7471

> <Gold.PLP.PLP>
-36.7167

> <Gold.PLP.part.hbond>
-2.0000

> <Gold.PLP.part.metal>
0.0000

> <Gold.PLP.part.buried>
-5.4266

> <Gold.PLP.part.nonpolar>
-28.9533

> <Gold.PLP.part.repulsive>
0.1912

> <Gold.PLP.ligand.clash>
0.0000

> <Gold.PLP.ligand.torsion>
0.1596

> <Gold.PLP.Chemscore.Hbond>
1.9913

> <Gold.PLP.Chemscore.CHOScore>
1.0708

> <Gold.PLP.Chemscore.Metal>
0.0000

> <Gold.Chemscore.Hbonds>
donor molecule, donor type, donor heavy atom, donor atom, acceptor molecule, acceptor atom, score
      P1  H  7997  8009       L1    11  0.68
      L1  C     7    29       P1  8029  0.83

> <Gold.PLP.Chemscore.Internal.Correction>
0.1633

> <Gold.Rescore>
     Score         DG    S(hbond)    S(metal)    S(lipo)     H(rot)  DE(clash)    DE(int)     intcor
     13.77     -14.00       1.96        0.00      81.66       2.96       0.04       0.19       ----

> <Gold.Chemscore.Fitness>
13.7676

> <Gold.Chemscore.DG>
-13.9962

> <Gold.Chemscore.ZeroCoef>
-5.4800

> <Gold.Chemscore.Hbond>
1.9559

> <Gold.Chemscore.Metal>
0.0000

> <Gold.Chemscore.Lipo>
81.6648

> <Gold.Chemscore.Internal_Hbond>
0.0000

> <Gold.Chemscore.DEClash>
0.0402

> <Gold.Chemscore.DEInternal>
0.1883

> <Gold.Chemscore.Rot>
2.9575

> <Gold.Chemscore.Internal.Correction>
   9.000000E+99

> <Gold.Chemscore.Hbonds>
donor molecule, donor type, donor heavy atom, donor atom, acceptor molecule, acceptor atom, score
      P1  H  7997  8009       L1    11  0.67

> <Gold.Chemscore.Hbond.Weighted>
-6.5327

> <Gold.Chemscore.Metal.Weighted>
-0.0000

> <Gold.Chemscore.Lipo.Weighted>
-9.5548

> <Gold.Chemscore.Internal_Hbond.Weighted>
0.0000

> <Gold.Chemscore.DEClash.Weighted>
0.0402

> <Gold.Chemscore.DEInternal.Weighted>
0.1883

> <Gold.Chemscore.Rot.Weighted>
7.5713

> <Gold.Chemscore.Internal.Correction.Weighted>
   9.000000E+99

> <Gold.Protein.RotatedTorsions>
[ 6907 6896 6895 6894 ] final -147.71 input  -60.11 | X-H torsion
[ 7974 7965 7964 7962 ] final -125.41 input  175.53 | X-H torsion
[ 8008 7997 7996 7995 ] final  106.20 input   59.86 | X-H torsion
[ 10167 10162 10161 10158 ] final   30.17 input  -65.29 | X-H torsion
[ 10718 10713 10712 10709 ] final -158.40 input   66.30 | X-H torsion
[ 10763 10752 10751 10750 ] final  118.89 input  -60.55 | X-H torsion
[ 11005 11000 10999 10996 ] final  -27.14 input  -57.11 | X-H torsion

> <Gold.Protein.ActiveResidues>
 VAL166  LYS551  ARG553  GLY616  TRP617  ASP618  TYR619  PRO620  LYS621  CYS622 
 ASP623  PHE694  ASN695  SER759  ASP760  ASP761  ALA762  ILE779  LEU786  VAL792 
 PHE793  MET794  SER795  GLU796  ALA797  LYS798  CYS799  TRP800  GLU811  SER814 

> <Gold.Protein.RotatedAtoms>
  151.1595  133.4854  159.2594 H   0  0  0  0  0  0  0  0  0  0  0  0  # atno 6907 bound_to 6896
  151.1469  135.0207  159.8661 H   0  0  0  0  0  0  0  0  0  0  0  0  # atno 6908 bound_to 6896
  152.5463  134.1483  159.8561 H   0  0  0  0  0  0  0  0  0  0  0  0  # atno 6909 bound_to 6896
  144.9979  140.7793  143.4514 H   0  0  0  0  0  0  0  0  0  0  0  0  # atno 7974 bound_to 7965
  156.1723  140.3117  155.8995 H   0  0  0  0  0  0  0  0  0  0  0  0  # atno 8008 bound_to 7997
  155.3561  140.0474  157.3063 H   0  0  0  0  0  0  0  0  0  0  0  0  # atno 8009 bound_to 7997
  154.5253  140.2212  155.8911 H   0  0  0  0  0  0  0  0  0  0  0  0  # atno 8010 bound_to 7997
  140.4702  144.0774  150.6235 H   0  0  0  0  0  0  0  0  0  0  0  0  # atno 10167 bound_to 10162
  156.5536  130.8616  151.2788 H   0  0  0  0  0  0  0  0  0  0  0  0  # atno 10718 bound_to 10713
  153.5746  135.3495  155.2851 H   0  0  0  0  0  0  0  0  0  0  0  0  # atno 10763 bound_to 10752
  154.8677  135.4167  154.2687 H   0  0  0  0  0  0  0  0  0  0  0  0  # atno 10764 bound_to 10752
  153.3461  135.7052  153.6897 H   0  0  0  0  0  0  0  0  0  0  0  0  # atno 10765 bound_to 10752
  140.9092  133.7472  156.0648 H   0  0  0  0  0  0  0  0  0  0  0  0  # atno 11005 bound_to 11000
  145.2194  139.2166  143.5101 LP  0  0  0  0  0  0  0  0  0  0  0  0  # atno 17320 bound_to 7965
  146.3446  140.2049  142.8589 LP  0  0  0  0  0  0  0  0  0  0  0  0  # atno 17321 bound_to 7965
  140.3987  143.2715  151.9974 LP  0  0  0  0  0  0  0  0  0  0  0  0  # atno 17342 bound_to 10162
  139.4817  144.6016  151.7595 LP  0  0  0  0  0  0  0  0  0  0  0  0  # atno 17343 bound_to 10162
  157.7382  130.9810  150.2241 LP  0  0  0  0  0  0  0  0  0  0  0  0  # atno 17370 bound_to 10713
  156.2862  130.3739  149.7886 LP  0  0  0  0  0  0  0  0  0  0  0  0  # atno 17371 bound_to 10713
  140.8131  134.3376  157.5405 LP  0  0  0  0  0  0  0  0  0  0  0  0  # atno 17394 bound_to 11000
  139.8754  134.9266  156.3404 LP  0  0  0  0  0  0  0  0  0  0  0  0  # atno 17395 bound_to 11000

$$$$
