AV-unprocessed.smi:2078|AV-procd|sdf|8466|dock3
  -GOLD-   2272011163D 1   1.00000     0.00000
 Structure written by MMmdl.
 42 43  0  0  0  0  0  0  0  0  2 V2000
  137.1291  142.2602  154.1620 C   0  0  0  0  0  0  0  0  0  0  0  0
  137.9897  141.0435  154.1768 C   0  0  0  0  0  0  0  0  0  0  0  0
  137.9234  139.8499  153.5149 C   0  0  0  0  0  0  0  0  0  0  0  0
  139.0588  139.1501  154.0031 C   0  0  0  0  0  0  0  0  0  0  0  0
  139.3556  137.8389  153.5515 N   0  0  0  0  0  0  0  0  0  0  0  0
  140.3034  137.0078  154.0176 C   0  0  0  0  0  0  0  0  0  0  0  0
  141.0838  137.2623  154.9355 O   0  0  0  0  0  0  0  0  0  0  0  0
  140.3039  135.8435  153.3521 N   0  0  0  0  0  0  0  0  0  0  0  0
  141.1999  134.7264  153.6280 C   0  0  0  0  0  0  0  0  0  0  0  0
  142.6757  135.1707  153.6364 C   0  0  0  0  0  0  0  0  0  0  0  0
  143.5781  134.1515  153.0435 N   0  3  2  0  0  0  0  0  0  0  0  0
  145.0110  134.4692  153.2752 C   0  0  0  0  0  0  0  0  0  0  0  0
  145.9198  133.3343  152.7765 C   0  0  0  0  0  0  0  0  0  0  0  0
  145.6595  133.0305  151.2959 C   0  0  0  0  0  0  0  0  0  0  0  0
  144.1685  132.7311  151.0672 C   0  0  2  0  0  0  0  0  0  0  0  0
  143.8737  132.4495  149.5871 C   0  0  0  0  0  0  0  0  0  0  0  0
  143.3033  133.8887  151.6049 C   0  0  0  0  0  0  0  0  0  0  0  0
  139.7558  139.8529  154.8826 N   0  0  0  0  0  0  0  0  0  0  0  0
  139.0735  141.0696  154.9993 O   0  0  0  0  0  0  0  0  0  0  0  0
  136.5235  142.2966  153.2562 H   0  0  0  0  0  0  0  0  0  0  0  0
  137.7350  143.1658  154.1991 H   0  0  0  0  0  0  0  0  0  0  0  0
  136.4563  142.2667  155.0199 H   0  0  0  0  0  0  0  0  0  0  0  0
  137.1805  139.5323  152.7984 H   0  0  0  0  0  0  0  0  0  0  0  0
  138.7827  137.4976  152.7940 H   0  0  0  0  0  0  0  0  0  0  0  0
  139.6285  135.7167  152.6121 H   0  0  0  0  0  0  0  0  0  0  0  0
  140.9343  134.2635  154.5800 H   0  0  0  0  0  0  0  0  0  0  0  0
  141.0226  133.9764  152.8584 H   0  0  0  0  0  0  0  0  0  0  0  0
  142.7987  136.1223  153.1168 H   0  0  0  0  0  0  0  0  0  0  0  0
  142.9746  135.3460  154.6708 H   0  0  0  0  0  0  0  0  0  0  0  0
  145.2640  135.4043  152.7728 H   0  0  0  0  0  0  0  0  0  0  0  0
  145.1881  134.6229  154.3405 H   0  0  0  0  0  0  0  0  0  0  0  0
  146.9663  133.6036  152.9221 H   0  0  0  0  0  0  0  0  0  0  0  0
  145.7461  132.4366  153.3716 H   0  0  0  0  0  0  0  0  0  0  0  0
  145.9668  133.8825  150.6873 H   0  0  0  0  0  0  0  0  0  0  0  0
  146.2695  132.1839  150.9782 H   0  0  0  0  0  0  0  0  0  0  0  0
  143.9140  131.8313  151.6295 H   0  0  0  0  0  0  0  0  0  0  0  0
  144.1115  133.3122  148.9639 H   0  0  0  0  0  0  0  0  0  0  0  0
  142.8213  132.2088  149.4342 H   0  0  0  0  0  0  0  0  0  0  0  0
  144.4601  131.6050  149.2240 H   0  0  0  0  0  0  0  0  0  0  0  0
  142.2529  133.6364  151.4645 H   0  0  0  0  0  0  0  0  0  0  0  0
  143.4877  134.7970  151.0284 H   0  0  0  0  0  0  0  0  0  0  0  0
  143.3996  133.2906  153.5409 H   0  0  0  0  0  0  0  0  0  0  0  0
  1  2  1  0  0  0  0
  1 20  1  0  0  0  0
  1 21  1  0  0  0  0
  1 22  1  0  0  0  0
  2 19  1  0  0  0  0
  2  3  2  0  0  0  0
  3  4  1  0  0  0  0
  3 23  1  0  0  0  0
  4  5  1  0  0  0  0
  4 18  2  0  0  0  0
  5  6  1  0  0  0  0
  5 24  1  0  0  0  0
  6  7  2  0  0  0  0
  6  8  1  0  0  0  0
  8  9  1  0  0  0  0
  8 25  1  0  0  0  0
  9 10  1  0  0  0  0
  9 26  1  0  0  0  0
  9 27  1  0  0  0  0
 10 11  1  0  0  0  0
 10 28  1  0  0  0  0
 10 29  1  0  0  0  0
 11 17  1  0  0  0  0
 11 12  1  0  0  0  0
 11 42  1  0  0  0  0
 12 13  1  0  0  0  0
 12 30  1  0  0  0  0
 12 31  1  0  0  0  0
 13 14  1  0  0  0  0
 13 32  1  0  0  0  0
 13 33  1  0  0  0  0
 14 15  1  0  0  0  0
 14 34  1  0  0  0  0
 14 35  1  0  0  0  0
 15 16  1  0  0  0  0
 15 17  1  0  0  0  0
 15 36  1  0  0  0  0
 16 37  1  0  0  0  0
 16 38  1  0  0  0  0
 16 39  1  0  0  0  0
 17 40  1  0  0  0  0
 17 41  1  0  0  0  0
 18 19  1  0  0  0  0
M  CHG  1  11   1
M  END
> <s_m_source_file>
AV-unprocessed.smi

> <i_m_source_file_index>
2078

> <i_lp_mmshare_version>
43012

> <i_f3d_flags>
0

> <s_epik_input>
W0NIM11jMVtjSF1jKG5vMSlbTkhdQyg9TylbTkhdW0NIMl1bQ0gyXU4yW0NIMl1bQ0gyXVtDSDJdW0NAQEhdKFtDSDNdKVtDSDJdMg==

> <s_epik_cmdline>
J2VwaWtfcHl0aG9uJywgJy1waCcsICc3LjAnLCAnLXRuJywgJzgnLCAnLW1hJywgJzIwMCcsICctbWV0YWxfYmluZGluZycsICctaW1hZScsICc8aW5maWxlLm1hZT4nLCAnLW9tYWUnLCAnPG91dGZpbGUubWFlPic=

> <r_epik_Ionization_Penalty>
0.00216453

> <r_epik_Ionization_Penalty_Charging>
0.00212879

> <r_epik_Ionization_Penalty_Neutral>
3.57418e-05

> <r_epik_State_Penalty>
0.00146033

> <r_epik_Charging_Adjusted_Penalty>
0.00358912

> <i_epik_Tot_Q>
1

> <i_epik_Tot_abs_Q>
1

> <r_epik_Metal_State_Penalty>
0.0215827

> <b_epik_Metal_Only>
0

> <s_lp_Force_Field>
OPLS_2005

> <r_lp_Energy>
12.7075

> <b_lp_Chiralities_Consistent>
1

> <s_lp_Variant>
AV-unprocessed.smi:2078-4

> <Gold.Version>
5.8.1

> <Gold.Id.Protein>
6NUR|6NUR_protein|mol2

> <Gold.PLP.Fitness>
39.5932

> <Gold.PLP.PLP>
-31.2292

> <Gold.PLP.part.hbond>
-2.0000

> <Gold.PLP.part.metal>
0.0000

> <Gold.PLP.part.buried>
-4.3169

> <Gold.PLP.part.nonpolar>
-25.9007

> <Gold.PLP.part.repulsive>
0.3135

> <Gold.PLP.ligand.clash>
0.0000

> <Gold.PLP.ligand.torsion>
0.3261

> <Gold.PLP.Chemscore.Hbond>
3.0000

> <Gold.PLP.Chemscore.CHOScore>
0.0000

> <Gold.PLP.Chemscore.Metal>
0.0000

> <Gold.Chemscore.Hbonds>
donor molecule, donor type, donor heavy atom, donor atom, acceptor molecule, acceptor atom, score
      L1  H     8    25       P1 10187  0.99
      L1  H    11    42       P1 10957  1.66

> <Gold.PLP.Chemscore.Internal.Correction>
0.0164

> <Gold.Rescore>
     Score         DG    S(hbond)    S(metal)    S(lipo)     H(rot)  DE(clash)    DE(int)     intcor
     12.90     -14.85       1.43        0.00      73.52       1.57       0.39       1.55       ----

> <Gold.Chemscore.Fitness>
12.8995

> <Gold.Chemscore.DG>
-14.8450

> <Gold.Chemscore.ZeroCoef>
-5.4800

> <Gold.Chemscore.Hbond>
1.4315

> <Gold.Chemscore.Metal>
0.0000

> <Gold.Chemscore.Lipo>
73.5241

> <Gold.Chemscore.Internal_Hbond>
0.0000

> <Gold.Chemscore.DEClash>
0.3931

> <Gold.Chemscore.DEInternal>
1.5523

> <Gold.Chemscore.Rot>
1.5697

> <Gold.Chemscore.Internal.Correction>
   9.000000E+99

> <Gold.Chemscore.Hbonds>
donor molecule, donor type, donor heavy atom, donor atom, acceptor molecule, acceptor atom, score
      L1  H     8    25       P1 10187  0.46
      L1  H    11    42       P1 10957  0.80

> <Gold.Chemscore.Hbond.Weighted>
-4.7812

> <Gold.Chemscore.Metal.Weighted>
-0.0000

> <Gold.Chemscore.Lipo.Weighted>
-8.6023

> <Gold.Chemscore.Internal_Hbond.Weighted>
0.0000

> <Gold.Chemscore.DEClash.Weighted>
0.3931

> <Gold.Chemscore.DEInternal.Weighted>
1.5523

> <Gold.Chemscore.Rot.Weighted>
4.0185

> <Gold.Chemscore.Internal.Correction.Weighted>
   9.000000E+99

> <Gold.Protein.RotatedTorsions>
[ 6907 6896 6895 6894 ] final  127.10 input  -60.11 | X-H torsion
[ 7974 7965 7964 7962 ] final  -66.04 input  175.53 | X-H torsion
[ 8008 7997 7996 7995 ] final    9.15 input   59.86 | X-H torsion
[ 10167 10162 10161 10158 ] final   27.66 input  -65.29 | X-H torsion
[ 10718 10713 10712 10709 ] final   -8.01 input   66.30 | X-H torsion
[ 10763 10752 10751 10750 ] final  -82.18 input  -60.55 | X-H torsion
[ 11005 11000 10999 10996 ] final  146.09 input  -57.11 | X-H torsion

> <Gold.Protein.ActiveResidues>
 VAL166  LYS551  ARG553  GLY616  TRP617  ASP618  TYR619  PRO620  LYS621  CYS622 
 ASP623  PHE694  ASN695  SER759  ASP760  ASP761  ALA762  ILE779  LEU786  VAL792 
 PHE793  MET794  SER795  GLU796  ALA797  LYS798  CYS799  TRP800  GLU811  SER814 

> <Gold.Protein.RotatedAtoms>
  152.3843  133.6589  159.6185 H   0  0  0  0  0  0  0  0  0  0  0  0  # atno 6907 bound_to 6896
  150.7766  133.9061  159.3364 H   0  0  0  0  0  0  0  0  0  0  0  0  # atno 6908 bound_to 6896
  151.6861  135.0955  160.0276 H   0  0  0  0  0  0  0  0  0  0  0  0  # atno 6909 bound_to 6896
  145.7467  140.8928  143.0501 H   0  0  0  0  0  0  0  0  0  0  0  0  # atno 7974 bound_to 7965
  154.7763  140.2811  155.6099 H   0  0  0  0  0  0  0  0  0  0  0  0  # atno 8008 bound_to 7997
  156.2942  140.2632  156.2505 H   0  0  0  0  0  0  0  0  0  0  0  0  # atno 8009 bound_to 7997
  154.9839  140.0374  157.2279 H   0  0  0  0  0  0  0  0  0  0  0  0  # atno 8010 bound_to 7997
  140.4920  144.0452  150.6300 H   0  0  0  0  0  0  0  0  0  0  0  0  # atno 10167 bound_to 10162
  156.7089  130.5116  149.5897 H   0  0  0  0  0  0  0  0  0  0  0  0  # atno 10718 bound_to 10713
  154.5726  135.5600  153.7109 H   0  0  0  0  0  0  0  0  0  0  0  0  # atno 10763 bound_to 10752
  153.0053  135.6300  154.2094 H   0  0  0  0  0  0  0  0  0  0  0  0  # atno 10764 bound_to 10752
  154.2033  135.2877  155.2963 H   0  0  0  0  0  0  0  0  0  0  0  0  # atno 10765 bound_to 10752
  140.0765  134.9122  157.1430 H   0  0  0  0  0  0  0  0  0  0  0  0  # atno 11005 bound_to 11000
  144.6858  139.9535  143.7478 LP  0  0  0  0  0  0  0  0  0  0  0  0  # atno 17320 bound_to 7965
  146.0396  139.3409  143.0706 LP  0  0  0  0  0  0  0  0  0  0  0  0  # atno 17321 bound_to 7965
  140.3724  143.2847  152.0263 LP  0  0  0  0  0  0  0  0  0  0  0  0  # atno 17342 bound_to 10162
  139.4853  144.6219  151.7238 LP  0  0  0  0  0  0  0  0  0  0  0  0  # atno 17343 bound_to 10162
  156.1675  130.6415  151.0796 LP  0  0  0  0  0  0  0  0  0  0  0  0  # atno 17370 bound_to 10713
  157.6944  131.0799  150.7013 LP  0  0  0  0  0  0  0  0  0  0  0  0  # atno 17371 bound_to 10713
  140.3551  134.2556  155.7193 LP  0  0  0  0  0  0  0  0  0  0  0  0  # atno 17394 bound_to 11000
  141.2031  133.7920  157.0356 LP  0  0  0  0  0  0  0  0  0  0  0  0  # atno 17395 bound_to 11000

$$$$
