AV-unprocessed.smi:2143|AV-procd|sdf|8728|dock1
  -GOLD-   2272011493D 1   1.00000     0.00000
 Structure written by MMmdl.
 44 45  0  0  0  0  0  0  0  0  1 V2000
  152.6189  139.6933  159.1713 C   0  0  0  0  0  0  0  0  0  0  0  0
  152.3907  140.9964  158.3871 C   0  0  2  0  0  0  0  0  0  0  0  0
  152.4108  142.2313  159.3109 C   0  0  0  0  0  0  0  0  0  0  0  0
  152.2828  143.5364  158.5097 C   0  0  0  0  0  0  0  0  0  0  0  0
  151.0394  143.5268  157.6076 C   0  0  0  0  0  0  0  0  0  0  0  0
  151.0298  142.2932  156.6842 C   0  0  2  0  0  0  0  0  0  0  0  0
  149.8562  142.3340  155.8143 N   0  0  0  0  0  0  0  0  0  0  0  0
  149.5418  141.4135  154.8905 C   0  0  0  0  0  0  0  0  0  0  0  0
  150.2198  140.4063  154.6821 O   0  0  0  0  0  0  0  0  0  0  0  0
  148.2489  141.6684  154.1037 C   0  0  0  0  0  0  0  0  0  0  0  0
  147.2741  140.5764  154.2240 N   0  0  0  0  0  0  0  0  0  0  0  0
  147.3799  139.4700  153.4010 C   0  0  0  0  0  0  0  0  0  0  0  0
  146.5155  138.4324  153.4330 C   0  0  0  0  0  0  0  0  0  0  0  0
  145.3943  138.4206  154.3646 C   0  0  0  0  0  0  0  0  0  0  0  0
  144.5708  137.5062  154.4119 O   0  0  0  0  0  0  0  0  0  0  0  0
  145.3186  139.5565  155.2061 N   0  0  0  0  0  0  0  0  0  0  0  0
  144.2235  139.6423  156.1504 C   0  0  0  0  0  0  0  0  0  0  0  0
  146.2162  140.6466  155.1555 C   0  0  0  0  0  0  0  0  0  0  0  0
  146.0877  141.6325  155.8857 O   0  0  0  0  0  0  0  0  0  0  0  0
  151.1212  140.9702  157.4943 C   0  0  2  0  0  0  0  0  0  0  0  0
  149.8251  140.6411  158.2713 C   0  0  0  0  0  0  0  0  0  0  0  0
  151.8705  139.5520  159.9509 H   0  0  0  0  0  0  0  0  0  0  0  0
  153.5950  139.6994  159.6572 H   0  0  0  0  0  0  0  0  0  0  0  0
  152.5866  138.8256  158.5118 H   0  0  0  0  0  0  0  0  0  0  0  0
  153.2431  141.0921  157.7128 H   0  0  0  0  0  0  0  0  0  0  0  0
  151.6048  142.1679  160.0424 H   0  0  0  0  0  0  0  0  0  0  0  0
  153.3388  142.2503  159.8834 H   0  0  0  0  0  0  0  0  0  0  0  0
  152.2427  144.3879  159.1895 H   0  0  0  0  0  0  0  0  0  0  0  0
  153.1743  143.6741  157.8962 H   0  0  0  0  0  0  0  0  0  0  0  0
  150.1393  143.5474  158.2230 H   0  0  0  0  0  0  0  0  0  0  0  0
  151.0205  144.4389  157.0097 H   0  0  0  0  0  0  0  0  0  0  0  0
  151.9152  142.3642  156.0491 H   0  0  0  0  0  0  0  0  0  0  0  0
  149.2379  143.1247  155.9230 H   0  0  0  0  0  0  0  0  0  0  0  0
  147.8098  142.5993  154.4651 H   0  0  0  0  0  0  0  0  0  0  0  0
  148.4860  141.8437  153.0527 H   0  0  0  0  0  0  0  0  0  0  0  0
  148.1919  139.4338  152.6889 H   0  0  0  0  0  0  0  0  0  0  0  0
  146.6533  137.6012  152.7570 H   0  0  0  0  0  0  0  0  0  0  0  0
  144.5917  140.0871  157.0763 H   0  0  0  0  0  0  0  0  0  0  0  0
  143.8441  138.6468  156.3820 H   0  0  0  0  0  0  0  0  0  0  0  0
  143.4542  140.2615  155.6867 H   0  0  0  0  0  0  0  0  0  0  0  0
  151.2579  140.1614  156.7751 H   0  0  0  0  0  0  0  0  0  0  0  0
  149.6092  141.3805  159.0416 H   0  0  0  0  0  0  0  0  0  0  0  0
  149.8871  139.6679  158.7570 H   0  0  0  0  0  0  0  0  0  0  0  0
  148.9609  140.5966  157.6088 H   0  0  0  0  0  0  0  0  0  0  0  0
  1  2  1  0  0  0  0
  1 22  1  0  0  0  0
  1 23  1  0  0  0  0
  1 24  1  0  0  0  0
  2 20  1  0  0  0  0
  2  3  1  0  0  0  0
  2 25  1  0  0  0  0
  3  4  1  0  0  0  0
  3 26  1  0  0  0  0
  3 27  1  0  0  0  0
  4  5  1  0  0  0  0
  4 28  1  0  0  0  0
  4 29  1  0  0  0  0
  5  6  1  0  0  0  0
  5 30  1  0  0  0  0
  5 31  1  0  0  0  0
  6  7  1  0  0  0  0
  6 20  1  0  0  0  0
  6 32  1  0  0  0  0
  7  8  1  0  0  0  0
  7 33  1  0  0  0  0
  8  9  2  0  0  0  0
  8 10  1  0  0  0  0
 10 11  1  0  0  0  0
 10 34  1  0  0  0  0
 10 35  1  0  0  0  0
 11 18  1  0  0  0  0
 11 12  1  0  0  0  0
 12 13  2  0  0  0  0
 12 36  1  0  0  0  0
 13 14  1  0  0  0  0
 13 37  1  0  0  0  0
 14 15  2  0  0  0  0
 14 16  1  0  0  0  0
 16 17  1  0  0  0  0
 16 18  1  0  0  0  0
 17 38  1  0  0  0  0
 17 39  1  0  0  0  0
 17 40  1  0  0  0  0
 18 19  2  0  0  0  0
 20 21  1  0  0  0  0
 20 41  1  0  0  0  0
 21 42  1  0  0  0  0
 21 43  1  0  0  0  0
 21 44  1  0  0  0  0
M  END
> <s_m_source_file>
AV-unprocessed.smi

> <i_m_source_file_index>
2143

> <i_lp_mmshare_version>
43012

> <i_f3d_flags>
0

> <s_epik_input>
W0NIM11bQ0BASF0xW0NIMl1bQ0gyXVtDSDJdW0NASF0oW0NASF0xW0NIM10pW05IXUMoPU8pW0NIMl1uMltjSF1bY0hdYyg9TyluKFtDSDNdKWMyPU8=

> <s_epik_cmdline>
J2VwaWtfcHl0aG9uJywgJy1waCcsICc3LjAnLCAnLXRuJywgJzgnLCAnLW1hJywgJzIwMCcsICctbWV0YWxfYmluZGluZycsICctaW1hZScsICc8aW5maWxlLm1hZT4nLCAnLW9tYWUnLCAnPG91dGZpbGUubWFlPic=

> <r_lp_tautomer_probability>
1

> <r_epik_Ionization_Penalty>
3.18445e-08

> <r_epik_Ionization_Penalty_Charging>
1.27977e-08

> <r_epik_Ionization_Penalty_Neutral>
1.90469e-08

> <r_epik_State_Penalty>
-0

> <r_epik_Charging_Adjusted_Penalty>
1.27977e-08

> <i_epik_Tot_Q>
0

> <i_epik_Tot_abs_Q>
0

> <r_epik_Metal_State_Penalty>
-0

> <b_epik_Metal_Only>
0

> <s_lp_Force_Field>
OPLS_2005

> <r_lp_Energy>
21.2837

> <b_lp_Chiralities_Consistent>
1

> <s_lp_Variant>
AV-unprocessed.smi:2143-7

> <Gold.Version>
5.8.1

> <Gold.Id.Protein>
6NUR|6NUR_protein|mol2

> <Gold.PLP.Fitness>
41.0304

> <Gold.PLP.PLP>
-32.7087

> <Gold.PLP.part.hbond>
-2.0000

> <Gold.PLP.part.metal>
0.0000

> <Gold.PLP.part.buried>
-2.8981

> <Gold.PLP.part.nonpolar>
-28.3437

> <Gold.PLP.part.repulsive>
0.4018

> <Gold.PLP.ligand.clash>
0.0000

> <Gold.PLP.ligand.torsion>
0.3510

> <Gold.PLP.Chemscore.Hbond>
2.0000

> <Gold.PLP.Chemscore.CHOScore>
1.0000

> <Gold.PLP.Chemscore.Metal>
0.0000

> <Gold.Chemscore.Hbonds>
donor molecule, donor type, donor heavy atom, donor atom, acceptor molecule, acceptor atom, score
      L1  H     7    33       P1  8028  1.00
      P1  H  7989  7998       L1     9  0.99
      L1  C    12    36       P1  7957  1.00

> <Gold.PLP.Chemscore.Internal.Correction>
0.0238

> <Gold.Rescore>
     Score         DG    S(hbond)    S(metal)    S(lipo)     H(rot)  DE(clash)    DE(int)     intcor
     17.07     -17.70       1.72        0.00      88.50       1.51       0.26       0.38       ----

> <Gold.Chemscore.Fitness>
17.0673

> <Gold.Chemscore.DG>
-17.7042

> <Gold.Chemscore.ZeroCoef>
-5.4800

> <Gold.Chemscore.Hbond>
1.7196

> <Gold.Chemscore.Metal>
0.0000

> <Gold.Chemscore.Lipo>
88.4983

> <Gold.Chemscore.Internal_Hbond>
0.0000

> <Gold.Chemscore.DEClash>
0.2608

> <Gold.Chemscore.DEInternal>
0.3761

> <Gold.Chemscore.Rot>
1.5131

> <Gold.Chemscore.Internal.Correction>
   9.000000E+99

> <Gold.Chemscore.Hbonds>
donor molecule, donor type, donor heavy atom, donor atom, acceptor molecule, acceptor atom, score
      L1  H     7    33       P1  8028  0.94
      P1  H  7989  7998       L1     9  0.62

> <Gold.Chemscore.Hbond.Weighted>
-5.7434

> <Gold.Chemscore.Metal.Weighted>
-0.0000

> <Gold.Chemscore.Lipo.Weighted>
-10.3543

> <Gold.Chemscore.Internal_Hbond.Weighted>
0.0000

> <Gold.Chemscore.DEClash.Weighted>
0.2608

> <Gold.Chemscore.DEInternal.Weighted>
0.3761

> <Gold.Chemscore.Rot.Weighted>
3.8734

> <Gold.Chemscore.Internal.Correction.Weighted>
   9.000000E+99

> <Gold.Protein.RotatedTorsions>
[ 6907 6896 6895 6894 ] final   64.40 input  -60.11 | X-H torsion
[ 7974 7965 7964 7962 ] final  101.33 input  175.53 | X-H torsion
[ 8008 7997 7996 7995 ] final  111.74 input   59.86 | X-H torsion
[ 10167 10162 10161 10158 ] final   99.87 input  -65.29 | X-H torsion
[ 10718 10713 10712 10709 ] final  -84.23 input   66.30 | X-H torsion
[ 10763 10752 10751 10750 ] final  -53.76 input  -60.55 | X-H torsion
[ 11005 11000 10999 10996 ] final  -18.25 input  -57.11 | X-H torsion

> <Gold.Protein.ActiveResidues>
 VAL166  LYS551  ARG553  GLY616  TRP617  ASP618  TYR619  PRO620  LYS621  CYS622 
 ASP623  PHE694  ASN695  SER759  ASP760  ASP761  ALA762  ILE779  LEU786  VAL792 
 PHE793  MET794  SER795  GLU796  ALA797  LYS798  CYS799  TRP800  GLU811  SER814 

> <Gold.Protein.RotatedAtoms>
  152.4328  134.5744  159.9930 H   0  0  0  0  0  0  0  0  0  0  0  0  # atno 6907 bound_to 6896
  151.5863  133.3366  159.3026 H   0  0  0  0  0  0  0  0  0  0  0  0  # atno 6908 bound_to 6896
  150.8223  134.7472  159.6847 H   0  0  0  0  0  0  0  0  0  0  0  0  # atno 6909 bound_to 6896
  145.3738  139.2393  143.3441 H   0  0  0  0  0  0  0  0  0  0  0  0  # atno 7974 bound_to 7965
  156.2145  140.3013  155.9808 H   0  0  0  0  0  0  0  0  0  0  0  0  # atno 8008 bound_to 7997
  155.2640  140.0431  157.3017 H   0  0  0  0  0  0  0  0  0  0  0  0  # atno 8009 bound_to 7997
  154.5747  140.2358  155.8148 H   0  0  0  0  0  0  0  0  0  0  0  0  # atno 8010 bound_to 7997
  139.7578  144.6964  151.0336 H   0  0  0  0  0  0  0  0  0  0  0  0  # atno 10167 bound_to 10162
  156.0008  130.4691  150.4379 H   0  0  0  0  0  0  0  0  0  0  0  0  # atno 10718 bound_to 10713
  154.1640  135.6470  153.4993 H   0  0  0  0  0  0  0  0  0  0  0  0  # atno 10763 bound_to 10752
  153.0103  135.5367  154.6682 H   0  0  0  0  0  0  0  0  0  0  0  0  # atno 10764 bound_to 10752
  154.6003  135.2943  155.0514 H   0  0  0  0  0  0  0  0  0  0  0  0  # atno 10765 bound_to 10752
  140.8249  133.8040  155.9698 H   0  0  0  0  0  0  0  0  0  0  0  0  # atno 11005 bound_to 11000
  146.2873  140.4394  142.8753 LP  0  0  0  0  0  0  0  0  0  0  0  0  # atno 17320 bound_to 7965
  144.8557  140.7067  143.6139 LP  0  0  0  0  0  0  0  0  0  0  0  0  # atno 17321 bound_to 7965
  140.7804  143.4732  151.0118 LP  0  0  0  0  0  0  0  0  0  0  0  0  # atno 17342 bound_to 10162
  139.8419  143.7553  152.3180 LP  0  0  0  0  0  0  0  0  0  0  0  0  # atno 17343 bound_to 10162
  157.2422  131.0528  151.2429 LP  0  0  0  0  0  0  0  0  0  0  0  0  # atno 17370 bound_to 10713
  157.3609  130.7131  149.6501 LP  0  0  0  0  0  0  0  0  0  0  0  0  # atno 17371 bound_to 10713
  140.9059  134.2320  157.5014 LP  0  0  0  0  0  0  0  0  0  0  0  0  # atno 17394 bound_to 11000
  139.8707  134.9728  156.4787 LP  0  0  0  0  0  0  0  0  0  0  0  0  # atno 17395 bound_to 11000

$$$$
