AV-unprocessed.smi:1775|AV-procd|sdf|7171|dock3
  -GOLD-   22720 8413D 1   1.00000     0.00000
 Structure written by MMmdl.
 38 40  0  0  0  0  0  0  0  0  1 V2000
  150.6371  140.2923  158.8280 O   0  0  0  0  0  0  0  0  0  0  0  0
  150.9100  141.1346  157.9732 C   0  0  0  0  0  0  0  0  0  0  0  0
  150.8060  140.9633  156.6425 N   0  0  0  0  0  0  0  0  0  0  0  0
  150.3349  139.8498  155.9277 C   0  0  0  0  0  0  0  0  0  0  0  0
  150.3868  138.5667  156.3713 C   0  0  0  0  0  0  0  0  0  0  0  0
  149.8685  137.4581  155.5877 C   0  0  0  0  0  0  0  0  0  0  0  0
  150.0057  136.0191  156.0606 C   0  0  0  0  0  0  0  0  0  0  0  0
  149.6291  135.1589  155.1135 F   0  0  0  0  0  0  0  0  0  0  0  0
  151.2664  135.7459  156.3971 F   0  0  0  0  0  0  0  0  0  0  0  0
  149.2390  135.8198  157.1316 F   0  0  0  0  0  0  0  0  0  0  0  0
  149.3388  137.7661  154.3892 C   0  0  0  0  0  0  0  0  0  0  0  0
  149.2607  139.0851  153.9362 N   0  0  0  0  0  0  0  0  0  0  0  0
  149.7191  140.1540  154.6255 C   0  0  0  0  0  0  0  0  0  0  0  0
  149.6101  141.2872  154.1586 O   0  0  0  0  0  0  0  0  0  0  0  0
  151.3785  142.3589  158.2598 N   0  0  0  0  0  0  0  0  0  0  0  0
  151.6458  142.9054  159.5890 C   0  0  0  0  0  0  0  0  0  0  0  0
  151.7495  144.4231  159.6181 C   0  0  0  0  0  0  0  0  0  0  0  0
  150.9259  145.2817  158.6882 C   0  0  0  0  0  0  0  0  0  0  0  0
  152.4232  145.1818  158.5003 C   0  0  0  0  0  0  0  0  0  0  0  0
  152.8345  142.2652  160.2912 C   0  0  0  0  0  0  0  0  0  0  0  0
  154.1066  141.9521  159.5412 C   0  0  0  0  0  0  0  0  0  0  0  0
  153.2198  140.8284  160.0303 C   0  0  0  0  0  0  0  0  0  0  0  0
  148.8338  139.2357  153.0333 H   0  0  0  0  0  0  0  0  0  0  0  0
  151.1478  141.7179  156.0650 H   0  0  0  0  0  0  0  0  0  0  0  0
  150.7982  138.3311  157.3394 H   0  0  0  0  0  0  0  0  0  0  0  0
  148.9443  137.0402  153.6933 H   0  0  0  0  0  0  0  0  0  0  0  0
  151.5741  142.9728  157.4826 H   0  0  0  0  0  0  0  0  0  0  0  0
  150.7608  142.6420  160.1704 H   0  0  0  0  0  0  0  0  0  0  0  0
  151.8959  144.8313  160.6167 H   0  0  0  0  0  0  0  0  0  0  0  0
  150.2966  144.7823  157.9542 H   0  0  0  0  0  0  0  0  0  0  0  0
  150.5284  146.2130  159.0864 H   0  0  0  0  0  0  0  0  0  0  0  0
  153.0250  146.0463  158.7731 H   0  0  0  0  0  0  0  0  0  0  0  0
  152.7855  144.6120  157.6467 H   0  0  0  0  0  0  0  0  0  0  0  0
  152.9645  142.5965  161.3199 H   0  0  0  0  0  0  0  0  0  0  0  0
  154.1252  142.1473  158.4706 H   0  0  0  0  0  0  0  0  0  0  0  0
  155.0477  142.1167  160.0619 H   0  0  0  0  0  0  0  0  0  0  0  0
  153.5708  140.2421  160.8771 H   0  0  0  0  0  0  0  0  0  0  0  0
  152.6558  140.2752  159.2819 H   0  0  0  0  0  0  0  0  0  0  0  0
  1  2  2  0  0  0  0
  2  3  1  0  0  0  0
  2 15  1  0  0  0  0
  3  4  1  0  0  0  0
  3 24  1  0  0  0  0
  4 13  1  0  0  0  0
  4  5  2  0  0  0  0
  5  6  1  0  0  0  0
  5 25  1  0  0  0  0
  6  7  1  0  0  0  0
  6 11  2  0  0  0  0
  7  8  1  0  0  0  0
  7  9  1  0  0  0  0
  7 10  1  0  0  0  0
 11 12  1  0  0  0  0
 11 26  1  0  0  0  0
 12 23  1  0  0  0  0
 12 13  1  0  0  0  0
 13 14  2  0  0  0  0
 15 16  1  0  0  0  0
 15 27  1  0  0  0  0
 16 17  1  0  0  0  0
 16 20  1  0  0  0  0
 16 28  1  0  0  0  0
 17 19  1  0  0  0  0
 17 18  1  0  0  0  0
 17 29  1  0  0  0  0
 18 19  1  0  0  0  0
 18 30  1  0  0  0  0
 18 31  1  0  0  0  0
 19 32  1  0  0  0  0
 19 33  1  0  0  0  0
 20 22  1  0  0  0  0
 20 21  1  0  0  0  0
 20 34  1  0  0  0  0
 21 22  1  0  0  0  0
 21 35  1  0  0  0  0
 21 36  1  0  0  0  0
 22 37  1  0  0  0  0
 22 38  1  0  0  0  0
M  END
> <s_m_source_file>
AV-unprocessed.smi

> <i_m_source_file_index>
1775

> <i_lp_mmshare_version>
43012

> <i_f3d_flags>
0

> <s_epik_input>
W0NIMl0xW0NIMl1bQ0hdMVtDSF0oW0NIXTJbQ0gyXVtDSDJdMilbTkhdQyg9TylbTkhdYzNbY0hdYyhDKEYpKEYpRilbY0hdW25IXWMzPU8=

> <s_epik_cmdline>
J2VwaWtfcHl0aG9uJywgJy1waCcsICc3LjAnLCAnLXRuJywgJzgnLCAnLW1hJywgJzIwMCcsICctbWV0YWxfYmluZGluZycsICctaW1hZScsICc8aW5maWxlLm1hZT4nLCAnLW9tYWUnLCAnPG91dGZpbGUubWFlPic=

> <r_lp_tautomer_probability>
1

> <r_epik_Ionization_Penalty>
0.00370881

> <r_epik_Ionization_Penalty_Charging>
0.00368697

> <r_epik_Ionization_Penalty_Neutral>
2.18468e-05

> <r_epik_State_Penalty>
-0

> <r_epik_Charging_Adjusted_Penalty>
0.00368697

> <i_epik_Tot_Q>
0

> <i_epik_Tot_abs_Q>
0

> <r_epik_Metal_State_Penalty>
0.370005

> <b_epik_Metal_Only>
0

> <s_lp_Force_Field>
OPLS_2005

> <r_lp_Energy>
35.723

> <b_lp_Chiralities_Consistent>
1

> <s_lp_Variant>
AV-unprocessed.smi:1775-1

> <Gold.Version>
5.8.1

> <Gold.Id.Protein>
6NUR|6NUR_protein|mol2

> <Gold.PLP.Fitness>
40.3760

> <Gold.PLP.PLP>
-35.5898

> <Gold.PLP.part.hbond>
-3.0000

> <Gold.PLP.part.metal>
0.0000

> <Gold.PLP.part.buried>
-1.2024

> <Gold.PLP.part.nonpolar>
-30.4382

> <Gold.PLP.part.repulsive>
0.4199

> <Gold.PLP.ligand.clash>
1.0336

> <Gold.PLP.ligand.torsion>
1.5465

> <Gold.PLP.Chemscore.Hbond>
1.4603

> <Gold.PLP.Chemscore.CHOScore>
0.7133

> <Gold.PLP.Chemscore.Metal>
0.0000

> <Gold.Chemscore.Hbonds>
donor molecule, donor type, donor heavy atom, donor atom, acceptor molecule, acceptor atom, score
      L1  H    12    23       P1  7957  0.42
      P1  H  7989  7998       L1    14  0.04
      P1  H  8011  8017       L1    14  0.50
      L1  C    11    26       P1  7948  0.89

> <Gold.PLP.Chemscore.Internal.Correction>
2.3921

> <Gold.Rescore>
     Score         DG    S(hbond)    S(metal)    S(lipo)     H(rot)  DE(clash)    DE(int)     intcor
     13.15     -17.58       1.34        0.00      98.15       1.51       1.44       2.99       ----

> <Gold.Chemscore.Fitness>
13.1505

> <Gold.Chemscore.DG>
-17.5810

> <Gold.Chemscore.ZeroCoef>
-5.4800

> <Gold.Chemscore.Hbond>
1.3387

> <Gold.Chemscore.Metal>
0.0000

> <Gold.Chemscore.Lipo>
98.1537

> <Gold.Chemscore.Internal_Hbond>
0.0000

> <Gold.Chemscore.DEClash>
1.4359

> <Gold.Chemscore.DEInternal>
2.9946

> <Gold.Chemscore.Rot>
1.5056

> <Gold.Chemscore.Internal.Correction>
   9.000000E+99

> <Gold.Chemscore.Hbonds>
donor molecule, donor type, donor heavy atom, donor atom, acceptor molecule, acceptor atom, score
      L1  H    12    23       P1  7957  0.43
      P1  H  8011  8017       L1    14  0.49

> <Gold.Chemscore.Hbond.Weighted>
-4.4712

> <Gold.Chemscore.Metal.Weighted>
-0.0000

> <Gold.Chemscore.Lipo.Weighted>
-11.4840

> <Gold.Chemscore.Internal_Hbond.Weighted>
0.0000

> <Gold.Chemscore.DEClash.Weighted>
1.4359

> <Gold.Chemscore.DEInternal.Weighted>
2.9946

> <Gold.Chemscore.Rot.Weighted>
3.8542

> <Gold.Chemscore.Internal.Correction.Weighted>
   9.000000E+99

> <Gold.Protein.RotatedTorsions>
[ 6907 6896 6895 6894 ] final -119.03 input  -60.11 | X-H torsion
[ 7974 7965 7964 7962 ] final   64.38 input  175.53 | X-H torsion
[ 8008 7997 7996 7995 ] final -171.44 input   59.86 | X-H torsion
[ 10167 10162 10161 10158 ] final   24.41 input  -65.29 | X-H torsion
[ 10718 10713 10712 10709 ] final  -71.30 input   66.30 | X-H torsion
[ 10763 10752 10751 10750 ] final    7.02 input  -60.55 | X-H torsion
[ 11005 11000 10999 10996 ] final  134.63 input  -57.11 | X-H torsion

> <Gold.Protein.ActiveResidues>
 VAL166  LYS551  ARG553  GLY616  TRP617  ASP618  TYR619  PRO620  LYS621  CYS622 
 ASP623  PHE694  ASN695  SER759  ASP760  ASP761  ALA762  ILE779  LEU786  VAL792 
 PHE793  MET794  SER795  GLU796  ALA797  LYS798  CYS799  TRP800  GLU811  SER814 

> <Gold.Protein.RotatedAtoms>
  150.8270  133.8155  159.3114 H   0  0  0  0  0  0  0  0  0  0  0  0  # atno 6907 bound_to 6896
  151.5896  135.1052  160.0045 H   0  0  0  0  0  0  0  0  0  0  0  0  # atno 6908 bound_to 6896
  152.4354  133.7310  159.6644 H   0  0  0  0  0  0  0  0  0  0  0  0  # atno 6909 bound_to 6896
  145.8508  139.3253  143.0876 H   0  0  0  0  0  0  0  0  0  0  0  0  # atno 7974 bound_to 7965
  155.9316  140.1092  157.1127 H   0  0  0  0  0  0  0  0  0  0  0  0  # atno 8008 bound_to 7997
  154.4072  140.1236  156.4876 H   0  0  0  0  0  0  0  0  0  0  0  0  # atno 8009 bound_to 7997
  155.7073  140.3471  155.4961 H   0  0  0  0  0  0  0  0  0  0  0  0  # atno 8010 bound_to 7997
  140.5190  144.0034  150.6408 H   0  0  0  0  0  0  0  0  0  0  0  0  # atno 10167 bound_to 10162
  156.0369  130.4348  150.2423 H   0  0  0  0  0  0  0  0  0  0  0  0  # atno 10718 bound_to 10713
  153.2410  135.6903  153.7783 H   0  0  0  0  0  0  0  0  0  0  0  0  # atno 10763 bound_to 10752
  153.6912  135.3312  155.3203 H   0  0  0  0  0  0  0  0  0  0  0  0  # atno 10764 bound_to 10752
  154.8355  135.4545  154.1332 H   0  0  0  0  0  0  0  0  0  0  0  0  # atno 10765 bound_to 10752
  139.9927  134.9509  156.9894 H   0  0  0  0  0  0  0  0  0  0  0  0  # atno 11005 bound_to 11000
  145.9359  140.9015  143.0332 LP  0  0  0  0  0  0  0  0  0  0  0  0  # atno 17320 bound_to 7965
  144.6729  140.1482  143.7432 LP  0  0  0  0  0  0  0  0  0  0  0  0  # atno 17321 bound_to 7965
  140.3378  143.3038  152.0620 LP  0  0  0  0  0  0  0  0  0  0  0  0  # atno 17342 bound_to 10162
  139.4918  144.6464  151.6769 LP  0  0  0  0  0  0  0  0  0  0  0  0  # atno 17343 bound_to 10162
  157.0521  131.0066  151.3250 LP  0  0  0  0  0  0  0  0  0  0  0  0  # atno 17370 bound_to 10713
  157.5132  130.7952  149.7728 LP  0  0  0  0  0  0  0  0  0  0  0  0  # atno 17371 bound_to 10713
  140.4877  134.1225  155.7227 LP  0  0  0  0  0  0  0  0  0  0  0  0  # atno 17394 bound_to 11000
  141.1579  133.8847  157.1927 LP  0  0  0  0  0  0  0  0  0  0  0  0  # atno 17395 bound_to 11000

$$$$
