AV-unprocessed.smi:2083|AV-procd|sdf|8503|dock7
  -GOLD-   2272011213D 1   1.00000     0.00000
 Structure written by MMmdl.
 44 45  0  0  0  0  0  0  0  0  3 V2000
  152.4896  143.3325  160.3222 C   0  0  0  0  0  0  0  0  0  0  0  0
  152.2973  142.3835  159.1892 C   0  0  0  0  0  0  0  0  0  0  0  0
  152.9644  141.2568  158.8000 C   0  0  0  0  0  0  0  0  0  0  0  0
  152.2600  140.8493  157.6343 C   0  0  0  0  0  0  0  0  0  0  0  0
  152.5344  139.7729  156.8816 N   0  5  0  0  0  0  0  0  0  0  0  0
  151.7148  139.4305  155.8621 C   0  0  0  0  0  0  0  0  0  0  0  0
  151.1524  140.2034  155.0827 O   0  0  0  0  0  0  0  0  0  0  0  0
  151.5383  138.1078  155.7328 N   0  0  0  0  0  0  0  0  0  0  0  0
  150.7191  137.4534  154.7166 C   0  0  0  0  0  0  0  0  0  0  0  0
  149.3454  136.9745  155.2644 C   0  0  1  0  0  0  0  0  0  0  0  0
  148.2897  138.0928  155.1111 C   0  0  0  0  0  0  0  0  0  0  0  0
  148.8371  135.7097  154.6382 N   0  3  1  0  0  0  0  0  0  0  0  0
  149.7758  134.5496  154.6445 C   0  0  0  0  0  0  0  0  0  0  0  0
  149.2113  133.3586  153.8517 C   0  0  0  0  0  0  0  0  0  0  0  0
  147.8269  132.9458  154.3644 C   0  0  0  0  0  0  0  0  0  0  0  0
  146.8722  134.1500  154.3980 C   0  0  2  0  0  0  0  0  0  0  0  0
  146.4001  134.5841  152.9989 C   0  0  0  0  0  0  0  0  0  0  0  0
  147.5074  135.3123  155.1863 C   0  0  0  0  0  0  0  0  0  0  0  0
  151.2438  141.6471  157.3525 N   0  0  0  0  0  0  0  0  0  0  0  0
  151.2642  142.6372  158.3419 O   0  0  0  0  0  0  0  0  0  0  0  0
  152.2542  142.8507  161.2711 H   0  0  0  0  0  0  0  0  0  0  0  0
  151.8466  144.2066  160.2171 H   0  0  0  0  0  0  0  0  0  0  0  0
  153.5228  143.6773  160.3641 H   0  0  0  0  0  0  0  0  0  0  0  0
  153.8220  140.7993  159.2702 H   0  0  0  0  0  0  0  0  0  0  0  0
  152.0125  137.5108  156.3948 H   0  0  0  0  0  0  0  0  0  0  0  0
  150.5733  138.1623  153.9009 H   0  0  0  0  0  0  0  0  0  0  0  0
  151.3019  136.6233  154.3147 H   0  0  0  0  0  0  0  0  0  0  0  0
  149.4793  136.7758  156.3288 H   0  0  0  0  0  0  0  0  0  0  0  0
  148.5943  139.0089  155.6176 H   0  0  0  0  0  0  0  0  0  0  0  0
  147.3251  137.8208  155.5361 H   0  0  0  0  0  0  0  0  0  0  0  0
  148.1281  138.3365  154.0608 H   0  0  0  0  0  0  0  0  0  0  0  0
  150.7239  134.8123  154.1767 H   0  0  0  0  0  0  0  0  0  0  0  0
  149.9894  134.2557  155.6737 H   0  0  0  0  0  0  0  0  0  0  0  0
  149.1535  133.6172  152.7941 H   0  0  0  0  0  0  0  0  0  0  0  0
  149.8956  132.5123  153.9190 H   0  0  0  0  0  0  0  0  0  0  0  0
  147.4154  132.1455  153.7482 H   0  0  0  0  0  0  0  0  0  0  0  0
  147.9269  132.5368  155.3708 H   0  0  0  0  0  0  0  0  0  0  0  0
  145.9784  133.8375  154.9399 H   0  0  0  0  0  0  0  0  0  0  0  0
  147.2238  134.9463  152.3839 H   0  0  0  0  0  0  0  0  0  0  0  0
  145.6654  135.3868  153.0677 H   0  0  0  0  0  0  0  0  0  0  0  0
  145.9298  133.7552  152.4691 H   0  0  0  0  0  0  0  0  0  0  0  0
  147.6315  135.0195  156.2304 H   0  0  0  0  0  0  0  0  0  0  0  0
  146.8148  136.1523  155.1905 H   0  0  0  0  0  0  0  0  0  0  0  0
  148.6942  135.9306  153.6632 H   0  0  0  0  0  0  0  0  0  0  0  0
  1  2  1  0  0  0  0
  1 21  1  0  0  0  0
  1 22  1  0  0  0  0
  1 23  1  0  0  0  0
  2 20  1  0  0  0  0
  2  3  2  0  0  0  0
  3  4  1  0  0  0  0
  3 24  1  0  0  0  0
  4  5  1  0  0  0  0
  4 19  2  0  0  0  0
  5  6  1  0  0  0  0
  6  7  2  0  0  0  0
  6  8  1  0  0  0  0
  8  9  1  0  0  0  0
  8 25  1  0  0  0  0
  9 10  1  0  0  0  0
  9 26  1  0  0  0  0
  9 27  1  0  0  0  0
 10 11  1  0  0  0  0
 10 12  1  0  0  0  0
 10 28  1  0  0  0  0
 11 29  1  0  0  0  0
 11 30  1  0  0  0  0
 11 31  1  0  0  0  0
 12 18  1  0  0  0  0
 12 13  1  0  0  0  0
 12 44  1  0  0  0  0
 13 14  1  0  0  0  0
 13 32  1  0  0  0  0
 13 33  1  0  0  0  0
 14 15  1  0  0  0  0
 14 34  1  0  0  0  0
 14 35  1  0  0  0  0
 15 16  1  0  0  0  0
 15 36  1  0  0  0  0
 15 37  1  0  0  0  0
 16 17  1  0  0  0  0
 16 18  1  0  0  0  0
 16 38  1  0  0  0  0
 17 39  1  0  0  0  0
 17 40  1  0  0  0  0
 17 41  1  0  0  0  0
 18 42  1  0  0  0  0
 18 43  1  0  0  0  0
 19 20  1  0  0  0  0
M  CHG  1   5  -1
M  CHG  1  12   1
M  END
> <s_m_source_file>
AV-unprocessed.smi

> <i_m_source_file_index>
2083

> <i_lp_mmshare_version>
43012

> <i_f3d_flags>
0

> <s_epik_input>
W0NIM11jMVtjSF1jKG5vMSlbTkhdQyg9TylbTkhdW0NIMl1bQ0BIXShbQ0gzXSlOMltDSDJdW0NIMl1bQ0gyXVtDQEBIXShbQ0gzXSlbQ0gyXTI=

> <s_epik_cmdline>
J2VwaWtfcHl0aG9uJywgJy1waCcsICc3LjAnLCAnLXRuJywgJzgnLCAnLW1hJywgJzIwMCcsICctbWV0YWxfYmluZGluZycsICctaW1hZScsICc8aW5maWxlLm1hZT4nLCAnLW9tYWUnLCAnPG91dGZpbGUubWFlPic=

> <r_epik_Ionization_Penalty>
6.22434

> <r_epik_Ionization_Penalty_Charging>
6.22425

> <r_epik_Ionization_Penalty_Neutral>
9.62407e-05

> <r_epik_State_Penalty>
6.22423

> <r_epik_Charging_Adjusted_Penalty>
12.4485

> <i_epik_Tot_Q>
0

> <i_epik_Tot_abs_Q>
2

> <r_epik_Metal_State_Penalty>
2.16764

> <b_epik_Metal_Only>
1

> <s_lp_Force_Field>
OPLS_2005

> <r_lp_Energy>
12.2098

> <b_lp_Chiralities_Consistent>
1

> <s_lp_Variant>
AV-unprocessed.smi:2083-14

> <Gold.Version>
5.8.1

> <Gold.Id.Protein>
6NUR|6NUR_protein|mol2

> <Gold.PLP.Fitness>
42.8499

> <Gold.PLP.PLP>
-29.4630

> <Gold.PLP.part.hbond>
-3.0000

> <Gold.PLP.part.metal>
0.0000

> <Gold.PLP.part.buried>
-4.4746

> <Gold.PLP.part.nonpolar>
-21.8883

> <Gold.PLP.part.repulsive>
0.2251

> <Gold.PLP.ligand.clash>
0.0000

> <Gold.PLP.ligand.torsion>
0.8564

> <Gold.PLP.Chemscore.Hbond>
5.0000

> <Gold.PLP.Chemscore.CHOScore>
0.0000

> <Gold.PLP.Chemscore.Metal>
0.0000

> <Gold.Chemscore.Hbonds>
donor molecule, donor type, donor heavy atom, donor atom, acceptor molecule, acceptor atom, score
      L1  H    12    44       P1  7948  2.00
      P1  H  7989  7998       L1     7  1.00
      P1  H  7997  8010       L1     5  2.00

> <Gold.PLP.Chemscore.Internal.Correction>
0.0998

> <Gold.Rescore>
     Score         DG    S(hbond)    S(metal)    S(lipo)     H(rot)  DE(clash)    DE(int)     intcor
     15.73     -18.18       2.52        0.00      69.89       1.52       0.14       2.31       ----

> <Gold.Chemscore.Fitness>
15.7307

> <Gold.Chemscore.DG>
-18.1769

> <Gold.Chemscore.ZeroCoef>
-5.4800

> <Gold.Chemscore.Hbond>
2.5174

> <Gold.Chemscore.Metal>
0.0000

> <Gold.Chemscore.Lipo>
69.8930

> <Gold.Chemscore.Internal_Hbond>
0.0000

> <Gold.Chemscore.DEClash>
0.1387

> <Gold.Chemscore.DEInternal>
2.3074

> <Gold.Chemscore.Rot>
1.5190

> <Gold.Chemscore.Internal.Correction>
   9.000000E+99

> <Gold.Chemscore.Hbonds>
donor molecule, donor type, donor heavy atom, donor atom, acceptor molecule, acceptor atom, score
      L1  H    12    44       P1  7948  1.00
      P1  H  7989  7998       L1     7  0.99
      P1  H  7997  8010       L1     5  0.27

> <Gold.Chemscore.Hbond.Weighted>
-8.4080

> <Gold.Chemscore.Metal.Weighted>
-0.0000

> <Gold.Chemscore.Lipo.Weighted>
-8.1775

> <Gold.Chemscore.Internal_Hbond.Weighted>
0.0000

> <Gold.Chemscore.DEClash.Weighted>
0.1387

> <Gold.Chemscore.DEInternal.Weighted>
2.3074

> <Gold.Chemscore.Rot.Weighted>
3.8886

> <Gold.Chemscore.Internal.Correction.Weighted>
   9.000000E+99

> <Gold.Protein.RotatedTorsions>
[ 6907 6896 6895 6894 ] final  142.36 input  -60.11 | X-H torsion
[ 7974 7965 7964 7962 ] final   70.74 input  175.53 | X-H torsion
[ 8008 7997 7996 7995 ] final   75.58 input   59.86 | X-H torsion
[ 10167 10162 10161 10158 ] final  131.16 input  -65.29 | X-H torsion
[ 10718 10713 10712 10709 ] final  139.49 input   66.30 | X-H torsion
[ 10763 10752 10751 10750 ] final   28.63 input  -60.55 | X-H torsion
[ 11005 11000 10999 10996 ] final  172.82 input  -57.11 | X-H torsion

> <Gold.Protein.ActiveResidues>
 VAL166  LYS551  ARG553  GLY616  TRP617  ASP618  TYR619  PRO620  LYS621  CYS622 
 ASP623  PHE694  ASN695  SER759  ASP760  ASP761  ALA762  ILE779  LEU786  VAL792 
 PHE793  MET794  SER795  GLU796  ALA797  LYS798  CYS799  TRP800  GLU811  SER814 

> <Gold.Protein.RotatedAtoms>
  152.2197  133.4974  159.5155 H   0  0  0  0  0  0  0  0  0  0  0  0  # atno 6907 bound_to 6896
  150.7010  134.1359  159.4096 H   0  0  0  0  0  0  0  0  0  0  0  0  # atno 6908 bound_to 6896
  151.9279  135.0269  160.0578 H   0  0  0  0  0  0  0  0  0  0  0  0  # atno 6909 bound_to 6896
  145.7745  139.2858  143.1302 H   0  0  0  0  0  0  0  0  0  0  0  0  # atno 7974 bound_to 7965
  155.8149  140.3472  155.5480 H   0  0  0  0  0  0  0  0  0  0  0  0  # atno 8008 bound_to 7997
  155.8402  140.0940  157.1759 H   0  0  0  0  0  0  0  0  0  0  0  0  # atno 8009 bound_to 7997
  154.4005  140.1396  156.3707 H   0  0  0  0  0  0  0  0  0  0  0  0  # atno 8010 bound_to 7997
  139.5396  144.6718  151.4668 H   0  0  0  0  0  0  0  0  0  0  0  0  # atno 10167 bound_to 10162
  157.4137  131.1031  151.0427 H   0  0  0  0  0  0  0  0  0  0  0  0  # atno 10718 bound_to 10713
  153.0480  135.6508  154.0767 H   0  0  0  0  0  0  0  0  0  0  0  0  # atno 10763 bound_to 10752
  154.0461  135.2899  155.3349 H   0  0  0  0  0  0  0  0  0  0  0  0  # atno 10764 bound_to 10752
  154.6750  135.5342  153.8253 H   0  0  0  0  0  0  0  0  0  0  0  0  # atno 10765 bound_to 10752
  140.3338  134.7334  157.4153 H   0  0  0  0  0  0  0  0  0  0  0  0  # atno 11005 bound_to 11000
  146.0136  140.8412  142.9958 LP  0  0  0  0  0  0  0  0  0  0  0  0  # atno 17320 bound_to 7965
  144.6807  140.2526  143.7329 LP  0  0  0  0  0  0  0  0  0  0  0  0  # atno 17321 bound_to 7965
  140.6620  143.8478  150.6899 LP  0  0  0  0  0  0  0  0  0  0  0  0  # atno 17342 bound_to 10162
  140.1875  143.4063  152.1887 LP  0  0  0  0  0  0  0  0  0  0  0  0  # atno 17343 bound_to 10162
  157.1382  130.6131  149.5548 LP  0  0  0  0  0  0  0  0  0  0  0  0  # atno 17370 bound_to 10713
  155.9858  130.4890  150.7052 LP  0  0  0  0  0  0  0  0  0  0  0  0  # atno 17371 bound_to 10713
  140.0838  134.5694  155.8513 LP  0  0  0  0  0  0  0  0  0  0  0  0  # atno 17394 bound_to 11000
  141.2056  133.6648  156.6193 LP  0  0  0  0  0  0  0  0  0  0  0  0  # atno 17395 bound_to 11000

$$$$
