AV-unprocessed.smi:3101|AV-procd|sdf|11811|dock7
  -GOLD-   2272017183D 1   1.00000     0.00000
 Structure written by MMmdl.
 28 29  0  0  0  0  0  0  0  0  1 V2000
  154.2232  140.9904  160.9442 C   0  0  0  0  0  0  0  0  0  0  0  0
  152.9276  141.6252  160.4143 C   0  0  1  0  0  0  0  0  0  0  0  0
  152.7704  143.0848  160.7893 C   0  0  0  0  0  0  0  0  0  0  0  0
  151.7240  143.5605  159.7876 C   0  0  0  0  0  0  0  0  0  0  0  0
  151.9148  142.7695  158.6184 O   0  0  0  0  0  0  0  0  0  0  0  0
  152.8252  141.7009  158.8822 C   0  0  2  0  0  0  0  0  0  0  0  0
  152.3401  140.4185  158.1883 C   0  0  0  0  0  0  0  0  0  0  0  0
  152.1262  139.4017  158.8489 O   0  0  0  0  0  0  0  0  0  0  0  0
  152.1929  140.4984  156.8524 N   0  0  0  0  0  0  0  0  0  0  0  0
  151.7626  139.4880  155.9533 C   0  0  0  0  0  0  0  0  0  0  0  0
  152.2153  138.1782  156.2388 C   0  0  0  0  0  0  0  0  0  0  0  0
  151.8908  137.1114  155.4751 N   0  0  0  0  0  0  0  0  0  0  0  0
  151.1008  137.3515  154.4068 C   0  0  0  0  0  0  0  0  0  0  0  0
  150.6399  138.6490  154.1072 C   0  0  0  0  0  0  0  0  0  0  0  0
  150.9681  139.7108  154.8750 N   0  0  0  0  0  0  0  0  0  0  0  0
  155.1041  141.5116  160.5683 H   0  0  0  0  0  0  0  0  0  0  0  0
  154.3046  139.9448  160.6473 H   0  0  0  0  0  0  0  0  0  0  0  0
  154.2554  141.0260  162.0331 H   0  0  0  0  0  0  0  0  0  0  0  0
  152.0730  141.0742  160.8119 H   0  0  0  0  0  0  0  0  0  0  0  0
  152.4635  143.2315  161.8253 H   0  0  0  0  0  0  0  0  0  0  0  0
  153.7069  143.6220  160.6317 H   0  0  0  0  0  0  0  0  0  0  0  0
  150.7196  143.3740  160.1694 H   0  0  0  0  0  0  0  0  0  0  0  0
  151.8108  144.6249  159.5683 H   0  0  0  0  0  0  0  0  0  0  0  0
  153.7917  141.9825  158.4615 H   0  0  0  0  0  0  0  0  0  0  0  0
  152.4037  141.3939  156.4360 H   0  0  0  0  0  0  0  0  0  0  0  0
  152.8480  137.9810  157.0922 H   0  0  0  0  0  0  0  0  0  0  0  0
  150.8352  136.5065  153.7891 H   0  0  0  0  0  0  0  0  0  0  0  0
  150.0079  138.8352  153.2517 H   0  0  0  0  0  0  0  0  0  0  0  0
  1  2  1  0  0  0  0
  1 16  1  0  0  0  0
  1 17  1  0  0  0  0
  1 18  1  0  0  0  0
  2  6  1  0  0  0  0
  2  3  1  0  0  0  0
  2 19  1  0  0  0  0
  3  4  1  0  0  0  0
  3 20  1  0  0  0  0
  3 21  1  0  0  0  0
  4  5  1  0  0  0  0
  4 22  1  0  0  0  0
  4 23  1  0  0  0  0
  5  6  1  0  0  0  0
  6  7  1  0  0  0  0
  6 24  1  0  0  0  0
  7  8  2  0  0  0  0
  7  9  1  0  0  0  0
  9 10  1  0  0  0  0
  9 25  1  0  0  0  0
 10 15  1  0  0  0  0
 10 11  2  0  0  0  0
 11 12  1  0  0  0  0
 11 26  1  0  0  0  0
 12 13  2  0  0  0  0
 13 14  1  0  0  0  0
 13 27  1  0  0  0  0
 14 15  2  0  0  0  0
 14 28  1  0  0  0  0
M  END
> <s_m_source_file>
AV-unprocessed.smi

> <i_m_source_file_index>
3101

> <i_lp_mmshare_version>
43012

> <i_f3d_flags>
0

> <s_epik_input>
W0NIM11bQ0BASF0xW0NIMl1bQ0gyXU9bQ0BIXTFDKD1PKVtOSF1jMltjSF1uW2NIXVtjSF1uMg==

> <s_epik_cmdline>
J2VwaWtfcHl0aG9uJywgJy1waCcsICc3LjAnLCAnLXRuJywgJzgnLCAnLW1hJywgJzIwMCcsICctbWV0YWxfYmluZGluZycsICctaW1hZScsICc8aW5maWxlLm1hZT4nLCAnLW9tYWUnLCAnPG91dGZpbGUubWFlPic=

> <r_lp_tautomer_probability>
1

> <r_epik_Ionization_Penalty>
2.83174e-06

> <r_epik_Ionization_Penalty_Charging>
0

> <r_epik_Ionization_Penalty_Neutral>
2.83174e-06

> <r_epik_State_Penalty>
-0

> <r_epik_Charging_Adjusted_Penalty>
0

> <i_epik_Tot_Q>
0

> <i_epik_Tot_abs_Q>
0

> <r_epik_Metal_State_Penalty>
-0

> <b_epik_Metal_Only>
0

> <s_lp_Force_Field>
OPLS_2005

> <r_lp_Energy>
26.5221

> <b_lp_Chiralities_Consistent>
1

> <s_lp_Variant>
AV-unprocessed.smi:3101-4

> <Gold.Version>
5.8.1

> <Gold.Id.Protein>
6NUR|6NUR_protein|mol2

> <Gold.PLP.Fitness>
40.5897

> <Gold.PLP.PLP>
-29.4648

> <Gold.PLP.part.hbond>
-2.0000

> <Gold.PLP.part.metal>
0.0000

> <Gold.PLP.part.buried>
-3.1823

> <Gold.PLP.part.nonpolar>
-24.3096

> <Gold.PLP.part.repulsive>
0.4827

> <Gold.PLP.ligand.clash>
0.0000

> <Gold.PLP.ligand.torsion>
0.2972

> <Gold.PLP.Chemscore.Hbond>
1.9500

> <Gold.PLP.Chemscore.CHOScore>
1.9558

> <Gold.PLP.Chemscore.Metal>
0.0000

> <Gold.Chemscore.Hbonds>
donor molecule, donor type, donor heavy atom, donor atom, acceptor molecule, acceptor atom, score
      P1  H  7989  7998       L1    15  0.95
      P1  H 10752 10763       L1    12  1.00
      L1  C    13    27       P1  7948  0.14
      L1  C    13    27       P1  7949  0.82
      L1  C    14    28       P1  7957  1.00

> <Gold.PLP.Chemscore.Internal.Correction>
0.0020

> <Gold.Rescore>
     Score         DG    S(hbond)    S(metal)    S(lipo)     H(rot)  DE(clash)    DE(int)     intcor
     13.41     -15.37       1.19        0.00      72.55       1.00       0.38       1.58       ----

> <Gold.Chemscore.Fitness>
13.4128

> <Gold.Chemscore.DG>
-15.3708

> <Gold.Chemscore.ZeroCoef>
-5.4800

> <Gold.Chemscore.Hbond>
1.1864

> <Gold.Chemscore.Metal>
0.0000

> <Gold.Chemscore.Lipo>
72.5487

> <Gold.Chemscore.Internal_Hbond>
0.0000

> <Gold.Chemscore.DEClash>
0.3784

> <Gold.Chemscore.DEInternal>
1.5796

> <Gold.Chemscore.Rot>
1.0000

> <Gold.Chemscore.Internal.Correction>
   9.000000E+99

> <Gold.Chemscore.Hbonds>
donor molecule, donor type, donor heavy atom, donor atom, acceptor molecule, acceptor atom, score
      P1  H  7989  7998       L1    15  0.21
      P1  H 10752 10763       L1    12  0.23

> <Gold.Chemscore.Hbond.Weighted>
-3.9626

> <Gold.Chemscore.Metal.Weighted>
-0.0000

> <Gold.Chemscore.Lipo.Weighted>
-8.4882

> <Gold.Chemscore.Internal_Hbond.Weighted>
0.0000

> <Gold.Chemscore.DEClash.Weighted>
0.3784

> <Gold.Chemscore.DEInternal.Weighted>
1.5796

> <Gold.Chemscore.Rot.Weighted>
2.5600

> <Gold.Chemscore.Internal.Correction.Weighted>
   9.000000E+99

> <Gold.Protein.RotatedTorsions>
[ 6907 6896 6895 6894 ] final  -80.69 input  -60.11 | X-H torsion
[ 7974 7965 7964 7962 ] final  144.32 input  175.53 | X-H torsion
[ 8008 7997 7996 7995 ] final  146.88 input   59.86 | X-H torsion
[ 10167 10162 10161 10158 ] final  136.17 input  -65.29 | X-H torsion
[ 10718 10713 10712 10709 ] final -165.87 input   66.30 | X-H torsion
[ 10763 10752 10751 10750 ] final   69.06 input  -60.55 | X-H torsion
[ 11005 11000 10999 10996 ] final  133.05 input  -57.11 | X-H torsion

> <Gold.Protein.ActiveResidues>
 VAL166  LYS551  ARG553  GLY616  TRP617  ASP618  TYR619  PRO620  LYS621  CYS622 
 ASP623  PHE694  ASN695  SER759  ASP760  ASP761  ALA762  ILE779  LEU786  VAL792 
 PHE793  MET794  SER795  GLU796  ALA797  LYS798  CYS799  TRP800  GLU811  SER814 

> <Gold.Protein.RotatedAtoms>
  150.6925  134.3931  159.5084 H   0  0  0  0  0  0  0  0  0  0  0  0  # atno 6907 bound_to 6896
  152.1716  134.8826  160.0543 H   0  0  0  0  0  0  0  0  0  0  0  0  # atno 6908 bound_to 6896
  151.9850  133.3736  159.4159 H   0  0  0  0  0  0  0  0  0  0  0  0  # atno 6909 bound_to 6896
  144.8846  139.5648  143.5827 H   0  0  0  0  0  0  0  0  0  0  0  0  # atno 7974 bound_to 7965
  156.2842  140.2170  156.5447 H   0  0  0  0  0  0  0  0  0  0  0  0  # atno 8008 bound_to 7997
  154.7340  140.0493  157.0774 H   0  0  0  0  0  0  0  0  0  0  0  0  # atno 8009 bound_to 7997
  155.0316  140.3135  155.4759 H   0  0  0  0  0  0  0  0  0  0  0  0  # atno 8010 bound_to 7997
  139.5190  144.6478  151.5388 H   0  0  0  0  0  0  0  0  0  0  0  0  # atno 10167 bound_to 10162
  156.6597  130.9041  151.3027 H   0  0  0  0  0  0  0  0  0  0  0  0  # atno 10718 bound_to 10713
  153.0267  135.5224  154.7230 H   0  0  0  0  0  0  0  0  0  0  0  0  # atno 10763 bound_to 10752
  154.6280  135.2897  155.0252 H   0  0  0  0  0  0  0  0  0  0  0  0  # atno 10764 bound_to 10752
  154.1214  135.6607  153.4956 H   0  0  0  0  0  0  0  0  0  0  0  0  # atno 10765 bound_to 10752
  139.9828  134.9542  156.9670 H   0  0  0  0  0  0  0  0  0  0  0  0  # atno 11005 bound_to 11000
  146.3016  139.7445  142.9087 LP  0  0  0  0  0  0  0  0  0  0  0  0  # atno 17320 bound_to 7965
  145.3892  141.0370  143.3133 LP  0  0  0  0  0  0  0  0  0  0  0  0  # atno 17321 bound_to 7965
  140.6271  143.9148  150.6573 LP  0  0  0  0  0  0  0  0  0  0  0  0  # atno 17342 bound_to 10162
  140.2440  143.3642  152.1462 LP  0  0  0  0  0  0  0  0  0  0  0  0  # atno 17343 bound_to 10162
  157.7114  130.9444  150.1101 LP  0  0  0  0  0  0  0  0  0  0  0  0  # atno 17370 bound_to 10713
  156.2020  130.3661  149.8776 LP  0  0  0  0  0  0  0  0  0  0  0  0  # atno 17371 bound_to 10713
  140.5063  134.1047  155.7261 LP  0  0  0  0  0  0  0  0  0  0  0  0  # atno 17394 bound_to 11000
  141.1497  133.8990  157.2128 LP  0  0  0  0  0  0  0  0  0  0  0  0  # atno 17395 bound_to 11000

$$$$
