AV-unprocessed.smi:2192|AV-procd|sdf|8896|dock2
  -GOLD-   2272012103D 1   1.00000     0.00000
 Structure written by MMmdl.
 42 44  0  0  0  0  0  0  0  0  1 V2000
  154.9398  139.8120  160.6666 C   0  0  0  0  0  0  0  0  0  0  0  0
  153.9308  140.8555  160.4048 N   0  0  0  0  0  0  0  0  0  0  0  0
  153.2616  140.8234  159.2094 C   0  0  0  0  0  0  0  0  0  0  0  0
  153.4334  139.9834  158.3252 O   0  0  0  0  0  0  0  0  0  0  0  0
  152.2865  141.9053  159.0482 C   0  0  0  0  0  0  0  0  0  0  0  0
  152.0650  142.8476  159.9957 C   0  0  0  0  0  0  0  0  0  0  0  0
  151.0910  143.7536  159.5914 N   0  0  0  0  0  0  0  0  0  0  0  0
  150.7680  143.2925  158.3821 C   0  0  0  0  0  0  0  0  0  0  0  0
  151.4393  142.1935  157.9806 N   0  0  0  0  0  0  0  0  0  0  0  0
  151.2816  141.4968  156.7136 C   0  0  0  0  0  0  0  0  0  0  0  0
  149.8605  140.9300  156.5215 C   0  0  2  0  0  0  0  0  0  0  0  0
  148.9495  141.9861  156.2874 O   0  0  0  0  0  0  0  0  0  0  0  0
  149.3797  140.1315  157.7413 C   0  0  0  0  0  0  0  0  0  0  0  0
  148.4429  139.1542  157.3078 O   0  0  0  0  0  0  0  0  0  0  0  0
  148.2264  138.0546  158.1097 C   0  0  0  0  0  0  0  0  0  0  0  0
  149.2962  137.6425  158.9313 C   0  0  0  0  0  0  0  0  0  0  0  0
  149.1637  136.5295  159.7839 C   0  0  0  0  0  0  0  0  0  0  0  0
  147.9536  135.8128  159.8212 C   0  0  0  0  0  0  0  0  0  0  0  0
  147.8239  134.7418  160.6395 F   0  0  0  0  0  0  0  0  0  0  0  0
  146.8782  136.2115  159.0055 C   0  0  0  0  0  0  0  0  0  0  0  0
  147.0105  137.3259  158.1541 C   0  0  0  0  0  0  0  0  0  0  0  0
  152.8103  142.7887  161.1993 N   0  0  0  0  0  0  0  0  0  0  0  0
  152.5437  143.8243  162.2021 C   0  0  0  0  0  0  0  0  0  0  0  0
  153.7400  141.7971  161.4028 C   0  0  0  0  0  0  0  0  0  0  0  0
  154.3892  141.7484  162.4511 O   0  0  0  0  0  0  0  0  0  0  0  0
  155.0645  139.0817  159.8664 H   0  0  0  0  0  0  0  0  0  0  0  0
  154.6793  139.2464  161.5628 H   0  0  0  0  0  0  0  0  0  0  0  0
  155.9198  140.2641  160.8280 H   0  0  0  0  0  0  0  0  0  0  0  0
  150.0218  143.7730  157.7661 H   0  0  0  0  0  0  0  0  0  0  0  0
  151.5361  142.1854  155.9074 H   0  0  0  0  0  0  0  0  0  0  0  0
  152.0170  140.6922  156.6663 H   0  0  0  0  0  0  0  0  0  0  0  0
  149.8360  140.2806  155.6459 H   0  0  0  0  0  0  0  0  0  0  0  0
  149.4380  142.7529  156.0292 H   0  0  0  0  0  0  0  0  0  0  0  0
  150.2290  139.6613  158.2402 H   0  0  0  0  0  0  0  0  0  0  0  0
  148.8978  140.8042  158.4530 H   0  0  0  0  0  0  0  0  0  0  0  0
  150.2287  138.1871  158.9081 H   0  0  0  0  0  0  0  0  0  0  0  0
  149.9910  136.2263  160.4086 H   0  0  0  0  0  0  0  0  0  0  0  0
  145.9490  135.6619  159.0322 H   0  0  0  0  0  0  0  0  0  0  0  0
  146.1636  137.6006  157.5438 H   0  0  0  0  0  0  0  0  0  0  0  0
  153.1514  143.7464  163.1040 H   0  0  0  0  0  0  0  0  0  0  0  0
  151.4986  143.7815  162.5106 H   0  0  0  0  0  0  0  0  0  0  0  0
  152.7252  144.8113  161.7751 H   0  0  0  0  0  0  0  0  0  0  0  0
  1  2  1  0  0  0  0
  1 26  1  0  0  0  0
  1 27  1  0  0  0  0
  1 28  1  0  0  0  0
  2 24  1  0  0  0  0
  2  3  1  0  0  0  0
  3  4  2  0  0  0  0
  3  5  1  0  0  0  0
  5  9  1  0  0  0  0
  5  6  2  0  0  0  0
  6  7  1  0  0  0  0
  6 22  1  0  0  0  0
  7  8  2  0  0  0  0
  8  9  1  0  0  0  0
  8 29  1  0  0  0  0
  9 10  1  0  0  0  0
 10 11  1  0  0  0  0
 10 30  1  0  0  0  0
 10 31  1  0  0  0  0
 11 12  1  0  0  0  0
 11 13  1  0  0  0  0
 11 32  1  0  0  0  0
 12 33  1  0  0  0  0
 13 14  1  0  0  0  0
 13 34  1  0  0  0  0
 13 35  1  0  0  0  0
 14 15  1  0  0  0  0
 15 21  1  0  0  0  0
 15 16  2  0  0  0  0
 16 17  1  0  0  0  0
 16 36  1  0  0  0  0
 17 18  2  0  0  0  0
 17 37  1  0  0  0  0
 18 19  1  0  0  0  0
 18 20  1  0  0  0  0
 20 21  2  0  0  0  0
 20 38  1  0  0  0  0
 21 39  1  0  0  0  0
 22 23  1  0  0  0  0
 22 24  1  0  0  0  0
 23 40  1  0  0  0  0
 23 41  1  0  0  0  0
 23 42  1  0  0  0  0
 24 25  2  0  0  0  0
M  END
> <s_m_source_file>
AV-unprocessed.smi

> <i_m_source_file_index>
2192

> <i_lp_mmshare_version>
43012

> <i_f3d_flags>
0

> <s_epik_input>
Tz1jMW4oW0NIM10pYyg9TyluKFtDSDNdKWMoYzEyKW5bY0hdbjJbQ0gyXVtDQEhdKFtPSF0pW0NIMl1PYzNbY0hdW2NIXWMoRilbY0hdW2NIXTM=

> <s_epik_cmdline>
J2VwaWtfcHl0aG9uJywgJy1waCcsICc3LjAnLCAnLXRuJywgJzgnLCAnLW1hJywgJzIwMCcsICctbWV0YWxfYmluZGluZycsICctaW1hZScsICc8aW5maWxlLm1hZT4nLCAnLW9tYWUnLCAnPG91dGZpbGUubWFlPic=

> <r_lp_tautomer_probability>
1

> <r_epik_Ionization_Penalty>
1.0344e-06

> <r_epik_Ionization_Penalty_Charging>
3.2247e-09

> <r_epik_Ionization_Penalty_Neutral>
1.03118e-06

> <r_epik_State_Penalty>
-0

> <r_epik_Charging_Adjusted_Penalty>
3.2247e-09

> <i_epik_Tot_Q>
0

> <i_epik_Tot_abs_Q>
0

> <r_epik_Metal_State_Penalty>
-0

> <b_epik_Metal_Only>
0

> <s_lp_Force_Field>
OPLS_2005

> <r_lp_Energy>
38.6998

> <b_lp_Chiralities_Consistent>
1

> <s_lp_Variant>
AV-unprocessed.smi:2192-1

> <Gold.Version>
5.8.1

> <Gold.Id.Protein>
6NUR|6NUR_protein|mol2

> <Gold.PLP.Fitness>
50.5829

> <Gold.PLP.PLP>
-44.4018

> <Gold.PLP.part.hbond>
-3.0000

> <Gold.PLP.part.metal>
0.0000

> <Gold.PLP.part.buried>
-5.7876

> <Gold.PLP.part.nonpolar>
-34.8736

> <Gold.PLP.part.repulsive>
0.0622

> <Gold.PLP.ligand.clash>
0.0000

> <Gold.PLP.ligand.torsion>
0.8560

> <Gold.PLP.Chemscore.Hbond>
1.6240

> <Gold.PLP.Chemscore.CHOScore>
0.9988

> <Gold.PLP.Chemscore.Metal>
0.0000

> <Gold.Chemscore.Hbonds>
donor molecule, donor type, donor heavy atom, donor atom, acceptor molecule, acceptor atom, score
      L1  H    12    33       P1  8028  0.58
      P1  H  7997  8008       L1     4  1.00
      L1  C     8    29       P1  8028  0.95

> <Gold.PLP.Chemscore.Internal.Correction>
0.0248

> <Gold.Rescore>
     Score         DG    S(hbond)    S(metal)    S(lipo)     H(rot)  DE(clash)    DE(int)     intcor
     10.00     -10.85       1.79        0.00      57.87       2.88       0.03       0.82       ----

> <Gold.Chemscore.Fitness>
9.9966

> <Gold.Chemscore.DG>
-10.8518

> <Gold.Chemscore.ZeroCoef>
-5.4800

> <Gold.Chemscore.Hbond>
1.7857

> <Gold.Chemscore.Metal>
0.0000

> <Gold.Chemscore.Lipo>
57.8686

> <Gold.Chemscore.Internal_Hbond>
0.0000

> <Gold.Chemscore.DEClash>
0.0323

> <Gold.Chemscore.DEInternal>
0.8229

> <Gold.Chemscore.Rot>
2.8762

> <Gold.Chemscore.Internal.Correction>
   9.000000E+99

> <Gold.Chemscore.Hbonds>
donor molecule, donor type, donor heavy atom, donor atom, acceptor molecule, acceptor atom, score
      L1  H    12    33       P1  8028  0.56
      P1  H  7997  8008       L1     4  0.97

> <Gold.Chemscore.Hbond.Weighted>
-5.9643

> <Gold.Chemscore.Metal.Weighted>
-0.0000

> <Gold.Chemscore.Lipo.Weighted>
-6.7706

> <Gold.Chemscore.Internal_Hbond.Weighted>
0.0000

> <Gold.Chemscore.DEClash.Weighted>
0.0323

> <Gold.Chemscore.DEInternal.Weighted>
0.8229

> <Gold.Chemscore.Rot.Weighted>
7.3631

> <Gold.Chemscore.Internal.Correction.Weighted>
   9.000000E+99

> <Gold.Protein.RotatedTorsions>
[ 6907 6896 6895 6894 ] final -123.26 input  -60.11 | X-H torsion
[ 7974 7965 7964 7962 ] final  -87.84 input  175.53 | X-H torsion
[ 8008 7997 7996 7995 ] final  -83.91 input   59.86 | X-H torsion
[ 10167 10162 10161 10158 ] final  -98.74 input  -65.29 | X-H torsion
[ 10718 10713 10712 10709 ] final  -92.23 input   66.30 | X-H torsion
[ 10763 10752 10751 10750 ] final -175.93 input  -60.55 | X-H torsion
[ 11005 11000 10999 10996 ] final -117.69 input  -57.11 | X-H torsion

> <Gold.Protein.ActiveResidues>
 VAL166  LYS551  ARG553  GLY616  TRP617  ASP618  TYR619  PRO620  LYS621  CYS622 
 ASP623  PHE694  ASN695  SER759  ASP760  ASP761  ALA762  ILE779  LEU786  VAL792 
 PHE793  MET794  SER795  GLU796  ALA797  LYS798  CYS799  TRP800  GLU811  SER814 

> <Gold.Protein.RotatedAtoms>
  150.8654  133.7583  159.2978 H   0  0  0  0  0  0  0  0  0  0  0  0  # atno 6907 bound_to 6896
  151.5212  135.1065  159.9888 H   0  0  0  0  0  0  0  0  0  0  0  0  # atno 6908 bound_to 6896
  152.4657  133.7873  159.6939 H   0  0  0  0  0  0  0  0  0  0  0  0  # atno 6909 bound_to 6896
  145.4612  140.9561  143.1969 H   0  0  0  0  0  0  0  0  0  0  0  0  # atno 7974 bound_to 7965
  154.6241  140.0612  156.9651 H   0  0  0  0  0  0  0  0  0  0  0  0  # atno 8008 bound_to 7997
  155.1770  140.3296  155.4363 H   0  0  0  0  0  0  0  0  0  0  0  0  # atno 8009 bound_to 7997
  156.2448  140.1904  156.6869 H   0  0  0  0  0  0  0  0  0  0  0  0  # atno 8010 bound_to 7997
  140.2698  143.3351  152.0545 H   0  0  0  0  0  0  0  0  0  0  0  0  # atno 10167 bound_to 10162
  156.0000  130.4979  150.5594 H   0  0  0  0  0  0  0  0  0  0  0  0  # atno 10718 bound_to 10713
  154.5785  135.2834  155.0756 H   0  0  0  0  0  0  0  0  0  0  0  0  # atno 10763 bound_to 10752
  154.2102  135.6409  153.5116 H   0  0  0  0  0  0  0  0  0  0  0  0  # atno 10764 bound_to 10752
  153.0080  135.5490  154.6431 H   0  0  0  0  0  0  0  0  0  0  0  0  # atno 10765 bound_to 10752
  141.0338  133.9941  157.3103 H   0  0  0  0  0  0  0  0  0  0  0  0  # atno 11005 bound_to 11000
  144.8002  139.6156  143.7075 LP  0  0  0  0  0  0  0  0  0  0  0  0  # atno 17320 bound_to 7965
  146.2450  139.6080  142.9466 LP  0  0  0  0  0  0  0  0  0  0  0  0  # atno 17321 bound_to 7965
  139.4992  144.6664  151.6347 LP  0  0  0  0  0  0  0  0  0  0  0  0  # atno 17342 bound_to 10162
  140.5899  143.9799  150.6318 LP  0  0  0  0  0  0  0  0  0  0  0  0  # atno 17343 bound_to 10162
  157.3505  131.0732  151.1717 LP  0  0  0  0  0  0  0  0  0  0  0  0  # atno 17370 bound_to 10713
  157.2535  130.6625  149.5942 LP  0  0  0  0  0  0  0  0  0  0  0  0  # atno 17371 bound_to 10713
  139.9226  135.0201  156.8119 LP  0  0  0  0  0  0  0  0  0  0  0  0  # atno 17394 bound_to 11000
  140.6360  133.9862  155.7684 LP  0  0  0  0  0  0  0  0  0  0  0  0  # atno 17395 bound_to 11000

$$$$
