AV-unprocessed.smi:2451|AV-procd|sdf|9683|dock9
  -GOLD-   2272013323D 1   1.00000     0.00000
 Structure written by MMmdl.
 37 38  0  0  0  0  0  0  0  0  2 V2000
  151.6705  145.7583  160.2640 C   0  0  0  0  0  0  0  0  0  0  0  0
  151.6165  144.2560  159.9351 C   0  0  2  0  0  0  0  0  0  0  0  0
  152.8074  143.4980  160.5743 C   0  0  0  0  0  0  0  0  0  0  0  0
  152.6859  141.9854  160.2874 C   0  0  0  0  0  0  0  0  0  0  0  0
  152.4911  141.6595  158.7849 C   0  0  0  0  0  0  0  0  0  0  0  0
  151.3010  142.4228  158.1509 C   0  0  2  0  0  0  0  0  0  0  0  0
  151.1796  142.1227  156.7308 N   0  5  0  0  0  0  0  0  0  0  0  0
  151.1751  140.5810  156.2247 S   0  0  0  0  0  0  0  0  0  0  0  0
  150.6306  140.4240  154.8656 O   0  0  0  0  0  0  0  0  0  0  0  0
  152.4478  139.9033  156.5202 O   0  0  0  0  0  0  0  0  0  0  0  0
  149.9325  139.8441  157.3759 C   0  0  0  0  0  0  0  0  0  0  0  0
  150.5483  138.7326  158.1831 C   0  0  0  0  0  0  0  0  0  0  0  0
  151.6803  138.7828  159.0439 C   0  0  0  0  0  0  0  0  0  0  0  0
  151.7867  137.5043  159.5086 C   0  0  0  0  0  0  0  0  0  0  0  0
  150.8146  136.7226  158.9750 O   0  0  0  0  0  0  0  0  0  0  0  0
  150.0314  137.5145  158.1274 N   0  0  0  0  0  0  0  0  0  0  0  0
  151.4695  143.9582  158.4027 C   0  0  2  0  0  0  0  0  0  0  0  0
  152.6061  144.6147  157.5699 C   0  0  0  0  0  0  0  0  0  0  0  0
  152.6020  146.2158  159.9313 H   0  0  0  0  0  0  0  0  0  0  0  0
  151.5982  145.9211  161.3397 H   0  0  0  0  0  0  0  0  0  0  0  0
  150.8439  146.2933  159.7959 H   0  0  0  0  0  0  0  0  0  0  0  0
  150.7116  143.8963  160.4320 H   0  0  0  0  0  0  0  0  0  0  0  0
  153.7513  143.8744  160.1792 H   0  0  0  0  0  0  0  0  0  0  0  0
  152.8334  143.6685  161.6509 H   0  0  0  0  0  0  0  0  0  0  0  0
  153.5761  141.4750  160.6558 H   0  0  0  0  0  0  0  0  0  0  0  0
  151.8535  141.5772  160.8644 H   0  0  0  0  0  0  0  0  0  0  0  0
  153.4107  141.8927  158.2469 H   0  0  0  0  0  0  0  0  0  0  0  0
  152.3461  140.5847  158.6740 H   0  0  0  0  0  0  0  0  0  0  0  0
  150.3993  142.1150  158.6824 H   0  0  0  0  0  0  0  0  0  0  0  0
  149.5796  140.6431  158.0282 H   0  0  0  0  0  0  0  0  0  0  0  0
  149.0781  139.4965  156.7961 H   0  0  0  0  0  0  0  0  0  0  0  0
  152.3067  139.6279  159.2883 H   0  0  0  0  0  0  0  0  0  0  0  0
  152.4688  137.0167  160.1892 H   0  0  0  0  0  0  0  0  0  0  0  0
  150.5420  144.4306  158.0755 H   0  0  0  0  0  0  0  0  0  0  0  0
  153.5951  144.2447  157.8423 H   0  0  0  0  0  0  0  0  0  0  0  0
  152.6196  145.6951  157.7063 H   0  0  0  0  0  0  0  0  0  0  0  0
  152.4832  144.4605  156.4966 H   0  0  0  0  0  0  0  0  0  0  0  0
  1  2  1  0  0  0  0
  1 19  1  0  0  0  0
  1 20  1  0  0  0  0
  1 21  1  0  0  0  0
  2 17  1  0  0  0  0
  2  3  1  0  0  0  0
  2 22  1  0  0  0  0
  3  4  1  0  0  0  0
  3 23  1  0  0  0  0
  3 24  1  0  0  0  0
  4  5  1  0  0  0  0
  4 25  1  0  0  0  0
  4 26  1  0  0  0  0
  5  6  1  0  0  0  0
  5 27  1  0  0  0  0
  5 28  1  0  0  0  0
  6  7  1  0  0  0  0
  6 17  1  0  0  0  0
  6 29  1  0  0  0  0
  7  8  1  0  0  0  0
  8  9  2  0  0  0  0
  8 10  2  0  0  0  0
  8 11  1  0  0  0  0
 11 12  1  0  0  0  0
 11 30  1  0  0  0  0
 11 31  1  0  0  0  0
 12 16  2  0  0  0  0
 12 13  1  0  0  0  0
 13 14  2  0  0  0  0
 13 32  1  0  0  0  0
 14 15  1  0  0  0  0
 14 33  1  0  0  0  0
 15 16  1  0  0  0  0
 17 18  1  0  0  0  0
 17 34  1  0  0  0  0
 18 35  1  0  0  0  0
 18 36  1  0  0  0  0
 18 37  1  0  0  0  0
M  CHG  1   7  -1
M  END
> <s_m_source_file>
AV-unprocessed.smi

> <i_m_source_file_index>
2451

> <i_lp_mmshare_version>
43012

> <i_f3d_flags>
0

> <s_epik_input>
W0NIM11bQ0BASF0xW0NIMl1bQ0gyXVtDSDJdW0NASF0oW0NASF0xW0NIM10pW05IXVMoPU8pKD1PKVtDSDJdYzJbY0hdW2NIXW9uMg==

> <s_epik_cmdline>
J2VwaWtfcHl0aG9uJywgJy1waCcsICc3LjAnLCAnLXRuJywgJzgnLCAnLW1hJywgJzIwMCcsICctbWV0YWxfYmluZGluZycsICctaW1hZScsICc8aW5maWxlLm1hZT4nLCAnLW9tYWUnLCAnPG91dGZpbGUubWFlPic=

> <r_lp_tautomer_probability>
1

> <r_epik_Ionization_Penalty>
5.22693

> <r_epik_Ionization_Penalty_Charging>
5.22693

> <r_epik_Ionization_Penalty_Neutral>
2.67702e-10

> <r_epik_State_Penalty>
5.22685

> <r_epik_Charging_Adjusted_Penalty>
10.4538

> <i_epik_Tot_Q>
-1

> <i_epik_Tot_abs_Q>
1

> <r_epik_Metal_State_Penalty>
1.28716

> <b_epik_Metal_Only>
1

> <s_lp_Force_Field>
OPLS_2005

> <r_lp_Energy>
15.3168

> <b_lp_Chiralities_Consistent>
1

> <s_lp_Variant>
AV-unprocessed.smi:2451-15

> <Gold.Version>
5.8.1

> <Gold.Id.Protein>
6NUR|6NUR_protein|mol2

> <Gold.PLP.Fitness>
45.6822

> <Gold.PLP.PLP>
-36.9622

> <Gold.PLP.part.hbond>
-3.0000

> <Gold.PLP.part.metal>
0.0000

> <Gold.PLP.part.buried>
-4.4032

> <Gold.PLP.part.nonpolar>
-29.4702

> <Gold.PLP.part.repulsive>
0.1469

> <Gold.PLP.ligand.clash>
0.0021

> <Gold.PLP.ligand.torsion>
0.6359

> <Gold.PLP.Chemscore.Hbond>
3.0000

> <Gold.PLP.Chemscore.CHOScore>
0.0000

> <Gold.PLP.Chemscore.Metal>
0.0000

> <Gold.Chemscore.Hbonds>
donor molecule, donor type, donor heavy atom, donor atom, acceptor molecule, acceptor atom, score
      P1  H  6896  6907       L1    15  1.00
      P1  H  7989  7998       L1     9  1.00
      P1  H  7997  8009       L1    10  1.00

> <Gold.PLP.Chemscore.Internal.Correction>
0.9938

> <Gold.Rescore>
     Score         DG    S(hbond)    S(metal)    S(lipo)     H(rot)  DE(clash)    DE(int)     intcor
     20.97     -23.81       2.76        0.00     108.38       1.40       0.15       2.69       ----

> <Gold.Chemscore.Fitness>
20.9674

> <Gold.Chemscore.DG>
-23.8101

> <Gold.Chemscore.ZeroCoef>
-5.4800

> <Gold.Chemscore.Hbond>
2.7635

> <Gold.Chemscore.Metal>
0.0000

> <Gold.Chemscore.Lipo>
108.3800

> <Gold.Chemscore.Internal_Hbond>
0.0000

> <Gold.Chemscore.DEClash>
0.1540

> <Gold.Chemscore.DEInternal>
2.6888

> <Gold.Chemscore.Rot>
1.3986

> <Gold.Chemscore.Internal.Correction>
   9.000000E+99

> <Gold.Chemscore.Hbonds>
donor molecule, donor type, donor heavy atom, donor atom, acceptor molecule, acceptor atom, score
      P1  H  6896  6907       L1    15  0.53
      P1  H  7989  7998       L1     9  0.94
      P1  H  7997  8009       L1    10  1.00

> <Gold.Chemscore.Hbond.Weighted>
-9.2301

> <Gold.Chemscore.Metal.Weighted>
-0.0000

> <Gold.Chemscore.Lipo.Weighted>
-12.6805

> <Gold.Chemscore.Internal_Hbond.Weighted>
0.0000

> <Gold.Chemscore.DEClash.Weighted>
0.1540

> <Gold.Chemscore.DEInternal.Weighted>
2.6888

> <Gold.Chemscore.Rot.Weighted>
3.5804

> <Gold.Chemscore.Internal.Correction.Weighted>
   9.000000E+99

> <Gold.Protein.RotatedTorsions>
[ 6907 6896 6895 6894 ] final  -36.06 input  -60.11 | X-H torsion
[ 7974 7965 7964 7962 ] final   24.93 input  175.53 | X-H torsion
[ 8008 7997 7996 7995 ] final -170.21 input   59.86 | X-H torsion
[ 10167 10162 10161 10158 ] final  -45.03 input  -65.29 | X-H torsion
[ 10718 10713 10712 10709 ] final  101.08 input   66.30 | X-H torsion
[ 10763 10752 10751 10750 ] final  167.97 input  -60.55 | X-H torsion
[ 11005 11000 10999 10996 ] final  -47.98 input  -57.11 | X-H torsion

> <Gold.Protein.ActiveResidues>
 VAL166  LYS551  ARG553  GLY616  TRP617  ASP618  TYR619  PRO620  LYS621  CYS622 
 ASP623  PHE694  ASN695  SER759  ASP760  ASP761  ALA762  ILE779  LEU786  VAL792 
 PHE793  MET794  SER795  GLU796  ALA797  LYS798  CYS799  TRP800  GLU811  SER814 

> <Gold.Protein.RotatedAtoms>
  151.0320  134.9546  159.8115 H   0  0  0  0  0  0  0  0  0  0  0  0  # atno 6907 bound_to 6896
  152.5347  134.2768  159.9002 H   0  0  0  0  0  0  0  0  0  0  0  0  # atno 6908 bound_to 6896
  151.2778  133.4182  159.2659 H   0  0  0  0  0  0  0  0  0  0  0  0  # atno 6909 bound_to 6896
  146.1914  139.7537  142.8829 H   0  0  0  0  0  0  0  0  0  0  0  0  # atno 7974 bound_to 7965
  155.9153  140.1064  157.1248 H   0  0  0  0  0  0  0  0  0  0  0  0  # atno 8008 bound_to 7997
  154.4045  140.1266  156.4674 H   0  0  0  0  0  0  0  0  0  0  0  0  # atno 8009 bound_to 7997
  155.7261  140.3469  155.5040 H   0  0  0  0  0  0  0  0  0  0  0  0  # atno 8010 bound_to 7997
  140.6874  143.2900  151.3580 H   0  0  0  0  0  0  0  0  0  0  0  0  # atno 10167 bound_to 10162
  157.6838  131.0716  150.5198 H   0  0  0  0  0  0  0  0  0  0  0  0  # atno 10718 bound_to 10713
  154.3617  135.2753  155.2316 H   0  0  0  0  0  0  0  0  0  0  0  0  # atno 10763 bound_to 10752
  154.4501  135.5933  153.6190 H   0  0  0  0  0  0  0  0  0  0  0  0  # atno 10764 bound_to 10752
  152.9843  135.6040  154.3838 H   0  0  0  0  0  0  0  0  0  0  0  0  # atno 10765 bound_to 10752
  141.0673  133.6689  156.3376 H   0  0  0  0  0  0  0  0  0  0  0  0  # atno 11005 bound_to 11000
  145.3781  141.0354  143.3193 LP  0  0  0  0  0  0  0  0  0  0  0  0  # atno 17320 bound_to 7965
  144.8494  139.5346  143.6863 LP  0  0  0  0  0  0  0  0  0  0  0  0  # atno 17321 bound_to 7965
  139.6244  144.0843  152.2421 LP  0  0  0  0  0  0  0  0  0  0  0  0  # atno 17342 bound_to 10162
  140.0297  144.6090  150.7498 LP  0  0  0  0  0  0  0  0  0  0  0  0  # atno 17343 bound_to 10162
  156.5511  130.4232  149.6107 LP  0  0  0  0  0  0  0  0  0  0  0  0  # atno 17370 bound_to 10713
  156.2901  130.7119  151.1966 LP  0  0  0  0  0  0  0  0  0  0  0  0  # atno 17371 bound_to 10713
  140.5746  134.5806  157.5465 LP  0  0  0  0  0  0  0  0  0  0  0  0  # atno 17394 bound_to 11000
  139.9489  134.7652  156.0495 LP  0  0  0  0  0  0  0  0  0  0  0  0  # atno 17395 bound_to 11000

$$$$
