AV-unprocessed.smi:3037|AV-procd|sdf|11586|dock8
  -GOLD-   2272016563D 1   1.00000     0.00000
 Structure written by MMmdl.
 47 48  0  0  0  0  0  0  0  0  2 V2000
  145.7355  132.7593  150.4616 C   0  0  0  0  0  0  0  0  0  0  0  0
  145.2532  134.0522  151.0537 C   0  0  0  0  0  0  0  0  0  0  0  0
  143.9082  134.4898  151.2187 C   0  0  0  0  0  0  0  0  0  0  0  0
  143.8219  135.6868  151.7756 N   0  0  0  0  0  0  0  0  0  0  0  0
  145.1035  136.0540  151.9866 N   0  0  0  0  0  0  0  0  0  0  0  0
  145.3969  137.3395  152.5948 C   0  0  0  0  0  0  0  0  0  0  0  0
  146.2295  138.2637  151.6823 C   0  0  2  0  0  0  0  0  0  0  0  0
  146.2911  137.7597  150.2264 C   0  0  0  0  0  0  0  0  0  0  0  0
  147.5864  138.4121  152.2554 N   0  3  0  0  0  0  0  0  0  0  0  0
  147.6487  139.0377  153.5934 C   0  0  0  0  0  0  0  0  0  0  0  0
  149.0867  139.0129  154.1434 C   0  0  0  0  0  0  0  0  0  0  0  0
  149.3849  140.1390  155.1493 C   0  0  0  0  0  0  0  0  0  0  0  0
  148.4820  140.9224  155.4471 O   0  0  0  0  0  0  0  0  0  0  0  0
  150.6298  140.2377  155.6775 N   0  0  0  0  0  0  0  0  0  0  0  0
  150.9875  141.2541  156.6771 C   0  0  0  0  0  0  0  0  0  0  0  0
  151.2324  140.5621  158.0306 C   0  0  0  0  0  0  0  0  0  0  0  0
  152.3109  139.4703  157.9040 C   0  0  0  0  0  0  0  0  0  0  0  0
  152.0147  138.5146  156.7334 C   0  0  0  0  0  0  0  0  0  0  0  0
  151.7369  139.3003  155.4387 C   0  0  0  0  0  0  0  0  0  0  0  0
  145.9884  135.0878  151.5569 C   0  0  0  0  0  0  0  0  0  0  0  0
  144.9438  132.0107  150.4235 H   0  0  0  0  0  0  0  0  0  0  0  0
  146.5540  132.3306  151.0402 H   0  0  0  0  0  0  0  0  0  0  0  0
  146.0976  132.8955  149.4424 H   0  0  0  0  0  0  0  0  0  0  0  0
  142.9973  133.9752  150.9503 H   0  0  0  0  0  0  0  0  0  0  0  0
  144.4473  137.8146  152.8451 H   0  0  0  0  0  0  0  0  0  0  0  0
  145.9174  137.1717  153.5396 H   0  0  0  0  0  0  0  0  0  0  0  0
  145.7548  139.2462  151.6882 H   0  0  0  0  0  0  0  0  0  0  0  0
  145.2958  137.6795  149.7892 H   0  0  0  0  0  0  0  0  0  0  0  0
  146.7572  136.7756  150.1684 H   0  0  0  0  0  0  0  0  0  0  0  0
  146.8565  138.4347  149.5848 H   0  0  0  0  0  0  0  0  0  0  0  0
  147.9811  137.4864  152.3413 H   0  0  0  0  0  0  0  0  0  0  0  0
  147.2946  140.0667  153.5298 H   0  0  0  0  0  0  0  0  0  0  0  0
  146.9799  138.5032  154.2698 H   0  0  0  0  0  0  0  0  0  0  0  0
  149.2707  138.0527  154.6275 H   0  0  0  0  0  0  0  0  0  0  0  0
  149.7853  139.0983  153.3101 H   0  0  0  0  0  0  0  0  0  0  0  0
  151.8892  141.7760  156.3537 H   0  0  0  0  0  0  0  0  0  0  0  0
  150.2253  142.0259  156.7907 H   0  0  0  0  0  0  0  0  0  0  0  0
  151.5305  141.2961  158.7795 H   0  0  0  0  0  0  0  0  0  0  0  0
  150.3018  140.1173  158.3855 H   0  0  0  0  0  0  0  0  0  0  0  0
  153.2797  139.9441  157.7409 H   0  0  0  0  0  0  0  0  0  0  0  0
  152.3941  138.9116  158.8366 H   0  0  0  0  0  0  0  0  0  0  0  0
  152.8533  137.8334  156.5873 H   0  0  0  0  0  0  0  0  0  0  0  0
  151.1505  137.8949  156.9765 H   0  0  0  0  0  0  0  0  0  0  0  0
  151.5588  138.6052  154.6205 H   0  0  0  0  0  0  0  0  0  0  0  0
  152.6248  139.8648  155.1498 H   0  0  0  0  0  0  0  0  0  0  0  0
  147.0575  135.2147  151.6447 H   0  0  0  0  0  0  0  0  0  0  0  0
  148.1555  138.9433  151.6119 H   0  0  0  0  0  0  0  0  0  0  0  0
  1  2  1  0  0  0  0
  1 21  1  0  0  0  0
  1 22  1  0  0  0  0
  1 23  1  0  0  0  0
  2 20  2  0  0  0  0
  2  3  1  0  0  0  0
  3  4  2  0  0  0  0
  3 24  1  0  0  0  0
  4  5  1  0  0  0  0
  5  6  1  0  0  0  0
  5 20  1  0  0  0  0
  6  7  1  0  0  0  0
  6 25  1  0  0  0  0
  6 26  1  0  0  0  0
  7  8  1  0  0  0  0
  7  9  1  0  0  0  0
  7 27  1  0  0  0  0
  8 28  1  0  0  0  0
  8 29  1  0  0  0  0
  8 30  1  0  0  0  0
  9 10  1  0  0  0  0
  9 31  1  0  0  0  0
  9 47  1  0  0  0  0
 10 11  1  0  0  0  0
 10 32  1  0  0  0  0
 10 33  1  0  0  0  0
 11 12  1  0  0  0  0
 11 34  1  0  0  0  0
 11 35  1  0  0  0  0
 12 13  2  0  0  0  0
 12 14  1  0  0  0  0
 14 19  1  0  0  0  0
 14 15  1  0  0  0  0
 15 16  1  0  0  0  0
 15 36  1  0  0  0  0
 15 37  1  0  0  0  0
 16 17  1  0  0  0  0
 16 38  1  0  0  0  0
 16 39  1  0  0  0  0
 17 18  1  0  0  0  0
 17 40  1  0  0  0  0
 17 41  1  0  0  0  0
 18 19  1  0  0  0  0
 18 42  1  0  0  0  0
 18 43  1  0  0  0  0
 19 44  1  0  0  0  0
 19 45  1  0  0  0  0
 20 46  1  0  0  0  0
M  CHG  1   9   1
M  END
> <s_m_source_file>
AV-unprocessed.smi

> <i_m_source_file_index>
3037

> <i_lp_mmshare_version>
43012

> <i_f3d_flags>
0

> <s_epik_input>
W0NIM11jMVtjSF1ubihbY0hdMSlbQ0gyXVtDQEhdKFtDSDNdKVtOSF1bQ0gyXVtDSDJdQyg9TylOMltDSDJdW0NIMl1bQ0gyXVtDSDJdW0NIMl0y

> <s_epik_cmdline>
J2VwaWtfcHl0aG9uJywgJy1waCcsICc3LjAnLCAnLXRuJywgJzgnLCAnLW1hJywgJzIwMCcsICctbWV0YWxfYmluZGluZycsICctaW1hZScsICc8aW5maWxlLm1hZT4nLCAnLW9tYWUnLCAnPG91dGZpbGUubWFlPic=

> <r_lp_tautomer_probability>
1

> <r_epik_Ionization_Penalty>
0.00574983

> <r_epik_Ionization_Penalty_Charging>
0.00574185

> <r_epik_Ionization_Penalty_Neutral>
7.97936e-06

> <r_epik_State_Penalty>
0.00421386

> <r_epik_Charging_Adjusted_Penalty>
0.00995571

> <i_epik_Tot_Q>
1

> <i_epik_Tot_abs_Q>
1

> <r_epik_Metal_State_Penalty>
-0

> <b_epik_Metal_Only>
0

> <s_lp_Force_Field>
OPLS_2005

> <r_lp_Energy>
27.2307

> <b_lp_Chiralities_Consistent>
1

> <s_lp_Variant>
AV-unprocessed.smi:3037-1

> <Gold.Version>
5.8.1

> <Gold.Id.Protein>
6NUR|6NUR_protein|mol2

> <Gold.PLP.Fitness>
47.1406

> <Gold.PLP.PLP>
-33.7788

> <Gold.PLP.part.hbond>
-2.0000

> <Gold.PLP.part.metal>
0.0000

> <Gold.PLP.part.buried>
5.0237

> <Gold.PLP.part.nonpolar>
-36.8377

> <Gold.PLP.part.repulsive>
0.3377

> <Gold.PLP.ligand.clash>
0.0000

> <Gold.PLP.ligand.torsion>
0.8657

> <Gold.PLP.Chemscore.Hbond>
3.0000

> <Gold.PLP.Chemscore.CHOScore>
2.0000

> <Gold.PLP.Chemscore.Metal>
0.0000

> <Gold.Chemscore.Hbonds>
donor molecule, donor type, donor heavy atom, donor atom, acceptor molecule, acceptor atom, score
      L1  H     9    31       P1  7948  2.00
      L1  H     9    47       P1  7957  1.00
      L1  C     3    24       P1 10186  1.00
      L1  C    20    46       P1  7948  1.00

> <Gold.PLP.Chemscore.Internal.Correction>
0.0931

> <Gold.Rescore>
     Score         DG    S(hbond)    S(metal)    S(lipo)     H(rot)  DE(clash)    DE(int)     intcor
     14.69     -17.70       1.94        0.00      89.20       1.84       2.14       0.87       ----

> <Gold.Chemscore.Fitness>
14.6948

> <Gold.Chemscore.DG>
-17.7026

> <Gold.Chemscore.ZeroCoef>
-5.4800

> <Gold.Chemscore.Hbond>
1.9438

> <Gold.Chemscore.Metal>
0.0000

> <Gold.Chemscore.Lipo>
89.2011

> <Gold.Chemscore.Internal_Hbond>
0.0000

> <Gold.Chemscore.DEClash>
2.1427

> <Gold.Chemscore.DEInternal>
0.8651

> <Gold.Chemscore.Rot>
1.8383

> <Gold.Chemscore.Internal.Correction>
   9.000000E+99

> <Gold.Chemscore.Hbonds>
donor molecule, donor type, donor heavy atom, donor atom, acceptor molecule, acceptor atom, score
      L1  H     9    31       P1  7948  0.96
      L1  H     9    47       P1  7957  0.81

> <Gold.Chemscore.Hbond.Weighted>
-6.4922

> <Gold.Chemscore.Metal.Weighted>
-0.0000

> <Gold.Chemscore.Lipo.Weighted>
-10.4365

> <Gold.Chemscore.Internal_Hbond.Weighted>
0.0000

> <Gold.Chemscore.DEClash.Weighted>
2.1427

> <Gold.Chemscore.DEInternal.Weighted>
0.8651

> <Gold.Chemscore.Rot.Weighted>
4.7062

> <Gold.Chemscore.Internal.Correction.Weighted>
   9.000000E+99

> <Gold.Protein.RotatedTorsions>
[ 6907 6896 6895 6894 ] final  -55.65 input  -60.11 | X-H torsion
[ 7974 7965 7964 7962 ] final  118.80 input  175.53 | X-H torsion
[ 8008 7997 7996 7995 ] final  -17.04 input   59.86 | X-H torsion
[ 10167 10162 10161 10158 ] final  173.07 input  -65.29 | X-H torsion
[ 10718 10713 10712 10709 ] final -143.58 input   66.30 | X-H torsion
[ 10763 10752 10751 10750 ] final -108.11 input  -60.55 | X-H torsion
[ 11005 11000 10999 10996 ] final  142.47 input  -57.11 | X-H torsion

> <Gold.Protein.ActiveResidues>
 VAL166  LYS551  ARG553  GLY616  TRP617  ASP618  TYR619  PRO620  LYS621  CYS622 
 ASP623  PHE694  ASN695  SER759  ASP760  ASP761  ALA762  ILE779  LEU786  VAL792 
 PHE793  MET794  SER795  GLU796  ALA797  LYS798  CYS799  TRP800  GLU811  SER814 

> <Gold.Protein.RotatedAtoms>
  150.8234  134.7453  159.6791 H   0  0  0  0  0  0  0  0  0  0  0  0  # atno 6907 bound_to 6896
  152.4347  134.5706  159.9930 H   0  0  0  0  0  0  0  0  0  0  0  0  # atno 6908 bound_to 6896
  151.5884  133.3332  159.3058 H   0  0  0  0  0  0  0  0  0  0  0  0  # atno 6909 bound_to 6896
  145.1508  139.3211  143.4567 H   0  0  0  0  0  0  0  0  0  0  0  0  # atno 7974 bound_to 7965
  154.5008  140.2153  155.9351 H   0  0  0  0  0  0  0  0  0  0  0  0  # atno 8008 bound_to 7997
  156.1431  140.3176  155.8494 H   0  0  0  0  0  0  0  0  0  0  0  0  # atno 8009 bound_to 7997
  155.4083  140.0489  157.3024 H   0  0  0  0  0  0  0  0  0  0  0  0  # atno 8010 bound_to 7997
  139.5096  144.3302  152.0118 H   0  0  0  0  0  0  0  0  0  0  0  0  # atno 10167 bound_to 10162
  156.3597  130.7732  151.1897 H   0  0  0  0  0  0  0  0  0  0  0  0  # atno 10718 bound_to 10713
  154.8116  135.4650  154.0532 H   0  0  0  0  0  0  0  0  0  0  0  0  # atno 10763 bound_to 10752
  153.1958  135.6862  153.8301 H   0  0  0  0  0  0  0  0  0  0  0  0  # atno 10764 bound_to 10752
  153.7803  135.3257  155.3342 H   0  0  0  0  0  0  0  0  0  0  0  0  # atno 10765 bound_to 10752
  140.0479  134.9271  157.0964 H   0  0  0  0  0  0  0  0  0  0  0  0  # atno 11005 bound_to 11000
  146.3495  140.1582  142.8591 LP  0  0  0  0  0  0  0  0  0  0  0  0  # atno 17320 bound_to 7965
  145.0432  140.8962  143.5040 LP  0  0  0  0  0  0  0  0  0  0  0  0  # atno 17321 bound_to 7965
  140.2742  144.3931  150.6141 LP  0  0  0  0  0  0  0  0  0  0  0  0  # atno 17342 bound_to 10162
  140.6066  143.2168  151.6969 LP  0  0  0  0  0  0  0  0  0  0  0  0  # atno 17343 bound_to 10162
  157.7472  131.0403  150.4594 LP  0  0  0  0  0  0  0  0  0  0  0  0  # atno 17370 bound_to 10713
  156.4803  130.4072  149.6465 LP  0  0  0  0  0  0  0  0  0  0  0  0  # atno 17371 bound_to 10713
  140.3964  134.2130  155.7164 LP  0  0  0  0  0  0  0  0  0  0  0  0  # atno 17394 bound_to 11000
  141.1916  133.8191  157.0872 LP  0  0  0  0  0  0  0  0  0  0  0  0  # atno 17395 bound_to 11000

$$$$
