AV-unprocessed.smi:1675|AV-procd|sdf|6717|dock10
  -GOLD-   22720 7463D 1   1.00000     0.00000
 Structure written by MMmdl.
 40 42  0  0  0  0  0  0  0  0  1 V2000
  151.3969  132.8999  156.3584 N   0  0  0  0  0  0  0  0  0  0  0  0
  150.7131  134.0188  156.6106 C   0  0  0  0  0  0  0  0  0  0  0  0
  150.2051  134.2413  157.7080 O   0  0  0  0  0  0  0  0  0  0  0  0
  150.5809  135.0291  155.4668 C   0  0  0  0  0  0  0  0  0  0  0  0
  151.0367  136.3496  155.8657 N   0  0  0  0  0  0  0  0  0  0  0  0
  150.6262  137.1023  156.9491 C   0  0  0  0  0  0  0  0  0  0  0  0
  151.3398  138.2654  156.8834 C   0  0  0  0  0  0  0  0  0  0  0  0
  151.2986  139.3960  157.7377 N   0  0  0  0  0  0  0  0  0  0  0  0
  152.3163  139.9377  158.4298 C   0  0  0  0  0  0  0  0  0  0  0  0
  153.4725  139.5168  158.4056 O   0  0  0  0  0  0  0  0  0  0  0  0
  151.9625  141.1515  159.2967 C   0  0  0  0  0  0  0  0  0  0  0  0
  152.4233  142.4939  158.6852 C   0  0  2  0  0  0  0  0  0  0  0  0
  152.8380  143.5886  159.6953 C   0  0  0  0  0  0  0  0  0  0  0  0
  152.0344  144.8152  159.2235 C   0  0  2  0  0  0  0  0  0  0  0  0
  150.5564  144.6246  159.6093 C   0  0  0  0  0  0  0  0  0  0  0  0
  150.0889  143.5370  158.6249 C   0  0  0  0  0  0  0  0  0  0  0  0
  151.3696  143.2267  157.8220 C   0  0  1  0  0  0  0  0  0  0  0  0
  151.9933  144.6147  157.7124 C   0  0  0  0  0  0  0  0  0  0  0  0
  152.1618  138.1509  155.7324 C   0  0  0  0  0  0  0  0  0  0  0  0
  151.9785  136.9880  155.1264 N   0  0  0  0  0  0  0  0  0  0  0  0
  151.5056  132.2070  157.0847 H   0  0  0  0  0  0  0  0  0  0  0  0
  151.8007  132.7476  155.4456 H   0  0  0  0  0  0  0  0  0  0  0  0
  151.1627  134.7098  154.6006 H   0  0  0  0  0  0  0  0  0  0  0  0
  149.5379  135.0831  155.1511 H   0  0  0  0  0  0  0  0  0  0  0  0
  149.8777  136.7482  157.6424 H   0  0  0  0  0  0  0  0  0  0  0  0
  150.4007  139.8495  157.8248 H   0  0  0  0  0  0  0  0  0  0  0  0
  150.8831  141.1803  159.4535 H   0  0  0  0  0  0  0  0  0  0  0  0
  152.4117  141.0010  160.2784 H   0  0  0  0  0  0  0  0  0  0  0  0
  153.2793  142.2884  158.0393 H   0  0  0  0  0  0  0  0  0  0  0  0
  152.6044  143.3285  160.7286 H   0  0  0  0  0  0  0  0  0  0  0  0
  153.9107  143.7762  159.6364 H   0  0  0  0  0  0  0  0  0  0  0  0
  152.4532  145.7665  159.5530 H   0  0  0  0  0  0  0  0  0  0  0  0
  150.4356  144.3239  160.6507 H   0  0  0  0  0  0  0  0  0  0  0  0
  149.9919  145.5456  159.4593 H   0  0  0  0  0  0  0  0  0  0  0  0
  149.6691  142.6659  159.1267 H   0  0  0  0  0  0  0  0  0  0  0  0
  149.3151  143.9341  157.9669 H   0  0  0  0  0  0  0  0  0  0  0  0
  151.1764  142.7399  156.8656 H   0  0  0  0  0  0  0  0  0  0  0  0
  151.3578  145.3370  157.1971 H   0  0  0  0  0  0  0  0  0  0  0  0
  152.9816  144.6143  157.2488 H   0  0  0  0  0  0  0  0  0  0  0  0
  152.8712  138.8566  155.3257 H   0  0  0  0  0  0  0  0  0  0  0  0
  1  2  1  0  0  0  0
  1 21  1  0  0  0  0
  1 22  1  0  0  0  0
  2  3  2  0  0  0  0
  2  4  1  0  0  0  0
  4  5  1  0  0  0  0
  4 23  1  0  0  0  0
  4 24  1  0  0  0  0
  5 20  1  0  0  0  0
  5  6  1  0  0  0  0
  6  7  2  0  0  0  0
  6 25  1  0  0  0  0
  7  8  1  0  0  0  0
  7 19  1  0  0  0  0
  8  9  1  0  0  0  0
  8 26  1  0  0  0  0
  9 10  2  0  0  0  0
  9 11  1  0  0  0  0
 11 12  1  0  0  0  0
 11 27  1  0  0  0  0
 11 28  1  0  0  0  0
 12 17  1  0  0  0  0
 12 13  1  0  0  0  0
 12 29  1  0  0  0  0
 13 14  1  0  0  0  0
 13 30  1  0  0  0  0
 13 31  1  0  0  0  0
 14 18  1  0  0  0  0
 14 15  1  0  0  0  0
 14 32  1  0  0  0  0
 15 16  1  0  0  0  0
 15 33  1  0  0  0  0
 15 34  1  0  0  0  0
 16 17  1  0  0  0  0
 16 35  1  0  0  0  0
 16 36  1  0  0  0  0
 17 18  1  0  0  0  0
 17 37  1  0  0  0  0
 18 38  1  0  0  0  0
 18 39  1  0  0  0  0
 19 20  2  0  0  0  0
 19 40  1  0  0  0  0
M  END
> <s_m_source_file>
AV-unprocessed.smi

> <i_m_source_file_index>
1675

> <i_lp_mmshare_version>
43012

> <i_f3d_flags>
0

> <s_epik_input>
W05IMl1DKD1PKVtDSDJdbjFbY0hdYyhbY0hdbjEpW05IXUMoPU8pW0NIMl1bQ0BIXShbQ0gyXVtDQEBIXTIzKVtDQEBIXShbQ0gyXTMpW0NIMl1bQ0gyXTI=

> <s_epik_cmdline>
J2VwaWtfcHl0aG9uJywgJy1waCcsICc3LjAnLCAnLXRuJywgJzgnLCAnLW1hJywgJzIwMCcsICctbWV0YWxfYmluZGluZycsICctaW1hZScsICc8aW5maWxlLm1hZT4nLCAnLW9tYWUnLCAnPG91dGZpbGUubWFlPic=

> <r_lp_tautomer_probability>
1

> <r_epik_Ionization_Penalty>
2.17494e-05

> <r_epik_Ionization_Penalty_Charging>
0

> <r_epik_Ionization_Penalty_Neutral>
2.17494e-05

> <r_epik_State_Penalty>
-0

> <r_epik_Charging_Adjusted_Penalty>
0

> <i_epik_Tot_Q>
0

> <i_epik_Tot_abs_Q>
0

> <r_epik_Metal_State_Penalty>
-0

> <b_epik_Metal_Only>
0

> <s_lp_Force_Field>
OPLS_2005

> <r_lp_Energy>
53.8438

> <b_lp_Chiralities_Consistent>
1

> <s_lp_Variant>
AV-unprocessed.smi:1675-3

> <Gold.Version>
5.8.1

> <Gold.Id.Protein>
6NUR|6NUR_protein|mol2

> <Gold.PLP.Fitness>
44.3299

> <Gold.PLP.PLP>
-37.9526

> <Gold.PLP.part.hbond>
-3.0000

> <Gold.PLP.part.metal>
0.0000

> <Gold.PLP.part.buried>
-6.7065

> <Gold.PLP.part.nonpolar>
-29.1868

> <Gold.PLP.part.repulsive>
0.2589

> <Gold.PLP.ligand.clash>
0.0000

> <Gold.PLP.ligand.torsion>
1.2552

> <Gold.PLP.Chemscore.Hbond>
2.9600

> <Gold.PLP.Chemscore.CHOScore>
0.0000

> <Gold.PLP.Chemscore.Metal>
0.0000

> <Gold.Chemscore.Hbonds>
donor molecule, donor type, donor heavy atom, donor atom, acceptor molecule, acceptor atom, score
      P1  H  6896  6908       L1     3  0.83
      P1  H  7997  8010       L1    10  1.00
      P1  H 10752 10765       L1    20  1.00

> <Gold.PLP.Chemscore.Internal.Correction>
0.0077

> <Gold.Rescore>
     Score         DG    S(hbond)    S(metal)    S(lipo)     H(rot)  DE(clash)    DE(int)     intcor
     20.68     -22.09       2.81        0.00     108.60       2.15       0.11       1.30       ----

> <Gold.Chemscore.Fitness>
20.6832

> <Gold.Chemscore.DG>
-22.0871

> <Gold.Chemscore.ZeroCoef>
-5.4800

> <Gold.Chemscore.Hbond>
2.8149

> <Gold.Chemscore.Metal>
0.0000

> <Gold.Chemscore.Lipo>
108.5960

> <Gold.Chemscore.Internal_Hbond>
0.0000

> <Gold.Chemscore.DEClash>
0.1066

> <Gold.Chemscore.DEInternal>
1.2973

> <Gold.Chemscore.Rot>
2.1486

> <Gold.Chemscore.Internal.Correction>
   9.000000E+99

> <Gold.Chemscore.Hbonds>
donor molecule, donor type, donor heavy atom, donor atom, acceptor molecule, acceptor atom, score
      P1  H  6896  6908       L1     3  0.83
      P1  H  7997  8010       L1    10  0.95
      P1  H 10752 10765       L1    20  0.28

> <Gold.Chemscore.Hbond.Weighted>
-9.4018

> <Gold.Chemscore.Metal.Weighted>
-0.0000

> <Gold.Chemscore.Lipo.Weighted>
-12.7057

> <Gold.Chemscore.Internal_Hbond.Weighted>
0.0000

> <Gold.Chemscore.DEClash.Weighted>
0.1066

> <Gold.Chemscore.DEInternal.Weighted>
1.2973

> <Gold.Chemscore.Rot.Weighted>
5.5004

> <Gold.Chemscore.Internal.Correction.Weighted>
   9.000000E+99

> <Gold.Protein.RotatedTorsions>
[ 6907 6896 6895 6894 ] final  136.84 input  -60.11 | X-H torsion
[ 7974 7965 7964 7962 ] final   -8.88 input  175.53 | X-H torsion
[ 8008 7997 7996 7995 ] final    9.93 input   59.86 | X-H torsion
[ 10167 10162 10161 10158 ] final  -50.25 input  -65.29 | X-H torsion
[ 10718 10713 10712 10709 ] final -124.12 input   66.30 | X-H torsion
[ 10763 10752 10751 10750 ] final  178.37 input  -60.55 | X-H torsion
[ 11005 11000 10999 10996 ] final  102.63 input  -57.11 | X-H torsion

> <Gold.Protein.ActiveResidues>
 VAL166  LYS551  ARG553  GLY616  TRP617  ASP618  TYR619  PRO620  LYS621  CYS622 
 ASP623  PHE694  ASN695  SER759  ASP760  ASP761  ALA762  ILE779  LEU786  VAL792 
 PHE793  MET794  SER795  GLU796  ALA797  LYS798  CYS799  TRP800  GLU811  SER814 

> <Gold.Protein.RotatedAtoms>
  152.2849  133.5505  159.5520 H   0  0  0  0  0  0  0  0  0  0  0  0  # atno 6907 bound_to 6896
  150.7211  134.0512  159.3808 H   0  0  0  0  0  0  0  0  0  0  0  0  # atno 6908 bound_to 6896
  151.8420  135.0587  160.0500 H   0  0  0  0  0  0  0  0  0  0  0  0  # atno 6909 bound_to 6896
  146.2268  140.2534  142.8348 H   0  0  0  0  0  0  0  0  0  0  0  0  # atno 7974 bound_to 7965
  154.7866  140.2828  155.6023 H   0  0  0  0  0  0  0  0  0  0  0  0  # atno 8008 bound_to 7997
  156.2958  140.2613  156.2632 H   0  0  0  0  0  0  0  0  0  0  0  0  # atno 8009 bound_to 7997
  154.9720  140.0376  157.2228 H   0  0  0  0  0  0  0  0  0  0  0  0  # atno 8010 bound_to 7997
  140.6646  143.2665  151.4332 H   0  0  0  0  0  0  0  0  0  0  0  0  # atno 10167 bound_to 10162
  156.1560  130.6568  150.9982 H   0  0  0  0  0  0  0  0  0  0  0  0  # atno 10718 bound_to 10713
  154.5067  135.2786  155.1376 H   0  0  0  0  0  0  0  0  0  0  0  0  # atno 10763 bound_to 10752
  154.2988  135.6252  153.5419 H   0  0  0  0  0  0  0  0  0  0  0  0  # atno 10764 bound_to 10752
  152.9911  135.5692  154.5523 H   0  0  0  0  0  0  0  0  0  0  0  0  # atno 10765 bound_to 10752
  139.8778  134.9232  156.5087 H   0  0  0  0  0  0  0  0  0  0  0  0  # atno 11005 bound_to 11000
  144.9394  140.8062  143.5639 LP  0  0  0  0  0  0  0  0  0  0  0  0  # atno 17320 bound_to 7965
  145.2484  139.2042  143.4955 LP  0  0  0  0  0  0  0  0  0  0  0  0  # atno 17321 bound_to 7965
  139.5891  144.1538  152.2066 LP  0  0  0  0  0  0  0  0  0  0  0  0  # atno 17342 bound_to 10162
  140.0887  144.5639  150.7070 LP  0  0  0  0  0  0  0  0  0  0  0  0  # atno 17343 bound_to 10162
  157.6695  131.0864  150.7646 LP  0  0  0  0  0  0  0  0  0  0  0  0  # atno 17370 bound_to 10713
  156.7712  130.4829  149.5418 LP  0  0  0  0  0  0  0  0  0  0  0  0  # atno 17371 bound_to 10713
  140.8536  133.8113  155.9193 LP  0  0  0  0  0  0  0  0  0  0  0  0  # atno 17394 bound_to 11000
  140.9120  134.2249  157.4980 LP  0  0  0  0  0  0  0  0  0  0  0  0  # atno 17395 bound_to 11000

$$$$
