AV-unprocessed.smi:236|AV-procd|sdf|1814|dock7
  -GOLD-   2262020403D 1   1.00000     0.00000
 Structure written by MMmdl.
 58 62  0  0  0  0  0  0  0  0  1 V2000
  143.4477  132.3614  150.3757 C   0  0  0  0  0  0  0  0  0  0  0  0
  144.5192  132.7455  151.4090 C   0  0  1  0  0  0  0  0  0  0  0  0
  145.7165  132.0151  151.1843 O   0  0  0  0  0  0  0  0  0  0  0  0
  146.7466  132.6834  151.8894 C   0  0  0  0  0  0  0  0  0  0  0  0
  146.4825  134.1475  151.5601 C   0  0  0  0  0  0  0  0  0  0  0  0
  144.9566  134.2342  151.4555 C   0  0  1  0  0  0  0  0  0  0  0  0
  144.6354  134.9153  150.2536 O   0  0  0  0  0  0  0  0  0  0  0  0
  144.3350  135.0179  152.6382 C   0  0  0  0  0  0  0  0  0  0  0  0
  145.0567  136.2372  152.9717 N   0  0  0  0  0  0  0  0  0  0  0  0
  145.4136  137.2477  152.1069 C   0  0  0  0  0  0  0  0  0  0  0  0
  146.0533  138.2472  152.6503 N   0  0  0  0  0  0  0  0  0  0  0  0
  146.1529  137.8961  153.9910 C   0  0  0  0  0  0  0  0  0  0  0  0
  146.7186  138.5127  155.1426 C   0  0  0  0  0  0  0  0  0  0  0  0
  147.3445  139.7078  155.1497 N   0  0  0  0  0  0  0  0  0  0  0  0
  147.4167  140.3486  153.8434 C   0  0  0  0  0  0  0  0  0  0  0  0
  148.0112  141.7589  153.9884 C   0  0  0  0  0  0  0  0  0  0  0  0
  149.2764  141.6755  154.6382 O   0  0  0  0  0  0  0  0  0  0  0  0
  149.1789  141.1310  155.9534 C   0  0  2  0  0  0  0  0  0  0  0  0
  150.5735  141.1558  156.5917 C   0  0  0  0  0  0  0  0  0  0  0  0
  150.9198  142.4983  156.8881 O   0  0  0  0  0  0  0  0  0  0  0  0
  151.7274  142.6155  158.0492 C   0  0  0  0  0  0  0  0  0  0  0  0
  152.1291  144.0576  158.3015 C   0  0  0  0  0  0  0  0  0  0  0  0
  152.1629  144.6261  159.7055 C   0  0  0  0  0  0  0  0  0  0  0  0
  151.1061  145.0865  158.7383 C   0  0  0  0  0  0  0  0  0  0  0  0
  148.6245  139.6971  155.8458 C   0  0  0  0  0  0  0  0  0  0  0  0
  146.6316  137.8559  156.3249 N   0  0  0  0  0  0  0  0  0  0  0  0
  146.0278  136.6650  156.3836 C   0  0  0  0  0  0  0  0  0  0  0  0
  145.4558  135.9689  155.3986 N   0  0  0  0  0  0  0  0  0  0  0  0
  145.5397  136.6303  154.2082 C   0  0  0  0  0  0  0  0  0  0  0  0
  142.5296  132.9283  150.5313 H   0  0  0  0  0  0  0  0  0  0  0  0
  143.1993  131.3030  150.4547 H   0  0  0  0  0  0  0  0  0  0  0  0
  143.7896  132.5428  149.3565 H   0  0  0  0  0  0  0  0  0  0  0  0
  144.1692  132.4419  152.3959 H   0  0  0  0  0  0  0  0  0  0  0  0
  146.6438  132.4967  152.9597 H   0  0  0  0  0  0  0  0  0  0  0  0
  147.7354  132.3508  151.5729 H   0  0  0  0  0  0  0  0  0  0  0  0
  146.9079  134.8208  152.3051 H   0  0  0  0  0  0  0  0  0  0  0  0
  146.9554  134.3808  150.6044 H   0  0  0  0  0  0  0  0  0  0  0  0
  145.3064  134.7296  149.6149 H   0  0  0  0  0  0  0  0  0  0  0  0
  143.3028  135.2844  152.4068 H   0  0  0  0  0  0  0  0  0  0  0  0
  144.2926  134.3916  153.5305 H   0  0  0  0  0  0  0  0  0  0  0  0
  145.1768  137.2236  151.0532 H   0  0  0  0  0  0  0  0  0  0  0  0
  148.0377  139.7560  153.1709 H   0  0  0  0  0  0  0  0  0  0  0  0
  146.4214  140.4040  153.4002 H   0  0  0  0  0  0  0  0  0  0  0  0
  148.1440  142.2142  153.0070 H   0  0  0  0  0  0  0  0  0  0  0  0
  147.3414  142.4084  154.5540 H   0  0  0  0  0  0  0  0  0  0  0  0
  148.5001  141.7378  156.5556 H   0  0  0  0  0  0  0  0  0  0  0  0
  150.5663  140.5792  157.5179 H   0  0  0  0  0  0  0  0  0  0  0  0
  151.3077  140.6993  155.9259 H   0  0  0  0  0  0  0  0  0  0  0  0
  151.1881  142.2446  158.9219 H   0  0  0  0  0  0  0  0  0  0  0  0
  152.6321  142.0162  157.9385 H   0  0  0  0  0  0  0  0  0  0  0  0
  152.9051  144.4162  157.6279 H   0  0  0  0  0  0  0  0  0  0  0  0
  151.8465  143.9859  160.5266 H   0  0  0  0  0  0  0  0  0  0  0  0
  152.9623  145.3247  159.9436 H   0  0  0  0  0  0  0  0  0  0  0  0
  151.2011  146.0906  158.3305 H   0  0  0  0  0  0  0  0  0  0  0  0
  150.0855  144.7529  158.9157 H   0  0  0  0  0  0  0  0  0  0  0  0
  148.4977  139.2688  156.8410 H   0  0  0  0  0  0  0  0  0  0  0  0
  149.3327  139.0643  155.3090 H   0  0  0  0  0  0  0  0  0  0  0  0
  145.9982  136.2040  157.3596 H   0  0  0  0  0  0  0  0  0  0  0  0
  1  2  1  0  0  0  0
  1 30  1  0  0  0  0
  1 31  1  0  0  0  0
  1 32  1  0  0  0  0
  2  6  1  0  0  0  0
  2  3  1  0  0  0  0
  2 33  1  0  0  0  0
  3  4  1  0  0  0  0
  4  5  1  0  0  0  0
  4 34  1  0  0  0  0
  4 35  1  0  0  0  0
  5  6  1  0  0  0  0
  5 36  1  0  0  0  0
  5 37  1  0  0  0  0
  6  7  1  0  0  0  0
  6  8  1  0  0  0  0
  7 38  1  0  0  0  0
  8  9  1  0  0  0  0
  8 39  1  0  0  0  0
  8 40  1  0  0  0  0
  9 29  1  0  0  0  0
  9 10  1  0  0  0  0
 10 11  2  0  0  0  0
 10 41  1  0  0  0  0
 11 12  1  0  0  0  0
 12 29  2  0  0  0  0
 12 13  1  0  0  0  0
 13 14  1  0  0  0  0
 13 26  2  0  0  0  0
 14 25  1  0  0  0  0
 14 15  1  0  0  0  0
 15 16  1  0  0  0  0
 15 42  1  0  0  0  0
 15 43  1  0  0  0  0
 16 17  1  0  0  0  0
 16 44  1  0  0  0  0
 16 45  1  0  0  0  0
 17 18  1  0  0  0  0
 18 19  1  0  0  0  0
 18 25  1  0  0  0  0
 18 46  1  0  0  0  0
 19 20  1  0  0  0  0
 19 47  1  0  0  0  0
 19 48  1  0  0  0  0
 20 21  1  0  0  0  0
 21 22  1  0  0  0  0
 21 49  1  0  0  0  0
 21 50  1  0  0  0  0
 22 24  1  0  0  0  0
 22 23  1  0  0  0  0
 22 51  1  0  0  0  0
 23 24  1  0  0  0  0
 23 52  1  0  0  0  0
 23 53  1  0  0  0  0
 24 54  1  0  0  0  0
 24 55  1  0  0  0  0
 25 56  1  0  0  0  0
 25 57  1  0  0  0  0
 26 27  1  0  0  0  0
 27 28  2  0  0  0  0
 27 58  1  0  0  0  0
 28 29  1  0  0  0  0
M  END
> <s_m_source_file>
AV-unprocessed.smi

> <i_m_source_file_index>
236

> <i_lp_mmshare_version>
43012

> <i_f3d_flags>
0

> <s_epik_input>
W0NIMl0xW0NIMl1PW0NAQEhdKFtDSDNdKVtDQEBdMShbT0hdKVtDSDJdbihbY0hdbjIpYyhjMjMpbltjSF1uYzNONFtDSDJdW0NIMl1PW0NASF0oW0NIMl00KVtDSDJdT1tDSDJdW0NIXTVbQ0gyXVtDSDJdNQ==

> <s_epik_cmdline>
J2VwaWtfcHl0aG9uJywgJy1waCcsICc3LjAnLCAnLXRuJywgJzgnLCAnLW1hJywgJzIwMCcsICctbWV0YWxfYmluZGluZycsICctaW1hZScsICc8aW5maWxlLm1hZT4nLCAnLW9tYWUnLCAnPG91dGZpbGUubWFlPic=

> <r_lp_tautomer_probability>
1

> <r_epik_Ionization_Penalty>
7.21838e-05

> <r_epik_Ionization_Penalty_Charging>
0

> <r_epik_Ionization_Penalty_Neutral>
7.21838e-05

> <r_epik_State_Penalty>
-0

> <r_epik_Charging_Adjusted_Penalty>
0

> <i_epik_Tot_Q>
0

> <i_epik_Tot_abs_Q>
0

> <r_epik_Metal_State_Penalty>
-0

> <b_epik_Metal_Only>
0

> <s_lp_Force_Field>
OPLS_2005

> <r_lp_Energy>
47.3448

> <b_lp_Chiralities_Consistent>
1

> <s_lp_Variant>
AV-unprocessed.smi:236-6

> <Gold.Version>
5.8.1

> <Gold.Id.Protein>
6NUR|6NUR_protein|mol2

> <Gold.PLP.Fitness>
47.2312

> <Gold.PLP.PLP>
-42.7085

> <Gold.PLP.part.hbond>
-2.6877

> <Gold.PLP.part.metal>
0.0000

> <Gold.PLP.part.buried>
-4.2262

> <Gold.PLP.part.nonpolar>
-35.8646

> <Gold.PLP.part.repulsive>
0.7461

> <Gold.PLP.ligand.clash>
0.0000

> <Gold.PLP.ligand.torsion>
0.9780

> <Gold.PLP.Chemscore.Hbond>
0.9920

> <Gold.PLP.Chemscore.CHOScore>
0.8924

> <Gold.PLP.Chemscore.Metal>
0.0000

> <Gold.Chemscore.Hbonds>
donor molecule, donor type, donor heavy atom, donor atom, acceptor molecule, acceptor atom, score
      L1  H     7    38       P1  7921  0.71
      L1  C    10    41       P1 10171  1.00

> <Gold.PLP.Chemscore.Internal.Correction>
0.8255

> <Gold.Rescore>
     Score         DG    S(hbond)    S(metal)    S(lipo)     H(rot)  DE(clash)    DE(int)     intcor
     12.88     -15.51       1.08        0.00     117.49       2.87       0.06       2.57       ----

> <Gold.Chemscore.Fitness>
12.8757

> <Gold.Chemscore.DG>
-15.5081

> <Gold.Chemscore.ZeroCoef>
-5.4800

> <Gold.Chemscore.Hbond>
1.0832

> <Gold.Chemscore.Metal>
0.0000

> <Gold.Chemscore.Lipo>
117.4872

> <Gold.Chemscore.Internal_Hbond>
0.0000

> <Gold.Chemscore.DEClash>
0.0596

> <Gold.Chemscore.DEInternal>
2.5729

> <Gold.Chemscore.Rot>
2.8655

> <Gold.Chemscore.Internal.Correction>
   9.000000E+99

> <Gold.Chemscore.Hbonds>
donor molecule, donor type, donor heavy atom, donor atom, acceptor molecule, acceptor atom, score
      L1  H     7    38       P1  7921  0.68

> <Gold.Chemscore.Hbond.Weighted>
-3.6179

> <Gold.Chemscore.Metal.Weighted>
-0.0000

> <Gold.Chemscore.Lipo.Weighted>
-13.7460

> <Gold.Chemscore.Internal_Hbond.Weighted>
0.0000

> <Gold.Chemscore.DEClash.Weighted>
0.0596

> <Gold.Chemscore.DEInternal.Weighted>
2.5729

> <Gold.Chemscore.Rot.Weighted>
7.3358

> <Gold.Chemscore.Internal.Correction.Weighted>
   9.000000E+99

> <Gold.Protein.RotatedTorsions>
[ 6907 6896 6895 6894 ] final  -13.05 input  -60.11 | X-H torsion
[ 7974 7965 7964 7962 ] final  100.03 input  175.53 | X-H torsion
[ 8008 7997 7996 7995 ] final -146.12 input   59.86 | X-H torsion
[ 10167 10162 10161 10158 ] final -138.54 input  -65.29 | X-H torsion
[ 10718 10713 10712 10709 ] final -117.28 input   66.30 | X-H torsion
[ 10763 10752 10751 10750 ] final   -6.92 input  -60.55 | X-H torsion
[ 11005 11000 10999 10996 ] final   13.51 input  -57.11 | X-H torsion

> <Gold.Protein.ActiveResidues>
 VAL166  LYS551  ARG553  GLY616  TRP617  ASP618  TYR619  PRO620  LYS621  CYS622 
 ASP623  PHE694  ASN695  SER759  ASP760  ASP761  ALA762  ILE779  LEU786  VAL792 
 PHE793  MET794  SER795  GLU796  ALA797  LYS798  CYS799  TRP800  GLU811  SER814 

> <Gold.Protein.RotatedAtoms>
  151.3609  135.0904  159.9433 H   0  0  0  0  0  0  0  0  0  0  0  0  # atno 6907 bound_to 6896
  152.5162  133.9259  159.7567 H   0  0  0  0  0  0  0  0  0  0  0  0  # atno 6908 bound_to 6896
  150.9653  133.6347  159.2776 H   0  0  0  0  0  0  0  0  0  0  0  0  # atno 6909 bound_to 6896
  145.3910  139.2363  143.3352 H   0  0  0  0  0  0  0  0  0  0  0  0  # atno 7974 bound_to 7965
  155.5542  140.0619  157.2843 H   0  0  0  0  0  0  0  0  0  0  0  0  # atno 8008 bound_to 7997
  154.4411  140.1897  156.0762 H   0  0  0  0  0  0  0  0  0  0  0  0  # atno 8009 bound_to 7997
  156.0494  140.3286  155.7337 H   0  0  0  0  0  0  0  0  0  0  0  0  # atno 8010 bound_to 7997
  139.8468  143.7250  152.2660 H   0  0  0  0  0  0  0  0  0  0  0  0  # atno 10167 bound_to 10162
  156.1022  130.6181  150.9143 H   0  0  0  0  0  0  0  0  0  0  0  0  # atno 10718 bound_to 10713
  153.4191  135.7009  153.6306 H   0  0  0  0  0  0  0  0  0  0  0  0  # atno 10763 bound_to 10752
  153.4769  135.3702  155.2421 H   0  0  0  0  0  0  0  0  0  0  0  0  # atno 10764 bound_to 10752
  154.8721  135.4056  154.3556 H   0  0  0  0  0  0  0  0  0  0  0  0  # atno 10765 bound_to 10752
  140.4799  134.0945  155.7749 H   0  0  0  0  0  0  0  0  0  0  0  0  # atno 11005 bound_to 11000
  146.2798  140.4592  142.8781 LP  0  0  0  0  0  0  0  0  0  0  0  0  # atno 17320 bound_to 7965
  144.8440  140.6901  143.6211 LP  0  0  0  0  0  0  0  0  0  0  0  0  # atno 17321 bound_to 7965
  139.7504  144.7535  151.0514 LP  0  0  0  0  0  0  0  0  0  0  0  0  # atno 17342 bound_to 10162
  140.7792  143.4866  150.9948 LP  0  0  0  0  0  0  0  0  0  0  0  0  # atno 17343 bound_to 10162
  157.6194  131.0931  150.8650 LP  0  0  0  0  0  0  0  0  0  0  0  0  # atno 17370 bound_to 10713
  156.8776  130.5168  149.5293 LP  0  0  0  0  0  0  0  0  0  0  0  0  # atno 17371 bound_to 10713
  141.1536  133.8924  157.2035 LP  0  0  0  0  0  0  0  0  0  0  0  0  # atno 17394 bound_to 11000
  139.9833  135.0091  156.9801 LP  0  0  0  0  0  0  0  0  0  0  0  0  # atno 17395 bound_to 11000

$$$$
