AV-unprocessed.smi:619|AV-procd|sdf|3086|dock4
  -GOLD-   22720 0 13D 1   1.00000     0.00000
 Structure written by MMmdl.
 37 38  0  0  0  0  0  0  0  0  1 V2000
  146.2960  142.5057  153.6822 C   0  0  0  0  0  0  0  0  0  0  0  0
  147.5524  142.3985  154.3428 O   0  0  0  0  0  0  0  0  0  0  0  0
  148.2436  141.2048  154.2568 C   0  0  0  0  0  0  0  0  0  0  0  0
  147.7194  140.2087  153.4990 N   0  0  0  0  0  0  0  0  0  0  0  0
  148.3899  139.0410  153.4184 C   0  0  0  0  0  0  0  0  0  0  0  0
  149.6040  138.8023  154.0878 C   0  0  0  0  0  0  0  0  0  0  0  0
  150.1498  139.8337  154.8741 C   0  0  0  0  0  0  0  0  0  0  0  0
  149.4658  141.0709  154.9561 C   0  0  0  0  0  0  0  0  0  0  0  0
  149.9177  142.1701  155.7377 N   0  0  0  0  0  0  0  0  0  0  0  0
  150.7838  142.1675  156.7650 C   0  0  0  0  0  0  0  0  0  0  0  0
  151.3734  141.1760  157.1944 O   0  0  0  0  0  0  0  0  0  0  0  0
  150.9445  143.4030  157.2608 N   0  0  0  0  0  0  0  0  0  0  0  0
  151.8133  143.7744  158.3745 C   0  0  0  0  0  0  0  0  0  0  0  0
  151.7549  142.6844  159.4616 C   0  0  0  0  0  0  0  0  0  0  0  0
  152.5883  143.0742  160.6929 C   0  0  0  0  0  0  0  0  0  0  0  0
  152.1463  144.4340  161.2556 C   0  0  0  0  0  0  0  0  0  0  0  0
  152.2102  145.5270  160.1771 C   0  0  0  0  0  0  0  0  0  0  0  0
  151.3823  145.1416  158.9400 C   0  0  0  0  0  0  0  0  0  0  0  0
  145.8884  143.5034  153.8439 H   0  0  0  0  0  0  0  0  0  0  0  0
  145.5758  141.7866  154.0753 H   0  0  0  0  0  0  0  0  0  0  0  0
  146.3967  142.3607  152.6057 H   0  0  0  0  0  0  0  0  0  0  0  0
  147.9412  138.2716  152.8076 H   0  0  0  0  0  0  0  0  0  0  0  0
  150.1024  137.8479  154.0046 H   0  0  0  0  0  0  0  0  0  0  0  0
  151.0692  139.6506  155.4084 H   0  0  0  0  0  0  0  0  0  0  0  0
  149.5859  143.0754  155.4385 H   0  0  0  0  0  0  0  0  0  0  0  0
  150.4215  144.1524  156.8321 H   0  0  0  0  0  0  0  0  0  0  0  0
  152.8483  143.8570  158.0378 H   0  0  0  0  0  0  0  0  0  0  0  0
  150.7201  142.5181  159.7651 H   0  0  0  0  0  0  0  0  0  0  0  0
  152.1149  141.7364  159.0601 H   0  0  0  0  0  0  0  0  0  0  0  0
  152.4980  142.3062  161.4612 H   0  0  0  0  0  0  0  0  0  0  0  0
  153.6437  143.1168  160.4208 H   0  0  0  0  0  0  0  0  0  0  0  0
  151.1280  144.3575  161.6391 H   0  0  0  0  0  0  0  0  0  0  0  0
  152.7755  144.7091  162.1025 H   0  0  0  0  0  0  0  0  0  0  0  0
  151.8508  146.4724  160.5842 H   0  0  0  0  0  0  0  0  0  0  0  0
  153.2480  145.6908  159.8844 H   0  0  0  0  0  0  0  0  0  0  0  0
  151.4861  145.9118  158.1747 H   0  0  0  0  0  0  0  0  0  0  0  0
  150.3254  145.1141  159.2093 H   0  0  0  0  0  0  0  0  0  0  0  0
  1  2  1  0  0  0  0
  1 19  1  0  0  0  0
  1 20  1  0  0  0  0
  1 21  1  0  0  0  0
  2  3  1  0  0  0  0
  3  8  1  0  0  0  0
  3  4  2  0  0  0  0
  4  5  1  0  0  0  0
  5  6  2  0  0  0  0
  5 22  1  0  0  0  0
  6  7  1  0  0  0  0
  6 23  1  0  0  0  0
  7  8  2  0  0  0  0
  7 24  1  0  0  0  0
  8  9  1  0  0  0  0
  9 10  1  0  0  0  0
  9 25  1  0  0  0  0
 10 11  2  0  0  0  0
 10 12  1  0  0  0  0
 12 13  1  0  0  0  0
 12 26  1  0  0  0  0
 13 18  1  0  0  0  0
 13 14  1  0  0  0  0
 13 27  1  0  0  0  0
 14 15  1  0  0  0  0
 14 28  1  0  0  0  0
 14 29  1  0  0  0  0
 15 16  1  0  0  0  0
 15 30  1  0  0  0  0
 15 31  1  0  0  0  0
 16 17  1  0  0  0  0
 16 32  1  0  0  0  0
 16 33  1  0  0  0  0
 17 18  1  0  0  0  0
 17 34  1  0  0  0  0
 17 35  1  0  0  0  0
 18 36  1  0  0  0  0
 18 37  1  0  0  0  0
M  END
> <s_m_source_file>
AV-unprocessed.smi

> <i_m_source_file_index>
619

> <i_lp_mmshare_version>
43012

> <i_f3d_flags>
0

> <s_epik_input>
W0NIM11PYzFuW2NIXVtjSF1bY0hdYzFbTkhdQyg9TylbTkhdW0NIXTJbQ0gyXVtDSDJdW0NIMl1bQ0gyXVtDSDJdMg==

> <s_epik_cmdline>
J2VwaWtfcHl0aG9uJywgJy1waCcsICc3LjAnLCAnLXRuJywgJzgnLCAnLW1hJywgJzIwMCcsICctbWV0YWxfYmluZGluZycsICctaW1hZScsICc8aW5maWxlLm1hZT4nLCAnLW9tYWUnLCAnPG91dGZpbGUubWFlPic=

> <r_lp_tautomer_probability>
1

> <r_epik_Ionization_Penalty>
9.99348e-05

> <r_epik_Ionization_Penalty_Charging>
0

> <r_epik_Ionization_Penalty_Neutral>
9.99348e-05

> <r_epik_State_Penalty>
-0

> <r_epik_Charging_Adjusted_Penalty>
0

> <i_epik_Tot_Q>
0

> <i_epik_Tot_abs_Q>
0

> <r_epik_Metal_State_Penalty>
-0

> <b_epik_Metal_Only>
0

> <s_lp_Force_Field>
OPLS_2005

> <r_lp_Energy>
11.7457

> <b_lp_Chiralities_Consistent>
1

> <s_lp_Variant>
AV-unprocessed.smi:619-1

> <Gold.Version>
5.8.1

> <Gold.Id.Protein>
6NUR|6NUR_protein|mol2

> <Gold.PLP.Fitness>
49.0601

> <Gold.PLP.PLP>
-40.8918

> <Gold.PLP.part.hbond>
-2.0000

> <Gold.PLP.part.metal>
0.0000

> <Gold.PLP.part.buried>
-3.8494

> <Gold.PLP.part.nonpolar>
-36.3769

> <Gold.PLP.part.repulsive>
1.6333

> <Gold.PLP.ligand.clash>
0.0096

> <Gold.PLP.ligand.torsion>
0.3794

> <Gold.PLP.Chemscore.Hbond>
2.0000

> <Gold.PLP.Chemscore.CHOScore>
0.9779

> <Gold.PLP.Chemscore.Metal>
0.0000

> <Gold.Chemscore.Hbonds>
donor molecule, donor type, donor heavy atom, donor atom, acceptor molecule, acceptor atom, score
      L1  H     9    25       P1  8028  1.00
      L1  H    12    26       P1  8028  0.99
      L1  C     5    22       P1  7948  0.98

> <Gold.PLP.Chemscore.Internal.Correction>
0.0030

> <Gold.Rescore>
     Score         DG    S(hbond)    S(metal)    S(lipo)     H(rot)  DE(clash)    DE(int)     intcor
     17.09     -20.24       1.93        0.00      98.01       1.23       0.09       3.05       ----

> <Gold.Chemscore.Fitness>
17.0935

> <Gold.Chemscore.DG>
-20.2409

> <Gold.Chemscore.ZeroCoef>
-5.4800

> <Gold.Chemscore.Hbond>
1.9252

> <Gold.Chemscore.Metal>
0.0000

> <Gold.Chemscore.Lipo>
98.0068

> <Gold.Chemscore.Internal_Hbond>
0.0000

> <Gold.Chemscore.DEClash>
0.0943

> <Gold.Chemscore.DEInternal>
3.0531

> <Gold.Chemscore.Rot>
1.2250

> <Gold.Chemscore.Internal.Correction>
   9.000000E+99

> <Gold.Chemscore.Hbonds>
donor molecule, donor type, donor heavy atom, donor atom, acceptor molecule, acceptor atom, score
      L1  H     9    25       P1  8028  0.99
      L1  H    12    26       P1  8028  0.90

> <Gold.Chemscore.Hbond.Weighted>
-6.4301

> <Gold.Chemscore.Metal.Weighted>
-0.0000

> <Gold.Chemscore.Lipo.Weighted>
-11.4668

> <Gold.Chemscore.Internal_Hbond.Weighted>
0.0000

> <Gold.Chemscore.DEClash.Weighted>
0.0943

> <Gold.Chemscore.DEInternal.Weighted>
3.0531

> <Gold.Chemscore.Rot.Weighted>
3.1360

> <Gold.Chemscore.Internal.Correction.Weighted>
   9.000000E+99

> <Gold.Protein.RotatedTorsions>
[ 6907 6896 6895 6894 ] final   45.37 input  -60.11 | X-H torsion
[ 7974 7965 7964 7962 ] final  -40.10 input  175.53 | X-H torsion
[ 8008 7997 7996 7995 ] final   26.89 input   59.86 | X-H torsion
[ 10167 10162 10161 10158 ] final   37.91 input  -65.29 | X-H torsion
[ 10718 10713 10712 10709 ] final   49.22 input   66.30 | X-H torsion
[ 10763 10752 10751 10750 ] final  -11.19 input  -60.55 | X-H torsion
[ 11005 11000 10999 10996 ] final  106.41 input  -57.11 | X-H torsion

> <Gold.Protein.ActiveResidues>
 VAL166  LYS551  ARG553  GLY616  TRP617  ASP618  TYR619  PRO620  LYS621  CYS622 
 ASP623  PHE694  ASN695  SER759  ASP760  ASP761  ALA762  ILE779  LEU786  VAL792 
 PHE793  MET794  SER795  GLU796  ALA797  LYS798  CYS799  TRP800  GLU811  SER814 

> <Gold.Protein.RotatedAtoms>
  152.2437  134.8202  160.0456 H   0  0  0  0  0  0  0  0  0  0  0  0  # atno 6907 bound_to 6896
  151.8907  133.3510  159.3805 H   0  0  0  0  0  0  0  0  0  0  0  0  # atno 6908 bound_to 6896
  150.7062  134.4852  159.5533 H   0  0  0  0  0  0  0  0  0  0  0  0  # atno 6909 bound_to 6896
  146.0336  140.6700  142.9121 H   0  0  0  0  0  0  0  0  0  0  0  0  # atno 7974 bound_to 7965
  155.0344  140.3162  155.4747 H   0  0  0  0  0  0  0  0  0  0  0  0  # atno 8008 bound_to 7997
  156.2867  140.2174  156.5409 H   0  0  0  0  0  0  0  0  0  0  0  0  # atno 8009 bound_to 7997
  154.7343  140.0479  157.0742 H   0  0  0  0  0  0  0  0  0  0  0  0  # atno 8010 bound_to 7997
  140.3987  144.1753  150.6133 H   0  0  0  0  0  0  0  0  0  0  0  0  # atno 10167 bound_to 10162
  157.4765  130.8288  149.8045 H   0  0  0  0  0  0  0  0  0  0  0  0  # atno 10718 bound_to 10713
  153.4802  135.7017  153.5942 H   0  0  0  0  0  0  0  0  0  0  0  0  # atno 10763 bound_to 10752
  153.4159  135.3837  155.2080 H   0  0  0  0  0  0  0  0  0  0  0  0  # atno 10764 bound_to 10752
  154.8722  135.3916  154.4250 H   0  0  0  0  0  0  0  0  0  0  0  0  # atno 10765 bound_to 10752
  139.8814  134.9368  156.5662 H   0  0  0  0  0  0  0  0  0  0  0  0  # atno 11005 bound_to 11000
  144.7041  140.3780  143.7132 LP  0  0  0  0  0  0  0  0  0  0  0  0  # atno 17320 bound_to 7965
  145.7001  139.1659  143.2598 LP  0  0  0  0  0  0  0  0  0  0  0  0  # atno 17321 bound_to 7965
  140.4763  143.2395  151.9019 LP  0  0  0  0  0  0  0  0  0  0  0  0  # atno 17342 bound_to 10162
  139.4785  144.5317  151.8657 LP  0  0  0  0  0  0  0  0  0  0  0  0  # atno 17343 bound_to 10162
  156.0099  130.3838  150.2299 LP  0  0  0  0  0  0  0  0  0  0  0  0  # atno 17370 bound_to 10713
  157.0484  131.0055  151.3261 LP  0  0  0  0  0  0  0  0  0  0  0  0  # atno 17371 bound_to 10713
  140.8132  133.8412  155.8829 LP  0  0  0  0  0  0  0  0  0  0  0  0  # atno 17394 bound_to 11000
  140.9487  134.1807  157.4744 LP  0  0  0  0  0  0  0  0  0  0  0  0  # atno 17395 bound_to 11000

$$$$
