AV-unprocessed.smi:3141|AV-procd|sdf|11965|dock3
  -GOLD-   2272017363D 1   1.00000     0.00000
 Structure written by MMmdl.
 36 38  0  0  0  0  0  0  0  0  2 V2000
  150.4132  141.1059  158.0196 O   0  0  0  0  0  0  0  0  0  0  0  0
  150.0399  142.1314  157.4486 C   0  0  0  0  0  0  0  0  0  0  0  0
  150.5006  143.3586  157.7236 N   0  0  0  0  0  0  0  0  0  0  0  0
  151.4896  143.6686  158.7045 C   0  0  0  0  0  0  0  0  0  0  0  0
  151.6524  145.1185  159.1067 C   0  0  0  0  0  0  0  0  0  0  0  0
  152.7000  144.4575  158.2540 C   0  0  0  0  0  0  0  0  0  0  0  0
  149.1256  142.1510  156.4684 N   0  0  0  0  0  0  0  0  0  0  0  0
  148.4487  140.9702  155.9390 C   0  0  1  0  0  0  0  0  0  0  0  0
  146.9404  141.2373  155.7685 C   0  0  0  0  0  0  0  0  0  0  0  0
  146.6657  141.2229  154.2625 C   0  0  0  0  0  0  0  0  0  0  0  0
  147.7241  140.2835  153.6927 C   0  0  0  0  0  0  0  0  0  0  0  0
  148.9693  140.5960  154.5301 C   0  0  2  0  0  0  0  0  0  0  0  0
  149.9710  139.5190  154.5297 N   0  0  0  0  0  0  0  0  0  0  0  0
  151.0969  139.4453  155.3100 C   0  0  0  0  0  0  0  0  0  0  0  0
  151.7241  138.2701  154.9861 C   0  0  0  0  0  0  0  0  0  0  0  0
  150.9572  137.6751  154.0211 N   0  3  0  0  0  0  0  0  0  0  0  0
  149.8930  138.4352  153.7443 C   0  0  0  0  0  0  0  0  0  0  0  0
  150.1280  144.1349  157.1963 H   0  0  0  0  0  0  0  0  0  0  0  0
  151.6633  142.9336  159.4895 H   0  0  0  0  0  0  0  0  0  0  0  0
  151.0086  145.8555  158.6303 H   0  0  0  0  0  0  0  0  0  0  0  0
  151.9064  145.3250  160.1445 H   0  0  0  0  0  0  0  0  0  0  0  0
  153.6539  144.2229  158.7218 H   0  0  0  0  0  0  0  0  0  0  0  0
  152.7554  144.7537  157.2082 H   0  0  0  0  0  0  0  0  0  0  0  0
  148.8815  143.0411  156.0589 H   0  0  0  0  0  0  0  0  0  0  0  0
  148.5693  140.1457  156.6440 H   0  0  0  0  0  0  0  0  0  0  0  0
  146.3787  140.4313  156.2426 H   0  0  0  0  0  0  0  0  0  0  0  0
  146.6099  142.1686  156.2308 H   0  0  0  0  0  0  0  0  0  0  0  0
  145.6498  140.9062  154.0247 H   0  0  0  0  0  0  0  0  0  0  0  0
  146.8063  142.2245  153.8539 H   0  0  0  0  0  0  0  0  0  0  0  0
  147.4032  139.2510  153.8360 H   0  0  0  0  0  0  0  0  0  0  0  0
  147.8880  140.4361  152.6255 H   0  0  0  0  0  0  0  0  0  0  0  0
  149.4438  141.4718  154.0824 H   0  0  0  0  0  0  0  0  0  0  0  0
  151.3592  140.2123  156.0244 H   0  0  0  0  0  0  0  0  0  0  0  0
  152.6335  137.8241  155.3616 H   0  0  0  0  0  0  0  0  0  0  0  0
  149.1198  138.2133  153.0302 H   0  0  0  0  0  0  0  0  0  0  0  0
  151.1613  136.7865  153.5813 H   0  0  0  0  0  0  0  0  0  0  0  0
  1  2  2  0  0  0  0
  2  3  1  0  0  0  0
  2  7  1  0  0  0  0
  3  4  1  0  0  0  0
  3 18  1  0  0  0  0
  4  6  1  0  0  0  0
  4  5  1  0  0  0  0
  4 19  1  0  0  0  0
  5  6  1  0  0  0  0
  5 20  1  0  0  0  0
  5 21  1  0  0  0  0
  6 22  1  0  0  0  0
  6 23  1  0  0  0  0
  7  8  1  0  0  0  0
  7 24  1  0  0  0  0
  8 12  1  0  0  0  0
  8  9  1  0  0  0  0
  8 25  1  0  0  0  0
  9 10  1  0  0  0  0
  9 26  1  0  0  0  0
  9 27  1  0  0  0  0
 10 11  1  0  0  0  0
 10 28  1  0  0  0  0
 10 29  1  0  0  0  0
 11 12  1  0  0  0  0
 11 30  1  0  0  0  0
 11 31  1  0  0  0  0
 12 13  1  0  0  0  0
 12 32  1  0  0  0  0
 13 17  1  0  0  0  0
 13 14  1  0  0  0  0
 14 15  2  0  0  0  0
 14 33  1  0  0  0  0
 15 16  1  0  0  0  0
 15 34  1  0  0  0  0
 16 17  2  0  0  0  0
 16 36  1  0  0  0  0
 17 35  1  0  0  0  0
M  CHG  1  16   1
M  END
> <s_m_source_file>
AV-unprocessed.smi

> <i_m_source_file_index>
3141

> <i_lp_mmshare_version>
43012

> <i_f3d_flags>
0

> <s_epik_input>
W0NIMl0xW0NIMl1bQ0hdMVtOSF1DKD1PKVtOSF1bQ0BASF0yW0NIMl1bQ0gyXVtDSDJdW0NASF0ybjNbY0hdW2NIXW5bY0hdMw==

> <s_epik_cmdline>
J2VwaWtfcHl0aG9uJywgJy1waCcsICc3LjAnLCAnLXRuJywgJzgnLCAnLW1hJywgJzIwMCcsICctbWV0YWxfYmluZGluZycsICctaW1hZScsICc8aW5maWxlLm1hZT4nLCAnLW9tYWUnLCAnPG91dGZpbGUubWFlPic=

> <r_lp_tautomer_probability>
1

> <r_epik_Ionization_Penalty>
0.205063

> <r_epik_Ionization_Penalty_Charging>
0

> <r_epik_Ionization_Penalty_Neutral>
0.205063

> <r_epik_State_Penalty>
0.194948

> <r_epik_Charging_Adjusted_Penalty>
0.194948

> <i_epik_Tot_Q>
1

> <i_epik_Tot_abs_Q>
1

> <r_epik_Metal_State_Penalty>
0.500882

> <b_epik_Metal_Only>
0

> <s_lp_Force_Field>
OPLS_2005

> <r_lp_Energy>
34.662

> <b_lp_Chiralities_Consistent>
1

> <s_lp_Variant>
AV-unprocessed.smi:3141-4

> <Gold.Version>
5.8.1

> <Gold.Id.Protein>
6NUR|6NUR_protein|mol2

> <Gold.PLP.Fitness>
48.5570

> <Gold.PLP.PLP>
-34.9311

> <Gold.PLP.part.hbond>
-3.5781

> <Gold.PLP.part.metal>
0.0000

> <Gold.PLP.part.buried>
1.2328

> <Gold.PLP.part.nonpolar>
-33.0498

> <Gold.PLP.part.repulsive>
0.1831

> <Gold.PLP.ligand.clash>
0.0000

> <Gold.PLP.ligand.torsion>
0.4312

> <Gold.PLP.Chemscore.Hbond>
3.6231

> <Gold.PLP.Chemscore.CHOScore>
1.1925

> <Gold.PLP.Chemscore.Metal>
0.0000

> <Gold.Chemscore.Hbonds>
donor molecule, donor type, donor heavy atom, donor atom, acceptor molecule, acceptor atom, score
      L1  H     3    18       P1  8028  0.94
      L1  H     7    24       P1  8028  1.00
      L1  H    16    36       P1  7949  0.70
      L1  C    17    35       P1  7948  0.88
      L1  C    17    35       P1  7957  0.31

> <Gold.PLP.Chemscore.Internal.Correction>
0.0412

> <Gold.Rescore>
     Score         DG    S(hbond)    S(metal)    S(lipo)     H(rot)  DE(clash)    DE(int)     intcor
     17.32     -18.14       2.19        0.00      80.95       1.61       0.48       0.34       ----

> <Gold.Chemscore.Fitness>
17.3186

> <Gold.Chemscore.DG>
-18.1381

> <Gold.Chemscore.ZeroCoef>
-5.4800

> <Gold.Chemscore.Hbond>
2.1874

> <Gold.Chemscore.Metal>
0.0000

> <Gold.Chemscore.Lipo>
80.9457

> <Gold.Chemscore.Internal_Hbond>
0.0000

> <Gold.Chemscore.DEClash>
0.4840

> <Gold.Chemscore.DEInternal>
0.3355

> <Gold.Chemscore.Rot>
1.6088

> <Gold.Chemscore.Internal.Correction>
   9.000000E+99

> <Gold.Chemscore.Hbonds>
donor molecule, donor type, donor heavy atom, donor atom, acceptor molecule, acceptor atom, score
      L1  H     3    18       P1  8028  0.70
      L1  H     7    24       P1  8028  1.00
      L1  H    16    36       P1  7949  0.17

> <Gold.Chemscore.Hbond.Weighted>
-7.3060

> <Gold.Chemscore.Metal.Weighted>
-0.0000

> <Gold.Chemscore.Lipo.Weighted>
-9.4706

> <Gold.Chemscore.Internal_Hbond.Weighted>
0.0000

> <Gold.Chemscore.DEClash.Weighted>
0.4840

> <Gold.Chemscore.DEInternal.Weighted>
0.3355

> <Gold.Chemscore.Rot.Weighted>
4.1186

> <Gold.Chemscore.Internal.Correction.Weighted>
   9.000000E+99

> <Gold.Protein.RotatedTorsions>
[ 6907 6896 6895 6894 ] final   66.88 input  -60.11 | X-H torsion
[ 7974 7965 7964 7962 ] final -130.03 input  175.53 | X-H torsion
[ 8008 7997 7996 7995 ] final   82.95 input   59.86 | X-H torsion
[ 10167 10162 10161 10158 ] final -124.43 input  -65.29 | X-H torsion
[ 10718 10713 10712 10709 ] final  -23.14 input   66.30 | X-H torsion
[ 10763 10752 10751 10750 ] final  122.43 input  -60.55 | X-H torsion
[ 11005 11000 10999 10996 ] final   39.98 input  -57.11 | X-H torsion

> <Gold.Protein.ActiveResidues>
 VAL166  LYS551  ARG553  GLY616  TRP617  ASP618  TYR619  PRO620  LYS621  CYS622 
 ASP623  PHE694  ASN695  SER759  ASP760  ASP761  ALA762  ILE779  LEU786  VAL792 
 PHE793  MET794  SER795  GLU796  ALA797  LYS798  CYS799  TRP800  GLU811  SER814 

> <Gold.Protein.RotatedAtoms>
  152.4512  134.5389  159.9832 H   0  0  0  0  0  0  0  0  0  0  0  0  # atno 6907 bound_to 6896
  151.5461  133.3419  159.2952 H   0  0  0  0  0  0  0  0  0  0  0  0  # atno 6908 bound_to 6896
  150.8442  134.7776  159.7020 H   0  0  0  0  0  0  0  0  0  0  0  0  # atno 6909 bound_to 6896
  144.9514  140.7348  143.4785 H   0  0  0  0  0  0  0  0  0  0  0  0  # atno 7974 bound_to 7965
  155.9174  140.3423  155.6146 H   0  0  0  0  0  0  0  0  0  0  0  0  # atno 8008 bound_to 7997
  155.7315  140.0796  157.2305 H   0  0  0  0  0  0  0  0  0  0  0  0  # atno 8009 bound_to 7997
  154.4064  140.1587  156.2501 H   0  0  0  0  0  0  0  0  0  0  0  0  # atno 8010 bound_to 7997
  139.9928  143.5622  152.2335 H   0  0  0  0  0  0  0  0  0  0  0  0  # atno 10167 bound_to 10162
  156.4950  130.4575  149.6733 H   0  0  0  0  0  0  0  0  0  0  0  0  # atno 10718 bound_to 10713
  153.6297  135.3398  155.3038 H   0  0  0  0  0  0  0  0  0  0  0  0  # atno 10763 bound_to 10752
  154.8583  135.4292  154.2119 H   0  0  0  0  0  0  0  0  0  0  0  0  # atno 10764 bound_to 10752
  153.3011  135.7024  153.7275 H   0  0  0  0  0  0  0  0  0  0  0  0  # atno 10765 bound_to 10752
  140.1975  134.3911  155.8114 H   0  0  0  0  0  0  0  0  0  0  0  0  # atno 11005 bound_to 11000
  145.2838  139.1908  143.4776 LP  0  0  0  0  0  0  0  0  0  0  0  0  # atno 17320 bound_to 7965
  146.3322  140.2804  142.8610 LP  0  0  0  0  0  0  0  0  0  0  0  0  # atno 17321 bound_to 7965
  139.6327  144.7646  151.2502 LP  0  0  0  0  0  0  0  0  0  0  0  0  # atno 17342 bound_to 10162
  140.7448  143.6451  150.8299 LP  0  0  0  0  0  0  0  0  0  0  0  0  # atno 17343 bound_to 10162
  156.3388  130.7371  151.2313 LP  0  0  0  0  0  0  0  0  0  0  0  0  # atno 17370 bound_to 10713
  157.7469  131.0409  150.4621 LP  0  0  0  0  0  0  0  0  0  0  0  0  # atno 17371 bound_to 10713
  141.2227  133.7077  156.8200 LP  0  0  0  0  0  0  0  0  0  0  0  0  # atno 17394 bound_to 11000
  140.2091  134.8840  157.3255 LP  0  0  0  0  0  0  0  0  0  0  0  0  # atno 17395 bound_to 11000

$$$$
