AV-unprocessed.smi:13|AV-procd|sdf|76|dock9
  -GOLD-   2262015203D 1   1.00000     0.00000
 Structure written by MMmdl.
 54 58  0  0  0  0  0  0  0  0  1 V2000
  146.4362  130.9120  160.7435 C   0  0  0  0  0  0  0  0  0  0  0  0
  147.7322  131.6808  160.4856 C   0  0  0  0  0  0  0  0  0  0  0  0
  148.7097  131.2750  161.5971 C   0  0  0  0  0  0  0  0  0  0  0  0
  148.2878  131.5992  159.0558 C   0  0  0  0  0  0  0  0  0  0  0  0
  148.5833  133.0165  159.1662 N   0  0  0  0  0  0  0  0  0  0  0  0
  148.4265  133.7149  157.9365 C   0  0  0  0  0  0  0  0  0  0  0  0
  148.2407  135.0625  157.8984 N   0  0  0  0  0  0  0  0  0  0  0  0
  148.0971  135.7034  156.7348 C   0  0  0  0  0  0  0  0  0  0  0  0
  148.1053  135.2002  155.5001 N   0  0  0  0  0  0  0  0  0  0  0  0
  148.2910  133.8501  155.5233 C   0  0  0  0  0  0  0  0  0  0  0  0
  148.4522  133.0426  156.6846 C   0  0  0  0  0  0  0  0  0  0  0  0
  148.6075  131.7118  156.3184 N   0  0  0  0  0  0  0  0  0  0  0  0
  148.5434  131.7312  155.0151 C   0  0  0  0  0  0  0  0  0  0  0  0
  148.3668  132.9759  154.4527 N   0  0  0  0  0  0  0  0  0  0  0  0
  148.2660  133.2882  153.0349 C   0  0  0  0  0  0  0  0  0  0  0  0
  147.0221  132.6740  152.3491 C   0  0  2  0  0  0  0  0  0  0  0  0
  147.1858  131.2694  152.2576 O   0  0  0  0  0  0  0  0  0  0  0  0
  146.7935  133.2191  150.9446 C   0  0  0  0  0  0  0  0  0  0  0  0
  145.2828  133.1174  150.7845 C   0  0  0  0  0  0  0  0  0  0  0  0
  144.8052  133.4932  152.0647 O   0  0  0  0  0  0  0  0  0  0  0  0
  145.6816  132.9650  153.0559 C   0  0  0  0  0  0  0  0  0  0  0  0
  147.5637  133.1899  160.1979 C   0  0  2  0  0  0  0  0  0  0  0  0
  147.9591  134.2466  161.2380 C   0  0  1  0  0  0  0  0  0  0  0  0
  147.7635  135.6926  160.7681 C   0  0  0  0  0  0  0  0  0  0  0  0
  146.3212  135.9667  161.1248 C   0  0  0  0  0  0  0  0  0  0  0  0
  146.1993  135.2268  162.4505 C   0  0  0  0  0  0  0  0  0  0  0  0
  147.0648  134.1005  162.3419 O   0  0  0  0  0  0  0  0  0  0  0  0
  146.5988  129.8339  160.7292 H   0  0  0  0  0  0  0  0  0  0  0  0
  145.6826  131.1339  159.9873 H   0  0  0  0  0  0  0  0  0  0  0  0
  146.0061  131.1699  161.7119 H   0  0  0  0  0  0  0  0  0  0  0  0
  149.6839  131.7481  161.4714 H   0  0  0  0  0  0  0  0  0  0  0  0
  148.8790  130.1978  161.6060 H   0  0  0  0  0  0  0  0  0  0  0  0
  148.3371  131.5571  162.5824 H   0  0  0  0  0  0  0  0  0  0  0  0
  149.1739  130.9736  158.9456 H   0  0  0  0  0  0  0  0  0  0  0  0
  147.5279  131.3762  158.3040 H   0  0  0  0  0  0  0  0  0  0  0  0
  147.9568  136.7720  156.8036 H   0  0  0  0  0  0  0  0  0  0  0  0
  148.6265  130.8303  154.4250 H   0  0  0  0  0  0  0  0  0  0  0  0
  148.2548  134.3735  152.9283 H   0  0  0  0  0  0  0  0  0  0  0  0
  149.1760  132.9433  152.5418 H   0  0  0  0  0  0  0  0  0  0  0  0
  147.6540  131.0728  151.4607 H   0  0  0  0  0  0  0  0  0  0  0  0
  147.0857  134.2691  150.8933 H   0  0  0  0  0  0  0  0  0  0  0  0
  147.3446  132.6838  150.1701 H   0  0  0  0  0  0  0  0  0  0  0  0
  144.8948  133.7698  150.0021 H   0  0  0  0  0  0  0  0  0  0  0  0
  144.9790  132.0926  150.5648 H   0  0  0  0  0  0  0  0  0  0  0  0
  145.2463  132.0694  153.5026 H   0  0  0  0  0  0  0  0  0  0  0  0
  145.7808  133.7081  153.8463 H   0  0  0  0  0  0  0  0  0  0  0  0
  146.5713  133.3628  159.7789 H   0  0  0  0  0  0  0  0  0  0  0  0
  148.9841  134.0959  161.5785 H   0  0  0  0  0  0  0  0  0  0  0  0
  148.4125  136.3559  161.3412 H   0  0  0  0  0  0  0  0  0  0  0  0
  147.9836  135.8511  159.7130 H   0  0  0  0  0  0  0  0  0  0  0  0
  146.0922  137.0296  161.2055 H   0  0  0  0  0  0  0  0  0  0  0  0
  145.6568  135.5274  160.3796 H   0  0  0  0  0  0  0  0  0  0  0  0
  146.5484  135.8553  163.2706 H   0  0  0  0  0  0  0  0  0  0  0  0
  145.1750  134.9230  162.6673 H   0  0  0  0  0  0  0  0  0  0  0  0
  1  2  1  0  0  0  0
  1 28  1  0  0  0  0
  1 29  1  0  0  0  0
  1 30  1  0  0  0  0
  2 22  1  0  0  0  0
  2  3  1  0  0  0  0
  2  4  1  0  0  0  0
  3 31  1  0  0  0  0
  3 32  1  0  0  0  0
  3 33  1  0  0  0  0
  4  5  1  0  0  0  0
  4 34  1  0  0  0  0
  4 35  1  0  0  0  0
  5  6  1  0  0  0  0
  5 22  1  0  0  0  0
  6 11  1  0  0  0  0
  6  7  2  0  0  0  0
  7  8  1  0  0  0  0
  8  9  2  0  0  0  0
  8 36  1  0  0  0  0
  9 10  1  0  0  0  0
 10 14  1  0  0  0  0
 10 11  2  0  0  0  0
 11 12  1  0  0  0  0
 12 13  2  0  0  0  0
 13 14  1  0  0  0  0
 13 37  1  0  0  0  0
 14 15  1  0  0  0  0
 15 16  1  0  0  0  0
 15 38  1  0  0  0  0
 15 39  1  0  0  0  0
 16 21  1  0  0  0  0
 16 17  1  0  0  0  0
 16 18  1  0  0  0  0
 17 40  1  0  0  0  0
 18 19  1  0  0  0  0
 18 41  1  0  0  0  0
 18 42  1  0  0  0  0
 19 20  1  0  0  0  0
 19 43  1  0  0  0  0
 19 44  1  0  0  0  0
 20 21  1  0  0  0  0
 21 45  1  0  0  0  0
 21 46  1  0  0  0  0
 22 23  1  0  0  0  0
 22 47  1  0  0  0  0
 23 27  1  0  0  0  0
 23 24  1  0  0  0  0
 23 48  1  0  0  0  0
 24 25  1  0  0  0  0
 24 49  1  0  0  0  0
 24 50  1  0  0  0  0
 25 26  1  0  0  0  0
 25 51  1  0  0  0  0
 25 52  1  0  0  0  0
 26 27  1  0  0  0  0
 26 53  1  0  0  0  0
 26 54  1  0  0  0  0
M  END
> <s_m_source_file>
AV-unprocessed.smi

> <i_m_source_file_index>
13

> <i_lp_mmshare_version>
43012

> <i_f3d_flags>
0

> <s_epik_input>
TzFbQ0gyXVtDSDJdW0NIMl1bQ0BIXTFbQ0BASF0yTihbQ0gyXUMyKFtDSDNdKVtDSDNdKWMobltjSF1uMyljKGMzNCluW2NIXW40W0NIMl1bQ0BAXTUoW09IXSlbQ0gyXVtDSDJdT1tDSDJdNQ==

> <s_epik_cmdline>
J2VwaWtfcHl0aG9uJywgJy1waCcsICc3LjAnLCAnLXRuJywgJzgnLCAnLW1hJywgJzIwMCcsICctbWV0YWxfYmluZGluZycsICctaW1hZScsICc8aW5maWxlLm1hZT4nLCAnLW9tYWUnLCAnPG91dGZpbGUubWFlPic=

> <r_lp_tautomer_probability>
1

> <r_epik_Ionization_Penalty>
0.00202764

> <r_epik_Ionization_Penalty_Charging>
0

> <r_epik_Ionization_Penalty_Neutral>
0.00202764

> <r_epik_State_Penalty>
0.00134017

> <r_epik_Charging_Adjusted_Penalty>
0.00134017

> <i_epik_Tot_Q>
0

> <i_epik_Tot_abs_Q>
0

> <r_epik_Metal_State_Penalty>
-0

> <b_epik_Metal_Only>
0

> <s_lp_Force_Field>
OPLS_2005

> <r_lp_Energy>
64.8662

> <b_lp_Chiralities_Consistent>
1

> <s_lp_Variant>
AV-unprocessed.smi:13-8

> <Gold.Version>
5.8.1

> <Gold.Id.Protein>
6NUR|6NUR_protein|mol2

> <Gold.PLP.Fitness>
33.6871

> <Gold.PLP.PLP>
-30.9175

> <Gold.PLP.part.hbond>
-1.6091

> <Gold.PLP.part.metal>
0.0000

> <Gold.PLP.part.buried>
-4.9032

> <Gold.PLP.part.nonpolar>
-23.6604

> <Gold.PLP.part.repulsive>
0.1394

> <Gold.PLP.ligand.clash>
0.0000

> <Gold.PLP.ligand.torsion>
0.5647

> <Gold.PLP.Chemscore.Hbond>
1.1544

> <Gold.PLP.Chemscore.CHOScore>
0.0000

> <Gold.PLP.Chemscore.Metal>
0.0000

> <Gold.Chemscore.Hbonds>
donor molecule, donor type, donor heavy atom, donor atom, acceptor molecule, acceptor atom, score
      L1  H    17    40       P1 10747  1.00
      P1  H  6896  6908       L1     5  0.12

> <Gold.PLP.Chemscore.Internal.Correction>
0.4356

> <Gold.Rescore>
     Score         DG    S(hbond)    S(metal)    S(lipo)     H(rot)  DE(clash)    DE(int)     intcor
      9.20     -12.54       1.01        0.00      81.87       2.30       0.10       3.24       ----

> <Gold.Chemscore.Fitness>
9.2007

> <Gold.Chemscore.DG>
-12.5447

> <Gold.Chemscore.ZeroCoef>
-5.4800

> <Gold.Chemscore.Hbond>
1.0098

> <Gold.Chemscore.Metal>
0.0000

> <Gold.Chemscore.Lipo>
81.8700

> <Gold.Chemscore.Internal_Hbond>
0.0000

> <Gold.Chemscore.DEClash>
0.1007

> <Gold.Chemscore.DEInternal>
3.2433

> <Gold.Chemscore.Rot>
2.2996

> <Gold.Chemscore.Internal.Correction>
   9.000000E+99

> <Gold.Chemscore.Hbonds>
donor molecule, donor type, donor heavy atom, donor atom, acceptor molecule, acceptor atom, score
      L1  H    17    40       P1 10747  1.00

> <Gold.Chemscore.Hbond.Weighted>
-3.3729

> <Gold.Chemscore.Metal.Weighted>
-0.0000

> <Gold.Chemscore.Lipo.Weighted>
-9.5788

> <Gold.Chemscore.Internal_Hbond.Weighted>
0.0000

> <Gold.Chemscore.DEClash.Weighted>
0.1007

> <Gold.Chemscore.DEInternal.Weighted>
3.2433

> <Gold.Chemscore.Rot.Weighted>
5.8869

> <Gold.Chemscore.Internal.Correction.Weighted>
   9.000000E+99

> <Gold.Protein.RotatedTorsions>
[ 6907 6896 6895 6894 ] final  124.88 input  -60.11 | X-H torsion
[ 7974 7965 7964 7962 ] final   76.32 input  175.53 | X-H torsion
[ 8008 7997 7996 7995 ] final  -12.51 input   59.86 | X-H torsion
[ 10167 10162 10161 10158 ] final -106.58 input  -65.29 | X-H torsion
[ 10718 10713 10712 10709 ] final   81.89 input   66.30 | X-H torsion
[ 10763 10752 10751 10750 ] final  -19.21 input  -60.55 | X-H torsion
[ 11005 11000 10999 10996 ] final  -83.27 input  -57.11 | X-H torsion

> <Gold.Protein.ActiveResidues>
 VAL166  LYS551  ARG553  GLY616  TRP617  ASP618  TYR619  PRO620  LYS621  CYS622 
 ASP623  PHE694  ASN695  SER759  ASP760  ASP761  ALA762  ILE779  LEU786  VAL792 
 PHE793  MET794  SER795  GLU796  ALA797  LYS798  CYS799  TRP800  GLU811  SER814 

> <Gold.Protein.RotatedAtoms>
  152.4040  133.6861  159.6340 H   0  0  0  0  0  0  0  0  0  0  0  0  # atno 6907 bound_to 6896
  150.7927  133.8741  159.3276 H   0  0  0  0  0  0  0  0  0  0  0  0  # atno 6908 bound_to 6896
  151.6500  135.1004  160.0210 H   0  0  0  0  0  0  0  0  0  0  0  0  # atno 6909 bound_to 6896
  145.7043  139.2593  143.1687 H   0  0  0  0  0  0  0  0  0  0  0  0  # atno 7974 bound_to 7965
  154.5371  140.2274  155.8704 H   0  0  0  0  0  0  0  0  0  0  0  0  # atno 8008 bound_to 7997
  156.1822  140.3097  155.9133 H   0  0  0  0  0  0  0  0  0  0  0  0  # atno 8009 bound_to 7997
  155.3333  140.0446  157.3034 H   0  0  0  0  0  0  0  0  0  0  0  0  # atno 8010 bound_to 7997
  140.1862  143.3927  152.1242 H   0  0  0  0  0  0  0  0  0  0  0  0  # atno 10167 bound_to 10162
  157.6844  131.0024  150.2294 H   0  0  0  0  0  0  0  0  0  0  0  0  # atno 10718 bound_to 10713
  153.6013  135.6999  153.5383 H   0  0  0  0  0  0  0  0  0  0  0  0  # atno 10763 bound_to 10752
  153.3094  135.4105  155.1322 H   0  0  0  0  0  0  0  0  0  0  0  0  # atno 10764 bound_to 10752
  154.8582  135.3668  154.5549 H   0  0  0  0  0  0  0  0  0  0  0  0  # atno 10765 bound_to 10752
  141.1659  133.7286  156.8695 H   0  0  0  0  0  0  0  0  0  0  0  0  # atno 11005 bound_to 11000
  146.0770  140.7806  142.9660 LP  0  0  0  0  0  0  0  0  0  0  0  0  # atno 17320 bound_to 7965
  144.6960  140.3429  143.7196 LP  0  0  0  0  0  0  0  0  0  0  0  0  # atno 17321 bound_to 7965
  139.5275  144.7120  151.5176 LP  0  0  0  0  0  0  0  0  0  0  0  0  # atno 17342 bound_to 10162
  140.6486  143.8742  150.6763 LP  0  0  0  0  0  0  0  0  0  0  0  0  # atno 17343 bound_to 10162
  156.2930  130.3748  149.7823 LP  0  0  0  0  0  0  0  0  0  0  0  0  # atno 17370 bound_to 10713
  156.5477  130.8328  151.3289 LP  0  0  0  0  0  0  0  0  0  0  0  0  # atno 17371 bound_to 10713
  140.1791  134.9046  157.2927 LP  0  0  0  0  0  0  0  0  0  0  0  0  # atno 17394 bound_to 11000
  140.2415  134.3790  155.7479 LP  0  0  0  0  0  0  0  0  0  0  0  0  # atno 17395 bound_to 11000

$$$$
