AV-unprocessed.smi:1567|AV-procd|sdf|6308|dock8
  -GOLD-   22720 6513D 1   1.00000     0.00000
 Structure written by MMmdl.
 43 45  0  0  0  0  0  0  0  0  2 V2000
  151.6092  135.5190  156.1126 O   0  0  0  0  0  0  0  0  0  0  0  0
  151.4019  136.7831  156.7033 C   0  0  0  0  0  0  0  0  0  0  0  0
  152.3508  137.8116  156.0678 C   0  0  0  0  0  0  0  0  0  0  0  0
  152.0507  138.0990  154.5873 C   0  0  0  0  0  0  0  0  0  0  0  0
  150.8104  138.9159  154.4047 C   0  0  0  0  0  0  0  0  0  0  0  0
  149.7547  138.5887  153.6071 N   0  3  0  0  0  0  0  0  0  0  0  0
  148.7819  139.5864  153.6763 C   0  0  0  0  0  0  0  0  0  0  0  0
  147.5441  139.6957  153.0500 C   0  0  0  0  0  0  0  0  0  0  0  0
  146.7869  140.8491  153.3420 C   0  0  0  0  0  0  0  0  0  0  0  0
  147.2665  141.8376  154.2255 C   0  0  0  0  0  0  0  0  0  0  0  0
  148.5237  141.7162  154.8533 C   0  0  0  0  0  0  0  0  0  0  0  0
  149.2679  140.5735  154.5579 C   0  0  0  0  0  0  0  0  0  0  0  0
  150.5245  140.1204  154.9792 N   0  0  0  0  0  0  0  0  0  0  0  0
  151.3145  140.9380  155.9146 C   0  0  0  0  0  0  0  0  0  0  0  0
  150.9306  140.7038  157.3902 C   0  0  2  0  0  0  0  0  0  0  0  0
  149.5306  140.8105  157.5610 O   0  0  0  0  0  0  0  0  0  0  0  0
  151.6977  141.6322  158.3213 C   0  0  0  0  0  0  0  0  0  0  0  0
  151.5447  143.0299  158.1922 C   0  0  0  0  0  0  0  0  0  0  0  0
  152.2421  143.9052  159.0469 C   0  0  0  0  0  0  0  0  0  0  0  0
  152.0898  145.2441  158.9144 F   0  0  0  0  0  0  0  0  0  0  0  0
  153.0968  143.3889  160.0389 C   0  0  0  0  0  0  0  0  0  0  0  0
  153.2518  141.9965  160.1766 C   0  0  0  0  0  0  0  0  0  0  0  0
  152.5553  141.1186  159.3228 C   0  0  0  0  0  0  0  0  0  0  0  0
  152.7137  139.7817  159.4749 F   0  0  0  0  0  0  0  0  0  0  0  0
  150.8801  134.9591  156.3327 H   0  0  0  0  0  0  0  0  0  0  0  0
  150.3622  137.0770  156.5577 H   0  0  0  0  0  0  0  0  0  0  0  0
  151.5727  136.6993  157.7769 H   0  0  0  0  0  0  0  0  0  0  0  0
  152.3155  138.7435  156.6336 H   0  0  0  0  0  0  0  0  0  0  0  0
  153.3749  137.4455  156.1501 H   0  0  0  0  0  0  0  0  0  0  0  0
  152.8875  138.6388  154.1432 H   0  0  0  0  0  0  0  0  0  0  0  0
  151.9626  137.1647  154.0328 H   0  0  0  0  0  0  0  0  0  0  0  0
  147.1738  138.9386  152.3744 H   0  0  0  0  0  0  0  0  0  0  0  0
  145.8182  140.9775  152.8811 H   0  0  0  0  0  0  0  0  0  0  0  0
  146.6575  142.7068  154.4277 H   0  0  0  0  0  0  0  0  0  0  0  0
  148.8763  142.4765  155.5343 H   0  0  0  0  0  0  0  0  0  0  0  0
  152.3631  140.6825  155.7614 H   0  0  0  0  0  0  0  0  0  0  0  0
  151.2227  141.9879  155.6376 H   0  0  0  0  0  0  0  0  0  0  0  0
  151.1867  139.6758  157.6498 H   0  0  0  0  0  0  0  0  0  0  0  0
  149.3528  140.9939  158.4709 H   0  0  0  0  0  0  0  0  0  0  0  0
  150.8905  143.4388  157.4361 H   0  0  0  0  0  0  0  0  0  0  0  0
  153.6320  144.0600  160.6945 H   0  0  0  0  0  0  0  0  0  0  0  0
  153.9058  141.6006  160.9396 H   0  0  0  0  0  0  0  0  0  0  0  0
  149.7058  137.7419  153.0552 H   0  0  0  0  0  0  0  0  0  0  0  0
  1  2  1  0  0  0  0
  1 25  1  0  0  0  0
  2  3  1  0  0  0  0
  2 26  1  0  0  0  0
  2 27  1  0  0  0  0
  3  4  1  0  0  0  0
  3 28  1  0  0  0  0
  3 29  1  0  0  0  0
  4  5  1  0  0  0  0
  4 30  1  0  0  0  0
  4 31  1  0  0  0  0
  5 13  1  0  0  0  0
  5  6  2  0  0  0  0
  6  7  1  0  0  0  0
  6 43  1  0  0  0  0
  7 12  2  0  0  0  0
  7  8  1  0  0  0  0
  8  9  2  0  0  0  0
  8 32  1  0  0  0  0
  9 10  1  0  0  0  0
  9 33  1  0  0  0  0
 10 11  2  0  0  0  0
 10 34  1  0  0  0  0
 11 12  1  0  0  0  0
 11 35  1  0  0  0  0
 12 13  1  0  0  0  0
 13 14  1  0  0  0  0
 14 15  1  0  0  0  0
 14 36  1  0  0  0  0
 14 37  1  0  0  0  0
 15 16  1  0  0  0  0
 15 17  1  0  0  0  0
 15 38  1  0  0  0  0
 16 39  1  0  0  0  0
 17 23  1  0  0  0  0
 17 18  2  0  0  0  0
 18 19  1  0  0  0  0
 18 40  1  0  0  0  0
 19 20  1  0  0  0  0
 19 21  2  0  0  0  0
 21 22  1  0  0  0  0
 21 41  1  0  0  0  0
 22 23  2  0  0  0  0
 22 42  1  0  0  0  0
 23 24  1  0  0  0  0
M  CHG  1   6   1
M  END
> <s_m_source_file>
AV-unprocessed.smi

> <i_m_source_file_index>
1567

> <i_lp_mmshare_version>
43012

> <i_f3d_flags>
0

> <s_epik_input>
W09IXVtDSDJdW0NIMl1bQ0gyXWMobjEpbihjKGMxMilbY0hdW2NIXVtjSF1bY0hdMilbQ0gyXVtDQEhdKFtPSF0pYzNbY0hdYyhGKVtjSF1bY0hdYzNG

> <s_epik_cmdline>
J2VwaWtfcHl0aG9uJywgJy1waCcsICc3LjAnLCAnLXRuJywgJzgnLCAnLW1hJywgJzIwMCcsICctbWV0YWxfYmluZGluZycsICctaW1hZScsICc8aW5maWxlLm1hZT4nLCAnLW9tYWUnLCAnPG91dGZpbGUubWFlPic=

> <r_epik_Ionization_Penalty>
0.786443

> <r_epik_Ionization_Penalty_Charging>
0.786439

> <r_epik_Ionization_Penalty_Neutral>
3.69699e-06

> <r_epik_State_Penalty>
0.816472

> <r_epik_Charging_Adjusted_Penalty>
1.60291

> <i_epik_Tot_Q>
1

> <i_epik_Tot_abs_Q>
1

> <r_epik_Metal_State_Penalty>
4.73733

> <b_epik_Metal_Only>
0

> <s_lp_Force_Field>
OPLS_2005

> <r_lp_Energy>
17.4114

> <b_lp_Chiralities_Consistent>
1

> <s_lp_Variant>
AV-unprocessed.smi:1567-3

> <Gold.Version>
5.8.1

> <Gold.Id.Protein>
6NUR|6NUR_protein|mol2

> <Gold.PLP.Fitness>
62.5675

> <Gold.PLP.PLP>
-54.4557

> <Gold.PLP.part.hbond>
-3.0000

> <Gold.PLP.part.metal>
0.0000

> <Gold.PLP.part.buried>
2.8863

> <Gold.PLP.part.nonpolar>
-53.5528

> <Gold.PLP.part.repulsive>
0.0790

> <Gold.PLP.ligand.clash>
0.0000

> <Gold.PLP.ligand.torsion>
0.4753

> <Gold.PLP.Chemscore.Hbond>
3.0000

> <Gold.PLP.Chemscore.CHOScore>
0.0000

> <Gold.PLP.Chemscore.Metal>
0.0000

> <Gold.Chemscore.Hbonds>
donor molecule, donor type, donor heavy atom, donor atom, acceptor molecule, acceptor atom, score
      L1  H     6    43       P1  7948  2.00
      P1  H 10752 10765       L1     1  1.00

> <Gold.PLP.Chemscore.Internal.Correction>
0.0624

> <Gold.Rescore>
     Score         DG    S(hbond)    S(metal)    S(lipo)     H(rot)  DE(clash)    DE(int)     intcor
     17.71     -18.62       1.90        0.00     130.49       3.31       0.32       0.58       ----

> <Gold.Chemscore.Fitness>
17.7130

> <Gold.Chemscore.DG>
-18.6178

> <Gold.Chemscore.ZeroCoef>
-5.4800

> <Gold.Chemscore.Hbond>
1.9014

> <Gold.Chemscore.Metal>
0.0000

> <Gold.Chemscore.Lipo>
130.4936

> <Gold.Chemscore.Internal_Hbond>
0.0000

> <Gold.Chemscore.DEClash>
0.3220

> <Gold.Chemscore.DEInternal>
0.5828

> <Gold.Chemscore.Rot>
3.3127

> <Gold.Chemscore.Internal.Correction>
   9.000000E+99

> <Gold.Chemscore.Hbonds>
donor molecule, donor type, donor heavy atom, donor atom, acceptor molecule, acceptor atom, score
      L1  H     6    43       P1  7948  0.61
      P1  H 10752 10765       L1     1  0.85

> <Gold.Chemscore.Hbond.Weighted>
-6.3505

> <Gold.Chemscore.Metal.Weighted>
-0.0000

> <Gold.Chemscore.Lipo.Weighted>
-15.2678

> <Gold.Chemscore.Internal_Hbond.Weighted>
0.0000

> <Gold.Chemscore.DEClash.Weighted>
0.3220

> <Gold.Chemscore.DEInternal.Weighted>
0.5828

> <Gold.Chemscore.Rot.Weighted>
8.4805

> <Gold.Chemscore.Internal.Correction.Weighted>
   9.000000E+99

> <Gold.Protein.RotatedTorsions>
[ 6907 6896 6895 6894 ] final  -33.69 input  -60.11 | X-H torsion
[ 7974 7965 7964 7962 ] final  145.70 input  175.53 | X-H torsion
[ 8008 7997 7996 7995 ] final   -0.91 input   59.86 | X-H torsion
[ 10167 10162 10161 10158 ] final  148.16 input  -65.29 | X-H torsion
[ 10718 10713 10712 10709 ] final   47.72 input   66.30 | X-H torsion
[ 10763 10752 10751 10750 ] final -152.26 input  -60.55 | X-H torsion
[ 11005 11000 10999 10996 ] final   66.34 input  -57.11 | X-H torsion

> <Gold.Protein.ActiveResidues>
 VAL166  LYS551  ARG553  GLY616  TRP617  ASP618  TYR619  PRO620  LYS621  CYS622 
 ASP623  PHE694  ASN695  SER759  ASP760  ASP761  ALA762  ILE779  LEU786  VAL792 
 PHE793  MET794  SER795  GLU796  ALA797  LYS798  CYS799  TRP800  GLU811  SER814 

> <Gold.Protein.RotatedAtoms>
  151.0623  134.9744  159.8266 H   0  0  0  0  0  0  0  0  0  0  0  0  # atno 6907 bound_to 6896
  152.5397  134.2402  159.8869 H   0  0  0  0  0  0  0  0  0  0  0  0  # atno 6908 bound_to 6896
  151.2423  133.4350  159.2641 H   0  0  0  0  0  0  0  0  0  0  0  0  # atno 6909 bound_to 6896
  144.8731  139.5815  143.5877 H   0  0  0  0  0  0  0  0  0  0  0  0  # atno 7974 bound_to 7965
  154.6527  140.2572  155.7195 H   0  0  0  0  0  0  0  0  0  0  0  0  # atno 8008 bound_to 7997
  156.2583  140.2864  156.0889 H   0  0  0  0  0  0  0  0  0  0  0  0  # atno 8009 bound_to 7997
  155.1426  140.0380  157.2792 H   0  0  0  0  0  0  0  0  0  0  0  0  # atno 8010 bound_to 7997
  139.4879  144.5700  151.7072 H   0  0  0  0  0  0  0  0  0  0  0  0  # atno 10167 bound_to 10162
  157.4613  130.8198  149.7890 H   0  0  0  0  0  0  0  0  0  0  0  0  # atno 10718 bound_to 10713
  154.8005  135.3240  154.7560 H   0  0  0  0  0  0  0  0  0  0  0  0  # atno 10763 bound_to 10752
  153.8229  135.6886  153.4829 H   0  0  0  0  0  0  0  0  0  0  0  0  # atno 10764 bound_to 10752
  153.1720  135.4619  154.9858 H   0  0  0  0  0  0  0  0  0  0  0  0  # atno 10765 bound_to 10752
  139.9838  134.6701  156.0214 H   0  0  0  0  0  0  0  0  0  0  0  0  # atno 11005 bound_to 11000
  146.2944  139.7234  142.9137 LP  0  0  0  0  0  0  0  0  0  0  0  0  # atno 17320 bound_to 7965
  145.4093  141.0394  143.3026 LP  0  0  0  0  0  0  0  0  0  0  0  0  # atno 17321 bound_to 7965
  140.5286  144.0766  150.6046 LP  0  0  0  0  0  0  0  0  0  0  0  0  # atno 17342 bound_to 10162
  140.3749  143.2834  152.0237 LP  0  0  0  0  0  0  0  0  0  0  0  0  # atno 17343 bound_to 10162
  156.0030  130.3870  150.2534 LP  0  0  0  0  0  0  0  0  0  0  0  0  # atno 17370 bound_to 10713
  157.0712  131.0117  151.3189 LP  0  0  0  0  0  0  0  0  0  0  0  0  # atno 17371 bound_to 10713
  141.1506  133.6549  156.4001 LP  0  0  0  0  0  0  0  0  0  0  0  0  # atno 17394 bound_to 11000
  140.5044  134.6455  157.5261 LP  0  0  0  0  0  0  0  0  0  0  0  0  # atno 17395 bound_to 11000

$$$$
