AV-unprocessed.smi:1430|AV-procd|sdf|5828|dock7
  -GOLD-   22720 5483D 1   1.00000     0.00000
 Structure written by MMmdl.
 47 48  0  0  0  0  0  0  0  0  2 V2000
  152.0185  141.4736  159.1008 C   0  0  0  0  0  0  0  0  0  0  0  0
  152.6734  140.7889  158.0385 O   0  0  0  0  0  0  0  0  0  0  0  0
  151.9052  140.3021  157.0010 C   0  0  0  0  0  0  0  0  0  0  0  0
  150.5116  140.5018  157.0423 C   0  0  0  0  0  0  0  0  0  0  0  0
  149.7249  140.0094  155.9843 C   0  0  0  0  0  0  0  0  0  0  0  0
  150.3485  139.3352  154.9147 C   0  0  0  0  0  0  0  0  0  0  0  0
  149.5150  138.8460  153.8707 N   0  0  0  0  0  0  0  0  0  0  0  0
  148.1822  138.9486  153.7254 C   0  0  0  0  0  0  0  0  0  0  0  0
  147.4139  139.5018  154.5111 O   0  0  0  0  0  0  0  0  0  0  0  0
  147.7720  138.3559  152.5952 N   0  0  0  0  0  0  0  0  0  0  0  0
  146.3863  138.2878  152.1448 C   0  0  0  0  0  0  0  0  0  0  0  0
  145.8345  136.8522  152.2375 C   0  0  0  0  0  0  0  0  0  0  0  0
  144.5766  136.6763  151.4641 N   0  3  1  0  0  0  0  0  0  0  0  0
  144.6497  135.5931  150.4531 C   0  0  0  0  0  0  0  0  0  0  0  0
  144.5128  134.2035  151.1088 C   0  0  2  0  0  0  0  0  0  0  0  0
  144.4971  133.0754  150.0715 C   0  0  0  0  0  0  0  0  0  0  0  0
  143.2885  134.1546  151.8336 O   0  0  0  0  0  0  0  0  0  0  0  0
  143.2285  135.1120  152.8855 C   0  0  2  0  0  0  0  0  0  0  0  0
  141.9053  134.9124  153.6324 C   0  0  0  0  0  0  0  0  0  0  0  0
  143.3491  136.5307  152.2880 C   0  0  0  0  0  0  0  0  0  0  0  0
  151.7557  139.1770  154.9712 C   0  0  0  0  0  0  0  0  0  0  0  0
  152.5158  139.6480  155.9827 N   0  0  0  0  0  0  0  0  0  0  0  0
  152.7586  141.7911  159.8352 H   0  0  0  0  0  0  0  0  0  0  0  0
  151.3027  140.8272  159.6108 H   0  0  0  0  0  0  0  0  0  0  0  0
  151.5036  142.3665  158.7434 H   0  0  0  0  0  0  0  0  0  0  0  0
  150.0546  141.0228  157.8707 H   0  0  0  0  0  0  0  0  0  0  0  0
  148.6538  140.1509  155.9966 H   0  0  0  0  0  0  0  0  0  0  0  0
  149.9953  138.3231  153.1532 H   0  0  0  0  0  0  0  0  0  0  0  0
  148.4665  137.9177  152.0074 H   0  0  0  0  0  0  0  0  0  0  0  0
  145.8108  138.9671  152.7721 H   0  0  0  0  0  0  0  0  0  0  0  0
  146.3054  138.6638  151.1234 H   0  0  0  0  0  0  0  0  0  0  0  0
  146.5866  136.1721  151.8349 H   0  0  0  0  0  0  0  0  0  0  0  0
  145.6928  136.5645  153.2792 H   0  0  0  0  0  0  0  0  0  0  0  0
  143.8379  135.7401  149.7391 H   0  0  0  0  0  0  0  0  0  0  0  0
  145.5747  135.6656  149.8801 H   0  0  0  0  0  0  0  0  0  0  0  0
  145.3440  134.0271  151.7934 H   0  0  0  0  0  0  0  0  0  0  0  0
  145.4231  133.0577  149.4962 H   0  0  0  0  0  0  0  0  0  0  0  0
  143.6696  133.1933  149.3713 H   0  0  0  0  0  0  0  0  0  0  0  0
  144.3882  132.1038  150.5543 H   0  0  0  0  0  0  0  0  0  0  0  0
  144.0435  134.9258  153.5861 H   0  0  0  0  0  0  0  0  0  0  0  0
  141.8097  135.6179  154.4581 H   0  0  0  0  0  0  0  0  0  0  0  0
  141.8397  133.9061  154.0468 H   0  0  0  0  0  0  0  0  0  0  0  0
  141.0512  135.0545  152.9695 H   0  0  0  0  0  0  0  0  0  0  0  0
  143.3084  137.2850  153.0727 H   0  0  0  0  0  0  0  0  0  0  0  0
  142.4905  136.7229  151.6430 H   0  0  0  0  0  0  0  0  0  0  0  0
  152.3113  138.6539  154.2101 H   0  0  0  0  0  0  0  0  0  0  0  0
  144.4720  137.5329  150.9390 H   0  0  0  0  0  0  0  0  0  0  0  0
  1  2  1  0  0  0  0
  1 23  1  0  0  0  0
  1 24  1  0  0  0  0
  1 25  1  0  0  0  0
  2  3  1  0  0  0  0
  3 22  1  0  0  0  0
  3  4  2  0  0  0  0
  4  5  1  0  0  0  0
  4 26  1  0  0  0  0
  5  6  2  0  0  0  0
  5 27  1  0  0  0  0
  6  7  1  0  0  0  0
  6 21  1  0  0  0  0
  7  8  1  0  0  0  0
  7 28  1  0  0  0  0
  8  9  2  0  0  0  0
  8 10  1  0  0  0  0
 10 11  1  0  0  0  0
 10 29  1  0  0  0  0
 11 12  1  0  0  0  0
 11 30  1  0  0  0  0
 11 31  1  0  0  0  0
 12 13  1  0  0  0  0
 12 32  1  0  0  0  0
 12 33  1  0  0  0  0
 13 20  1  0  0  0  0
 13 14  1  0  0  0  0
 13 47  1  0  0  0  0
 14 15  1  0  0  0  0
 14 34  1  0  0  0  0
 14 35  1  0  0  0  0
 15 16  1  0  0  0  0
 15 17  1  0  0  0  0
 15 36  1  0  0  0  0
 16 37  1  0  0  0  0
 16 38  1  0  0  0  0
 16 39  1  0  0  0  0
 17 18  1  0  0  0  0
 18 19  1  0  0  0  0
 18 20  1  0  0  0  0
 18 40  1  0  0  0  0
 19 41  1  0  0  0  0
 19 42  1  0  0  0  0
 19 43  1  0  0  0  0
 20 44  1  0  0  0  0
 20 45  1  0  0  0  0
 21 22  2  0  0  0  0
 21 46  1  0  0  0  0
M  CHG  1  13   1
M  END
> <s_m_source_file>
AV-unprocessed.smi

> <i_m_source_file_index>
1430

> <i_lp_mmshare_version>
43012

> <i_f3d_flags>
0

> <s_epik_input>
W0NIM11PYzFbY0hdW2NIXWMoW2NIXW4xKVtOSF1DKD1PKVtOSF1bQ0gyXVtDSDJdTjJbQ0gyXVtDQEBIXShbQ0gzXSlPW0NAQEhdKFtDSDNdKVtDSDJdMg==

> <s_epik_cmdline>
J2VwaWtfcHl0aG9uJywgJy1waCcsICc3LjAnLCAnLXRuJywgJzgnLCAnLW1hJywgJzIwMCcsICctbWV0YWxfYmluZGluZycsICctaW1hZScsICc8aW5maWxlLm1hZT4nLCAnLW9tYWUnLCAnPG91dGZpbGUubWFlPic=

> <r_lp_tautomer_probability>
1

> <r_epik_Ionization_Penalty>
0.602607

> <r_epik_Ionization_Penalty_Charging>
0.602531

> <r_epik_Ionization_Penalty_Neutral>
7.66983e-05

> <r_epik_State_Penalty>
0.617039

> <r_epik_Charging_Adjusted_Penalty>
1.21957

> <i_epik_Tot_Q>
1

> <i_epik_Tot_abs_Q>
1

> <r_epik_Metal_State_Penalty>
0.617043

> <b_epik_Metal_Only>
0

> <s_lp_Force_Field>
OPLS_2005

> <r_lp_Energy>
19.3268

> <b_lp_Chiralities_Consistent>
1

> <s_lp_Variant>
AV-unprocessed.smi:1430-7

> <Gold.Version>
5.8.1

> <Gold.Id.Protein>
6NUR|6NUR_protein|mol2

> <Gold.PLP.Fitness>
43.6595

> <Gold.PLP.PLP>
-37.7511

> <Gold.PLP.part.hbond>
-5.8918

> <Gold.PLP.part.metal>
0.0000

> <Gold.PLP.part.buried>
-2.5148

> <Gold.PLP.part.nonpolar>
-30.1958

> <Gold.PLP.part.repulsive>
0.4824

> <Gold.PLP.ligand.clash>
0.7253

> <Gold.PLP.ligand.torsion>
0.8142

> <Gold.PLP.Chemscore.Hbond>
2.7360

> <Gold.PLP.Chemscore.CHOScore>
0.0000

> <Gold.PLP.Chemscore.Metal>
0.0000

> <Gold.Chemscore.Hbonds>
donor molecule, donor type, donor heavy atom, donor atom, acceptor molecule, acceptor atom, score
      L1  H    10    29       P1  7948  0.66
      L1  H    13    47       P1 10171  1.00
      P1  H  7997  8008       L1    22  1.00

> <Gold.PLP.Chemscore.Internal.Correction>
0.0542

> <Gold.Rescore>
     Score         DG    S(hbond)    S(metal)    S(lipo)     H(rot)  DE(clash)    DE(int)     intcor
     17.53     -19.79       2.82        0.00      80.43       1.76       0.10       2.16       ----

> <Gold.Chemscore.Fitness>
17.5276

> <Gold.Chemscore.DG>
-19.7896

> <Gold.Chemscore.ZeroCoef>
-5.4800

> <Gold.Chemscore.Hbond>
2.8164

> <Gold.Chemscore.Metal>
0.0000

> <Gold.Chemscore.Lipo>
80.4263

> <Gold.Chemscore.Internal_Hbond>
0.0000

> <Gold.Chemscore.DEClash>
0.1045

> <Gold.Chemscore.DEInternal>
2.1575

> <Gold.Chemscore.Rot>
1.7606

> <Gold.Chemscore.Internal.Correction>
   9.000000E+99

> <Gold.Chemscore.Hbonds>
donor molecule, donor type, donor heavy atom, donor atom, acceptor molecule, acceptor atom, score
      L1  H    10    29       P1  7948  0.66
      L1  H    13    47       P1 10171  0.99
      P1  H  7997  8008       L1    22  0.35

> <Gold.Chemscore.Hbond.Weighted>
-9.4069

> <Gold.Chemscore.Metal.Weighted>
-0.0000

> <Gold.Chemscore.Lipo.Weighted>
-9.4099

> <Gold.Chemscore.Internal_Hbond.Weighted>
0.0000

> <Gold.Chemscore.DEClash.Weighted>
0.1045

> <Gold.Chemscore.DEInternal.Weighted>
2.1575

> <Gold.Chemscore.Rot.Weighted>
4.5072

> <Gold.Chemscore.Internal.Correction.Weighted>
   9.000000E+99

> <Gold.Protein.RotatedTorsions>
[ 6907 6896 6895 6894 ] final   75.53 input  -60.11 | X-H torsion
[ 7974 7965 7964 7962 ] final   82.92 input  175.53 | X-H torsion
[ 8008 7997 7996 7995 ] final  -35.48 input   59.86 | X-H torsion
[ 10167 10162 10161 10158 ] final  -89.53 input  -65.29 | X-H torsion
[ 10718 10713 10712 10709 ] final  -19.68 input   66.30 | X-H torsion
[ 10763 10752 10751 10750 ] final -143.67 input  -60.55 | X-H torsion
[ 11005 11000 10999 10996 ] final  130.11 input  -57.11 | X-H torsion

> <Gold.Protein.ActiveResidues>
 VAL166  LYS551  ARG553  GLY616  TRP617  ASP618  TYR619  PRO620  LYS621  CYS622 
 ASP623  PHE694  ASN695  SER759  ASP760  ASP761  ALA762  ILE779  LEU786  VAL792 
 PHE793  MET794  SER795  GLU796  ALA797  LYS798  CYS799  TRP800  GLU811  SER814 

> <Gold.Protein.RotatedAtoms>
  152.5030  134.4106  159.9447 H   0  0  0  0  0  0  0  0  0  0  0  0  # atno 6907 bound_to 6896
  151.4074  133.3732  159.2747 H   0  0  0  0  0  0  0  0  0  0  0  0  # atno 6908 bound_to 6896
  150.9316  134.8753  159.7614 H   0  0  0  0  0  0  0  0  0  0  0  0  # atno 6909 bound_to 6896
  145.6188  139.2382  143.2150 H   0  0  0  0  0  0  0  0  0  0  0  0  # atno 7974 bound_to 7965
  154.4095  140.1656  156.2218 H   0  0  0  0  0  0  0  0  0  0  0  0  # atno 8008 bound_to 7997
  155.9357  140.3411  155.6263 H   0  0  0  0  0  0  0  0  0  0  0  0  # atno 8009 bound_to 7997
  155.7051  140.0750  157.2385 H   0  0  0  0  0  0  0  0  0  0  0  0  # atno 8010 bound_to 7997
  140.3639  143.2828  151.9582 H   0  0  0  0  0  0  0  0  0  0  0  0  # atno 10167 bound_to 10162
  156.5423  130.4681  149.6493 H   0  0  0  0  0  0  0  0  0  0  0  0  # atno 10718 bound_to 10713
  154.8460  135.3461  154.6224 H   0  0  0  0  0  0  0  0  0  0  0  0  # atno 10763 bound_to 10752
  153.6833  135.6979  153.5116 H   0  0  0  0  0  0  0  0  0  0  0  0  # atno 10764 bound_to 10752
  153.2651  135.4310  155.0889 H   0  0  0  0  0  0  0  0  0  0  0  0  # atno 10765 bound_to 10752
  139.9653  134.9592  156.9246 H   0  0  0  0  0  0  0  0  0  0  0  0  # atno 11005 bound_to 11000
  146.1447  140.7008  142.9350 LP  0  0  0  0  0  0  0  0  0  0  0  0  # atno 17320 bound_to 7965
  144.7240  140.4464  143.6987 LP  0  0  0  0  0  0  0  0  0  0  0  0  # atno 17321 bound_to 7965
  139.4811  144.5968  151.7676 LP  0  0  0  0  0  0  0  0  0  0  0  0  # atno 17342 bound_to 10162
  140.5100  144.1039  150.5992 LP  0  0  0  0  0  0  0  0  0  0  0  0  # atno 17343 bound_to 10162
  156.2960  130.7151  151.2011 LP  0  0  0  0  0  0  0  0  0  0  0  0  # atno 17370 bound_to 10713
  157.7403  131.0518  150.5175 LP  0  0  0  0  0  0  0  0  0  0  0  0  # atno 17371 bound_to 10713
  140.5410  134.0720  155.7341 LP  0  0  0  0  0  0  0  0  0  0  0  0  # atno 17394 bound_to 11000
  141.1333  133.9265  157.2489 LP  0  0  0  0  0  0  0  0  0  0  0  0  # atno 17395 bound_to 11000

$$$$
