AV-unprocessed.smi:897|AV-procd|sdf|4082|dock6
  -GOLD-   22720 1573D 1   1.00000     0.00000
 Structure written by MMmdl.
 35 37  0  0  0  0  0  0  0  0  1 V2000
  152.8172  138.6530  155.0498 C   0  0  0  0  0  0  0  0  0  0  0  0
  151.5044  139.4077  155.0477 C   0  0  0  0  0  0  0  0  0  0  0  0
  150.3882  138.9186  154.3441 C   0  0  0  0  0  0  0  0  0  0  0  0
  149.1901  139.6603  154.3767 C   0  0  0  0  0  0  0  0  0  0  0  0
  147.9752  139.1381  153.6247 C   0  0  0  0  0  0  0  0  0  0  0  0
  149.1581  140.8728  155.1138 C   0  0  0  0  0  0  0  0  0  0  0  0
  147.9369  141.6747  155.1687 C   0  0  0  0  0  0  0  0  0  0  0  0
  146.9700  142.3090  155.2122 N   0  0  0  0  0  0  0  0  0  0  0  0
  150.3403  141.2836  155.7900 C   0  0  0  0  0  0  0  0  0  0  0  0
  150.3581  142.4764  156.5372 N   0  0  0  0  0  0  0  0  0  0  0  0
  151.4870  142.8300  157.3914 C   0  0  1  0  0  0  0  0  0  0  0  0
  151.5589  144.3306  157.7032 C   0  0  0  0  0  0  0  0  0  0  0  0
  151.5470  144.3373  159.2366 C   0  0  2  0  0  0  0  0  0  0  0  0
  152.8425  143.7686  159.8317 C   0  0  0  0  0  0  0  0  0  0  0  0
  152.6850  142.2742  159.5520 C   0  0  0  0  0  0  0  0  0  0  0  0
  151.3470  142.2324  158.8016 C   0  0  1  0  0  0  0  0  0  0  0  0
  150.6531  143.2663  159.4817 O   0  0  0  0  0  0  0  0  0  0  0  0
  151.4829  140.5566  155.7523 N   0  0  0  0  0  0  0  0  0  0  0  0
  152.7228  137.6932  154.5411 H   0  0  0  0  0  0  0  0  0  0  0  0
  153.1454  138.4633  156.0722 H   0  0  0  0  0  0  0  0  0  0  0  0
  153.5881  139.2340  154.5428 H   0  0  0  0  0  0  0  0  0  0  0  0
  150.4503  137.9925  153.7912 H   0  0  0  0  0  0  0  0  0  0  0  0
  147.6694  139.8455  152.8535 H   0  0  0  0  0  0  0  0  0  0  0  0
  147.1389  138.9857  154.3072 H   0  0  0  0  0  0  0  0  0  0  0  0
  148.1876  138.1848  153.1402 H   0  0  0  0  0  0  0  0  0  0  0  0
  149.6772  143.1935  156.3315 H   0  0  0  0  0  0  0  0  0  0  0  0
  152.4091  142.4719  156.9313 H   0  0  0  0  0  0  0  0  0  0  0  0
  152.4514  144.8019  157.2906 H   0  0  0  0  0  0  0  0  0  0  0  0
  150.6878  144.8643  157.3196 H   0  0  0  0  0  0  0  0  0  0  0  0
  151.2386  145.2884  159.6712 H   0  0  0  0  0  0  0  0  0  0  0  0
  153.7325  144.1960  159.3688 H   0  0  0  0  0  0  0  0  0  0  0  0
  152.8920  143.9527  160.9055 H   0  0  0  0  0  0  0  0  0  0  0  0
  153.5065  141.8627  158.9645 H   0  0  0  0  0  0  0  0  0  0  0  0
  152.6211  141.7152  160.4863 H   0  0  0  0  0  0  0  0  0  0  0  0
  150.8591  141.2573  158.8354 H   0  0  0  0  0  0  0  0  0  0  0  0
  1  2  1  0  0  0  0
  1 19  1  0  0  0  0
  1 20  1  0  0  0  0
  1 21  1  0  0  0  0
  2 18  1  0  0  0  0
  2  3  2  0  0  0  0
  3  4  1  0  0  0  0
  3 22  1  0  0  0  0
  4  5  1  0  0  0  0
  4  6  2  0  0  0  0
  5 23  1  0  0  0  0
  5 24  1  0  0  0  0
  5 25  1  0  0  0  0
  6  7  1  0  0  0  0
  6  9  1  0  0  0  0
  7  8  3  0  0  0  0
  9 10  1  0  0  0  0
  9 18  2  0  0  0  0
 10 11  1  0  0  0  0
 10 26  1  0  0  0  0
 11 16  1  0  0  0  0
 11 12  1  0  0  0  0
 11 27  1  0  0  0  0
 12 13  1  0  0  0  0
 12 28  1  0  0  0  0
 12 29  1  0  0  0  0
 13 17  1  0  0  0  0
 13 14  1  0  0  0  0
 13 30  1  0  0  0  0
 14 15  1  0  0  0  0
 14 31  1  0  0  0  0
 14 32  1  0  0  0  0
 15 16  1  0  0  0  0
 15 33  1  0  0  0  0
 15 34  1  0  0  0  0
 16 17  1  0  0  0  0
 16 35  1  0  0  0  0
M  END
> <s_m_source_file>
AV-unprocessed.smi

> <i_m_source_file_index>
897

> <i_lp_mmshare_version>
43012

> <i_f3d_flags>
0

> <s_epik_input>
W0NIM11jMVtjSF1jKFtDSDNdKWMoQyNOKWMobjEpW05IXVtDQEhdKFtDSDJdW0NAQEhdMjMpW0NAQEhdKE8zKVtDSDJdW0NIMl0y

> <s_epik_cmdline>
J2VwaWtfcHl0aG9uJywgJy1waCcsICc3LjAnLCAnLXRuJywgJzgnLCAnLW1hJywgJzIwMCcsICctbWV0YWxfYmluZGluZycsICctaW1hZScsICc8aW5maWxlLm1hZT4nLCAnLW9tYWUnLCAnPG91dGZpbGUubWFlPic=

> <r_lp_tautomer_probability>
1

> <r_epik_Ionization_Penalty>
0.000502654

> <r_epik_Ionization_Penalty_Charging>
0

> <r_epik_Ionization_Penalty_Neutral>
0.000502654

> <r_epik_State_Penalty>
-0

> <r_epik_Charging_Adjusted_Penalty>
0

> <i_epik_Tot_Q>
0

> <i_epik_Tot_abs_Q>
0

> <r_epik_Metal_State_Penalty>
-0

> <b_epik_Metal_Only>
0

> <s_lp_Force_Field>
OPLS_2005

> <r_lp_Energy>
43.6408

> <b_lp_Chiralities_Consistent>
1

> <s_lp_Variant>
AV-unprocessed.smi:897-4

> <Gold.Version>
5.8.1

> <Gold.Id.Protein>
6NUR|6NUR_protein|mol2

> <Gold.PLP.Fitness>
44.8753

> <Gold.PLP.PLP>
-42.5529

> <Gold.PLP.part.hbond>
-2.2201

> <Gold.PLP.part.metal>
0.0000

> <Gold.PLP.part.buried>
-3.6012

> <Gold.PLP.part.nonpolar>
-37.2521

> <Gold.PLP.part.repulsive>
0.5646

> <Gold.PLP.ligand.clash>
0.0000

> <Gold.PLP.ligand.torsion>
0.3489

> <Gold.PLP.Chemscore.Hbond>
1.0000

> <Gold.PLP.Chemscore.CHOScore>
0.0000

> <Gold.PLP.Chemscore.Metal>
0.0000

> <Gold.Chemscore.Hbonds>
donor molecule, donor type, donor heavy atom, donor atom, acceptor molecule, acceptor atom, score
      L1  H    10    26       P1  8028  1.00

> <Gold.PLP.Chemscore.Internal.Correction>
0.0202

> <Gold.Rescore>
     Score         DG    S(hbond)    S(metal)    S(lipo)     H(rot)  DE(clash)    DE(int)     intcor
     18.01     -18.83       0.99        0.00     107.69       1.00       0.44       0.38       ----

> <Gold.Chemscore.Fitness>
18.0095

> <Gold.Chemscore.DG>
-18.8335

> <Gold.Chemscore.ZeroCoef>
-5.4800

> <Gold.Chemscore.Hbond>
0.9920

> <Gold.Chemscore.Metal>
0.0000

> <Gold.Chemscore.Lipo>
107.6934

> <Gold.Chemscore.Internal_Hbond>
0.0000

> <Gold.Chemscore.DEClash>
0.4408

> <Gold.Chemscore.DEInternal>
0.3831

> <Gold.Chemscore.Rot>
1.0000

> <Gold.Chemscore.Internal.Correction>
   9.000000E+99

> <Gold.Chemscore.Hbonds>
donor molecule, donor type, donor heavy atom, donor atom, acceptor molecule, acceptor atom, score
      L1  H    10    26       P1  8028  1.00

> <Gold.Chemscore.Hbond.Weighted>
-3.3133

> <Gold.Chemscore.Metal.Weighted>
-0.0000

> <Gold.Chemscore.Lipo.Weighted>
-12.6001

> <Gold.Chemscore.Internal_Hbond.Weighted>
0.0000

> <Gold.Chemscore.DEClash.Weighted>
0.4408

> <Gold.Chemscore.DEInternal.Weighted>
0.3831

> <Gold.Chemscore.Rot.Weighted>
2.5600

> <Gold.Chemscore.Internal.Correction.Weighted>
   9.000000E+99

> <Gold.Protein.RotatedTorsions>
[ 6907 6896 6895 6894 ] final   22.43 input  -60.11 | X-H torsion
[ 7974 7965 7964 7962 ] final  166.07 input  175.53 | X-H torsion
[ 8008 7997 7996 7995 ] final   34.30 input   59.86 | X-H torsion
[ 10167 10162 10161 10158 ] final -102.27 input  -65.29 | X-H torsion
[ 10718 10713 10712 10709 ] final   51.16 input   66.30 | X-H torsion
[ 10763 10752 10751 10750 ] final  -39.08 input  -60.55 | X-H torsion
[ 11005 11000 10999 10996 ] final   32.08 input  -57.11 | X-H torsion

> <Gold.Protein.ActiveResidues>
 VAL166  LYS551  ARG553  GLY616  TRP617  ASP618  TYR619  PRO620  LYS621  CYS622 
 ASP623  PHE694  ASN695  SER759  ASP760  ASP761  ALA762  ILE779  LEU786  VAL792 
 PHE793  MET794  SER795  GLU796  ALA797  LYS798  CYS799  TRP800  GLU811  SER814 

> <Gold.Protein.RotatedAtoms>
  151.9269  135.0273  160.0526 H   0  0  0  0  0  0  0  0  0  0  0  0  # atno 6907 bound_to 6896
  152.2151  133.4936  159.5140 H   0  0  0  0  0  0  0  0  0  0  0  0  # atno 6908 bound_to 6896
  150.6986  134.1332  159.4120 H   0  0  0  0  0  0  0  0  0  0  0  0  # atno 6909 bound_to 6896
  144.7477  139.8562  143.6377 H   0  0  0  0  0  0  0  0  0  0  0  0  # atno 7974 bound_to 7965
  155.1526  140.3276  155.4428 H   0  0  0  0  0  0  0  0  0  0  0  0  # atno 8008 bound_to 7997
  156.2569  140.1974  156.6587 H   0  0  0  0  0  0  0  0  0  0  0  0  # atno 8009 bound_to 7997
  154.6462  140.0564  156.9889 H   0  0  0  0  0  0  0  0  0  0  0  0  # atno 8010 bound_to 7997
  140.2324  143.3597  152.0875 H   0  0  0  0  0  0  0  0  0  0  0  0  # atno 10167 bound_to 10162
  157.4955  130.8403  149.8253 H   0  0  0  0  0  0  0  0  0  0  0  0  # atno 10718 bound_to 10713
  153.9234  135.6780  153.4747 H   0  0  0  0  0  0  0  0  0  0  0  0  # atno 10763 bound_to 10752
  153.1017  135.4825  154.8875 H   0  0  0  0  0  0  0  0  0  0  0  0  # atno 10764 bound_to 10752
  154.7466  135.3174  154.8590 H   0  0  0  0  0  0  0  0  0  0  0  0  # atno 10765 bound_to 10752
  140.2772  134.3015  155.7811 H   0  0  0  0  0  0  0  0  0  0  0  0  # atno 11005 bound_to 11000
  146.1381  139.4431  143.0126 LP  0  0  0  0  0  0  0  0  0  0  0  0  # atno 17320 bound_to 7965
  145.7061  141.0121  143.1478 LP  0  0  0  0  0  0  0  0  0  0  0  0  # atno 17321 bound_to 7965
  139.5105  144.6885  151.5822 LP  0  0  0  0  0  0  0  0  0  0  0  0  # atno 17342 bound_to 10162
  140.6175  143.9321  150.6500 LP  0  0  0  0  0  0  0  0  0  0  0  0  # atno 17343 bound_to 10162
  156.0198  130.3800  150.1998 LP  0  0  0  0  0  0  0  0  0  0  0  0  # atno 17370 bound_to 10713
  157.0187  130.9973  151.3346 LP  0  0  0  0  0  0  0  0  0  0  0  0  # atno 17371 bound_to 10713
  141.2168  133.7503  156.9425 LP  0  0  0  0  0  0  0  0  0  0  0  0  # atno 17394 bound_to 11000
  140.1318  134.9351  157.2347 LP  0  0  0  0  0  0  0  0  0  0  0  0  # atno 17395 bound_to 11000

$$$$
