AV-unprocessed.smi:1933|AV-procd|sdf|7818|dock5
  -GOLD-   22720 9563D 1   1.00000     0.00000
 Structure written by MMmdl.
 47 49  0  0  0  0  0  0  0  0  1 V2000
  144.8122  136.1293  154.0499 O   0  0  0  0  0  0  0  0  0  0  0  0
  145.9462  136.0478  153.5767 C   0  0  0  0  0  0  0  0  0  0  0  0
  146.9608  136.8387  153.9552 N   0  0  0  0  0  0  0  0  0  0  0  0
  146.8670  137.8820  154.9716 C   0  0  0  0  0  0  0  0  0  0  0  0
  147.8707  137.6817  156.1398 C   0  0  1  0  0  0  0  0  0  0  0  0
  147.8784  136.2246  156.6871 C   0  0  1  0  0  0  0  0  0  0  0  0
  148.5917  135.1346  155.9093 C   0  0  0  0  0  0  0  0  0  0  0  0
  148.6014  134.0064  156.9356 C   0  0  0  0  0  0  0  0  0  0  0  0
  148.7496  134.6475  158.2007 O   0  0  0  0  0  0  0  0  0  0  0  0
  148.4924  136.0454  158.0765 C   0  0  0  0  0  0  0  0  0  0  0  0
  149.2029  138.2746  155.9112 N   0  0  0  0  0  0  0  0  0  0  0  0
  149.9686  137.6970  154.8031 C   0  0  0  0  0  0  0  0  0  0  0  0
  151.3745  138.3123  154.7082 C   0  0  0  0  0  0  0  0  0  0  0  0
  151.2629  139.7231  154.5501 O   0  0  0  0  0  0  0  0  0  0  0  0
  150.5477  140.3423  155.6147 C   0  0  0  0  0  0  0  0  0  0  0  0
  149.1436  139.7235  155.7291 C   0  0  0  0  0  0  0  0  0  0  0  0
  146.3348  135.1727  152.6324 N   0  0  0  0  0  0  0  0  0  0  0  0
  145.5595  134.1641  151.9997 C   0  0  0  0  0  0  0  0  0  0  0  0
  146.2360  132.9449  151.7685 C   0  0  0  0  0  0  0  0  0  0  0  0
  145.5527  131.8792  151.1511 C   0  0  0  0  0  0  0  0  0  0  0  0
  144.2088  132.0604  150.7793 C   0  0  0  0  0  0  0  0  0  0  0  0
  143.6101  133.3060  151.0432 C   0  0  0  0  0  0  0  0  0  0  0  0
  144.2630  134.3283  151.6354 N   0  0  0  0  0  0  0  0  0  0  0  0
  147.8601  136.7087  153.5155 H   0  0  0  0  0  0  0  0  0  0  0  0
  147.0486  138.8371  154.4785 H   0  0  0  0  0  0  0  0  0  0  0  0
  145.8409  137.9197  155.3400 H   0  0  0  0  0  0  0  0  0  0  0  0
  147.4439  138.2386  156.9750 H   0  0  0  0  0  0  0  0  0  0  0  0
  146.8384  135.9079  156.7808 H   0  0  0  0  0  0  0  0  0  0  0  0
  148.0938  134.8632  154.9784 H   0  0  0  0  0  0  0  0  0  0  0  0
  149.6245  135.3977  155.6956 H   0  0  0  0  0  0  0  0  0  0  0  0
  147.6509  133.4714  156.9230 H   0  0  0  0  0  0  0  0  0  0  0  0
  149.3988  133.2846  156.7574 H   0  0  0  0  0  0  0  0  0  0  0  0
  149.4411  136.5763  158.1636 H   0  0  0  0  0  0  0  0  0  0  0  0
  147.8335  136.3993  158.8698 H   0  0  0  0  0  0  0  0  0  0  0  0
  150.0585  136.6198  154.8938 H   0  0  0  0  0  0  0  0  0  0  0  0
  149.4534  137.8780  153.8590 H   0  0  0  0  0  0  0  0  0  0  0  0
  151.9597  138.0813  155.5996 H   0  0  0  0  0  0  0  0  0  0  0  0
  151.9124  137.9001  153.8545 H   0  0  0  0  0  0  0  0  0  0  0  0
  151.0986  140.2212  156.5486 H   0  0  0  0  0  0  0  0  0  0  0  0
  150.4760  141.4126  155.4215 H   0  0  0  0  0  0  0  0  0  0  0  0
  148.5690  139.9668  154.8350 H   0  0  0  0  0  0  0  0  0  0  0  0
  148.6227  140.1843  156.5691 H   0  0  0  0  0  0  0  0  0  0  0  0
  147.2984  135.2282  152.3379 H   0  0  0  0  0  0  0  0  0  0  0  0
  147.2688  132.8222  152.0609 H   0  0  0  0  0  0  0  0  0  0  0  0
  146.0517  130.9393  150.9667 H   0  0  0  0  0  0  0  0  0  0  0  0
  143.6516  131.2664  150.3045 H   0  0  0  0  0  0  0  0  0  0  0  0
  142.5803  133.4864  150.7725 H   0  0  0  0  0  0  0  0  0  0  0  0
  1  2  2  0  0  0  0
  2  3  1  0  0  0  0
  2 17  1  0  0  0  0
  3  4  1  0  0  0  0
  3 24  1  0  0  0  0
  4  5  1  0  0  0  0
  4 25  1  0  0  0  0
  4 26  1  0  0  0  0
  5  6  1  0  0  0  0
  5 11  1  0  0  0  0
  5 27  1  0  0  0  0
  6 10  1  0  0  0  0
  6  7  1  0  0  0  0
  6 28  1  0  0  0  0
  7  8  1  0  0  0  0
  7 29  1  0  0  0  0
  7 30  1  0  0  0  0
  8  9  1  0  0  0  0
  8 31  1  0  0  0  0
  8 32  1  0  0  0  0
  9 10  1  0  0  0  0
 10 33  1  0  0  0  0
 10 34  1  0  0  0  0
 11 16  1  0  0  0  0
 11 12  1  0  0  0  0
 12 13  1  0  0  0  0
 12 35  1  0  0  0  0
 12 36  1  0  0  0  0
 13 14  1  0  0  0  0
 13 37  1  0  0  0  0
 13 38  1  0  0  0  0
 14 15  1  0  0  0  0
 15 16  1  0  0  0  0
 15 39  1  0  0  0  0
 15 40  1  0  0  0  0
 16 41  1  0  0  0  0
 16 42  1  0  0  0  0
 17 18  1  0  0  0  0
 17 43  1  0  0  0  0
 18 23  1  0  0  0  0
 18 19  2  0  0  0  0
 19 20  1  0  0  0  0
 19 44  1  0  0  0  0
 20 21  2  0  0  0  0
 20 45  1  0  0  0  0
 21 22  1  0  0  0  0
 21 46  1  0  0  0  0
 22 23  2  0  0  0  0
 22 47  1  0  0  0  0
M  END
> <s_m_source_file>
AV-unprocessed.smi

> <i_m_source_file_index>
1933

> <i_lp_mmshare_version>
43012

> <i_f3d_flags>
0

> <s_epik_input>
bjFbY0hdW2NIXVtjSF1bY0hdYzFbTkhdQyg9TylbTkhdW0NIMl1bQ0BIXShbQ0BASF0yW0NIMl1bQ0gyXU9bQ0gyXTIpTjNbQ0gyXVtDSDJdT1tDSDJdW0NIMl0z

> <s_epik_cmdline>
J2VwaWtfcHl0aG9uJywgJy1waCcsICc3LjAnLCAnLXRuJywgJzgnLCAnLW1hJywgJzIwMCcsICctbWV0YWxfYmluZGluZycsICctaW1hZScsICc8aW5maWxlLm1hZT4nLCAnLW9tYWUnLCAnPG91dGZpbGUubWFlPic=

> <r_epik_Ionization_Penalty>
0.125062

> <r_epik_Ionization_Penalty_Charging>
0

> <r_epik_Ionization_Penalty_Neutral>
0.125062

> <r_epik_State_Penalty>
0.114484

> <r_epik_Charging_Adjusted_Penalty>
0.114484

> <i_epik_Tot_Q>
0

> <i_epik_Tot_abs_Q>
0

> <r_epik_Metal_State_Penalty>
0.114484

> <b_epik_Metal_Only>
0

> <s_lp_Force_Field>
OPLS_2005

> <r_lp_Energy>
56.0331

> <b_lp_Chiralities_Consistent>
1

> <s_lp_Variant>
AV-unprocessed.smi:1933-4

> <Gold.Version>
5.8.1

> <Gold.Id.Protein>
6NUR|6NUR_protein|mol2

> <Gold.PLP.Fitness>
42.2975

> <Gold.PLP.PLP>
-28.6540

> <Gold.PLP.part.hbond>
-3.9728

> <Gold.PLP.part.metal>
0.0000

> <Gold.PLP.part.buried>
-5.4851

> <Gold.PLP.part.nonpolar>
-20.5171

> <Gold.PLP.part.repulsive>
0.2717

> <Gold.PLP.ligand.clash>
0.0000

> <Gold.PLP.ligand.torsion>
0.7294

> <Gold.PLP.Chemscore.Hbond>
3.9440

> <Gold.PLP.Chemscore.CHOScore>
1.0000

> <Gold.PLP.Chemscore.Metal>
0.0000

> <Gold.Chemscore.Hbonds>
donor molecule, donor type, donor heavy atom, donor atom, acceptor molecule, acceptor atom, score
      L1  H     3    24       P1  7948  0.97
      L1  H    17    43       P1  7948  1.00
      P1  H  6896  6907       L1     9  0.29
      P1  H  7989  7998       L1    14  1.00
      L1  C    22    47       P1 10186  1.00

> <Gold.PLP.Chemscore.Internal.Correction>
0.2704

> <Gold.Rescore>
     Score         DG    S(hbond)    S(metal)    S(lipo)     H(rot)  DE(clash)    DE(int)     intcor
     19.51     -21.16       3.69        0.00      66.22       1.72       0.00       1.65       ----

> <Gold.Chemscore.Fitness>
19.5064

> <Gold.Chemscore.DG>
-21.1568

> <Gold.Chemscore.ZeroCoef>
-5.4800

> <Gold.Chemscore.Hbond>
3.6893

> <Gold.Chemscore.Metal>
0.0000

> <Gold.Chemscore.Lipo>
66.2192

> <Gold.Chemscore.Internal_Hbond>
0.0000

> <Gold.Chemscore.DEClash>
0.0048

> <Gold.Chemscore.DEInternal>
1.6456

> <Gold.Chemscore.Rot>
1.7161

> <Gold.Chemscore.Internal.Correction>
   9.000000E+99

> <Gold.Chemscore.Hbonds>
donor molecule, donor type, donor heavy atom, donor atom, acceptor molecule, acceptor atom, score
      L1  H     3    24       P1  7948  0.87
      L1  H    17    43       P1  7948  0.96
      P1  H  6896  6907       L1     9  0.24
      P1  H  7989  7998       L1    14  0.64

> <Gold.Chemscore.Hbond.Weighted>
-12.3224

> <Gold.Chemscore.Metal.Weighted>
-0.0000

> <Gold.Chemscore.Lipo.Weighted>
-7.7476

> <Gold.Chemscore.Internal_Hbond.Weighted>
0.0000

> <Gold.Chemscore.DEClash.Weighted>
0.0048

> <Gold.Chemscore.DEInternal.Weighted>
1.6456

> <Gold.Chemscore.Rot.Weighted>
4.3932

> <Gold.Chemscore.Internal.Correction.Weighted>
   9.000000E+99

> <Gold.Protein.RotatedTorsions>
[ 6907 6896 6895 6894 ] final -104.93 input  -60.11 | X-H torsion
[ 7974 7965 7964 7962 ] final -110.30 input  175.53 | X-H torsion
[ 8008 7997 7996 7995 ] final   71.99 input   59.86 | X-H torsion
[ 10167 10162 10161 10158 ] final   86.93 input  -65.29 | X-H torsion
[ 10718 10713 10712 10709 ] final   80.33 input   66.30 | X-H torsion
[ 10763 10752 10751 10750 ] final -105.77 input  -60.55 | X-H torsion
[ 11005 11000 10999 10996 ] final  -43.80 input  -57.11 | X-H torsion

> <Gold.Protein.ActiveResidues>
 VAL166  LYS551  ARG553  GLY616  TRP617  ASP618  TYR619  PRO620  LYS621  CYS622 
 ASP623  PHE694  ASN695  SER759  ASP760  ASP761  ALA762  ILE779  LEU786  VAL792 
 PHE793  MET794  SER795  GLU796  ALA797  LYS798  CYS799  TRP800  GLU811  SER814 

> <Gold.Protein.RotatedAtoms>
  150.7311  134.0204  159.3698 H   0  0  0  0  0  0  0  0  0  0  0  0  # atno 6907 bound_to 6896
  151.8168  135.0662  160.0429 H   0  0  0  0  0  0  0  0  0  0  0  0  # atno 6908 bound_to 6896
  152.3033  133.5641  159.5669 H   0  0  0  0  0  0  0  0  0  0  0  0  # atno 6909 bound_to 6896
  145.1699  140.8920  143.3541 H   0  0  0  0  0  0  0  0  0  0  0  0  # atno 7974 bound_to 7965
  155.7621  140.3486  155.5203 H   0  0  0  0  0  0  0  0  0  0  0  0  # atno 8008 bound_to 7997
  155.8904  140.1017  157.1444 H   0  0  0  0  0  0  0  0  0  0  0  0  # atno 8009 bound_to 7997
  154.4033  140.1305  156.4295 H   0  0  0  0  0  0  0  0  0  0  0  0  # atno 8010 bound_to 7997
  139.8825  144.6431  150.8827 H   0  0  0  0  0  0  0  0  0  0  0  0  # atno 10167 bound_to 10162
  157.6803  130.9954  150.2063 H   0  0  0  0  0  0  0  0  0  0  0  0  # atno 10718 bound_to 10713
  154.7968  135.4737  154.0181 H   0  0  0  0  0  0  0  0  0  0  0  0  # atno 10763 bound_to 10752
  153.1717  135.6826  153.8606 H   0  0  0  0  0  0  0  0  0  0  0  0  # atno 10764 bound_to 10752
  153.8186  135.3207  155.3386 H   0  0  0  0  0  0  0  0  0  0  0  0  # atno 10765 bound_to 10752
  141.0408  133.6781  156.2784 H   0  0  0  0  0  0  0  0  0  0  0  0  # atno 11005 bound_to 11000
  145.0243  139.3396  143.6056 LP  0  0  0  0  0  0  0  0  0  0  0  0  # atno 17320 bound_to 7965
  146.3470  139.9556  142.8723 LP  0  0  0  0  0  0  0  0  0  0  0  0  # atno 17321 bound_to 7965
  140.7742  143.3574  151.1895 LP  0  0  0  0  0  0  0  0  0  0  0  0  # atno 17342 bound_to 10162
  139.7182  143.9265  152.2975 LP  0  0  0  0  0  0  0  0  0  0  0  0  # atno 17343 bound_to 10162
  156.2744  130.3725  149.7999 LP  0  0  0  0  0  0  0  0  0  0  0  0  # atno 17370 bound_to 10713
  156.5706  130.8423  151.3355 LP  0  0  0  0  0  0  0  0  0  0  0  0  # atno 17371 bound_to 10713
  140.6237  134.5335  157.5551 LP  0  0  0  0  0  0  0  0  0  0  0  0  # atno 17394 bound_to 11000
  139.9274  134.8029  156.1028 LP  0  0  0  0  0  0  0  0  0  0  0  0  # atno 17395 bound_to 11000

$$$$
