AV-unprocessed.smi:560|AV-procd|sdf|2932|dock10
  -GOLD-   2262023423D 1   1.00000     0.00000
 Structure written by MMmdl.
 41 42  0  0  0  0  0  0  0  0  3 V2000
  149.8307  142.0617  157.3564 C   0  0  0  0  0  0  0  0  0  0  0  0
  150.0453  141.5586  155.9170 C   0  0  2  0  0  0  0  0  0  0  0  0
  148.7375  141.1226  155.2388 C   0  0  0  0  0  0  0  0  0  0  0  0
  147.7946  141.9073  155.1273 O   0  0  0  0  0  0  0  0  0  0  0  0
  148.6929  139.8557  154.7968 N   0  0  0  0  0  0  0  0  0  0  0  0
  147.5408  139.2247  154.1603 C   0  0  2  0  0  0  0  0  0  0  0  0
  147.4406  137.7566  154.6040 C   0  0  0  0  0  0  0  0  0  0  0  0
  146.2836  137.0375  153.8909 C   0  0  0  0  0  0  0  0  0  0  0  0
  146.4253  137.1285  152.4127 N   0  3  1  0  0  0  0  0  0  0  0  0
  145.4066  136.3381  151.6752 C   0  0  0  0  0  0  0  0  0  0  0  0
  145.5493  134.8453  151.9896 C   0  0  0  0  0  0  0  0  0  0  0  0
  146.7736  134.3703  151.6840 N   0  5  0  0  0  0  0  0  0  0  0  0
  144.5992  134.2321  152.4705 O   0  0  0  0  0  0  0  0  0  0  0  0
  146.4881  138.5389  151.9541 C   0  0  0  0  0  0  0  0  0  0  0  0
  147.6491  139.2904  152.6257 C   0  0  0  0  0  0  0  0  0  0  0  0
  151.0151  140.4720  155.8807 N   0  0  0  0  0  0  0  0  0  0  0  0
  151.6953  139.8822  156.9288 C   0  0  0  0  0  0  0  0  0  0  0  0
  152.4871  138.9022  156.4029 C   0  0  0  0  0  0  0  0  0  0  0  0
  152.2223  138.9674  155.0068 C   0  0  0  0  0  0  0  0  0  0  0  0
  151.3409  139.9048  154.6979 N   0  0  0  0  0  0  0  0  0  0  0  0
  149.1122  142.8817  157.3855 H   0  0  0  0  0  0  0  0  0  0  0  0
  150.7648  142.4311  157.7805 H   0  0  0  0  0  0  0  0  0  0  0  0
  149.4616  141.2726  158.0127 H   0  0  0  0  0  0  0  0  0  0  0  0
  150.4481  142.3934  155.3397 H   0  0  0  0  0  0  0  0  0  0  0  0
  149.5120  139.2801  154.9327 H   0  0  0  0  0  0  0  0  0  0  0  0
  146.6334  139.7426  154.4780 H   0  0  0  0  0  0  0  0  0  0  0  0
  148.3755  137.2370  154.3878 H   0  0  0  0  0  0  0  0  0  0  0  0
  147.2986  137.6999  155.6839 H   0  0  0  0  0  0  0  0  0  0  0  0
  146.2677  135.9934  154.2047 H   0  0  0  0  0  0  0  0  0  0  0  0
  145.3295  137.4716  154.1935 H   0  0  0  0  0  0  0  0  0  0  0  0
  144.4024  136.6887  151.9192 H   0  0  0  0  0  0  0  0  0  0  0  0
  145.5273  136.4695  150.5982 H   0  0  0  0  0  0  0  0  0  0  0  0
  147.6025  134.8995  151.9790 H   0  0  0  0  0  0  0  0  0  0  0  0
  146.6237  138.5684  150.8723 H   0  0  0  0  0  0  0  0  0  0  0  0
  145.5405  139.0353  152.1698 H   0  0  0  0  0  0  0  0  0  0  0  0
  147.6533  140.3278  152.2893 H   0  0  0  0  0  0  0  0  0  0  0  0
  148.5965  138.8569  152.3018 H   0  0  0  0  0  0  0  0  0  0  0  0
  151.5590  140.2055  157.9505 H   0  0  0  0  0  0  0  0  0  0  0  0
  153.1542  138.2404  156.9347 H   0  0  0  0  0  0  0  0  0  0  0  0
  152.6409  138.3648  154.2142 H   0  0  0  0  0  0  0  0  0  0  0  0
  147.3136  136.7097  152.1744 H   0  0  0  0  0  0  0  0  0  0  0  0
  1  2  1  0  0  0  0
  1 21  1  0  0  0  0
  1 22  1  0  0  0  0
  1 23  1  0  0  0  0
  2  3  1  0  0  0  0
  2 16  1  0  0  0  0
  2 24  1  0  0  0  0
  3  4  2  0  0  0  0
  3  5  1  0  0  0  0
  5  6  1  0  0  0  0
  5 25  1  0  0  0  0
  6 15  1  0  0  0  0
  6  7  1  0  0  0  0
  6 26  1  0  0  0  0
  7  8  1  0  0  0  0
  7 27  1  0  0  0  0
  7 28  1  0  0  0  0
  8  9  1  0  0  0  0
  8 29  1  0  0  0  0
  8 30  1  0  0  0  0
  9 10  1  0  0  0  0
  9 14  1  0  0  0  0
  9 41  1  0  0  0  0
 10 11  1  0  0  0  0
 10 31  1  0  0  0  0
 10 32  1  0  0  0  0
 11 12  1  0  0  0  0
 11 13  2  0  0  0  0
 12 33  1  0  0  0  0
 14 15  1  0  0  0  0
 14 34  1  0  0  0  0
 14 35  1  0  0  0  0
 15 36  1  0  0  0  0
 15 37  1  0  0  0  0
 16 20  1  0  0  0  0
 16 17  1  0  0  0  0
 17 18  2  0  0  0  0
 17 38  1  0  0  0  0
 18 19  1  0  0  0  0
 18 39  1  0  0  0  0
 19 20  2  0  0  0  0
 19 40  1  0  0  0  0
M  CHG  1   9   1
M  CHG  1  12  -1
M  END
> <s_m_source_file>
AV-unprocessed.smi

> <i_m_source_file_index>
560

> <i_lp_mmshare_version>
43012

> <i_f3d_flags>
0

> <s_epik_input>
bjFbY0hdW2NIXVtjSF1uMVtDQEhdKFtDSDNdKUMoPU8pW05IXVtDSF0yW0NIMl1bQ0gyXU4oW0NIMl1bQ0gyXTIpW0NIMl1DKD1PKVtOSDJd

> <s_epik_cmdline>
J2VwaWtfcHl0aG9uJywgJy1waCcsICc3LjAnLCAnLXRuJywgJzgnLCAnLW1hJywgJzIwMCcsICctbWV0YWxfYmluZGluZycsICctaW1hZScsICc8aW5maWxlLm1hZT4nLCAnLW9tYWUnLCAnPG91dGZpbGUubWFlPic=

> <r_lp_tautomer_probability>
1

> <r_epik_Ionization_Penalty>
5.71084

> <r_epik_Ionization_Penalty_Charging>
5.71081

> <r_epik_Ionization_Penalty_Neutral>
3.04611e-05

> <r_epik_State_Penalty>
6.71277

> <r_epik_Charging_Adjusted_Penalty>
12.4236

> <i_epik_Tot_Q>
0

> <i_epik_Tot_abs_Q>
2

> <r_epik_Metal_State_Penalty>
2.67562

> <b_epik_Metal_Only>
1

> <s_lp_Force_Field>
OPLS_2005

> <r_lp_Energy>
10.6989

> <b_lp_Chiralities_Consistent>
1

> <s_lp_Variant>
AV-unprocessed.smi:560-7

> <Gold.Version>
5.8.1

> <Gold.Id.Protein>
6NUR|6NUR_protein|mol2

> <Gold.PLP.Fitness>
40.7519

> <Gold.PLP.PLP>
-29.4795

> <Gold.PLP.part.hbond>
-3.0000

> <Gold.PLP.part.metal>
0.0000

> <Gold.PLP.part.buried>
-1.2022

> <Gold.PLP.part.nonpolar>
-27.2500

> <Gold.PLP.part.repulsive>
1.0332

> <Gold.PLP.ligand.clash>
0.0000

> <Gold.PLP.ligand.torsion>
0.4025

> <Gold.PLP.Chemscore.Hbond>
4.0000

> <Gold.PLP.Chemscore.CHOScore>
0.0000

> <Gold.PLP.Chemscore.Metal>
0.0000

> <Gold.Chemscore.Hbonds>
donor molecule, donor type, donor heavy atom, donor atom, acceptor molecule, acceptor atom, score
      L1  H     9    41       P1  7948  2.00
      L1  H    12    33       P1  7948  1.00
      P1  H  7989  7998       L1    20  1.00

> <Gold.PLP.Chemscore.Internal.Correction>
0.0774

> <Gold.Rescore>
     Score         DG    S(hbond)    S(metal)    S(lipo)     H(rot)  DE(clash)    DE(int)     intcor
     12.56     -16.14       2.82        0.00      64.63       2.47       1.72       1.86       ----

> <Gold.Chemscore.Fitness>
12.5632

> <Gold.Chemscore.DG>
-16.1435

> <Gold.Chemscore.ZeroCoef>
-5.4800

> <Gold.Chemscore.Hbond>
2.8245

> <Gold.Chemscore.Metal>
0.0000

> <Gold.Chemscore.Lipo>
64.6273

> <Gold.Chemscore.Internal_Hbond>
0.0000

> <Gold.Chemscore.DEClash>
1.7165

> <Gold.Chemscore.DEInternal>
1.8639

> <Gold.Chemscore.Rot>
2.4734

> <Gold.Chemscore.Internal.Correction>
   9.000000E+99

> <Gold.Chemscore.Hbonds>
donor molecule, donor type, donor heavy atom, donor atom, acceptor molecule, acceptor atom, score
      L1  H     9    41       P1  7948  1.00
      L1  H    12    33       P1  7948  0.77
      P1  H  7989  7998       L1    20  0.88

> <Gold.Chemscore.Hbond.Weighted>
-9.4339

> <Gold.Chemscore.Metal.Weighted>
-0.0000

> <Gold.Chemscore.Lipo.Weighted>
-7.5614

> <Gold.Chemscore.Internal_Hbond.Weighted>
0.0000

> <Gold.Chemscore.DEClash.Weighted>
1.7165

> <Gold.Chemscore.DEInternal.Weighted>
1.8639

> <Gold.Chemscore.Rot.Weighted>
6.3318

> <Gold.Chemscore.Internal.Correction.Weighted>
   9.000000E+99

> <Gold.Protein.RotatedTorsions>
[ 6907 6896 6895 6894 ] final  -30.04 input  -60.11 | X-H torsion
[ 7974 7965 7964 7962 ] final   83.96 input  175.53 | X-H torsion
[ 8008 7997 7996 7995 ] final  138.50 input   59.86 | X-H torsion
[ 10167 10162 10161 10158 ] final  -33.13 input  -65.29 | X-H torsion
[ 10718 10713 10712 10709 ] final   65.00 input   66.30 | X-H torsion
[ 10763 10752 10751 10750 ] final   60.57 input  -60.55 | X-H torsion
[ 11005 11000 10999 10996 ] final  -75.48 input  -57.11 | X-H torsion

> <Gold.Protein.ActiveResidues>
 VAL166  LYS551  ARG553  GLY616  TRP617  ASP618  TYR619  PRO620  LYS621  CYS622 
 ASP623  PHE694  ASN695  SER759  ASP760  ASP761  ALA762  ILE779  LEU786  VAL792 
 PHE793  MET794  SER795  GLU796  ALA797  LYS798  CYS799  TRP800  GLU811  SER814 

> <Gold.Protein.RotatedAtoms>
  151.1110  135.0027  159.8493 H   0  0  0  0  0  0  0  0  0  0  0  0  # atno 6907 bound_to 6896
  152.5443  134.1836  159.8655 H   0  0  0  0  0  0  0  0  0  0  0  0  # atno 6908 bound_to 6896
  151.1886  133.4636  159.2628 H   0  0  0  0  0  0  0  0  0  0  0  0  # atno 6909 bound_to 6896
  145.6051  139.2359  143.2224 H   0  0  0  0  0  0  0  0  0  0  0  0  # atno 7974 bound_to 7965
  156.2997  140.2392  156.4084 H   0  0  0  0  0  0  0  0  0  0  0  0  # atno 8008 bound_to 7997
  154.8463  140.0426  157.1595 H   0  0  0  0  0  0  0  0  0  0  0  0  # atno 8009 bound_to 7997
  154.9047  140.2982  155.5302 H   0  0  0  0  0  0  0  0  0  0  0  0  # atno 8010 bound_to 7997
  140.7210  143.3643  151.1901 H   0  0  0  0  0  0  0  0  0  0  0  0  # atno 10167 bound_to 10162
  157.6077  130.9190  149.9919 H   0  0  0  0  0  0  0  0  0  0  0  0  # atno 10718 bound_to 10713
  152.9925  135.5531  154.5896 H   0  0  0  0  0  0  0  0  0  0  0  0  # atno 10763 bound_to 10752
  154.5260  135.2810  155.1224 H   0  0  0  0  0  0  0  0  0  0  0  0  # atno 10764 bound_to 10752
  154.2558  135.6390  153.5309 H   0  0  0  0  0  0  0  0  0  0  0  0  # atno 10765 bound_to 10752
  141.1646  133.6948  156.7524 H   0  0  0  0  0  0  0  0  0  0  0  0  # atno 11005 bound_to 11000
  146.1547  140.6875  142.9305 LP  0  0  0  0  0  0  0  0  0  0  0  0  # atno 17320 bound_to 7965
  144.7293  140.4623  143.6949 LP  0  0  0  0  0  0  0  0  0  0  0  0  # atno 17321 bound_to 7965
  139.7202  143.9236  152.2982 LP  0  0  0  0  0  0  0  0  0  0  0  0  # atno 17342 bound_to 10162
  139.8990  144.6922  150.8686 LP  0  0  0  0  0  0  0  0  0  0  0  0  # atno 17343 bound_to 10162
  156.1169  130.3647  149.9953 LP  0  0  0  0  0  0  0  0  0  0  0  0  # atno 17370 bound_to 10713
  156.8041  130.9301  151.3645 LP  0  0  0  0  0  0  0  0  0  0  0  0  # atno 17371 bound_to 10713
  140.2594  134.8478  157.3744 LP  0  0  0  0  0  0  0  0  0  0  0  0  # atno 17394 bound_to 11000
  140.1625  134.4710  155.7885 LP  0  0  0  0  0  0  0  0  0  0  0  0  # atno 17395 bound_to 11000

$$$$
