AV-unprocessed.smi:2528|AV-procd|sdf|9959|dock10
  -GOLD-   2272014 03D 1   1.00000     0.00000
 Structure written by MMmdl.
 43 45  0  0  0  0  0  0  0  0  1 V2000
  147.8741  138.0153  158.6463 O   0  0  0  0  0  0  0  0  0  0  0  0
  148.8726  137.4724  159.1208 C   0  0  0  0  0  0  0  0  0  0  0  0
  150.1038  137.6161  158.6103 N   0  0  0  0  0  0  0  0  0  0  0  0
  150.4346  138.4128  157.4337 C   0  0  0  0  0  0  0  0  0  0  0  0
  150.3514  139.9199  157.7275 C   0  0  1  0  0  0  0  0  0  0  0  0
  151.3576  140.3519  158.8104 C   0  0  0  0  0  0  0  0  0  0  0  0
  151.3311  141.7920  159.0336 N   0  0  0  0  0  0  0  0  0  0  0  0
  152.2979  142.1898  160.0556 C   0  0  0  0  0  0  0  0  0  0  0  0
  152.2638  143.7004  160.3367 C   0  0  0  0  0  0  0  0  0  0  0  0
  152.5066  144.4886  159.0417 C   0  0  0  0  0  0  0  0  0  0  0  0
  151.5248  144.0288  157.9529 C   0  0  0  0  0  0  0  0  0  0  0  0
  151.5768  142.4975  157.7721 C   0  0  2  0  0  0  0  0  0  0  0  0
  150.5807  142.0441  156.6855 C   0  0  0  0  0  0  0  0  0  0  0  0
  150.6460  140.6308  156.5275 O   0  0  0  0  0  0  0  0  0  0  0  0
  148.8832  136.6657  160.1965 N   0  0  0  0  0  0  0  0  0  0  0  0
  147.7949  136.3030  161.0342 C   0  0  0  0  0  0  0  0  0  0  0  0
  147.8132  134.9664  161.4936 C   0  0  0  0  0  0  0  0  0  0  0  0
  146.7839  134.5097  162.3394 C   0  0  0  0  0  0  0  0  0  0  0  0
  145.7603  135.4023  162.7043 C   0  0  0  0  0  0  0  0  0  0  0  0
  145.8156  136.7153  162.2015 C   0  0  0  0  0  0  0  0  0  0  0  0
  146.8014  137.1553  161.3911 N   0  0  0  0  0  0  0  0  0  0  0  0
  150.8670  137.1298  159.0575 H   0  0  0  0  0  0  0  0  0  0  0  0
  151.4321  138.1500  157.0776 H   0  0  0  0  0  0  0  0  0  0  0  0
  149.7418  138.1491  156.6341 H   0  0  0  0  0  0  0  0  0  0  0  0
  149.3413  140.1716  158.0565 H   0  0  0  0  0  0  0  0  0  0  0  0
  151.1325  139.8327  159.7428 H   0  0  0  0  0  0  0  0  0  0  0  0
  152.3620  140.0425  158.5163 H   0  0  0  0  0  0  0  0  0  0  0  0
  152.0942  141.6515  160.9819 H   0  0  0  0  0  0  0  0  0  0  0  0
  153.3037  141.9013  159.7459 H   0  0  0  0  0  0  0  0  0  0  0  0
  151.2954  143.9733  160.7580 H   0  0  0  0  0  0  0  0  0  0  0  0
  153.0143  143.9618  161.0830 H   0  0  0  0  0  0  0  0  0  0  0  0
  152.3991  145.5585  159.2222 H   0  0  0  0  0  0  0  0  0  0  0  0
  153.5309  144.3290  158.7026 H   0  0  0  0  0  0  0  0  0  0  0  0
  150.5132  144.3344  158.2239 H   0  0  0  0  0  0  0  0  0  0  0  0
  151.7584  144.5279  157.0120 H   0  0  0  0  0  0  0  0  0  0  0  0
  152.5784  142.2394  157.4228 H   0  0  0  0  0  0  0  0  0  0  0  0
  149.5613  142.3379  156.9413 H   0  0  0  0  0  0  0  0  0  0  0  0
  150.8182  142.5131  155.7304 H   0  0  0  0  0  0  0  0  0  0  0  0
  149.7782  136.2785  160.4561 H   0  0  0  0  0  0  0  0  0  0  0  0
  148.6081  134.2939  161.2047 H   0  0  0  0  0  0  0  0  0  0  0  0
  146.7814  133.4926  162.7026 H   0  0  0  0  0  0  0  0  0  0  0  0
  144.9550  135.0895  163.3524 H   0  0  0  0  0  0  0  0  0  0  0  0
  145.0491  137.4316  162.4576 H   0  0  0  0  0  0  0  0  0  0  0  0
  1  2  2  0  0  0  0
  2  3  1  0  0  0  0
  2 15  1  0  0  0  0
  3  4  1  0  0  0  0
  3 22  1  0  0  0  0
  4  5  1  0  0  0  0
  4 23  1  0  0  0  0
  4 24  1  0  0  0  0
  5 14  1  0  0  0  0
  5  6  1  0  0  0  0
  5 25  1  0  0  0  0
  6  7  1  0  0  0  0
  6 26  1  0  0  0  0
  6 27  1  0  0  0  0
  7 12  1  0  0  0  0
  7  8  1  0  0  0  0
  8  9  1  0  0  0  0
  8 28  1  0  0  0  0
  8 29  1  0  0  0  0
  9 10  1  0  0  0  0
  9 30  1  0  0  0  0
  9 31  1  0  0  0  0
 10 11  1  0  0  0  0
 10 32  1  0  0  0  0
 10 33  1  0  0  0  0
 11 12  1  0  0  0  0
 11 34  1  0  0  0  0
 11 35  1  0  0  0  0
 12 13  1  0  0  0  0
 12 36  1  0  0  0  0
 13 14  1  0  0  0  0
 13 37  1  0  0  0  0
 13 38  1  0  0  0  0
 15 16  1  0  0  0  0
 15 39  1  0  0  0  0
 16 21  1  0  0  0  0
 16 17  2  0  0  0  0
 17 18  1  0  0  0  0
 17 40  1  0  0  0  0
 18 19  2  0  0  0  0
 18 41  1  0  0  0  0
 19 20  1  0  0  0  0
 19 42  1  0  0  0  0
 20 21  2  0  0  0  0
 20 43  1  0  0  0  0
M  END
> <s_m_source_file>
AV-unprocessed.smi

> <i_m_source_file_index>
2528

> <i_lp_mmshare_version>
43012

> <i_f3d_flags>
0

> <s_epik_input>
bjFbY0hdW2NIXVtjSF1bY0hdYzFbTkhdQyg9TylbTkhdW0NIMl1bQ0BIXShbQ0gyXTIpT1tDSDJdW0NAQEhdKE4yMylbQ0gyXVtDSDJdW0NIMl1bQ0gyXTM=

> <s_epik_cmdline>
J2VwaWtfcHl0aG9uJywgJy1waCcsICc3LjAnLCAnLXRuJywgJzgnLCAnLW1hJywgJzIwMCcsICctbWV0YWxfYmluZGluZycsICctaW1hZScsICc8aW5maWxlLm1hZT4nLCAnLW9tYWUnLCAnPG91dGZpbGUubWFlPic=

> <r_epik_Ionization_Penalty>
1.14192

> <r_epik_Ionization_Penalty_Charging>
0

> <r_epik_Ionization_Penalty_Neutral>
1.14192

> <r_epik_State_Penalty>
1.20248

> <r_epik_Charging_Adjusted_Penalty>
1.20248

> <i_epik_Tot_Q>
0

> <i_epik_Tot_abs_Q>
0

> <r_epik_Metal_State_Penalty>
1.20248

> <b_epik_Metal_Only>
0

> <s_lp_Force_Field>
OPLS_2005

> <r_lp_Energy>
35.0124

> <b_lp_Chiralities_Consistent>
1

> <s_lp_Variant>
AV-unprocessed.smi:2528-12

> <Gold.Version>
5.8.1

> <Gold.Id.Protein>
6NUR|6NUR_protein|mol2

> <Gold.PLP.Fitness>
42.7826

> <Gold.PLP.PLP>
-40.4858

> <Gold.PLP.part.hbond>
-1.7444

> <Gold.PLP.part.metal>
0.0000

> <Gold.PLP.part.buried>
-7.0863

> <Gold.PLP.part.nonpolar>
-33.4693

> <Gold.PLP.part.repulsive>
0.4199

> <Gold.PLP.ligand.clash>
0.0000

> <Gold.PLP.ligand.torsion>
0.3518

> <Gold.PLP.Chemscore.Hbond>
1.0000

> <Gold.PLP.Chemscore.CHOScore>
0.0000

> <Gold.PLP.Chemscore.Metal>
0.0000

> <Gold.Chemscore.Hbonds>
donor molecule, donor type, donor heavy atom, donor atom, acceptor molecule, acceptor atom, score
      P1  H  6934  6947       L1    21  1.00

> <Gold.PLP.Chemscore.Internal.Correction>
0.0004

> <Gold.Rescore>
     Score         DG    S(hbond)    S(metal)    S(lipo)     H(rot)  DE(clash)    DE(int)     intcor
     16.91     -18.03       0.88        0.00     109.97       1.27       0.09       1.03       ----

> <Gold.Chemscore.Fitness>
16.9120

> <Gold.Chemscore.DG>
-18.0281

> <Gold.Chemscore.ZeroCoef>
-5.4800

> <Gold.Chemscore.Hbond>
0.8778

> <Gold.Chemscore.Metal>
0.0000

> <Gold.Chemscore.Lipo>
109.9697

> <Gold.Chemscore.Internal_Hbond>
0.0000

> <Gold.Chemscore.DEClash>
0.0876

> <Gold.Chemscore.DEInternal>
1.0285

> <Gold.Chemscore.Rot>
1.2696

> <Gold.Chemscore.Internal.Correction>
   9.000000E+99

> <Gold.Chemscore.Hbonds>
donor molecule, donor type, donor heavy atom, donor atom, acceptor molecule, acceptor atom, score
      P1  H  6934  6947       L1    21  0.86

> <Gold.Chemscore.Hbond.Weighted>
-2.9318

> <Gold.Chemscore.Metal.Weighted>
-0.0000

> <Gold.Chemscore.Lipo.Weighted>
-12.8665

> <Gold.Chemscore.Internal_Hbond.Weighted>
0.0000

> <Gold.Chemscore.DEClash.Weighted>
0.0876

> <Gold.Chemscore.DEInternal.Weighted>
1.0285

> <Gold.Chemscore.Rot.Weighted>
3.2502

> <Gold.Chemscore.Internal.Correction.Weighted>
   9.000000E+99

> <Gold.Protein.RotatedTorsions>
[ 6907 6896 6895 6894 ] final    7.94 input  -60.11 | X-H torsion
[ 7974 7965 7964 7962 ] final   35.78 input  175.53 | X-H torsion
[ 8008 7997 7996 7995 ] final -148.67 input   59.86 | X-H torsion
[ 10167 10162 10161 10158 ] final  172.64 input  -65.29 | X-H torsion
[ 10718 10713 10712 10709 ] final   17.10 input   66.30 | X-H torsion
[ 10763 10752 10751 10750 ] final -152.12 input  -60.55 | X-H torsion
[ 11005 11000 10999 10996 ] final  -54.50 input  -57.11 | X-H torsion

> <Gold.Protein.ActiveResidues>
 VAL166  LYS551  ARG553  GLY616  TRP617  ASP618  TYR619  PRO620  LYS621  CYS622 
 ASP623  PHE694  ASN695  SER759  ASP760  ASP761  ALA762  ILE779  LEU786  VAL792 
 PHE793  MET794  SER795  GLU796  ALA797  LYS798  CYS799  TRP800  GLU811  SER814 

> <Gold.Protein.RotatedAtoms>
  151.6980  135.0935  160.0245 H   0  0  0  0  0  0  0  0  0  0  0  0  # atno 6907 bound_to 6896
  152.3738  133.6450  159.6116 H   0  0  0  0  0  0  0  0  0  0  0  0  # atno 6908 bound_to 6896
  150.7693  133.9143  159.3420 H   0  0  0  0  0  0  0  0  0  0  0  0  # atno 6909 bound_to 6896
  146.1259  139.6100  142.9259 H   0  0  0  0  0  0  0  0  0  0  0  0  # atno 7974 bound_to 7965
  155.5954  140.0657  157.2747 H   0  0  0  0  0  0  0  0  0  0  0  0  # atno 8008 bound_to 7997
  154.4293  140.1828  156.1165 H   0  0  0  0  0  0  0  0  0  0  0  0  # atno 8009 bound_to 7997
  156.0200  140.3318  155.7033 H   0  0  0  0  0  0  0  0  0  0  0  0  # atno 8010 bound_to 7997
  139.5083  144.3350  152.0074 H   0  0  0  0  0  0  0  0  0  0  0  0  # atno 10167 bound_to 10162
  157.0772  130.6373  149.5818 H   0  0  0  0  0  0  0  0  0  0  0  0  # atno 10718 bound_to 10713
  154.8014  135.3243  154.7540 H   0  0  0  0  0  0  0  0  0  0  0  0  # atno 10763 bound_to 10752
  153.8207  135.6888  153.4832 H   0  0  0  0  0  0  0  0  0  0  0  0  # atno 10764 bound_to 10752
  153.1733  135.4614  154.9875 H   0  0  0  0  0  0  0  0  0  0  0  0  # atno 10765 bound_to 10752
  141.1028  133.6616  156.4329 H   0  0  0  0  0  0  0  0  0  0  0  0  # atno 11005 bound_to 11000
  145.5367  141.0423  143.2353 LP  0  0  0  0  0  0  0  0  0  0  0  0  # atno 17320 bound_to 7965
  144.7642  139.6885  143.7222 LP  0  0  0  0  0  0  0  0  0  0  0  0  # atno 17321 bound_to 7965
  140.2789  144.3881  150.6125 LP  0  0  0  0  0  0  0  0  0  0  0  0  # atno 17342 bound_to 10162
  140.6033  143.2167  151.7031 LP  0  0  0  0  0  0  0  0  0  0  0  0  # atno 17343 bound_to 10162
  155.9933  130.4994  150.7377 LP  0  0  0  0  0  0  0  0  0  0  0  0  # atno 17370 bound_to 10713
  157.4829  131.0904  151.0515 LP  0  0  0  0  0  0  0  0  0  0  0  0  # atno 17371 bound_to 10713
  140.4978  134.6515  157.5236 LP  0  0  0  0  0  0  0  0  0  0  0  0  # atno 17394 bound_to 11000
  139.9887  134.7021  155.9728 LP  0  0  0  0  0  0  0  0  0  0  0  0  # atno 17395 bound_to 11000

$$$$
