AV-unprocessed.smi:2451|AV-procd|sdf|9679|dock1
  -GOLD-   2272013313D 1   1.00000     0.00000
 Structure written by MMmdl.
 37 38  0  0  0  0  0  0  0  0  2 V2000
  152.5469  143.5667  160.2242 C   0  0  0  0  0  0  0  0  0  0  0  0
  152.5882  142.0287  160.1412 C   0  0  2  0  0  0  0  0  0  0  0  0
  153.8896  141.5291  160.8159 C   0  0  0  0  0  0  0  0  0  0  0  0
  153.9701  139.9948  160.7480 C   0  0  0  0  0  0  0  0  0  0  0  0
  153.8610  139.4779  159.2982 C   0  0  0  0  0  0  0  0  0  0  0  0
  152.5674  139.9344  158.5811 C   0  0  2  0  0  0  0  0  0  0  0  0
  152.6212  139.5088  157.1886 N   0  5  0  0  0  0  0  0  0  0  0  0
  152.0105  138.0673  156.7627 S   0  0  0  0  0  0  0  0  0  0  0  0
  153.0511  137.0803  156.4290 O   0  0  0  0  0  0  0  0  0  0  0  0
  150.9412  137.6326  157.6761 O   0  0  0  0  0  0  0  0  0  0  0  0
  151.1695  138.5020  155.1765 C   0  0  0  0  0  0  0  0  0  0  0  0
  150.1350  139.5725  155.3974 C   0  0  0  0  0  0  0  0  0  0  0  0
  149.9489  140.7874  154.6804 C   0  0  0  0  0  0  0  0  0  0  0  0
  148.8820  141.3670  155.3035 C   0  0  0  0  0  0  0  0  0  0  0  0
  148.4481  140.5877  156.3257 O   0  0  0  0  0  0  0  0  0  0  0  0
  149.2559  139.4463  156.3804 N   0  0  0  0  0  0  0  0  0  0  0  0
  152.4157  141.4907  158.6750 C   0  0  1  0  0  0  0  0  0  0  0  0
  151.0746  141.9732  158.0604 C   0  0  0  0  0  0  0  0  0  0  0  0
  153.2875  144.0193  159.5643 H   0  0  0  0  0  0  0  0  0  0  0  0
  152.7547  143.9096  161.2381 H   0  0  0  0  0  0  0  0  0  0  0  0
  151.5685  143.9644  159.9579 H   0  0  0  0  0  0  0  0  0  0  0  0
  151.7535  141.6613  160.7424 H   0  0  0  0  0  0  0  0  0  0  0  0
  154.7576  141.9624  160.3171 H   0  0  0  0  0  0  0  0  0  0  0  0
  153.9309  141.8539  161.8560 H   0  0  0  0  0  0  0  0  0  0  0  0
  154.9140  139.6622  161.1808 H   0  0  0  0  0  0  0  0  0  0  0  0
  153.1865  139.5561  161.3694 H   0  0  0  0  0  0  0  0  0  0  0  0
  154.7314  139.8240  158.7383 H   0  0  0  0  0  0  0  0  0  0  0  0
  153.9188  138.3890  159.3039 H   0  0  0  0  0  0  0  0  0  0  0  0
  151.7185  139.4905  159.1034 H   0  0  0  0  0  0  0  0  0  0  0  0
  151.9381  138.8469  154.4850 H   0  0  0  0  0  0  0  0  0  0  0  0
  150.7318  137.5992  154.7517 H   0  0  0  0  0  0  0  0  0  0  0  0
  150.5066  141.1670  153.8369 H   0  0  0  0  0  0  0  0  0  0  0  0
  148.3423  142.2890  155.1467 H   0  0  0  0  0  0  0  0  0  0  0  0
  153.2187  141.9294  158.0798 H   0  0  0  0  0  0  0  0  0  0  0  0
  150.2160  141.6507  158.6521 H   0  0  0  0  0  0  0  0  0  0  0  0
  150.9211  141.6210  157.0385 H   0  0  0  0  0  0  0  0  0  0  0  0
  151.0344  143.0596  157.9967 H   0  0  0  0  0  0  0  0  0  0  0  0
  1  2  1  0  0  0  0
  1 19  1  0  0  0  0
  1 20  1  0  0  0  0
  1 21  1  0  0  0  0
  2 17  1  0  0  0  0
  2  3  1  0  0  0  0
  2 22  1  0  0  0  0
  3  4  1  0  0  0  0
  3 23  1  0  0  0  0
  3 24  1  0  0  0  0
  4  5  1  0  0  0  0
  4 25  1  0  0  0  0
  4 26  1  0  0  0  0
  5  6  1  0  0  0  0
  5 27  1  0  0  0  0
  5 28  1  0  0  0  0
  6  7  1  0  0  0  0
  6 17  1  0  0  0  0
  6 29  1  0  0  0  0
  7  8  1  0  0  0  0
  8  9  2  0  0  0  0
  8 10  2  0  0  0  0
  8 11  1  0  0  0  0
 11 12  1  0  0  0  0
 11 30  1  0  0  0  0
 11 31  1  0  0  0  0
 12 16  2  0  0  0  0
 12 13  1  0  0  0  0
 13 14  2  0  0  0  0
 13 32  1  0  0  0  0
 14 15  1  0  0  0  0
 14 33  1  0  0  0  0
 15 16  1  0  0  0  0
 17 18  1  0  0  0  0
 17 34  1  0  0  0  0
 18 35  1  0  0  0  0
 18 36  1  0  0  0  0
 18 37  1  0  0  0  0
M  CHG  1   7  -1
M  END
> <s_m_source_file>
AV-unprocessed.smi

> <i_m_source_file_index>
2451

> <i_lp_mmshare_version>
43012

> <i_f3d_flags>
0

> <s_epik_input>
W0NIM11bQ0BASF0xW0NIMl1bQ0gyXVtDSDJdW0NASF0oW0NASF0xW0NIM10pW05IXVMoPU8pKD1PKVtDSDJdYzJbY0hdW2NIXW9uMg==

> <s_epik_cmdline>
J2VwaWtfcHl0aG9uJywgJy1waCcsICc3LjAnLCAnLXRuJywgJzgnLCAnLW1hJywgJzIwMCcsICctbWV0YWxfYmluZGluZycsICctaW1hZScsICc8aW5maWxlLm1hZT4nLCAnLW9tYWUnLCAnPG91dGZpbGUubWFlPic=

> <r_lp_tautomer_probability>
1

> <r_epik_Ionization_Penalty>
5.22693

> <r_epik_Ionization_Penalty_Charging>
5.22693

> <r_epik_Ionization_Penalty_Neutral>
2.67702e-10

> <r_epik_State_Penalty>
5.22685

> <r_epik_Charging_Adjusted_Penalty>
10.4538

> <i_epik_Tot_Q>
-1

> <i_epik_Tot_abs_Q>
1

> <r_epik_Metal_State_Penalty>
1.28716

> <b_epik_Metal_Only>
1

> <s_lp_Force_Field>
OPLS_2005

> <r_lp_Energy>
12.9846

> <b_lp_Chiralities_Consistent>
1

> <s_lp_Variant>
AV-unprocessed.smi:2451-11

> <Gold.Version>
5.8.1

> <Gold.Id.Protein>
6NUR|6NUR_protein|mol2

> <Gold.PLP.Fitness>
40.2988

> <Gold.PLP.PLP>
-30.4133

> <Gold.PLP.part.hbond>
-2.0000

> <Gold.PLP.part.metal>
0.0000

> <Gold.PLP.part.buried>
-1.6496

> <Gold.PLP.part.nonpolar>
-27.1874

> <Gold.PLP.part.repulsive>
0.0394

> <Gold.PLP.ligand.clash>
0.0000

> <Gold.PLP.ligand.torsion>
1.0635

> <Gold.PLP.Chemscore.Hbond>
2.6708

> <Gold.PLP.Chemscore.CHOScore>
1.0000

> <Gold.PLP.Chemscore.Metal>
0.0000

> <Gold.Chemscore.Hbonds>
donor molecule, donor type, donor heavy atom, donor atom, acceptor molecule, acceptor atom, score
      P1  H  7997  8008       L1     7  2.00
      P1  H 10752 10763       L1     9  0.71
      L1  C    14    33       P1  8028  1.00

> <Gold.PLP.Chemscore.Internal.Correction>
1.0002

> <Gold.Rescore>
     Score         DG    S(hbond)    S(metal)    S(lipo)     H(rot)  DE(clash)    DE(int)     intcor
     14.77     -17.47       1.52        0.00      89.62       1.40       0.15       2.55       ----

> <Gold.Chemscore.Fitness>
14.7716

> <Gold.Chemscore.DG>
-17.4701

> <Gold.Chemscore.ZeroCoef>
-5.4800

> <Gold.Chemscore.Hbond>
1.5225

> <Gold.Chemscore.Metal>
0.0000

> <Gold.Chemscore.Lipo>
89.6177

> <Gold.Chemscore.Internal_Hbond>
0.0000

> <Gold.Chemscore.DEClash>
0.1481

> <Gold.Chemscore.DEInternal>
2.5504

> <Gold.Chemscore.Rot>
1.3986

> <Gold.Chemscore.Internal.Correction>
   9.000000E+99

> <Gold.Chemscore.Hbonds>
donor molecule, donor type, donor heavy atom, donor atom, acceptor molecule, acceptor atom, score
      P1  H  7997  8008       L1     7  0.39
      P1  H 10752 10763       L1     9  0.68

> <Gold.Chemscore.Hbond.Weighted>
-5.0852

> <Gold.Chemscore.Metal.Weighted>
-0.0000

> <Gold.Chemscore.Lipo.Weighted>
-10.4853

> <Gold.Chemscore.Internal_Hbond.Weighted>
0.0000

> <Gold.Chemscore.DEClash.Weighted>
0.1481

> <Gold.Chemscore.DEInternal.Weighted>
2.5504

> <Gold.Chemscore.Rot.Weighted>
3.5804

> <Gold.Chemscore.Internal.Correction.Weighted>
   9.000000E+99

> <Gold.Protein.RotatedTorsions>
[ 6907 6896 6895 6894 ] final   32.95 input  -60.11 | X-H torsion
[ 7974 7965 7964 7962 ] final   13.11 input  175.53 | X-H torsion
[ 8008 7997 7996 7995 ] final  -58.57 input   59.86 | X-H torsion
[ 10167 10162 10161 10158 ] final  154.13 input  -65.29 | X-H torsion
[ 10718 10713 10712 10709 ] final   52.44 input   66.30 | X-H torsion
[ 10763 10752 10751 10750 ] final  103.72 input  -60.55 | X-H torsion
[ 11005 11000 10999 10996 ] final  -36.96 input  -57.11 | X-H torsion

> <Gold.Protein.ActiveResidues>
 VAL166  LYS551  ARG553  GLY616  TRP617  ASP618  TYR619  PRO620  LYS621  CYS622 
 ASP623  PHE694  ASN695  SER759  ASP760  ASP761  ALA762  ILE779  LEU786  VAL792 
 PHE793  MET794  SER795  GLU796  ALA797  LYS798  CYS799  TRP800  GLU811  SER814 

> <Gold.Protein.RotatedAtoms>
  152.0817  134.9467  160.0573 H   0  0  0  0  0  0  0  0  0  0  0  0  # atno 6907 bound_to 6896
  152.0753  133.4121  159.4485 H   0  0  0  0  0  0  0  0  0  0  0  0  # atno 6908 bound_to 6896
  150.6836  134.2965  159.4732 H   0  0  0  0  0  0  0  0  0  0  0  0  # atno 6909 bound_to 6896
  146.2337  139.9238  142.8506 H   0  0  0  0  0  0  0  0  0  0  0  0  # atno 7974 bound_to 7965
  154.4314  140.1081  156.5978 H   0  0  0  0  0  0  0  0  0  0  0  0  # atno 8008 bound_to 7997
  155.5944  140.3492  155.4557 H   0  0  0  0  0  0  0  0  0  0  0  0  # atno 8009 bound_to 7997
  156.0222  140.1242  157.0335 H   0  0  0  0  0  0  0  0  0  0  0  0  # atno 8010 bound_to 7997
  139.4824  144.5213  151.7871 H   0  0  0  0  0  0  0  0  0  0  0  0  # atno 10167 bound_to 10162
  157.5075  130.8478  149.8393 H   0  0  0  0  0  0  0  0  0  0  0  0  # atno 10718 bound_to 10713
  153.3564  135.3967  155.1685 H   0  0  0  0  0  0  0  0  0  0  0  0  # atno 10763 bound_to 10752
  154.8671  135.3669  154.5155 H   0  0  0  0  0  0  0  0  0  0  0  0  # atno 10764 bound_to 10752
  153.5611  135.7081  153.5607 H   0  0  0  0  0  0  0  0  0  0  0  0  # atno 10765 bound_to 10752
  140.9915  133.7002  156.1858 H   0  0  0  0  0  0  0  0  0  0  0  0  # atno 11005 bound_to 11000
  145.2111  140.9896  143.4100 LP  0  0  0  0  0  0  0  0  0  0  0  0  # atno 17320 bound_to 7965
  144.9690  139.3899  143.6318 LP  0  0  0  0  0  0  0  0  0  0  0  0  # atno 17321 bound_to 7965
  140.4728  144.1563  150.5920 LP  0  0  0  0  0  0  0  0  0  0  0  0  # atno 17342 bound_to 10162
  140.4364  143.2545  151.9530 LP  0  0  0  0  0  0  0  0  0  0  0  0  # atno 17343 bound_to 10162
  156.0267  130.3777  150.1802 LP  0  0  0  0  0  0  0  0  0  0  0  0  # atno 17370 bound_to 10713
  156.9991  130.9917  151.3395 LP  0  0  0  0  0  0  0  0  0  0  0  0  # atno 17371 bound_to 10713
  140.7033  134.4541  157.5585 LP  0  0  0  0  0  0  0  0  0  0  0  0  # atno 17394 bound_to 11000
  139.8994  134.8591  156.1960 LP  0  0  0  0  0  0  0  0  0  0  0  0  # atno 17395 bound_to 11000

$$$$
