AV-unprocessed.smi:2718|AV-procd|sdf|10486|dock7
  -GOLD-   2272014533D 1   1.00000     0.00000
 Structure written by MMmdl.
 47 48  0  0  0  0  0  0  0  0  1 V2000
  142.8048  143.1958  157.8652 C   0  0  0  0  0  0  0  0  0  0  0  0
  144.1399  142.5388  157.5763 C   0  0  0  0  0  0  0  0  0  0  0  0
  145.0768  142.4544  158.7687 C   0  0  0  0  0  0  0  0  0  0  0  0
  144.4492  142.0712  156.3519 C   0  0  0  0  0  0  0  0  0  0  0  0
  145.7186  141.4072  155.9550 C   0  0  2  0  0  0  0  0  0  0  0  0
  147.0551  142.1058  156.1328 C   0  0  1  0  0  0  0  0  0  0  0  0
  148.2377  141.3024  156.5751 C   0  0  0  0  0  0  0  0  0  0  0  0
  148.1822  140.1024  156.8464 O   0  0  0  0  0  0  0  0  0  0  0  0
  149.3697  142.0171  156.6518 N   0  0  0  0  0  0  0  0  0  0  0  0
  150.6754  141.5107  157.0683 C   0  0  0  0  0  0  0  0  0  0  0  0
  151.2314  142.1860  158.3442 C   0  0  2  0  0  0  0  0  0  0  0  0
  151.5774  143.6617  158.0994 C   0  0  0  0  0  0  0  0  0  0  0  0
  152.3898  141.4397  158.9508 C   0  0  0  0  0  0  0  0  0  0  0  0
  152.9824  140.3899  158.3660 N   0  0  0  0  0  0  0  0  0  0  0  0
  153.9886  140.0010  159.2264 N   0  0  0  0  0  0  0  0  0  0  0  0
  153.9161  140.8642  160.2380 C   0  0  0  0  0  0  0  0  0  0  0  0
  152.9517  141.7897  160.1273 N   0  0  0  0  0  0  0  0  0  0  0  0
  152.6309  142.8683  161.0413 C   0  0  0  0  0  0  0  0  0  0  0  0
  146.4930  141.8758  154.7349 C   0  0  0  0  0  0  0  0  0  0  0  0
  147.0445  140.8286  153.7764 C   0  0  0  0  0  0  0  0  0  0  0  0
  146.0577  143.1002  153.9438 C   0  0  0  0  0  0  0  0  0  0  0  0
  142.9543  144.2161  158.2198 H   0  0  0  0  0  0  0  0  0  0  0  0
  142.2700  142.6396  158.6354 H   0  0  0  0  0  0  0  0  0  0  0  0
  142.1750  143.2348  156.9758 H   0  0  0  0  0  0  0  0  0  0  0  0
  144.6193  141.8655  159.5640 H   0  0  0  0  0  0  0  0  0  0  0  0
  145.2796  143.4526  159.1574 H   0  0  0  0  0  0  0  0  0  0  0  0
  146.0321  141.9941  158.5186 H   0  0  0  0  0  0  0  0  0  0  0  0
  143.7212  142.1781  155.5609 H   0  0  0  0  0  0  0  0  0  0  0  0
  145.6838  140.3353  156.1431 H   0  0  0  0  0  0  0  0  0  0  0  0
  147.0340  143.1351  156.4889 H   0  0  0  0  0  0  0  0  0  0  0  0
  149.3244  142.9951  156.4041 H   0  0  0  0  0  0  0  0  0  0  0  0
  150.5500  140.4431  157.2515 H   0  0  0  0  0  0  0  0  0  0  0  0
  151.3879  141.5985  156.2468 H   0  0  0  0  0  0  0  0  0  0  0  0
  150.4181  142.1854  159.0689 H   0  0  0  0  0  0  0  0  0  0  0  0
  151.8821  144.1508  159.0252 H   0  0  0  0  0  0  0  0  0  0  0  0
  150.7191  144.2061  157.7048 H   0  0  0  0  0  0  0  0  0  0  0  0
  152.3940  143.7652  157.3839 H   0  0  0  0  0  0  0  0  0  0  0  0
  154.5908  140.8235  161.0806 H   0  0  0  0  0  0  0  0  0  0  0  0
  153.2566  142.8039  161.9323 H   0  0  0  0  0  0  0  0  0  0  0  0
  151.5850  142.8043  161.3401 H   0  0  0  0  0  0  0  0  0  0  0  0
  152.8059  143.8268  160.5523 H   0  0  0  0  0  0  0  0  0  0  0  0
  147.9872  141.1688  153.3479 H   0  0  0  0  0  0  0  0  0  0  0  0
  146.3398  140.6518  152.9635 H   0  0  0  0  0  0  0  0  0  0  0  0
  147.2108  139.8754  154.2764 H   0  0  0  0  0  0  0  0  0  0  0  0
  146.8949  143.4965  153.3687 H   0  0  0  0  0  0  0  0  0  0  0  0
  145.6996  143.8893  154.6054 H   0  0  0  0  0  0  0  0  0  0  0  0
  145.2525  142.8418  153.2556 H   0  0  0  0  0  0  0  0  0  0  0  0
  1  2  1  0  0  0  0
  1 22  1  0  0  0  0
  1 23  1  0  0  0  0
  1 24  1  0  0  0  0
  2  3  1  0  0  0  0
  2  4  2  0  0  0  0
  3 25  1  0  0  0  0
  3 26  1  0  0  0  0
  3 27  1  0  0  0  0
  4  5  1  0  0  0  0
  4 28  1  0  0  0  0
  5 19  1  0  0  0  0
  5  6  1  0  0  0  0
  5 29  1  0  0  0  0
  6  7  1  0  0  0  0
  6 19  1  0  0  0  0
  6 30  1  0  0  0  0
  7  8  2  0  0  0  0
  7  9  1  0  0  0  0
  9 10  1  0  0  0  0
  9 31  1  0  0  0  0
 10 11  1  0  0  0  0
 10 32  1  0  0  0  0
 10 33  1  0  0  0  0
 11 12  1  0  0  0  0
 11 13  1  0  0  0  0
 11 34  1  0  0  0  0
 12 35  1  0  0  0  0
 12 36  1  0  0  0  0
 12 37  1  0  0  0  0
 13 17  1  0  0  0  0
 13 14  2  0  0  0  0
 14 15  1  0  0  0  0
 15 16  2  0  0  0  0
 16 17  1  0  0  0  0
 16 38  1  0  0  0  0
 17 18  1  0  0  0  0
 18 39  1  0  0  0  0
 18 40  1  0  0  0  0
 18 41  1  0  0  0  0
 19 20  1  0  0  0  0
 19 21  1  0  0  0  0
 20 42  1  0  0  0  0
 20 43  1  0  0  0  0
 20 44  1  0  0  0  0
 21 45  1  0  0  0  0
 21 46  1  0  0  0  0
 21 47  1  0  0  0  0
M  END
> <s_m_source_file>
AV-unprocessed.smi

> <i_m_source_file_index>
2718

> <i_lp_mmshare_version>
43012

> <i_f3d_flags>
0

> <s_epik_input>
W0NIM11DKFtDSDNdKT1bQ0hdW0NAQEhdKEMxKFtDSDNdKVtDSDNdKVtDQEhdMUMoPU8pW05IXVtDSDJdW0NASF0oW0NIM10pYzJubltjSF1uMltDSDNd

> <s_epik_cmdline>
J2VwaWtfcHl0aG9uJywgJy1waCcsICc3LjAnLCAnLXRuJywgJzgnLCAnLW1hJywgJzIwMCcsICctbWV0YWxfYmluZGluZycsICctaW1hZScsICc8aW5maWxlLm1hZT4nLCAnLW9tYWUnLCAnPG91dGZpbGUubWFlPic=

> <r_lp_tautomer_probability>
1

> <r_epik_Ionization_Penalty>
0.000449586

> <r_epik_Ionization_Penalty_Charging>
0

> <r_epik_Ionization_Penalty_Neutral>
0.000449586

> <r_epik_State_Penalty>
0.000243372

> <r_epik_Charging_Adjusted_Penalty>
0.000243372

> <i_epik_Tot_Q>
0

> <i_epik_Tot_abs_Q>
0

> <r_epik_Metal_State_Penalty>
-0

> <b_epik_Metal_Only>
0

> <s_lp_Force_Field>
OPLS_2005

> <r_lp_Energy>
15.15

> <b_lp_Chiralities_Consistent>
1

> <s_lp_Variant>
AV-unprocessed.smi:2718-1

> <Gold.Version>
5.8.1

> <Gold.Id.Protein>
6NUR|6NUR_protein|mol2

> <Gold.PLP.Fitness>
39.5027

> <Gold.PLP.PLP>
-36.3189

> <Gold.PLP.part.hbond>
-3.0000

> <Gold.PLP.part.metal>
0.0000

> <Gold.PLP.part.buried>
-2.1703

> <Gold.PLP.part.nonpolar>
-30.5049

> <Gold.PLP.part.repulsive>
0.0580

> <Gold.PLP.ligand.clash>
0.0000

> <Gold.PLP.ligand.torsion>
0.2811

> <Gold.PLP.Chemscore.Hbond>
1.1644

> <Gold.PLP.Chemscore.CHOScore>
0.0000

> <Gold.PLP.Chemscore.Metal>
0.0000

> <Gold.Chemscore.Hbonds>
donor molecule, donor type, donor heavy atom, donor atom, acceptor molecule, acceptor atom, score
      L1  H     9    31       P1  8028  1.00
      P1  H  7997  8008       L1    14  0.12

> <Gold.PLP.Chemscore.Internal.Correction>
0.2526

> <Gold.Rescore>
     Score         DG    S(hbond)    S(metal)    S(lipo)     H(rot)  DE(clash)    DE(int)     intcor
     11.68     -12.06       1.00        0.00      70.58       1.95       0.12       0.26       ----

> <Gold.Chemscore.Fitness>
11.6827

> <Gold.Chemscore.DG>
-12.0629

> <Gold.Chemscore.ZeroCoef>
-5.4800

> <Gold.Chemscore.Hbond>
0.9955

> <Gold.Chemscore.Metal>
0.0000

> <Gold.Chemscore.Lipo>
70.5845

> <Gold.Chemscore.Internal_Hbond>
0.0000

> <Gold.Chemscore.DEClash>
0.1249

> <Gold.Chemscore.DEInternal>
0.2554

> <Gold.Chemscore.Rot>
1.9533

> <Gold.Chemscore.Internal.Correction>
   9.000000E+99

> <Gold.Chemscore.Hbonds>
donor molecule, donor type, donor heavy atom, donor atom, acceptor molecule, acceptor atom, score
      L1  H     9    31       P1  8028  1.00

> <Gold.Chemscore.Hbond.Weighted>
-3.3251

> <Gold.Chemscore.Metal.Weighted>
-0.0000

> <Gold.Chemscore.Lipo.Weighted>
-8.2584

> <Gold.Chemscore.Internal_Hbond.Weighted>
0.0000

> <Gold.Chemscore.DEClash.Weighted>
0.1249

> <Gold.Chemscore.DEInternal.Weighted>
0.2554

> <Gold.Chemscore.Rot.Weighted>
5.0005

> <Gold.Chemscore.Internal.Correction.Weighted>
   9.000000E+99

> <Gold.Protein.RotatedTorsions>
[ 6907 6896 6895 6894 ] final   78.01 input  -60.11 | X-H torsion
[ 7974 7965 7964 7962 ] final  146.39 input  175.53 | X-H torsion
[ 8008 7997 7996 7995 ] final  -72.07 input   59.86 | X-H torsion
[ 10167 10162 10161 10158 ] final  119.79 input  -65.29 | X-H torsion
[ 10718 10713 10712 10709 ] final   15.73 input   66.30 | X-H torsion
[ 10763 10752 10751 10750 ] final   48.42 input  -60.55 | X-H torsion
[ 11005 11000 10999 10996 ] final  -16.99 input  -57.11 | X-H torsion

> <Gold.Protein.ActiveResidues>
 VAL166  LYS551  ARG553  GLY616  TRP617  ASP618  TYR619  PRO620  LYS621  CYS622 
 ASP623  PHE694  ASN695  SER759  ASP760  ASP761  ALA762  ILE779  LEU786  VAL792 
 PHE793  MET794  SER795  GLU796  ALA797  LYS798  CYS799  TRP800  GLU811  SER814 

> <Gold.Protein.RotatedAtoms>
  152.5142  134.3729  159.9324 H   0  0  0  0  0  0  0  0  0  0  0  0  # atno 6907 bound_to 6896
  151.3684  133.3857  159.2705 H   0  0  0  0  0  0  0  0  0  0  0  0  # atno 6908 bound_to 6896
  150.9597  134.9006  159.7781 H   0  0  0  0  0  0  0  0  0  0  0  0  # atno 6909 bound_to 6896
  144.8675  139.5900  143.5902 H   0  0  0  0  0  0  0  0  0  0  0  0  # atno 7974 bound_to 7965
  154.5137  140.0804  156.8040 H   0  0  0  0  0  0  0  0  0  0  0  0  # atno 8008 bound_to 7997
  155.3728  140.3424  155.4225 H   0  0  0  0  0  0  0  0  0  0  0  0  # atno 8009 bound_to 7997
  156.1603  140.1586  156.8611 H   0  0  0  0  0  0  0  0  0  0  0  0  # atno 8010 bound_to 7997
  139.6023  144.7060  151.3033 H   0  0  0  0  0  0  0  0  0  0  0  0  # atno 10167 bound_to 10162
  157.0577  130.6296  149.5780 H   0  0  0  0  0  0  0  0  0  0  0  0  # atno 10718 bound_to 10713
  152.9792  135.5945  154.3923 H   0  0  0  0  0  0  0  0  0  0  0  0  # atno 10763 bound_to 10752
  154.3577  135.2767  155.2339 H   0  0  0  0  0  0  0  0  0  0  0  0  # atno 10764 bound_to 10752
  154.4350  135.6027  153.6148 H   0  0  0  0  0  0  0  0  0  0  0  0  # atno 10765 bound_to 10752
  140.8124  133.8131  155.9576 H   0  0  0  0  0  0  0  0  0  0  0  0  # atno 11005 bound_to 11000
  146.2906  139.7128  142.9164 LP  0  0  0  0  0  0  0  0  0  0  0  0  # atno 17320 bound_to 7965
  145.4194  141.0405  143.2972 LP  0  0  0  0  0  0  0  0  0  0  0  0  # atno 17321 bound_to 7965
  140.7259  143.7004  150.7849 LP  0  0  0  0  0  0  0  0  0  0  0  0  # atno 17342 bound_to 10162
  140.0583  143.5180  152.2640 LP  0  0  0  0  0  0  0  0  0  0  0  0  # atno 17343 bound_to 10162
  155.9988  130.5063  150.7584 LP  0  0  0  0  0  0  0  0  0  0  0  0  # atno 17370 bound_to 10713
  157.4980  131.0916  151.0348 LP  0  0  0  0  0  0  0  0  0  0  0  0  # atno 17371 bound_to 10713
  140.9184  134.2172  157.4942 LP  0  0  0  0  0  0  0  0  0  0  0  0  # atno 17394 bound_to 11000
  139.8713  134.9781  156.4986 LP  0  0  0  0  0  0  0  0  0  0  0  0  # atno 17395 bound_to 11000

$$$$
