AV-unprocessed.smi:194|AV-procd|sdf|1522|dock8
  -GOLD-   2262019363D 1   1.00000     0.00000
 Structure written by MMmdl.
 53 55  0  0  0  0  0  0  0  0  1 V2000
  153.9291  129.2057  154.1417 C   0  0  0  0  0  0  0  0  0  0  0  0
  152.9437  130.1716  154.8196 C   0  0  2  0  0  0  0  0  0  0  0  0
  153.4129  130.5449  156.2425 C   0  0  0  0  0  0  0  0  0  0  0  0
  153.0153  132.3249  156.6044 S   0  0  2  0  0  0  0  0  0  0  0  0
  154.7466  132.9572  156.8137 C   0  0  0  0  0  0  0  0  0  0  0  0
  152.3570  132.3593  157.9850 O   0  0  0  0  0  0  0  0  0  0  0  0
  151.5799  129.6246  154.8000 N   0  0  0  0  0  0  0  0  0  0  0  0
  151.3461  128.2115  154.5165 C   0  0  0  0  0  0  0  0  0  0  0  0
  150.5397  130.4887  154.6671 C   0  0  0  0  0  0  0  0  0  0  0  0
  150.6742  131.7342  155.1937 N   0  0  0  0  0  0  0  0  0  0  0  0
  149.6793  132.6204  155.1050 C   0  0  0  0  0  0  0  0  0  0  0  0
  148.4799  132.4721  154.5415 N   0  0  0  0  0  0  0  0  0  0  0  0
  148.3324  131.2248  154.0106 C   0  0  0  0  0  0  0  0  0  0  0  0
  149.3043  130.1826  154.0223 C   0  0  0  0  0  0  0  0  0  0  0  0
  148.8018  129.0697  153.3566 N   0  0  0  0  0  0  0  0  0  0  0  0
  147.6049  129.4294  152.9839 C   0  0  0  0  0  0  0  0  0  0  0  0
  147.2319  130.7015  153.3529 N   0  0  0  0  0  0  0  0  0  0  0  0
  145.9619  131.3513  153.0632 C   0  0  0  0  0  0  0  0  0  0  0  0
  145.8633  132.0659  151.6807 C   0  0  0  0  0  0  0  0  0  0  0  0
  146.7755  133.3293  151.6370 C   0  0  0  0  0  0  0  0  0  0  0  0
  148.1580  133.0352  151.6222 O   0  0  0  0  0  0  0  0  0  0  0  0
  146.1819  131.0854  150.5227 C   0  0  0  0  0  0  0  0  0  0  0  0
  145.7854  131.6459  149.1464 C   0  0  0  0  0  0  0  0  0  0  0  0
  144.3966  131.9497  149.1347 O   0  0  0  0  0  0  0  0  0  0  0  0
  144.0448  132.9580  150.0730 C   0  0  0  0  0  0  0  0  0  0  0  0
  144.3846  132.4973  151.5043 C   0  0  0  0  0  0  0  0  0  0  0  0
  154.9256  129.6437  154.0807 H   0  0  0  0  0  0  0  0  0  0  0  0
  153.6112  128.9706  153.1253 H   0  0  0  0  0  0  0  0  0  0  0  0
  154.0145  128.2674  154.6903 H   0  0  0  0  0  0  0  0  0  0  0  0
  152.9777  131.0818  154.2232 H   0  0  0  0  0  0  0  0  0  0  0  0
  152.9258  129.9180  156.9888 H   0  0  0  0  0  0  0  0  0  0  0  0
  154.4861  130.3895  156.3561 H   0  0  0  0  0  0  0  0  0  0  0  0
  155.3208  132.8489  155.8949 H   0  0  0  0  0  0  0  0  0  0  0  0
  155.2560  132.4171  157.6115 H   0  0  0  0  0  0  0  0  0  0  0  0
  154.7232  134.0150  157.0749 H   0  0  0  0  0  0  0  0  0  0  0  0
  150.3495  127.9080  154.8389 H   0  0  0  0  0  0  0  0  0  0  0  0
  152.0611  127.5802  155.0418 H   0  0  0  0  0  0  0  0  0  0  0  0
  151.4406  128.0114  153.4490 H   0  0  0  0  0  0  0  0  0  0  0  0
  149.8711  133.5852  155.5508 H   0  0  0  0  0  0  0  0  0  0  0  0
  146.9507  128.7675  152.4352 H   0  0  0  0  0  0  0  0  0  0  0  0
  145.1827  130.5924  153.1485 H   0  0  0  0  0  0  0  0  0  0  0  0
  145.7636  132.0656  153.8634 H   0  0  0  0  0  0  0  0  0  0  0  0
  146.5832  133.9300  150.7500 H   0  0  0  0  0  0  0  0  0  0  0  0
  146.5673  133.9765  152.4897 H   0  0  0  0  0  0  0  0  0  0  0  0
  148.3081  132.3228  151.0196 H   0  0  0  0  0  0  0  0  0  0  0  0
  147.2364  130.8093  150.5158 H   0  0  0  0  0  0  0  0  0  0  0  0
  145.6321  130.1562  150.6775 H   0  0  0  0  0  0  0  0  0  0  0  0
  146.3708  132.5300  148.8903 H   0  0  0  0  0  0  0  0  0  0  0  0
  145.9849  130.9036  148.3733 H   0  0  0  0  0  0  0  0  0  0  0  0
  144.5379  133.8961  149.8185 H   0  0  0  0  0  0  0  0  0  0  0  0
  142.9738  133.1446  149.9920 H   0  0  0  0  0  0  0  0  0  0  0  0
  143.7297  131.6582  151.7437 H   0  0  0  0  0  0  0  0  0  0  0  0
  144.1317  133.2855  152.2146 H   0  0  0  0  0  0  0  0  0  0  0  0
  1  2  1  0  0  0  0
  1 27  1  0  0  0  0
  1 28  1  0  0  0  0
  1 29  1  0  0  0  0
  2  3  1  0  0  0  0
  2  7  1  0  0  0  0
  2 30  1  0  0  0  0
  3  4  1  0  0  0  0
  3 31  1  0  0  0  0
  3 32  1  0  0  0  0
  4  5  1  0  0  0  0
  4  6  2  0  0  0  0
  5 33  1  0  0  0  0
  5 34  1  0  0  0  0
  5 35  1  0  0  0  0
  7  8  1  0  0  0  0
  7  9  1  0  0  0  0
  8 36  1  0  0  0  0
  8 37  1  0  0  0  0
  8 38  1  0  0  0  0
  9 14  1  0  0  0  0
  9 10  2  0  0  0  0
 10 11  1  0  0  0  0
 11 12  2  0  0  0  0
 11 39  1  0  0  0  0
 12 13  1  0  0  0  0
 13 17  1  0  0  0  0
 13 14  2  0  0  0  0
 14 15  1  0  0  0  0
 15 16  2  0  0  0  0
 16 17  1  0  0  0  0
 16 40  1  0  0  0  0
 17 18  1  0  0  0  0
 18 19  1  0  0  0  0
 18 41  1  0  0  0  0
 18 42  1  0  0  0  0
 19 26  1  0  0  0  0
 19 20  1  0  0  0  0
 19 22  1  0  0  0  0
 20 21  1  0  0  0  0
 20 43  1  0  0  0  0
 20 44  1  0  0  0  0
 21 45  1  0  0  0  0
 22 23  1  0  0  0  0
 22 46  1  0  0  0  0
 22 47  1  0  0  0  0
 23 24  1  0  0  0  0
 23 48  1  0  0  0  0
 23 49  1  0  0  0  0
 24 25  1  0  0  0  0
 25 26  1  0  0  0  0
 25 50  1  0  0  0  0
 25 51  1  0  0  0  0
 26 52  1  0  0  0  0
 26 53  1  0  0  0  0
M  END
> <s_m_source_file>
AV-unprocessed.smi

> <i_m_source_file_index>
194

> <i_lp_mmshare_version>
43012

> <i_f3d_flags>
0

> <s_epik_input>
W0NIM11bU0BAXSg9TylbQ0gyXVtDQEBIXShbQ0gzXSlOKFtDSDNdKWMobltjSF1uMSljKGMxMiluW2NIXW4yW0NIMl1DMyhbQ0gyXVtPSF0pW0NIMl1bQ0gyXU9bQ0gyXVtDSDJdMw==

> <s_epik_cmdline>
J2VwaWtfcHl0aG9uJywgJy1waCcsICc3LjAnLCAnLXRuJywgJzgnLCAnLW1hJywgJzIwMCcsICctbWV0YWxfYmluZGluZycsICctaW1hZScsICc8aW5maWxlLm1hZT4nLCAnLW9tYWUnLCAnPG91dGZpbGUubWFlPic=

> <r_lp_tautomer_probability>
1

> <r_epik_Ionization_Penalty>
0.00101625

> <r_epik_Ionization_Penalty_Charging>
0

> <r_epik_Ionization_Penalty_Neutral>
0.00101625

> <r_epik_State_Penalty>
0.000568005

> <r_epik_Charging_Adjusted_Penalty>
0.000568005

> <i_epik_Tot_Q>
0

> <i_epik_Tot_abs_Q>
0

> <r_epik_Metal_State_Penalty>
-0

> <b_epik_Metal_Only>
0

> <s_lp_Force_Field>
OPLS_2005

> <r_lp_Energy>
28.7742

> <b_lp_Chiralities_Consistent>
1

> <s_lp_Variant>
AV-unprocessed.smi:194-3

> <Gold.Version>
5.8.1

> <Gold.Id.Protein>
6NUR|6NUR_protein|mol2

> <Gold.PLP.Fitness>
44.3119

> <Gold.PLP.PLP>
-41.1776

> <Gold.PLP.part.hbond>
-3.3440

> <Gold.PLP.part.metal>
0.0000

> <Gold.PLP.part.buried>
-0.5209

> <Gold.PLP.part.nonpolar>
-37.4046

> <Gold.PLP.part.repulsive>
0.3506

> <Gold.PLP.ligand.clash>
0.0000

> <Gold.PLP.ligand.torsion>
1.7436

> <Gold.PLP.Chemscore.Hbond>
2.0142

> <Gold.PLP.Chemscore.CHOScore>
0.0000

> <Gold.PLP.Chemscore.Metal>
0.0000

> <Gold.Chemscore.Hbonds>
donor molecule, donor type, donor heavy atom, donor atom, acceptor molecule, acceptor atom, score
      L1  H    21    45       P1 10747  1.00
      P1  H  6896  6908       L1     6  1.00
      P1  H 10785 10796       L1    24  0.31

> <Gold.PLP.Chemscore.Internal.Correction>
0.5789

> <Gold.Rescore>
     Score         DG    S(hbond)    S(metal)    S(lipo)     H(rot)  DE(clash)    DE(int)     intcor
     11.32     -15.30       2.32        0.00      84.13       3.03       0.63       3.35       ----

> <Gold.Chemscore.Fitness>
11.3184

> <Gold.Chemscore.DG>
-15.3026

> <Gold.Chemscore.ZeroCoef>
-5.4800

> <Gold.Chemscore.Hbond>
2.3158

> <Gold.Chemscore.Metal>
0.0000

> <Gold.Chemscore.Lipo>
84.1302

> <Gold.Chemscore.Internal_Hbond>
0.0000

> <Gold.Chemscore.DEClash>
0.6295

> <Gold.Chemscore.DEInternal>
3.3547

> <Gold.Chemscore.Rot>
3.0295

> <Gold.Chemscore.Internal.Correction>
   9.000000E+99

> <Gold.Chemscore.Hbonds>
donor molecule, donor type, donor heavy atom, donor atom, acceptor molecule, acceptor atom, score
      L1  H    21    45       P1 10747  1.00
      P1  H  6896  6908       L1     6  0.95
      P1  H 10785 10796       L1    24  0.22

> <Gold.Chemscore.Hbond.Weighted>
-7.7349

> <Gold.Chemscore.Metal.Weighted>
-0.0000

> <Gold.Chemscore.Lipo.Weighted>
-9.8432

> <Gold.Chemscore.Internal_Hbond.Weighted>
0.0000

> <Gold.Chemscore.DEClash.Weighted>
0.6295

> <Gold.Chemscore.DEInternal.Weighted>
3.3547

> <Gold.Chemscore.Rot.Weighted>
7.7555

> <Gold.Chemscore.Internal.Correction.Weighted>
   9.000000E+99

> <Gold.Protein.RotatedTorsions>
[ 6907 6896 6895 6894 ] final   32.42 input  -60.11 | X-H torsion
[ 7974 7965 7964 7962 ] final  150.98 input  175.53 | X-H torsion
[ 8008 7997 7996 7995 ] final  -31.63 input   59.86 | X-H torsion
[ 10167 10162 10161 10158 ] final   97.17 input  -65.29 | X-H torsion
[ 10718 10713 10712 10709 ] final -130.42 input   66.30 | X-H torsion
[ 10763 10752 10751 10750 ] final  -72.55 input  -60.55 | X-H torsion
[ 11005 11000 10999 10996 ] final -134.82 input  -57.11 | X-H torsion

> <Gold.Protein.ActiveResidues>
 VAL166  LYS551  ARG553  GLY616  TRP617  ASP618  TYR619  PRO620  LYS621  CYS622 
 ASP623  PHE694  ASN695  SER759  ASP760  ASP761  ALA762  ILE779  LEU786  VAL792 
 PHE793  MET794  SER795  GLU796  ALA797  LYS798  CYS799  TRP800  GLU811  SER814 

> <Gold.Protein.RotatedAtoms>
  152.0742  134.9514  160.0573 H   0  0  0  0  0  0  0  0  0  0  0  0  # atno 6907 bound_to 6896
  152.0828  133.4156  159.4517 H   0  0  0  0  0  0  0  0  0  0  0  0  # atno 6908 bound_to 6896
  150.6836  134.2882  159.4699 H   0  0  0  0  0  0  0  0  0  0  0  0  # atno 6909 bound_to 6896
  144.8325  139.6479  143.6052 H   0  0  0  0  0  0  0  0  0  0  0  0  # atno 7974 bound_to 7965
  154.4207  140.1759  156.1597 H   0  0  0  0  0  0  0  0  0  0  0  0  # atno 8008 bound_to 7997
  155.9848  140.3374  155.6672 H   0  0  0  0  0  0  0  0  0  0  0  0  # atno 8009 bound_to 7997
  155.6452  140.0684  157.2596 H   0  0  0  0  0  0  0  0  0  0  0  0  # atno 8010 bound_to 7997
  139.7826  144.6882  151.0001 H   0  0  0  0  0  0  0  0  0  0  0  0  # atno 10167 bound_to 10162
  156.2142  130.6938  151.0684 H   0  0  0  0  0  0  0  0  0  0  0  0  # atno 10718 bound_to 10713
  154.4473  135.5926  153.6168 H   0  0  0  0  0  0  0  0  0  0  0  0  # atno 10763 bound_to 10752
  152.9810  135.6012  154.3648 H   0  0  0  0  0  0  0  0  0  0  0  0  # atno 10764 bound_to 10752
  154.3505  135.2841  155.2353 H   0  0  0  0  0  0  0  0  0  0  0  0  # atno 10765 bound_to 10752
  140.8955  134.1757  157.4497 H   0  0  0  0  0  0  0  0  0  0  0  0  # atno 11005 bound_to 11000
  146.2626  139.6446  142.9351 LP  0  0  0  0  0  0  0  0  0  0  0  0  # atno 17320 bound_to 7965
  145.4866  141.0438  143.2616 LP  0  0  0  0  0  0  0  0  0  0  0  0  # atno 17321 bound_to 7965
  140.7819  143.4466  151.0473 LP  0  0  0  0  0  0  0  0  0  0  0  0  # atno 17342 bound_to 10162
  139.8146  143.7903  152.3173 LP  0  0  0  0  0  0  0  0  0  0  0  0  # atno 17343 bound_to 10162
  157.7054  131.0758  150.6682 LP  0  0  0  0  0  0  0  0  0  0  0  0  # atno 17370 bound_to 10713
  156.6743  130.4548  149.5647 LP  0  0  0  0  0  0  0  0  0  0  0  0  # atno 17371 bound_to 10713
  139.8735  134.9876  156.5377 LP  0  0  0  0  0  0  0  0  0  0  0  0  # atno 17394 bound_to 11000
  140.8294  133.8291  155.8970 LP  0  0  0  0  0  0  0  0  0  0  0  0  # atno 17395 bound_to 11000

$$$$
