AV-unprocessed.smi:1919|AV-procd|sdf|7773|dock7
  -GOLD-   22720 9513D 1   1.00000     0.00000
 Structure written by MMmdl.
 36 38  0  0  0  0  0  0  0  0  1 V2000
  151.6559  140.0100  155.0082 O   0  0  0  0  0  0  0  0  0  0  0  0
  150.9399  139.9799  156.2236 C   0  0  0  0  0  0  0  0  0  0  0  0
  151.2972  141.1078  157.1439 C   0  0  0  0  0  0  0  0  0  0  0  0
  151.0762  142.3796  156.8083 N   0  0  0  0  0  0  0  0  0  0  0  0
  151.5139  143.0697  157.9212 C   0  0  0  0  0  0  0  0  0  0  0  0
  151.5413  144.4570  158.1897 C   0  0  0  0  0  0  0  0  0  0  0  0
  152.0321  144.9361  159.4220 C   0  0  0  0  0  0  0  0  0  0  0  0
  152.5011  144.0371  160.4016 C   0  0  0  0  0  0  0  0  0  0  0  0
  152.4845  142.6513  160.1533 C   0  0  0  0  0  0  0  0  0  0  0  0
  151.9968  142.1780  158.9199 C   0  0  0  0  0  0  0  0  0  0  0  0
  151.8521  140.9089  158.3677 N   0  0  0  0  0  0  0  0  0  0  0  0
  152.2168  139.6534  159.0135 C   0  0  0  0  0  0  0  0  0  0  0  0
  153.7405  139.4956  159.1967 C   0  0  2  0  0  0  0  0  0  0  0  0
  154.2937  138.7971  158.0987 O   0  0  0  0  0  0  0  0  0  0  0  0
  154.0673  138.8367  160.5275 C   0  0  0  0  0  0  0  0  0  0  0  0
  153.6397  137.5194  160.8059 C   0  0  0  0  0  0  0  0  0  0  0  0
  153.9380  136.9240  162.0471 C   0  0  0  0  0  0  0  0  0  0  0  0
  154.6623  137.6425  163.0175 C   0  0  0  0  0  0  0  0  0  0  0  0
  155.0863  138.9577  162.7473 C   0  0  0  0  0  0  0  0  0  0  0  0
  155.7786  139.6512  163.6815 F   0  0  0  0  0  0  0  0  0  0  0  0
  154.7888  139.5532  161.5062 C   0  0  0  0  0  0  0  0  0  0  0  0
  152.2270  139.2580  154.9776 H   0  0  0  0  0  0  0  0  0  0  0  0
  149.8744  140.0261  155.9953 H   0  0  0  0  0  0  0  0  0  0  0  0
  151.1065  139.0274  156.7264 H   0  0  0  0  0  0  0  0  0  0  0  0
  151.1821  145.1537  157.4468 H   0  0  0  0  0  0  0  0  0  0  0  0
  152.0466  145.9984  159.6172 H   0  0  0  0  0  0  0  0  0  0  0  0
  152.8734  144.4119  161.3437 H   0  0  0  0  0  0  0  0  0  0  0  0
  152.8415  141.9605  160.9024 H   0  0  0  0  0  0  0  0  0  0  0  0
  151.7236  139.6268  159.9860 H   0  0  0  0  0  0  0  0  0  0  0  0
  151.8170  138.8123  158.4487 H   0  0  0  0  0  0  0  0  0  0  0  0
  154.2037  140.4827  159.1911 H   0  0  0  0  0  0  0  0  0  0  0  0
  154.0219  137.8936  158.1496 H   0  0  0  0  0  0  0  0  0  0  0  0
  153.0786  136.9625  160.0696 H   0  0  0  0  0  0  0  0  0  0  0  0
  153.6092  135.9164  162.2555 H   0  0  0  0  0  0  0  0  0  0  0  0
  154.8907  137.1858  163.9693 H   0  0  0  0  0  0  0  0  0  0  0  0
  155.1144  140.5643  161.3096 H   0  0  0  0  0  0  0  0  0  0  0  0
  1  2  1  0  0  0  0
  1 22  1  0  0  0  0
  2  3  1  0  0  0  0
  2 23  1  0  0  0  0
  2 24  1  0  0  0  0
  3 11  1  0  0  0  0
  3  4  2  0  0  0  0
  4  5  1  0  0  0  0
  5 10  2  0  0  0  0
  5  6  1  0  0  0  0
  6  7  2  0  0  0  0
  6 25  1  0  0  0  0
  7  8  1  0  0  0  0
  7 26  1  0  0  0  0
  8  9  2  0  0  0  0
  8 27  1  0  0  0  0
  9 10  1  0  0  0  0
  9 28  1  0  0  0  0
 10 11  1  0  0  0  0
 11 12  1  0  0  0  0
 12 13  1  0  0  0  0
 12 29  1  0  0  0  0
 12 30  1  0  0  0  0
 13 14  1  0  0  0  0
 13 15  1  0  0  0  0
 13 31  1  0  0  0  0
 14 32  1  0  0  0  0
 15 21  1  0  0  0  0
 15 16  2  0  0  0  0
 16 17  1  0  0  0  0
 16 33  1  0  0  0  0
 17 18  2  0  0  0  0
 17 34  1  0  0  0  0
 18 19  1  0  0  0  0
 18 35  1  0  0  0  0
 19 20  1  0  0  0  0
 19 21  2  0  0  0  0
 21 36  1  0  0  0  0
M  END
> <s_m_source_file>
AV-unprocessed.smi

> <i_m_source_file_index>
1919

> <i_lp_mmshare_version>
43012

> <i_f3d_flags>
0

> <s_epik_input>
W2NIXTFbY0hdW2NIXVtjSF1jKGMxMiluKGMobjIpW0NIMl1bT0hdKVtDSDJdW0NASF0oW09IXSljM1tjSF1bY0hdW2NIXWMoRilbY0hdMw==

> <s_epik_cmdline>
J2VwaWtfcHl0aG9uJywgJy1waCcsICc3LjAnLCAnLXRuJywgJzgnLCAnLW1hJywgJzIwMCcsICctbWV0YWxfYmluZGluZycsICctaW1hZScsICc8aW5maWxlLm1hZT4nLCAnLW9tYWUnLCAnPG91dGZpbGUubWFlPic=

> <r_epik_Ionization_Penalty>
0.0634732

> <r_epik_Ionization_Penalty_Charging>
0

> <r_epik_Ionization_Penalty_Neutral>
0.0634732

> <r_epik_State_Penalty>
0.0551572

> <r_epik_Charging_Adjusted_Penalty>
0.0551572

> <i_epik_Tot_Q>
0

> <i_epik_Tot_abs_Q>
0

> <r_epik_Metal_State_Penalty>
5.78034e-05

> <b_epik_Metal_Only>
0

> <s_lp_Force_Field>
OPLS_2005

> <r_lp_Energy>
10.9146

> <b_lp_Chiralities_Consistent>
1

> <s_lp_Variant>
AV-unprocessed.smi:1919-1

> <Gold.Version>
5.8.1

> <Gold.Id.Protein>
6NUR|6NUR_protein|mol2

> <Gold.PLP.Fitness>
50.8509

> <Gold.PLP.PLP>
-45.9240

> <Gold.PLP.part.hbond>
-2.0000

> <Gold.PLP.part.metal>
0.0000

> <Gold.PLP.part.buried>
-5.5967

> <Gold.PLP.part.nonpolar>
-38.5931

> <Gold.PLP.part.repulsive>
0.0938

> <Gold.PLP.ligand.clash>
0.0000

> <Gold.PLP.ligand.torsion>
0.5567

> <Gold.PLP.Chemscore.Hbond>
2.0000

> <Gold.PLP.Chemscore.CHOScore>
0.0000

> <Gold.PLP.Chemscore.Metal>
0.0000

> <Gold.Chemscore.Hbonds>
donor molecule, donor type, donor heavy atom, donor atom, acceptor molecule, acceptor atom, score
      P1  H  7989  7998       L1     1  1.00
      P1  H  7997  8009       L1    14  1.00

> <Gold.PLP.Chemscore.Internal.Correction>
0.0404

> <Gold.Rescore>
     Score         DG    S(hbond)    S(metal)    S(lipo)     H(rot)  DE(clash)    DE(int)     intcor
     18.76     -19.22       1.79        0.00     126.44       2.75       0.02       0.44       ----

> <Gold.Chemscore.Fitness>
18.7603

> <Gold.Chemscore.DG>
-19.2192

> <Gold.Chemscore.ZeroCoef>
-5.4800

> <Gold.Chemscore.Hbond>
1.7922

> <Gold.Chemscore.Metal>
0.0000

> <Gold.Chemscore.Lipo>
126.4380

> <Gold.Chemscore.Internal_Hbond>
0.0000

> <Gold.Chemscore.DEClash>
0.0174

> <Gold.Chemscore.DEInternal>
0.4415

> <Gold.Chemscore.Rot>
2.7500

> <Gold.Chemscore.Internal.Correction>
   9.000000E+99

> <Gold.Chemscore.Hbonds>
donor molecule, donor type, donor heavy atom, donor atom, acceptor molecule, acceptor atom, score
      P1  H  7989  7998       L1     1  0.75
      P1  H  7997  8009       L1    14  0.34

> <Gold.Chemscore.Hbond.Weighted>
-5.9859

> <Gold.Chemscore.Metal.Weighted>
-0.0000

> <Gold.Chemscore.Lipo.Weighted>
-14.7932

> <Gold.Chemscore.Internal_Hbond.Weighted>
0.0000

> <Gold.Chemscore.DEClash.Weighted>
0.0174

> <Gold.Chemscore.DEInternal.Weighted>
0.4415

> <Gold.Chemscore.Rot.Weighted>
7.0399

> <Gold.Chemscore.Internal.Correction.Weighted>
   9.000000E+99

> <Gold.Protein.RotatedTorsions>
[ 6907 6896 6895 6894 ] final -155.71 input  -60.11 | X-H torsion
[ 7974 7965 7964 7962 ] final  131.49 input  175.53 | X-H torsion
[ 8008 7997 7996 7995 ] final  142.83 input   59.86 | X-H torsion
[ 10167 10162 10161 10158 ] final  -28.80 input  -65.29 | X-H torsion
[ 10718 10713 10712 10709 ] final  -91.32 input   66.30 | X-H torsion
[ 10763 10752 10751 10750 ] final  -83.60 input  -60.55 | X-H torsion
[ 11005 11000 10999 10996 ] final  155.18 input  -57.11 | X-H torsion

> <Gold.Protein.ActiveResidues>
 VAL166  LYS551  ARG553  GLY616  TRP617  ASP618  TYR619  PRO620  LYS621  CYS622 
 ASP623  PHE694  ASN695  SER759  ASP760  ASP761  ALA762  ILE779  LEU786  VAL792 
 PHE793  MET794  SER795  GLU796  ALA797  LYS798  CYS799  TRP800  GLU811  SER814 

> <Gold.Protein.RotatedAtoms>
  151.2765  133.4230  159.2624 H   0  0  0  0  0  0  0  0  0  0  0  0  # atno 6907 bound_to 6896
  151.0398  134.9599  159.8166 H   0  0  0  0  0  0  0  0  0  0  0  0  # atno 6908 bound_to 6896
  152.5363  134.2724  159.9029 H   0  0  0  0  0  0  0  0  0  0  0  0  # atno 6909 bound_to 6896
  145.0068  139.4259  143.5265 H   0  0  0  0  0  0  0  0  0  0  0  0  # atno 7974 bound_to 7965
  156.2942  140.2278  156.4792 H   0  0  0  0  0  0  0  0  0  0  0  0  # atno 8008 bound_to 7997
  154.7868  140.0457  157.1191 H   0  0  0  0  0  0  0  0  0  0  0  0  # atno 8009 bound_to 7997
  154.9693  140.3064  155.4999 H   0  0  0  0  0  0  0  0  0  0  0  0  # atno 8010 bound_to 7997
  140.7266  143.3980  151.1314 H   0  0  0  0  0  0  0  0  0  0  0  0  # atno 10167 bound_to 10162
  155.9993  130.4943  150.5457 H   0  0  0  0  0  0  0  0  0  0  0  0  # atno 10718 bound_to 10713
  154.5897  135.5550  153.7266 H   0  0  0  0  0  0  0  0  0  0  0  0  # atno 10763 bound_to 10752
  153.0112  135.6340  154.1867 H   0  0  0  0  0  0  0  0  0  0  0  0  # atno 10764 bound_to 10752
  154.1808  135.2887  155.3032 H   0  0  0  0  0  0  0  0  0  0  0  0  # atno 10765 bound_to 10752
  140.1557  134.8644  157.2511 H   0  0  0  0  0  0  0  0  0  0  0  0  # atno 11005 bound_to 11000
  146.3462  139.9488  142.8731 LP  0  0  0  0  0  0  0  0  0  0  0  0  # atno 17320 bound_to 7965
  145.2078  140.9882  143.4118 LP  0  0  0  0  0  0  0  0  0  0  0  0  # atno 17321 bound_to 7965
  139.7596  143.8656  152.3097 LP  0  0  0  0  0  0  0  0  0  0  0  0  # atno 17342 bound_to 10162
  139.8537  144.7152  150.9183 LP  0  0  0  0  0  0  0  0  0  0  0  0  # atno 17343 bound_to 10162
  157.3387  131.0713  151.1805 LP  0  0  0  0  0  0  0  0  0  0  0  0  # atno 17370 bound_to 10713
  157.2660  130.6682  149.5997 LP  0  0  0  0  0  0  0  0  0  0  0  0  # atno 17371 bound_to 10713
  140.2550  134.3638  155.7427 LP  0  0  0  0  0  0  0  0  0  0  0  0  # atno 17394 bound_to 11000
  141.2204  133.7338  156.8994 LP  0  0  0  0  0  0  0  0  0  0  0  0  # atno 17395 bound_to 11000

$$$$
