AV-unprocessed.smi:876|AV-procd|sdf|4021|dock9
  -GOLD-   22720 1513D 1   1.00000     0.00000
 Structure written by MMmdl.
 41 42  0  0  0  0  0  0  0  0  2 V2000
  152.0246  142.5932  158.5676 C   0  0  0  0  0  0  0  0  0  0  0  0
  151.3681  142.9204  157.3084 N   0  0  0  0  0  0  0  0  0  0  0  0
  151.3556  144.2952  156.8214 C   0  0  0  0  0  0  0  0  0  0  0  0
  150.8294  141.8885  156.5096 C   0  0  0  0  0  0  0  0  0  0  0  0
  151.4993  140.6638  156.2682 C   0  0  0  0  0  0  0  0  0  0  0  0
  150.8971  139.6782  155.4591 C   0  0  0  0  0  0  0  0  0  0  0  0
  149.6180  139.9186  154.9000 C   0  0  0  0  0  0  0  0  0  0  0  0
  148.9289  139.0031  154.0594 N   0  0  0  0  0  0  0  0  0  0  0  0
  147.7011  139.1180  153.5242 C   0  0  0  0  0  0  0  0  0  0  0  0
  146.9500  140.0828  153.6663 O   0  0  0  0  0  0  0  0  0  0  0  0
  147.3918  138.0437  152.7849 N   0  0  0  0  0  0  0  0  0  0  0  0
  146.1415  137.8657  152.0553 C   0  0  2  0  0  0  0  0  0  0  0  0
  145.0301  137.4896  152.9962 C   0  0  0  0  0  0  0  0  0  0  0  0
  144.4642  136.3260  152.6847 C   0  0  0  0  0  0  0  0  0  0  0  0
  145.0957  135.6698  151.4834 C   0  0  1  0  0  0  0  0  0  0  0  0
  144.0810  135.3682  150.3669 C   0  0  0  0  0  0  0  0  0  0  0  0
  143.4334  134.1352  150.6022 O   0  0  0  0  0  0  0  0  0  0  0  0
  146.1913  136.6799  151.0556 C   0  0  0  0  0  0  0  0  0  0  0  0
  149.0008  141.1586  155.1591 C   0  0  0  0  0  0  0  0  0  0  0  0
  149.6136  142.0741  155.9398 N   0  3  0  0  0  0  0  0  0  0  0  0
  145.8648  138.7912  151.5470 H   0  0  0  0  0  0  0  0  0  0  0  0
  145.5659  134.7421  151.8130 H   0  0  0  0  0  0  0  0  0  0  0  0
  152.8619  141.9152  158.3994 H   0  0  0  0  0  0  0  0  0  0  0  0
  151.3224  142.1180  159.2535 H   0  0  0  0  0  0  0  0  0  0  0  0
  152.4130  143.4870  159.0562 H   0  0  0  0  0  0  0  0  0  0  0  0
  150.3372  144.6158  156.5994 H   0  0  0  0  0  0  0  0  0  0  0  0
  151.9541  144.3852  155.9142 H   0  0  0  0  0  0  0  0  0  0  0  0
  151.7649  144.9823  157.5622 H   0  0  0  0  0  0  0  0  0  0  0  0
  152.4734  140.4621  156.6884 H   0  0  0  0  0  0  0  0  0  0  0  0
  151.4374  138.7627  155.2746 H   0  0  0  0  0  0  0  0  0  0  0  0
  149.4553  138.1865  153.7849 H   0  0  0  0  0  0  0  0  0  0  0  0
  148.0689  137.2981  152.7146 H   0  0  0  0  0  0  0  0  0  0  0  0
  144.7350  138.1218  153.8209 H   0  0  0  0  0  0  0  0  0  0  0  0
  143.6485  135.8691  153.2257 H   0  0  0  0  0  0  0  0  0  0  0  0
  143.3334  136.1593  150.2960 H   0  0  0  0  0  0  0  0  0  0  0  0
  144.5861  135.3134  149.4020 H   0  0  0  0  0  0  0  0  0  0  0  0
  142.6574  134.0961  150.0640 H   0  0  0  0  0  0  0  0  0  0  0  0
  146.0208  137.0435  150.0413 H   0  0  0  0  0  0  0  0  0  0  0  0
  147.1680  136.1935  151.0498 H   0  0  0  0  0  0  0  0  0  0  0  0
  148.0334  141.4454  154.7724 H   0  0  0  0  0  0  0  0  0  0  0  0
  149.1325  142.9574  156.1101 H   0  0  0  0  0  0  0  0  0  0  0  0
  1  2  1  0  0  0  0
  1 23  1  0  0  0  0
  1 24  1  0  0  0  0
  1 25  1  0  0  0  0
  2  3  1  0  0  0  0
  2  4  1  0  0  0  0
  3 26  1  0  0  0  0
  3 27  1  0  0  0  0
  3 28  1  0  0  0  0
  4 20  1  0  0  0  0
  4  5  2  0  0  0  0
  5  6  1  0  0  0  0
  5 29  1  0  0  0  0
  6  7  2  0  0  0  0
  6 30  1  0  0  0  0
  7  8  1  0  0  0  0
  7 19  1  0  0  0  0
  8  9  1  0  0  0  0
  8 31  1  0  0  0  0
  9 10  2  0  0  0  0
  9 11  1  0  0  0  0
 11 12  1  0  0  0  0
 11 32  1  0  0  0  0
 12 21  1  0  0  0  0
 12 18  1  0  0  0  0
 12 13  1  0  0  0  0
 13 14  2  0  0  0  0
 13 33  1  0  0  0  0
 14 15  1  0  0  0  0
 14 34  1  0  0  0  0
 15 22  1  0  0  0  0
 15 16  1  0  0  0  0
 15 18  1  0  0  0  0
 16 17  1  0  0  0  0
 16 35  1  0  0  0  0
 16 36  1  0  0  0  0
 17 37  1  0  0  0  0
 18 38  1  0  0  0  0
 18 39  1  0  0  0  0
 19 20  2  0  0  0  0
 19 40  1  0  0  0  0
 20 41  1  0  0  0  0
M  CHG  1  20   1
M  END
> <s_m_source_file>
AV-unprocessed.smi

> <i_m_source_file_index>
876

> <i_lp_mmshare_version>
43012

> <i_f3d_flags>
0

> <s_epik_input>
W0NIM11OKFtDSDNdKWMxW2NIXVtjSF1jKFtjSF1uMSlbTkhdQyg9TylbTkhdW0NAQEhdMltDSF09W0NIXVtDQEBIXShbQ0gyXTIpW0NIMl1bT0hd

> <s_epik_cmdline>
J2VwaWtfcHl0aG9uJywgJy1waCcsICc3LjAnLCAnLXRuJywgJzgnLCAnLW1hJywgJzIwMCcsICctbWV0YWxfYmluZGluZycsICctaW1hZScsICc8aW5maWxlLm1hZT4nLCAnLW9tYWUnLCAnPG91dGZpbGUubWFlPic=

> <r_lp_tautomer_probability>
0.999994

> <r_epik_Ionization_Penalty>
0.257994

> <r_epik_Ionization_Penalty_Charging>
0.257974

> <r_epik_Ionization_Penalty_Neutral>
1.95938e-05

> <r_epik_State_Penalty>
0.249586

> <r_epik_Charging_Adjusted_Penalty>
0.50756

> <i_epik_Tot_Q>
1

> <i_epik_Tot_abs_Q>
1

> <r_epik_Metal_State_Penalty>
0.538508

> <b_epik_Metal_Only>
0

> <s_lp_Force_Field>
OPLS_2005

> <r_lp_Energy>
26.2592

> <b_lp_Chiralities_Consistent>
1

> <s_lp_Variant>
AV-unprocessed.smi:876-3

> <Gold.Version>
5.8.1

> <Gold.Id.Protein>
6NUR|6NUR_protein|mol2

> <Gold.PLP.Fitness>
43.4577

> <Gold.PLP.PLP>
-33.8423

> <Gold.PLP.part.hbond>
-3.7379

> <Gold.PLP.part.metal>
0.0000

> <Gold.PLP.part.buried>
2.2535

> <Gold.PLP.part.nonpolar>
-34.1852

> <Gold.PLP.part.repulsive>
0.3904

> <Gold.PLP.ligand.clash>
0.0000

> <Gold.PLP.ligand.torsion>
1.1797

> <Gold.PLP.Chemscore.Hbond>
3.9840

> <Gold.PLP.Chemscore.CHOScore>
0.0000

> <Gold.PLP.Chemscore.Metal>
0.0000

> <Gold.Chemscore.Hbonds>
donor molecule, donor type, donor heavy atom, donor atom, acceptor molecule, acceptor atom, score
      L1  H    11    32       P1  7948  1.00
      L1  H    17    37       P1 10186  1.00
      L1  H    20    41       P1  8028  1.95

> <Gold.PLP.Chemscore.Internal.Correction>
0.0228

> <Gold.Rescore>
     Score         DG    S(hbond)    S(metal)    S(lipo)     H(rot)  DE(clash)    DE(int)     intcor
     15.91     -20.30       2.85        0.00      85.10       1.82       1.89       2.49       ----

> <Gold.Chemscore.Fitness>
15.9146

> <Gold.Chemscore.DG>
-20.2968

> <Gold.Chemscore.ZeroCoef>
-5.4800

> <Gold.Chemscore.Hbond>
2.8499

> <Gold.Chemscore.Metal>
0.0000

> <Gold.Chemscore.Lipo>
85.1006

> <Gold.Chemscore.Internal_Hbond>
0.0000

> <Gold.Chemscore.DEClash>
1.8927

> <Gold.Chemscore.DEInternal>
2.4896

> <Gold.Chemscore.Rot>
1.8197

> <Gold.Chemscore.Internal.Correction>
   9.000000E+99

> <Gold.Chemscore.Hbonds>
donor molecule, donor type, donor heavy atom, donor atom, acceptor molecule, acceptor atom, score
      L1  H    11    32       P1  7948  0.95
      L1  H    17    37       P1 10186  0.98
      L1  H    20    41       P1  8028  0.93

> <Gold.Chemscore.Hbond.Weighted>
-9.5186

> <Gold.Chemscore.Metal.Weighted>
-0.0000

> <Gold.Chemscore.Lipo.Weighted>
-9.9568

> <Gold.Chemscore.Internal_Hbond.Weighted>
0.0000

> <Gold.Chemscore.DEClash.Weighted>
1.8927

> <Gold.Chemscore.DEInternal.Weighted>
2.4896

> <Gold.Chemscore.Rot.Weighted>
4.6585

> <Gold.Chemscore.Internal.Correction.Weighted>
   9.000000E+99

> <Gold.Protein.RotatedTorsions>
[ 6907 6896 6895 6894 ] final   19.52 input  -60.11 | X-H torsion
[ 7974 7965 7964 7962 ] final  -38.93 input  175.53 | X-H torsion
[ 8008 7997 7996 7995 ] final -175.44 input   59.86 | X-H torsion
[ 10167 10162 10161 10158 ] final -128.53 input  -65.29 | X-H torsion
[ 10718 10713 10712 10709 ] final  139.80 input   66.30 | X-H torsion
[ 10763 10752 10751 10750 ] final   76.35 input  -60.55 | X-H torsion
[ 11005 11000 10999 10996 ] final  -55.20 input  -57.11 | X-H torsion

> <Gold.Protein.ActiveResidues>
 VAL166  LYS551  ARG553  GLY616  TRP617  ASP618  TYR619  PRO620  LYS621  CYS622 
 ASP623  PHE694  ASN695  SER759  ASP760  ASP761  ALA762  ILE779  LEU786  VAL792 
 PHE793  MET794  SER795  GLU796  ALA797  LYS798  CYS799  TRP800  GLU811  SER814 

> <Gold.Protein.RotatedAtoms>
  151.8821  135.0449  160.0489 H   0  0  0  0  0  0  0  0  0  0  0  0  # atno 6907 bound_to 6896
  152.2504  133.5206  159.5330 H   0  0  0  0  0  0  0  0  0  0  0  0  # atno 6908 bound_to 6896
  150.7082  134.0884  159.3965 H   0  0  0  0  0  0  0  0  0  0  0  0  # atno 6909 bound_to 6896
  146.0442  140.6568  142.9072 H   0  0  0  0  0  0  0  0  0  0  0  0  # atno 7974 bound_to 7965
  155.9826  140.1185  157.0713 H   0  0  0  0  0  0  0  0  0  0  0  0  # atno 8008 bound_to 7997
  154.4187  140.1141  156.5524 H   0  0  0  0  0  0  0  0  0  0  0  0  # atno 8009 bound_to 7997
  155.6451  140.3473  155.4730 H   0  0  0  0  0  0  0  0  0  0  0  0  # atno 8010 bound_to 7997
  139.9493  143.6074  152.2480 H   0  0  0  0  0  0  0  0  0  0  0  0  # atno 10167 bound_to 10162
  157.4104  131.1027  151.0460 H   0  0  0  0  0  0  0  0  0  0  0  0  # atno 10718 bound_to 10713
  153.0719  135.4954  154.8323 H   0  0  0  0  0  0  0  0  0  0  0  0  # atno 10763 bound_to 10752
  154.7035  135.3006  154.9308 H   0  0  0  0  0  0  0  0  0  0  0  0  # atno 10764 bound_to 10752
  154.0025  135.6764  153.4813 H   0  0  0  0  0  0  0  0  0  0  0  0  # atno 10765 bound_to 10752
  141.1062  133.6613  156.4433 H   0  0  0  0  0  0  0  0  0  0  0  0  # atno 11005 bound_to 11000
  144.7090  140.3964  143.7096 LP  0  0  0  0  0  0  0  0  0  0  0  0  # atno 17320 bound_to 7965
  145.6833  139.1623  143.2688 LP  0  0  0  0  0  0  0  0  0  0  0  0  # atno 17321 bound_to 7965
  139.6641  144.7662  151.1907 LP  0  0  0  0  0  0  0  0  0  0  0  0  # atno 17342 bound_to 10162
  140.7587  143.5965  150.8743 LP  0  0  0  0  0  0  0  0  0  0  0  0  # atno 17343 bound_to 10162
  157.1426  130.6149  149.5559 LP  0  0  0  0  0  0  0  0  0  0  0  0  # atno 17370 bound_to 10713
  155.9849  130.4876  150.7005 LP  0  0  0  0  0  0  0  0  0  0  0  0  # atno 17371 bound_to 10713
  140.4895  134.6589  157.5205 LP  0  0  0  0  0  0  0  0  0  0  0  0  # atno 17394 bound_to 11000
  139.9934  134.6950  155.9651 LP  0  0  0  0  0  0  0  0  0  0  0  0  # atno 17395 bound_to 11000

$$$$
