AV-unprocessed.smi:1533|AV-procd|sdf|6163|dock6
  -GOLD-   22720 6313D 1   1.00000     0.00000
 Structure written by MMmdl.
 37 39  0  0  0  0  0  0  0  0  1 V2000
  153.5207  132.0585  157.1610 C   0  0  0  0  0  0  0  0  0  0  0  0
  152.0683  131.9247  156.8558 C   0  0  0  0  0  0  0  0  0  0  0  0
  151.1524  132.0752  157.8047 N   0  0  0  0  0  0  0  0  0  0  0  0
  149.9440  131.8833  157.1201 O   0  0  0  0  0  0  0  0  0  0  0  0
  150.2844  131.6288  155.8331 C   0  0  0  0  0  0  0  0  0  0  0  0
  149.2008  131.4442  154.8201 C   0  0  0  0  0  0  0  0  0  0  0  0
  149.1032  132.5865  153.7907 C   0  0  0  0  0  0  0  0  0  0  0  0
  148.2381  132.2525  152.6614 N   0  0  0  0  0  0  0  0  0  0  0  0
  146.9678  132.6574  152.5041 C   0  0  0  0  0  0  0  0  0  0  0  0
  146.3874  133.3777  153.3175 O   0  0  0  0  0  0  0  0  0  0  0  0
  146.2421  132.1296  151.2542 C   0  0  1  0  0  0  0  0  0  0  0  0
  144.9965  131.2586  151.5521 C   0  0  0  0  0  0  0  0  0  0  0  0
  143.8952  131.9318  150.7114 C   0  0  1  0  0  0  0  0  0  0  0  0
  143.4909  133.2657  151.3665 C   0  0  0  0  0  0  0  0  0  0  0  0
  144.6877  134.1788  151.0432 C   0  0  0  0  0  0  0  0  0  0  0  0
  145.6598  133.2220  150.3182 C   0  0  2  0  0  0  0  0  0  0  0  0
  144.6763  132.4013  149.4890 C   0  0  0  0  0  0  0  0  0  0  0  0
  151.5958  131.6483  155.6094 N   0  0  0  0  0  0  0  0  0  0  0  0
  153.8146  131.3379  157.9246 H   0  0  0  0  0  0  0  0  0  0  0  0
  153.7384  133.0622  157.5268 H   0  0  0  0  0  0  0  0  0  0  0  0
  154.1211  131.8791  156.2687 H   0  0  0  0  0  0  0  0  0  0  0  0
  149.3712  130.4997  154.3024 H   0  0  0  0  0  0  0  0  0  0  0  0
  148.2511  131.3379  155.3454 H   0  0  0  0  0  0  0  0  0  0  0  0
  148.7647  133.5023  154.2785 H   0  0  0  0  0  0  0  0  0  0  0  0
  150.0962  132.8039  153.3973 H   0  0  0  0  0  0  0  0  0  0  0  0
  148.6323  131.6554  151.9488 H   0  0  0  0  0  0  0  0  0  0  0  0
  146.9483  131.5247  150.6819 H   0  0  0  0  0  0  0  0  0  0  0  0
  145.1644  130.2360  151.2116 H   0  0  0  0  0  0  0  0  0  0  0  0
  144.7261  131.2043  152.6076 H   0  0  0  0  0  0  0  0  0  0  0  0
  143.0499  131.2775  150.4963 H   0  0  0  0  0  0  0  0  0  0  0  0
  142.5763  133.6598  150.9219 H   0  0  0  0  0  0  0  0  0  0  0  0
  143.3253  133.1632  152.4397 H   0  0  0  0  0  0  0  0  0  0  0  0
  144.3764  134.9780  150.3694 H   0  0  0  0  0  0  0  0  0  0  0  0
  145.1097  134.6569  151.9261 H   0  0  0  0  0  0  0  0  0  0  0  0
  146.4193  133.7364  149.7285 H   0  0  0  0  0  0  0  0  0  0  0  0
  145.1466  131.5862  148.9359 H   0  0  0  0  0  0  0  0  0  0  0  0
  144.0808  133.0027  148.7994 H   0  0  0  0  0  0  0  0  0  0  0  0
  1  2  1  0  0  0  0
  1 19  1  0  0  0  0
  1 20  1  0  0  0  0
  1 21  1  0  0  0  0
  2 18  1  0  0  0  0
  2  3  2  0  0  0  0
  3  4  1  0  0  0  0
  4  5  1  0  0  0  0
  5  6  1  0  0  0  0
  5 18  2  0  0  0  0
  6  7  1  0  0  0  0
  6 22  1  0  0  0  0
  6 23  1  0  0  0  0
  7  8  1  0  0  0  0
  7 24  1  0  0  0  0
  7 25  1  0  0  0  0
  8  9  1  0  0  0  0
  8 26  1  0  0  0  0
  9 10  2  0  0  0  0
  9 11  1  0  0  0  0
 11 16  1  0  0  0  0
 11 12  1  0  0  0  0
 11 27  1  0  0  0  0
 12 13  1  0  0  0  0
 12 28  1  0  0  0  0
 12 29  1  0  0  0  0
 13 17  1  0  0  0  0
 13 14  1  0  0  0  0
 13 30  1  0  0  0  0
 14 15  1  0  0  0  0
 14 31  1  0  0  0  0
 14 32  1  0  0  0  0
 15 16  1  0  0  0  0
 15 33  1  0  0  0  0
 15 34  1  0  0  0  0
 16 17  1  0  0  0  0
 16 35  1  0  0  0  0
 17 36  1  0  0  0  0
 17 37  1  0  0  0  0
M  END
> <s_m_source_file>
AV-unprocessed.smi

> <i_m_source_file_index>
1533

> <i_lp_mmshare_version>
43012

> <i_f3d_flags>
0

> <s_epik_input>
W0NIM11jMW5vYyhuMSlbQ0gyXVtDSDJdW05IXUMoPU8pW0NASF0oW0NIMl1bQ0BASF0yMylbQ0BASF0oW0NIMl0zKVtDSDJdW0NIMl0y

> <s_epik_cmdline>
J2VwaWtfcHl0aG9uJywgJy1waCcsICc3LjAnLCAnLXRuJywgJzgnLCAnLW1hJywgJzIwMCcsICctbWV0YWxfYmluZGluZycsICctaW1hZScsICc8aW5maWxlLm1hZT4nLCAnLW9tYWUnLCAnPG91dGZpbGUubWFlPic=

> <r_lp_tautomer_probability>
1

> <r_epik_Ionization_Penalty>
1.90116e-08

> <r_epik_Ionization_Penalty_Charging>
0

> <r_epik_Ionization_Penalty_Neutral>
1.90116e-08

> <r_epik_State_Penalty>
-0

> <r_epik_Charging_Adjusted_Penalty>
0

> <i_epik_Tot_Q>
0

> <i_epik_Tot_abs_Q>
0

> <r_epik_Metal_State_Penalty>
-0

> <b_epik_Metal_Only>
0

> <s_lp_Force_Field>
OPLS_2005

> <r_lp_Energy>
44.7071

> <b_lp_Chiralities_Consistent>
1

> <s_lp_Variant>
AV-unprocessed.smi:1533-2

> <Gold.Version>
5.8.1

> <Gold.Id.Protein>
6NUR|6NUR_protein|mol2

> <Gold.PLP.Fitness>
39.0780

> <Gold.PLP.PLP>
-33.5290

> <Gold.PLP.part.hbond>
-2.0000

> <Gold.PLP.part.metal>
0.0000

> <Gold.PLP.part.buried>
-2.5309

> <Gold.PLP.part.nonpolar>
-27.7578

> <Gold.PLP.part.repulsive>
0.0945

> <Gold.PLP.ligand.clash>
0.0000

> <Gold.PLP.ligand.torsion>
0.2356

> <Gold.PLP.Chemscore.Hbond>
2.0000

> <Gold.PLP.Chemscore.CHOScore>
0.0000

> <Gold.PLP.Chemscore.Metal>
0.0000

> <Gold.Chemscore.Hbonds>
donor molecule, donor type, donor heavy atom, donor atom, acceptor molecule, acceptor atom, score
      L1  H     8    26       P1 10747  1.00
      P1  H  6896  6907       L1     3  1.00

> <Gold.PLP.Chemscore.Internal.Correction>
0.0202

> <Gold.Rescore>
     Score         DG    S(hbond)    S(metal)    S(lipo)     H(rot)  DE(clash)    DE(int)     intcor
     14.77     -16.35       1.94        0.00      77.94       1.85       0.11       1.47       ----

> <Gold.Chemscore.Fitness>
14.7667

> <Gold.Chemscore.DG>
-16.3480

> <Gold.Chemscore.ZeroCoef>
-5.4800

> <Gold.Chemscore.Hbond>
1.9410

> <Gold.Chemscore.Metal>
0.0000

> <Gold.Chemscore.Lipo>
77.9363

> <Gold.Chemscore.Internal_Hbond>
0.0000

> <Gold.Chemscore.DEClash>
0.1126

> <Gold.Chemscore.DEInternal>
1.4688

> <Gold.Chemscore.Rot>
1.8490

> <Gold.Chemscore.Internal.Correction>
   9.000000E+99

> <Gold.Chemscore.Hbonds>
donor molecule, donor type, donor heavy atom, donor atom, acceptor molecule, acceptor atom, score
      L1  H     8    26       P1 10747  0.99
      P1  H  6896  6907       L1     3  0.86

> <Gold.Chemscore.Hbond.Weighted>
-6.4829

> <Gold.Chemscore.Metal.Weighted>
-0.0000

> <Gold.Chemscore.Lipo.Weighted>
-9.1185

> <Gold.Chemscore.Internal_Hbond.Weighted>
0.0000

> <Gold.Chemscore.DEClash.Weighted>
0.1126

> <Gold.Chemscore.DEInternal.Weighted>
1.4688

> <Gold.Chemscore.Rot.Weighted>
4.7334

> <Gold.Chemscore.Internal.Correction.Weighted>
   9.000000E+99

> <Gold.Protein.RotatedTorsions>
[ 6907 6896 6895 6894 ] final  178.21 input  -60.11 | X-H torsion
[ 7974 7965 7964 7962 ] final  -27.35 input  175.53 | X-H torsion
[ 8008 7997 7996 7995 ] final   26.51 input   59.86 | X-H torsion
[ 10167 10162 10161 10158 ] final -110.26 input  -65.29 | X-H torsion
[ 10718 10713 10712 10709 ] final   30.86 input   66.30 | X-H torsion
[ 10763 10752 10751 10750 ] final    0.19 input  -60.55 | X-H torsion
[ 11005 11000 10999 10996 ] final -123.10 input  -57.11 | X-H torsion

> <Gold.Protein.ActiveResidues>
 VAL166  LYS551  ARG553  GLY616  TRP617  ASP618  TYR619  PRO620  LYS621  CYS622 
 ASP623  PHE694  ASN695  SER759  ASP760  ASP761  ALA762  ILE779  LEU786  VAL792 
 PHE793  MET794  SER795  GLU796  ALA797  LYS798  CYS799  TRP800  GLU811  SER814 

> <Gold.Protein.RotatedAtoms>
  151.6915  133.3311  159.3243 H   0  0  0  0  0  0  0  0  0  0  0  0  # atno 6907 bound_to 6896
  150.7777  134.6694  159.6393 H   0  0  0  0  0  0  0  0  0  0  0  0  # atno 6908 bound_to 6896
  152.3824  134.6573  160.0190 H   0  0  0  0  0  0  0  0  0  0  0  0  # atno 6909 bound_to 6896
  146.1364  140.5140  142.8671 H   0  0  0  0  0  0  0  0  0  0  0  0  # atno 7974 bound_to 7965
  155.0284  140.3155  155.4767 H   0  0  0  0  0  0  0  0  0  0  0  0  # atno 8008 bound_to 7997
  156.2879  140.2185  156.5347 H   0  0  0  0  0  0  0  0  0  0  0  0  # atno 8009 bound_to 7997
  154.7392  140.0475  157.0783 H   0  0  0  0  0  0  0  0  0  0  0  0  # atno 8010 bound_to 7997
  140.1463  143.4236  152.1526 H   0  0  0  0  0  0  0  0  0  0  0  0  # atno 10167 bound_to 10162
  157.2650  130.7180  149.6474 H   0  0  0  0  0  0  0  0  0  0  0  0  # atno 10718 bound_to 10713
  153.3238  135.6971  153.7007 H   0  0  0  0  0  0  0  0  0  0  0  0  # atno 10763 bound_to 10752
  153.5836  135.3493  155.2885 H   0  0  0  0  0  0  0  0  0  0  0  0  # atno 10764 bound_to 10752
  154.8603  135.4301  154.2409 H   0  0  0  0  0  0  0  0  0  0  0  0  # atno 10765 bound_to 10752
  140.9944  134.0492  157.3615 H   0  0  0  0  0  0  0  0  0  0  0  0  # atno 11005 bound_to 11000
  144.7744  140.5708  143.6648 LP  0  0  0  0  0  0  0  0  0  0  0  0  # atno 17320 bound_to 7965
  145.5147  139.1478  143.3585 LP  0  0  0  0  0  0  0  0  0  0  0  0  # atno 17321 bound_to 7965
  139.5447  144.7288  151.4621 LP  0  0  0  0  0  0  0  0  0  0  0  0  # atno 17342 bound_to 10162
  140.6729  143.8253  150.7022 LP  0  0  0  0  0  0  0  0  0  0  0  0  # atno 17343 bound_to 10162
  155.9663  130.4385  150.5222 LP  0  0  0  0  0  0  0  0  0  0  0  0  # atno 17370 bound_to 10713
  157.3134  131.0668  151.1984 LP  0  0  0  0  0  0  0  0  0  0  0  0  # atno 17371 bound_to 10713
  139.9008  135.0163  156.7257 LP  0  0  0  0  0  0  0  0  0  0  0  0  # atno 17394 bound_to 11000
  140.6988  133.9324  155.8011 LP  0  0  0  0  0  0  0  0  0  0  0  0  # atno 17395 bound_to 11000

$$$$
