AV-unprocessed.smi:2145|AV-procd|sdf|8737|dock2
  -GOLD-   2272011503D 1   1.00000     0.00000
 Structure written by MMmdl.
 45 47  0  0  0  0  0  0  0  0  2 V2000
  149.7561  129.7361  154.3044 C   0  0  0  0  0  0  0  0  0  0  0  0
  150.6829  130.5870  155.1710 C   0  0  0  0  0  0  0  0  0  0  0  0
  151.6111  130.0355  155.7618 O   0  0  0  0  0  0  0  0  0  0  0  0
  150.4097  132.0501  155.2530 C   0  0  0  0  0  0  0  0  0  0  0  0
  151.0898  132.8308  156.2141 C   0  0  0  0  0  0  0  0  0  0  0  0
  150.8506  134.2145  156.3119 C   0  0  0  0  0  0  0  0  0  0  0  0
  149.9318  134.8518  155.4554 C   0  0  0  0  0  0  0  0  0  0  0  0
  149.7613  136.2094  155.6194 O   0  0  0  0  0  0  0  0  0  0  0  0
  150.8389  136.9656  156.1555 C   0  0  0  0  0  0  0  0  0  0  0  0
  150.4012  138.4347  156.2576 C   0  0  1  0  0  0  0  0  0  0  0  0
  149.6536  138.5957  157.4467 O   0  0  0  0  0  0  0  0  0  0  0  0
  151.6059  139.3966  156.2827 C   0  0  0  0  0  0  0  0  0  0  0  0
  151.2148  140.7941  156.5291 N   0  0  0  0  0  0  0  0  0  0  0  0
  150.3114  141.5759  155.8718 C   0  0  0  0  0  0  0  0  0  0  0  0
  149.4773  141.1799  154.7003 C   0  0  0  0  0  0  0  0  0  0  0  0
  150.3096  142.7940  156.4826 N   0  3  0  0  0  0  0  0  0  0  0  0
  151.2183  142.7924  157.5416 C   0  0  0  0  0  0  0  0  0  0  0  0
  151.5615  143.7911  158.4478 C   0  0  0  0  0  0  0  0  0  0  0  0
  152.5312  143.4603  159.4168 C   0  0  0  0  0  0  0  0  0  0  0  0
  153.1187  142.1793  159.4596 C   0  0  0  0  0  0  0  0  0  0  0  0
  152.7632  141.1751  158.5351 C   0  0  0  0  0  0  0  0  0  0  0  0
  151.8045  141.5100  157.5787 C   0  0  0  0  0  0  0  0  0  0  0  0
  149.2468  134.0711  154.4920 C   0  0  0  0  0  0  0  0  0  0  0  0
  149.4839  132.6861  154.3933 C   0  0  0  0  0  0  0  0  0  0  0  0
  148.7309  129.7930  154.6706 H   0  0  0  0  0  0  0  0  0  0  0  0
  150.0677  128.6915  154.3250 H   0  0  0  0  0  0  0  0  0  0  0  0
  149.7804  130.0779  153.2695 H   0  0  0  0  0  0  0  0  0  0  0  0
  151.8032  132.3775  156.8873 H   0  0  0  0  0  0  0  0  0  0  0  0
  151.3809  134.7940  157.0534 H   0  0  0  0  0  0  0  0  0  0  0  0
  151.1560  136.5861  157.1288 H   0  0  0  0  0  0  0  0  0  0  0  0
  151.6870  136.8878  155.4731 H   0  0  0  0  0  0  0  0  0  0  0  0
  149.7670  138.6839  155.4059 H   0  0  0  0  0  0  0  0  0  0  0  0
  150.1935  138.3304  158.1760 H   0  0  0  0  0  0  0  0  0  0  0  0
  152.3451  139.0895  157.0229 H   0  0  0  0  0  0  0  0  0  0  0  0
  152.1178  139.3746  155.3200 H   0  0  0  0  0  0  0  0  0  0  0  0
  148.8089  141.9916  154.4125 H   0  0  0  0  0  0  0  0  0  0  0  0
  148.8743  140.3052  154.9448 H   0  0  0  0  0  0  0  0  0  0  0  0
  150.1152  140.9377  153.8502 H   0  0  0  0  0  0  0  0  0  0  0  0
  151.1108  144.7723  158.4184 H   0  0  0  0  0  0  0  0  0  0  0  0
  152.8289  144.2030  160.1429 H   0  0  0  0  0  0  0  0  0  0  0  0
  153.8563  141.9611  160.2183 H   0  0  0  0  0  0  0  0  0  0  0  0
  153.2149  140.1955  158.5827 H   0  0  0  0  0  0  0  0  0  0  0  0
  148.5305  134.5111  153.8150 H   0  0  0  0  0  0  0  0  0  0  0  0
  148.9396  132.1289  153.6456 H   0  0  0  0  0  0  0  0  0  0  0  0
  149.7262  143.5690  156.1944 H   0  0  0  0  0  0  0  0  0  0  0  0
  1  2  1  0  0  0  0
  1 25  1  0  0  0  0
  1 26  1  0  0  0  0
  1 27  1  0  0  0  0
  2  3  2  0  0  0  0
  2  4  1  0  0  0  0
  4 24  1  0  0  0  0
  4  5  2  0  0  0  0
  5  6  1  0  0  0  0
  5 28  1  0  0  0  0
  6  7  2  0  0  0  0
  6 29  1  0  0  0  0
  7  8  1  0  0  0  0
  7 23  1  0  0  0  0
  8  9  1  0  0  0  0
  9 10  1  0  0  0  0
  9 30  1  0  0  0  0
  9 31  1  0  0  0  0
 10 11  1  0  0  0  0
 10 12  1  0  0  0  0
 10 32  1  0  0  0  0
 11 33  1  0  0  0  0
 12 13  1  0  0  0  0
 12 34  1  0  0  0  0
 12 35  1  0  0  0  0
 13 22  1  0  0  0  0
 13 14  1  0  0  0  0
 14 15  1  0  0  0  0
 14 16  2  0  0  0  0
 15 36  1  0  0  0  0
 15 37  1  0  0  0  0
 15 38  1  0  0  0  0
 16 17  1  0  0  0  0
 16 45  1  0  0  0  0
 17 22  2  0  0  0  0
 17 18  1  0  0  0  0
 18 19  2  0  0  0  0
 18 39  1  0  0  0  0
 19 20  1  0  0  0  0
 19 40  1  0  0  0  0
 20 21  2  0  0  0  0
 20 41  1  0  0  0  0
 21 22  1  0  0  0  0
 21 42  1  0  0  0  0
 23 24  2  0  0  0  0
 23 43  1  0  0  0  0
 24 44  1  0  0  0  0
M  CHG  1  16   1
M  END
> <s_m_source_file>
AV-unprocessed.smi

> <i_m_source_file_index>
2145

> <i_lp_mmshare_version>
43012

> <i_f3d_flags>
0

> <s_epik_input>
W0NIM11DKD1PKWMxW2NIXVtjSF1jKFtjSF1bY0hdMSlPW0NIMl1bQ0BIXShbT0hdKVtDSDJdbihjKG4yKVtDSDNdKWMoYzIzKVtjSF1bY0hdW2NIXVtjSF0z

> <s_epik_cmdline>
J2VwaWtfcHl0aG9uJywgJy1waCcsICc3LjAnLCAnLXRuJywgJzgnLCAnLW1hJywgJzIwMCcsICctbWV0YWxfYmluZGluZycsICctaW1hZScsICc8aW5maWxlLm1hZT4nLCAnLW9tYWUnLCAnPG91dGZpbGUubWFlPic=

> <r_lp_tautomer_probability>
0.99995

> <r_epik_Ionization_Penalty>
1.05477

> <r_epik_Ionization_Penalty_Charging>
1.05477

> <r_epik_Ionization_Penalty_Neutral>
2.3993e-06

> <r_epik_State_Penalty>
1.10796

> <r_epik_Charging_Adjusted_Penalty>
2.16273

> <i_epik_Tot_Q>
1

> <i_epik_Tot_abs_Q>
1

> <r_epik_Metal_State_Penalty>
5.10164

> <b_epik_Metal_Only>
0

> <s_lp_Force_Field>
OPLS_2005

> <r_lp_Energy>
25.5273

> <b_lp_Chiralities_Consistent>
1

> <s_lp_Variant>
AV-unprocessed.smi:2145-4

> <Gold.Version>
5.8.1

> <Gold.Id.Protein>
6NUR|6NUR_protein|mol2

> <Gold.PLP.Fitness>
51.5155

> <Gold.PLP.PLP>
-46.6791

> <Gold.PLP.part.hbond>
-1.0000

> <Gold.PLP.part.metal>
0.0000

> <Gold.PLP.part.buried>
-5.3992

> <Gold.PLP.part.nonpolar>
-39.0512

> <Gold.PLP.part.repulsive>
0.1933

> <Gold.PLP.ligand.clash>
0.0000

> <Gold.PLP.ligand.torsion>
0.7026

> <Gold.PLP.Chemscore.Hbond>
2.0000

> <Gold.PLP.Chemscore.CHOScore>
0.0000

> <Gold.PLP.Chemscore.Metal>
0.0000

> <Gold.Chemscore.Hbonds>
donor molecule, donor type, donor heavy atom, donor atom, acceptor molecule, acceptor atom, score
      L1  H    16    45       P1  8028  1.95

> <Gold.PLP.Chemscore.Internal.Correction>
0.2416

> <Gold.Rescore>
     Score         DG    S(hbond)    S(metal)    S(lipo)     H(rot)  DE(clash)    DE(int)     intcor
     16.23     -17.28       1.00        0.00     122.77       2.30       0.27       0.79       ----

> <Gold.Chemscore.Fitness>
16.2288

> <Gold.Chemscore.DG>
-17.2844

> <Gold.Chemscore.ZeroCoef>
-5.4800

> <Gold.Chemscore.Hbond>
0.9953

> <Gold.Chemscore.Metal>
0.0000

> <Gold.Chemscore.Lipo>
122.7688

> <Gold.Chemscore.Internal_Hbond>
0.0000

> <Gold.Chemscore.DEClash>
0.2676

> <Gold.Chemscore.DEInternal>
0.7881

> <Gold.Chemscore.Rot>
2.2984

> <Gold.Chemscore.Internal.Correction>
   9.000000E+99

> <Gold.Chemscore.Hbonds>
donor molecule, donor type, donor heavy atom, donor atom, acceptor molecule, acceptor atom, score
      L1  H    16    45       P1  8028  0.91

> <Gold.Chemscore.Hbond.Weighted>
-3.3243

> <Gold.Chemscore.Metal.Weighted>
-0.0000

> <Gold.Chemscore.Lipo.Weighted>
-14.3640

> <Gold.Chemscore.Internal_Hbond.Weighted>
0.0000

> <Gold.Chemscore.DEClash.Weighted>
0.2676

> <Gold.Chemscore.DEInternal.Weighted>
0.7881

> <Gold.Chemscore.Rot.Weighted>
5.8839

> <Gold.Chemscore.Internal.Correction.Weighted>
   9.000000E+99

> <Gold.Protein.RotatedTorsions>
[ 6907 6896 6895 6894 ] final   -9.18 input  -60.11 | X-H torsion
[ 7974 7965 7964 7962 ] final   52.38 input  175.53 | X-H torsion
[ 8008 7997 7996 7995 ] final   47.75 input   59.86 | X-H torsion
[ 10167 10162 10161 10158 ] final   14.74 input  -65.29 | X-H torsion
[ 10718 10713 10712 10709 ] final  -55.93 input   66.30 | X-H torsion
[ 10763 10752 10751 10750 ] final  -11.05 input  -60.55 | X-H torsion
[ 11005 11000 10999 10996 ] final  -49.41 input  -57.11 | X-H torsion

> <Gold.Protein.ActiveResidues>
 VAL166  LYS551  ARG553  GLY616  TRP617  ASP618  TYR619  PRO620  LYS621  CYS622 
 ASP623  PHE694  ASN695  SER759  ASP760  ASP761  ALA762  ILE779  LEU786  VAL792 
 PHE793  MET794  SER795  GLU796  ALA797  LYS798  CYS799  TRP800  GLU811  SER814 

> <Gold.Protein.RotatedAtoms>
  151.4219  135.0999  159.9616 H   0  0  0  0  0  0  0  0  0  0  0  0  # atno 6907 bound_to 6896
  152.4985  133.8699  159.7303 H   0  0  0  0  0  0  0  0  0  0  0  0  # atno 6908 bound_to 6896
  150.9217  133.6815  159.2858 H   0  0  0  0  0  0  0  0  0  0  0  0  # atno 6909 bound_to 6896
  145.9819  139.4250  143.0127 H   0  0  0  0  0  0  0  0  0  0  0  0  # atno 7974 bound_to 7965
  155.3743  140.3425  155.4244 H   0  0  0  0  0  0  0  0  0  0  0  0  # atno 8008 bound_to 7997
  156.1645  140.1611  156.8588 H   0  0  0  0  0  0  0  0  0  0  0  0  # atno 8009 bound_to 7997
  154.5172  140.0775  156.8086 H   0  0  0  0  0  0  0  0  0  0  0  0  # atno 8010 bound_to 7997
  140.5915  143.8786  150.6878 H   0  0  0  0  0  0  0  0  0  0  0  0  # atno 10167 bound_to 10162
  156.1329  130.4158  150.0237 H   0  0  0  0  0  0  0  0  0  0  0  0  # atno 10718 bound_to 10713
  153.4781  135.7017  153.5954 H   0  0  0  0  0  0  0  0  0  0  0  0  # atno 10763 bound_to 10752
  153.4179  135.3832  155.2092 H   0  0  0  0  0  0  0  0  0  0  0  0  # atno 10764 bound_to 10752
  154.8723  135.3920  154.4228 H   0  0  0  0  0  0  0  0  0  0  0  0  # atno 10765 bound_to 10752
  141.0758  133.6666  156.3582 H   0  0  0  0  0  0  0  0  0  0  0  0  # atno 11005 bound_to 11000
  145.7757  140.9877  143.1125 LP  0  0  0  0  0  0  0  0  0  0  0  0  # atno 17320 bound_to 7965
  144.6864  139.9503  143.7478 LP  0  0  0  0  0  0  0  0  0  0  0  0  # atno 17321 bound_to 7965
  140.2310  143.3736  152.1566 LP  0  0  0  0  0  0  0  0  0  0  0  0  # atno 17342 bound_to 10162
  139.5231  144.7067  151.5333 LP  0  0  0  0  0  0  0  0  0  0  0  0  # atno 17343 bound_to 10162
  156.8144  130.9336  151.3643 LP  0  0  0  0  0  0  0  0  0  0  0  0  # atno 17370 bound_to 10713
  157.6505  130.8880  149.9624 LP  0  0  0  0  0  0  0  0  0  0  0  0  # atno 17371 bound_to 10713
  140.5577  134.5965  157.5425 LP  0  0  0  0  0  0  0  0  0  0  0  0  # atno 17394 bound_to 11000
  139.9570  134.7518  156.0320 LP  0  0  0  0  0  0  0  0  0  0  0  0  # atno 17395 bound_to 11000

$$$$
