AV-unprocessed.smi:481|AV-procd|sdf|2680|dock6
  -GOLD-   2262023103D 1   1.00000     0.00000
 Structure written by MMmdl.
 43 45  0  0  0  0  0  0  0  0  1 V2000
  151.4526  137.6552  155.1641 C   0  0  0  0  0  0  0  0  0  0  0  0
  152.3679  136.6718  155.6143 O   0  0  0  0  0  0  0  0  0  0  0  0
  152.5511  136.7045  157.0193 C   0  0  0  0  0  0  0  0  0  0  0  0
  154.0297  136.9762  157.3204 C   0  0  0  0  0  0  0  0  0  0  0  0
  154.2354  137.3383  158.7183 N   0  0  0  0  0  0  0  0  0  0  0  0
  153.7906  138.4459  159.3646 C   0  0  0  0  0  0  0  0  0  0  0  0
  153.0475  139.4014  158.6723 N   0  0  0  0  0  0  0  0  0  0  0  0
  152.6051  140.4867  159.2825 N   0  0  0  0  0  0  0  0  0  0  0  0
  152.9864  141.6088  158.7865 C   0  0  0  0  0  0  0  0  0  0  0  0
  152.5779  142.9014  159.3574 C   0  0  0  0  0  0  0  0  0  0  0  0
  152.1061  143.9615  158.5468 C   0  0  0  0  0  0  0  0  0  0  0  0
  151.7234  145.1863  159.1278 C   0  0  0  0  0  0  0  0  0  0  0  0
  151.8081  145.3632  160.5216 C   0  0  0  0  0  0  0  0  0  0  0  0
  152.2762  144.3141  161.3347 C   0  0  0  0  0  0  0  0  0  0  0  0
  152.6592  143.0887  160.7548 C   0  0  0  0  0  0  0  0  0  0  0  0
  154.1313  138.5129  160.6574 N   0  0  0  0  0  0  0  0  0  0  0  0
  154.8631  137.3491  160.8434 C   0  0  0  0  0  0  0  0  0  0  0  0
  154.9440  136.6359  159.6919 C   0  0  0  0  0  0  0  0  0  0  0  0
  155.6771  135.3682  159.5993 C   0  0  0  0  0  0  0  0  0  0  0  0
  155.7778  134.7185  158.5607 O   0  0  0  0  0  0  0  0  0  0  0  0
  156.2345  134.9921  160.7763 N   0  0  0  0  0  0  0  0  0  0  0  0
  156.1851  135.6569  161.9719 C   0  0  0  0  0  0  0  0  0  0  0  0
  156.7440  135.1785  162.9584 O   0  0  0  0  0  0  0  0  0  0  0  0
  155.5016  136.8475  162.0111 N   0  0  0  0  0  0  0  0  0  0  0  0
  155.3971  137.6423  163.2365 C   0  0  0  0  0  0  0  0  0  0  0  0
  156.7478  134.1227  160.7701 H   0  0  0  0  0  0  0  0  0  0  0  0
  151.3476  137.5901  154.0811 H   0  0  0  0  0  0  0  0  0  0  0  0
  151.7998  138.6599  155.4086 H   0  0  0  0  0  0  0  0  0  0  0  0
  150.4667  137.5079  155.6067 H   0  0  0  0  0  0  0  0  0  0  0  0
  151.9266  137.4830  157.4603 H   0  0  0  0  0  0  0  0  0  0  0  0
  152.2496  135.7510  157.4570 H   0  0  0  0  0  0  0  0  0  0  0  0
  154.6290  136.0968  157.0829 H   0  0  0  0  0  0  0  0  0  0  0  0
  154.4124  137.7725  156.6831 H   0  0  0  0  0  0  0  0  0  0  0  0
  152.8624  139.2494  157.6912 H   0  0  0  0  0  0  0  0  0  0  0  0
  153.6374  141.6271  157.9098 H   0  0  0  0  0  0  0  0  0  0  0  0
  152.0324  143.8491  157.4747 H   0  0  0  0  0  0  0  0  0  0  0  0
  151.3648  145.9905  158.5025 H   0  0  0  0  0  0  0  0  0  0  0  0
  151.5147  146.3028  160.9664 H   0  0  0  0  0  0  0  0  0  0  0  0
  152.3423  144.4487  162.4043 H   0  0  0  0  0  0  0  0  0  0  0  0
  153.0166  142.2935  161.3936 H   0  0  0  0  0  0  0  0  0  0  0  0
  155.8956  137.1982  164.0986 H   0  0  0  0  0  0  0  0  0  0  0  0
  154.3484  137.7807  163.5015 H   0  0  0  0  0  0  0  0  0  0  0  0
  155.8351  138.6282  163.0778 H   0  0  0  0  0  0  0  0  0  0  0  0
  1  2  1  0  0  0  0
  1 27  1  0  0  0  0
  1 28  1  0  0  0  0
  1 29  1  0  0  0  0
  2  3  1  0  0  0  0
  3  4  1  0  0  0  0
  3 30  1  0  0  0  0
  3 31  1  0  0  0  0
  4  5  1  0  0  0  0
  4 32  1  0  0  0  0
  4 33  1  0  0  0  0
  5 18  1  0  0  0  0
  5  6  1  0  0  0  0
  6  7  1  0  0  0  0
  6 16  2  0  0  0  0
  7  8  1  0  0  0  0
  7 34  1  0  0  0  0
  8  9  2  0  0  0  0
  9 10  1  0  0  0  0
  9 35  1  0  0  0  0
 10 15  1  0  0  0  0
 10 11  2  0  0  0  0
 11 12  1  0  0  0  0
 11 36  1  0  0  0  0
 12 13  2  0  0  0  0
 12 37  1  0  0  0  0
 13 14  1  0  0  0  0
 13 38  1  0  0  0  0
 14 15  2  0  0  0  0
 14 39  1  0  0  0  0
 15 40  1  0  0  0  0
 16 17  1  0  0  0  0
 17 24  1  0  0  0  0
 17 18  2  0  0  0  0
 18 19  1  0  0  0  0
 19 20  2  0  0  0  0
 19 21  1  0  0  0  0
 21 26  1  0  0  0  0
 21 22  1  0  0  0  0
 22 23  2  0  0  0  0
 22 24  1  0  0  0  0
 24 25  1  0  0  0  0
 25 41  1  0  0  0  0
 25 42  1  0  0  0  0
 25 43  1  0  0  0  0
M  END
> <s_m_source_file>
AV-unprocessed.smi

> <i_m_source_file_index>
481

> <i_lp_mmshare_version>
43012

> <i_f3d_flags>
0

> <s_epik_input>
W0NIM11uMWMoPU8pW25IXWMoPU8pYyhjMTIpbihbQ0gyXVtDSDJdT1tDSDNdKWMobjIpW05IXS9OPVtDSF0vYzNbY0hdW2NIXVtjSF1bY0hdW2NIXTM=

> <s_epik_cmdline>
J2VwaWtfcHl0aG9uJywgJy1waCcsICc3LjAnLCAnLXRuJywgJzgnLCAnLW1hJywgJzIwMCcsICctbWV0YWxfYmluZGluZycsICctaW1hZScsICc8aW5maWxlLm1hZT4nLCAnLW9tYWUnLCAnPG91dGZpbGUubWFlPic=

> <r_epik_Ionization_Penalty>
0.000595515

> <r_epik_Ionization_Penalty_Charging>
0.000305988

> <r_epik_Ionization_Penalty_Neutral>
0.000289528

> <r_epik_State_Penalty>
0.000184189

> <r_epik_Charging_Adjusted_Penalty>
0.000490177

> <i_epik_Tot_Q>
0

> <i_epik_Tot_abs_Q>
0

> <r_epik_Metal_State_Penalty>
0.173754

> <b_epik_Metal_Only>
0

> <s_epik_Chemistry_Notes>
This compound has an imine and may undergo hydrolysis.

> <s_lp_Force_Field>
OPLS_2005

> <r_lp_Energy>
32.4826

> <b_lp_Chiralities_Consistent>
1

> <s_lp_Variant>
AV-unprocessed.smi:481-1

> <Gold.Version>
5.8.1

> <Gold.Id.Protein>
6NUR|6NUR_protein|mol2

> <Gold.PLP.Fitness>
45.3065

> <Gold.PLP.PLP>
-44.5237

> <Gold.PLP.part.hbond>
-0.7657

> <Gold.PLP.part.metal>
0.0000

> <Gold.PLP.part.buried>
-6.6701

> <Gold.PLP.part.nonpolar>
-37.6710

> <Gold.PLP.part.repulsive>
0.2050

> <Gold.PLP.ligand.clash>
0.0000

> <Gold.PLP.ligand.torsion>
1.1127

> <Gold.PLP.Chemscore.Hbond>
1.0000

> <Gold.PLP.Chemscore.CHOScore>
0.0000

> <Gold.PLP.Chemscore.Metal>
0.0000

> <Gold.Chemscore.Hbonds>
donor molecule, donor type, donor heavy atom, donor atom, acceptor molecule, acceptor atom, score
      P1  H 10752 10764       L1     2  0.90

> <Gold.PLP.Chemscore.Internal.Correction>
0.0082

> <Gold.Rescore>
     Score         DG    S(hbond)    S(metal)    S(lipo)     H(rot)  DE(clash)    DE(int)     intcor
     16.70     -17.82       0.96        0.00     111.62       1.54       0.00       1.12       ----

> <Gold.Chemscore.Fitness>
16.6994

> <Gold.Chemscore.DG>
-17.8185

> <Gold.Chemscore.ZeroCoef>
-5.4800

> <Gold.Chemscore.Hbond>
0.9649

> <Gold.Chemscore.Metal>
0.0000

> <Gold.Chemscore.Lipo>
111.6207

> <Gold.Chemscore.Internal_Hbond>
0.0000

> <Gold.Chemscore.DEClash>
0.0015

> <Gold.Chemscore.DEInternal>
1.1176

> <Gold.Chemscore.Rot>
1.5406

> <Gold.Chemscore.Internal.Correction>
   9.000000E+99

> <Gold.Chemscore.Hbonds>
donor molecule, donor type, donor heavy atom, donor atom, acceptor molecule, acceptor atom, score
      P1  H 10752 10764       L1     2  0.80

> <Gold.Chemscore.Hbond.Weighted>
-3.2228

> <Gold.Chemscore.Metal.Weighted>
-0.0000

> <Gold.Chemscore.Lipo.Weighted>
-13.0596

> <Gold.Chemscore.Internal_Hbond.Weighted>
0.0000

> <Gold.Chemscore.DEClash.Weighted>
0.0015

> <Gold.Chemscore.DEInternal.Weighted>
1.1176

> <Gold.Chemscore.Rot.Weighted>
3.9440

> <Gold.Chemscore.Internal.Correction.Weighted>
   9.000000E+99

> <Gold.Protein.RotatedTorsions>
[ 6907 6896 6895 6894 ] final   94.56 input  -60.11 | X-H torsion
[ 7974 7965 7964 7962 ] final    6.43 input  175.53 | X-H torsion
[ 8008 7997 7996 7995 ] final   80.80 input   59.86 | X-H torsion
[ 10167 10162 10161 10158 ] final  109.18 input  -65.29 | X-H torsion
[ 10718 10713 10712 10709 ] final  159.54 input   66.30 | X-H torsion
[ 10763 10752 10751 10750 ] final  -48.31 input  -60.55 | X-H torsion
[ 11005 11000 10999 10996 ] final  -31.37 input  -57.11 | X-H torsion

> <Gold.Protein.ActiveResidues>
 VAL166  LYS551  ARG553  GLY616  TRP617  ASP618  TYR619  PRO620  LYS621  CYS622 
 ASP623  PHE694  ASN695  SER759  ASP760  ASP761  ALA762  ILE779  LEU786  VAL792 
 PHE793  MET794  SER795  GLU796  ALA797  LYS798  CYS799  TRP800  GLU811  SER814 

> <Gold.Protein.RotatedAtoms>
  152.5449  134.1174  159.8384 H   0  0  0  0  0  0  0  0  0  0  0  0  # atno 6907 bound_to 6896
  151.1234  133.5080  159.2609 H   0  0  0  0  0  0  0  0  0  0  0  0  # atno 6908 bound_to 6896
  151.1754  135.0346  159.8824 H   0  0  0  0  0  0  0  0  0  0  0  0  # atno 6909 bound_to 6896
  146.2434  140.0234  142.8396 H   0  0  0  0  0  0  0  0  0  0  0  0  # atno 7974 bound_to 7965
  155.8885  140.3440  155.5939 H   0  0  0  0  0  0  0  0  0  0  0  0  # atno 8008 bound_to 7997
  155.7638  140.0836  157.2161 H   0  0  0  0  0  0  0  0  0  0  0  0  # atno 8009 bound_to 7997
  154.4031  140.1531  156.2850 H   0  0  0  0  0  0  0  0  0  0  0  0  # atno 8010 bound_to 7997
  139.6787  144.7120  151.1555 H   0  0  0  0  0  0  0  0  0  0  0  0  # atno 10167 bound_to 10162
  157.1628  131.0591  151.2223 H   0  0  0  0  0  0  0  0  0  0  0  0  # atno 10718 bound_to 10713
  154.0757  135.6598  153.4830 H   0  0  0  0  0  0  0  0  0  0  0  0  # atno 10763 bound_to 10752
  153.0374  135.5168  154.7523 H   0  0  0  0  0  0  0  0  0  0  0  0  # atno 10764 bound_to 10752
  154.6603  135.3014  154.9843 H   0  0  0  0  0  0  0  0  0  0  0  0  # atno 10765 bound_to 10752
  140.9462  133.7248  156.1150 H   0  0  0  0  0  0  0  0  0  0  0  0  # atno 11005 bound_to 11000
  145.1220  140.9468  143.4594 LP  0  0  0  0  0  0  0  0  0  0  0  0  # atno 17320 bound_to 7965
  145.0471  139.3212  143.5947 LP  0  0  0  0  0  0  0  0  0  0  0  0  # atno 17321 bound_to 7965
  140.7644  143.5733  150.8973 LP  0  0  0  0  0  0  0  0  0  0  0  0  # atno 17342 bound_to 10162
  139.9403  143.6389  152.3055 LP  0  0  0  0  0  0  0  0  0  0  0  0  # atno 17343 bound_to 10162
  157.4117  130.7388  149.6844 LP  0  0  0  0  0  0  0  0  0  0  0  0  # atno 17370 bound_to 10713
  155.9751  130.4094  150.3874 LP  0  0  0  0  0  0  0  0  0  0  0  0  # atno 17371 bound_to 10713
  140.7666  134.3879  157.5516 LP  0  0  0  0  0  0  0  0  0  0  0  0  # atno 17394 bound_to 11000
  139.8834  134.8995  156.2769 LP  0  0  0  0  0  0  0  0  0  0  0  0  # atno 17395 bound_to 11000

$$$$
