AV-unprocessed.smi:836|AV-procd|sdf|3891|dock7
  -GOLD-   22720 1343D 1   1.00000     0.00000
 Structure written by MMmdl.
 38 39  0  0  0  0  0  0  0  0  1 V2000
  151.8983  138.1148  155.1330 C   0  0  0  0  0  0  0  0  0  0  0  0
  150.6341  138.9579  155.3518 C   0  0  2  0  0  0  0  0  0  0  0  0
  150.6875  140.2722  154.5498 C   0  0  0  0  0  0  0  0  0  0  0  0
  149.4229  141.1222  154.7674 C   0  0  0  0  0  0  0  0  0  0  0  0
  149.1602  141.4051  156.2610 C   0  0  2  0  0  0  0  0  0  0  0  0
  150.1611  142.3161  156.8101 N   0  0  0  0  0  0  0  0  0  0  0  0
  150.1823  142.8010  158.0617 C   0  0  0  0  0  0  0  0  0  0  0  0
  149.3253  142.5405  158.9056 O   0  0  0  0  0  0  0  0  0  0  0  0
  151.3447  143.7326  158.4145 C   0  0  0  0  0  0  0  0  0  0  0  0
  152.1664  143.1823  159.4796 N   0  0  0  0  0  0  0  0  0  0  0  0
  152.2948  143.6244  160.7787 C   0  0  0  0  0  0  0  0  0  0  0  0
  153.1631  142.7809  161.4099 C   0  0  0  0  0  0  0  0  0  0  0  0
  153.5222  141.8363  160.4048 C   0  0  0  0  0  0  0  0  0  0  0  0
  154.4552  140.6593  160.5177 C   0  0  0  0  0  0  0  0  0  0  0  0
  153.8314  139.5380  160.1570 F   0  0  0  0  0  0  0  0  0  0  0  0
  155.5106  140.8378  159.7231 F   0  0  0  0  0  0  0  0  0  0  0  0
  154.8747  140.5316  161.7764 F   0  0  0  0  0  0  0  0  0  0  0  0
  152.9220  142.0868  159.2490 N   0  0  0  0  0  0  0  0  0  0  0  0
  149.1368  140.0954  157.0716 C   0  0  0  0  0  0  0  0  0  0  0  0
  150.4024  139.2482  156.8471 C   0  0  0  0  0  0  0  0  0  0  0  0
  152.7896  138.6397  155.4783 H   0  0  0  0  0  0  0  0  0  0  0  0
  152.0368  137.8812  154.0771 H   0  0  0  0  0  0  0  0  0  0  0  0
  151.8381  137.1695  155.6734 H   0  0  0  0  0  0  0  0  0  0  0  0
  149.7856  138.3769  154.9876 H   0  0  0  0  0  0  0  0  0  0  0  0
  151.5695  140.8462  154.8381 H   0  0  0  0  0  0  0  0  0  0  0  0
  150.7991  140.0551  153.4870 H   0  0  0  0  0  0  0  0  0  0  0  0
  149.5002  142.0567  154.2104 H   0  0  0  0  0  0  0  0  0  0  0  0
  148.5649  140.5935  154.3500 H   0  0  0  0  0  0  0  0  0  0  0  0
  148.1796  141.8744  156.3593 H   0  0  0  0  0  0  0  0  0  0  0  0
  150.9082  142.5934  156.1893 H   0  0  0  0  0  0  0  0  0  0  0  0
  151.9581  143.9046  157.5286 H   0  0  0  0  0  0  0  0  0  0  0  0
  150.9632  144.7027  158.7355 H   0  0  0  0  0  0  0  0  0  0  0  0
  151.7597  144.4896  161.1419 H   0  0  0  0  0  0  0  0  0  0  0  0
  153.4912  142.8292  162.4376 H   0  0  0  0  0  0  0  0  0  0  0  0
  149.0160  140.3113  158.1339 H   0  0  0  0  0  0  0  0  0  0  0  0
  148.2625  139.5116  156.7810 H   0  0  0  0  0  0  0  0  0  0  0  0
  150.3144  138.3115  157.3986 H   0  0  0  0  0  0  0  0  0  0  0  0
  151.2687  139.7657  157.2617 H   0  0  0  0  0  0  0  0  0  0  0  0
  1  2  1  0  0  0  0
  1 21  1  0  0  0  0
  1 22  1  0  0  0  0
  1 23  1  0  0  0  0
  2 20  1  0  0  0  0
  2  3  1  0  0  0  0
  2 24  1  0  0  0  0
  3  4  1  0  0  0  0
  3 25  1  0  0  0  0
  3 26  1  0  0  0  0
  4  5  1  0  0  0  0
  4 27  1  0  0  0  0
  4 28  1  0  0  0  0
  5  6  1  0  0  0  0
  5 19  1  0  0  0  0
  5 29  1  0  0  0  0
  6  7  1  0  0  0  0
  6 30  1  0  0  0  0
  7  8  2  0  0  0  0
  7  9  1  0  0  0  0
  9 10  1  0  0  0  0
  9 31  1  0  0  0  0
  9 32  1  0  0  0  0
 10 18  1  0  0  0  0
 10 11  1  0  0  0  0
 11 12  2  0  0  0  0
 11 33  1  0  0  0  0
 12 13  1  0  0  0  0
 12 34  1  0  0  0  0
 13 14  1  0  0  0  0
 13 18  2  0  0  0  0
 14 15  1  0  0  0  0
 14 16  1  0  0  0  0
 14 17  1  0  0  0  0
 19 20  1  0  0  0  0
 19 35  1  0  0  0  0
 19 36  1  0  0  0  0
 20 37  1  0  0  0  0
 20 38  1  0  0  0  0
M  END
> <s_m_source_file>
AV-unprocessed.smi

> <i_m_source_file_index>
836

> <i_lp_mmshare_version>
43012

> <i_f3d_flags>
0

> <s_epik_input>
W0NIM11bQ0BASF0xW0NIMl1bQ0gyXVtDQEhdKFtDSDJdW0NIMl0xKVtOSF1DKD1PKVtDSDJdbjJbY0hdW2NIXWMobjIpQyhGKShGKUY=

> <s_epik_cmdline>
J2VwaWtfcHl0aG9uJywgJy1waCcsICc3LjAnLCAnLXRuJywgJzgnLCAnLW1hJywgJzIwMCcsICctbWV0YWxfYmluZGluZycsICctaW1hZScsICc8aW5maWxlLm1hZT4nLCAnLW9tYWUnLCAnPG91dGZpbGUubWFlPic=

> <r_lp_tautomer_probability>
1

> <r_epik_Ionization_Penalty>
8.28749e-08

> <r_epik_Ionization_Penalty_Charging>
0

> <r_epik_Ionization_Penalty_Neutral>
8.28749e-08

> <r_epik_State_Penalty>
-0

> <r_epik_Charging_Adjusted_Penalty>
0

> <i_epik_Tot_Q>
0

> <i_epik_Tot_abs_Q>
0

> <r_epik_Metal_State_Penalty>
-0

> <b_epik_Metal_Only>
0

> <s_lp_Force_Field>
OPLS_2005

> <r_lp_Energy>
10.0253

> <b_lp_Chiralities_Consistent>
1

> <s_lp_Variant>
AV-unprocessed.smi:836-2

> <Gold.Version>
5.8.1

> <Gold.Id.Protein>
6NUR|6NUR_protein|mol2

> <Gold.PLP.Fitness>
40.5030

> <Gold.PLP.PLP>
-40.7698

> <Gold.PLP.part.hbond>
-2.0000

> <Gold.PLP.part.metal>
0.0000

> <Gold.PLP.part.buried>
-1.2802

> <Gold.PLP.part.nonpolar>
-37.5381

> <Gold.PLP.part.repulsive>
0.1422

> <Gold.PLP.ligand.clash>
0.0000

> <Gold.PLP.ligand.torsion>
0.1440

> <Gold.PLP.Chemscore.Hbond>
0.0000

> <Gold.PLP.Chemscore.CHOScore>
0.0000

> <Gold.PLP.Chemscore.Metal>
0.0000

> <Gold.PLP.Chemscore.Internal.Correction>
0.0212

> <Gold.Rescore>
     Score         DG    S(hbond)    S(metal)    S(lipo)     H(rot)  DE(clash)    DE(int)     intcor
     11.18     -12.89       0.00        0.00      97.10       1.54       1.66       0.05       ----

> <Gold.Chemscore.Fitness>
11.1839

> <Gold.Chemscore.DG>
-12.8931

> <Gold.Chemscore.ZeroCoef>
-5.4800

> <Gold.Chemscore.Hbond>
0.0002

> <Gold.Chemscore.Metal>
0.0000

> <Gold.Chemscore.Lipo>
97.0968

> <Gold.Chemscore.Internal_Hbond>
0.0000

> <Gold.Chemscore.DEClash>
1.6619

> <Gold.Chemscore.DEInternal>
0.0474

> <Gold.Chemscore.Rot>
1.5422

> <Gold.Chemscore.Internal.Correction>
   9.000000E+99

> <Gold.Chemscore.Hbond.Weighted>
-0.0008

> <Gold.Chemscore.Metal.Weighted>
-0.0000

> <Gold.Chemscore.Lipo.Weighted>
-11.3603

> <Gold.Chemscore.Internal_Hbond.Weighted>
0.0000

> <Gold.Chemscore.DEClash.Weighted>
1.6619

> <Gold.Chemscore.DEInternal.Weighted>
0.0474

> <Gold.Chemscore.Rot.Weighted>
3.9479

> <Gold.Chemscore.Internal.Correction.Weighted>
   9.000000E+99

> <Gold.Protein.RotatedTorsions>
[ 6907 6896 6895 6894 ] final -151.67 input  -60.11 | X-H torsion
[ 7974 7965 7964 7962 ] final   32.12 input  175.53 | X-H torsion
[ 8008 7997 7996 7995 ] final  170.07 input   59.86 | X-H torsion
[ 10167 10162 10161 10158 ] final   -0.50 input  -65.29 | X-H torsion
[ 10718 10713 10712 10709 ] final  177.62 input   66.30 | X-H torsion
[ 10763 10752 10751 10750 ] final   36.84 input  -60.55 | X-H torsion
[ 11005 11000 10999 10996 ] final -100.86 input  -57.11 | X-H torsion

> <Gold.Protein.ActiveResidues>
 VAL166  LYS551  ARG553  GLY616  TRP617  ASP618  TYR619  PRO620  LYS621  CYS622 
 ASP623  PHE694  ASN695  SER759  ASP760  ASP761  ALA762  ILE779  LEU786  VAL792 
 PHE793  MET794  SER795  GLU796  ALA797  LYS798  CYS799  TRP800  GLU811  SER814 

> <Gold.Protein.RotatedAtoms>
  151.2165  133.4526  159.2599 H   0  0  0  0  0  0  0  0  0  0  0  0  # atno 6907 bound_to 6896
  151.0926  134.9925  159.8420 H   0  0  0  0  0  0  0  0  0  0  0  0  # atno 6908 bound_to 6896
  152.5436  134.2097  159.8798 H   0  0  0  0  0  0  0  0  0  0  0  0  # atno 6909 bound_to 6896
  146.1507  139.6568  142.9101 H   0  0  0  0  0  0  0  0  0  0  0  0  # atno 7974 bound_to 7965
  156.1399  140.1547  156.8936 H   0  0  0  0  0  0  0  0  0  0  0  0  # atno 8008 bound_to 7997
  154.4979  140.0833  156.7774 H   0  0  0  0  0  0  0  0  0  0  0  0  # atno 8009 bound_to 7997
  155.4098  140.3418  155.4265 H   0  0  0  0  0  0  0  0  0  0  0  0  # atno 8010 bound_to 7997
  140.6770  143.6887  150.8045 H   0  0  0  0  0  0  0  0  0  0  0  0  # atno 10167 bound_to 10162
  156.9027  130.9884  151.3033 H   0  0  0  0  0  0  0  0  0  0  0  0  # atno 10718 bound_to 10713
  153.0061  135.6294  154.2050 H   0  0  0  0  0  0  0  0  0  0  0  0  # atno 10763 bound_to 10752
  154.1793  135.2814  155.3058 H   0  0  0  0  0  0  0  0  0  0  0  0  # atno 10764 bound_to 10752
  154.5847  135.5636  153.7279 H   0  0  0  0  0  0  0  0  0  0  0  0  # atno 10765 bound_to 10752
  141.1254  133.8432  157.1157 H   0  0  0  0  0  0  0  0  0  0  0  0  # atno 11005 bound_to 11000
  145.4830  141.0438  143.2635 LP  0  0  0  0  0  0  0  0  0  0  0  0  # atno 17320 bound_to 7965
  144.7900  139.6347  143.7117 LP  0  0  0  0  0  0  0  0  0  0  0  0  # atno 17321 bound_to 7965
  140.0581  143.5182  152.2641 LP  0  0  0  0  0  0  0  0  0  0  0  0  # atno 17342 bound_to 10162
  139.6068  144.7598  151.3043 LP  0  0  0  0  0  0  0  0  0  0  0  0  # atno 17343 bound_to 10162
  157.6016  130.8517  149.8811 LP  0  0  0  0  0  0  0  0  0  0  0  0  # atno 17370 bound_to 10713
  156.0574  130.3706  150.1059 LP  0  0  0  0  0  0  0  0  0  0  0  0  # atno 17371 bound_to 10713
  140.0248  134.9929  157.0663 LP  0  0  0  0  0  0  0  0  0  0  0  0  # atno 17394 bound_to 11000
  140.4381  134.1710  155.7172 LP  0  0  0  0  0  0  0  0  0  0  0  0  # atno 17395 bound_to 11000

$$$$
