AV-unprocessed.smi:19|AV-procd|sdf|112|dock10
  -GOLD-   2262015273D 1   1.00000     0.00000
 Structure written by MMmdl.
 57 60  0  0  0  0  0  0  0  0  1 V2000
  147.1697  136.0908  160.9397 C   0  0  0  0  0  0  0  0  0  0  0  0
  147.1698  135.8385  159.5456 O   0  0  0  0  0  0  0  0  0  0  0  0
  147.6036  134.5247  159.2306 C   0  0  0  0  0  0  0  0  0  0  0  0
  148.2734  134.5064  157.8494 C   0  0  1  0  0  0  0  0  0  0  0  0
  149.0759  135.7866  157.5519 C   0  0  0  0  0  0  0  0  0  0  0  0
  149.7620  135.6619  156.2714 N   0  0  0  0  0  0  0  0  0  0  0  0
  150.2459  136.8253  155.7655 C   0  0  0  0  0  0  0  0  0  0  0  0
  150.6656  136.8823  154.4729 N   0  0  0  0  0  0  0  0  0  0  0  0
  151.1561  138.0189  153.9706 C   0  0  0  0  0  0  0  0  0  0  0  0
  151.3091  139.1989  154.5730 N   0  0  0  0  0  0  0  0  0  0  0  0
  150.8762  139.1563  155.8652 C   0  0  0  0  0  0  0  0  0  0  0  0
  150.3390  138.0200  156.5351 C   0  0  0  0  0  0  0  0  0  0  0  0
  150.0068  138.3572  157.8417 N   0  0  0  0  0  0  0  0  0  0  0  0
  150.3411  139.6142  157.9420 C   0  0  0  0  0  0  0  0  0  0  0  0
  150.8565  140.1805  156.7973 N   0  0  0  0  0  0  0  0  0  0  0  0
  151.3097  141.5559  156.6340 C   0  0  0  0  0  0  0  0  0  0  0  0
  151.0090  142.4971  157.8390 C   0  0  0  0  0  0  0  0  0  0  0  0
  149.4883  142.4997  158.1673 C   0  0  0  0  0  0  0  0  0  0  0  0
  148.6888  142.4978  157.0018 O   0  0  0  0  0  0  0  0  0  0  0  0
  151.8064  142.0341  159.0853 C   0  0  0  0  0  0  0  0  0  0  0  0
  151.8275  143.0811  160.2151 C   0  0  0  0  0  0  0  0  0  0  0  0
  152.3279  144.3196  159.7293 O   0  0  0  0  0  0  0  0  0  0  0  0
  151.5234  144.8698  158.6945 C   0  0  0  0  0  0  0  0  0  0  0  0
  151.5126  143.9196  157.4843 C   0  0  0  0  0  0  0  0  0  0  0  0
  150.6091  134.4742  156.1934 C   0  0  0  0  0  0  0  0  0  0  0  0
  149.8044  133.2025  156.5258 C   0  0  2  0  0  0  0  0  0  0  0  0
  148.8559  132.7663  155.3954 C   0  0  0  0  0  0  0  0  0  0  0  0
  149.1207  133.3603  157.7711 O   0  0  0  0  0  0  0  0  0  0  0  0
  146.8246  137.1073  161.1285 H   0  0  0  0  0  0  0  0  0  0  0  0
  148.1723  135.9930  161.3581 H   0  0  0  0  0  0  0  0  0  0  0  0
  146.5023  135.4060  161.4646 H   0  0  0  0  0  0  0  0  0  0  0  0
  148.3028  134.1650  159.9871 H   0  0  0  0  0  0  0  0  0  0  0  0
  146.7476  133.8481  159.2318 H   0  0  0  0  0  0  0  0  0  0  0  0
  147.4797  134.4067  157.1088 H   0  0  0  0  0  0  0  0  0  0  0  0
  148.4063  136.6454  157.5673 H   0  0  0  0  0  0  0  0  0  0  0  0
  149.8228  135.9556  158.3287 H   0  0  0  0  0  0  0  0  0  0  0  0
  151.4718  137.9768  152.9386 H   0  0  0  0  0  0  0  0  0  0  0  0
  150.2137  140.1690  158.8602 H   0  0  0  0  0  0  0  0  0  0  0  0
  152.3836  141.5238  156.4459 H   0  0  0  0  0  0  0  0  0  0  0  0
  150.8669  141.9548  155.7207 H   0  0  0  0  0  0  0  0  0  0  0  0
  149.2200  141.6340  158.7728 H   0  0  0  0  0  0  0  0  0  0  0  0
  149.2036  143.3720  158.7528 H   0  0  0  0  0  0  0  0  0  0  0  0
  148.5133  143.3932  156.7558 H   0  0  0  0  0  0  0  0  0  0  0  0
  151.4042  141.0979  159.4736 H   0  0  0  0  0  0  0  0  0  0  0  0
  152.8383  141.8265  158.7980 H   0  0  0  0  0  0  0  0  0  0  0  0
  150.8389  143.2207  160.6532 H   0  0  0  0  0  0  0  0  0  0  0  0
  152.4760  142.7397  161.0219 H   0  0  0  0  0  0  0  0  0  0  0  0
  150.5154  145.0679  159.0601 H   0  0  0  0  0  0  0  0  0  0  0  0
  151.9432  145.8329  158.4039 H   0  0  0  0  0  0  0  0  0  0  0  0
  152.5313  143.8587  157.0988 H   0  0  0  0  0  0  0  0  0  0  0  0
  150.9193  144.3525  156.6785 H   0  0  0  0  0  0  0  0  0  0  0  0
  151.0497  134.3842  155.1995 H   0  0  0  0  0  0  0  0  0  0  0  0
  151.4317  134.5805  156.9021 H   0  0  0  0  0  0  0  0  0  0  0  0
  150.5154  132.3889  156.6716 H   0  0  0  0  0  0  0  0  0  0  0  0
  149.4181  132.5181  154.4949 H   0  0  0  0  0  0  0  0  0  0  0  0
  148.1458  133.5479  155.1268 H   0  0  0  0  0  0  0  0  0  0  0  0
  148.2883  131.8815  155.6838 H   0  0  0  0  0  0  0  0  0  0  0  0
  1  2  1  0  0  0  0
  1 29  1  0  0  0  0
  1 30  1  0  0  0  0
  1 31  1  0  0  0  0
  2  3  1  0  0  0  0
  3  4  1  0  0  0  0
  3 32  1  0  0  0  0
  3 33  1  0  0  0  0
  4 28  1  0  0  0  0
  4  5  1  0  0  0  0
  4 34  1  0  0  0  0
  5  6  1  0  0  0  0
  5 35  1  0  0  0  0
  5 36  1  0  0  0  0
  6  7  1  0  0  0  0
  6 25  1  0  0  0  0
  7 12  1  0  0  0  0
  7  8  2  0  0  0  0
  8  9  1  0  0  0  0
  9 10  2  0  0  0  0
  9 37  1  0  0  0  0
 10 11  1  0  0  0  0
 11 15  1  0  0  0  0
 11 12  2  0  0  0  0
 12 13  1  0  0  0  0
 13 14  2  0  0  0  0
 14 15  1  0  0  0  0
 14 38  1  0  0  0  0
 15 16  1  0  0  0  0
 16 17  1  0  0  0  0
 16 39  1  0  0  0  0
 16 40  1  0  0  0  0
 17 24  1  0  0  0  0
 17 18  1  0  0  0  0
 17 20  1  0  0  0  0
 18 19  1  0  0  0  0
 18 41  1  0  0  0  0
 18 42  1  0  0  0  0
 19 43  1  0  0  0  0
 20 21  1  0  0  0  0
 20 44  1  0  0  0  0
 20 45  1  0  0  0  0
 21 22  1  0  0  0  0
 21 46  1  0  0  0  0
 21 47  1  0  0  0  0
 22 23  1  0  0  0  0
 23 24  1  0  0  0  0
 23 48  1  0  0  0  0
 23 49  1  0  0  0  0
 24 50  1  0  0  0  0
 24 51  1  0  0  0  0
 25 26  1  0  0  0  0
 25 52  1  0  0  0  0
 25 53  1  0  0  0  0
 26 27  1  0  0  0  0
 26 28  1  0  0  0  0
 26 54  1  0  0  0  0
 27 55  1  0  0  0  0
 27 56  1  0  0  0  0
 27 57  1  0  0  0  0
M  END
> <s_m_source_file>
AV-unprocessed.smi

> <i_m_source_file_index>
19

> <i_lp_mmshare_version>
43012

> <i_f3d_flags>
0

> <s_epik_input>
W0NIM11PW0NIMl1bQ0BASF0xW0NIMl1OKFtDSDJdW0NASF0oTzEpW0NIM10pYyhuW2NIXW4yKWMoYzIzKW5bY0hdbjNbQ0gyXUM0KFtDSDJdW09IXSlbQ0gyXVtDSDJdT1tDSDJdW0NIMl00

> <s_epik_cmdline>
J2VwaWtfcHl0aG9uJywgJy1waCcsICc3LjAnLCAnLXRuJywgJzgnLCAnLW1hJywgJzIwMCcsICctbWV0YWxfYmluZGluZycsICctaW1hZScsICc8aW5maWxlLm1hZT4nLCAnLW9tYWUnLCAnPG91dGZpbGUubWFlPic=

> <r_lp_tautomer_probability>
1

> <r_epik_Ionization_Penalty>
6.20357e-05

> <r_epik_Ionization_Penalty_Charging>
0

> <r_epik_Ionization_Penalty_Neutral>
6.20357e-05

> <r_epik_State_Penalty>
-0

> <r_epik_Charging_Adjusted_Penalty>
0

> <i_epik_Tot_Q>
0

> <i_epik_Tot_abs_Q>
0

> <r_epik_Metal_State_Penalty>
-0

> <b_epik_Metal_Only>
0

> <s_lp_Force_Field>
OPLS_2005

> <r_lp_Energy>
39.077

> <b_lp_Chiralities_Consistent>
1

> <s_lp_Variant>
AV-unprocessed.smi:19-4

> <Gold.Version>
5.8.1

> <Gold.Id.Protein>
6NUR|6NUR_protein|mol2

> <Gold.PLP.Fitness>
50.4565

> <Gold.PLP.PLP>
-40.3109

> <Gold.PLP.part.hbond>
-3.0000

> <Gold.PLP.part.metal>
0.0000

> <Gold.PLP.part.buried>
-7.4597

> <Gold.PLP.part.nonpolar>
-31.3336

> <Gold.PLP.part.repulsive>
0.3032

> <Gold.PLP.ligand.clash>
0.0255

> <Gold.PLP.ligand.torsion>
0.9212

> <Gold.PLP.Chemscore.Hbond>
2.9440

> <Gold.PLP.Chemscore.CHOScore>
0.9518

> <Gold.PLP.Chemscore.Metal>
0.0000

> <Gold.Chemscore.Hbonds>
donor molecule, donor type, donor heavy atom, donor atom, acceptor molecule, acceptor atom, score
      L1  H    19    43       P1  8028  0.96
      P1  H  6896  6909       L1    28  0.26
      P1  H  7989  7998       L1    10  1.00
      L1  C     9    37       P1  7949  0.89

> <Gold.PLP.Chemscore.Internal.Correction>
0.3261

> <Gold.Rescore>
     Score         DG    S(hbond)    S(metal)    S(lipo)     H(rot)  DE(clash)    DE(int)     intcor
     11.13     -15.54       1.86        0.00      95.73       2.87       0.21       4.20       ----

> <Gold.Chemscore.Fitness>
11.1299

> <Gold.Chemscore.DG>
-15.5388

> <Gold.Chemscore.ZeroCoef>
-5.4800

> <Gold.Chemscore.Hbond>
1.8601

> <Gold.Chemscore.Metal>
0.0000

> <Gold.Chemscore.Lipo>
95.7321

> <Gold.Chemscore.Internal_Hbond>
0.0000

> <Gold.Chemscore.DEClash>
0.2089

> <Gold.Chemscore.DEInternal>
4.2001

> <Gold.Chemscore.Rot>
2.8729

> <Gold.Chemscore.Internal.Correction>
   9.000000E+99

> <Gold.Chemscore.Hbonds>
donor molecule, donor type, donor heavy atom, donor atom, acceptor molecule, acceptor atom, score
      L1  H    19    43       P1  8028  0.37
      P1  H  6896  6909       L1    28  0.06
      P1  H  7989  7998       L1    10  0.94

> <Gold.Chemscore.Hbond.Weighted>
-6.2128

> <Gold.Chemscore.Metal.Weighted>
-0.0000

> <Gold.Chemscore.Lipo.Weighted>
-11.2007

> <Gold.Chemscore.Internal_Hbond.Weighted>
0.0000

> <Gold.Chemscore.DEClash.Weighted>
0.2089

> <Gold.Chemscore.DEInternal.Weighted>
4.2001

> <Gold.Chemscore.Rot.Weighted>
7.3546

> <Gold.Chemscore.Internal.Correction.Weighted>
   9.000000E+99

> <Gold.Protein.RotatedTorsions>
[ 6907 6896 6895 6894 ] final  -12.77 input  -60.11 | X-H torsion
[ 7974 7965 7964 7962 ] final  -85.56 input  175.53 | X-H torsion
[ 8008 7997 7996 7995 ] final   -6.74 input   59.86 | X-H torsion
[ 10167 10162 10161 10158 ] final   27.37 input  -65.29 | X-H torsion
[ 10718 10713 10712 10709 ] final -124.57 input   66.30 | X-H torsion
[ 10763 10752 10751 10750 ] final  117.97 input  -60.55 | X-H torsion
[ 11005 11000 10999 10996 ] final   96.17 input  -57.11 | X-H torsion

> <Gold.Protein.ActiveResidues>
 VAL166  LYS551  ARG553  GLY616  TRP617  ASP618  TYR619  PRO620  LYS621  CYS622 
 ASP623  PHE694  ASN695  SER759  ASP760  ASP761  ALA762  ILE779  LEU786  VAL792 
 PHE793  MET794  SER795  GLU796  ALA797  LYS798  CYS799  TRP800  GLU811  SER814 

> <Gold.Protein.RotatedAtoms>
  151.3653  135.0912  159.9447 H   0  0  0  0  0  0  0  0  0  0  0  0  # atno 6907 bound_to 6896
  152.5150  133.9218  159.7548 H   0  0  0  0  0  0  0  0  0  0  0  0  # atno 6908 bound_to 6896
  150.9621  133.6380  159.2782 H   0  0  0  0  0  0  0  0  0  0  0  0  # atno 6909 bound_to 6896
  145.4916  140.9552  143.1809 H   0  0  0  0  0  0  0  0  0  0  0  0  # atno 7974 bound_to 7965
  154.5907  140.2425  155.7925 H   0  0  0  0  0  0  0  0  0  0  0  0  # atno 8008 bound_to 7997
  156.2245  140.2987  155.9987 H   0  0  0  0  0  0  0  0  0  0  0  0  # atno 8009 bound_to 7997
  155.2379  140.0406  157.2961 H   0  0  0  0  0  0  0  0  0  0  0  0  # atno 8010 bound_to 7997
  140.4944  144.0415  150.6309 H   0  0  0  0  0  0  0  0  0  0  0  0  # atno 10167 bound_to 10162
  156.1600  130.6595  151.0035 H   0  0  0  0  0  0  0  0  0  0  0  0  # atno 10718 bound_to 10713
  153.5604  135.3522  155.2797 H   0  0  0  0  0  0  0  0  0  0  0  0  # atno 10763 bound_to 10752
  154.8695  135.4135  154.2837 H   0  0  0  0  0  0  0  0  0  0  0  0  # atno 10764 bound_to 10752
  153.3581  135.7058  153.6803 H   0  0  0  0  0  0  0  0  0  0  0  0  # atno 10765 bound_to 10752
  139.8783  134.8937  156.4119 H   0  0  0  0  0  0  0  0  0  0  0  0  # atno 11005 bound_to 11000
  144.7830  139.6485  143.7146 LP  0  0  0  0  0  0  0  0  0  0  0  0  # atno 17320 bound_to 7965
  146.2280  139.5760  142.9574 LP  0  0  0  0  0  0  0  0  0  0  0  0  # atno 17321 bound_to 7965
  140.3694  143.2863  152.0295 LP  0  0  0  0  0  0  0  0  0  0  0  0  # atno 17342 bound_to 10162
  139.4858  144.6242  151.7197 LP  0  0  0  0  0  0  0  0  0  0  0  0  # atno 17343 bound_to 10162
  157.6725  131.0858  150.7578 LP  0  0  0  0  0  0  0  0  0  0  0  0  # atno 17370 bound_to 10713
  156.7641  130.4808  149.5431 LP  0  0  0  0  0  0  0  0  0  0  0  0  # atno 17371 bound_to 10713
  140.9194  133.7655  155.9888 LP  0  0  0  0  0  0  0  0  0  0  0  0  # atno 17394 bound_to 11000
  140.8457  134.3014  157.5296 LP  0  0  0  0  0  0  0  0  0  0  0  0  # atno 17395 bound_to 11000

$$$$
