AV-unprocessed.smi:1537|AV-procd|sdf|6191|dock7
  -GOLD-   22720 6353D 1   1.00000     0.00000
 Structure written by MMmdl.
 43 43  0  0  0  0  0  0  0  0  1 V2000
  152.2972  142.6412  159.9305 C   0  0  0  0  0  0  0  0  0  0  0  0
  152.7598  141.3142  159.3202 C   0  0  0  0  0  0  0  0  0  0  0  0
  152.1062  141.0297  158.0096 C   0  0  0  0  0  0  0  0  0  0  0  0
  152.4700  140.0251  157.2085 N   0  0  0  0  0  0  0  0  0  0  0  0
  151.7372  139.9918  156.0170 C   0  0  0  0  0  0  0  0  0  0  0  0
  152.0114  138.9267  154.9958 C   0  0  0  0  0  0  0  0  0  0  0  0
  150.9956  137.7913  155.1299 C   0  0  0  0  0  0  0  0  0  0  0  0
  151.3808  136.6394  155.3311 O   0  0  0  0  0  0  0  0  0  0  0  0
  149.7010  138.1290  155.0120 N   0  0  0  0  0  0  0  0  0  0  0  0
  148.5736  137.2026  155.0936 C   0  0  1  0  0  0  0  0  0  0  0  0
  148.1539  137.0956  156.5691 C   0  0  0  0  0  0  0  0  0  0  0  0
  147.3733  137.7342  154.2932 C   0  0  0  0  0  0  0  0  0  0  0  0
  146.7936  138.7618  154.6477 O   0  0  0  0  0  0  0  0  0  0  0  0
  147.0138  137.0027  153.2237 N   0  0  0  0  0  0  0  0  0  0  0  0
  145.9240  137.2502  152.2722 C   0  0  0  0  0  0  0  0  0  0  0  0
  146.3385  138.4656  151.4245 C   0  0  0  0  0  0  0  0  0  0  0  0
  144.6153  137.5830  153.0194 C   0  0  0  0  0  0  0  0  0  0  0  0
  145.7257  136.0359  151.3408 C   0  0  0  0  0  0  0  0  0  0  0  0
  150.8058  140.9970  155.9285 C   0  0  0  0  0  0  0  0  0  0  0  0
  150.8266  142.0293  157.3315 S   0  0  0  0  0  0  0  0  0  0  0  0
  152.7875  142.8211  160.8873 H   0  0  0  0  0  0  0  0  0  0  0  0
  151.2204  142.6402  160.1024 H   0  0  0  0  0  0  0  0  0  0  0  0
  152.5310  143.4791  159.2728 H   0  0  0  0  0  0  0  0  0  0  0  0
  153.8414  141.3249  159.1805 H   0  0  0  0  0  0  0  0  0  0  0  0
  152.5411  140.4939  160.0046 H   0  0  0  0  0  0  0  0  0  0  0  0
  151.9668  139.3333  153.9845 H   0  0  0  0  0  0  0  0  0  0  0  0
  153.0181  138.5257  155.1213 H   0  0  0  0  0  0  0  0  0  0  0  0
  149.4799  139.0998  154.8436 H   0  0  0  0  0  0  0  0  0  0  0  0
  148.8713  136.2190  154.7244 H   0  0  0  0  0  0  0  0  0  0  0  0
  147.3145  136.4103  156.6940 H   0  0  0  0  0  0  0  0  0  0  0  0
  147.8583  138.0626  156.9796 H   0  0  0  0  0  0  0  0  0  0  0  0
  148.9745  136.7168  157.1794 H   0  0  0  0  0  0  0  0  0  0  0  0
  147.5668  136.1780  153.0407 H   0  0  0  0  0  0  0  0  0  0  0  0
  145.5733  138.7159  150.6887 H   0  0  0  0  0  0  0  0  0  0  0  0
  147.2649  138.2745  150.8812 H   0  0  0  0  0  0  0  0  0  0  0  0
  146.4972  139.3488  152.0444 H   0  0  0  0  0  0  0  0  0  0  0  0
  144.7523  138.4188  153.7066 H   0  0  0  0  0  0  0  0  0  0  0  0
  144.2466  136.7369  153.5992 H   0  0  0  0  0  0  0  0  0  0  0  0
  143.8247  137.8595  152.3212 H   0  0  0  0  0  0  0  0  0  0  0  0
  144.9843  136.2502  150.5705 H   0  0  0  0  0  0  0  0  0  0  0  0
  145.3776  135.1556  151.8809 H   0  0  0  0  0  0  0  0  0  0  0  0
  146.6543  135.7671  150.8360 H   0  0  0  0  0  0  0  0  0  0  0  0
  150.1170  141.1965  155.1209 H   0  0  0  0  0  0  0  0  0  0  0  0
  1  2  1  0  0  0  0
  1 21  1  0  0  0  0
  1 22  1  0  0  0  0
  1 23  1  0  0  0  0
  2  3  1  0  0  0  0
  2 24  1  0  0  0  0
  2 25  1  0  0  0  0
  3 20  1  0  0  0  0
  3  4  2  0  0  0  0
  4  5  1  0  0  0  0
  5  6  1  0  0  0  0
  5 19  2  0  0  0  0
  6  7  1  0  0  0  0
  6 26  1  0  0  0  0
  6 27  1  0  0  0  0
  7  8  2  0  0  0  0
  7  9  1  0  0  0  0
  9 10  1  0  0  0  0
  9 28  1  0  0  0  0
 10 11  1  0  0  0  0
 10 12  1  0  0  0  0
 10 29  1  0  0  0  0
 11 30  1  0  0  0  0
 11 31  1  0  0  0  0
 11 32  1  0  0  0  0
 12 13  2  0  0  0  0
 12 14  1  0  0  0  0
 14 15  1  0  0  0  0
 14 33  1  0  0  0  0
 15 16  1  0  0  0  0
 15 17  1  0  0  0  0
 15 18  1  0  0  0  0
 16 34  1  0  0  0  0
 16 35  1  0  0  0  0
 16 36  1  0  0  0  0
 17 37  1  0  0  0  0
 17 38  1  0  0  0  0
 17 39  1  0  0  0  0
 18 40  1  0  0  0  0
 18 41  1  0  0  0  0
 18 42  1  0  0  0  0
 19 20  1  0  0  0  0
 19 43  1  0  0  0  0
M  END
> <s_m_source_file>
AV-unprocessed.smi

> <i_m_source_file_index>
1537

> <i_lp_mmshare_version>
43012

> <i_f3d_flags>
0

> <s_epik_input>
W0NIM11bQ0gyXWMxbmMoW2NIXXMxKVtDSDJdQyg9TylbTkhdW0NASF0oW0NIM10pQyg9TylbTkhdQyhbQ0gzXSkoW0NIM10pW0NIM10=

> <s_epik_cmdline>
J2VwaWtfcHl0aG9uJywgJy1waCcsICc3LjAnLCAnLXRuJywgJzgnLCAnLW1hJywgJzIwMCcsICctbWV0YWxfYmluZGluZycsICctaW1hZScsICc8aW5maWxlLm1hZT4nLCAnLW9tYWUnLCAnPG91dGZpbGUubWFlPic=

> <r_lp_tautomer_probability>
1

> <r_epik_Ionization_Penalty>
4.05444e-05

> <r_epik_Ionization_Penalty_Charging>
0

> <r_epik_Ionization_Penalty_Neutral>
4.05444e-05

> <r_epik_State_Penalty>
-0

> <r_epik_Charging_Adjusted_Penalty>
0

> <i_epik_Tot_Q>
0

> <i_epik_Tot_abs_Q>
0

> <r_epik_Metal_State_Penalty>
-0

> <b_epik_Metal_Only>
0

> <s_lp_Force_Field>
OPLS_2005

> <r_lp_Energy>
-2.34744

> <b_lp_Chiralities_Consistent>
1

> <s_lp_Variant>
AV-unprocessed.smi:1537-2

> <Gold.Version>
5.8.1

> <Gold.Id.Protein>
6NUR|6NUR_protein|mol2

> <Gold.PLP.Fitness>
38.6336

> <Gold.PLP.PLP>
-33.2631

> <Gold.PLP.part.hbond>
-2.8582

> <Gold.PLP.part.metal>
0.0000

> <Gold.PLP.part.buried>
-0.5891

> <Gold.PLP.part.nonpolar>
-31.0105

> <Gold.PLP.part.repulsive>
0.2274

> <Gold.PLP.ligand.clash>
0.0000

> <Gold.PLP.ligand.torsion>
0.9884

> <Gold.PLP.Chemscore.Hbond>
2.4320

> <Gold.PLP.Chemscore.CHOScore>
0.0000

> <Gold.PLP.Chemscore.Metal>
0.0000

> <Gold.Chemscore.Hbonds>
donor molecule, donor type, donor heavy atom, donor atom, acceptor molecule, acceptor atom, score
      L1  H    14    33       P1  7948  0.42
      P1  H  7997  8010       L1     4  1.00
      P1  H 10752 10765       L1     8  1.00

> <Gold.PLP.Chemscore.Internal.Correction>
0.0513

> <Gold.Rescore>
     Score         DG    S(hbond)    S(metal)    S(lipo)     H(rot)  DE(clash)    DE(int)     intcor
     17.58     -19.46       2.59        0.00      86.76       1.88       1.00       0.88       ----

> <Gold.Chemscore.Fitness>
17.5799

> <Gold.Chemscore.DG>
-19.4621

> <Gold.Chemscore.ZeroCoef>
-5.4800

> <Gold.Chemscore.Hbond>
2.5853

> <Gold.Chemscore.Metal>
0.0000

> <Gold.Chemscore.Lipo>
86.7640

> <Gold.Chemscore.Internal_Hbond>
0.0000

> <Gold.Chemscore.DEClash>
1.0023

> <Gold.Chemscore.DEInternal>
0.8799

> <Gold.Chemscore.Rot>
1.8766

> <Gold.Chemscore.Internal.Correction>
   9.000000E+99

> <Gold.Chemscore.Hbonds>
donor molecule, donor type, donor heavy atom, donor atom, acceptor molecule, acceptor atom, score
      L1  H    14    33       P1  7948  0.42
      P1  H  7997  8010       L1     4  0.22
      P1  H 10752 10765       L1     8  0.95

> <Gold.Chemscore.Hbond.Weighted>
-8.6348

> <Gold.Chemscore.Metal.Weighted>
-0.0000

> <Gold.Chemscore.Lipo.Weighted>
-10.1514

> <Gold.Chemscore.Internal_Hbond.Weighted>
0.0000

> <Gold.Chemscore.DEClash.Weighted>
1.0023

> <Gold.Chemscore.DEInternal.Weighted>
0.8799

> <Gold.Chemscore.Rot.Weighted>
4.8042

> <Gold.Chemscore.Internal.Correction.Weighted>
   9.000000E+99

> <Gold.Protein.RotatedTorsions>
[ 6907 6896 6895 6894 ] final -116.10 input  -60.11 | X-H torsion
[ 7974 7965 7964 7962 ] final -145.03 input  175.53 | X-H torsion
[ 8008 7997 7996 7995 ] final   70.79 input   59.86 | X-H torsion
[ 10167 10162 10161 10158 ] final  -84.23 input  -65.29 | X-H torsion
[ 10718 10713 10712 10709 ] final  -54.35 input   66.30 | X-H torsion
[ 10763 10752 10751 10750 ] final -171.74 input  -60.55 | X-H torsion
[ 11005 11000 10999 10996 ] final  -16.77 input  -57.11 | X-H torsion

> <Gold.Protein.ActiveResidues>
 VAL166  LYS551  ARG553  GLY616  TRP617  ASP618  TYR619  PRO620  LYS621  CYS622 
 ASP623  PHE694  ASN695  SER759  ASP760  ASP761  ALA762  ILE779  LEU786  VAL792 
 PHE793  MET794  SER795  GLU796  ALA797  LYS798  CYS799  TRP800  GLU811  SER814 

> <Gold.Protein.RotatedAtoms>
  150.8029  133.8564  159.3219 H   0  0  0  0  0  0  0  0  0  0  0  0  # atno 6907 bound_to 6896
  151.6371  135.1015  160.0143 H   0  0  0  0  0  0  0  0  0  0  0  0  # atno 6908 bound_to 6896
  152.4118  133.6936  159.6439 H   0  0  0  0  0  0  0  0  0  0  0  0  # atno 6909 bound_to 6896
  144.8256  140.5636  143.5549 H   0  0  0  0  0  0  0  0  0  0  0  0  # atno 7974 bound_to 7965
  155.7441  140.3490  155.5118 H   0  0  0  0  0  0  0  0  0  0  0  0  # atno 8008 bound_to 7997
  155.9066  140.1043  157.1332 H   0  0  0  0  0  0  0  0  0  0  0  0  # atno 8009 bound_to 7997
  154.4050  140.1276  156.4491 H   0  0  0  0  0  0  0  0  0  0  0  0  # atno 8010 bound_to 7997
  140.4152  143.2606  151.8964 H   0  0  0  0  0  0  0  0  0  0  0  0  # atno 10167 bound_to 10162
  156.1458  130.4153  150.0027 H   0  0  0  0  0  0  0  0  0  0  0  0  # atno 10718 bound_to 10713
  154.6271  135.2882  155.0259 H   0  0  0  0  0  0  0  0  0  0  0  0  # atno 10763 bound_to 10752
  154.1433  135.6515  153.4951 H   0  0  0  0  0  0  0  0  0  0  0  0  # atno 10764 bound_to 10752
  153.0262  135.5338  154.7084 H   0  0  0  0  0  0  0  0  0  0  0  0  # atno 10765 bound_to 10752
  140.8102  133.8147  155.9555 H   0  0  0  0  0  0  0  0  0  0  0  0  # atno 11005 bound_to 11000
  145.5008  139.1483  143.3658 LP  0  0  0  0  0  0  0  0  0  0  0  0  # atno 17320 bound_to 7965
  146.2561  140.5147  142.8873 LP  0  0  0  0  0  0  0  0  0  0  0  0  # atno 17321 bound_to 7965
  139.4782  144.5495  151.8407 LP  0  0  0  0  0  0  0  0  0  0  0  0  # atno 17342 bound_to 10162
  140.4594  144.1743  150.5905 LP  0  0  0  0  0  0  0  0  0  0  0  0  # atno 17343 bound_to 10162
  156.7899  130.9252  151.3646 LP  0  0  0  0  0  0  0  0  0  0  0  0  # atno 17370 bound_to 10713
  157.6615  130.8970  149.9840 LP  0  0  0  0  0  0  0  0  0  0  0  0  # atno 17371 bound_to 10713
  140.9206  134.2147  157.4929 LP  0  0  0  0  0  0  0  0  0  0  0  0  # atno 17394 bound_to 11000
  139.8715  134.9790  156.5021 LP  0  0  0  0  0  0  0  0  0  0  0  0  # atno 17395 bound_to 11000

$$$$
