AV-unprocessed.smi:3224|AV-procd|sdf|12310|dock5
  -GOLD-   2272018153D 1   1.00000     0.00000
 Structure written by MMmdl.
 30 31  0  0  0  0  0  0  0  0  2 V2000
  151.6861  139.3351  158.1928 C   0  0  0  0  0  0  0  0  0  0  0  0
  150.9041  138.4371  157.2099 C   0  0  0  0  0  0  0  0  0  0  0  0
  150.3887  137.3243  158.0231 N   0  0  0  0  0  0  0  0  0  0  0  0
  149.3716  137.2807  158.9021 C   0  0  0  0  0  0  0  0  0  0  0  0
  148.7034  138.2900  159.1299 O   0  0  0  0  0  0  0  0  0  0  0  0
  149.2107  136.0502  159.4529 N   0  5  0  0  0  0  0  0  0  0  0  0
  148.5115  135.7799  160.5779 C   0  0  0  0  0  0  0  0  0  0  0  0
  148.2542  136.6234  161.5913 N   0  0  0  0  0  0  0  0  0  0  0  0
  147.5041  136.0607  162.6242 C   0  0  0  0  0  0  0  0  0  0  0  0
  147.1756  134.7515  162.4009 C   0  0  0  0  0  0  0  0  0  0  0  0
  147.8039  134.1900  160.8789 S   0  0  0  0  0  0  0  0  0  0  0  0
  149.7437  139.2361  156.5628 C   0  0  0  0  0  0  0  0  0  0  0  0
  150.2462  140.2582  155.5271 C   0  0  0  0  0  0  0  0  0  0  0  0
  151.0435  139.6098  154.5438 O   0  0  0  0  0  0  0  0  0  0  0  0
  152.2197  139.0220  155.0866 C   0  0  0  0  0  0  0  0  0  0  0  0
  151.8467  137.9187  156.0934 C   0  0  0  0  0  0  0  0  0  0  0  0
  152.1238  140.2066  157.7083 H   0  0  0  0  0  0  0  0  0  0  0  0
  152.5021  138.7859  158.6641 H   0  0  0  0  0  0  0  0  0  0  0  0
  151.0392  139.7023  158.9907 H   0  0  0  0  0  0  0  0  0  0  0  0
  150.8794  136.4508  157.9007 H   0  0  0  0  0  0  0  0  0  0  0  0
  147.2495  136.6662  163.4814 H   0  0  0  0  0  0  0  0  0  0  0  0
  146.6067  134.0867  163.0328 H   0  0  0  0  0  0  0  0  0  0  0  0
  149.0558  138.5682  156.0462 H   0  0  0  0  0  0  0  0  0  0  0  0
  149.1520  139.7385  157.3290 H   0  0  0  0  0  0  0  0  0  0  0  0
  149.3969  140.7275  155.0304 H   0  0  0  0  0  0  0  0  0  0  0  0
  150.8115  141.0622  155.9998 H   0  0  0  0  0  0  0  0  0  0  0  0
  152.8018  138.5945  154.2702 H   0  0  0  0  0  0  0  0  0  0  0  0
  152.8457  139.7879  155.5457 H   0  0  0  0  0  0  0  0  0  0  0  0
  152.7490  137.4853  156.5259 H   0  0  0  0  0  0  0  0  0  0  0  0
  151.3725  137.1170  155.5290 H   0  0  0  0  0  0  0  0  0  0  0  0
  1  2  1  0  0  0  0
  1 17  1  0  0  0  0
  1 18  1  0  0  0  0
  1 19  1  0  0  0  0
  2 16  1  0  0  0  0
  2  3  1  0  0  0  0
  2 12  1  0  0  0  0
  3  4  1  0  0  0  0
  3 20  1  0  0  0  0
  4  5  2  0  0  0  0
  4  6  1  0  0  0  0
  6  7  1  0  0  0  0
  7 11  1  0  0  0  0
  7  8  2  0  0  0  0
  8  9  1  0  0  0  0
  9 10  2  0  0  0  0
  9 21  1  0  0  0  0
 10 11  1  0  0  0  0
 10 22  1  0  0  0  0
 12 13  1  0  0  0  0
 12 23  1  0  0  0  0
 12 24  1  0  0  0  0
 13 14  1  0  0  0  0
 13 25  1  0  0  0  0
 13 26  1  0  0  0  0
 14 15  1  0  0  0  0
 15 16  1  0  0  0  0
 15 27  1  0  0  0  0
 15 28  1  0  0  0  0
 16 29  1  0  0  0  0
 16 30  1  0  0  0  0
M  CHG  1   6  -1
M  END
> <s_m_source_file>
AV-unprocessed.smi

> <i_m_source_file_index>
3224

> <i_lp_mmshare_version>
43012

> <i_f3d_flags>
0

> <s_epik_input>
W0NIMl0xW0NIMl1PW0NIMl1bQ0gyXUMxKFtDSDNdKVtOSF1DKD1PKVtOSF1jMm5bY0hdW2NIXXMy

> <s_epik_cmdline>
J2VwaWtfcHl0aG9uJywgJy1waCcsICc3LjAnLCAnLXRuJywgJzgnLCAnLW1hJywgJzIwMCcsICctbWV0YWxfYmluZGluZycsICctaW1hZScsICc8aW5maWxlLm1hZT4nLCAnLW9tYWUnLCAnPG91dGZpbGUubWFlPic=

> <r_lp_tautomer_probability>
1

> <r_epik_Ionization_Penalty>
6.86712

> <r_epik_Ionization_Penalty_Charging>
5.8001

> <r_epik_Ionization_Penalty_Neutral>
1.06702

> <r_epik_State_Penalty>
5.80007

> <r_epik_Charging_Adjusted_Penalty>
11.6002

> <i_epik_Tot_Q>
-1

> <i_epik_Tot_abs_Q>
1

> <r_epik_Metal_State_Penalty>
1.77033

> <b_epik_Metal_Only>
1

> <s_lp_Force_Field>
OPLS_2005

> <r_lp_Energy>
12.9706

> <b_lp_Chiralities_Consistent>
1

> <s_lp_Variant>
AV-unprocessed.smi:3224-2

> <Gold.Version>
5.8.1

> <Gold.Id.Protein>
6NUR|6NUR_protein|mol2

> <Gold.PLP.Fitness>
38.5131

> <Gold.PLP.PLP>
-27.4867

> <Gold.PLP.part.hbond>
-4.9678

> <Gold.PLP.part.metal>
0.0000

> <Gold.PLP.part.buried>
-4.1174

> <Gold.PLP.part.nonpolar>
-19.5910

> <Gold.PLP.part.repulsive>
0.1854

> <Gold.PLP.ligand.clash>
0.0000

> <Gold.PLP.ligand.torsion>
0.4885

> <Gold.PLP.Chemscore.Hbond>
4.0005

> <Gold.PLP.Chemscore.CHOScore>
0.0000

> <Gold.PLP.Chemscore.Metal>
0.0000

> <Gold.Chemscore.Hbonds>
donor molecule, donor type, donor heavy atom, donor atom, acceptor molecule, acceptor atom, score
      P1  H  6896  6909       L1     6  2.00
      P1  H  6931  6943       L1     8  1.00
      P1  H  7989  7998       L1    14  1.00

> <Gold.PLP.Chemscore.Internal.Correction>
0.0020

> <Gold.Rescore>
     Score         DG    S(hbond)    S(metal)    S(lipo)     H(rot)  DE(clash)    DE(int)     intcor
     12.81     -15.60       1.77        0.00      57.73       1.00       0.04       2.75       ----

> <Gold.Chemscore.Fitness>
12.8076

> <Gold.Chemscore.DG>
-15.5987

> <Gold.Chemscore.ZeroCoef>
-5.4800

> <Gold.Chemscore.Hbond>
1.7738

> <Gold.Chemscore.Metal>
0.0000

> <Gold.Chemscore.Lipo>
57.7276

> <Gold.Chemscore.Internal_Hbond>
0.0000

> <Gold.Chemscore.DEClash>
0.0376

> <Gold.Chemscore.DEInternal>
2.7535

> <Gold.Chemscore.Rot>
1.0000

> <Gold.Chemscore.Internal.Correction>
   9.000000E+99

> <Gold.Chemscore.Hbonds>
donor molecule, donor type, donor heavy atom, donor atom, acceptor molecule, acceptor atom, score
      P1  H  6896  6909       L1     6  0.28
      P1  H  6931  6943       L1     8  0.94
      P1  H  6934  6947       L1     5  0.01
      P1  H  7989  7998       L1    14  0.27

> <Gold.Chemscore.Hbond.Weighted>
-5.9246

> <Gold.Chemscore.Metal.Weighted>
-0.0000

> <Gold.Chemscore.Lipo.Weighted>
-6.7541

> <Gold.Chemscore.Internal_Hbond.Weighted>
0.0000

> <Gold.Chemscore.DEClash.Weighted>
0.0376

> <Gold.Chemscore.DEInternal.Weighted>
2.7535

> <Gold.Chemscore.Rot.Weighted>
2.5600

> <Gold.Chemscore.Internal.Correction.Weighted>
   9.000000E+99

> <Gold.Protein.RotatedTorsions>
[ 6907 6896 6895 6894 ] final   65.69 input  -60.11 | X-H torsion
[ 7974 7965 7964 7962 ] final  121.23 input  175.53 | X-H torsion
[ 8008 7997 7996 7995 ] final  145.95 input   59.86 | X-H torsion
[ 10167 10162 10161 10158 ] final -178.26 input  -65.29 | X-H torsion
[ 10718 10713 10712 10709 ] final  -90.89 input   66.30 | X-H torsion
[ 10763 10752 10751 10750 ] final  -17.07 input  -60.55 | X-H torsion
[ 11005 11000 10999 10996 ] final -124.89 input  -57.11 | X-H torsion

> <Gold.Protein.ActiveResidues>
 VAL166  LYS551  ARG553  GLY616  TRP617  ASP618  TYR619  PRO620  LYS621  CYS622 
 ASP623  PHE694  ASN695  SER759  ASP760  ASP761  ALA762  ILE779  LEU786  VAL792 
 PHE793  MET794  SER795  GLU796  ALA797  LYS798  CYS799  TRP800  GLU811  SER814 

> <Gold.Protein.RotatedAtoms>
  152.4426  134.5560  159.9880 H   0  0  0  0  0  0  0  0  0  0  0  0  # atno 6907 bound_to 6896
  151.5654  133.3391  159.2987 H   0  0  0  0  0  0  0  0  0  0  0  0  # atno 6908 bound_to 6896
  150.8335  134.7632  159.6937 H   0  0  0  0  0  0  0  0  0  0  0  0  # atno 6909 bound_to 6896
  145.1217  139.3384  143.4710 H   0  0  0  0  0  0  0  0  0  0  0  0  # atno 7974 bound_to 7965
  156.2869  140.2195  156.5297 H   0  0  0  0  0  0  0  0  0  0  0  0  # atno 8008 bound_to 7997
  154.7459  140.0484  157.0873 H   0  0  0  0  0  0  0  0  0  0  0  0  # atno 8009 bound_to 7997
  155.0171  140.3120  155.4810 H   0  0  0  0  0  0  0  0  0  0  0  0  # atno 8010 bound_to 7997
  139.5441  144.2284  152.0953 H   0  0  0  0  0  0  0  0  0  0  0  0  # atno 10167 bound_to 10162
  155.9990  130.4927  150.5391 H   0  0  0  0  0  0  0  0  0  0  0  0  # atno 10718 bound_to 10713
  153.5682  135.7008  153.5516 H   0  0  0  0  0  0  0  0  0  0  0  0  # atno 10763 bound_to 10752
  153.3368  135.4032  155.1540 H   0  0  0  0  0  0  0  0  0  0  0  0  # atno 10764 bound_to 10752
  154.8637  135.3732  154.5203 H   0  0  0  0  0  0  0  0  0  0  0  0  # atno 10765 bound_to 10752
  140.9805  134.0679  157.3770 H   0  0  0  0  0  0  0  0  0  0  0  0  # atno 11005 bound_to 11000
  146.3520  140.1179  142.8601 LP  0  0  0  0  0  0  0  0  0  0  0  0  # atno 17320 bound_to 7965
  145.0733  140.9170  143.4869 LP  0  0  0  0  0  0  0  0  0  0  0  0  # atno 17321 bound_to 7965
  140.1767  144.4883  150.6550 LP  0  0  0  0  0  0  0  0  0  0  0  0  # atno 17342 bound_to 10162
  140.6682  143.2276  151.5691 LP  0  0  0  0  0  0  0  0  0  0  0  0  # atno 17343 bound_to 10162
  157.3330  131.0703  151.1846 LP  0  0  0  0  0  0  0  0  0  0  0  0  # atno 17370 bound_to 10713
  157.2721  130.6709  149.6024 LP  0  0  0  0  0  0  0  0  0  0  0  0  # atno 17371 bound_to 10713
  139.8948  135.0138  156.6970 LP  0  0  0  0  0  0  0  0  0  0  0  0  # atno 17394 bound_to 11000
  140.7193  133.9154  155.8136 LP  0  0  0  0  0  0  0  0  0  0  0  0  # atno 17395 bound_to 11000

$$$$
