AV-unprocessed.smi:1892|AV-procd|sdf|7669|dock1
  -GOLD-   22720 9403D 1   1.00000     0.00000
 Structure written by MMmdl.
 42 43  0  0  0  0  0  0  0  0  1 V2000
  151.4773  141.4569  157.7029 C   0  0  0  0  0  0  0  0  0  0  0  0
  151.6167  140.4132  156.5927 C   0  0  0  0  0  0  0  0  0  0  0  0
  152.4408  139.5116  156.7460 O   0  0  0  0  0  0  0  0  0  0  0  0
  150.8375  140.5121  155.4898 N   0  0  0  0  0  0  0  0  0  0  0  0
  149.7902  141.5121  155.2619 C   0  0  0  0  0  0  0  0  0  0  0  0
  148.4259  140.7975  155.2133 C   0  0  0  0  0  0  0  0  0  0  0  0
  148.4129  139.7935  154.1449 N   0  0  0  0  0  0  0  0  0  0  0  0
  147.1011  139.1453  154.1156 C   0  0  0  0  0  0  0  0  0  0  0  0
  146.5822  138.9005  152.6828 C   0  0  0  0  0  0  0  0  0  0  0  0
  146.8217  137.5319  152.2342 N   0  0  0  0  0  0  0  0  0  0  0  0
  145.8676  136.6163  152.0135 C   0  0  0  0  0  0  0  0  0  0  0  0
  144.6677  136.8325  152.1860 O   0  0  0  0  0  0  0  0  0  0  0  0
  146.3958  135.4561  151.5855 N   0  0  0  0  0  0  0  0  0  0  0  0
  145.7161  134.2604  151.2300 C   0  0  0  0  0  0  0  0  0  0  0  0
  146.5537  133.1700  150.9029 C   0  0  0  0  0  0  0  0  0  0  0  0
  145.9772  131.9391  150.5339 C   0  0  0  0  0  0  0  0  0  0  0  0
  144.5755  131.8301  150.5002 C   0  0  0  0  0  0  0  0  0  0  0  0
  143.8142  132.9637  150.8402 C   0  0  0  0  0  0  0  0  0  0  0  0
  144.3648  134.1439  151.1949 N   0  0  0  0  0  0  0  0  0  0  0  0
  149.4878  138.8165  154.3586 C   0  0  0  0  0  0  0  0  0  0  0  0
  150.8531  139.5294  154.4035 C   0  0  0  0  0  0  0  0  0  0  0  0
  150.4667  141.4539  158.1117 H   0  0  0  0  0  0  0  0  0  0  0  0
  151.7067  142.4545  157.3276 H   0  0  0  0  0  0  0  0  0  0  0  0
  152.1669  141.2422  158.5200 H   0  0  0  0  0  0  0  0  0  0  0  0
  149.7623  142.2940  156.0190 H   0  0  0  0  0  0  0  0  0  0  0  0
  149.9810  142.0243  154.3175 H   0  0  0  0  0  0  0  0  0  0  0  0
  148.2116  140.3271  156.1746 H   0  0  0  0  0  0  0  0  0  0  0  0
  147.6401  141.5320  155.0323 H   0  0  0  0  0  0  0  0  0  0  0  0
  147.1362  138.2071  154.6711 H   0  0  0  0  0  0  0  0  0  0  0  0
  146.3797  139.7791  154.6336 H   0  0  0  0  0  0  0  0  0  0  0  0
  145.5157  139.1091  152.6086 H   0  0  0  0  0  0  0  0  0  0  0  0
  147.0663  139.5968  151.9964 H   0  0  0  0  0  0  0  0  0  0  0  0
  147.7820  137.2727  152.0621 H   0  0  0  0  0  0  0  0  0  0  0  0
  147.4009  135.4255  151.4998 H   0  0  0  0  0  0  0  0  0  0  0  0
  147.6289  133.2711  150.9336 H   0  0  0  0  0  0  0  0  0  0  0  0
  146.6003  131.0940  150.2811 H   0  0  0  0  0  0  0  0  0  0  0  0
  144.0966  130.9032  150.2213 H   0  0  0  0  0  0  0  0  0  0  0  0
  142.7350  132.9231  150.8270 H   0  0  0  0  0  0  0  0  0  0  0  0
  149.3191  138.2693  155.2878 H   0  0  0  0  0  0  0  0  0  0  0  0
  149.4999  138.0845  153.5521 H   0  0  0  0  0  0  0  0  0  0  0  0
  151.0481  140.0366  153.4574 H   0  0  0  0  0  0  0  0  0  0  0  0
  151.6470  138.7899  154.5159 H   0  0  0  0  0  0  0  0  0  0  0  0
  1  2  1  0  0  0  0
  1 22  1  0  0  0  0
  1 23  1  0  0  0  0
  1 24  1  0  0  0  0
  2  3  2  0  0  0  0
  2  4  1  0  0  0  0
  4 21  1  0  0  0  0
  4  5  1  0  0  0  0
  5  6  1  0  0  0  0
  5 25  1  0  0  0  0
  5 26  1  0  0  0  0
  6  7  1  0  0  0  0
  6 27  1  0  0  0  0
  6 28  1  0  0  0  0
  7  8  1  0  0  0  0
  7 20  1  0  0  0  0
  8  9  1  0  0  0  0
  8 29  1  0  0  0  0
  8 30  1  0  0  0  0
  9 10  1  0  0  0  0
  9 31  1  0  0  0  0
  9 32  1  0  0  0  0
 10 11  1  0  0  0  0
 10 33  1  0  0  0  0
 11 12  2  0  0  0  0
 11 13  1  0  0  0  0
 13 14  1  0  0  0  0
 13 34  1  0  0  0  0
 14 19  1  0  0  0  0
 14 15  2  0  0  0  0
 15 16  1  0  0  0  0
 15 35  1  0  0  0  0
 16 17  2  0  0  0  0
 16 36  1  0  0  0  0
 17 18  1  0  0  0  0
 17 37  1  0  0  0  0
 18 19  2  0  0  0  0
 18 38  1  0  0  0  0
 20 21  1  0  0  0  0
 20 39  1  0  0  0  0
 20 40  1  0  0  0  0
 21 41  1  0  0  0  0
 21 42  1  0  0  0  0
M  END
> <s_m_source_file>
AV-unprocessed.smi

> <i_m_source_file_index>
1892

> <i_lp_mmshare_version>
43012

> <i_f3d_flags>
0

> <s_epik_input>
W0NIM11DKD1PKU4xW0NIMl1bQ0gyXU4oW0NIMl1bQ0gyXTEpW0NIMl1bQ0gyXVtOSF1DKD1PKVtOSF1jMltjSF1bY0hdW2NIXVtjSF1uMg==

> <s_epik_cmdline>
J2VwaWtfcHl0aG9uJywgJy1waCcsICc3LjAnLCAnLXRuJywgJzgnLCAnLW1hJywgJzIwMCcsICctbWV0YWxfYmluZGluZycsICctaW1hZScsICc8aW5maWxlLm1hZT4nLCAnLW9tYWUnLCAnPG91dGZpbGUubWFlPic=

> <r_epik_Ionization_Penalty>
0.251009

> <r_epik_Ionization_Penalty_Charging>
0

> <r_epik_Ionization_Penalty_Neutral>
0.251009

> <r_epik_State_Penalty>
0.242297

> <r_epik_Charging_Adjusted_Penalty>
0.242297

> <i_epik_Tot_Q>
0

> <i_epik_Tot_abs_Q>
0

> <r_epik_Metal_State_Penalty>
0.242295

> <b_epik_Metal_Only>
0

> <s_lp_Force_Field>
OPLS_2005

> <r_lp_Energy>
38.7367

> <b_lp_Chiralities_Consistent>
1

> <s_lp_Variant>
AV-unprocessed.smi:1892-1

> <Gold.Version>
5.8.1

> <Gold.Id.Protein>
6NUR|6NUR_protein|mol2

> <Gold.PLP.Fitness>
47.1284

> <Gold.PLP.PLP>
-36.9678

> <Gold.PLP.part.hbond>
-2.9787

> <Gold.PLP.part.metal>
0.0000

> <Gold.PLP.part.buried>
-3.3291

> <Gold.PLP.part.nonpolar>
-32.1678

> <Gold.PLP.part.repulsive>
0.9475

> <Gold.PLP.ligand.clash>
0.0000

> <Gold.PLP.ligand.torsion>
0.8664

> <Gold.PLP.Chemscore.Hbond>
2.9600

> <Gold.PLP.Chemscore.CHOScore>
0.9963

> <Gold.PLP.Chemscore.Metal>
0.0000

> <Gold.Chemscore.Hbonds>
donor molecule, donor type, donor heavy atom, donor atom, acceptor molecule, acceptor atom, score
      L1  H    10    33       P1  7948  1.00
      L1  H    13    34       P1  7948  0.96
      P1  H  7997  8009       L1     3  1.00
      L1  C    18    38       P1 10186  0.79

> <Gold.PLP.Chemscore.Internal.Correction>
0.0243

> <Gold.Rescore>
     Score         DG    S(hbond)    S(metal)    S(lipo)     H(rot)  DE(clash)    DE(int)     intcor
     17.08     -19.92       2.76        0.00      79.69       1.60       0.63       2.21       ----

> <Gold.Chemscore.Fitness>
17.0837

> <Gold.Chemscore.DG>
-19.9177

> <Gold.Chemscore.ZeroCoef>
-5.4800

> <Gold.Chemscore.Hbond>
2.7606

> <Gold.Chemscore.Metal>
0.0000

> <Gold.Chemscore.Lipo>
79.6921

> <Gold.Chemscore.Internal_Hbond>
0.0000

> <Gold.Chemscore.DEClash>
0.6283

> <Gold.Chemscore.DEInternal>
2.2057

> <Gold.Chemscore.Rot>
1.6041

> <Gold.Chemscore.Internal.Correction>
   9.000000E+99

> <Gold.Chemscore.Hbonds>
donor molecule, donor type, donor heavy atom, donor atom, acceptor molecule, acceptor atom, score
      L1  H    10    33       P1  7948  0.94
      L1  H    13    34       P1  7948  0.85
      P1  H  7997  8009       L1     3  0.84

> <Gold.Chemscore.Hbond.Weighted>
-9.2204

> <Gold.Chemscore.Metal.Weighted>
-0.0000

> <Gold.Chemscore.Lipo.Weighted>
-9.3240

> <Gold.Chemscore.Internal_Hbond.Weighted>
0.0000

> <Gold.Chemscore.DEClash.Weighted>
0.6283

> <Gold.Chemscore.DEInternal.Weighted>
2.2057

> <Gold.Chemscore.Rot.Weighted>
4.1066

> <Gold.Chemscore.Internal.Correction.Weighted>
   9.000000E+99

> <Gold.Protein.RotatedTorsions>
[ 6907 6896 6895 6894 ] final  106.10 input  -60.11 | X-H torsion
[ 7974 7965 7964 7962 ] final   16.72 input  175.53 | X-H torsion
[ 8008 7997 7996 7995 ] final -174.62 input   59.86 | X-H torsion
[ 10167 10162 10161 10158 ] final  -74.59 input  -65.29 | X-H torsion
[ 10718 10713 10712 10709 ] final  161.65 input   66.30 | X-H torsion
[ 10763 10752 10751 10750 ] final -132.15 input  -60.55 | X-H torsion
[ 11005 11000 10999 10996 ] final -118.61 input  -57.11 | X-H torsion

> <Gold.Protein.ActiveResidues>
 VAL166  LYS551  ARG553  GLY616  TRP617  ASP618  TYR619  PRO620  LYS621  CYS622 
 ASP623  PHE694  ASN695  SER759  ASP760  ASP761  ALA762  ILE779  LEU786  VAL792 
 PHE793  MET794  SER795  GLU796  ALA797  LYS798  CYS799  TRP800  GLU811  SER814 

> <Gold.Protein.RotatedAtoms>
  152.5206  133.9431  159.7635 H   0  0  0  0  0  0  0  0  0  0  0  0  # atno 6907 bound_to 6896
  150.9757  133.6289  159.2737 H   0  0  0  0  0  0  0  0  0  0  0  0  # atno 6908 bound_to 6896
  151.3485  135.0885  159.9448 H   0  0  0  0  0  0  0  0  0  0  0  0  # atno 6909 bound_to 6896
  146.2241  139.8707  142.8588 H   0  0  0  0  0  0  0  0  0  0  0  0  # atno 7974 bound_to 7965
  155.9723  140.1165  157.0801 H   0  0  0  0  0  0  0  0  0  0  0  0  # atno 8008 bound_to 7997
  154.4160  140.1161  156.5391 H   0  0  0  0  0  0  0  0  0  0  0  0  # atno 8009 bound_to 7997
  155.6580  140.3473  155.4774 H   0  0  0  0  0  0  0  0  0  0  0  0  # atno 8010 bound_to 7997
  140.5014  143.2360  151.7746 H   0  0  0  0  0  0  0  0  0  0  0  0  # atno 10167 bound_to 10162
  157.1335  131.0522  151.2360 H   0  0  0  0  0  0  0  0  0  0  0  0  # atno 10718 bound_to 10713
  154.8745  135.3807  154.4362 H   0  0  0  0  0  0  0  0  0  0  0  0  # atno 10763 bound_to 10752
  153.5051  135.7030  153.5816 H   0  0  0  0  0  0  0  0  0  0  0  0  # atno 10764 bound_to 10752
  153.4130  135.3920  155.2029 H   0  0  0  0  0  0  0  0  0  0  0  0  # atno 10765 bound_to 10752
  141.0274  134.0033  157.3194 H   0  0  0  0  0  0  0  0  0  0  0  0  # atno 11005 bound_to 11000
  145.2611  141.0077  143.3826 LP  0  0  0  0  0  0  0  0  0  0  0  0  # atno 17320 bound_to 7965
  144.9298  139.4312  143.6501 LP  0  0  0  0  0  0  0  0  0  0  0  0  # atno 17321 bound_to 7965
  139.4873  144.4517  151.9646 LP  0  0  0  0  0  0  0  0  0  0  0  0  # atno 17342 bound_to 10162
  140.3606  144.2978  150.5934 LP  0  0  0  0  0  0  0  0  0  0  0  0  # atno 17343 bound_to 10162
  157.4371  130.7523  149.7038 LP  0  0  0  0  0  0  0  0  0  0  0  0  # atno 17370 bound_to 10713
  155.9803  130.4031  150.3537 LP  0  0  0  0  0  0  0  0  0  0  0  0  # atno 17371 bound_to 10713
  139.9185  135.0199  156.7973 LP  0  0  0  0  0  0  0  0  0  0  0  0  # atno 17394 bound_to 11000
  140.6468  133.9768  155.7735 LP  0  0  0  0  0  0  0  0  0  0  0  0  # atno 17395 bound_to 11000

$$$$
