AV-unprocessed.smi:1070|AV-procd|sdf|4676|dock8
  -GOLD-   22720 3193D 1   1.00000     0.00000
 Structure written by MMmdl.
 48 49  0  0  0  0  0  0  0  0  1 V2000
  147.6458  133.2468  153.4655 C   0  0  0  0  0  0  0  0  0  0  0  0
  149.1425  132.9305  153.4243 C   0  0  0  0  0  0  0  0  0  0  0  0
  149.6658  133.0217  154.7377 O   0  0  0  0  0  0  0  0  0  0  0  0
  149.6388  134.3463  155.2510 C   0  0  0  0  0  0  0  0  0  0  0  0
  149.3537  134.2971  156.7519 C   0  0  0  0  0  0  0  0  0  0  0  0
  149.5524  133.2541  157.3738 O   0  0  0  0  0  0  0  0  0  0  0  0
  148.8941  135.4366  157.2983 N   0  0  0  0  0  0  0  0  0  0  0  0
  148.4457  135.6559  158.6302 C   0  0  0  0  0  0  0  0  0  0  0  0
  147.7941  134.6524  159.3850 C   0  0  0  0  0  0  0  0  0  0  0  0
  147.4204  134.9272  160.7128 C   0  0  0  0  0  0  0  0  0  0  0  0
  147.7183  136.1922  161.2518 C   0  0  0  0  0  0  0  0  0  0  0  0
  147.3513  136.4607  162.5545 O   0  0  0  0  0  0  0  0  0  0  0  0
  146.4483  135.5683  163.1984 C   0  0  0  0  0  0  0  0  0  0  0  0
  148.3546  137.1534  160.5400 N   0  0  0  0  0  0  0  0  0  0  0  0
  148.7150  136.9000  159.2595 C   0  0  0  0  0  0  0  0  0  0  0  0
  149.3574  137.9359  158.5525 N   0  0  0  0  0  0  0  0  0  0  0  0
  148.6122  138.5642  157.4604 C   0  0  0  0  0  0  0  0  0  0  0  0
  149.3384  139.8317  156.9703 C   0  0  0  0  0  0  0  0  0  0  0  0
  150.7220  139.4863  156.6169 N   0  0  0  0  0  0  0  0  0  0  0  0
  151.1923  139.5397  155.3481 C   0  0  0  0  0  0  0  0  0  0  0  0
  152.6316  139.1037  155.0647 C   0  0  0  0  0  0  0  0  0  0  0  0
  150.5084  139.9273  154.4007 O   0  0  0  0  0  0  0  0  0  0  0  0
  151.4589  138.9726  157.7802 C   0  0  0  0  0  0  0  0  0  0  0  0
  150.7731  137.6873  158.2785 C   0  0  0  0  0  0  0  0  0  0  0  0
  147.2033  133.1672  152.4724 H   0  0  0  0  0  0  0  0  0  0  0  0
  147.4707  134.2596  153.8285 H   0  0  0  0  0  0  0  0  0  0  0  0
  147.1171  132.5574  154.1242 H   0  0  0  0  0  0  0  0  0  0  0  0
  149.3020  131.9272  153.0268 H   0  0  0  0  0  0  0  0  0  0  0  0
  149.6528  133.6335  152.7643 H   0  0  0  0  0  0  0  0  0  0  0  0
  150.5958  134.8411  155.0756 H   0  0  0  0  0  0  0  0  0  0  0  0
  148.8614  134.9322  154.7584 H   0  0  0  0  0  0  0  0  0  0  0  0
  148.7078  136.1879  156.6494 H   0  0  0  0  0  0  0  0  0  0  0  0
  147.5924  133.6750  158.9739 H   0  0  0  0  0  0  0  0  0  0  0  0
  146.9210  134.1779  161.3090 H   0  0  0  0  0  0  0  0  0  0  0  0
  146.2649  135.9123  164.2161 H   0  0  0  0  0  0  0  0  0  0  0  0
  146.8598  134.5597  163.2597 H   0  0  0  0  0  0  0  0  0  0  0  0
  145.4875  135.5320  162.6829 H   0  0  0  0  0  0  0  0  0  0  0  0
  148.5063  137.8580  156.6355 H   0  0  0  0  0  0  0  0  0  0  0  0
  147.6075  138.8194  157.7997 H   0  0  0  0  0  0  0  0  0  0  0  0
  148.7849  140.2748  156.1416 H   0  0  0  0  0  0  0  0  0  0  0  0
  149.3494  140.5856  157.7589 H   0  0  0  0  0  0  0  0  0  0  0  0
  152.7828  138.0614  155.3470 H   0  0  0  0  0  0  0  0  0  0  0  0
  153.3388  139.7271  155.6125 H   0  0  0  0  0  0  0  0  0  0  0  0
  152.8596  139.1971  154.0024 H   0  0  0  0  0  0  0  0  0  0  0  0
  152.5112  138.7736  157.5839 H   0  0  0  0  0  0  0  0  0  0  0  0
  151.4458  139.7268  158.5679 H   0  0  0  0  0  0  0  0  0  0  0  0
  151.2853  137.3208  159.1679 H   0  0  0  0  0  0  0  0  0  0  0  0
  150.8548  136.9034  157.5244 H   0  0  0  0  0  0  0  0  0  0  0  0
  1  2  1  0  0  0  0
  1 25  1  0  0  0  0
  1 26  1  0  0  0  0
  1 27  1  0  0  0  0
  2  3  1  0  0  0  0
  2 28  1  0  0  0  0
  2 29  1  0  0  0  0
  3  4  1  0  0  0  0
  4  5  1  0  0  0  0
  4 30  1  0  0  0  0
  4 31  1  0  0  0  0
  5  6  2  0  0  0  0
  5  7  1  0  0  0  0
  7  8  1  0  0  0  0
  7 32  1  0  0  0  0
  8 15  1  0  0  0  0
  8  9  2  0  0  0  0
  9 10  1  0  0  0  0
  9 33  1  0  0  0  0
 10 11  2  0  0  0  0
 10 34  1  0  0  0  0
 11 12  1  0  0  0  0
 11 14  1  0  0  0  0
 12 13  1  0  0  0  0
 13 35  1  0  0  0  0
 13 36  1  0  0  0  0
 13 37  1  0  0  0  0
 14 15  2  0  0  0  0
 15 16  1  0  0  0  0
 16 24  1  0  0  0  0
 16 17  1  0  0  0  0
 17 18  1  0  0  0  0
 17 38  1  0  0  0  0
 17 39  1  0  0  0  0
 18 19  1  0  0  0  0
 18 40  1  0  0  0  0
 18 41  1  0  0  0  0
 19 20  1  0  0  0  0
 19 23  1  0  0  0  0
 20 21  1  0  0  0  0
 20 22  2  0  0  0  0
 21 42  1  0  0  0  0
 21 43  1  0  0  0  0
 21 44  1  0  0  0  0
 23 24  1  0  0  0  0
 23 45  1  0  0  0  0
 23 46  1  0  0  0  0
 24 47  1  0  0  0  0
 24 48  1  0  0  0  0
M  END
> <s_m_source_file>
AV-unprocessed.smi

> <i_m_source_file_index>
1070

> <i_lp_mmshare_version>
43012

> <i_f3d_flags>
0

> <s_epik_input>
W0NIM11bQ0gyXU9bQ0gyXUMoPU8pW05IXWMxW2NIXVtjSF1jKE9bQ0gzXSluYzFOMltDSDJdW0NIMl1OKEMoPU8pW0NIM10pW0NIMl1bQ0gyXTI=

> <s_epik_cmdline>
J2VwaWtfcHl0aG9uJywgJy1waCcsICc3LjAnLCAnLXRuJywgJzgnLCAnLW1hJywgJzIwMCcsICctbWV0YWxfYmluZGluZycsICctaW1hZScsICc8aW5maWxlLm1hZT4nLCAnLW9tYWUnLCAnPG91dGZpbGUubWFlPic=

> <r_lp_tautomer_probability>
1

> <r_epik_Ionization_Penalty>
0.000131804

> <r_epik_Ionization_Penalty_Charging>
0

> <r_epik_Ionization_Penalty_Neutral>
0.000131804

> <r_epik_State_Penalty>
-0

> <r_epik_Charging_Adjusted_Penalty>
0

> <i_epik_Tot_Q>
0

> <i_epik_Tot_abs_Q>
0

> <r_epik_Metal_State_Penalty>
-0

> <b_epik_Metal_Only>
0

> <s_lp_Force_Field>
OPLS_2005

> <r_lp_Energy>
37.3921

> <b_lp_Chiralities_Consistent>
1

> <s_lp_Variant>
AV-unprocessed.smi:1070-1

> <Gold.Version>
5.8.1

> <Gold.Id.Protein>
6NUR|6NUR_protein|mol2

> <Gold.PLP.Fitness>
36.6499

> <Gold.PLP.PLP>
-32.0197

> <Gold.PLP.part.hbond>
-3.3380

> <Gold.PLP.part.metal>
0.0000

> <Gold.PLP.part.buried>
-5.5743

> <Gold.PLP.part.nonpolar>
-23.9803

> <Gold.PLP.part.repulsive>
0.2218

> <Gold.PLP.ligand.clash>
0.1874

> <Gold.PLP.ligand.torsion>
1.0923

> <Gold.PLP.Chemscore.Hbond>
2.1837

> <Gold.PLP.Chemscore.CHOScore>
0.0000

> <Gold.PLP.Chemscore.Metal>
0.0000

> <Gold.Chemscore.Hbonds>
donor molecule, donor type, donor heavy atom, donor atom, acceptor molecule, acceptor atom, score
      P1  H  6931  6943       L1    14  0.78
      P1  H  6934  6947       L1    14  0.31
      P1  H  7989  7998       L1    22  1.00

> <Gold.PLP.Chemscore.Internal.Correction>
0.4509

> <Gold.Rescore>
     Score         DG    S(hbond)    S(metal)    S(lipo)     H(rot)  DE(clash)    DE(int)     intcor
     11.35     -14.61       2.20        0.00      56.03       1.86       1.38       1.88       ----

> <Gold.Chemscore.Fitness>
11.3524

> <Gold.Chemscore.DG>
-14.6102

> <Gold.Chemscore.ZeroCoef>
-5.4800

> <Gold.Chemscore.Hbond>
2.1990

> <Gold.Chemscore.Metal>
0.0000

> <Gold.Chemscore.Lipo>
56.0263

> <Gold.Chemscore.Internal_Hbond>
0.0000

> <Gold.Chemscore.DEClash>
1.3817

> <Gold.Chemscore.DEInternal>
1.8761

> <Gold.Chemscore.Rot>
1.8631

> <Gold.Chemscore.Internal.Correction>
   9.000000E+99

> <Gold.Chemscore.Hbonds>
donor molecule, donor type, donor heavy atom, donor atom, acceptor molecule, acceptor atom, score
      P1  H  6931  6943       L1    14  0.31
      P1  H  6934  6947       L1    14  0.16
      P1  H  7989  7998       L1    22  0.40

> <Gold.Chemscore.Hbond.Weighted>
-7.3447

> <Gold.Chemscore.Metal.Weighted>
-0.0000

> <Gold.Chemscore.Lipo.Weighted>
-6.5551

> <Gold.Chemscore.Internal_Hbond.Weighted>
0.0000

> <Gold.Chemscore.DEClash.Weighted>
1.3817

> <Gold.Chemscore.DEInternal.Weighted>
1.8761

> <Gold.Chemscore.Rot.Weighted>
4.7696

> <Gold.Chemscore.Internal.Correction.Weighted>
   9.000000E+99

> <Gold.Protein.RotatedTorsions>
[ 6907 6896 6895 6894 ] final   41.99 input  -60.11 | X-H torsion
[ 7974 7965 7964 7962 ] final  124.37 input  175.53 | X-H torsion
[ 8008 7997 7996 7995 ] final   44.77 input   59.86 | X-H torsion
[ 10167 10162 10161 10158 ] final  -23.27 input  -65.29 | X-H torsion
[ 10718 10713 10712 10709 ] final -151.57 input   66.30 | X-H torsion
[ 10763 10752 10751 10750 ] final -116.16 input  -60.55 | X-H torsion
[ 11005 11000 10999 10996 ] final -143.93 input  -57.11 | X-H torsion

> <Gold.Protein.ActiveResidues>
 VAL166  LYS551  ARG553  GLY616  TRP617  ASP618  TYR619  PRO620  LYS621  CYS622 
 ASP623  PHE694  ASN695  SER759  ASP760  ASP761  ALA762  ILE779  LEU786  VAL792 
 PHE793  MET794  SER795  GLU796  ALA797  LYS798  CYS799  TRP800  GLU811  SER814 

> <Gold.Protein.RotatedAtoms>
  152.2023  134.8577  160.0506 H   0  0  0  0  0  0  0  0  0  0  0  0  # atno 6907 bound_to 6896
  151.9426  133.3637  159.3979 H   0  0  0  0  0  0  0  0  0  0  0  0  # atno 6908 bound_to 6896
  150.6957  134.4348  159.5309 H   0  0  0  0  0  0  0  0  0  0  0  0  # atno 6909 bound_to 6896
  145.0852  139.3627  143.4889 H   0  0  0  0  0  0  0  0  0  0  0  0  # atno 7974 bound_to 7965
  155.3248  140.3399  155.4240 H   0  0  0  0  0  0  0  0  0  0  0  0  # atno 8008 bound_to 7997
  156.1891  140.1691  156.8164 H   0  0  0  0  0  0  0  0  0  0  0  0  # atno 8009 bound_to 7997
  154.5421  140.0723  156.8510 H   0  0  0  0  0  0  0  0  0  0  0  0  # atno 8010 bound_to 7997
  140.7288  143.4458  151.0589 H   0  0  0  0  0  0  0  0  0  0  0  0  # atno 10167 bound_to 10162
  156.4610  130.8213  151.2444 H   0  0  0  0  0  0  0  0  0  0  0  0  # atno 10718 bound_to 10713
  154.8509  135.4355  154.1778 H   0  0  0  0  0  0  0  0  0  0  0  0  # atno 10763 bound_to 10752
  153.2876  135.6959  153.7330 H   0  0  0  0  0  0  0  0  0  0  0  0  # atno 10764 bound_to 10752
  153.6510  135.3451  155.3074 H   0  0  0  0  0  0  0  0  0  0  0  0  # atno 10765 bound_to 10752
  140.8075  134.2783  157.4954 H   0  0  0  0  0  0  0  0  0  0  0  0  # atno 11005 bound_to 11000
  146.3531  140.0661  142.8626 LP  0  0  0  0  0  0  0  0  0  0  0  0  # atno 17320 bound_to 7965
  145.1131  140.9417  143.4645 LP  0  0  0  0  0  0  0  0  0  0  0  0  # atno 17321 bound_to 7965
  139.8130  143.7925  152.3172 LP  0  0  0  0  0  0  0  0  0  0  0  0  # atno 17342 bound_to 10162
  139.7981  144.7384  150.9862 LP  0  0  0  0  0  0  0  0  0  0  0  0  # atno 17343 bound_to 10162
  157.7498  131.0107  150.3316 LP  0  0  0  0  0  0  0  0  0  0  0  0  # atno 17370 bound_to 10713
  156.3716  130.3864  149.7171 LP  0  0  0  0  0  0  0  0  0  0  0  0  # atno 17371 bound_to 10713
  139.8716  134.9465  156.3939 LP  0  0  0  0  0  0  0  0  0  0  0  0  # atno 17394 bound_to 11000
  140.9231  133.7631  155.9931 LP  0  0  0  0  0  0  0  0  0  0  0  0  # atno 17395 bound_to 11000

$$$$
