AV-unprocessed.smi:1480|AV-procd|sdf|5986|dock9
  -GOLD-   22720 6 83D 1   1.00000     0.00000
 Structure written by MMmdl.
 37 38  0  0  0  0  0  0  0  0  1 V2000
  152.9950  143.7031  163.0429 C   0  0  0  0  0  0  0  0  0  0  0  0
  152.8166  143.0398  161.7500 N   0  0  0  0  0  0  0  0  0  0  0  0
  151.9382  143.7442  160.8052 C   0  0  0  0  0  0  0  0  0  0  0  0
  151.4414  142.8613  159.6532 C   0  0  0  0  0  0  0  0  0  0  0  0
  152.6153  142.0902  159.0362 C   0  0  2  0  0  0  0  0  0  0  0  0
  152.1461  141.2458  157.8423 C   0  0  0  0  0  0  0  0  0  0  0  0
  152.7287  140.1953  157.5728 O   0  0  0  0  0  0  0  0  0  0  0  0
  151.0937  141.7329  157.1593 N   0  0  0  0  0  0  0  0  0  0  0  0
  150.4513  141.1912  156.0159 C   0  0  0  0  0  0  0  0  0  0  0  0
  150.9509  140.1428  155.1858 C   0  0  0  0  0  0  0  0  0  0  0  0
  149.9777  140.0034  154.2379 C   0  0  0  0  0  0  0  0  0  0  0  0
  148.9864  140.9216  154.5209 N   0  0  0  0  0  0  0  0  0  0  0  0
  147.7478  141.1597  153.8013 C   0  0  0  0  0  0  0  0  0  0  0  0
  147.1138  139.8455  153.3431 C   0  0  0  0  0  0  0  0  0  0  0  0
  147.7612  139.1511  152.4037 N   0  0  0  0  0  0  0  0  0  0  0  0
  146.0533  139.4620  153.8316 O   0  0  0  0  0  0  0  0  0  0  0  0
  149.2786  141.6550  155.6180 N   0  0  0  0  0  0  0  0  0  0  0  0
  153.2766  141.2051  160.1122 C   0  0  0  0  0  0  0  0  0  0  0  0
  153.5035  141.9080  161.4613 C   0  0  0  0  0  0  0  0  0  0  0  0
  154.2906  141.3928  162.2559 O   0  0  0  0  0  0  0  0  0  0  0  0
  154.0390  143.9837  163.1900 H   0  0  0  0  0  0  0  0  0  0  0  0
  152.7016  143.0404  163.8582 H   0  0  0  0  0  0  0  0  0  0  0  0
  152.3995  144.6128  163.1273 H   0  0  0  0  0  0  0  0  0  0  0  0
  151.0758  144.1584  161.3295 H   0  0  0  0  0  0  0  0  0  0  0  0
  152.4932  144.5919  160.4010 H   0  0  0  0  0  0  0  0  0  0  0  0
  150.6893  142.1658  160.0302 H   0  0  0  0  0  0  0  0  0  0  0  0
  150.9462  143.4796  158.9030 H   0  0  0  0  0  0  0  0  0  0  0  0
  153.3529  142.8138  158.6830 H   0  0  0  0  0  0  0  0  0  0  0  0
  150.7081  142.6025  157.4976 H   0  0  0  0  0  0  0  0  0  0  0  0
  151.8670  139.5767  155.2563 H   0  0  0  0  0  0  0  0  0  0  0  0
  149.9072  139.3333  153.3937 H   0  0  0  0  0  0  0  0  0  0  0  0
  147.0534  141.7140  154.4352 H   0  0  0  0  0  0  0  0  0  0  0  0
  147.9628  141.7885  152.9363 H   0  0  0  0  0  0  0  0  0  0  0  0
  147.3834  138.2743  152.0747 H   0  0  0  0  0  0  0  0  0  0  0  0
  148.6307  139.5034  152.0301 H   0  0  0  0  0  0  0  0  0  0  0  0
  152.6634  140.3253  160.3135 H   0  0  0  0  0  0  0  0  0  0  0  0
  154.2343  140.8339  159.7445 H   0  0  0  0  0  0  0  0  0  0  0  0
  1  2  1  0  0  0  0
  1 21  1  0  0  0  0
  1 22  1  0  0  0  0
  1 23  1  0  0  0  0
  2 19  1  0  0  0  0
  2  3  1  0  0  0  0
  3  4  1  0  0  0  0
  3 24  1  0  0  0  0
  3 25  1  0  0  0  0
  4  5  1  0  0  0  0
  4 26  1  0  0  0  0
  4 27  1  0  0  0  0
  5  6  1  0  0  0  0
  5 18  1  0  0  0  0
  5 28  1  0  0  0  0
  6  7  2  0  0  0  0
  6  8  1  0  0  0  0
  8  9  1  0  0  0  0
  8 29  1  0  0  0  0
  9 17  2  0  0  0  0
  9 10  1  0  0  0  0
 10 11  2  0  0  0  0
 10 30  1  0  0  0  0
 11 12  1  0  0  0  0
 11 31  1  0  0  0  0
 12 13  1  0  0  0  0
 12 17  1  0  0  0  0
 13 14  1  0  0  0  0
 13 32  1  0  0  0  0
 13 33  1  0  0  0  0
 14 15  1  0  0  0  0
 14 16  2  0  0  0  0
 15 34  1  0  0  0  0
 15 35  1  0  0  0  0
 18 19  1  0  0  0  0
 18 36  1  0  0  0  0
 18 37  1  0  0  0  0
 19 20  2  0  0  0  0
M  END
> <s_m_source_file>
AV-unprocessed.smi

> <i_m_source_file_index>
1480

> <i_lp_mmshare_version>
43012

> <i_f3d_flags>
0

> <s_epik_input>
W0NIM11OMVtDSDJdW0NIMl1bQ0BIXShbQ0gyXUMxPU8pQyg9TylbTkhdYzJbY0hdW2NIXW4objIpW0NIMl1DKD1PKVtOSDJd

> <s_epik_cmdline>
J2VwaWtfcHl0aG9uJywgJy1waCcsICc3LjAnLCAnLXRuJywgJzgnLCAnLW1hJywgJzIwMCcsICctbWV0YWxfYmluZGluZycsICctaW1hZScsICc8aW5maWxlLm1hZT4nLCAnLW9tYWUnLCAnPG91dGZpbGUubWFlPic=

> <r_lp_tautomer_probability>
1

> <r_epik_Ionization_Penalty>
3.93272e-06

> <r_epik_Ionization_Penalty_Charging>
0

> <r_epik_Ionization_Penalty_Neutral>
3.93272e-06

> <r_epik_State_Penalty>
-0

> <r_epik_Charging_Adjusted_Penalty>
0

> <i_epik_Tot_Q>
0

> <i_epik_Tot_abs_Q>
0

> <r_epik_Metal_State_Penalty>
-0

> <b_epik_Metal_Only>
0

> <s_lp_Force_Field>
OPLS_2005

> <r_lp_Energy>
16.8293

> <b_lp_Chiralities_Consistent>
1

> <s_lp_Variant>
AV-unprocessed.smi:1480-2

> <Gold.Version>
5.8.1

> <Gold.Id.Protein>
6NUR|6NUR_protein|mol2

> <Gold.PLP.Fitness>
49.2362

> <Gold.PLP.PLP>
-42.8131

> <Gold.PLP.part.hbond>
-3.8254

> <Gold.PLP.part.metal>
0.0000

> <Gold.PLP.part.buried>
-1.7247

> <Gold.PLP.part.nonpolar>
-36.6642

> <Gold.PLP.part.repulsive>
0.3911

> <Gold.PLP.ligand.clash>
0.0000

> <Gold.PLP.ligand.torsion>
1.1244

> <Gold.PLP.Chemscore.Hbond>
2.2665

> <Gold.PLP.Chemscore.CHOScore>
0.6217

> <Gold.PLP.Chemscore.Metal>
0.0000

> <Gold.Chemscore.Hbonds>
donor molecule, donor type, donor heavy atom, donor atom, acceptor molecule, acceptor atom, score
      L1  H    15    35       P1  7957  0.67
      P1  H  7997  8009       L1     7  1.00
      L1  C    11    31       P1  7957  0.89

> <Gold.PLP.Chemscore.Internal.Correction>
0.0072

> <Gold.Rescore>
     Score         DG    S(hbond)    S(metal)    S(lipo)     H(rot)  DE(clash)    DE(int)     intcor
     13.45     -17.04       2.48        0.00      72.32       2.03       0.47       3.12       ----

> <Gold.Chemscore.Fitness>
13.4546

> <Gold.Chemscore.DG>
-17.0393

> <Gold.Chemscore.ZeroCoef>
-5.4800

> <Gold.Chemscore.Hbond>
2.4809

> <Gold.Chemscore.Metal>
0.0000

> <Gold.Chemscore.Lipo>
72.3238

> <Gold.Chemscore.Internal_Hbond>
0.0000

> <Gold.Chemscore.DEClash>
0.4677

> <Gold.Chemscore.DEInternal>
3.1171

> <Gold.Chemscore.Rot>
2.0269

> <Gold.Chemscore.Internal.Correction>
   9.000000E+99

> <Gold.Chemscore.Hbonds>
donor molecule, donor type, donor heavy atom, donor atom, acceptor molecule, acceptor atom, score
      L1  H    15    35       P1  7957  0.67
      P1  H  7997  8009       L1     7  0.95

> <Gold.Chemscore.Hbond.Weighted>
-8.2862

> <Gold.Chemscore.Metal.Weighted>
-0.0000

> <Gold.Chemscore.Lipo.Weighted>
-8.4619

> <Gold.Chemscore.Internal_Hbond.Weighted>
0.0000

> <Gold.Chemscore.DEClash.Weighted>
0.4677

> <Gold.Chemscore.DEInternal.Weighted>
3.1171

> <Gold.Chemscore.Rot.Weighted>
5.1888

> <Gold.Chemscore.Internal.Correction.Weighted>
   9.000000E+99

> <Gold.Protein.RotatedTorsions>
[ 6907 6896 6895 6894 ] final  177.92 input  -60.11 | X-H torsion
[ 7974 7965 7964 7962 ] final -147.83 input  175.53 | X-H torsion
[ 8008 7997 7996 7995 ] final  170.04 input   59.86 | X-H torsion
[ 10167 10162 10161 10158 ] final -114.40 input  -65.29 | X-H torsion
[ 10718 10713 10712 10709 ] final  142.72 input   66.30 | X-H torsion
[ 10763 10752 10751 10750 ] final -166.06 input  -60.55 | X-H torsion
[ 11005 11000 10999 10996 ] final   27.39 input  -57.11 | X-H torsion

> <Gold.Protein.ActiveResidues>
 VAL166  LYS551  ARG553  GLY616  TRP617  ASP618  TYR619  PRO620  LYS621  CYS622 
 ASP623  PHE694  ASN695  SER759  ASP760  ASP761  ALA762  ILE779  LEU786  VAL792 
 PHE793  MET794  SER795  GLU796  ALA797  LYS798  CYS799  TRP800  GLU811  SER814 

> <Gold.Protein.RotatedAtoms>
  151.6962  133.3311  159.3254 H   0  0  0  0  0  0  0  0  0  0  0  0  # atno 6907 bound_to 6896
  150.7756  134.6655  159.6372 H   0  0  0  0  0  0  0  0  0  0  0  0  # atno 6908 bound_to 6896
  152.3797  134.6612  160.0199 H   0  0  0  0  0  0  0  0  0  0  0  0  # atno 6909 bound_to 6896
  144.8068  140.5276  143.5669 H   0  0  0  0  0  0  0  0  0  0  0  0  # atno 7974 bound_to 7965
  156.1402  140.1548  156.8933 H   0  0  0  0  0  0  0  0  0  0  0  0  # atno 8008 bound_to 7997
  154.4981  140.0833  156.7778 H   0  0  0  0  0  0  0  0  0  0  0  0  # atno 8009 bound_to 7997
  155.4093  140.3418  155.4265 H   0  0  0  0  0  0  0  0  0  0  0  0  # atno 8010 bound_to 7997
  140.1013  143.4610  152.1810 H   0  0  0  0  0  0  0  0  0  0  0  0  # atno 10167 bound_to 10162
  157.3773  131.0987  151.0772 H   0  0  0  0  0  0  0  0  0  0  0  0  # atno 10718 bound_to 10713
  154.6870  135.2964  154.9533 H   0  0  0  0  0  0  0  0  0  0  0  0  # atno 10763 bound_to 10752
  154.0509  135.6644  153.4804 H   0  0  0  0  0  0  0  0  0  0  0  0  # atno 10764 bound_to 10752
  153.0586  135.5129  154.7942 H   0  0  0  0  0  0  0  0  0  0  0  0  # atno 10765 bound_to 10752
  140.3267  134.2483  155.7708 H   0  0  0  0  0  0  0  0  0  0  0  0  # atno 11005 bound_to 11000
  145.5419  139.1475  143.3442 LP  0  0  0  0  0  0  0  0  0  0  0  0  # atno 17320 bound_to 7965
  146.2361  140.5558  142.8954 LP  0  0  0  0  0  0  0  0  0  0  0  0  # atno 17321 bound_to 7965
  139.5669  144.7440  151.3997 LP  0  0  0  0  0  0  0  0  0  0  0  0  # atno 17342 bound_to 10162
  140.6976  143.7711  150.7351 LP  0  0  0  0  0  0  0  0  0  0  0  0  # atno 17343 bound_to 10162
  157.1854  130.6328  149.5686 LP  0  0  0  0  0  0  0  0  0  0  0  0  # atno 17370 bound_to 10713
  155.9768  130.4739  150.6551 LP  0  0  0  0  0  0  0  0  0  0  0  0  # atno 17371 bound_to 10713
  141.2073  133.7808  157.0125 LP  0  0  0  0  0  0  0  0  0  0  0  0  # atno 17394 bound_to 11000
  140.0895  134.9601  157.1753 LP  0  0  0  0  0  0  0  0  0  0  0  0  # atno 17395 bound_to 11000

$$$$
