AV-unprocessed.smi:1645|AV-procd|sdf|6600|dock3
  -GOLD-   22720 7303D 1   1.00000     0.00000
 Structure written by MMmdl.
 55 58  0  0  0  0  0  0  0  0  2 V2000
  147.1051  136.3319  155.8044 O   0  0  0  0  0  0  0  0  0  0  0  0
  147.6037  136.3889  154.6805 C   0  0  0  0  0  0  0  0  0  0  0  0
  148.6002  137.2132  154.3164 N   0  0  0  0  0  0  0  0  0  0  0  0
  149.2463  138.2011  155.1065 C   0  0  0  0  0  0  0  0  0  0  0  0
  149.1830  138.2492  156.5181 C   0  0  0  0  0  0  0  0  0  0  0  0
  149.8477  139.2892  157.1952 C   0  0  0  0  0  0  0  0  0  0  0  0
  150.5551  140.2596  156.4481 C   0  0  0  0  0  0  0  0  0  0  0  0
  151.2279  141.3072  157.1123 N   0  0  0  0  0  0  0  0  0  0  0  0
  151.7332  140.9699  158.4445 C   0  0  0  0  0  0  0  0  0  0  0  0
  152.7666  142.0033  158.9252 C   0  0  0  0  0  0  0  0  0  0  0  0
  152.1986  143.4286  158.8513 C   0  0  0  0  0  0  0  0  0  0  0  0
  151.6954  143.7199  157.4300 C   0  0  0  0  0  0  0  0  0  0  0  0
  150.6791  142.6585  156.9755 C   0  0  0  0  0  0  0  0  0  0  0  0
  150.6052  140.2166  155.0938 N   0  0  0  0  0  0  0  0  0  0  0  0
  149.9620  139.2212  154.4486 C   0  0  0  0  0  0  0  0  0  0  0  0
  147.2208  135.6040  153.6634 N   0  0  0  0  0  0  0  0  0  0  0  0
  146.1869  134.5758  153.7440 C   0  0  2  0  0  0  0  0  0  0  0  0
  146.6628  133.3019  154.4634 C   0  0  0  0  0  0  0  0  0  0  0  0
  145.9644  132.1373  153.7332 C   0  0  0  0  0  0  0  0  0  0  0  0
  145.1154  132.7711  152.7059 N   0  3  2  0  0  0  0  0  0  0  0  0
  144.7797  131.9620  151.5141 C   0  0  0  0  0  0  0  0  0  0  0  0
  143.8152  132.7601  150.6146 C   0  0  0  0  0  0  0  0  0  0  0  0
  144.3764  134.1551  150.2727 C   0  0  0  0  0  0  0  0  0  0  0  0
  144.7963  134.9139  151.5463 C   0  0  0  0  0  0  0  0  0  0  0  0
  145.7649  134.0474  152.3699 C   0  0  1  0  0  0  0  0  0  0  0  0
  148.9828  137.0768  153.3921 H   0  0  0  0  0  0  0  0  0  0  0  0
  148.6309  137.5197  157.0905 H   0  0  0  0  0  0  0  0  0  0  0  0
  149.8169  139.3271  158.2740 H   0  0  0  0  0  0  0  0  0  0  0  0
  150.8909  140.9391  159.1368 H   0  0  0  0  0  0  0  0  0  0  0  0
  152.1874  139.9798  158.4621 H   0  0  0  0  0  0  0  0  0  0  0  0
  153.0737  141.7758  159.9464 H   0  0  0  0  0  0  0  0  0  0  0  0
  153.6641  141.9354  158.3090 H   0  0  0  0  0  0  0  0  0  0  0  0
  151.3781  143.5362  159.5619 H   0  0  0  0  0  0  0  0  0  0  0  0
  152.9603  144.1540  159.1390 H   0  0  0  0  0  0  0  0  0  0  0  0
  151.2434  144.7109  157.3873 H   0  0  0  0  0  0  0  0  0  0  0  0
  152.5403  143.7347  156.7402 H   0  0  0  0  0  0  0  0  0  0  0  0
  150.4054  142.8475  155.9366 H   0  0  0  0  0  0  0  0  0  0  0  0
  149.7674  142.7370  157.5694 H   0  0  0  0  0  0  0  0  0  0  0  0
  150.0288  139.2373  153.3705 H   0  0  0  0  0  0  0  0  0  0  0  0
  147.6874  135.7157  152.7751 H   0  0  0  0  0  0  0  0  0  0  0  0
  145.3100  134.9585  154.2710 H   0  0  0  0  0  0  0  0  0  0  0  0
  147.7449  133.1849  154.3851 H   0  0  0  0  0  0  0  0  0  0  0  0
  146.4125  133.3289  155.5243 H   0  0  0  0  0  0  0  0  0  0  0  0
  146.7066  131.4893  153.2643 H   0  0  0  0  0  0  0  0  0  0  0  0
  145.3597  131.5288  154.4063 H   0  0  0  0  0  0  0  0  0  0  0  0
  145.6895  131.7068  150.9687 H   0  0  0  0  0  0  0  0  0  0  0  0
  144.3157  131.0257  151.8261 H   0  0  0  0  0  0  0  0  0  0  0  0
  143.6105  132.2041  149.6992 H   0  0  0  0  0  0  0  0  0  0  0  0
  142.8580  132.8743  151.1252 H   0  0  0  0  0  0  0  0  0  0  0  0
  145.2393  134.0467  149.6143 H   0  0  0  0  0  0  0  0  0  0  0  0
  143.6360  134.7326  149.7185 H   0  0  0  0  0  0  0  0  0  0  0  0
  145.2680  135.8577  151.2725 H   0  0  0  0  0  0  0  0  0  0  0  0
  143.9156  135.1627  152.1399 H   0  0  0  0  0  0  0  0  0  0  0  0
  146.6581  133.8382  151.7763 H   0  0  0  0  0  0  0  0  0  0  0  0
  144.2455  133.0084  153.1614 H   0  0  0  0  0  0  0  0  0  0  0  0
  1  2  2  0  0  0  0
  2  3  1  0  0  0  0
  2 16  1  0  0  0  0
  3  4  1  0  0  0  0
  3 26  1  0  0  0  0
  4 15  1  0  0  0  0
  4  5  2  0  0  0  0
  5  6  1  0  0  0  0
  5 27  1  0  0  0  0
  6  7  2  0  0  0  0
  6 28  1  0  0  0  0
  7  8  1  0  0  0  0
  7 14  1  0  0  0  0
  8 13  1  0  0  0  0
  8  9  1  0  0  0  0
  9 10  1  0  0  0  0
  9 29  1  0  0  0  0
  9 30  1  0  0  0  0
 10 11  1  0  0  0  0
 10 31  1  0  0  0  0
 10 32  1  0  0  0  0
 11 12  1  0  0  0  0
 11 33  1  0  0  0  0
 11 34  1  0  0  0  0
 12 13  1  0  0  0  0
 12 35  1  0  0  0  0
 12 36  1  0  0  0  0
 13 37  1  0  0  0  0
 13 38  1  0  0  0  0
 14 15  2  0  0  0  0
 15 39  1  0  0  0  0
 16 17  1  0  0  0  0
 16 40  1  0  0  0  0
 17 25  1  0  0  0  0
 17 18  1  0  0  0  0
 17 41  1  0  0  0  0
 18 19  1  0  0  0  0
 18 42  1  0  0  0  0
 18 43  1  0  0  0  0
 19 20  1  0  0  0  0
 19 44  1  0  0  0  0
 19 45  1  0  0  0  0
 20 25  1  0  0  0  0
 20 21  1  0  0  0  0
 20 55  1  0  0  0  0
 21 22  1  0  0  0  0
 21 46  1  0  0  0  0
 21 47  1  0  0  0  0
 22 23  1  0  0  0  0
 22 48  1  0  0  0  0
 22 49  1  0  0  0  0
 23 24  1  0  0  0  0
 23 50  1  0  0  0  0
 23 51  1  0  0  0  0
 24 25  1  0  0  0  0
 24 52  1  0  0  0  0
 24 53  1  0  0  0  0
 25 54  1  0  0  0  0
M  CHG  1  20   1
M  END
> <s_m_source_file>
AV-unprocessed.smi

> <i_m_source_file_index>
1645

> <i_lp_mmshare_version>
43012

> <i_f3d_flags>
0

> <s_epik_input>
W0NIMl0xW0NIMl1bQ0gyXVtDSDJdW0NASF0oTjEyKVtDQEBIXShbQ0gyXVtDSDJdMilbTkhdQyg9TylbTkhdYzNbY0hdW2NIXWMobltjSF0zKU40W0NIMl1bQ0gyXVtDSDJdW0NIMl1bQ0gyXTQ=

> <s_epik_cmdline>
J2VwaWtfcHl0aG9uJywgJy1waCcsICc3LjAnLCAnLXRuJywgJzgnLCAnLW1hJywgJzIwMCcsICctbWV0YWxfYmluZGluZycsICctaW1hZScsICc8aW5maWxlLm1hZT4nLCAnLW9tYWUnLCAnPG91dGZpbGUubWFlPic=

> <r_lp_tautomer_probability>
1

> <r_epik_Ionization_Penalty>
0.0808019

> <r_epik_Ionization_Penalty_Charging>
0.000974069

> <r_epik_Ionization_Penalty_Neutral>
0.0798278

> <r_epik_State_Penalty>
0.0653665

> <r_epik_Charging_Adjusted_Penalty>
0.0663406

> <i_epik_Tot_Q>
1

> <i_epik_Tot_abs_Q>
1

> <r_epik_Metal_State_Penalty>
0.0585673

> <b_epik_Metal_Only>
0

> <s_lp_Force_Field>
OPLS_2005

> <r_lp_Energy>
50.8313

> <b_lp_Chiralities_Consistent>
1

> <s_lp_Variant>
AV-unprocessed.smi:1645-1

> <Gold.Version>
5.8.1

> <Gold.Id.Protein>
6NUR|6NUR_protein|mol2

> <Gold.PLP.Fitness>
46.8803

> <Gold.PLP.PLP>
-36.3315

> <Gold.PLP.part.hbond>
-3.0000

> <Gold.PLP.part.metal>
0.0000

> <Gold.PLP.part.buried>
-4.0447

> <Gold.PLP.part.nonpolar>
-29.0707

> <Gold.PLP.part.repulsive>
0.1168

> <Gold.PLP.ligand.clash>
0.0000

> <Gold.PLP.ligand.torsion>
0.7074

> <Gold.PLP.Chemscore.Hbond>
2.8500

> <Gold.PLP.Chemscore.CHOScore>
1.0000

> <Gold.PLP.Chemscore.Metal>
0.0000

> <Gold.Chemscore.Hbonds>
donor molecule, donor type, donor heavy atom, donor atom, acceptor molecule, acceptor atom, score
      L1  H     3    26       P1  7948  1.00
      L1  H    16    40       P1  7948  1.00
      P1  H  7989  7998       L1    14  0.80
      L1  C    15    39       P1  7957  1.00

> <Gold.PLP.Chemscore.Internal.Correction>
0.4137

> <Gold.Rescore>
     Score         DG    S(hbond)    S(metal)    S(lipo)     H(rot)  DE(clash)    DE(int)     intcor
     19.06     -21.05       1.96        0.00     102.78       1.17       0.03       1.96       ----

> <Gold.Chemscore.Fitness>
19.0554

> <Gold.Chemscore.DG>
-21.0470

> <Gold.Chemscore.ZeroCoef>
-5.4800

> <Gold.Chemscore.Hbond>
1.9597

> <Gold.Chemscore.Metal>
0.0000

> <Gold.Chemscore.Lipo>
102.7755

> <Gold.Chemscore.Internal_Hbond>
0.0000

> <Gold.Chemscore.DEClash>
0.0300

> <Gold.Chemscore.DEInternal>
1.9615

> <Gold.Chemscore.Rot>
1.1731

> <Gold.Chemscore.Internal.Correction>
   9.000000E+99

> <Gold.Chemscore.Hbonds>
donor molecule, donor type, donor heavy atom, donor atom, acceptor molecule, acceptor atom, score
      L1  H     3    26       P1  7948  0.95
      L1  H    16    40       P1  7948  0.96
      P1  H  7989  7998       L1    14  0.11

> <Gold.Chemscore.Hbond.Weighted>
-6.5455

> <Gold.Chemscore.Metal.Weighted>
-0.0000

> <Gold.Chemscore.Lipo.Weighted>
-12.0247

> <Gold.Chemscore.Internal_Hbond.Weighted>
0.0000

> <Gold.Chemscore.DEClash.Weighted>
0.0300

> <Gold.Chemscore.DEInternal.Weighted>
1.9615

> <Gold.Chemscore.Rot.Weighted>
3.0032

> <Gold.Chemscore.Internal.Correction.Weighted>
   9.000000E+99

> <Gold.Protein.RotatedTorsions>
[ 6907 6896 6895 6894 ] final    2.32 input  -60.11 | X-H torsion
[ 7974 7965 7964 7962 ] final  144.57 input  175.53 | X-H torsion
[ 8008 7997 7996 7995 ] final  160.43 input   59.86 | X-H torsion
[ 10167 10162 10161 10158 ] final  153.42 input  -65.29 | X-H torsion
[ 10718 10713 10712 10709 ] final -152.49 input   66.30 | X-H torsion
[ 10763 10752 10751 10750 ] final    8.43 input  -60.55 | X-H torsion
[ 11005 11000 10999 10996 ] final  -74.61 input  -57.11 | X-H torsion

> <Gold.Protein.ActiveResidues>
 VAL166  LYS551  ARG553  GLY616  TRP617  ASP618  TYR619  PRO620  LYS621  CYS622 
 ASP623  PHE694  ASN695  SER759  ASP760  ASP761  ALA762  ILE779  LEU786  VAL792 
 PHE793  MET794  SER795  GLU796  ALA797  LYS798  CYS799  TRP800  GLU811  SER814 

> <Gold.Protein.RotatedAtoms>
  151.6069  135.1043  160.0072 H   0  0  0  0  0  0  0  0  0  0  0  0  # atno 6907 bound_to 6896
  152.4228  133.7141  159.6506 H   0  0  0  0  0  0  0  0  0  0  0  0  # atno 6908 bound_to 6896
  150.8116  133.8338  159.3201 H   0  0  0  0  0  0  0  0  0  0  0  0  # atno 6909 bound_to 6896
  144.8824  139.5678  143.5836 H   0  0  0  0  0  0  0  0  0  0  0  0  # atno 7974 bound_to 7965
  156.2172  140.1804  156.7560 H   0  0  0  0  0  0  0  0  0  0  0  0  # atno 8008 bound_to 7997
  154.5810  140.0666  156.9133 H   0  0  0  0  0  0  0  0  0  0  0  0  # atno 8009 bound_to 7997
  155.2502  140.3328  155.4285 H   0  0  0  0  0  0  0  0  0  0  0  0  # atno 8010 bound_to 7997
  139.4827  144.5274  151.7778 H   0  0  0  0  0  0  0  0  0  0  0  0  # atno 10167 bound_to 10162
  156.4731  130.8268  151.2497 H   0  0  0  0  0  0  0  0  0  0  0  0  # atno 10718 bound_to 10713
  153.2252  135.6886  153.7954 H   0  0  0  0  0  0  0  0  0  0  0  0  # atno 10763 bound_to 10752
  153.7138  135.3278  155.3253 H   0  0  0  0  0  0  0  0  0  0  0  0  # atno 10764 bound_to 10752
  154.8288  135.4597  154.1115 H   0  0  0  0  0  0  0  0  0  0  0  0  # atno 10765 bound_to 10752
  141.1637  133.6917  156.7390 H   0  0  0  0  0  0  0  0  0  0  0  0  # atno 11005 bound_to 11000
  146.3003  139.7406  142.9096 LP  0  0  0  0  0  0  0  0  0  0  0  0  # atno 17320 bound_to 7965
  145.3929  141.0375  143.3114 LP  0  0  0  0  0  0  0  0  0  0  0  0  # atno 17321 bound_to 7965
  140.4796  144.1469  150.5930 LP  0  0  0  0  0  0  0  0  0  0  0  0  # atno 17342 bound_to 10162
  140.4292  143.2576  151.9617 LP  0  0  0  0  0  0  0  0  0  0  0  0  # atno 17343 bound_to 10162
  157.7489  131.0069  150.3171 LP  0  0  0  0  0  0  0  0  0  0  0  0  # atno 17370 bound_to 10713
  156.3598  130.3845  149.7261 LP  0  0  0  0  0  0  0  0  0  0  0  0  # atno 17371 bound_to 10713
  140.2688  134.8408  157.3828 LP  0  0  0  0  0  0  0  0  0  0  0  0  # atno 17394 bound_to 11000
  140.1541  134.4812  155.7940 LP  0  0  0  0  0  0  0  0  0  0  0  0  # atno 17395 bound_to 11000

$$$$
