AV-unprocessed.smi:745|AV-procd|sdf|3572|dock2
  -GOLD-   22720 0563D 1   1.00000     0.00000
 Structure written by MMmdl.
 42 43  0  0  0  0  0  0  0  0  2 V2000
  149.5183  139.8250  154.2742 C   0  0  0  0  0  0  0  0  0  0  0  0
  148.5338  140.9854  154.5012 C   0  0  2  0  0  0  0  0  0  0  0  0
  149.2181  141.9975  155.3076 N   0  0  0  0  0  0  0  0  0  0  0  0
  149.9629  141.7636  156.3994 C   0  0  0  0  0  0  0  0  0  0  0  0
  150.1955  140.6357  156.8353 O   0  0  0  0  0  0  0  0  0  0  0  0
  150.4152  142.9120  156.9328 N   0  0  0  0  0  0  0  0  0  0  0  0
  151.2357  143.0840  158.0795 C   0  0  0  0  0  0  0  0  0  0  0  0
  151.4320  144.4253  158.4790 C   0  0  0  0  0  0  0  0  0  0  0  0
  152.2307  144.7030  159.6053 C   0  0  0  0  0  0  0  0  0  0  0  0
  152.8138  143.6308  160.3038 C   0  0  0  0  0  0  0  0  0  0  0  0
  152.5687  142.3255  159.8392 C   0  0  0  0  0  0  0  0  0  0  0  0
  151.8041  142.0571  158.7597 N   0  0  0  0  0  0  0  0  0  0  0  0
  147.2021  140.5443  155.1706 C   0  0  2  0  0  0  0  0  0  0  0  0
  146.5297  139.3739  154.4185 C   0  0  0  0  0  0  0  0  0  0  0  0
  145.1902  138.9694  155.0558 C   0  0  0  0  0  0  0  0  0  0  0  0
  144.2646  140.1244  155.1243 N   0  3  1  0  0  0  0  0  0  0  0  0
  142.9207  139.7435  155.6092 C   0  0  0  0  0  0  0  0  0  0  0  0
  144.8489  141.2455  155.8970 C   0  0  0  0  0  0  0  0  0  0  0  0
  146.1817  141.7020  155.2822 C   0  0  0  0  0  0  0  0  0  0  0  0
  149.1357  139.1019  153.5547 H   0  0  0  0  0  0  0  0  0  0  0  0
  149.7326  139.2957  155.2031 H   0  0  0  0  0  0  0  0  0  0  0  0
  150.4656  140.1902  153.8754 H   0  0  0  0  0  0  0  0  0  0  0  0
  148.2996  141.4016  153.5196 H   0  0  0  0  0  0  0  0  0  0  0  0
  149.0903  142.9581  155.0244 H   0  0  0  0  0  0  0  0  0  0  0  0
  150.1383  143.7633  156.4669 H   0  0  0  0  0  0  0  0  0  0  0  0
  150.9764  145.2372  157.9309 H   0  0  0  0  0  0  0  0  0  0  0  0
  152.3923  145.7213  159.9267 H   0  0  0  0  0  0  0  0  0  0  0  0
  153.4324  143.8039  161.1721 H   0  0  0  0  0  0  0  0  0  0  0  0
  152.9981  141.4742  160.3465 H   0  0  0  0  0  0  0  0  0  0  0  0
  147.4304  140.2047  156.1824 H   0  0  0  0  0  0  0  0  0  0  0  0
  146.3674  139.6506  153.3758 H   0  0  0  0  0  0  0  0  0  0  0  0
  147.1798  138.4996  154.4085 H   0  0  0  0  0  0  0  0  0  0  0  0
  144.7353  138.1713  154.4679 H   0  0  0  0  0  0  0  0  0  0  0  0
  145.3549  138.5706  156.0583 H   0  0  0  0  0  0  0  0  0  0  0  0
  142.9649  139.3725  156.6339 H   0  0  0  0  0  0  0  0  0  0  0  0
  142.4918  138.9627  154.9801 H   0  0  0  0  0  0  0  0  0  0  0  0
  142.2456  140.5995  155.5831 H   0  0  0  0  0  0  0  0  0  0  0  0
  144.1502  142.0831  155.9100 H   0  0  0  0  0  0  0  0  0  0  0  0
  144.9975  140.9392  156.9338 H   0  0  0  0  0  0  0  0  0  0  0  0
  146.5812  142.5095  155.8954 H   0  0  0  0  0  0  0  0  0  0  0  0
  145.9994  142.1278  154.2943 H   0  0  0  0  0  0  0  0  0  0  0  0
  144.1451  140.4567  154.1779 H   0  0  0  0  0  0  0  0  0  0  0  0
  1  2  1  0  0  0  0
  1 20  1  0  0  0  0
  1 21  1  0  0  0  0
  1 22  1  0  0  0  0
  2  3  1  0  0  0  0
  2 13  1  0  0  0  0
  2 23  1  0  0  0  0
  3  4  1  0  0  0  0
  3 24  1  0  0  0  0
  4  5  2  0  0  0  0
  4  6  1  0  0  0  0
  6  7  1  0  0  0  0
  6 25  1  0  0  0  0
  7 12  1  0  0  0  0
  7  8  2  0  0  0  0
  8  9  1  0  0  0  0
  8 26  1  0  0  0  0
  9 10  2  0  0  0  0
  9 27  1  0  0  0  0
 10 11  1  0  0  0  0
 10 28  1  0  0  0  0
 11 12  2  0  0  0  0
 11 29  1  0  0  0  0
 13 19  1  0  0  0  0
 13 14  1  0  0  0  0
 13 30  1  0  0  0  0
 14 15  1  0  0  0  0
 14 31  1  0  0  0  0
 14 32  1  0  0  0  0
 15 16  1  0  0  0  0
 15 33  1  0  0  0  0
 15 34  1  0  0  0  0
 16 17  1  0  0  0  0
 16 18  1  0  0  0  0
 16 42  1  0  0  0  0
 17 35  1  0  0  0  0
 17 36  1  0  0  0  0
 17 37  1  0  0  0  0
 18 19  1  0  0  0  0
 18 38  1  0  0  0  0
 18 39  1  0  0  0  0
 19 40  1  0  0  0  0
 19 41  1  0  0  0  0
M  CHG  1  16   1
M  END
> <s_m_source_file>
AV-unprocessed.smi

> <i_m_source_file_index>
745

> <i_lp_mmshare_version>
43012

> <i_f3d_flags>
0

> <s_epik_input>
W0NIMl0xW0NIMl1OKFtDSDNdKVtDSDJdW0NIMl1bQ0hdMVtDQEhdKFtDSDNdKVtOSF1DKD1PKVtOSF1jMltjSF1bY0hdW2NIXVtjSF1uMg==

> <s_epik_cmdline>
J2VwaWtfcHl0aG9uJywgJy1waCcsICc3LjAnLCAnLXRuJywgJzgnLCAnLW1hJywgJzIwMCcsICctbWV0YWxfYmluZGluZycsICctaW1hZScsICc8aW5maWxlLm1hZT4nLCAnLW9tYWUnLCAnPG91dGZpbGUubWFlPic=

> <r_epik_Ionization_Penalty>
0.0011087

> <r_epik_Ionization_Penalty_Charging>
0.00106265

> <r_epik_Ionization_Penalty_Neutral>
4.60506e-05

> <r_epik_State_Penalty>
0.000695551

> <r_epik_Charging_Adjusted_Penalty>
0.0017582

> <i_epik_Tot_Q>
1

> <i_epik_Tot_abs_Q>
1

> <r_epik_Metal_State_Penalty>
-0

> <b_epik_Metal_Only>
0

> <s_lp_Force_Field>
OPLS_2005

> <r_lp_Energy>
20.1287

> <b_lp_Chiralities_Consistent>
1

> <s_lp_Variant>
AV-unprocessed.smi:745-1

> <Gold.Version>
5.8.1

> <Gold.Id.Protein>
6NUR|6NUR_protein|mol2

> <Gold.PLP.Fitness>
44.2748

> <Gold.PLP.PLP>
-33.0613

> <Gold.PLP.part.hbond>
-3.0000

> <Gold.PLP.part.metal>
0.0000

> <Gold.PLP.part.buried>
-4.1107

> <Gold.PLP.part.nonpolar>
-26.5280

> <Gold.PLP.part.repulsive>
0.2217

> <Gold.PLP.ligand.clash>
0.0000

> <Gold.PLP.ligand.torsion>
0.2706

> <Gold.PLP.Chemscore.Hbond>
3.9120

> <Gold.PLP.Chemscore.CHOScore>
0.0000

> <Gold.PLP.Chemscore.Metal>
0.0000

> <Gold.Chemscore.Hbonds>
donor molecule, donor type, donor heavy atom, donor atom, acceptor molecule, acceptor atom, score
      L1  H     3    24       P1  8028  0.90
      L1  H     6    25       P1  8028  1.00
      L1  H    16    42       P1 10175  2.00

> <Gold.PLP.Chemscore.Internal.Correction>
0.0187

> <Gold.Rescore>
     Score         DG    S(hbond)    S(metal)    S(lipo)     H(rot)  DE(clash)    DE(int)     intcor
     17.75     -21.00       2.94        0.00      76.20       1.26       0.01       3.24       ----

> <Gold.Chemscore.Fitness>
17.7514

> <Gold.Chemscore.DG>
-21.0003

> <Gold.Chemscore.ZeroCoef>
-5.4800

> <Gold.Chemscore.Hbond>
2.9434

> <Gold.Chemscore.Metal>
0.0000

> <Gold.Chemscore.Lipo>
76.1976

> <Gold.Chemscore.Internal_Hbond>
0.0000

> <Gold.Chemscore.DEClash>
0.0058

> <Gold.Chemscore.DEInternal>
3.2431

> <Gold.Chemscore.Rot>
1.2601

> <Gold.Chemscore.Internal.Correction>
   9.000000E+99

> <Gold.Chemscore.Hbonds>
donor molecule, donor type, donor heavy atom, donor atom, acceptor molecule, acceptor atom, score
      L1  H     3    24       P1  8028  0.88
      L1  H     6    25       P1  8028  0.94
      L1  H    16    42       P1 10175  1.00

> <Gold.Chemscore.Hbond.Weighted>
-9.8311

> <Gold.Chemscore.Metal.Weighted>
-0.0000

> <Gold.Chemscore.Lipo.Weighted>
-8.9151

> <Gold.Chemscore.Internal_Hbond.Weighted>
0.0000

> <Gold.Chemscore.DEClash.Weighted>
0.0058

> <Gold.Chemscore.DEInternal.Weighted>
3.2431

> <Gold.Chemscore.Rot.Weighted>
3.2260

> <Gold.Chemscore.Internal.Correction.Weighted>
   9.000000E+99

> <Gold.Protein.RotatedTorsions>
[ 6907 6896 6895 6894 ] final   15.15 input  -60.11 | X-H torsion
[ 7974 7965 7964 7962 ] final -175.14 input  175.53 | X-H torsion
[ 8008 7997 7996 7995 ] final -133.83 input   59.86 | X-H torsion
[ 10167 10162 10161 10158 ] final  -16.73 input  -65.29 | X-H torsion
[ 10718 10713 10712 10709 ] final -110.48 input   66.30 | X-H torsion
[ 10763 10752 10751 10750 ] final   47.67 input  -60.55 | X-H torsion
[ 11005 11000 10999 10996 ] final  114.47 input  -57.11 | X-H torsion

> <Gold.Protein.ActiveResidues>
 VAL166  LYS551  ARG553  GLY616  TRP617  ASP618  TYR619  PRO620  LYS621  CYS622 
 ASP623  PHE694  ASN695  SER759  ASP760  ASP761  ALA762  ILE779  LEU786  VAL792 
 PHE793  MET794  SER795  GLU796  ALA797  LYS798  CYS799  TRP800  GLU811  SER814 

> <Gold.Protein.RotatedAtoms>
  151.8136  135.0673  160.0415 H   0  0  0  0  0  0  0  0  0  0  0  0  # atno 6907 bound_to 6896
  152.3002  133.5644  159.5622 H   0  0  0  0  0  0  0  0  0  0  0  0  # atno 6908 bound_to 6896
  150.7270  134.0218  159.3746 H   0  0  0  0  0  0  0  0  0  0  0  0  # atno 6909 bound_to 6896
  144.7129  140.1366  143.6395 H   0  0  0  0  0  0  0  0  0  0  0  0  # atno 7974 bound_to 7965
  155.3519  140.0478  157.3046 H   0  0  0  0  0  0  0  0  0  0  0  0  # atno 8008 bound_to 7997
  154.5223  140.2229  155.8918 H   0  0  0  0  0  0  0  0  0  0  0  0  # atno 8009 bound_to 7997
  156.1702  140.3097  155.8966 H   0  0  0  0  0  0  0  0  0  0  0  0  # atno 8010 bound_to 7997
  140.7238  143.5086  150.9778 H   0  0  0  0  0  0  0  0  0  0  0  0  # atno 10167 bound_to 10162
  156.0593  130.5817  150.8242 H   0  0  0  0  0  0  0  0  0  0  0  0  # atno 10718 bound_to 10713
  152.9798  135.5969  154.3800 H   0  0  0  0  0  0  0  0  0  0  0  0  # atno 10763 bound_to 10752
  154.3466  135.2767  155.2396 H   0  0  0  0  0  0  0  0  0  0  0  0  # atno 10764 bound_to 10752
  154.4454  135.6003  153.6212 H   0  0  0  0  0  0  0  0  0  0  0  0  # atno 10765 bound_to 10752
  139.8981  134.9568  156.6896 H   0  0  0  0  0  0  0  0  0  0  0  0  # atno 11005 bound_to 11000
  145.9239  139.2563  143.1365 LP  0  0  0  0  0  0  0  0  0  0  0  0  # atno 17320 bound_to 7965
  145.9592  140.8849  143.0219 LP  0  0  0  0  0  0  0  0  0  0  0  0  # atno 17321 bound_to 7965
  139.8799  143.7085  152.3158 LP  0  0  0  0  0  0  0  0  0  0  0  0  # atno 17342 bound_to 10162
  139.7364  144.7570  151.0721 LP  0  0  0  0  0  0  0  0  0  0  0  0  # atno 17343 bound_to 10162
  157.5589  131.0945  150.9588 LP  0  0  0  0  0  0  0  0  0  0  0  0  # atno 17370 bound_to 10713
  156.9831  130.5534  149.5297 LP  0  0  0  0  0  0  0  0  0  0  0  0  # atno 17371 bound_to 10713
  140.7235  133.9120  155.8163 LP  0  0  0  0  0  0  0  0  0  0  0  0  # atno 17394 bound_to 11000
  141.0209  134.0890  157.4121 LP  0  0  0  0  0  0  0  0  0  0  0  0  # atno 17395 bound_to 11000

$$$$
