AV-unprocessed.smi:293|AV-procd|sdf|2251|dock8
  -GOLD-   2262022133D 1   1.00000     0.00000
 Structure written by MMmdl.
 32 33  0  0  0  0  0  0  0  0  1 V2000
  150.1178  134.9021  156.6156 N   0  0  0  0  0  0  0  0  0  0  0  0
  150.2880  135.9250  156.1014 C   0  0  0  0  0  0  0  0  0  0  0  0
  150.5018  137.2091  155.4559 C   0  0  0  0  0  0  0  0  0  0  0  0
  151.0130  137.2966  154.1936 N   0  0  0  0  0  0  0  0  0  0  0  0
  151.0107  138.6175  154.0613 C   0  0  0  0  0  0  0  0  0  0  0  0
  150.5462  139.2698  155.1323 N   0  0  0  0  0  0  0  0  0  0  0  0
  150.3731  140.6918  155.3681 C   0  0  0  0  0  0  0  0  0  0  0  0
  151.3083  141.1837  156.4736 C   0  0  0  0  0  0  0  0  0  0  0  0
  152.2226  140.4627  156.8720 O   0  0  0  0  0  0  0  0  0  0  0  0
  151.0696  142.4140  156.9547 N   0  0  0  0  0  0  0  0  0  0  0  0
  151.8539  143.0885  157.9837 C   0  0  0  0  0  0  0  0  0  0  0  0
  151.7927  142.2750  159.2907 C   0  0  0  0  0  0  0  0  0  0  0  0
  152.5489  142.9775  160.4298 C   0  0  0  0  0  0  0  0  0  0  0  0
  152.0250  144.4054  160.6485 C   0  0  0  0  0  0  0  0  0  0  0  0
  152.0909  145.2242  159.3498 C   0  0  0  0  0  0  0  0  0  0  0  0
  151.3346  144.5245  158.2089 C   0  0  0  0  0  0  0  0  0  0  0  0
  150.2037  138.3522  156.0698 N   0  0  0  0  0  0  0  0  0  0  0  0
  151.3482  139.1195  153.1661 H   0  0  0  0  0  0  0  0  0  0  0  0
  150.5634  141.2423  154.4455 H   0  0  0  0  0  0  0  0  0  0  0  0
  149.3343  140.8760  155.6458 H   0  0  0  0  0  0  0  0  0  0  0  0
  150.2940  142.9300  156.5643 H   0  0  0  0  0  0  0  0  0  0  0  0
  152.8960  143.1353  157.6610 H   0  0  0  0  0  0  0  0  0  0  0  0
  150.7526  142.1293  159.5865 H   0  0  0  0  0  0  0  0  0  0  0  0
  152.2108  141.2802  159.1323 H   0  0  0  0  0  0  0  0  0  0  0  0
  152.4523  142.4014  161.3505 H   0  0  0  0  0  0  0  0  0  0  0  0
  153.6137  143.0103  160.1955 H   0  0  0  0  0  0  0  0  0  0  0  0
  150.9947  144.3666  161.0044 H   0  0  0  0  0  0  0  0  0  0  0  0
  152.6040  144.8990  161.4296 H   0  0  0  0  0  0  0  0  0  0  0  0
  151.6758  146.2186  159.5158 H   0  0  0  0  0  0  0  0  0  0  0  0
  153.1330  145.3686  159.0615 H   0  0  0  0  0  0  0  0  0  0  0  0
  151.4343  145.1108  157.2948 H   0  0  0  0  0  0  0  0  0  0  0  0
  150.2693  144.4993  158.4435 H   0  0  0  0  0  0  0  0  0  0  0  0
  1  2  3  0  0  0  0
  2  3  1  0  0  0  0
  3 17  2  0  0  0  0
  3  4  1  0  0  0  0
  4  5  2  0  0  0  0
  5  6  1  0  0  0  0
  5 18  1  0  0  0  0
  6  7  1  0  0  0  0
  6 17  1  0  0  0  0
  7  8  1  0  0  0  0
  7 19  1  0  0  0  0
  7 20  1  0  0  0  0
  8  9  2  0  0  0  0
  8 10  1  0  0  0  0
 10 11  1  0  0  0  0
 10 21  1  0  0  0  0
 11 16  1  0  0  0  0
 11 12  1  0  0  0  0
 11 22  1  0  0  0  0
 12 13  1  0  0  0  0
 12 23  1  0  0  0  0
 12 24  1  0  0  0  0
 13 14  1  0  0  0  0
 13 25  1  0  0  0  0
 13 26  1  0  0  0  0
 14 15  1  0  0  0  0
 14 27  1  0  0  0  0
 14 28  1  0  0  0  0
 15 16  1  0  0  0  0
 15 29  1  0  0  0  0
 15 30  1  0  0  0  0
 16 31  1  0  0  0  0
 16 32  1  0  0  0  0
M  END
> <s_m_source_file>
AV-unprocessed.smi

> <i_m_source_file_index>
293

> <i_lp_mmshare_version>
43012

> <i_f3d_flags>
0

> <s_epik_input>
TiNDYzFuW2NIXW4objEpW0NIMl1DKD1PKVtOSF1bQ0hdMltDSDJdW0NIMl1bQ0gyXVtDSDJdW0NIMl0y

> <s_epik_cmdline>
J2VwaWtfcHl0aG9uJywgJy1waCcsICc3LjAnLCAnLXRuJywgJzgnLCAnLW1hJywgJzIwMCcsICctbWV0YWxfYmluZGluZycsICctaW1hZScsICc8aW5maWxlLm1hZT4nLCAnLW9tYWUnLCAnPG91dGZpbGUubWFlPic=

> <r_lp_tautomer_probability>
1

> <r_epik_Ionization_Penalty>
5.31112e-08

> <r_epik_Ionization_Penalty_Charging>
0

> <r_epik_Ionization_Penalty_Neutral>
5.31112e-08

> <r_epik_State_Penalty>
-0

> <r_epik_Charging_Adjusted_Penalty>
0

> <i_epik_Tot_Q>
0

> <i_epik_Tot_abs_Q>
0

> <r_epik_Metal_State_Penalty>
-0

> <b_epik_Metal_Only>
0

> <s_lp_Force_Field>
OPLS_2005

> <r_lp_Energy>
12.166

> <b_lp_Chiralities_Consistent>
1

> <s_lp_Variant>
AV-unprocessed.smi:293-1

> <Gold.Version>
5.8.1

> <Gold.Id.Protein>
6NUR|6NUR_protein|mol2

> <Gold.PLP.Fitness>
43.1760

> <Gold.PLP.PLP>
-35.9416

> <Gold.PLP.part.hbond>
-3.0000

> <Gold.PLP.part.metal>
0.0000

> <Gold.PLP.part.buried>
-3.9301

> <Gold.PLP.part.nonpolar>
-28.4819

> <Gold.PLP.part.repulsive>
0.2163

> <Gold.PLP.ligand.clash>
0.0000

> <Gold.PLP.ligand.torsion>
0.1819

> <Gold.PLP.Chemscore.Hbond>
2.5312

> <Gold.PLP.Chemscore.CHOScore>
0.0000

> <Gold.PLP.Chemscore.Metal>
0.0000

> <Gold.Chemscore.Hbonds>
donor molecule, donor type, donor heavy atom, donor atom, acceptor molecule, acceptor atom, score
      P1  H  7997  8009       L1     9  0.60
      L1  C     5    18       P1  7957  0.29

> <Gold.PLP.Chemscore.Internal.Correction>
0.0044

> <Gold.Rescore>
     Score         DG    S(hbond)    S(metal)    S(lipo)     H(rot)  DE(clash)    DE(int)     intcor
     17.64     -18.06       2.57        0.00      77.01       1.96       0.03       0.39       ----

> <Gold.Chemscore.Fitness>
17.6357

> <Gold.Chemscore.DG>
-18.0606

> <Gold.Chemscore.ZeroCoef>
-5.4800

> <Gold.Chemscore.Hbond>
2.5724

> <Gold.Chemscore.Metal>
0.0000

> <Gold.Chemscore.Lipo>
77.0099

> <Gold.Chemscore.Internal_Hbond>
0.0000

> <Gold.Chemscore.DEClash>
0.0328

> <Gold.Chemscore.DEInternal>
0.3921

> <Gold.Chemscore.Rot>
1.9615

> <Gold.Chemscore.Internal.Correction>
   9.000000E+99

> <Gold.Chemscore.Hbonds>
donor molecule, donor type, donor heavy atom, donor atom, acceptor molecule, acceptor atom, score
      L1  H    10    21       P1  8028  0.05
      P1  H  7997  8009       L1     9  0.59

> <Gold.Chemscore.Hbond.Weighted>
-8.5919

> <Gold.Chemscore.Metal.Weighted>
-0.0000

> <Gold.Chemscore.Lipo.Weighted>
-9.0102

> <Gold.Chemscore.Internal_Hbond.Weighted>
0.0000

> <Gold.Chemscore.DEClash.Weighted>
0.0328

> <Gold.Chemscore.DEInternal.Weighted>
0.3921

> <Gold.Chemscore.Rot.Weighted>
5.0214

> <Gold.Chemscore.Internal.Correction.Weighted>
   9.000000E+99

> <Gold.Protein.RotatedTorsions>
[ 6907 6896 6895 6894 ] final -101.43 input  -60.11 | X-H torsion
[ 7974 7965 7964 7962 ] final   66.63 input  175.53 | X-H torsion
[ 8008 7997 7996 7995 ] final -170.26 input   59.86 | X-H torsion
[ 10167 10162 10161 10158 ] final   36.89 input  -65.29 | X-H torsion
[ 10718 10713 10712 10709 ] final -169.31 input   66.30 | X-H torsion
[ 10763 10752 10751 10750 ] final   36.73 input  -60.55 | X-H torsion
[ 11005 11000 10999 10996 ] final  147.98 input  -57.11 | X-H torsion

> <Gold.Protein.ActiveResidues>
 VAL166  LYS551  ARG553  GLY616  TRP617  ASP618  TYR619  PRO620  LYS621  CYS622 
 ASP623  PHE694  ASN695  SER759  ASP760  ASP761  ALA762  ILE779  LEU786  VAL792 
 PHE793  MET794  SER795  GLU796  ALA797  LYS798  CYS799  TRP800  GLU811  SER814 

> <Gold.Protein.RotatedAtoms>
  150.7154  134.0736  159.3872 H   0  0  0  0  0  0  0  0  0  0  0  0  # atno 6907 bound_to 6896
  151.8718  135.0484  160.0489 H   0  0  0  0  0  0  0  0  0  0  0  0  # atno 6908 bound_to 6896
  152.2637  133.5284  159.5433 H   0  0  0  0  0  0  0  0  0  0  0  0  # atno 6909 bound_to 6896
  145.8243  139.3102  143.1025 H   0  0  0  0  0  0  0  0  0  0  0  0  # atno 7974 bound_to 7965
  155.9160  140.1065  157.1243 H   0  0  0  0  0  0  0  0  0  0  0  0  # atno 8008 bound_to 7997
  154.4046  140.1265  156.4683 H   0  0  0  0  0  0  0  0  0  0  0  0  # atno 8009 bound_to 7997
  155.7253  140.3469  155.5037 H   0  0  0  0  0  0  0  0  0  0  0  0  # atno 8010 bound_to 7997
  140.4084  144.1626  150.6138 H   0  0  0  0  0  0  0  0  0  0  0  0  # atno 10167 bound_to 10162
  156.7097  130.9229  151.3088 H   0  0  0  0  0  0  0  0  0  0  0  0  # atno 10718 bound_to 10713
  153.0065  135.6297  154.2031 H   0  0  0  0  0  0  0  0  0  0  0  0  # atno 10763 bound_to 10752
  154.1775  135.2815  155.3064 H   0  0  0  0  0  0  0  0  0  0  0  0  # atno 10764 bound_to 10752
  154.5861  135.5632  153.7292 H   0  0  0  0  0  0  0  0  0  0  0  0  # atno 10765 bound_to 10752
  140.0921  134.9034  157.1667 H   0  0  0  0  0  0  0  0  0  0  0  0  # atno 11005 bound_to 11000
  145.9641  140.8812  143.0196 LP  0  0  0  0  0  0  0  0  0  0  0  0  # atno 17320 bound_to 7965
  144.6745  140.1853  143.7402 LP  0  0  0  0  0  0  0  0  0  0  0  0  # atno 17321 bound_to 7965
  140.4664  143.2429  151.9149 LP  0  0  0  0  0  0  0  0  0  0  0  0  # atno 17342 bound_to 10162
  139.4783  144.5415  151.8521 LP  0  0  0  0  0  0  0  0  0  0  0  0  # atno 17343 bound_to 10162
  157.6941  130.9263  150.0594 LP  0  0  0  0  0  0  0  0  0  0  0  0  # atno 17370 bound_to 10713
  156.1670  130.3645  149.9219 LP  0  0  0  0  0  0  0  0  0  0  0  0  # atno 17371 bound_to 10713
  140.3337  134.2781  155.7223 LP  0  0  0  0  0  0  0  0  0  0  0  0  # atno 17394 bound_to 11000
  141.2081  133.7787  157.0079 LP  0  0  0  0  0  0  0  0  0  0  0  0  # atno 17395 bound_to 11000

$$$$
