AV-unprocessed.smi:3246|AV-procd|sdf|12410|dock5
  -GOLD-   2272018293D 1   1.00000     0.00000
 Structure written by MMmdl.
 35 36  0  0  0  0  0  0  0  0  1 V2000
  151.7298  141.2354  157.1009 O   0  0  0  0  0  0  0  0  0  0  0  0
  151.1123  142.2613  156.8178 C   0  0  0  0  0  0  0  0  0  0  0  0
  151.6045  143.6047  157.3813 C   0  0  0  0  0  0  0  0  0  0  0  0
  151.9820  143.5822  158.7971 N   0  0  0  0  0  0  0  0  0  0  0  0
  152.7369  142.4672  159.3450 C   0  0  0  0  0  0  0  0  0  0  0  0
  153.1316  142.9112  160.7607 C   0  0  0  0  0  0  0  0  0  0  0  0
  152.2603  144.1328  161.0721 C   0  0  0  0  0  0  0  0  0  0  0  0
  151.6892  144.5110  159.7161 C   0  0  0  0  0  0  0  0  0  0  0  0
  151.0546  145.5466  159.5234 O   0  0  0  0  0  0  0  0  0  0  0  0
  150.0234  142.2583  156.0297 N   0  0  0  0  0  0  0  0  0  0  0  0
  149.4316  141.0755  155.4176 C   0  0  0  0  0  0  0  0  0  0  0  0
  148.5247  141.4464  154.2336 C   0  0  0  0  0  0  0  0  0  0  0  0
  147.1967  142.0162  154.6912 C   0  0  0  0  0  0  0  0  0  0  0  0
  146.4702  142.9089  153.8765 C   0  0  0  0  0  0  0  0  0  0  0  0
  145.2442  143.4144  154.3504 C   0  0  0  0  0  0  0  0  0  0  0  0
  144.7963  143.0045  155.6221 C   0  0  0  0  0  0  0  0  0  0  0  0
  145.4840  142.1507  156.4110 N   0  0  0  0  0  0  0  0  0  0  0  0
  146.6587  141.6705  155.9491 C   0  0  0  0  0  0  0  0  0  0  0  0
  152.4527  143.9429  156.7837 H   0  0  0  0  0  0  0  0  0  0  0  0
  150.8173  144.3453  157.2349 H   0  0  0  0  0  0  0  0  0  0  0  0
  152.0998  141.5822  159.3760 H   0  0  0  0  0  0  0  0  0  0  0  0
  153.6109  142.2392  158.7335 H   0  0  0  0  0  0  0  0  0  0  0  0
  152.9903  142.1116  161.4886 H   0  0  0  0  0  0  0  0  0  0  0  0
  154.1852  143.1931  160.7842 H   0  0  0  0  0  0  0  0  0  0  0  0
  151.4451  143.8793  161.7504 H   0  0  0  0  0  0  0  0  0  0  0  0
  152.8363  144.9508  161.5053 H   0  0  0  0  0  0  0  0  0  0  0  0
  149.5692  143.1416  155.8476 H   0  0  0  0  0  0  0  0  0  0  0  0
  150.2163  140.3866  155.1002 H   0  0  0  0  0  0  0  0  0  0  0  0
  148.8522  140.5557  156.1811 H   0  0  0  0  0  0  0  0  0  0  0  0
  149.0245  142.1734  153.5919 H   0  0  0  0  0  0  0  0  0  0  0  0
  148.3330  140.5696  153.6134 H   0  0  0  0  0  0  0  0  0  0  0  0
  146.8444  143.2034  152.9070 H   0  0  0  0  0  0  0  0  0  0  0  0
  144.6608  144.1000  153.7539 H   0  0  0  0  0  0  0  0  0  0  0  0
  143.8604  143.3723  156.0161 H   0  0  0  0  0  0  0  0  0  0  0  0
  147.1861  140.9924  156.6042 H   0  0  0  0  0  0  0  0  0  0  0  0
  1  2  2  0  0  0  0
  2  3  1  0  0  0  0
  2 10  1  0  0  0  0
  3  4  1  0  0  0  0
  3 19  1  0  0  0  0
  3 20  1  0  0  0  0
  4  8  1  0  0  0  0
  4  5  1  0  0  0  0
  5  6  1  0  0  0  0
  5 21  1  0  0  0  0
  5 22  1  0  0  0  0
  6  7  1  0  0  0  0
  6 23  1  0  0  0  0
  6 24  1  0  0  0  0
  7  8  1  0  0  0  0
  7 25  1  0  0  0  0
  7 26  1  0  0  0  0
  8  9  2  0  0  0  0
 10 11  1  0  0  0  0
 10 27  1  0  0  0  0
 11 12  1  0  0  0  0
 11 28  1  0  0  0  0
 11 29  1  0  0  0  0
 12 13  1  0  0  0  0
 12 30  1  0  0  0  0
 12 31  1  0  0  0  0
 13 18  1  0  0  0  0
 13 14  2  0  0  0  0
 14 15  1  0  0  0  0
 14 32  1  0  0  0  0
 15 16  2  0  0  0  0
 15 33  1  0  0  0  0
 16 17  1  0  0  0  0
 16 34  1  0  0  0  0
 17 18  2  0  0  0  0
 18 35  1  0  0  0  0
M  END
> <s_m_source_file>
AV-unprocessed.smi

> <i_m_source_file_index>
3246

> <i_lp_mmshare_version>
43012

> <i_f3d_flags>
0

> <s_epik_input>
Tz1DMVtDSDJdW0NIMl1bQ0gyXU4xW0NIMl1DKD1PKVtOSF1bQ0gyXVtDSDJdYzJbY0hdW2NIXVtjSF1uW2NIXTI=

> <s_epik_cmdline>
J2VwaWtfcHl0aG9uJywgJy1waCcsICc3LjAnLCAnLXRuJywgJzgnLCAnLW1hJywgJzIwMCcsICctbWV0YWxfYmluZGluZycsICctaW1hZScsICc8aW5maWxlLm1hZT4nLCAnLW9tYWUnLCAnPG91dGZpbGUubWFlPic=

> <r_epik_Ionization_Penalty>
0.0129263

> <r_epik_Ionization_Penalty_Charging>
0

> <r_epik_Ionization_Penalty_Neutral>
0.0129263

> <r_epik_State_Penalty>
0.0100328

> <r_epik_Charging_Adjusted_Penalty>
0.0100328

> <i_epik_Tot_Q>
0

> <i_epik_Tot_abs_Q>
0

> <r_epik_Metal_State_Penalty>
0.00981748

> <b_epik_Metal_Only>
0

> <s_lp_Force_Field>
OPLS_2005

> <r_lp_Energy>
11.4517

> <b_lp_Chiralities_Consistent>
1

> <s_lp_Variant>
AV-unprocessed.smi:3246-1

> <Gold.Version>
5.8.1

> <Gold.Id.Protein>
6NUR|6NUR_protein|mol2

> <Gold.PLP.Fitness>
45.3899

> <Gold.PLP.PLP>
-44.3750

> <Gold.PLP.part.hbond>
-2.1004

> <Gold.PLP.part.metal>
0.0000

> <Gold.PLP.part.buried>
-5.7403

> <Gold.PLP.part.nonpolar>
-36.5437

> <Gold.PLP.part.repulsive>
0.4077

> <Gold.PLP.ligand.clash>
0.0000

> <Gold.PLP.ligand.torsion>
1.0051

> <Gold.PLP.Chemscore.Hbond>
1.0000

> <Gold.PLP.Chemscore.CHOScore>
0.0000

> <Gold.PLP.Chemscore.Metal>
0.0000

> <Gold.Chemscore.Hbonds>
donor molecule, donor type, donor heavy atom, donor atom, acceptor molecule, acceptor atom, score
      L1  H    10    27       P1  8028  1.00

> <Gold.PLP.Chemscore.Internal.Correction>
0.0250

> <Gold.Rescore>
     Score         DG    S(hbond)    S(metal)    S(lipo)     H(rot)  DE(clash)    DE(int)     intcor
     13.42     -14.27       1.00        0.00      87.11       1.85       0.16       0.69       ----

> <Gold.Chemscore.Fitness>
13.4209

> <Gold.Chemscore.DG>
-14.2665

> <Gold.Chemscore.ZeroCoef>
-5.4800

> <Gold.Chemscore.Hbond>
0.9966

> <Gold.Chemscore.Metal>
0.0000

> <Gold.Chemscore.Lipo>
87.1135

> <Gold.Chemscore.Internal_Hbond>
0.0000

> <Gold.Chemscore.DEClash>
0.1577

> <Gold.Chemscore.DEInternal>
0.6879

> <Gold.Chemscore.Rot>
1.8494

> <Gold.Chemscore.Internal.Correction>
   9.000000E+99

> <Gold.Chemscore.Hbonds>
donor molecule, donor type, donor heavy atom, donor atom, acceptor molecule, acceptor atom, score
      L1  H    10    27       P1  8028  1.00

> <Gold.Chemscore.Hbond.Weighted>
-3.3286

> <Gold.Chemscore.Metal.Weighted>
-0.0000

> <Gold.Chemscore.Lipo.Weighted>
-10.1923

> <Gold.Chemscore.Internal_Hbond.Weighted>
0.0000

> <Gold.Chemscore.DEClash.Weighted>
0.1577

> <Gold.Chemscore.DEInternal.Weighted>
0.6879

> <Gold.Chemscore.Rot.Weighted>
4.7344

> <Gold.Chemscore.Internal.Correction.Weighted>
   9.000000E+99

> <Gold.Protein.RotatedTorsions>
[ 6907 6896 6895 6894 ] final -177.13 input  -60.11 | X-H torsion
[ 7974 7965 7964 7962 ] final  -49.23 input  175.53 | X-H torsion
[ 8008 7997 7996 7995 ] final -119.53 input   59.86 | X-H torsion
[ 10167 10162 10161 10158 ] final    4.24 input  -65.29 | X-H torsion
[ 10718 10713 10712 10709 ] final  138.46 input   66.30 | X-H torsion
[ 10763 10752 10751 10750 ] final   47.17 input  -60.55 | X-H torsion
[ 11005 11000 10999 10996 ] final -105.08 input  -57.11 | X-H torsion

> <Gold.Protein.ActiveResidues>
 VAL166  LYS551  ARG553  GLY616  TRP617  ASP618  TYR619  PRO620  LYS621  CYS622 
 ASP623  PHE694  ASN695  SER759  ASP760  ASP761  ALA762  ILE779  LEU786  VAL792 
 PHE793  MET794  SER795  GLU796  ALA797  LYS798  CYS799  TRP800  GLU811  SER814 

> <Gold.Protein.RotatedAtoms>
  151.6160  133.3343  159.3077 H   0  0  0  0  0  0  0  0  0  0  0  0  # atno 6907 bound_to 6896
  150.8131  134.7301  159.6717 H   0  0  0  0  0  0  0  0  0  0  0  0  # atno 6908 bound_to 6896
  152.4227  134.5930  160.0031 H   0  0  0  0  0  0  0  0  0  0  0  0  # atno 6909 bound_to 6896
  145.9428  140.7646  142.9543 H   0  0  0  0  0  0  0  0  0  0  0  0  # atno 7974 bound_to 7965
  155.1172  140.0398  157.2740 H   0  0  0  0  0  0  0  0  0  0  0  0  # atno 8008 bound_to 7997
  154.6640  140.2597  155.7052 H   0  0  0  0  0  0  0  0  0  0  0  0  # atno 8009 bound_to 7997
  156.2631  140.2811  156.1124 H   0  0  0  0  0  0  0  0  0  0  0  0  # atno 8010 bound_to 7997
  140.6545  143.7462  150.7630 H   0  0  0  0  0  0  0  0  0  0  0  0  # atno 10167 bound_to 10162
  157.4251  131.1043  151.0311 H   0  0  0  0  0  0  0  0  0  0  0  0  # atno 10718 bound_to 10713
  152.9802  135.5985  154.3719 H   0  0  0  0  0  0  0  0  0  0  0  0  # atno 10763 bound_to 10752
  154.3392  135.2768  155.2433 H   0  0  0  0  0  0  0  0  0  0  0  0  # atno 10764 bound_to 10752
  154.4522  135.5987  153.6255 H   0  0  0  0  0  0  0  0  0  0  0  0  # atno 10765 bound_to 10752
  141.1070  133.8778  157.1691 H   0  0  0  0  0  0  0  0  0  0  0  0  # atno 11005 bound_to 11000
  144.6782  140.2308  143.7355 LP  0  0  0  0  0  0  0  0  0  0  0  0  # atno 17320 bound_to 7965
  145.8277  139.2072  143.1901 LP  0  0  0  0  0  0  0  0  0  0  0  0  # atno 17321 bound_to 7965
  140.1119  143.4691  152.2365 LP  0  0  0  0  0  0  0  0  0  0  0  0  # atno 17342 bound_to 10162
  139.5765  144.7490  151.3751 LP  0  0  0  0  0  0  0  0  0  0  0  0  # atno 17343 bound_to 10162
  157.1228  130.6069  149.5509 LP  0  0  0  0  0  0  0  0  0  0  0  0  # atno 17370 bound_to 10713
  155.9894  130.4941  150.7211 LP  0  0  0  0  0  0  0  0  0  0  0  0  # atno 17371 bound_to 10713
  139.9945  135.0052  157.0051 LP  0  0  0  0  0  0  0  0  0  0  0  0  # atno 17394 bound_to 11000
  140.4876  134.1226  155.7227 LP  0  0  0  0  0  0  0  0  0  0  0  0  # atno 17395 bound_to 11000

$$$$
