AV-unprocessed.smi:3303|AV-procd|sdf|12683|dock7
  -GOLD-   2272019 23D 1   1.00000     0.00000
 Structure written by MMmdl.
 44 45  0  0  0  0  0  0  0  0  2 V2000
  149.5997  138.8118  154.0564 C   0  0  0  0  0  0  0  0  0  0  0  0
  148.5514  139.8381  154.5209 C   0  0  2  0  0  0  0  0  0  0  0  0
  147.2584  139.6795  153.6881 C   0  0  0  0  0  0  0  0  0  0  0  0
  146.2145  140.6696  154.0571 N   0  3  1  0  0  0  0  0  0  0  0  0
  145.5574  140.3608  155.3526 C   0  0  0  0  0  0  0  0  0  0  0  0
  146.7119  142.0668  153.9054 C   0  0  1  0  0  0  0  0  0  0  0  0
  145.6212  143.1223  154.1570 C   0  0  0  0  0  0  0  0  0  0  0  0
  147.9713  142.3058  154.7608 C   0  0  0  0  0  0  0  0  0  0  0  0
  149.0812  141.2893  154.4310 C   0  0  1  0  0  0  0  0  0  0  0  0
  150.1539  141.4783  155.4002 N   0  0  0  0  0  0  0  0  0  0  0  0
  149.6977  141.2126  156.7557 C   0  0  0  0  0  0  0  0  0  0  0  0
  150.9081  141.0955  157.6921 C   0  0  0  0  0  0  0  0  0  0  0  0
  151.2278  142.4073  158.3834 C   0  0  0  0  0  0  0  0  0  0  0  0
  152.3798  142.5358  159.1884 C   0  0  0  0  0  0  0  0  0  0  0  0
  152.6302  143.7753  159.8085 C   0  0  0  0  0  0  0  0  0  0  0  0
  151.7229  144.8323  159.6028 C   0  0  0  0  0  0  0  0  0  0  0  0
  150.6011  144.6021  158.7817 C   0  0  0  0  0  0  0  0  0  0  0  0
  150.3521  143.4179  158.1817 N   0  0  0  0  0  0  0  0  0  0  0  0
  149.9007  138.9924  153.0239 H   0  0  0  0  0  0  0  0  0  0  0  0
  149.2070  137.7962  154.1151 H   0  0  0  0  0  0  0  0  0  0  0  0
  150.4971  138.8465  154.6745 H   0  0  0  0  0  0  0  0  0  0  0  0
  148.3146  139.6168  155.5627 H   0  0  0  0  0  0  0  0  0  0  0  0
  147.4882  139.8056  152.6289 H   0  0  0  0  0  0  0  0  0  0  0  0
  146.8588  138.6698  153.7911 H   0  0  0  0  0  0  0  0  0  0  0  0
  146.2246  140.5188  156.1997 H   0  0  0  0  0  0  0  0  0  0  0  0
  145.2314  139.3206  155.3749 H   0  0  0  0  0  0  0  0  0  0  0  0
  144.6674  140.9716  155.5012 H   0  0  0  0  0  0  0  0  0  0  0  0
  147.0037  142.1722  152.8590 H   0  0  0  0  0  0  0  0  0  0  0  0
  145.9777  144.1160  153.8842 H   0  0  0  0  0  0  0  0  0  0  0  0
  145.3263  143.1647  155.2056 H   0  0  0  0  0  0  0  0  0  0  0  0
  144.7302  142.9197  153.5618 H   0  0  0  0  0  0  0  0  0  0  0  0
  148.3427  143.3172  154.5884 H   0  0  0  0  0  0  0  0  0  0  0  0
  147.7144  142.2566  155.8199 H   0  0  0  0  0  0  0  0  0  0  0  0
  149.4339  141.4737  153.4144 H   0  0  0  0  0  0  0  0  0  0  0  0
  150.9318  140.8733  155.1783 H   0  0  0  0  0  0  0  0  0  0  0  0
  149.0451  142.0213  157.0877 H   0  0  0  0  0  0  0  0  0  0  0  0
  149.1163  140.2899  156.7734 H   0  0  0  0  0  0  0  0  0  0  0  0
  150.7256  140.3289  158.4465 H   0  0  0  0  0  0  0  0  0  0  0  0
  151.7864  140.7711  157.1315 H   0  0  0  0  0  0  0  0  0  0  0  0
  153.0572  141.7062  159.3285 H   0  0  0  0  0  0  0  0  0  0  0  0
  153.5024  143.9126  160.4302 H   0  0  0  0  0  0  0  0  0  0  0  0
  151.8831  145.7961  160.0630 H   0  0  0  0  0  0  0  0  0  0  0  0
  149.8847  145.3900  158.6019 H   0  0  0  0  0  0  0  0  0  0  0  0
  145.4860  140.5617  153.3656 H   0  0  0  0  0  0  0  0  0  0  0  0
  1  2  1  0  0  0  0
  1 19  1  0  0  0  0
  1 20  1  0  0  0  0
  1 21  1  0  0  0  0
  2  9  1  0  0  0  0
  2  3  1  0  0  0  0
  2 22  1  0  0  0  0
  3  4  1  0  0  0  0
  3 23  1  0  0  0  0
  3 24  1  0  0  0  0
  4  5  1  0  0  0  0
  4  6  1  0  0  0  0
  4 44  1  0  0  0  0
  5 25  1  0  0  0  0
  5 26  1  0  0  0  0
  5 27  1  0  0  0  0
  6  7  1  0  0  0  0
  6  8  1  0  0  0  0
  6 28  1  0  0  0  0
  7 29  1  0  0  0  0
  7 30  1  0  0  0  0
  7 31  1  0  0  0  0
  8  9  1  0  0  0  0
  8 32  1  0  0  0  0
  8 33  1  0  0  0  0
  9 10  1  0  0  0  0
  9 34  1  0  0  0  0
 10 11  1  0  0  0  0
 10 35  1  0  0  0  0
 11 12  1  0  0  0  0
 11 36  1  0  0  0  0
 11 37  1  0  0  0  0
 12 13  1  0  0  0  0
 12 38  1  0  0  0  0
 12 39  1  0  0  0  0
 13 18  1  0  0  0  0
 13 14  2  0  0  0  0
 14 15  1  0  0  0  0
 14 40  1  0  0  0  0
 15 16  2  0  0  0  0
 15 41  1  0  0  0  0
 16 17  1  0  0  0  0
 16 42  1  0  0  0  0
 17 18  2  0  0  0  0
 17 43  1  0  0  0  0
M  CHG  1   4   1
M  END
> <s_m_source_file>
AV-unprocessed.smi

> <i_m_source_file_index>
3303

> <i_lp_mmshare_version>
43012

> <i_f3d_flags>
0

> <s_epik_input>
W0NIM11bQ0BASF0xW0NIMl1OKFtDSDNdKVtDQEBIXShbQ0gzXSlbQ0gyXVtDQEhdMVtOSF1bQ0gyXVtDSDJdYzJbY0hdW2NIXVtjSF1bY0hdbjI=

> <s_epik_cmdline>
J2VwaWtfcHl0aG9uJywgJy1waCcsICc3LjAnLCAnLXRuJywgJzgnLCAnLW1hJywgJzIwMCcsICctbWV0YWxfYmluZGluZycsICctaW1hZScsICc8aW5maWxlLm1hZT4nLCAnLW9tYWUnLCAnPG91dGZpbGUubWFlPic=

> <r_epik_Ionization_Penalty>
2.31085

> <r_epik_Ionization_Penalty_Charging>
0.000313057

> <r_epik_Ionization_Penalty_Neutral>
2.31054

> <r_epik_State_Penalty>
2.4087

> <r_epik_Charging_Adjusted_Penalty>
2.40902

> <i_epik_Tot_Q>
1

> <i_epik_Tot_abs_Q>
1

> <r_epik_Metal_State_Penalty>
2.30979

> <b_epik_Metal_Only>
0

> <s_lp_Force_Field>
OPLS_2005

> <r_lp_Energy>
25.8109

> <b_lp_Chiralities_Consistent>
1

> <s_lp_Variant>
AV-unprocessed.smi:3303-27

> <Gold.Version>
5.8.1

> <Gold.Id.Protein>
6NUR|6NUR_protein|mol2

> <Gold.PLP.Fitness>
47.3704

> <Gold.PLP.PLP>
-38.9886

> <Gold.PLP.part.hbond>
-1.9069

> <Gold.PLP.part.metal>
0.0000

> <Gold.PLP.part.buried>
-1.3853

> <Gold.PLP.part.nonpolar>
-36.2190

> <Gold.PLP.part.repulsive>
0.2563

> <Gold.PLP.ligand.clash>
0.0000

> <Gold.PLP.ligand.torsion>
0.3153

> <Gold.PLP.Chemscore.Hbond>
2.0000

> <Gold.PLP.Chemscore.CHOScore>
1.0000

> <Gold.PLP.Chemscore.Metal>
0.0000

> <Gold.Chemscore.Hbonds>
donor molecule, donor type, donor heavy atom, donor atom, acceptor molecule, acceptor atom, score
      L1  H     4    44       P1 10175  2.00
      L1  C    17    43       P1  8029  1.00

> <Gold.PLP.Chemscore.Internal.Correction>
0.0124

> <Gold.Rescore>
     Score         DG    S(hbond)    S(metal)    S(lipo)     H(rot)  DE(clash)    DE(int)     intcor
     17.10     -18.67       0.93        0.00     115.13       1.33       1.26       0.30       ----

> <Gold.Chemscore.Fitness>
17.1018

> <Gold.Chemscore.DG>
-18.6658

> <Gold.Chemscore.ZeroCoef>
-5.4800

> <Gold.Chemscore.Hbond>
0.9321

> <Gold.Chemscore.Metal>
0.0000

> <Gold.Chemscore.Lipo>
115.1296

> <Gold.Chemscore.Internal_Hbond>
0.0000

> <Gold.Chemscore.DEClash>
1.2590

> <Gold.Chemscore.DEInternal>
0.3050

> <Gold.Chemscore.Rot>
1.3272

> <Gold.Chemscore.Internal.Correction>
   9.000000E+99

> <Gold.Chemscore.Hbonds>
donor molecule, donor type, donor heavy atom, donor atom, acceptor molecule, acceptor atom, score
      L1  H     4    44       P1 10175  0.90

> <Gold.Chemscore.Hbond.Weighted>
-3.1133

> <Gold.Chemscore.Metal.Weighted>
-0.0000

> <Gold.Chemscore.Lipo.Weighted>
-13.4702

> <Gold.Chemscore.Internal_Hbond.Weighted>
0.0000

> <Gold.Chemscore.DEClash.Weighted>
1.2590

> <Gold.Chemscore.DEInternal.Weighted>
0.3050

> <Gold.Chemscore.Rot.Weighted>
3.3976

> <Gold.Chemscore.Internal.Correction.Weighted>
   9.000000E+99

> <Gold.Protein.RotatedTorsions>
[ 6907 6896 6895 6894 ] final  -54.65 input  -60.11 | X-H torsion
[ 7974 7965 7964 7962 ] final   75.64 input  175.53 | X-H torsion
[ 8008 7997 7996 7995 ] final    1.81 input   59.86 | X-H torsion
[ 10167 10162 10161 10158 ] final  165.23 input  -65.29 | X-H torsion
[ 10718 10713 10712 10709 ] final  -34.13 input   66.30 | X-H torsion
[ 10763 10752 10751 10750 ] final  -28.20 input  -60.55 | X-H torsion
[ 11005 11000 10999 10996 ] final  -52.85 input  -57.11 | X-H torsion

> <Gold.Protein.ActiveResidues>
 VAL166  LYS551  ARG553  GLY616  TRP617  ASP618  TYR619  PRO620  LYS621  CYS622 
 ASP623  PHE694  ASN695  SER759  ASP760  ASP761  ALA762  ILE779  LEU786  VAL792 
 PHE793  MET794  SER795  GLU796  ALA797  LYS798  CYS799  TRP800  GLU811  SER814 

> <Gold.Protein.RotatedAtoms>
  150.8320  134.7577  159.6861 H   0  0  0  0  0  0  0  0  0  0  0  0  # atno 6907 bound_to 6896
  152.4423  134.5563  159.9891 H   0  0  0  0  0  0  0  0  0  0  0  0  # atno 6908 bound_to 6896
  151.5722  133.3351  159.3027 H   0  0  0  0  0  0  0  0  0  0  0  0  # atno 6909 bound_to 6896
  145.7130  139.2621  143.1640 H   0  0  0  0  0  0  0  0  0  0  0  0  # atno 7974 bound_to 7965
  154.6842  140.2639  155.6878 H   0  0  0  0  0  0  0  0  0  0  0  0  # atno 8008 bound_to 7997
  156.2708  140.2804  156.1319 H   0  0  0  0  0  0  0  0  0  0  0  0  # atno 8009 bound_to 7997
  155.0989  140.0374  157.2681 H   0  0  0  0  0  0  0  0  0  0  0  0  # atno 8010 bound_to 7997
  139.4902  144.4154  151.9250 H   0  0  0  0  0  0  0  0  0  0  0  0  # atno 10167 bound_to 10162
  156.3542  130.4313  149.7678 H   0  0  0  0  0  0  0  0  0  0  0  0  # atno 10718 bound_to 10713
  153.7445  135.6930  153.4959 H   0  0  0  0  0  0  0  0  0  0  0  0  # atno 10763 bound_to 10752
  153.2046  135.4424  155.0306 H   0  0  0  0  0  0  0  0  0  0  0  0  # atno 10764 bound_to 10752
  154.8209  135.3421  154.6969 H   0  0  0  0  0  0  0  0  0  0  0  0  # atno 10765 bound_to 10752
  141.0946  133.6627  156.4085 H   0  0  0  0  0  0  0  0  0  0  0  0  # atno 11005 bound_to 11000
  146.0696  140.7884  142.9695 LP  0  0  0  0  0  0  0  0  0  0  0  0  # atno 17320 bound_to 7965
  144.6937  140.3321  143.7214 LP  0  0  0  0  0  0  0  0  0  0  0  0  # atno 17321 bound_to 7965
  140.3596  144.2989  150.5935 LP  0  0  0  0  0  0  0  0  0  0  0  0  # atno 17342 bound_to 10162
  140.5414  143.2223  151.8078 LP  0  0  0  0  0  0  0  0  0  0  0  0  # atno 17343 bound_to 10162
  156.4866  130.8066  151.3078 LP  0  0  0  0  0  0  0  0  0  0  0  0  # atno 17370 bound_to 10713
  157.7465  130.9988  150.2868 LP  0  0  0  0  0  0  0  0  0  0  0  0  # atno 17371 bound_to 10713
  140.5171  134.6339  157.5305 LP  0  0  0  0  0  0  0  0  0  0  0  0  # atno 17394 bound_to 11000
  139.9779  134.7185  155.9914 LP  0  0  0  0  0  0  0  0  0  0  0  0  # atno 17395 bound_to 11000

$$$$
