AV-unprocessed.smi:229|AV-procd|sdf|1759|dock5
  -GOLD-   2262020283D 1   1.00000     0.00000
 Structure written by MMmdl.
 58 62  0  0  0  0  0  0  0  0  1 V2000
  151.8229  144.1336  158.1262 C   0  0  0  0  0  0  0  0  0  0  0  0
  150.8070  143.1369  158.7004 C   0  0  0  0  0  0  0  0  0  0  0  0
  150.5123  141.9499  157.7686 C   0  0  2  0  0  0  0  0  0  0  0  0
  149.2595  141.1573  158.1837 C   0  0  0  0  0  0  0  0  0  0  0  0
  149.1037  139.9889  157.3267 N   0  0  0  0  0  0  0  0  0  0  0  0
  147.8808  139.4020  157.3700 C   0  0  0  0  0  0  0  0  0  0  0  0
  147.1169  139.5039  158.4912 N   0  0  0  0  0  0  0  0  0  0  0  0
  145.9075  138.9371  158.5392 C   0  0  0  0  0  0  0  0  0  0  0  0
  145.2785  138.2315  157.5975 N   0  0  0  0  0  0  0  0  0  0  0  0
  146.0428  138.1181  156.4741 C   0  0  0  0  0  0  0  0  0  0  0  0
  147.3424  138.6649  156.2773 C   0  0  0  0  0  0  0  0  0  0  0  0
  147.8097  138.3272  155.0119 N   0  0  0  0  0  0  0  0  0  0  0  0
  146.8382  137.6309  154.4876 C   0  0  0  0  0  0  0  0  0  0  0  0
  145.7392  137.4579  155.2975 N   0  0  0  0  0  0  0  0  0  0  0  0
  144.5252  136.7291  154.9757 C   0  0  0  0  0  0  0  0  0  0  0  0
  144.1945  136.7709  153.4710 C   0  0  2  0  0  0  0  0  0  0  0  0
  142.9585  137.4343  153.2829 O   0  0  0  0  0  0  0  0  0  0  0  0
  144.1473  135.3589  152.8516 C   0  0  1  0  0  0  0  0  0  0  0  0
  143.8346  135.2582  151.3550 C   0  0  0  0  0  0  0  0  0  0  0  0
  144.4252  133.9056  151.0261 C   0  0  0  0  0  0  0  0  0  0  0  0
  145.6870  133.8976  151.8871 C   0  0  0  0  0  0  0  0  0  0  0  0
  145.3797  134.6712  153.0447 O   0  0  0  0  0  0  0  0  0  0  0  0
  150.2822  139.1275  157.3163 C   0  0  0  0  0  0  0  0  0  0  0  0
  151.5520  139.9319  156.9579 C   0  0  2  0  0  0  0  0  0  0  0  0
  151.6329  140.3246  155.4782 C   0  0  0  0  0  0  0  0  0  0  0  0
  152.6326  139.3367  154.8939 C   0  0  0  0  0  0  0  0  0  0  0  0
  153.5658  139.1981  155.9485 O   0  0  0  0  0  0  0  0  0  0  0  0
  152.8203  139.0783  157.1519 C   0  0  0  0  0  0  0  0  0  0  0  0
  151.6443  141.0793  157.8088 O   0  0  0  0  0  0  0  0  0  0  0  0
  152.0438  144.9188  158.8492 H   0  0  0  0  0  0  0  0  0  0  0  0
  151.4473  144.6162  157.2241 H   0  0  0  0  0  0  0  0  0  0  0  0
  152.7620  143.6387  157.8772 H   0  0  0  0  0  0  0  0  0  0  0  0
  151.1979  142.7541  159.6437 H   0  0  0  0  0  0  0  0  0  0  0  0
  149.8796  143.6559  158.9455 H   0  0  0  0  0  0  0  0  0  0  0  0
  150.3829  142.3310  156.7548 H   0  0  0  0  0  0  0  0  0  0  0  0
  149.3497  140.8261  159.2192 H   0  0  0  0  0  0  0  0  0  0  0  0
  148.3828  141.8007  158.1345 H   0  0  0  0  0  0  0  0  0  0  0  0
  145.3671  139.0679  159.4650 H   0  0  0  0  0  0  0  0  0  0  0  0
  146.8987  137.2164  153.4917 H   0  0  0  0  0  0  0  0  0  0  0  0
  144.6514  135.6974  155.3066 H   0  0  0  0  0  0  0  0  0  0  0  0
  143.7042  137.1454  155.5610 H   0  0  0  0  0  0  0  0  0  0  0  0
  144.9673  137.3485  152.9621 H   0  0  0  0  0  0  0  0  0  0  0  0
  143.0548  138.3286  153.5730 H   0  0  0  0  0  0  0  0  0  0  0  0
  143.4037  134.7698  153.3911 H   0  0  0  0  0  0  0  0  0  0  0  0
  142.7683  135.3240  151.1374 H   0  0  0  0  0  0  0  0  0  0  0  0
  144.3485  136.0289  150.7800 H   0  0  0  0  0  0  0  0  0  0  0  0
  143.7467  133.1129  151.3446 H   0  0  0  0  0  0  0  0  0  0  0  0
  144.6318  133.7725  149.9638 H   0  0  0  0  0  0  0  0  0  0  0  0
  146.0033  132.8890  152.1536 H   0  0  0  0  0  0  0  0  0  0  0  0
  146.5093  134.3815  151.3584 H   0  0  0  0  0  0  0  0  0  0  0  0
  150.3966  138.6794  158.3047 H   0  0  0  0  0  0  0  0  0  0  0  0
  150.1474  138.3106  156.6053 H   0  0  0  0  0  0  0  0  0  0  0  0
  150.6707  140.3043  154.9652 H   0  0  0  0  0  0  0  0  0  0  0  0
  152.0412  141.3312  155.3768 H   0  0  0  0  0  0  0  0  0  0  0  0
  152.1614  138.3750  154.6843 H   0  0  0  0  0  0  0  0  0  0  0  0
  153.1038  139.7011  153.9810 H   0  0  0  0  0  0  0  0  0  0  0  0
  153.4166  139.3927  158.0090 H   0  0  0  0  0  0  0  0  0  0  0  0
  152.5703  138.0257  157.2950 H   0  0  0  0  0  0  0  0  0  0  0  0
  1  2  1  0  0  0  0
  1 30  1  0  0  0  0
  1 31  1  0  0  0  0
  1 32  1  0  0  0  0
  2  3  1  0  0  0  0
  2 33  1  0  0  0  0
  2 34  1  0  0  0  0
  3 29  1  0  0  0  0
  3  4  1  0  0  0  0
  3 35  1  0  0  0  0
  4  5  1  0  0  0  0
  4 36  1  0  0  0  0
  4 37  1  0  0  0  0
  5  6  1  0  0  0  0
  5 23  1  0  0  0  0
  6 11  1  0  0  0  0
  6  7  2  0  0  0  0
  7  8  1  0  0  0  0
  8  9  2  0  0  0  0
  8 38  1  0  0  0  0
  9 10  1  0  0  0  0
 10 14  1  0  0  0  0
 10 11  2  0  0  0  0
 11 12  1  0  0  0  0
 12 13  2  0  0  0  0
 13 14  1  0  0  0  0
 13 39  1  0  0  0  0
 14 15  1  0  0  0  0
 15 16  1  0  0  0  0
 15 40  1  0  0  0  0
 15 41  1  0  0  0  0
 16 17  1  0  0  0  0
 16 18  1  0  0  0  0
 16 42  1  0  0  0  0
 17 43  1  0  0  0  0
 18 22  1  0  0  0  0
 18 19  1  0  0  0  0
 18 44  1  0  0  0  0
 19 20  1  0  0  0  0
 19 45  1  0  0  0  0
 19 46  1  0  0  0  0
 20 21  1  0  0  0  0
 20 47  1  0  0  0  0
 20 48  1  0  0  0  0
 21 22  1  0  0  0  0
 21 49  1  0  0  0  0
 21 50  1  0  0  0  0
 23 24  1  0  0  0  0
 23 51  1  0  0  0  0
 23 52  1  0  0  0  0
 24 28  1  0  0  0  0
 24 25  1  0  0  0  0
 24 29  1  0  0  0  0
 25 26  1  0  0  0  0
 25 53  1  0  0  0  0
 25 54  1  0  0  0  0
 26 27  1  0  0  0  0
 26 55  1  0  0  0  0
 26 56  1  0  0  0  0
 27 28  1  0  0  0  0
 28 57  1  0  0  0  0
 28 58  1  0  0  0  0
M  END
> <s_m_source_file>
AV-unprocessed.smi

> <i_m_source_file_index>
229

> <i_lp_mmshare_version>
43012

> <i_f3d_flags>
0

> <s_epik_input>
W0NIMl0xT1tDSDJdW0NIMl1bQ0BdMTJbQ0gyXU4oW0NIMl1bQ0BIXShPMilbQ0gyXVtDSDNdKWMobltjSF1uMyljKGMzNCluW2NIXW40W0NIMl1bQ0BIXShbT0hdKVtDQEBIXTVbQ0gyXVtDSDJdW0NIMl1PNQ==

> <s_epik_cmdline>
J2VwaWtfcHl0aG9uJywgJy1waCcsICc3LjAnLCAnLXRuJywgJzgnLCAnLW1hJywgJzIwMCcsICctbWV0YWxfYmluZGluZycsICctaW1hZScsICc8aW5maWxlLm1hZT4nLCAnLW9tYWUnLCAnPG91dGZpbGUubWFlPic=

> <r_lp_tautomer_probability>
1

> <r_epik_Ionization_Penalty>
0.00318402

> <r_epik_Ionization_Penalty_Charging>
0

> <r_epik_Ionization_Penalty_Neutral>
0.00318402

> <r_epik_State_Penalty>
0.00215642

> <r_epik_Charging_Adjusted_Penalty>
0.00215642

> <i_epik_Tot_Q>
0

> <i_epik_Tot_abs_Q>
0

> <r_epik_Metal_State_Penalty>
-0

> <b_epik_Metal_Only>
0

> <s_lp_Force_Field>
OPLS_2005

> <r_lp_Energy>
55.431

> <b_lp_Chiralities_Consistent>
1

> <s_lp_Variant>
AV-unprocessed.smi:229-13

> <Gold.Version>
5.8.1

> <Gold.Id.Protein>
6NUR|6NUR_protein|mol2

> <Gold.PLP.Fitness>
41.3168

> <Gold.PLP.PLP>
-35.3937

> <Gold.PLP.part.hbond>
-3.6733

> <Gold.PLP.part.metal>
0.0000

> <Gold.PLP.part.buried>
-5.5992

> <Gold.PLP.part.nonpolar>
-26.5807

> <Gold.PLP.part.repulsive>
0.1895

> <Gold.PLP.ligand.clash>
0.0000

> <Gold.PLP.ligand.torsion>
1.6752

> <Gold.PLP.Chemscore.Hbond>
1.9600

> <Gold.PLP.Chemscore.CHOScore>
1.0000

> <Gold.PLP.Chemscore.Metal>
0.0000

> <Gold.Chemscore.Hbonds>
donor molecule, donor type, donor heavy atom, donor atom, acceptor molecule, acceptor atom, score
      P1  H  7997  8008       L1    27  0.14
      L1  C    13    39       P1  7948  0.33

> <Gold.PLP.Chemscore.Internal.Correction>
0.3935

> <Gold.Rescore>
     Score         DG    S(hbond)    S(metal)    S(lipo)     H(rot)  DE(clash)    DE(int)     intcor
     12.40     -14.12       1.51        0.00      84.61       2.46       0.26       1.46       ----

> <Gold.Chemscore.Fitness>
12.3991

> <Gold.Chemscore.DG>
-14.1204

> <Gold.Chemscore.ZeroCoef>
-5.4800

> <Gold.Chemscore.Hbond>
1.5080

> <Gold.Chemscore.Metal>
0.0000

> <Gold.Chemscore.Lipo>
84.6055

> <Gold.Chemscore.Internal_Hbond>
0.0000

> <Gold.Chemscore.DEClash>
0.2614

> <Gold.Chemscore.DEInternal>
1.4599

> <Gold.Chemscore.Rot>
2.4591

> <Gold.Chemscore.Internal.Correction>
   9.000000E+99

> <Gold.Chemscore.Hbonds>
donor molecule, donor type, donor heavy atom, donor atom, acceptor molecule, acceptor atom, score
      L1  H    17    43       P1 10175  0.04

> <Gold.Chemscore.Hbond.Weighted>
-5.0369

> <Gold.Chemscore.Metal.Weighted>
-0.0000

> <Gold.Chemscore.Lipo.Weighted>
-9.8988

> <Gold.Chemscore.Internal_Hbond.Weighted>
0.0000

> <Gold.Chemscore.DEClash.Weighted>
0.2614

> <Gold.Chemscore.DEInternal.Weighted>
1.4599

> <Gold.Chemscore.Rot.Weighted>
6.2953

> <Gold.Chemscore.Internal.Correction.Weighted>
   9.000000E+99

> <Gold.Protein.RotatedTorsions>
[ 6907 6896 6895 6894 ] final   14.23 input  -60.11 | X-H torsion
[ 7974 7965 7964 7962 ] final  -86.23 input  175.53 | X-H torsion
[ 8008 7997 7996 7995 ] final  -64.21 input   59.86 | X-H torsion
[ 10167 10162 10161 10158 ] final    0.81 input  -65.29 | X-H torsion
[ 10718 10713 10712 10709 ] final   -7.69 input   66.30 | X-H torsion
[ 10763 10752 10751 10750 ] final -166.48 input  -60.55 | X-H torsion
[ 11005 11000 10999 10996 ] final -105.55 input  -57.11 | X-H torsion

> <Gold.Protein.ActiveResidues>
 VAL166  LYS551  ARG553  GLY616  TRP617  ASP618  TYR619  PRO620  LYS621  CYS622 
 ASP623  PHE694  ASN695  SER759  ASP760  ASP761  ALA762  ILE779  LEU786  VAL792 
 PHE793  MET794  SER795  GLU796  ALA797  LYS798  CYS799  TRP800  GLU811  SER814 

> <Gold.Protein.RotatedAtoms>
  151.7990  135.0714  160.0397 H   0  0  0  0  0  0  0  0  0  0  0  0  # atno 6907 bound_to 6896
  152.3102  133.5741  159.5684 H   0  0  0  0  0  0  0  0  0  0  0  0  # atno 6908 bound_to 6896
  150.7316  134.0079  159.3702 H   0  0  0  0  0  0  0  0  0  0  0  0  # atno 6909 bound_to 6896
  145.4827  140.9556  143.1855 H   0  0  0  0  0  0  0  0  0  0  0  0  # atno 7974 bound_to 7965
  154.4598  140.0958  156.6862 H   0  0  0  0  0  0  0  0  0  0  0  0  # atno 8008 bound_to 7997
  155.5027  140.3474  155.4355 H   0  0  0  0  0  0  0  0  0  0  0  0  # atno 8009 bound_to 7997
  156.0849  140.1382  156.9654 H   0  0  0  0  0  0  0  0  0  0  0  0  # atno 8010 bound_to 7997
  140.6712  143.7044  150.7926 H   0  0  0  0  0  0  0  0  0  0  0  0  # atno 10167 bound_to 10162
  156.7135  130.5129  149.5886 H   0  0  0  0  0  0  0  0  0  0  0  0  # atno 10718 bound_to 10713
  154.6828  135.2957  154.9589 H   0  0  0  0  0  0  0  0  0  0  0  0  # atno 10763 bound_to 10752
  154.0578  135.6635  153.4812 H   0  0  0  0  0  0  0  0  0  0  0  0  # atno 10764 bound_to 10752
  153.0559  135.5145  154.7880 H   0  0  0  0  0  0  0  0  0  0  0  0  # atno 10765 bound_to 10752
  141.1048  133.8817  157.1747 H   0  0  0  0  0  0  0  0  0  0  0  0  # atno 11005 bound_to 11000
  144.7879  139.6388  143.7126 LP  0  0  0  0  0  0  0  0  0  0  0  0  # atno 17320 bound_to 7965
  146.2331  139.5853  142.9542 LP  0  0  0  0  0  0  0  0  0  0  0  0  # atno 17321 bound_to 7965
  140.0730  143.5043  152.2570 LP  0  0  0  0  0  0  0  0  0  0  0  0  # atno 17342 bound_to 10162
  139.5981  144.7573  151.3238 LP  0  0  0  0  0  0  0  0  0  0  0  0  # atno 17343 bound_to 10162
  156.1644  130.6395  151.0759 LP  0  0  0  0  0  0  0  0  0  0  0  0  # atno 17370 bound_to 10713
  157.6926  131.0805  150.7062 LP  0  0  0  0  0  0  0  0  0  0  0  0  # atno 17371 bound_to 10713
  139.9914  135.0063  156.9983 LP  0  0  0  0  0  0  0  0  0  0  0  0  # atno 17394 bound_to 11000
  140.4930  134.1174  155.7236 LP  0  0  0  0  0  0  0  0  0  0  0  0  # atno 17395 bound_to 11000

$$$$
