AV-unprocessed.smi:1840|AV-procd|sdf|7494|dock8
  -GOLD-   22720 9193D 1   1.00000     0.00000
 Structure written by MMmdl.
 43 44  0  0  0  0  0  0  0  0  1 V2000
  144.2284  135.4430  153.1512 C   0  0  0  0  0  0  0  0  0  0  0  0
  144.8487  136.3643  152.0921 C   0  0  2  0  0  0  0  0  0  0  0  0
  144.8491  135.7008  150.6990 C   0  0  0  0  0  0  0  0  0  0  0  0
  145.1104  134.2730  150.7610 N   0  0  0  0  0  0  0  0  0  0  0  0
  144.2875  133.2345  150.3792 C   0  0  0  0  0  0  0  0  0  0  0  0
  144.9669  132.0724  150.6081 C   0  0  0  0  0  0  0  0  0  0  0  0
  146.2102  132.5087  151.1450 C   0  0  0  0  0  0  0  0  0  0  0  0
  146.2929  133.8260  151.2367 N   0  0  0  0  0  0  0  0  0  0  0  0
  146.2094  136.7137  152.4997 N   0  0  0  0  0  0  0  0  0  0  0  0
  146.5355  137.5590  153.4886 C   0  0  0  0  0  0  0  0  0  0  0  0
  145.7159  138.1286  154.2096 O   0  0  0  0  0  0  0  0  0  0  0  0
  147.8633  137.7212  153.5827 N   0  0  0  0  0  0  0  0  0  0  0  0
  148.5546  138.5749  154.5486 C   0  0  1  0  0  0  0  0  0  0  0  0
  149.9874  138.0407  154.7441 C   0  0  0  0  0  0  0  0  0  0  0  0
  150.7924  138.9169  155.7146 C   0  0  0  0  0  0  0  0  0  0  0  0
  150.8160  140.3777  155.2452 C   0  0  0  0  0  0  0  0  0  0  0  0
  149.3908  140.9199  155.0592 C   0  0  0  0  0  0  0  0  0  0  0  0
  148.5681  140.0547  154.0826 C   0  0  2  0  0  0  0  0  0  0  0  0
  147.1561  140.6404  153.9036 C   0  0  0  0  0  0  0  0  0  0  0  0
  143.2010  135.1845  152.8929 H   0  0  0  0  0  0  0  0  0  0  0  0
  144.2097  135.9254  154.1291 H   0  0  0  0  0  0  0  0  0  0  0  0
  144.7905  134.5135  153.2487 H   0  0  0  0  0  0  0  0  0  0  0  0
  144.2304  137.2629  152.0471 H   0  0  0  0  0  0  0  0  0  0  0  0
  143.8972  135.8712  150.1931 H   0  0  0  0  0  0  0  0  0  0  0  0
  145.6187  136.1515  150.0713 H   0  0  0  0  0  0  0  0  0  0  0  0
  143.3016  133.4082  149.9738 H   0  0  0  0  0  0  0  0  0  0  0  0
  144.6278  131.0650  150.4192 H   0  0  0  0  0  0  0  0  0  0  0  0
  147.0511  131.9118  151.4661 H   0  0  0  0  0  0  0  0  0  0  0  0
  146.9601  136.3017  151.9651 H   0  0  0  0  0  0  0  0  0  0  0  0
  148.4465  137.2149  152.9326 H   0  0  0  0  0  0  0  0  0  0  0  0
  148.0499  138.5240  155.5156 H   0  0  0  0  0  0  0  0  0  0  0  0
  149.9567  137.0165  155.1182 H   0  0  0  0  0  0  0  0  0  0  0  0
  150.5026  138.0018  153.7830 H   0  0  0  0  0  0  0  0  0  0  0  0
  150.3536  138.8583  156.7115 H   0  0  0  0  0  0  0  0  0  0  0  0
  151.8108  138.5373  155.8013 H   0  0  0  0  0  0  0  0  0  0  0  0
  151.3564  140.9911  155.9665 H   0  0  0  0  0  0  0  0  0  0  0  0
  151.3623  140.4526  154.3041 H   0  0  0  0  0  0  0  0  0  0  0  0
  148.8891  140.9596  156.0272 H   0  0  0  0  0  0  0  0  0  0  0  0
  149.4397  141.9474  154.6970 H   0  0  0  0  0  0  0  0  0  0  0  0
  149.0617  140.0984  153.1102 H   0  0  0  0  0  0  0  0  0  0  0  0
  146.5770  140.5685  154.8248 H   0  0  0  0  0  0  0  0  0  0  0  0
  146.6044  140.1200  153.1215 H   0  0  0  0  0  0  0  0  0  0  0  0
  147.1994  141.6917  153.6183 H   0  0  0  0  0  0  0  0  0  0  0  0
  1  2  1  0  0  0  0
  1 20  1  0  0  0  0
  1 21  1  0  0  0  0
  1 22  1  0  0  0  0
  2  3  1  0  0  0  0
  2  9  1  0  0  0  0
  2 23  1  0  0  0  0
  3  4  1  0  0  0  0
  3 24  1  0  0  0  0
  3 25  1  0  0  0  0
  4  8  1  0  0  0  0
  4  5  1  0  0  0  0
  5  6  2  0  0  0  0
  5 26  1  0  0  0  0
  6  7  1  0  0  0  0
  6 27  1  0  0  0  0
  7  8  2  0  0  0  0
  7 28  1  0  0  0  0
  9 10  1  0  0  0  0
  9 29  1  0  0  0  0
 10 11  2  0  0  0  0
 10 12  1  0  0  0  0
 12 13  1  0  0  0  0
 12 30  1  0  0  0  0
 13 18  1  0  0  0  0
 13 14  1  0  0  0  0
 13 31  1  0  0  0  0
 14 15  1  0  0  0  0
 14 32  1  0  0  0  0
 14 33  1  0  0  0  0
 15 16  1  0  0  0  0
 15 34  1  0  0  0  0
 15 35  1  0  0  0  0
 16 17  1  0  0  0  0
 16 36  1  0  0  0  0
 16 37  1  0  0  0  0
 17 18  1  0  0  0  0
 17 38  1  0  0  0  0
 17 39  1  0  0  0  0
 18 19  1  0  0  0  0
 18 40  1  0  0  0  0
 19 41  1  0  0  0  0
 19 42  1  0  0  0  0
 19 43  1  0  0  0  0
M  END
> <s_m_source_file>
AV-unprocessed.smi

> <i_m_source_file_index>
1840

> <i_lp_mmshare_version>
43012

> <i_f3d_flags>
0

> <s_epik_input>
bjFbY0hdW2NIXVtjSF1uMVtDSDJdW0NAQEhdKFtDSDNdKVtOSF1DKD1PKVtOSF1bQ0BASF0yW0NIMl1bQ0gyXVtDSDJdW0NIMl1bQ0BIXTJbQ0gzXQ==

> <s_epik_cmdline>
J2VwaWtfcHl0aG9uJywgJy1waCcsICc3LjAnLCAnLXRuJywgJzgnLCAnLW1hJywgJzIwMCcsICctbWV0YWxfYmluZGluZycsICctaW1hZScsICc8aW5maWxlLm1hZT4nLCAnLW9tYWUnLCAnPG91dGZpbGUubWFlPic=

> <r_lp_tautomer_probability>
1

> <r_epik_Ionization_Penalty>
7.38659e-05

> <r_epik_Ionization_Penalty_Charging>
0

> <r_epik_Ionization_Penalty_Neutral>
7.38659e-05

> <r_epik_State_Penalty>
-0

> <r_epik_Charging_Adjusted_Penalty>
0

> <i_epik_Tot_Q>
0

> <i_epik_Tot_abs_Q>
0

> <r_epik_Metal_State_Penalty>
-0

> <b_epik_Metal_Only>
0

> <s_lp_Force_Field>
OPLS_2005

> <r_lp_Energy>
7.66905

> <b_lp_Chiralities_Consistent>
1

> <s_lp_Variant>
AV-unprocessed.smi:1840-7

> <Gold.Version>
5.8.1

> <Gold.Id.Protein>
6NUR|6NUR_protein|mol2

> <Gold.PLP.Fitness>
41.0784

> <Gold.PLP.PLP>
-31.0021

> <Gold.PLP.part.hbond>
-2.0000

> <Gold.PLP.part.metal>
0.0000

> <Gold.PLP.part.buried>
-2.3853

> <Gold.PLP.part.nonpolar>
-27.3134

> <Gold.PLP.part.repulsive>
0.3401

> <Gold.PLP.ligand.clash>
0.0000

> <Gold.PLP.ligand.torsion>
0.7674

> <Gold.PLP.Chemscore.Hbond>
1.8640

> <Gold.PLP.Chemscore.CHOScore>
1.9990

> <Gold.PLP.Chemscore.Metal>
0.0000

> <Gold.Chemscore.Hbonds>
donor molecule, donor type, donor heavy atom, donor atom, acceptor molecule, acceptor atom, score
      L1  H     9    29       P1  7948  0.86
      L1  H    12    30       P1  7948  1.00
      L1  C     5    26       P1 10186  0.97
      L1  C     7    28       P1 10747  1.00

> <Gold.PLP.Chemscore.Internal.Correction>
0.0220

> <Gold.Rescore>
     Score         DG    S(hbond)    S(metal)    S(lipo)     H(rot)  DE(clash)    DE(int)     intcor
     16.47     -17.27       1.91        0.00      80.32       1.56       0.01       0.79       ----

> <Gold.Chemscore.Fitness>
16.4705

> <Gold.Chemscore.DG>
-17.2732

> <Gold.Chemscore.ZeroCoef>
-5.4800

> <Gold.Chemscore.Hbond>
1.9110

> <Gold.Chemscore.Metal>
0.0000

> <Gold.Chemscore.Lipo>
80.3238

> <Gold.Chemscore.Internal_Hbond>
0.0000

> <Gold.Chemscore.DEClash>
0.0127

> <Gold.Chemscore.DEInternal>
0.7900

> <Gold.Chemscore.Rot>
1.5576

> <Gold.Chemscore.Internal.Correction>
   9.000000E+99

> <Gold.Chemscore.Hbonds>
donor molecule, donor type, donor heavy atom, donor atom, acceptor molecule, acceptor atom, score
      L1  H     9    29       P1  7948  0.83
      L1  H    12    30       P1  7948  0.93

> <Gold.Chemscore.Hbond.Weighted>
-6.3828

> <Gold.Chemscore.Metal.Weighted>
-0.0000

> <Gold.Chemscore.Lipo.Weighted>
-9.3979

> <Gold.Chemscore.Internal_Hbond.Weighted>
0.0000

> <Gold.Chemscore.DEClash.Weighted>
0.0127

> <Gold.Chemscore.DEInternal.Weighted>
0.7900

> <Gold.Chemscore.Rot.Weighted>
3.9875

> <Gold.Chemscore.Internal.Correction.Weighted>
   9.000000E+99

> <Gold.Protein.RotatedTorsions>
[ 6907 6896 6895 6894 ] final   97.18 input  -60.11 | X-H torsion
[ 7974 7965 7964 7962 ] final   40.90 input  175.53 | X-H torsion
[ 8008 7997 7996 7995 ] final  143.34 input   59.86 | X-H torsion
[ 10167 10162 10161 10158 ] final -130.91 input  -65.29 | X-H torsion
[ 10718 10713 10712 10709 ] final   45.62 input   66.30 | X-H torsion
[ 10763 10752 10751 10750 ] final  107.25 input  -60.55 | X-H torsion
[ 11005 11000 10999 10996 ] final  -14.36 input  -57.11 | X-H torsion

> <Gold.Protein.ActiveResidues>
 VAL166  LYS551  ARG553  GLY616  TRP617  ASP618  TYR619  PRO620  LYS621  CYS622 
 ASP623  PHE694  ASN695  SER759  ASP760  ASP761  ALA762  ILE779  LEU786  VAL792 
 PHE793  MET794  SER795  GLU796  ALA797  LYS798  CYS799  TRP800  GLU811  SER814 

> <Gold.Protein.RotatedAtoms>
  152.5426  134.0773  159.8219 H   0  0  0  0  0  0  0  0  0  0  0  0  # atno 6907 bound_to 6896
  151.0879  133.5331  159.2624 H   0  0  0  0  0  0  0  0  0  0  0  0  # atno 6908 bound_to 6896
  151.2133  135.0498  159.8974 H   0  0  0  0  0  0  0  0  0  0  0  0  # atno 6909 bound_to 6896
  146.0868  139.5479  142.9502 H   0  0  0  0  0  0  0  0  0  0  0  0  # atno 7974 bound_to 7965
  156.2932  140.2265  156.4875 H   0  0  0  0  0  0  0  0  0  0  0  0  # atno 8008 bound_to 7997
  154.7800  140.0461  157.1141 H   0  0  0  0  0  0  0  0  0  0  0  0  # atno 8009 bound_to 7997
  154.9770  140.3073  155.4966 H   0  0  0  0  0  0  0  0  0  0  0  0  # atno 8010 bound_to 7997
  139.9244  143.6345  152.2545 H   0  0  0  0  0  0  0  0  0  0  0  0  # atno 10167 bound_to 10162
  157.4395  130.8072  149.7680 H   0  0  0  0  0  0  0  0  0  0  0  0  # atno 10718 bound_to 10713
  153.4041  135.3850  155.2007 H   0  0  0  0  0  0  0  0  0  0  0  0  # atno 10763 bound_to 10752
  154.8732  135.3778  154.4582 H   0  0  0  0  0  0  0  0  0  0  0  0  # atno 10764 bound_to 10752
  153.5083  135.7087  153.5856 H   0  0  0  0  0  0  0  0  0  0  0  0  # atno 10765 bound_to 10752
  140.7856  133.8328  155.9332 H   0  0  0  0  0  0  0  0  0  0  0  0  # atno 11005 bound_to 11000
  145.6115  141.0338  143.1964 LP  0  0  0  0  0  0  0  0  0  0  0  0  # atno 17320 bound_to 7965
  144.7331  139.7666  143.7339 LP  0  0  0  0  0  0  0  0  0  0  0  0  # atno 17321 bound_to 7965
  139.6835  144.7653  151.1566 LP  0  0  0  0  0  0  0  0  0  0  0  0  # atno 17342 bound_to 10162
  140.7654  143.5691  150.9015 LP  0  0  0  0  0  0  0  0  0  0  0  0  # atno 17343 bound_to 10162
  155.9943  130.3919  150.2864 LP  0  0  0  0  0  0  0  0  0  0  0  0  # atno 17370 bound_to 10713
  157.1028  131.0200  151.3079 LP  0  0  0  0  0  0  0  0  0  0  0  0  # atno 17371 bound_to 10713
  140.9440  134.1864  157.4777 LP  0  0  0  0  0  0  0  0  0  0  0  0  # atno 17394 bound_to 11000
  139.8737  134.9883  156.5406 LP  0  0  0  0  0  0  0  0  0  0  0  0  # atno 17395 bound_to 11000

$$$$
