AV-unprocessed.smi:3223|AV-procd|sdf|12308|dock5
  -GOLD-   2272018153D 1   1.00000     0.00000
 Structure written by MMmdl.
 43 43  0  0  0  0  0  0  0  0  2 V2000
  151.6217  142.3950  158.5816 C   0  0  0  0  0  0  0  0  0  0  0  0
  151.3954  141.4728  157.4186 C   0  0  0  0  0  0  0  0  0  0  0  0
  150.8867  141.8010  156.1297 C   0  0  0  0  0  0  0  0  0  0  0  0
  150.8122  140.7532  155.3248 N   0  0  0  0  0  0  0  0  0  0  0  0
  151.2686  139.7237  156.0692 N   0  0  0  0  0  0  0  0  0  0  0  0
  151.3414  138.3934  155.4936 C   0  0  0  0  0  0  0  0  0  0  0  0
  149.9612  137.8457  155.0733 C   0  0  1  0  0  0  0  0  0  0  0  0
  149.2937  138.7809  154.0563 C   0  0  0  0  0  0  0  0  0  0  0  0
  150.0774  136.4901  154.4884 N   0  3  0  0  0  0  0  0  0  0  0  0
  149.3749  135.4242  155.2327 C   0  0  0  0  0  0  0  0  0  0  0  0
  149.4172  134.0970  154.4586 C   0  0  0  0  0  0  0  0  0  0  0  0
  148.0316  133.6514  153.9848 C   0  0  0  0  0  0  0  0  0  0  0  0
  147.3817  132.8421  154.6466 O   0  0  0  0  0  0  0  0  0  0  0  0
  147.5959  134.1830  152.8316 N   0  0  0  0  0  0  0  0  0  0  0  0
  146.3105  133.8993  152.1994 C   0  0  0  0  0  0  0  0  0  0  0  0
  146.2002  132.4049  151.8593 C   0  0  0  0  0  0  0  0  0  0  0  0
  146.1502  134.7777  150.9517 C   0  0  0  0  0  0  0  0  0  0  0  0
  151.6256  140.1288  157.3374 C   0  0  0  0  0  0  0  0  0  0  0  0
  150.9412  143.2465  158.5609 H   0  0  0  0  0  0  0  0  0  0  0  0
  152.6360  142.7942  158.5850 H   0  0  0  0  0  0  0  0  0  0  0  0
  151.4718  141.8883  159.5351 H   0  0  0  0  0  0  0  0  0  0  0  0
  150.5727  142.7651  155.7576 H   0  0  0  0  0  0  0  0  0  0  0  0
  152.0018  138.4438  154.6267 H   0  0  0  0  0  0  0  0  0  0  0  0
  151.8213  137.7218  156.2078 H   0  0  0  0  0  0  0  0  0  0  0  0
  149.3125  137.8066  155.9503 H   0  0  0  0  0  0  0  0  0  0  0  0
  149.1635  139.7816  154.4694 H   0  0  0  0  0  0  0  0  0  0  0  0
  148.3067  138.4134  153.7731 H   0  0  0  0  0  0  0  0  0  0  0  0
  149.8894  138.8714  153.1471 H   0  0  0  0  0  0  0  0  0  0  0  0
  149.6894  136.5171  153.5565 H   0  0  0  0  0  0  0  0  0  0  0  0
  149.8328  135.3056  156.2151 H   0  0  0  0  0  0  0  0  0  0  0  0
  148.3401  135.7282  155.3971 H   0  0  0  0  0  0  0  0  0  0  0  0
  150.0877  134.1898  153.6025 H   0  0  0  0  0  0  0  0  0  0  0  0
  149.8259  133.3093  155.0929 H   0  0  0  0  0  0  0  0  0  0  0  0
  148.1998  134.8358  152.3531 H   0  0  0  0  0  0  0  0  0  0  0  0
  145.5064  134.1581  152.8905 H   0  0  0  0  0  0  0  0  0  0  0  0
  145.2388  132.1789  151.3972 H   0  0  0  0  0  0  0  0  0  0  0  0
  146.2860  131.7873  152.7539 H   0  0  0  0  0  0  0  0  0  0  0  0
  146.9827  132.0966  151.1650 H   0  0  0  0  0  0  0  0  0  0  0  0
  145.1837  134.6086  150.4760 H   0  0  0  0  0  0  0  0  0  0  0  0
  146.9252  134.5672  150.2138 H   0  0  0  0  0  0  0  0  0  0  0  0
  146.2098  135.8366  151.2059 H   0  0  0  0  0  0  0  0  0  0  0  0
  152.0133  139.4350  158.0691 H   0  0  0  0  0  0  0  0  0  0  0  0
  151.0576  136.2541  154.4210 H   0  0  0  0  0  0  0  0  0  0  0  0
  1  2  1  0  0  0  0
  1 19  1  0  0  0  0
  1 20  1  0  0  0  0
  1 21  1  0  0  0  0
  2 18  2  0  0  0  0
  2  3  1  0  0  0  0
  3  4  2  0  0  0  0
  3 22  1  0  0  0  0
  4  5  1  0  0  0  0
  5  6  1  0  0  0  0
  5 18  1  0  0  0  0
  6  7  1  0  0  0  0
  6 23  1  0  0  0  0
  6 24  1  0  0  0  0
  7  8  1  0  0  0  0
  7  9  1  0  0  0  0
  7 25  1  0  0  0  0
  8 26  1  0  0  0  0
  8 27  1  0  0  0  0
  8 28  1  0  0  0  0
  9 10  1  0  0  0  0
  9 29  1  0  0  0  0
  9 43  1  0  0  0  0
 10 11  1  0  0  0  0
 10 30  1  0  0  0  0
 10 31  1  0  0  0  0
 11 12  1  0  0  0  0
 11 32  1  0  0  0  0
 11 33  1  0  0  0  0
 12 13  2  0  0  0  0
 12 14  1  0  0  0  0
 14 15  1  0  0  0  0
 14 34  1  0  0  0  0
 15 16  1  0  0  0  0
 15 17  1  0  0  0  0
 15 35  1  0  0  0  0
 16 36  1  0  0  0  0
 16 37  1  0  0  0  0
 16 38  1  0  0  0  0
 17 39  1  0  0  0  0
 17 40  1  0  0  0  0
 17 41  1  0  0  0  0
 18 42  1  0  0  0  0
M  CHG  1   9   1
M  END
> <s_m_source_file>
AV-unprocessed.smi

> <i_m_source_file_index>
3223

> <i_lp_mmshare_version>
43012

> <i_f3d_flags>
0

> <s_epik_input>
W0NIM11jMVtjSF1ubihbY0hdMSlbQ0gyXVtDQEhdKFtDSDNdKVtOSF1bQ0gyXVtDSDJdQyg9TylbTkhdW0NIXShbQ0gzXSlbQ0gzXQ==

> <s_epik_cmdline>
J2VwaWtfcHl0aG9uJywgJy1waCcsICc3LjAnLCAnLXRuJywgJzgnLCAnLW1hJywgJzIwMCcsICctbWV0YWxfYmluZGluZycsICctaW1hZScsICc8aW5maWxlLm1hZT4nLCAnLW9tYWUnLCAnPG91dGZpbGUubWFlPic=

> <r_lp_tautomer_probability>
1

> <r_epik_Ionization_Penalty>
0.0057861

> <r_epik_Ionization_Penalty_Charging>
0.00577767

> <r_epik_Ionization_Penalty_Neutral>
8.4224e-06

> <r_epik_State_Penalty>
0.00424195

> <r_epik_Charging_Adjusted_Penalty>
0.0100196

> <i_epik_Tot_Q>
1

> <i_epik_Tot_abs_Q>
1

> <r_epik_Metal_State_Penalty>
-0

> <b_epik_Metal_Only>
0

> <s_lp_Force_Field>
OPLS_2005

> <r_lp_Energy>
5.87618

> <b_lp_Chiralities_Consistent>
1

> <s_lp_Variant>
AV-unprocessed.smi:3223-2

> <Gold.Version>
5.8.1

> <Gold.Id.Protein>
6NUR|6NUR_protein|mol2

> <Gold.PLP.Fitness>
44.1724

> <Gold.PLP.PLP>
-32.4473

> <Gold.PLP.part.hbond>
-3.8932

> <Gold.PLP.part.metal>
0.0000

> <Gold.PLP.part.buried>
-4.0981

> <Gold.PLP.part.nonpolar>
-24.7457

> <Gold.PLP.part.repulsive>
0.1488

> <Gold.PLP.ligand.clash>
0.0000

> <Gold.PLP.ligand.torsion>
1.4730

> <Gold.PLP.Chemscore.Hbond>
3.8320

> <Gold.PLP.Chemscore.CHOScore>
1.0000

> <Gold.PLP.Chemscore.Metal>
0.0000

> <Gold.Chemscore.Hbonds>
donor molecule, donor type, donor heavy atom, donor atom, acceptor molecule, acceptor atom, score
      L1  H     9    29       P1  7948  2.00
      L1  H    14    34       P1  7948  1.00
      P1  H  7989  7998       L1     4  0.85
      L1  C     3    22       P1  8028  0.88

> <Gold.PLP.Chemscore.Internal.Correction>
0.1750

> <Gold.Rescore>
     Score         DG    S(hbond)    S(metal)    S(lipo)     H(rot)  DE(clash)    DE(int)     intcor
     13.30     -16.65       2.61        0.00      68.87       2.19       0.38       2.97       ----

> <Gold.Chemscore.Fitness>
13.2990

> <Gold.Chemscore.DG>
-16.6500

> <Gold.Chemscore.ZeroCoef>
-5.4800

> <Gold.Chemscore.Hbond>
2.6064

> <Gold.Chemscore.Metal>
0.0000

> <Gold.Chemscore.Lipo>
68.8729

> <Gold.Chemscore.Internal_Hbond>
0.0000

> <Gold.Chemscore.DEClash>
0.3847

> <Gold.Chemscore.DEInternal>
2.9663

> <Gold.Chemscore.Rot>
2.1850

> <Gold.Chemscore.Internal.Correction>
   9.000000E+99

> <Gold.Chemscore.Hbonds>
donor molecule, donor type, donor heavy atom, donor atom, acceptor molecule, acceptor atom, score
      L1  H     9    29       P1  7948  0.50
      L1  H    14    34       P1  7948  0.44
      P1  H  7989  7998       L1     4  0.69

> <Gold.Chemscore.Hbond.Weighted>
-8.7054

> <Gold.Chemscore.Metal.Weighted>
-0.0000

> <Gold.Chemscore.Lipo.Weighted>
-8.0581

> <Gold.Chemscore.Internal_Hbond.Weighted>
0.0000

> <Gold.Chemscore.DEClash.Weighted>
0.3847

> <Gold.Chemscore.DEInternal.Weighted>
2.9663

> <Gold.Chemscore.Rot.Weighted>
5.5936

> <Gold.Chemscore.Internal.Correction.Weighted>
   9.000000E+99

> <Gold.Protein.RotatedTorsions>
[ 6907 6896 6895 6894 ] final  149.60 input  -60.11 | X-H torsion
[ 7974 7965 7964 7962 ] final  -36.39 input  175.53 | X-H torsion
[ 8008 7997 7996 7995 ] final   32.93 input   59.86 | X-H torsion
[ 10167 10162 10161 10158 ] final  142.06 input  -65.29 | X-H torsion
[ 10718 10713 10712 10709 ] final -124.66 input   66.30 | X-H torsion
[ 10763 10752 10751 10750 ] final -134.80 input  -60.55 | X-H torsion
[ 11005 11000 10999 10996 ] final  114.88 input  -57.11 | X-H torsion

> <Gold.Protein.ActiveResidues>
 VAL166  LYS551  ARG553  GLY616  TRP617  ASP618  TYR619  PRO620  LYS621  CYS622 
 ASP623  PHE694  ASN695  SER759  ASP760  ASP761  ALA762  ILE779  LEU786  VAL792 
 PHE793  MET794  SER795  GLU796  ALA797  LYS798  CYS799  TRP800  GLU811  SER814 

> <Gold.Protein.RotatedAtoms>
  152.1259  133.4379  159.4697 H   0  0  0  0  0  0  0  0  0  0  0  0  # atno 6907 bound_to 6896
  150.6875  134.2479  159.4508 H   0  0  0  0  0  0  0  0  0  0  0  0  # atno 6908 bound_to 6896
  152.0359  134.9739  160.0624 H   0  0  0  0  0  0  0  0  0  0  0  0  # atno 6909 bound_to 6896
  146.0665  140.6273  142.8972 H   0  0  0  0  0  0  0  0  0  0  0  0  # atno 7974 bound_to 7965
  155.1304  140.3256  155.4475 H   0  0  0  0  0  0  0  0  0  0  0  0  # atno 8008 bound_to 7997
  156.2636  140.2011  156.6372 H   0  0  0  0  0  0  0  0  0  0  0  0  # atno 8009 bound_to 7997
  154.6617  140.0546  157.0056 H   0  0  0  0  0  0  0  0  0  0  0  0  # atno 8010 bound_to 7997
  139.5004  144.6132  151.6225 H   0  0  0  0  0  0  0  0  0  0  0  0  # atno 10167 bound_to 10162
  156.1607  130.6600  151.0046 H   0  0  0  0  0  0  0  0  0  0  0  0  # atno 10718 bound_to 10713
  154.8713  135.3723  154.4794 H   0  0  0  0  0  0  0  0  0  0  0  0  # atno 10763 bound_to 10752
  153.5449  135.7026  153.5624 H   0  0  0  0  0  0  0  0  0  0  0  0  # atno 10764 bound_to 10752
  153.3769  135.4007  155.1793 H   0  0  0  0  0  0  0  0  0  0  0  0  # atno 10765 bound_to 10752
  139.8993  134.9575  156.6959 H   0  0  0  0  0  0  0  0  0  0  0  0  # atno 11005 bound_to 11000
  144.7205  140.4359  143.7011 LP  0  0  0  0  0  0  0  0  0  0  0  0  # atno 17320 bound_to 7965
  145.6468  139.1558  143.2885 LP  0  0  0  0  0  0  0  0  0  0  0  0  # atno 17321 bound_to 7965
  140.5812  143.9942  150.6269 LP  0  0  0  0  0  0  0  0  0  0  0  0  # atno 17342 bound_to 10162
  140.3092  143.3209  152.0895 LP  0  0  0  0  0  0  0  0  0  0  0  0  # atno 17343 bound_to 10162
  157.6730  131.0857  150.7564 LP  0  0  0  0  0  0  0  0  0  0  0  0  # atno 17370 bound_to 10713
  156.7627  130.4804  149.5433 LP  0  0  0  0  0  0  0  0  0  0  0  0  # atno 17371 bound_to 10713
  140.7188  133.9159  155.8133 LP  0  0  0  0  0  0  0  0  0  0  0  0  # atno 17394 bound_to 11000
  141.0243  134.0845  157.4086 LP  0  0  0  0  0  0  0  0  0  0  0  0  # atno 17395 bound_to 11000

$$$$
