AV-unprocessed.smi:72|AV-procd|sdf|692|dock9
  -GOLD-   2262017 03D 1   1.00000     0.00000
 Structure written by MMmdl.
 29 30  0  0  0  0  0  0  0  0  1 V2000
  146.7950  142.1125  153.6756 N   0  0  0  0  0  0  0  0  0  0  0  0
  147.7227  141.2799  153.9862 C   0  0  0  0  0  0  0  0  0  0  0  0
  147.7433  139.9210  153.6401 N   0  0  0  0  0  0  0  0  0  0  0  0
  148.7564  139.1998  154.0101 C   0  0  0  0  0  0  0  0  0  0  0  0
  149.8790  139.7578  154.7548 N   0  0  0  0  0  0  0  0  0  0  0  0
  151.0667  138.9221  155.2050 C   0  0  1  0  0  0  0  0  0  0  0  0
  151.1888  138.9769  156.5980 O   0  0  0  0  0  0  0  0  0  0  0  0
  150.5993  137.8180  157.1805 C   0  0  2  0  0  0  0  0  0  0  0  0
  151.0699  137.6200  158.6315 C   0  0  0  0  0  0  0  0  0  0  0  0
  150.2409  136.6796  159.2799 O   0  0  0  0  0  0  0  0  0  0  0  0
  151.0111  136.7251  156.1900 C   0  0  2  0  0  0  0  0  0  0  0  0
  152.3424  136.3051  156.4423 O   0  0  0  0  0  0  0  0  0  0  0  0
  150.8631  137.4336  154.8436 C   0  0  2  0  0  0  0  0  0  0  0  0
  151.7816  136.9575  153.8777 O   0  0  0  0  0  0  0  0  0  0  0  0
  149.8498  141.1205  155.1438 C   0  0  0  0  0  0  0  0  0  0  0  0
  150.7482  141.6346  155.8101 O   0  0  0  0  0  0  0  0  0  0  0  0
  148.7736  141.8248  154.7334 N   0  0  0  0  0  0  0  0  0  0  0  0
  151.9387  139.3874  154.7418 H   0  0  0  0  0  0  0  0  0  0  0  0
  149.5116  137.9079  157.1517 H   0  0  0  0  0  0  0  0  0  0  0  0
  150.3615  135.8517  156.2572 H   0  0  0  0  0  0  0  0  0  0  0  0
  149.8471  137.2863  154.4736 H   0  0  0  0  0  0  0  0  0  0  0  0
  146.0766  141.6463  153.1400 H   0  0  0  0  0  0  0  0  0  0  0  0
  148.8205  138.1359  153.7828 H   0  0  0  0  0  0  0  0  0  0  0  0
  152.0862  137.2253  158.6457 H   0  0  0  0  0  0  0  0  0  0  0  0
  151.0766  138.5606  159.1832 H   0  0  0  0  0  0  0  0  0  0  0  0
  149.7447  137.1295  159.9468 H   0  0  0  0  0  0  0  0  0  0  0  0
  152.3552  135.8431  157.2667 H   0  0  0  0  0  0  0  0  0  0  0  0
  151.3162  136.8206  153.0660 H   0  0  0  0  0  0  0  0  0  0  0  0
  148.7272  142.8009  154.9872 H   0  0  0  0  0  0  0  0  0  0  0  0
  1  2  2  0  0  0  0
  1 22  1  0  0  0  0
  2 17  1  0  0  0  0
  2  3  1  0  0  0  0
  3  4  2  0  0  0  0
  4  5  1  0  0  0  0
  4 23  1  0  0  0  0
  5  6  1  0  0  0  0
  5 15  1  0  0  0  0
  6 18  1  0  0  0  0
  6 13  1  0  0  0  0
  6  7  1  0  0  0  0
  7  8  1  0  0  0  0
  8 19  1  0  0  0  0
  8  9  1  0  0  0  0
  8 11  1  0  0  0  0
  9 10  1  0  0  0  0
  9 24  1  0  0  0  0
  9 25  1  0  0  0  0
 10 26  1  0  0  0  0
 11 20  1  0  0  0  0
 11 12  1  0  0  0  0
 11 13  1  0  0  0  0
 12 27  1  0  0  0  0
 13 21  1  0  0  0  0
 13 14  1  0  0  0  0
 14 28  1  0  0  0  0
 15 16  2  0  0  0  0
 15 17  1  0  0  0  0
 17 29  1  0  0  0  0
M  END
> <s_m_source_file>
AV-unprocessed.smi

> <i_m_source_file_index>
72

> <i_lp_mmshare_version>
43012

> <i_f3d_flags>
0

> <s_epik_input>
W05IMl1jMW5bY0hdbihjKD1PKW4xKVtDQEBIXTJPW0NASF0oW0NIMl1bT0hdKVtDQEBIXShbT0hdKVtDQEhdMltPSF0=

> <s_epik_cmdline>
J2VwaWtfcHl0aG9uJywgJy1waCcsICc3LjAnLCAnLXRuJywgJzgnLCAnLW1hJywgJzIwMCcsICctbWV0YWxfYmluZGluZycsICctaW1hZScsICc8aW5maWxlLm1hZT4nLCAnLW9tYWUnLCAnPG91dGZpbGUubWFlPic=

> <r_lp_tautomer_probability>
7.17554e-07

> <r_epik_Ionization_Penalty>
0.0066451

> <r_epik_Ionization_Penalty_Charging>
0.00663793

> <r_epik_Ionization_Penalty_Neutral>
7.17052e-06

> <r_epik_State_Penalty>
0.419231

> <r_epik_Charging_Adjusted_Penalty>
0.425868

> <i_epik_Tot_Q>
0

> <i_epik_Tot_abs_Q>
0

> <r_epik_Metal_State_Penalty>
1.44144

> <b_epik_Metal_Only>
0

> <s_epik_Chemistry_Notes>
This compound contains an acetal/aminal-like group ( X-CH(R)-Y where X, Y are N, S, or O) that may be acid/base labile, releasing an aldehyde.

> <s_lp_Force_Field>
OPLS_2005

> <r_lp_Energy>
42.1685

> <b_lp_Chiralities_Consistent>
1

> <s_lp_Variant>
AV-unprocessed.smi:72-30

> <Gold.Version>
5.8.1

> <Gold.Id.Protein>
6NUR|6NUR_protein|mol2

> <Gold.PLP.Fitness>
40.5446

> <Gold.PLP.PLP>
-24.9053

> <Gold.PLP.part.hbond>
-5.0000

> <Gold.PLP.part.metal>
0.0000

> <Gold.PLP.part.buried>
-4.4518

> <Gold.PLP.part.nonpolar>
-16.6344

> <Gold.PLP.part.repulsive>
0.7969

> <Gold.PLP.ligand.clash>
0.0000

> <Gold.PLP.ligand.torsion>
0.1675

> <Gold.PLP.Chemscore.Hbond>
4.6400

> <Gold.PLP.Chemscore.CHOScore>
0.6773

> <Gold.PLP.Chemscore.Metal>
0.0000

> <Gold.Chemscore.Hbonds>
donor molecule, donor type, donor heavy atom, donor atom, acceptor molecule, acceptor atom, score
      L1  H    14    28       P1  7949  0.99
      L1  H    17    29       P1  8028  1.00
      P1  H  6896  6908       L1    10  1.00
      P1  H 10752 10764       L1    14  0.77
      P1  H 10752 10765       L1    12  0.85
      L1  C     4    23       P1  7948  0.60

> <Gold.PLP.Chemscore.Internal.Correction>
0.0223

> <Gold.Rescore>
     Score         DG    S(hbond)    S(metal)    S(lipo)     H(rot)  DE(clash)    DE(int)     intcor
      8.52     -10.05       3.85        0.00      18.07       4.06       0.00       1.53       ----

> <Gold.Chemscore.Fitness>
8.5175

> <Gold.Chemscore.DG>
-10.0511

> <Gold.Chemscore.ZeroCoef>
-5.4800

> <Gold.Chemscore.Hbond>
3.8475

> <Gold.Chemscore.Metal>
0.0000

> <Gold.Chemscore.Lipo>
18.0686

> <Gold.Chemscore.Internal_Hbond>
0.0000

> <Gold.Chemscore.DEClash>
0.0000

> <Gold.Chemscore.DEInternal>
1.5336

> <Gold.Chemscore.Rot>
4.0600

> <Gold.Chemscore.Internal.Correction>
   9.000000E+99

> <Gold.Chemscore.Hbonds>
donor molecule, donor type, donor heavy atom, donor atom, acceptor molecule, acceptor atom, score
      L1  H    14    28       P1  7949  0.70
      L1  H    17    29       P1  8028  0.93
      P1  H  6896  6908       L1    10  0.87
      P1  H 10752 10764       L1    14  0.31
      P1  H 10752 10765       L1    12  0.41

> <Gold.Chemscore.Hbond.Weighted>
-12.8506

> <Gold.Chemscore.Metal.Weighted>
-0.0000

> <Gold.Chemscore.Lipo.Weighted>
-2.1140

> <Gold.Chemscore.Internal_Hbond.Weighted>
0.0000

> <Gold.Chemscore.DEClash.Weighted>
0.0000

> <Gold.Chemscore.DEInternal.Weighted>
1.5336

> <Gold.Chemscore.Rot.Weighted>
10.3936

> <Gold.Chemscore.Internal.Correction.Weighted>
   9.000000E+99

> <Gold.Protein.RotatedTorsions>
[ 6907 6896 6895 6894 ] final -153.55 input  -60.11 | X-H torsion
[ 7974 7965 7964 7962 ] final  141.25 input  175.53 | X-H torsion
[ 8008 7997 7996 7995 ] final  124.70 input   59.86 | X-H torsion
[ 10167 10162 10161 10158 ] final   86.33 input  -65.29 | X-H torsion
[ 10718 10713 10712 10709 ] final   85.00 input   66.30 | X-H torsion
[ 10763 10752 10751 10750 ] final -116.11 input  -60.55 | X-H torsion
[ 11005 11000 10999 10996 ] final -159.34 input  -57.11 | X-H torsion

> <Gold.Protein.ActiveResidues>
 VAL166  LYS551  ARG553  GLY616  TRP617  ASP618  TYR619  PRO620  LYS621  CYS622 
 ASP623  PHE694  ASN695  SER759  ASP760  ASP761  ALA762  ILE779  LEU786  VAL792 
 PHE793  MET794  SER795  GLU796  ALA797  LYS798  CYS799  TRP800  GLU811  SER814 

> <Gold.Protein.RotatedAtoms>
  151.2442  133.4383  159.2608 H   0  0  0  0  0  0  0  0  0  0  0  0  # atno 6907 bound_to 6896
  151.0677  134.9778  159.8303 H   0  0  0  0  0  0  0  0  0  0  0  0  # atno 6908 bound_to 6896
  152.5407  134.2389  159.8907 H   0  0  0  0  0  0  0  0  0  0  0  0  # atno 6909 bound_to 6896
  144.9113  139.5289  143.5707 H   0  0  0  0  0  0  0  0  0  0  0  0  # atno 7974 bound_to 7965
  156.2810  140.2733  156.1830 H   0  0  0  0  0  0  0  0  0  0  0  0  # atno 8008 bound_to 7997
  155.0536  140.0386  157.2570 H   0  0  0  0  0  0  0  0  0  0  0  0  # atno 8009 bound_to 7997
  154.7175  140.2681  155.6578 H   0  0  0  0  0  0  0  0  0  0  0  0  # atno 8010 bound_to 7997
  139.8887  144.6398  150.8763 H   0  0  0  0  0  0  0  0  0  0  0  0  # atno 10167 bound_to 10162
  157.6907  131.0156  150.2756 H   0  0  0  0  0  0  0  0  0  0  0  0  # atno 10718 bound_to 10713
  154.8507  135.4357  154.1769 H   0  0  0  0  0  0  0  0  0  0  0  0  # atno 10763 bound_to 10752
  153.2869  135.6958  153.7336 H   0  0  0  0  0  0  0  0  0  0  0  0  # atno 10764 bound_to 10752
  153.6519  135.3450  155.3077 H   0  0  0  0  0  0  0  0  0  0  0  0  # atno 10765 bound_to 10752
  140.6437  134.4524  157.5234 H   0  0  0  0  0  0  0  0  0  0  0  0  # atno 11005 bound_to 11000
  146.3160  139.7921  142.8983 LP  0  0  0  0  0  0  0  0  0  0  0  0  # atno 17320 bound_to 7965
  145.3450  141.0296  143.3371 LP  0  0  0  0  0  0  0  0  0  0  0  0  # atno 17321 bound_to 7965
  140.7731  143.3527  151.1981 LP  0  0  0  0  0  0  0  0  0  0  0  0  # atno 17342 bound_to 10162
  139.7130  143.9346  152.2955 LP  0  0  0  0  0  0  0  0  0  0  0  0  # atno 17343 bound_to 10162
  156.3311  130.3800  149.7490 LP  0  0  0  0  0  0  0  0  0  0  0  0  # atno 17370 bound_to 10713
  156.5029  130.8137  151.3139 LP  0  0  0  0  0  0  0  0  0  0  0  0  # atno 17371 bound_to 10713
  139.9071  134.8425  156.1666 LP  0  0  0  0  0  0  0  0  0  0  0  0  # atno 17394 bound_to 11000
  141.0588  133.6852  156.1912 LP  0  0  0  0  0  0  0  0  0  0  0  0  # atno 17395 bound_to 11000

$$$$
