AV-unprocessed.smi:2711|AV-procd|sdf|10472|dock2
  -GOLD-   2272014513D 1   1.00000     0.00000
 Structure written by MMmdl.
 34 35  0  0  0  0  0  0  0  0  1 V2000
  155.1361  134.6223  164.6946 C   0  0  0  0  0  0  0  0  0  0  0  0
  154.8562  135.2240  163.3591 C   0  0  0  0  0  0  0  0  0  0  0  0
  154.7913  134.5813  162.1465 C   0  0  0  0  0  0  0  0  0  0  0  0
  154.5091  135.4276  161.0717 N   0  0  0  0  0  0  0  0  0  0  0  0
  154.3590  136.6982  161.4605 C   0  0  0  0  0  0  0  0  0  0  0  0
  154.0676  137.7759  160.5833 N   0  0  0  0  0  0  0  0  0  0  0  0
  154.3735  139.0764  160.7342 C   0  0  0  0  0  0  0  0  0  0  0  0
  154.9749  139.5600  161.6938 O   0  0  0  0  0  0  0  0  0  0  0  0
  153.9399  139.8020  159.6924 N   0  0  0  0  0  0  0  0  0  0  0  0
  154.1341  141.2423  159.5328 C   0  0  0  0  0  0  0  0  0  0  0  0
  153.4119  142.0795  160.6053 C   0  0  0  0  0  0  0  0  0  0  0  0
  153.4480  141.7294  161.7865 O   0  0  0  0  0  0  0  0  0  0  0  0
  152.7651  143.1962  160.2114 N   0  0  0  0  0  0  0  0  0  0  0  0
  152.6816  143.6982  158.8397 C   0  0  0  0  0  0  0  0  0  0  0  0
  151.6988  144.8692  158.8844 C   0  0  0  0  0  0  0  0  0  0  0  0
  151.7554  145.3521  160.3269 C   0  0  0  0  0  0  0  0  0  0  0  0
  152.0633  144.0894  161.1314 C   0  0  0  0  0  0  0  0  0  0  0  0
  154.5585  136.9355  163.1895 S   0  0  0  0  0  0  0  0  0  0  0  0
  155.5403  133.6146  164.5937 H   0  0  0  0  0  0  0  0  0  0  0  0
  154.2246  134.5622  165.2895 H   0  0  0  0  0  0  0  0  0  0  0  0
  155.8612  135.2208  165.2462 H   0  0  0  0  0  0  0  0  0  0  0  0
  154.9329  133.5276  161.9567 H   0  0  0  0  0  0  0  0  0  0  0  0
  153.5742  137.5260  159.7390 H   0  0  0  0  0  0  0  0  0  0  0  0
  153.4600  139.3234  158.9446 H   0  0  0  0  0  0  0  0  0  0  0  0
  155.2034  141.4465  159.5892 H   0  0  0  0  0  0  0  0  0  0  0  0
  153.8060  141.5454  158.5374 H   0  0  0  0  0  0  0  0  0  0  0  0
  153.6679  144.0399  158.5229 H   0  0  0  0  0  0  0  0  0  0  0  0
  152.3413  142.9362  158.1376 H   0  0  0  0  0  0  0  0  0  0  0  0
  151.9412  145.6530  158.1662 H   0  0  0  0  0  0  0  0  0  0  0  0
  150.6934  144.5105  158.6598 H   0  0  0  0  0  0  0  0  0  0  0  0
  152.5730  146.0654  160.4401 H   0  0  0  0  0  0  0  0  0  0  0  0
  150.8361  145.8440  160.6461 H   0  0  0  0  0  0  0  0  0  0  0  0
  151.1408  143.6066  161.4570 H   0  0  0  0  0  0  0  0  0  0  0  0
  152.6565  144.3201  162.0178 H   0  0  0  0  0  0  0  0  0  0  0  0
  1  2  1  0  0  0  0
  1 19  1  0  0  0  0
  1 20  1  0  0  0  0
  1 21  1  0  0  0  0
  2 18  1  0  0  0  0
  2  3  2  0  0  0  0
  3  4  1  0  0  0  0
  3 22  1  0  0  0  0
  4  5  2  0  0  0  0
  5  6  1  0  0  0  0
  5 18  1  0  0  0  0
  6  7  1  0  0  0  0
  6 23  1  0  0  0  0
  7  8  2  0  0  0  0
  7  9  1  0  0  0  0
  9 10  1  0  0  0  0
  9 24  1  0  0  0  0
 10 11  1  0  0  0  0
 10 25  1  0  0  0  0
 10 26  1  0  0  0  0
 11 12  2  0  0  0  0
 11 13  1  0  0  0  0
 13 17  1  0  0  0  0
 13 14  1  0  0  0  0
 14 15  1  0  0  0  0
 14 27  1  0  0  0  0
 14 28  1  0  0  0  0
 15 16  1  0  0  0  0
 15 29  1  0  0  0  0
 15 30  1  0  0  0  0
 16 17  1  0  0  0  0
 16 31  1  0  0  0  0
 16 32  1  0  0  0  0
 17 33  1  0  0  0  0
 17 34  1  0  0  0  0
M  END
> <s_m_source_file>
AV-unprocessed.smi

> <i_m_source_file_index>
2711

> <i_lp_mmshare_version>
43012

> <i_f3d_flags>
0

> <s_epik_input>
W0NIM11jMVtjSF1uYyhzMSlbTkhdQyg9TylbTkhdW0NIMl1DKD1PKU4yW0NIMl1bQ0gyXVtDSDJdW0NIMl0y

> <s_epik_cmdline>
J2VwaWtfcHl0aG9uJywgJy1waCcsICc3LjAnLCAnLXRuJywgJzgnLCAnLW1hJywgJzIwMCcsICctbWV0YWxfYmluZGluZycsICctaW1hZScsICc8aW5maWxlLm1hZT4nLCAnLW9tYWUnLCAnPG91dGZpbGUubWFlPic=

> <r_lp_tautomer_probability>
1

> <r_epik_Ionization_Penalty>
0.000145478

> <r_epik_Ionization_Penalty_Charging>
0

> <r_epik_Ionization_Penalty_Neutral>
0.000145478

> <r_epik_State_Penalty>
-0

> <r_epik_Charging_Adjusted_Penalty>
0

> <i_epik_Tot_Q>
0

> <i_epik_Tot_abs_Q>
0

> <r_epik_Metal_State_Penalty>
0.0331427

> <b_epik_Metal_Only>
0

> <s_lp_Force_Field>
OPLS_2005

> <r_lp_Energy>
22.8553

> <b_lp_Chiralities_Consistent>
1

> <s_lp_Variant>
AV-unprocessed.smi:2711-1

> <Gold.Version>
5.8.1

> <Gold.Id.Protein>
6NUR|6NUR_protein|mol2

> <Gold.PLP.Fitness>
42.5294

> <Gold.PLP.PLP>
-41.5641

> <Gold.PLP.part.hbond>
-0.6176

> <Gold.PLP.part.metal>
0.0000

> <Gold.PLP.part.buried>
-5.6511

> <Gold.PLP.part.nonpolar>
-35.5021

> <Gold.PLP.part.repulsive>
0.1333

> <Gold.PLP.ligand.clash>
0.0000

> <Gold.PLP.ligand.torsion>
0.3960

> <Gold.PLP.Chemscore.Hbond>
0.5850

> <Gold.PLP.Chemscore.CHOScore>
0.0000

> <Gold.PLP.Chemscore.Metal>
0.0000

> <Gold.Chemscore.Hbonds>
donor molecule, donor type, donor heavy atom, donor atom, acceptor molecule, acceptor atom, score
      P1  H  6896  6909       L1     4  0.02

> <Gold.PLP.Chemscore.Internal.Correction>
0.0021

> <Gold.Rescore>
     Score         DG    S(hbond)    S(metal)    S(lipo)     H(rot)  DE(clash)    DE(int)     intcor
     11.86     -14.73       0.83        0.00      84.33       1.32       0.14       2.73       ----

> <Gold.Chemscore.Fitness>
11.8643

> <Gold.Chemscore.DG>
-14.7321

> <Gold.Chemscore.ZeroCoef>
-5.4800

> <Gold.Chemscore.Hbond>
0.8292

> <Gold.Chemscore.Metal>
0.0000

> <Gold.Chemscore.Lipo>
84.3321

> <Gold.Chemscore.Internal_Hbond>
0.0000

> <Gold.Chemscore.DEClash>
0.1425

> <Gold.Chemscore.DEInternal>
2.7253

> <Gold.Chemscore.Rot>
1.3219

> <Gold.Chemscore.Internal.Correction>
   9.000000E+99

> <Gold.Chemscore.Hbonds>
donor molecule, donor type, donor heavy atom, donor atom, acceptor molecule, acceptor atom, score
      P1  H  6896  6909       L1     4  0.04

> <Gold.Chemscore.Hbond.Weighted>
-2.7694

> <Gold.Chemscore.Metal.Weighted>
-0.0000

> <Gold.Chemscore.Lipo.Weighted>
-9.8669

> <Gold.Chemscore.Internal_Hbond.Weighted>
0.0000

> <Gold.Chemscore.DEClash.Weighted>
0.1425

> <Gold.Chemscore.DEInternal.Weighted>
2.7253

> <Gold.Chemscore.Rot.Weighted>
3.3841

> <Gold.Chemscore.Internal.Correction.Weighted>
   9.000000E+99

> <Gold.Protein.RotatedTorsions>
[ 6907 6896 6895 6894 ] final  179.95 input  -60.11 | X-H torsion
[ 7974 7965 7964 7962 ] final -171.59 input  175.53 | X-H torsion
[ 8008 7997 7996 7995 ] final  160.85 input   59.86 | X-H torsion
[ 10167 10162 10161 10158 ] final -139.73 input  -65.29 | X-H torsion
[ 10718 10713 10712 10709 ] final   54.54 input   66.30 | X-H torsion
[ 10763 10752 10751 10750 ] final   52.92 input  -60.55 | X-H torsion
[ 11005 11000 10999 10996 ] final   73.61 input  -57.11 | X-H torsion

> <Gold.Protein.ActiveResidues>
 VAL166  LYS551  ARG553  GLY616  TRP617  ASP618  TYR619  PRO620  LYS621  CYS622 
 ASP623  PHE694  ASN695  SER759  ASP760  ASP761  ALA762  ILE779  LEU786  VAL792 
 PHE793  MET794  SER795  GLU796  ALA797  LYS798  CYS799  TRP800  GLU811  SER814 

> <Gold.Protein.RotatedAtoms>
  151.6634  133.3316  159.3179 H   0  0  0  0  0  0  0  0  0  0  0  0  # atno 6907 bound_to 6896
  150.7903  134.6924  159.6514 H   0  0  0  0  0  0  0  0  0  0  0  0  # atno 6908 bound_to 6896
  152.3981  134.6336  160.0133 H   0  0  0  0  0  0  0  0  0  0  0  0  # atno 6909 bound_to 6896
  144.7155  140.1899  143.6349 H   0  0  0  0  0  0  0  0  0  0  0  0  # atno 7974 bound_to 7965
  156.2144  140.1793  156.7622 H   0  0  0  0  0  0  0  0  0  0  0  0  # atno 8008 bound_to 7997
  154.5770  140.0673  156.9077 H   0  0  0  0  0  0  0  0  0  0  0  0  # atno 8009 bound_to 7997
  155.2571  140.3333  155.4279 H   0  0  0  0  0  0  0  0  0  0  0  0  # atno 8010 bound_to 7997
  139.8351  143.7396  152.2665 H   0  0  0  0  0  0  0  0  0  0  0  0  # atno 10167 bound_to 10162
  157.5266  130.8601  149.8630 H   0  0  0  0  0  0  0  0  0  0  0  0  # atno 10718 bound_to 10713
  152.9791  135.5796  154.4657 H   0  0  0  0  0  0  0  0  0  0  0  0  # atno 10763 bound_to 10752
  154.4226  135.2772  155.1967 H   0  0  0  0  0  0  0  0  0  0  0  0  # atno 10764 bound_to 10752
  154.3709  135.6168  153.5793 H   0  0  0  0  0  0  0  0  0  0  0  0  # atno 10765 bound_to 10752
  139.9431  134.7362  156.1047 H   0  0  0  0  0  0  0  0  0  0  0  0  # atno 11005 bound_to 11000
  145.8778  139.2306  143.1623 LP  0  0  0  0  0  0  0  0  0  0  0  0  # atno 17320 bound_to 7965
  146.0024  140.8508  143.0012 LP  0  0  0  0  0  0  0  0  0  0  0  0  # atno 17321 bound_to 7965
  139.7615  144.7505  151.0356 LP  0  0  0  0  0  0  0  0  0  0  0  0  # atno 17342 bound_to 10162
  140.7803  143.4745  151.0101 LP  0  0  0  0  0  0  0  0  0  0  0  0  # atno 17343 bound_to 10162
  156.0391  130.3743  150.1482 LP  0  0  0  0  0  0  0  0  0  0  0  0  # atno 17370 bound_to 10713
  156.9668  130.9822  151.3467 LP  0  0  0  0  0  0  0  0  0  0  0  0  # atno 17371 bound_to 10713
  141.1073  133.6655  156.2894 LP  0  0  0  0  0  0  0  0  0  0  0  0  # atno 17394 bound_to 11000
  140.5901  134.5659  157.5497 LP  0  0  0  0  0  0  0  0  0  0  0  0  # atno 17395 bound_to 11000

$$$$
