AV-unprocessed.smi:1336|AV-procd|sdf|5497|dock10
  -GOLD-   22720 5 83D 1   1.00000     0.00000
 Structure written by MMmdl.
 43 43  0  0  0  0  0  0  0  0  1 V2000
  156.4252  133.0060  158.6018 C   0  0  0  0  0  0  0  0  0  0  0  0
  155.7248  134.2449  159.1695 C   0  0  0  0  0  0  0  0  0  0  0  0
  155.6834  134.2429  160.7063 C   0  0  0  0  0  0  0  0  0  0  0  0
  154.8704  135.3369  161.2238 N   0  0  0  0  0  0  0  0  0  0  0  0
  154.5835  135.5397  162.5188 C   0  0  0  0  0  0  0  0  0  0  0  0
  154.9760  134.7978  163.4212 O   0  0  0  0  0  0  0  0  0  0  0  0
  153.7027  136.7596  162.8357 C   0  0  1  0  0  0  0  0  0  0  0  0
  153.6454  136.9249  164.3634 C   0  0  0  0  0  0  0  0  0  0  0  0
  154.2809  137.9779  162.2698 N   0  0  0  0  0  0  0  0  0  0  0  0
  154.1069  138.4047  161.0084 C   0  0  0  0  0  0  0  0  0  0  0  0
  153.4191  137.8039  160.1821 O   0  0  0  0  0  0  0  0  0  0  0  0
  154.8219  139.7019  160.6206 C   0  0  0  0  0  0  0  0  0  0  0  0
  153.9575  140.8916  160.9230 C   0  0  0  0  0  0  0  0  0  0  0  0
  153.5316  141.3092  162.1599 C   0  0  0  0  0  0  0  0  0  0  0  0
  152.5399  142.7380  162.0580 S   0  0  0  0  0  0  0  0  0  0  0  0
  152.7474  142.7224  160.3100 C   0  0  0  0  0  0  0  0  0  0  0  0
  152.1306  143.7384  159.4006 C   0  0  0  0  0  0  0  0  0  0  0  0
  153.1472  144.3105  158.4018 C   0  0  0  0  0  0  0  0  0  0  0  0
  151.3739  144.8254  160.1775 C   0  0  0  0  0  0  0  0  0  0  0  0
  153.5083  141.7107  159.8823 N   0  0  0  0  0  0  0  0  0  0  0  0
  156.4439  133.0351  157.5122 H   0  0  0  0  0  0  0  0  0  0  0  0
  155.9116  132.0920  158.9015 H   0  0  0  0  0  0  0  0  0  0  0  0
  157.4561  132.9414  158.9509 H   0  0  0  0  0  0  0  0  0  0  0  0
  156.2380  135.1406  158.8176 H   0  0  0  0  0  0  0  0  0  0  0  0
  154.7110  134.2937  158.7708 H   0  0  0  0  0  0  0  0  0  0  0  0
  155.3078  133.2883  161.0787 H   0  0  0  0  0  0  0  0  0  0  0  0
  156.6920  134.3553  161.1050 H   0  0  0  0  0  0  0  0  0  0  0  0
  154.5065  135.9939  160.5489 H   0  0  0  0  0  0  0  0  0  0  0  0
  152.6937  136.6110  162.4455 H   0  0  0  0  0  0  0  0  0  0  0  0
  153.2096  136.0462  164.8406 H   0  0  0  0  0  0  0  0  0  0  0  0
  153.0295  137.7814  164.6394 H   0  0  0  0  0  0  0  0  0  0  0  0
  154.6362  137.0798  164.7936 H   0  0  0  0  0  0  0  0  0  0  0  0
  154.8700  138.5263  162.8793 H   0  0  0  0  0  0  0  0  0  0  0  0
  155.7726  139.7804  161.1499 H   0  0  0  0  0  0  0  0  0  0  0  0
  155.0653  139.6587  159.5583 H   0  0  0  0  0  0  0  0  0  0  0  0
  153.7373  140.8620  163.1211 H   0  0  0  0  0  0  0  0  0  0  0  0
  151.3839  143.2073  158.8090 H   0  0  0  0  0  0  0  0  0  0  0  0
  153.6056  143.5170  157.8109 H   0  0  0  0  0  0  0  0  0  0  0  0
  153.9458  144.8485  158.9137 H   0  0  0  0  0  0  0  0  0  0  0  0
  152.6699  145.0043  157.7096 H   0  0  0  0  0  0  0  0  0  0  0  0
  150.6022  144.3889  160.8122 H   0  0  0  0  0  0  0  0  0  0  0  0
  150.8863  145.5257  159.4988 H   0  0  0  0  0  0  0  0  0  0  0  0
  152.0473  145.3975  160.8163 H   0  0  0  0  0  0  0  0  0  0  0  0
  1  2  1  0  0  0  0
  1 21  1  0  0  0  0
  1 22  1  0  0  0  0
  1 23  1  0  0  0  0
  2  3  1  0  0  0  0
  2 24  1  0  0  0  0
  2 25  1  0  0  0  0
  3  4  1  0  0  0  0
  3 26  1  0  0  0  0
  3 27  1  0  0  0  0
  4  5  1  0  0  0  0
  4 28  1  0  0  0  0
  5  6  2  0  0  0  0
  5  7  1  0  0  0  0
  7  8  1  0  0  0  0
  7  9  1  0  0  0  0
  7 29  1  0  0  0  0
  8 30  1  0  0  0  0
  8 31  1  0  0  0  0
  8 32  1  0  0  0  0
  9 10  1  0  0  0  0
  9 33  1  0  0  0  0
 10 11  2  0  0  0  0
 10 12  1  0  0  0  0
 12 13  1  0  0  0  0
 12 34  1  0  0  0  0
 12 35  1  0  0  0  0
 13 20  1  0  0  0  0
 13 14  2  0  0  0  0
 14 15  1  0  0  0  0
 14 36  1  0  0  0  0
 15 16  1  0  0  0  0
 16 17  1  0  0  0  0
 16 20  2  0  0  0  0
 17 18  1  0  0  0  0
 17 19  1  0  0  0  0
 17 37  1  0  0  0  0
 18 38  1  0  0  0  0
 18 39  1  0  0  0  0
 18 40  1  0  0  0  0
 19 41  1  0  0  0  0
 19 42  1  0  0  0  0
 19 43  1  0  0  0  0
M  END
> <s_m_source_file>
AV-unprocessed.smi

> <i_m_source_file_index>
1336

> <i_lp_mmshare_version>
43012

> <i_f3d_flags>
0

> <s_epik_input>
W0NIM11bQ0gyXVtDSDJdW05IXUMoPU8pW0NASF0oW0NIM10pW05IXUMoPU8pW0NIMl1jMVtjSF1zYyhuMSlbQ0hdKFtDSDNdKVtDSDNd

> <s_epik_cmdline>
J2VwaWtfcHl0aG9uJywgJy1waCcsICc3LjAnLCAnLXRuJywgJzgnLCAnLW1hJywgJzIwMCcsICctbWV0YWxfYmluZGluZycsICctaW1hZScsICc8aW5maWxlLm1hZT4nLCAnLW9tYWUnLCAnPG91dGZpbGUubWFlPic=

> <r_lp_tautomer_probability>
1

> <r_epik_Ionization_Penalty>
3.10785e-05

> <r_epik_Ionization_Penalty_Charging>
0

> <r_epik_Ionization_Penalty_Neutral>
3.10785e-05

> <r_epik_State_Penalty>
-0

> <r_epik_Charging_Adjusted_Penalty>
0

> <i_epik_Tot_Q>
0

> <i_epik_Tot_abs_Q>
0

> <r_epik_Metal_State_Penalty>
-0

> <b_epik_Metal_Only>
0

> <s_lp_Force_Field>
OPLS_2005

> <r_lp_Energy>
-5.85781

> <b_lp_Chiralities_Consistent>
1

> <s_lp_Variant>
AV-unprocessed.smi:1336-2

> <Gold.Version>
5.8.1

> <Gold.Id.Protein>
6NUR|6NUR_protein|mol2

> <Gold.PLP.Fitness>
42.4643

> <Gold.PLP.PLP>
-44.2672

> <Gold.PLP.part.hbond>
0.0000

> <Gold.PLP.part.metal>
0.0000

> <Gold.PLP.part.buried>
-6.2110

> <Gold.PLP.part.nonpolar>
-37.9346

> <Gold.PLP.part.repulsive>
0.0947

> <Gold.PLP.ligand.clash>
0.0000

> <Gold.PLP.ligand.torsion>
0.9736

> <Gold.PLP.Chemscore.Hbond>
0.0000

> <Gold.PLP.Chemscore.CHOScore>
0.0000

> <Gold.PLP.Chemscore.Metal>
0.0000

> <Gold.PLP.Chemscore.Internal.Correction>
0.1443

> <Gold.Rescore>
     Score         DG    S(hbond)    S(metal)    S(lipo)     H(rot)  DE(clash)    DE(int)     intcor
     12.85     -13.68       0.00        0.00     114.66       2.04       0.00       0.83       ----

> <Gold.Chemscore.Fitness>
12.8522

> <Gold.Chemscore.DG>
-13.6850

> <Gold.Chemscore.ZeroCoef>
-5.4800

> <Gold.Chemscore.Hbond>
0.0000

> <Gold.Chemscore.Metal>
0.0000

> <Gold.Chemscore.Lipo>
114.6614

> <Gold.Chemscore.Internal_Hbond>
0.0000

> <Gold.Chemscore.DEClash>
0.0029

> <Gold.Chemscore.DEInternal>
0.8299

> <Gold.Chemscore.Rot>
2.0353

> <Gold.Chemscore.Internal.Correction>
   9.000000E+99

> <Gold.Chemscore.Hbond.Weighted>
-0.0000

> <Gold.Chemscore.Metal.Weighted>
-0.0000

> <Gold.Chemscore.Lipo.Weighted>
-13.4154

> <Gold.Chemscore.Internal_Hbond.Weighted>
0.0000

> <Gold.Chemscore.DEClash.Weighted>
0.0029

> <Gold.Chemscore.DEInternal.Weighted>
0.8299

> <Gold.Chemscore.Rot.Weighted>
5.2104

> <Gold.Chemscore.Internal.Correction.Weighted>
   9.000000E+99

> <Gold.Protein.RotatedTorsions>
[ 6907 6896 6895 6894 ] final   47.50 input  -60.11 | X-H torsion
[ 7974 7965 7964 7962 ] final  -96.92 input  175.53 | X-H torsion
[ 8008 7997 7996 7995 ] final -153.08 input   59.86 | X-H torsion
[ 10167 10162 10161 10158 ] final   70.89 input  -65.29 | X-H torsion
[ 10718 10713 10712 10709 ] final  -48.92 input   66.30 | X-H torsion
[ 10763 10752 10751 10750 ] final -129.73 input  -60.55 | X-H torsion
[ 11005 11000 10999 10996 ] final   32.49 input  -57.11 | X-H torsion

> <Gold.Protein.ActiveResidues>
 VAL166  LYS551  ARG553  GLY616  TRP617  ASP618  TYR619  PRO620  LYS621  CYS622 
 ASP623  PHE694  ASN695  SER759  ASP760  ASP761  ALA762  ILE779  LEU786  VAL792 
 PHE793  MET794  SER795  GLU796  ALA797  LYS798  CYS799  TRP800  GLU811  SER814 

> <Gold.Protein.RotatedAtoms>
  152.2687  134.7956  160.0417 H   0  0  0  0  0  0  0  0  0  0  0  0  # atno 6907 bound_to 6896
  151.8576  133.3446  159.3701 H   0  0  0  0  0  0  0  0  0  0  0  0  # atno 6908 bound_to 6896
  150.7143  134.5165  159.5677 H   0  0  0  0  0  0  0  0  0  0  0  0  # atno 6909 bound_to 6896
  145.3405  140.9459  143.2610 H   0  0  0  0  0  0  0  0  0  0  0  0  # atno 7974 bound_to 7965
  155.6651  140.0727  157.2540 H   0  0  0  0  0  0  0  0  0  0  0  0  # atno 8008 bound_to 7997
  154.4134  140.1709  156.1870 H   0  0  0  0  0  0  0  0  0  0  0  0  # atno 8009 bound_to 7997
  155.9664  140.3365  155.6539 H   0  0  0  0  0  0  0  0  0  0  0  0  # atno 8010 bound_to 7997
  140.0520  144.5304  150.7356 H   0  0  0  0  0  0  0  0  0  0  0  0  # atno 10167 bound_to 10162
  156.1942  130.4154  149.9329 H   0  0  0  0  0  0  0  0  0  0  0  0  # atno 10718 bound_to 10713
  154.8757  135.3886  154.3968 H   0  0  0  0  0  0  0  0  0  0  0  0  # atno 10763 bound_to 10752
  153.4697  135.7030  153.6006 H   0  0  0  0  0  0  0  0  0  0  0  0  # atno 10764 bound_to 10752
  153.4468  135.3843  155.2229 H   0  0  0  0  0  0  0  0  0  0  0  0  # atno 10765 bound_to 10752
  140.2729  134.3061  155.7822 H   0  0  0  0  0  0  0  0  0  0  0  0  # atno 11005 bound_to 11000
  144.8794  139.4926  143.6730 LP  0  0  0  0  0  0  0  0  0  0  0  0  # atno 17320 bound_to 7965
  146.3009  139.7424  142.9092 LP  0  0  0  0  0  0  0  0  0  0  0  0  # atno 17321 bound_to 7965
  140.7212  143.2591  151.4272 LP  0  0  0  0  0  0  0  0  0  0  0  0  # atno 17342 bound_to 10162
  139.5947  144.1423  152.2130 LP  0  0  0  0  0  0  0  0  0  0  0  0  # atno 17343 bound_to 10162
  156.7060  130.8951  151.3604 LP  0  0  0  0  0  0  0  0  0  0  0  0  # atno 17370 bound_to 10713
  157.6947  130.9270  150.0612 LP  0  0  0  0  0  0  0  0  0  0  0  0  # atno 17371 bound_to 10713
  141.2174  133.7478  156.9363 LP  0  0  0  0  0  0  0  0  0  0  0  0  # atno 17394 bound_to 11000
  140.1356  134.9327  157.2396 LP  0  0  0  0  0  0  0  0  0  0  0  0  # atno 17395 bound_to 11000

$$$$
