AV-unprocessed.smi:1996|AV-procd|sdf|8084|dock6
  -GOLD-   2272010303D 1   1.00000     0.00000
 Structure written by MMmdl.
 33 34  0  0  0  0  0  0  0  0  1 V2000
  146.6568  137.2103  153.4917 O   0  0  0  0  0  0  0  0  0  0  0  0
  145.9311  138.0166  152.9092 C   0  0  0  0  0  0  0  0  0  0  0  0
  144.8975  137.6555  152.1349 N   0  0  0  0  0  0  0  0  0  0  0  0
  144.4786  136.2811  151.8859 C   0  0  0  0  0  0  0  0  0  0  0  0
  145.5887  135.4713  151.1933 C   0  0  0  0  0  0  0  0  0  0  0  0
  145.2375  134.0010  151.0395 C   0  0  0  0  0  0  0  0  0  0  0  0
  144.1881  133.5929  150.2997 C   0  0  0  0  0  0  0  0  0  0  0  0
  143.7821  132.1404  150.1205 C   0  0  0  0  0  0  0  0  0  0  0  0
  144.4779  131.2071  151.1258 C   0  0  0  0  0  0  0  0  0  0  0  0
  145.9612  131.5647  151.2815 C   0  0  0  0  0  0  0  0  0  0  0  0
  146.1405  133.0133  151.7699 C   0  0  0  0  0  0  0  0  0  0  0  0
  146.0560  139.3545  152.9600 N   0  0  0  0  0  0  0  0  0  0  0  0
  147.0070  140.1236  153.6816 C   0  0  0  0  0  0  0  0  0  0  0  0
  148.1046  139.6048  154.2546 N   0  0  0  0  0  0  0  0  0  0  0  0
  148.8614  140.5744  154.8997 N   0  0  0  0  0  0  0  0  0  0  0  0
  148.3060  141.7845  154.7876 C   0  0  0  0  0  0  0  0  0  0  0  0
  146.8040  141.8580  153.8826 S   0  0  0  0  0  0  0  0  0  0  0  0
  144.3557  138.3830  151.6916 H   0  0  0  0  0  0  0  0  0  0  0  0
  144.2255  135.8326  152.8467 H   0  0  0  0  0  0  0  0  0  0  0  0
  143.5662  136.2700  151.2869 H   0  0  0  0  0  0  0  0  0  0  0  0
  145.7906  135.8936  150.2080 H   0  0  0  0  0  0  0  0  0  0  0  0
  146.5196  135.5512  151.7559 H   0  0  0  0  0  0  0  0  0  0  0  0
  143.5810  134.3208  149.7811 H   0  0  0  0  0  0  0  0  0  0  0  0
  142.7000  132.0543  150.2223 H   0  0  0  0  0  0  0  0  0  0  0  0
  144.0291  131.8459  149.1001 H   0  0  0  0  0  0  0  0  0  0  0  0
  143.9875  131.2873  152.0968 H   0  0  0  0  0  0  0  0  0  0  0  0
  144.3678  130.1697  150.8089 H   0  0  0  0  0  0  0  0  0  0  0  0
  146.4469  130.8763  151.9737 H   0  0  0  0  0  0  0  0  0  0  0  0
  146.4618  131.4400  150.3204 H   0  0  0  0  0  0  0  0  0  0  0  0
  147.1824  133.3113  151.6476 H   0  0  0  0  0  0  0  0  0  0  0  0
  145.9184  133.0717  152.8359 H   0  0  0  0  0  0  0  0  0  0  0  0
  145.3863  139.8870  152.4246 H   0  0  0  0  0  0  0  0  0  0  0  0
  148.7845  142.6398  155.2413 H   0  0  0  0  0  0  0  0  0  0  0  0
  1  2  2  0  0  0  0
  2  3  1  0  0  0  0
  2 12  1  0  0  0  0
  3  4  1  0  0  0  0
  3 18  1  0  0  0  0
  4  5  1  0  0  0  0
  4 19  1  0  0  0  0
  4 20  1  0  0  0  0
  5  6  1  0  0  0  0
  5 21  1  0  0  0  0
  5 22  1  0  0  0  0
  6 11  1  0  0  0  0
  6  7  2  0  0  0  0
  7  8  1  0  0  0  0
  7 23  1  0  0  0  0
  8  9  1  0  0  0  0
  8 24  1  0  0  0  0
  8 25  1  0  0  0  0
  9 10  1  0  0  0  0
  9 26  1  0  0  0  0
  9 27  1  0  0  0  0
 10 11  1  0  0  0  0
 10 28  1  0  0  0  0
 10 29  1  0  0  0  0
 11 30  1  0  0  0  0
 11 31  1  0  0  0  0
 12 13  1  0  0  0  0
 12 32  1  0  0  0  0
 13 17  1  0  0  0  0
 13 14  2  0  0  0  0
 14 15  1  0  0  0  0
 15 16  2  0  0  0  0
 16 17  1  0  0  0  0
 16 33  1  0  0  0  0
M  END
> <s_m_source_file>
AV-unprocessed.smi

> <i_m_source_file_index>
1996

> <i_lp_mmshare_version>
43012

> <i_f3d_flags>
0

> <s_epik_input>
czFbY0hdbm5jMVtOSF1DKD1PKVtOSF1bQ0gyXVtDSDJdQzI9W0NIXVtDSDJdW0NIMl1bQ0gyXVtDSDJdMg==

> <s_epik_cmdline>
J2VwaWtfcHl0aG9uJywgJy1waCcsICc3LjAnLCAnLXRuJywgJzgnLCAnLW1hJywgJzIwMCcsICctbWV0YWxfYmluZGluZycsICctaW1hZScsICc8aW5maWxlLm1hZT4nLCAnLW9tYWUnLCAnPG91dGZpbGUubWFlPic=

> <r_lp_tautomer_probability>
1

> <r_epik_Ionization_Penalty>
0.00157076

> <r_epik_Ionization_Penalty_Charging>
0

> <r_epik_Ionization_Penalty_Neutral>
0.00157076

> <r_epik_State_Penalty>
-0

> <r_epik_Charging_Adjusted_Penalty>
0

> <i_epik_Tot_Q>
0

> <i_epik_Tot_abs_Q>
0

> <r_epik_Metal_State_Penalty>
0.323125

> <b_epik_Metal_Only>
0

> <s_lp_Force_Field>
OPLS_2005

> <r_lp_Energy>
6.02977

> <b_lp_Chiralities_Consistent>
1

> <s_lp_Variant>
AV-unprocessed.smi:1996-1

> <Gold.Version>
5.8.1

> <Gold.Id.Protein>
6NUR|6NUR_protein|mol2

> <Gold.PLP.Fitness>
38.9571

> <Gold.PLP.PLP>
-31.5869

> <Gold.PLP.part.hbond>
-2.8706

> <Gold.PLP.part.metal>
0.0000

> <Gold.PLP.part.buried>
-5.1454

> <Gold.PLP.part.nonpolar>
-26.7374

> <Gold.PLP.part.repulsive>
2.3479

> <Gold.PLP.ligand.clash>
0.0000

> <Gold.PLP.ligand.torsion>
0.0509

> <Gold.PLP.Chemscore.Hbond>
1.4880

> <Gold.PLP.Chemscore.CHOScore>
1.0000

> <Gold.PLP.Chemscore.Metal>
0.0000

> <Gold.Chemscore.Hbonds>
donor molecule, donor type, donor heavy atom, donor atom, acceptor molecule, acceptor atom, score
      L1  H     3    18       P1 10171  0.61
      L1  H    12    32       P1 10175  0.85
      L1  C    16    33       P1  8028  1.00

> <Gold.PLP.Chemscore.Internal.Correction>
0.0080

> <Gold.Rescore>
     Score         DG    S(hbond)    S(metal)    S(lipo)     H(rot)  DE(clash)    DE(int)     intcor
     13.55     -15.23       1.51        0.00      75.55       1.62       0.33       1.34       ----

> <Gold.Chemscore.Fitness>
13.5516

> <Gold.Chemscore.DG>
-15.2254

> <Gold.Chemscore.ZeroCoef>
-5.4800

> <Gold.Chemscore.Hbond>
1.5104

> <Gold.Chemscore.Metal>
0.0000

> <Gold.Chemscore.Lipo>
75.5493

> <Gold.Chemscore.Internal_Hbond>
0.0000

> <Gold.Chemscore.DEClash>
0.3297

> <Gold.Chemscore.DEInternal>
1.3440

> <Gold.Chemscore.Rot>
1.6167

> <Gold.Chemscore.Internal.Correction>
   9.000000E+99

> <Gold.Chemscore.Hbonds>
donor molecule, donor type, donor heavy atom, donor atom, acceptor molecule, acceptor atom, score
      L1  H     3    18       P1 10171  0.60
      L1  H    12    32       P1 10175  0.82

> <Gold.Chemscore.Hbond.Weighted>
-5.0448

> <Gold.Chemscore.Metal.Weighted>
-0.0000

> <Gold.Chemscore.Lipo.Weighted>
-8.8393

> <Gold.Chemscore.Internal_Hbond.Weighted>
0.0000

> <Gold.Chemscore.DEClash.Weighted>
0.3297

> <Gold.Chemscore.DEInternal.Weighted>
1.3440

> <Gold.Chemscore.Rot.Weighted>
4.1387

> <Gold.Chemscore.Internal.Correction.Weighted>
   9.000000E+99

> <Gold.Protein.RotatedTorsions>
[ 6907 6896 6895 6894 ] final   16.00 input  -60.11 | X-H torsion
[ 7974 7965 7964 7962 ] final    5.10 input  175.53 | X-H torsion
[ 8008 7997 7996 7995 ] final   -9.06 input   59.86 | X-H torsion
[ 10167 10162 10161 10158 ] final -156.91 input  -65.29 | X-H torsion
[ 10718 10713 10712 10709 ] final  -35.40 input   66.30 | X-H torsion
[ 10763 10752 10751 10750 ] final  167.64 input  -60.55 | X-H torsion
[ 11005 11000 10999 10996 ] final   29.65 input  -57.11 | X-H torsion

> <Gold.Protein.ActiveResidues>
 VAL166  LYS551  ARG553  GLY616  TRP617  ASP618  TYR619  PRO620  LYS621  CYS622 
 ASP623  PHE694  ASN695  SER759  ASP760  ASP761  ALA762  ILE779  LEU786  VAL792 
 PHE793  MET794  SER795  GLU796  ALA797  LYS798  CYS799  TRP800  GLU811  SER814 

> <Gold.Protein.RotatedAtoms>
  151.8270  135.0634  160.0431 H   0  0  0  0  0  0  0  0  0  0  0  0  # atno 6907 bound_to 6896
  152.2909  133.5556  159.5565 H   0  0  0  0  0  0  0  0  0  0  0  0  # atno 6908 bound_to 6896
  150.7229  134.0346  159.3787 H   0  0  0  0  0  0  0  0  0  0  0  0  # atno 6909 bound_to 6896
  146.2442  140.0435  142.8380 H   0  0  0  0  0  0  0  0  0  0  0  0  # atno 7974 bound_to 7965
  154.5682  140.2365  155.8232 H   0  0  0  0  0  0  0  0  0  0  0  0  # atno 8008 bound_to 7997
  156.2085  140.3033  155.9638 H   0  0  0  0  0  0  0  0  0  0  0  0  # atno 8009 bound_to 7997
  155.2762  140.0420  157.3002 H   0  0  0  0  0  0  0  0  0  0  0  0  # atno 8010 bound_to 7997
  139.6812  143.9577  152.2338 H   0  0  0  0  0  0  0  0  0  0  0  0  # atno 10167 bound_to 10162
  156.3391  130.4291  149.7803 H   0  0  0  0  0  0  0  0  0  0  0  0  # atno 10718 bound_to 10713
  154.3568  135.2753  155.2342 H   0  0  0  0  0  0  0  0  0  0  0  0  # atno 10763 bound_to 10752
  154.4548  135.5922  153.6219 H   0  0  0  0  0  0  0  0  0  0  0  0  # atno 10764 bound_to 10752
  152.9846  135.6050  154.3784 H   0  0  0  0  0  0  0  0  0  0  0  0  # atno 10765 bound_to 10752
  140.3027  134.2739  155.7750 H   0  0  0  0  0  0  0  0  0  0  0  0  # atno 11005 bound_to 11000
  145.1048  140.9368  143.4691 LP  0  0  0  0  0  0  0  0  0  0  0  0  # atno 17320 bound_to 7965
  145.0636  139.3086  143.5868 LP  0  0  0  0  0  0  0  0  0  0  0  0  # atno 17321 bound_to 7965
  139.9368  144.6707  150.8306 LP  0  0  0  0  0  0  0  0  0  0  0  0  # atno 17342 bound_to 10162
  140.7653  143.3271  151.2492 LP  0  0  0  0  0  0  0  0  0  0  0  0  # atno 17343 bound_to 10162
  156.5047  130.8144  151.3146 LP  0  0  0  0  0  0  0  0  0  0  0  0  # atno 17370 bound_to 10713
  157.7444  130.9933  150.2668 LP  0  0  0  0  0  0  0  0  0  0  0  0  # atno 17371 bound_to 10713
  141.2125  133.7656  156.9790 LP  0  0  0  0  0  0  0  0  0  0  0  0  # atno 17394 bound_to 11000
  140.1095  134.9486  157.2044 LP  0  0  0  0  0  0  0  0  0  0  0  0  # atno 17395 bound_to 11000

$$$$
