AV-unprocessed.smi:1800|AV-procd|sdf|7265|dock8
  -GOLD-   22720 8523D 1   1.00000     0.00000
 Structure written by MMmdl.
 35 36  0  0  0  0  0  0  0  0  2 V2000
  149.5848  135.5932  156.8516 C   0  0  0  0  0  0  0  0  0  0  0  0
  149.1959  136.7200  157.8186 C   0  0  2  0  0  0  0  0  0  0  0  0
  150.0781  137.9793  157.6202 C   0  0  0  0  0  0  0  0  0  0  0  0
  150.4327  138.2541  156.2302 N   0  0  0  0  0  0  0  0  0  0  0  0
  151.6694  138.5697  155.6988 C   0  0  0  0  0  0  0  0  0  0  0  0
  151.5053  138.7494  154.3553 C   0  0  0  0  0  0  0  0  0  0  0  0
  150.1140  138.5320  154.1535 C   0  0  0  0  0  0  0  0  0  0  0  0
  149.4725  138.2526  155.2758 N   0  0  0  0  0  0  0  0  0  0  0  0
  149.3188  136.2315  159.1853 N   0  5  0  0  0  0  0  0  0  0  0  0
  148.1089  136.4724  160.2382 S   0  0  0  0  0  0  0  0  0  0  0  0
  148.5895  136.7304  161.6059 O   0  0  0  0  0  0  0  0  0  0  0  0
  147.0906  137.3939  159.7086 O   0  0  0  0  0  0  0  0  0  0  0  0
  147.3374  134.7819  160.2507 C   0  0  0  0  0  0  0  0  0  0  0  0
  145.8203  134.8534  160.0506 C   0  0  0  0  0  0  0  0  0  0  0  0
  145.2520  135.1460  161.4409 C   0  0  0  0  0  0  0  0  0  0  0  0
  146.2400  134.5203  162.4363 C   0  0  0  0  0  0  0  0  0  0  0  0
  147.4767  134.1090  161.6228 C   0  0  0  0  0  0  0  0  0  0  0  0
  149.4889  135.9179  155.8153 H   0  0  0  0  0  0  0  0  0  0  0  0
  148.9414  134.7223  156.9828 H   0  0  0  0  0  0  0  0  0  0  0  0
  150.6163  135.2731  157.0045 H   0  0  0  0  0  0  0  0  0  0  0  0
  148.1672  136.9969  157.5831 H   0  0  0  0  0  0  0  0  0  0  0  0
  149.5855  138.8579  158.0411 H   0  0  0  0  0  0  0  0  0  0  0  0
  151.0098  137.8613  158.1747 H   0  0  0  0  0  0  0  0  0  0  0  0
  152.5544  138.6290  156.3150 H   0  0  0  0  0  0  0  0  0  0  0  0
  152.2643  138.9957  153.6279 H   0  0  0  0  0  0  0  0  0  0  0  0
  149.5536  138.5745  153.2314 H   0  0  0  0  0  0  0  0  0  0  0  0
  147.8065  134.2001  159.4570 H   0  0  0  0  0  0  0  0  0  0  0  0
  145.5115  135.5893  159.3082 H   0  0  0  0  0  0  0  0  0  0  0  0
  145.4579  133.8824  159.7111 H   0  0  0  0  0  0  0  0  0  0  0  0
  145.2070  136.2244  161.5988 H   0  0  0  0  0  0  0  0  0  0  0  0
  144.2405  134.7572  161.5602 H   0  0  0  0  0  0  0  0  0  0  0  0
  146.5044  135.2406  163.2111 H   0  0  0  0  0  0  0  0  0  0  0  0
  145.8047  133.6534  162.9340 H   0  0  0  0  0  0  0  0  0  0  0  0
  147.4726  133.0267  161.4899 H   0  0  0  0  0  0  0  0  0  0  0  0
  148.4108  134.3648  162.1238 H   0  0  0  0  0  0  0  0  0  0  0  0
  1  2  1  0  0  0  0
  1 18  1  0  0  0  0
  1 19  1  0  0  0  0
  1 20  1  0  0  0  0
  2  3  1  0  0  0  0
  2  9  1  0  0  0  0
  2 21  1  0  0  0  0
  3  4  1  0  0  0  0
  3 22  1  0  0  0  0
  3 23  1  0  0  0  0
  4  8  1  0  0  0  0
  4  5  1  0  0  0  0
  5  6  2  0  0  0  0
  5 24  1  0  0  0  0
  6  7  1  0  0  0  0
  6 25  1  0  0  0  0
  7  8  2  0  0  0  0
  7 26  1  0  0  0  0
  9 10  1  0  0  0  0
 10 11  2  0  0  0  0
 10 12  2  0  0  0  0
 10 13  1  0  0  0  0
 13 17  1  0  0  0  0
 13 14  1  0  0  0  0
 13 27  1  0  0  0  0
 14 15  1  0  0  0  0
 14 28  1  0  0  0  0
 14 29  1  0  0  0  0
 15 16  1  0  0  0  0
 15 30  1  0  0  0  0
 15 31  1  0  0  0  0
 16 17  1  0  0  0  0
 16 32  1  0  0  0  0
 16 33  1  0  0  0  0
 17 34  1  0  0  0  0
 17 35  1  0  0  0  0
M  CHG  1   9  -1
M  END
> <s_m_source_file>
AV-unprocessed.smi

> <i_m_source_file_index>
1800

> <i_lp_mmshare_version>
43012

> <i_f3d_flags>
0

> <s_epik_input>
bjFbY0hdW2NIXVtjSF1uMVtDSDJdW0NAQEhdKFtDSDNdKVtOSF1TKD1PKSg9TylbQ0hdMltDSDJdW0NIMl1bQ0gyXVtDSDJdMg==

> <s_epik_cmdline>
J2VwaWtfcHl0aG9uJywgJy1waCcsICc3LjAnLCAnLXRuJywgJzgnLCAnLW1hJywgJzIwMCcsICctbWV0YWxfYmluZGluZycsICctaW1hZScsICc8aW5maWxlLm1hZT4nLCAnLW9tYWUnLCAnPG91dGZpbGUubWFlPic=

> <r_lp_tautomer_probability>
1

> <r_epik_Ionization_Penalty>
6.58538

> <r_epik_Ionization_Penalty_Charging>
6.58536

> <r_epik_Ionization_Penalty_Neutral>
2.3841e-05

> <r_epik_State_Penalty>
6.58535

> <r_epik_Charging_Adjusted_Penalty>
13.1707

> <i_epik_Tot_Q>
-1

> <i_epik_Tot_abs_Q>
1

> <r_epik_Metal_State_Penalty>
2.50999

> <b_epik_Metal_Only>
1

> <s_lp_Force_Field>
OPLS_2005

> <r_lp_Energy>
15.5641

> <b_lp_Chiralities_Consistent>
1

> <s_lp_Variant>
AV-unprocessed.smi:1800-3

> <Gold.Version>
5.8.1

> <Gold.Id.Protein>
6NUR|6NUR_protein|mol2

> <Gold.PLP.Fitness>
38.1519

> <Gold.PLP.PLP>
-23.9662

> <Gold.PLP.part.hbond>
-2.8051

> <Gold.PLP.part.metal>
0.0000

> <Gold.PLP.part.buried>
-3.9683

> <Gold.PLP.part.nonpolar>
-17.4006

> <Gold.PLP.part.repulsive>
0.1001

> <Gold.PLP.ligand.clash>
0.0000

> <Gold.PLP.ligand.torsion>
1.2327

> <Gold.PLP.Chemscore.Hbond>
3.6732

> <Gold.PLP.Chemscore.CHOScore>
1.5143

> <Gold.PLP.Chemscore.Metal>
0.0000

> <Gold.Chemscore.Hbonds>
donor molecule, donor type, donor heavy atom, donor atom, acceptor molecule, acceptor atom, score
      P1  H  6896  6908       L1     9  1.66
      P1  H  6931  6943       L1    11  1.00
      P1  H  6934  6947       L1    12  0.96
      L1  C     7    26       P1  7948  0.38
      L1  C     7    26       P1  7957  1.00

> <Gold.PLP.Chemscore.Internal.Correction>
1.0886

> <Gold.Rescore>
     Score         DG    S(hbond)    S(metal)    S(lipo)     H(rot)  DE(clash)    DE(int)     intcor
     15.35     -16.49       2.41        0.00      58.47       1.51       0.01       1.13       ----

> <Gold.Chemscore.Fitness>
15.3506

> <Gold.Chemscore.DG>
-16.4921

> <Gold.Chemscore.ZeroCoef>
-5.4800

> <Gold.Chemscore.Hbond>
2.4096

> <Gold.Chemscore.Metal>
0.0000

> <Gold.Chemscore.Lipo>
58.4716

> <Gold.Chemscore.Internal_Hbond>
0.0000

> <Gold.Chemscore.DEClash>
0.0106

> <Gold.Chemscore.DEInternal>
1.1308

> <Gold.Chemscore.Rot>
1.5146

> <Gold.Chemscore.Internal.Correction>
   9.000000E+99

> <Gold.Chemscore.Hbonds>
donor molecule, donor type, donor heavy atom, donor atom, acceptor molecule, acceptor atom, score
      P1  H  6896  6908       L1     9  0.75
      P1  H  6931  6943       L1    11  0.91
      P1  H  6934  6947       L1    12  0.43

> <Gold.Chemscore.Hbond.Weighted>
-8.0482

> <Gold.Chemscore.Metal.Weighted>
-0.0000

> <Gold.Chemscore.Lipo.Weighted>
-6.8412

> <Gold.Chemscore.Internal_Hbond.Weighted>
0.0000

> <Gold.Chemscore.DEClash.Weighted>
0.0106

> <Gold.Chemscore.DEInternal.Weighted>
1.1308

> <Gold.Chemscore.Rot.Weighted>
3.8773

> <Gold.Chemscore.Internal.Correction.Weighted>
   9.000000E+99

> <Gold.Protein.RotatedTorsions>
[ 6907 6896 6895 6894 ] final -175.35 input  -60.11 | X-H torsion
[ 7974 7965 7964 7962 ] final  -51.41 input  175.53 | X-H torsion
[ 8008 7997 7996 7995 ] final  130.60 input   59.86 | X-H torsion
[ 10167 10162 10161 10158 ] final -126.19 input  -65.29 | X-H torsion
[ 10718 10713 10712 10709 ] final   61.99 input   66.30 | X-H torsion
[ 10763 10752 10751 10750 ] final  -42.24 input  -60.55 | X-H torsion
[ 11005 11000 10999 10996 ] final  -93.48 input  -57.11 | X-H torsion

> <Gold.Protein.ActiveResidues>
 VAL166  LYS551  ARG553  GLY616  TRP617  ASP618  TYR619  PRO620  LYS621  CYS622 
 ASP623  PHE694  ASN695  SER759  ASP760  ASP761  ALA762  ILE779  LEU786  VAL792 
 PHE793  MET794  SER795  GLU796  ALA797  LYS798  CYS799  TRP800  GLU811  SER814 

> <Gold.Protein.RotatedAtoms>
  151.5872  133.3370  159.3020 H   0  0  0  0  0  0  0  0  0  0  0  0  # atno 6907 bound_to 6896
  150.8280  134.7523  159.6841 H   0  0  0  0  0  0  0  0  0  0  0  0  # atno 6908 bound_to 6896
  152.4367  134.5678  159.9964 H   0  0  0  0  0  0  0  0  0  0  0  0  # atno 6909 bound_to 6896
  145.9193  140.7848  142.9655 H   0  0  0  0  0  0  0  0  0  0  0  0  # atno 7974 bound_to 7965
  156.2957  140.2592  156.2788 H   0  0  0  0  0  0  0  0  0  0  0  0  # atno 8008 bound_to 7997
  154.9622  140.0392  157.2214 H   0  0  0  0  0  0  0  0  0  0  0  0  # atno 8009 bound_to 7997
  154.7936  140.2816  155.5978 H   0  0  0  0  0  0  0  0  0  0  0  0  # atno 8010 bound_to 7997
  139.9741  143.5813  152.2402 H   0  0  0  0  0  0  0  0  0  0  0  0  # atno 10167 bound_to 10162
  157.5868  130.9025  149.9531 H   0  0  0  0  0  0  0  0  0  0  0  0  # atno 10718 bound_to 10713
  153.9758  135.6723  153.4748 H   0  0  0  0  0  0  0  0  0  0  0  0  # atno 10763 bound_to 10752
  153.0771  135.4943  154.8424 H   0  0  0  0  0  0  0  0  0  0  0  0  # atno 10764 bound_to 10752
  154.7193  135.3113  154.9035 H   0  0  0  0  0  0  0  0  0  0  0  0  # atno 10765 bound_to 10752
  141.1496  133.7891  157.0166 H   0  0  0  0  0  0  0  0  0  0  0  0  # atno 11005 bound_to 11000
  144.6751  140.1950  143.7393 LP  0  0  0  0  0  0  0  0  0  0  0  0  # atno 17320 bound_to 7965
  145.8571  139.2204  143.1738 LP  0  0  0  0  0  0  0  0  0  0  0  0  # atno 17321 bound_to 7965
  139.6459  144.7658  151.2245 LP  0  0  0  0  0  0  0  0  0  0  0  0  # atno 17342 bound_to 10162
  140.7512  143.6240  150.8486 LP  0  0  0  0  0  0  0  0  0  0  0  0  # atno 17343 bound_to 10162
  156.0918  130.3662  150.0380 LP  0  0  0  0  0  0  0  0  0  0  0  0  # atno 17370 bound_to 10713
  156.8510  130.9459  151.3625 LP  0  0  0  0  0  0  0  0  0  0  0  0  # atno 17371 bound_to 10713
  140.0843  134.9630  157.1675 LP  0  0  0  0  0  0  0  0  0  0  0  0  # atno 17394 bound_to 11000
  140.3533  134.2574  155.7196 LP  0  0  0  0  0  0  0  0  0  0  0  0  # atno 17395 bound_to 11000

$$$$
