AV-unprocessed.smi:550|AV-procd|sdf|2896|dock8
  -GOLD-   2262023393D 1   1.00000     0.00000
 Structure written by MMmdl.
 46 48  0  0  0  0  0  0  0  0  2 V2000
  140.6305  137.5655  154.5138 O   0  0  0  0  0  0  0  0  0  0  0  0
  141.3919  138.3534  153.9536 C   0  0  0  0  0  0  0  0  0  0  0  0
  141.2198  139.6828  153.9701 N   0  0  0  0  0  0  0  0  0  0  0  0
  140.1407  140.3792  154.6643 C   0  0  0  0  0  0  0  0  0  0  0  0
  139.1741  141.1006  153.6966 C   0  0  2  0  0  0  0  0  0  0  0  0
  138.3336  142.1930  154.3962 C   0  0  0  0  0  0  0  0  0  0  0  0
  137.1797  141.5328  155.1639 C   0  0  0  0  0  0  0  0  0  0  0  0
  136.7648  140.0084  154.2344 S   0  0  0  0  0  0  0  0  0  0  0  0
  136.9486  138.8478  155.1189 O   0  0  0  0  0  0  0  0  0  0  0  0
  135.5100  140.2042  153.4926 O   0  0  0  0  0  0  0  0  0  0  0  0
  138.1756  140.1148  153.0688 C   0  0  0  0  0  0  0  0  0  0  0  0
  142.4792  138.0110  153.2405 N   0  0  0  0  0  0  0  0  0  0  0  0
  143.0272  136.7172  153.0197 C   0  0  0  0  0  0  0  0  0  0  0  0
  144.2406  136.6324  152.3030 C   0  0  0  0  0  0  0  0  0  0  0  0
  144.8335  135.3739  152.0732 C   0  0  0  0  0  0  0  0  0  0  0  0
  144.2068  134.2100  152.5758 C   0  0  0  0  0  0  0  0  0  0  0  0
  144.7113  132.9133  152.4045 N   0  0  0  0  0  0  0  0  0  0  0  0
  144.0472  132.1425  151.3679 C   0  0  0  0  0  0  0  0  0  0  0  0
  144.9757  130.9602  151.0822 C   0  0  0  0  0  0  0  0  0  0  0  0
  146.3607  131.4272  151.5460 C   0  0  0  0  0  0  0  0  0  0  0  0
  146.1346  132.8294  152.1195 C   0  0  0  0  0  0  0  0  0  0  0  0
  143.0506  134.3325  153.2628 N   0  3  0  0  0  0  0  0  0  0  0  0
  142.4485  135.5175  153.5029 C   0  0  0  0  0  0  0  0  0  0  0  0
  141.8890  140.2582  153.4797 H   0  0  0  0  0  0  0  0  0  0  0  0
  139.5910  139.6678  155.2831 H   0  0  0  0  0  0  0  0  0  0  0  0
  140.5917  141.0921  155.3548 H   0  0  0  0  0  0  0  0  0  0  0  0
  139.7668  141.5541  152.9010 H   0  0  0  0  0  0  0  0  0  0  0  0
  138.9294  142.8376  155.0424 H   0  0  0  0  0  0  0  0  0  0  0  0
  137.9083  142.8405  153.6286 H   0  0  0  0  0  0  0  0  0  0  0  0
  137.4917  141.2426  156.1672 H   0  0  0  0  0  0  0  0  0  0  0  0
  136.3023  142.1748  155.2448 H   0  0  0  0  0  0  0  0  0  0  0  0
  137.7963  140.5069  152.1248 H   0  0  0  0  0  0  0  0  0  0  0  0
  138.5910  139.1237  152.8846 H   0  0  0  0  0  0  0  0  0  0  0  0
  142.9606  138.7687  152.7788 H   0  0  0  0  0  0  0  0  0  0  0  0
  144.7167  137.5259  151.9255 H   0  0  0  0  0  0  0  0  0  0  0  0
  145.7575  135.3105  151.5172 H   0  0  0  0  0  0  0  0  0  0  0  0
  143.0623  131.8087  151.6958 H   0  0  0  0  0  0  0  0  0  0  0  0
  143.9173  132.7460  150.4684 H   0  0  0  0  0  0  0  0  0  0  0  0
  144.6660  130.0897  151.6618 H   0  0  0  0  0  0  0  0  0  0  0  0
  144.9609  130.6798  150.0283 H   0  0  0  0  0  0  0  0  0  0  0  0
  146.7430  130.7555  152.3157 H   0  0  0  0  0  0  0  0  0  0  0  0
  147.0847  131.4439  150.7308 H   0  0  0  0  0  0  0  0  0  0  0  0
  146.4310  133.5826  151.3889 H   0  0  0  0  0  0  0  0  0  0  0  0
  146.7227  132.9905  153.0236 H   0  0  0  0  0  0  0  0  0  0  0  0
  141.5395  135.4508  154.0812 H   0  0  0  0  0  0  0  0  0  0  0  0
  142.6109  133.4854  153.6240 H   0  0  0  0  0  0  0  0  0  0  0  0
  1  2  2  0  0  0  0
  2  3  1  0  0  0  0
  2 12  1  0  0  0  0
  3  4  1  0  0  0  0
  3 24  1  0  0  0  0
  4  5  1  0  0  0  0
  4 25  1  0  0  0  0
  4 26  1  0  0  0  0
  5 11  1  0  0  0  0
  5  6  1  0  0  0  0
  5 27  1  0  0  0  0
  6  7  1  0  0  0  0
  6 28  1  0  0  0  0
  6 29  1  0  0  0  0
  7  8  1  0  0  0  0
  7 30  1  0  0  0  0
  7 31  1  0  0  0  0
  8  9  2  0  0  0  0
  8 10  2  0  0  0  0
  8 11  1  0  0  0  0
 11 32  1  0  0  0  0
 11 33  1  0  0  0  0
 12 13  1  0  0  0  0
 12 34  1  0  0  0  0
 13 23  1  0  0  0  0
 13 14  2  0  0  0  0
 14 15  1  0  0  0  0
 14 35  1  0  0  0  0
 15 16  2  0  0  0  0
 15 36  1  0  0  0  0
 16 17  1  0  0  0  0
 16 22  1  0  0  0  0
 17 21  1  0  0  0  0
 17 18  1  0  0  0  0
 18 19  1  0  0  0  0
 18 37  1  0  0  0  0
 18 38  1  0  0  0  0
 19 20  1  0  0  0  0
 19 39  1  0  0  0  0
 19 40  1  0  0  0  0
 20 21  1  0  0  0  0
 20 41  1  0  0  0  0
 20 42  1  0  0  0  0
 21 43  1  0  0  0  0
 21 44  1  0  0  0  0
 22 23  2  0  0  0  0
 22 46  1  0  0  0  0
 23 45  1  0  0  0  0
M  CHG  1  22   1
M  END
> <s_m_source_file>
AV-unprocessed.smi

> <i_m_source_file_index>
550

> <i_lp_mmshare_version>
43012

> <i_f3d_flags>
0

> <s_epik_input>
Tz1TMSg9TylbQ0gyXVtDSDJdW0NASF0oW0NIMl0xKVtDSDJdW05IXUMoPU8pW05IXWMyW2NIXVtjSF1jKG5bY0hdMilOM1tDSDJdW0NIMl1bQ0gyXVtDSDJdMw==

> <s_epik_cmdline>
J2VwaWtfcHl0aG9uJywgJy1waCcsICc3LjAnLCAnLXRuJywgJzgnLCAnLW1hJywgJzIwMCcsICctbWV0YWxfYmluZGluZycsICctaW1hZScsICc8aW5maWxlLm1hZT4nLCAnLW9tYWUnLCAnPG91dGZpbGUubWFlPic=

> <r_lp_tautomer_probability>
0.999994

> <r_epik_Ionization_Penalty>
1.12573

> <r_epik_Ionization_Penalty_Charging>
1.12571

> <r_epik_Ionization_Penalty_Neutral>
1.93198e-05

> <r_epik_State_Penalty>
1.18495

> <r_epik_Charging_Adjusted_Penalty>
2.31065

> <i_epik_Tot_Q>
1

> <i_epik_Tot_abs_Q>
1

> <r_epik_Metal_State_Penalty>
1.26884

> <b_epik_Metal_Only>
0

> <s_lp_Force_Field>
OPLS_2005

> <r_lp_Energy>
42.4783

> <b_lp_Chiralities_Consistent>
1

> <s_lp_Variant>
AV-unprocessed.smi:550-3

> <Gold.Version>
5.8.1

> <Gold.Id.Protein>
6NUR|6NUR_protein|mol2

> <Gold.PLP.Fitness>
41.3360

> <Gold.PLP.PLP>
-30.8541

> <Gold.PLP.part.hbond>
-3.0000

> <Gold.PLP.part.metal>
0.0000

> <Gold.PLP.part.buried>
-3.9370

> <Gold.PLP.part.nonpolar>
-24.6451

> <Gold.PLP.part.repulsive>
0.1846

> <Gold.PLP.ligand.clash>
0.0000

> <Gold.PLP.ligand.torsion>
0.7434

> <Gold.PLP.Chemscore.Hbond>
3.9825

> <Gold.PLP.Chemscore.CHOScore>
0.0000

> <Gold.PLP.Chemscore.Metal>
0.0000

> <Gold.Chemscore.Hbonds>
donor molecule, donor type, donor heavy atom, donor atom, acceptor molecule, acceptor atom, score
      L1  H     3    24       P1 10175  1.00
      L1  H    12    34       P1 10175  1.00
      L1  H    22    46       P1 10957  1.82

> <Gold.PLP.Chemscore.Internal.Correction>
0.0213

> <Gold.Rescore>
     Score         DG    S(hbond)    S(metal)    S(lipo)     H(rot)  DE(clash)    DE(int)     intcor
     16.37     -18.75       2.76        0.00      67.31       1.50       0.09       2.29       ----

> <Gold.Chemscore.Fitness>
16.3732

> <Gold.Chemscore.DG>
-18.7493

> <Gold.Chemscore.ZeroCoef>
-5.4800

> <Gold.Chemscore.Hbond>
2.7618

> <Gold.Chemscore.Metal>
0.0000

> <Gold.Chemscore.Lipo>
67.3089

> <Gold.Chemscore.Internal_Hbond>
0.0000

> <Gold.Chemscore.DEClash>
0.0859

> <Gold.Chemscore.DEInternal>
2.2902

> <Gold.Chemscore.Rot>
1.4962

> <Gold.Chemscore.Internal.Correction>
   9.000000E+99

> <Gold.Chemscore.Hbonds>
donor molecule, donor type, donor heavy atom, donor atom, acceptor molecule, acceptor atom, score
      L1  H     3    24       P1 10175  0.28
      L1  H    12    34       P1 10175  1.00
      L1  H    22    46       P1 10957  0.84

> <Gold.Chemscore.Hbond.Weighted>
-9.2245

> <Gold.Chemscore.Metal.Weighted>
-0.0000

> <Gold.Chemscore.Lipo.Weighted>
-7.8751

> <Gold.Chemscore.Internal_Hbond.Weighted>
0.0000

> <Gold.Chemscore.DEClash.Weighted>
0.0859

> <Gold.Chemscore.DEInternal.Weighted>
2.2902

> <Gold.Chemscore.Rot.Weighted>
3.8303

> <Gold.Chemscore.Internal.Correction.Weighted>
   9.000000E+99

> <Gold.Protein.RotatedTorsions>
[ 6907 6896 6895 6894 ] final   92.42 input  -60.11 | X-H torsion
[ 7974 7965 7964 7962 ] final   61.16 input  175.53 | X-H torsion
[ 8008 7997 7996 7995 ] final  -91.27 input   59.86 | X-H torsion
[ 10167 10162 10161 10158 ] final -155.54 input  -65.29 | X-H torsion
[ 10718 10713 10712 10709 ] final    5.25 input   66.30 | X-H torsion
[ 10763 10752 10751 10750 ] final    0.74 input  -60.55 | X-H torsion
[ 11005 11000 10999 10996 ] final  116.78 input  -57.11 | X-H torsion

> <Gold.Protein.ActiveResidues>
 VAL166  LYS551  ARG553  GLY616  TRP617  ASP618  TYR619  PRO620  LYS621  CYS622 
 ASP623  PHE694  ASN695  SER759  ASP760  ASP761  ALA762  ILE779  LEU786  VAL792 
 PHE793  MET794  SER795  GLU796  ALA797  LYS798  CYS799  TRP800  GLU811  SER814 

> <Gold.Protein.RotatedAtoms>
  152.5452  134.1505  159.8516 H   0  0  0  0  0  0  0  0  0  0  0  0  # atno 6907 bound_to 6896
  151.1533  133.4886  159.2602 H   0  0  0  0  0  0  0  0  0  0  0  0  # atno 6908 bound_to 6896
  151.1450  135.0209  159.8697 H   0  0  0  0  0  0  0  0  0  0  0  0  # atno 6909 bound_to 6896
  145.8879  139.3490  143.0667 H   0  0  0  0  0  0  0  0  0  0  0  0  # atno 7974 bound_to 7965
  154.7087  140.0521  157.0529 H   0  0  0  0  0  0  0  0  0  0  0  0  # atno 8008 bound_to 7997
  155.0585  140.3187  155.4649 H   0  0  0  0  0  0  0  0  0  0  0  0  # atno 8009 bound_to 7997
  156.2782  140.2103  156.5712 H   0  0  0  0  0  0  0  0  0  0  0  0  # atno 8010 bound_to 7997
  139.6922  143.9401  152.2390 H   0  0  0  0  0  0  0  0  0  0  0  0  # atno 10167 bound_to 10162
  156.9046  130.5734  149.5647 H   0  0  0  0  0  0  0  0  0  0  0  0  # atno 10718 bound_to 10713
  153.3169  135.6966  153.7065 H   0  0  0  0  0  0  0  0  0  0  0  0  # atno 10763 bound_to 10752
  153.5921  135.3478  155.2915 H   0  0  0  0  0  0  0  0  0  0  0  0  # atno 10764 bound_to 10752
  154.8588  135.4320  154.2322 H   0  0  0  0  0  0  0  0  0  0  0  0  # atno 10765 bound_to 10752
  139.9052  134.9602  156.7251 H   0  0  0  0  0  0  0  0  0  0  0  0  # atno 11005 bound_to 11000
  145.8944  140.9283  143.0535 LP  0  0  0  0  0  0  0  0  0  0  0  0  # atno 17320 bound_to 7965
  144.6729  140.0949  143.7463 LP  0  0  0  0  0  0  0  0  0  0  0  0  # atno 17321 bound_to 7965
  139.9220  144.6794  150.8451 LP  0  0  0  0  0  0  0  0  0  0  0  0  # atno 17342 bound_to 10162
  140.7686  143.3368  151.2292 LP  0  0  0  0  0  0  0  0  0  0  0  0  # atno 17343 bound_to 10162
  156.0565  130.5625  150.9102 LP  0  0  0  0  0  0  0  0  0  0  0  0  # atno 17370 bound_to 10713
  157.6005  131.0941  150.8968 LP  0  0  0  0  0  0  0  0  0  0  0  0  # atno 17371 bound_to 10713
  140.6969  133.9340  155.8000 LP  0  0  0  0  0  0  0  0  0  0  0  0  # atno 17394 bound_to 11000
  141.0400  134.0635  157.3913 LP  0  0  0  0  0  0  0  0  0  0  0  0  # atno 17395 bound_to 11000

$$$$
