AV-unprocessed.smi:2201|AV-procd|sdf|8928|dock9
  -GOLD-   2272012143D 1   1.00000     0.00000
 Structure written by MMmdl.
 30 30  0  0  0  0  0  0  0  0  2 V2000
  152.8624  142.9351  159.6798 C   0  0  0  0  0  0  0  0  0  0  0  0
  151.8407  143.5808  158.7147 C   0  0  0  0  0  0  0  0  0  0  0  0
  150.9619  144.5568  159.5307 C   0  0  0  0  0  0  0  0  0  0  0  0
  152.6253  144.3615  157.6356 C   0  0  0  0  0  0  0  0  0  0  0  0
  150.9595  142.4853  158.0505 C   0  0  0  0  0  0  0  0  0  0  0  0
  149.7300  142.5694  158.1071 O   0  0  0  0  0  0  0  0  0  0  0  0
  151.6919  141.5091  157.4555 N   0  5  0  0  0  0  0  0  0  0  0  0
  151.2366  140.9241  156.3373 C   0  0  0  0  0  0  0  0  0  0  0  0
  151.6730  139.7357  155.9063 N   0  0  0  0  0  0  0  0  0  0  0  0
  151.0703  139.3150  154.7169 C   0  0  0  0  0  0  0  0  0  0  0  0
  151.4621  138.0047  154.0930 C   0  0  0  0  0  0  0  0  0  0  0  0
  151.0878  136.8180  154.9886 C   0  0  0  0  0  0  0  0  0  0  0  0
  150.0601  136.0517  154.6098 N   0  0  0  0  0  0  0  0  0  0  0  0
  151.7080  136.6075  156.0289 O   0  0  0  0  0  0  0  0  0  0  0  0
  150.1345  140.2010  154.2481 C   0  0  0  0  0  0  0  0  0  0  0  0
  149.9955  141.5963  155.2785 S   0  0  0  0  0  0  0  0  0  0  0  0
  153.4895  143.6903  160.1544 H   0  0  0  0  0  0  0  0  0  0  0  0
  153.5288  142.2455  159.1598 H   0  0  0  0  0  0  0  0  0  0  0  0
  152.3670  142.3810  160.4786 H   0  0  0  0  0  0  0  0  0  0  0  0
  150.3443  144.0256  160.2562 H   0  0  0  0  0  0  0  0  0  0  0  0
  150.2948  145.1392  158.8939 H   0  0  0  0  0  0  0  0  0  0  0  0
  151.5745  145.2695  160.0837 H   0  0  0  0  0  0  0  0  0  0  0  0
  153.3142  145.0748  158.0889 H   0  0  0  0  0  0  0  0  0  0  0  0
  151.9656  144.9303  156.9793 H   0  0  0  0  0  0  0  0  0  0  0  0
  153.2156  143.6913  157.0095 H   0  0  0  0  0  0  0  0  0  0  0  0
  150.9786  137.8887  153.1220 H   0  0  0  0  0  0  0  0  0  0  0  0
  152.5360  137.9733  153.9063 H   0  0  0  0  0  0  0  0  0  0  0  0
  149.7677  135.2792  155.1907 H   0  0  0  0  0  0  0  0  0  0  0  0
  149.5620  136.2666  153.7584 H   0  0  0  0  0  0  0  0  0  0  0  0
  149.5231  140.1200  153.3623 H   0  0  0  0  0  0  0  0  0  0  0  0
  1  2  1  0  0  0  0
  1 17  1  0  0  0  0
  1 18  1  0  0  0  0
  1 19  1  0  0  0  0
  2  3  1  0  0  0  0
  2  4  1  0  0  0  0
  2  5  1  0  0  0  0
  3 20  1  0  0  0  0
  3 21  1  0  0  0  0
  3 22  1  0  0  0  0
  4 23  1  0  0  0  0
  4 24  1  0  0  0  0
  4 25  1  0  0  0  0
  5  6  2  0  0  0  0
  5  7  1  0  0  0  0
  7  8  1  0  0  0  0
  8 16  1  0  0  0  0
  8  9  2  0  0  0  0
  9 10  1  0  0  0  0
 10 11  1  0  0  0  0
 10 15  2  0  0  0  0
 11 12  1  0  0  0  0
 11 26  1  0  0  0  0
 11 27  1  0  0  0  0
 12 13  1  0  0  0  0
 12 14  2  0  0  0  0
 13 28  1  0  0  0  0
 13 29  1  0  0  0  0
 15 16  1  0  0  0  0
 15 30  1  0  0  0  0
M  CHG  1   7  -1
M  END
> <s_m_source_file>
AV-unprocessed.smi

> <i_m_source_file_index>
2201

> <i_lp_mmshare_version>
43012

> <i_f3d_flags>
0

> <s_epik_input>
W0NIM11DKFtDSDNdKShbQ0gzXSlDKD1PKVtOSF1jMW5jKFtjSF1zMSlbQ0gyXUMoPU8pW05IMl0=

> <s_epik_cmdline>
J2VwaWtfcHl0aG9uJywgJy1waCcsICc3LjAnLCAnLXRuJywgJzgnLCAnLW1hJywgJzIwMCcsICctbWV0YWxfYmluZGluZycsICctaW1hZScsICc8aW5maWxlLm1hZT4nLCAnLW9tYWUnLCAnPG91dGZpbGUubWFlPic=

> <r_lp_tautomer_probability>
1

> <r_epik_Ionization_Penalty>
5.6718

> <r_epik_Ionization_Penalty_Charging>
5.12968

> <r_epik_Ionization_Penalty_Neutral>
0.54212

> <r_epik_State_Penalty>
5.12958

> <r_epik_Charging_Adjusted_Penalty>
10.2593

> <i_epik_Tot_Q>
-1

> <i_epik_Tot_abs_Q>
1

> <r_epik_Metal_State_Penalty>
1.2135

> <b_epik_Metal_Only>
1

> <s_lp_Force_Field>
OPLS_2005

> <r_lp_Energy>
3.19374

> <b_lp_Chiralities_Consistent>
1

> <s_lp_Variant>
AV-unprocessed.smi:2201-2

> <Gold.Version>
5.8.1

> <Gold.Id.Protein>
6NUR|6NUR_protein|mol2

> <Gold.PLP.Fitness>
41.8373

> <Gold.PLP.PLP>
-34.0589

> <Gold.PLP.part.hbond>
-2.0035

> <Gold.PLP.part.metal>
0.0000

> <Gold.PLP.part.buried>
-1.8091

> <Gold.PLP.part.nonpolar>
-29.6332

> <Gold.PLP.part.repulsive>
0.1933

> <Gold.PLP.ligand.clash>
0.0000

> <Gold.PLP.ligand.torsion>
0.6070

> <Gold.PLP.Chemscore.Hbond>
1.9920

> <Gold.PLP.Chemscore.CHOScore>
1.0000

> <Gold.PLP.Chemscore.Metal>
0.0000

> <Gold.Chemscore.Hbonds>
donor molecule, donor type, donor heavy atom, donor atom, acceptor molecule, acceptor atom, score
      L1  H    13    29       P1  7948  1.00
      P1  H 10752 10765       L1    14  0.55
      L1  C    15    30       P1  7957  1.00

> <Gold.PLP.Chemscore.Internal.Correction>
0.0165

> <Gold.Rescore>
     Score         DG    S(hbond)    S(metal)    S(lipo)     H(rot)  DE(clash)    DE(int)     intcor
     12.10     -13.29       0.94        0.00      81.06       1.88       0.41       0.78       ----

> <Gold.Chemscore.Fitness>
12.0983

> <Gold.Chemscore.DG>
-13.2880

> <Gold.Chemscore.ZeroCoef>
-5.4800

> <Gold.Chemscore.Hbond>
0.9392

> <Gold.Chemscore.Metal>
0.0000

> <Gold.Chemscore.Lipo>
81.0639

> <Gold.Chemscore.Internal_Hbond>
0.0000

> <Gold.Chemscore.DEClash>
0.4060

> <Gold.Chemscore.DEInternal>
0.7837

> <Gold.Chemscore.Rot>
1.8802

> <Gold.Chemscore.Internal.Correction>
   9.000000E+99

> <Gold.Chemscore.Hbonds>
donor molecule, donor type, donor heavy atom, donor atom, acceptor molecule, acceptor atom, score
      L1  H    13    29       P1  7948  0.59
      P1  H 10752 10765       L1    14  0.04

> <Gold.Chemscore.Hbond.Weighted>
-3.1368

> <Gold.Chemscore.Metal.Weighted>
-0.0000

> <Gold.Chemscore.Lipo.Weighted>
-9.4845

> <Gold.Chemscore.Internal_Hbond.Weighted>
0.0000

> <Gold.Chemscore.DEClash.Weighted>
0.4060

> <Gold.Chemscore.DEInternal.Weighted>
0.7837

> <Gold.Chemscore.Rot.Weighted>
4.8132

> <Gold.Chemscore.Internal.Correction.Weighted>
   9.000000E+99

> <Gold.Protein.RotatedTorsions>
[ 6907 6896 6895 6894 ] final  167.63 input  -60.11 | X-H torsion
[ 7974 7965 7964 7962 ] final  122.07 input  175.53 | X-H torsion
[ 8008 7997 7996 7995 ] final -118.62 input   59.86 | X-H torsion
[ 10167 10162 10161 10158 ] final -178.36 input  -65.29 | X-H torsion
[ 10718 10713 10712 10709 ] final   60.19 input   66.30 | X-H torsion
[ 10763 10752 10751 10750 ] final -149.81 input  -60.55 | X-H torsion
[ 11005 11000 10999 10996 ] final  -87.95 input  -57.11 | X-H torsion

> <Gold.Protein.ActiveResidues>
 VAL166  LYS551  ARG553  GLY616  TRP617  ASP618  TYR619  PRO620  LYS621  CYS622 
 ASP623  PHE694  ASN695  SER759  ASP760  ASP761  ALA762  ILE779  LEU786  VAL792 
 PHE793  MET794  SER795  GLU796  ALA797  LYS798  CYS799  TRP800  GLU811  SER814 

> <Gold.Protein.RotatedAtoms>
  151.8602  133.3456  159.3701 H   0  0  0  0  0  0  0  0  0  0  0  0  # atno 6907 bound_to 6896
  150.7181  134.5213  159.5664 H   0  0  0  0  0  0  0  0  0  0  0  0  # atno 6908 bound_to 6896
  152.2725  134.7918  160.0462 H   0  0  0  0  0  0  0  0  0  0  0  0  # atno 6909 bound_to 6896
  145.1119  139.3447  143.4759 H   0  0  0  0  0  0  0  0  0  0  0  0  # atno 7974 bound_to 7965
  155.1026  140.0396  157.2701 H   0  0  0  0  0  0  0  0  0  0  0  0  # atno 8008 bound_to 7997
  154.6746  140.2620  155.6946 H   0  0  0  0  0  0  0  0  0  0  0  0  # atno 8009 bound_to 7997
  156.2672  140.2791  156.1268 H   0  0  0  0  0  0  0  0  0  0  0  0  # atno 8010 bound_to 7997
  139.5436  144.2296  152.0944 H   0  0  0  0  0  0  0  0  0  0  0  0  # atno 10167 bound_to 10162
  157.5734  130.8925  149.9306 H   0  0  0  0  0  0  0  0  0  0  0  0  # atno 10718 bound_to 10713
  154.8156  135.3300  154.7185 H   0  0  0  0  0  0  0  0  0  0  0  0  # atno 10763 bound_to 10752
  153.7827  135.6917  153.4890 H   0  0  0  0  0  0  0  0  0  0  0  0  # atno 10764 bound_to 10752
  153.1969  135.4530  155.0166 H   0  0  0  0  0  0  0  0  0  0  0  0  # atno 10765 bound_to 10752
  141.1609  133.7541  156.9380 H   0  0  0  0  0  0  0  0  0  0  0  0  # atno 11005 bound_to 11000
  146.3526  140.1041  142.8606 LP  0  0  0  0  0  0  0  0  0  0  0  0  # atno 17320 bound_to 7965
  145.0838  140.9238  143.4810 LP  0  0  0  0  0  0  0  0  0  0  0  0  # atno 17321 bound_to 7965
  140.1779  144.4873  150.6544 LP  0  0  0  0  0  0  0  0  0  0  0  0  # atno 17342 bound_to 10162
  140.6675  143.2273  151.5706 LP  0  0  0  0  0  0  0  0  0  0  0  0  # atno 17343 bound_to 10162
  156.0779  130.3676  150.0640 LP  0  0  0  0  0  0  0  0  0  0  0  0  # atno 17370 bound_to 10713
  156.8790  130.9550  151.3601 LP  0  0  0  0  0  0  0  0  0  0  0  0  # atno 17371 bound_to 10713
  140.1341  134.9337  157.2377 LP  0  0  0  0  0  0  0  0  0  0  0  0  # atno 17394 bound_to 11000
  140.2917  134.3233  155.7313 LP  0  0  0  0  0  0  0  0  0  0  0  0  # atno 17395 bound_to 11000

$$$$
