AV-unprocessed.smi:2487|AV-procd|sdf|9791|dock1
  -GOLD-   2272013433D 1   1.00000     0.00000
 Structure written by MMmdl.
 30 31  0  0  0  0  0  0  0  0  1 V2000
  146.8905  139.0619  152.2910 C   0  0  0  0  0  0  0  0  0  0  0  0
  148.0476  138.7874  153.1288 N   0  0  0  0  0  0  0  0  0  0  0  0
  148.5419  139.6391  154.0395 C   0  0  0  0  0  0  0  0  0  0  0  0
  148.0508  140.7484  154.2529 O   0  0  0  0  0  0  0  0  0  0  0  0
  149.7580  139.1514  154.8393 C   0  0  2  0  0  0  0  0  0  0  0  0
  150.2703  140.2030  155.8495 C   0  0  0  0  0  0  0  0  0  0  0  0
  151.4752  139.7257  156.5159 N   0  0  0  0  0  0  0  0  0  0  0  0
  151.8886  140.4299  157.6308 C   0  0  0  0  0  0  0  0  0  0  0  0
  151.2296  141.5561  157.9310 N   0  0  0  0  0  0  0  0  0  0  0  0
  151.6417  142.2325  159.0254 C   0  0  0  0  0  0  0  0  0  0  0  0
  152.7159  141.7746  159.8144 C   0  0  0  0  0  0  0  0  0  0  0  0
  153.2454  142.6343  161.2134 Cl  0  0  0  0  0  0  0  0  0  0  0  0
  153.3350  140.5779  159.4009 C   0  0  0  0  0  0  0  0  0  0  0  0
  152.9172  139.9073  158.3049 N   0  0  0  0  0  0  0  0  0  0  0  0
  152.5109  139.3232  155.5743 C   0  0  0  0  0  0  0  0  0  0  0  0
  151.9515  138.2937  154.5793 C   0  0  0  0  0  0  0  0  0  0  0  0
  150.8086  138.8352  153.9253 O   0  0  0  0  0  0  0  0  0  0  0  0
  146.6414  138.1799  151.7009 H   0  0  0  0  0  0  0  0  0  0  0  0
  147.0972  139.8847  151.6058 H   0  0  0  0  0  0  0  0  0  0  0  0
  146.0216  139.3223  152.8969 H   0  0  0  0  0  0  0  0  0  0  0  0
  148.5065  137.8957  153.0092 H   0  0  0  0  0  0  0  0  0  0  0  0
  149.4596  138.2453  155.3696 H   0  0  0  0  0  0  0  0  0  0  0  0
  150.4897  141.1436  155.3413 H   0  0  0  0  0  0  0  0  0  0  0  0
  149.5046  140.4119  156.5982 H   0  0  0  0  0  0  0  0  0  0  0  0
  151.1117  143.1409  159.2706 H   0  0  0  0  0  0  0  0  0  0  0  0
  154.1654  140.1571  159.9484 H   0  0  0  0  0  0  0  0  0  0  0  0
  152.8756  140.2014  155.0401 H   0  0  0  0  0  0  0  0  0  0  0  0
  153.3578  138.8995  156.1151 H   0  0  0  0  0  0  0  0  0  0  0  0
  152.7046  138.0457  153.8314 H   0  0  0  0  0  0  0  0  0  0  0  0
  151.6869  137.3647  155.0872 H   0  0  0  0  0  0  0  0  0  0  0  0
  1  2  1  0  0  0  0
  1 18  1  0  0  0  0
  1 19  1  0  0  0  0
  1 20  1  0  0  0  0
  2  3  1  0  0  0  0
  2 21  1  0  0  0  0
  3  4  2  0  0  0  0
  3  5  1  0  0  0  0
  5 17  1  0  0  0  0
  5  6  1  0  0  0  0
  5 22  1  0  0  0  0
  6  7  1  0  0  0  0
  6 23  1  0  0  0  0
  6 24  1  0  0  0  0
  7  8  1  0  0  0  0
  7 15  1  0  0  0  0
  8 14  1  0  0  0  0
  8  9  2  0  0  0  0
  9 10  1  0  0  0  0
 10 11  2  0  0  0  0
 10 25  1  0  0  0  0
 11 12  1  0  0  0  0
 11 13  1  0  0  0  0
 13 14  2  0  0  0  0
 13 26  1  0  0  0  0
 15 16  1  0  0  0  0
 15 27  1  0  0  0  0
 15 28  1  0  0  0  0
 16 17  1  0  0  0  0
 16 29  1  0  0  0  0
 16 30  1  0  0  0  0
M  END
> <s_m_source_file>
AV-unprocessed.smi

> <i_m_source_file_index>
2487

> <i_lp_mmshare_version>
43012

> <i_f3d_flags>
0

> <s_epik_input>
W0NIM11bTkhdQyg9TylbQ0BASF0xW0NIMl1OKFtDSDJdW0NIMl1PMSljMm5bY0hdYyhDbClbY0hdbjI=

> <s_epik_cmdline>
J2VwaWtfcHl0aG9uJywgJy1waCcsICc3LjAnLCAnLXRuJywgJzgnLCAnLW1hJywgJzIwMCcsICctbWV0YWxfYmluZGluZycsICctaW1hZScsICc8aW5maWxlLm1hZT4nLCAnLW9tYWUnLCAnPG91dGZpbGUubWFlPic=

> <r_lp_tautomer_probability>
1

> <r_epik_Ionization_Penalty>
1.03229e-07

> <r_epik_Ionization_Penalty_Charging>
0

> <r_epik_Ionization_Penalty_Neutral>
1.03229e-07

> <r_epik_State_Penalty>
-0

> <r_epik_Charging_Adjusted_Penalty>
0

> <i_epik_Tot_Q>
0

> <i_epik_Tot_abs_Q>
0

> <r_epik_Metal_State_Penalty>
-0

> <b_epik_Metal_Only>
0

> <s_lp_Force_Field>
OPLS_2005

> <r_lp_Energy>
13.8042

> <b_lp_Chiralities_Consistent>
1

> <s_lp_Variant>
AV-unprocessed.smi:2487-1

> <Gold.Version>
5.8.1

> <Gold.Id.Protein>
6NUR|6NUR_protein|mol2

> <Gold.PLP.Fitness>
38.2864

> <Gold.PLP.PLP>
-30.5564

> <Gold.PLP.part.hbond>
-3.9649

> <Gold.PLP.part.metal>
0.0000

> <Gold.PLP.part.buried>
-0.1930

> <Gold.PLP.part.nonpolar>
-26.1150

> <Gold.PLP.part.repulsive>
0.4305

> <Gold.PLP.ligand.clash>
0.0000

> <Gold.PLP.ligand.torsion>
0.1549

> <Gold.PLP.Chemscore.Hbond>
2.5850

> <Gold.PLP.Chemscore.CHOScore>
0.0000

> <Gold.PLP.Chemscore.Metal>
0.0000

> <Gold.Chemscore.Hbonds>
donor molecule, donor type, donor heavy atom, donor atom, acceptor molecule, acceptor atom, score
      L1  H     2    21       P1  7948  0.94
      P1  H  7989  7998       L1    17  0.47
      P1  H  7997  8009       L1    14  0.81

> <Gold.PLP.Chemscore.Internal.Correction>
0.2848

> <Gold.Rescore>
     Score         DG    S(hbond)    S(metal)    S(lipo)     H(rot)  DE(clash)    DE(int)     intcor
     15.28     -15.75       1.43        0.00      76.26       1.34       0.05       0.43       ----

> <Gold.Chemscore.Fitness>
15.2787

> <Gold.Chemscore.DG>
-15.7493

> <Gold.Chemscore.ZeroCoef>
-5.4800

> <Gold.Chemscore.Hbond>
1.4278

> <Gold.Chemscore.Metal>
0.0000

> <Gold.Chemscore.Lipo>
76.2586

> <Gold.Chemscore.Internal_Hbond>
0.0000

> <Gold.Chemscore.DEClash>
0.0451

> <Gold.Chemscore.DEInternal>
0.4254

> <Gold.Chemscore.Rot>
1.3366

> <Gold.Chemscore.Internal.Correction>
   9.000000E+99

> <Gold.Chemscore.Hbonds>
donor molecule, donor type, donor heavy atom, donor atom, acceptor molecule, acceptor atom, score
      L1  H     2    21       P1  7948  0.86
      P1  H  7989  7998       L1    17  0.03
      P1  H  7997  8009       L1    14  0.16

> <Gold.Chemscore.Hbond.Weighted>
-4.7687

> <Gold.Chemscore.Metal.Weighted>
-0.0000

> <Gold.Chemscore.Lipo.Weighted>
-8.9223

> <Gold.Chemscore.Internal_Hbond.Weighted>
0.0000

> <Gold.Chemscore.DEClash.Weighted>
0.0451

> <Gold.Chemscore.DEInternal.Weighted>
0.4254

> <Gold.Chemscore.Rot.Weighted>
3.4216

> <Gold.Chemscore.Internal.Correction.Weighted>
   9.000000E+99

> <Gold.Protein.RotatedTorsions>
[ 6907 6896 6895 6894 ] final   27.34 input  -60.11 | X-H torsion
[ 7974 7965 7964 7962 ] final -148.63 input  175.53 | X-H torsion
[ 8008 7997 7996 7995 ] final  160.86 input   59.86 | X-H torsion
[ 10167 10162 10161 10158 ] final  -73.56 input  -65.29 | X-H torsion
[ 10718 10713 10712 10709 ] final   70.01 input   66.30 | X-H torsion
[ 10763 10752 10751 10750 ] final  -76.09 input  -60.55 | X-H torsion
[ 11005 11000 10999 10996 ] final  131.93 input  -57.11 | X-H torsion

> <Gold.Protein.ActiveResidues>
 VAL166  LYS551  ARG553  GLY616  TRP617  ASP618  TYR619  PRO620  LYS621  CYS622 
 ASP623  PHE694  ASN695  SER759  ASP760  ASP761  ALA762  ILE779  LEU786  VAL792 
 PHE793  MET794  SER795  GLU796  ALA797  LYS798  CYS799  TRP800  GLU811  SER814 

> <Gold.Protein.RotatedAtoms>
  152.0008  134.9929  160.0564 H   0  0  0  0  0  0  0  0  0  0  0  0  # atno 6907 bound_to 6896
  152.1521  133.4523  159.4827 H   0  0  0  0  0  0  0  0  0  0  0  0  # atno 6908 bound_to 6896
  150.6877  134.2094  159.4396 H   0  0  0  0  0  0  0  0  0  0  0  0  # atno 6909 bound_to 6896
  144.8017  140.5171  143.5702 H   0  0  0  0  0  0  0  0  0  0  0  0  # atno 7974 bound_to 7965
  156.2143  140.1793  156.7623 H   0  0  0  0  0  0  0  0  0  0  0  0  # atno 8008 bound_to 7997
  154.5769  140.0673  156.9076 H   0  0  0  0  0  0  0  0  0  0  0  0  # atno 8009 bound_to 7997
  155.2572  140.3333  155.4279 H   0  0  0  0  0  0  0  0  0  0  0  0  # atno 8010 bound_to 7997
  140.5100  143.2346  151.7609 H   0  0  0  0  0  0  0  0  0  0  0  0  # atno 10167 bound_to 10162
  157.6377  130.9455  150.0593 H   0  0  0  0  0  0  0  0  0  0  0  0  # atno 10718 bound_to 10713
  154.4952  135.5809  153.6489 H   0  0  0  0  0  0  0  0  0  0  0  0  # atno 10763 bound_to 10752
  152.9869  135.6122  154.3074 H   0  0  0  0  0  0  0  0  0  0  0  0  # atno 10764 bound_to 10752
  154.2977  135.2847  155.2605 H   0  0  0  0  0  0  0  0  0  0  0  0  # atno 10765 bound_to 10752
  139.9760  134.9563  156.9509 H   0  0  0  0  0  0  0  0  0  0  0  0  # atno 11005 bound_to 11000
  145.5537  139.1477  143.3380 LP  0  0  0  0  0  0  0  0  0  0  0  0  # atno 17320 bound_to 7965
  146.2300  140.5674  142.8979 LP  0  0  0  0  0  0  0  0  0  0  0  0  # atno 17321 bound_to 7965
  139.4893  144.4404  151.9771 LP  0  0  0  0  0  0  0  0  0  0  0  0  # atno 17342 bound_to 10162
  140.3496  144.3105  150.5952 LP  0  0  0  0  0  0  0  0  0  0  0  0  # atno 17343 bound_to 10162
  156.1630  130.3644  149.9272 LP  0  0  0  0  0  0  0  0  0  0  0  0  # atno 17370 bound_to 10713
  156.7265  130.9027  151.3622 LP  0  0  0  0  0  0  0  0  0  0  0  0  # atno 17371 bound_to 10713
  140.5195  134.0922  155.7288 LP  0  0  0  0  0  0  0  0  0  0  0  0  # atno 17394 bound_to 11000
  141.1436  133.9094  157.2267 LP  0  0  0  0  0  0  0  0  0  0  0  0  # atno 17395 bound_to 11000

$$$$
