AV-unprocessed.smi:1251|AV-procd|sdf|5260|dock3
  -GOLD-   22720 4373D 1   1.00000     0.00000
 Structure written by MMmdl.
 38 39  0  0  0  0  0  0  0  0  2 V2000
  149.5838  132.9325  154.6746 C   0  0  0  0  0  0  0  0  0  0  0  0
  150.5730  134.0653  154.9695 C   0  0  0  0  0  0  0  0  0  0  0  0
  149.8974  135.4433  155.0042 C   0  0  0  0  0  0  0  0  0  0  0  0
  150.8599  136.5471  155.2912 C   0  0  0  0  0  0  0  0  0  0  0  0
  152.1340  136.3277  155.6258 N   0  0  0  0  0  0  0  0  0  0  0  0
  152.8211  137.5079  155.8693 N   0  0  0  0  0  0  0  0  0  0  0  0
  152.0541  138.5996  155.7396 C   0  0  0  0  0  0  0  0  0  0  0  0
  152.5328  139.8402  155.9303 N   0  5  0  0  0  0  0  0  0  0  0  0
  151.7369  140.8001  156.4541 C   0  0  0  0  0  0  0  0  0  0  0  0
  150.6661  141.1956  155.9881 O   0  0  0  0  0  0  0  0  0  0  0  0
  152.2151  141.3345  157.5871 N   0  0  0  0  0  0  0  0  0  0  0  0
  151.5828  142.3821  158.3871 C   0  0  2  0  0  0  0  0  0  0  0  0
  151.1700  143.5504  157.4771 C   0  0  0  0  0  0  0  0  0  0  0  0
  152.5429  142.8335  159.5045 C   0  0  2  0  0  0  0  0  0  0  0  0
  152.8797  141.7500  160.5313 C   0  0  0  0  0  0  0  0  0  0  0  0
  153.2868  142.5786  161.7276 C   0  0  0  0  0  0  0  0  0  0  0  0
  152.3014  143.7410  161.6516 C   0  0  0  0  0  0  0  0  0  0  0  0
  151.9635  143.8854  160.2742 O   0  0  0  0  0  0  0  0  0  0  0  0
  150.3906  138.2389  155.2774 S   0  0  0  0  0  0  0  0  0  0  0  0
  150.0918  131.9681  154.6578 H   0  0  0  0  0  0  0  0  0  0  0  0
  149.1030  133.0727  153.7061 H   0  0  0  0  0  0  0  0  0  0  0  0
  148.8028  132.8844  155.4339 H   0  0  0  0  0  0  0  0  0  0  0  0
  151.0641  133.8746  155.9244 H   0  0  0  0  0  0  0  0  0  0  0  0
  151.3583  134.0623  154.2126 H   0  0  0  0  0  0  0  0  0  0  0  0
  149.4074  135.6453  154.0507 H   0  0  0  0  0  0  0  0  0  0  0  0
  149.1164  135.4587  155.7650 H   0  0  0  0  0  0  0  0  0  0  0  0
  153.0953  140.9761  157.9266 H   0  0  0  0  0  0  0  0  0  0  0  0
  150.6859  141.9803  158.8617 H   0  0  0  0  0  0  0  0  0  0  0  0
  150.6691  144.3345  158.0453 H   0  0  0  0  0  0  0  0  0  0  0  0
  150.4810  143.2196  156.6994 H   0  0  0  0  0  0  0  0  0  0  0  0
  152.0363  143.9959  156.9869 H   0  0  0  0  0  0  0  0  0  0  0  0
  153.4713  143.2119  159.0729 H   0  0  0  0  0  0  0  0  0  0  0  0
  151.9948  141.1583  160.7709 H   0  0  0  0  0  0  0  0  0  0  0  0
  153.6642  141.0715  160.1948 H   0  0  0  0  0  0  0  0  0  0  0  0
  153.2306  142.0320  162.6692 H   0  0  0  0  0  0  0  0  0  0  0  0
  154.3079  142.9407  161.6011 H   0  0  0  0  0  0  0  0  0  0  0  0
  151.3923  143.5071  162.2068 H   0  0  0  0  0  0  0  0  0  0  0  0
  152.7179  144.6632  162.0574 H   0  0  0  0  0  0  0  0  0  0  0  0
  1  2  1  0  0  0  0
  1 20  1  0  0  0  0
  1 21  1  0  0  0  0
  1 22  1  0  0  0  0
  2  3  1  0  0  0  0
  2 23  1  0  0  0  0
  2 24  1  0  0  0  0
  3  4  1  0  0  0  0
  3 25  1  0  0  0  0
  3 26  1  0  0  0  0
  4 19  1  0  0  0  0
  4  5  2  0  0  0  0
  5  6  1  0  0  0  0
  6  7  2  0  0  0  0
  7  8  1  0  0  0  0
  7 19  1  0  0  0  0
  8  9  1  0  0  0  0
  9 10  2  0  0  0  0
  9 11  1  0  0  0  0
 11 12  1  0  0  0  0
 11 27  1  0  0  0  0
 12 13  1  0  0  0  0
 12 14  1  0  0  0  0
 12 28  1  0  0  0  0
 13 29  1  0  0  0  0
 13 30  1  0  0  0  0
 13 31  1  0  0  0  0
 14 18  1  0  0  0  0
 14 15  1  0  0  0  0
 14 32  1  0  0  0  0
 15 16  1  0  0  0  0
 15 33  1  0  0  0  0
 15 34  1  0  0  0  0
 16 17  1  0  0  0  0
 16 35  1  0  0  0  0
 16 36  1  0  0  0  0
 17 18  1  0  0  0  0
 17 37  1  0  0  0  0
 17 38  1  0  0  0  0
M  CHG  1   8  -1
M  END
> <s_m_source_file>
AV-unprocessed.smi

> <i_m_source_file_index>
1251

> <i_lp_mmshare_version>
43012

> <i_f3d_flags>
0

> <s_epik_input>
W0NIM11bQ0gyXVtDSDJdYzFubmMoczEpW05IXUMoPU8pW05IXVtDQEhdKFtDSDNdKVtDQEBIXTJbQ0gyXVtDSDJdW0NIMl1PMg==

> <s_epik_cmdline>
J2VwaWtfcHl0aG9uJywgJy1waCcsICc3LjAnLCAnLXRuJywgJzgnLCAnLW1hJywgJzIwMCcsICctbWV0YWxfYmluZGluZycsICctaW1hZScsICc8aW5maWxlLm1hZT4nLCAnLW9tYWUnLCAnPG91dGZpbGUubWFlPic=

> <r_lp_tautomer_probability>
1

> <r_epik_Ionization_Penalty>
4.22551

> <r_epik_Ionization_Penalty_Charging>
4.21437

> <r_epik_Ionization_Penalty_Neutral>
0.0111434

> <r_epik_State_Penalty>
4.21389

> <r_epik_Charging_Adjusted_Penalty>
8.42826

> <i_epik_Tot_Q>
-1

> <i_epik_Tot_abs_Q>
1

> <r_epik_Metal_State_Penalty>
0.69377

> <b_epik_Metal_Only>
1

> <s_lp_Force_Field>
OPLS_2005

> <r_lp_Energy>
11.2841

> <b_lp_Chiralities_Consistent>
1

> <s_lp_Variant>
AV-unprocessed.smi:1251-5

> <Gold.Version>
5.8.1

> <Gold.Id.Protein>
6NUR|6NUR_protein|mol2

> <Gold.PLP.Fitness>
43.3792

> <Gold.PLP.PLP>
-36.1311

> <Gold.PLP.part.hbond>
-3.0000

> <Gold.PLP.part.metal>
0.0000

> <Gold.PLP.part.buried>
-2.2871

> <Gold.PLP.part.nonpolar>
-29.5153

> <Gold.PLP.part.repulsive>
0.2557

> <Gold.PLP.ligand.clash>
0.0000

> <Gold.PLP.ligand.torsion>
0.9089

> <Gold.PLP.Chemscore.Hbond>
3.0000

> <Gold.PLP.Chemscore.CHOScore>
0.0000

> <Gold.PLP.Chemscore.Metal>
0.0000

> <Gold.Chemscore.Hbonds>
donor molecule, donor type, donor heavy atom, donor atom, acceptor molecule, acceptor atom, score
      P1  H  7997  8010       L1     8  2.00
      P1  H 10752 10765       L1     5  0.84

> <Gold.PLP.Chemscore.Internal.Correction>
0.0660

> <Gold.Rescore>
     Score         DG    S(hbond)    S(metal)    S(lipo)     H(rot)  DE(clash)    DE(int)     intcor
     13.50     -17.26       1.45        0.00      93.17       1.55       0.71       3.06       ----

> <Gold.Chemscore.Fitness>
13.4973

> <Gold.Chemscore.DG>
-17.2594

> <Gold.Chemscore.ZeroCoef>
-5.4800

> <Gold.Chemscore.Hbond>
1.4485

> <Gold.Chemscore.Metal>
0.0000

> <Gold.Chemscore.Lipo>
93.1739

> <Gold.Chemscore.Internal_Hbond>
0.0000

> <Gold.Chemscore.DEClash>
0.7058

> <Gold.Chemscore.DEInternal>
3.0563

> <Gold.Chemscore.Rot>
1.5469

> <Gold.Chemscore.Internal.Correction>
   9.000000E+99

> <Gold.Chemscore.Hbonds>
donor molecule, donor type, donor heavy atom, donor atom, acceptor molecule, acceptor atom, score
      P1  H  7997  8010       L1     8  0.81
      P1  H 10752 10765       L1     5  0.37

> <Gold.Chemscore.Hbond.Weighted>
-4.8381

> <Gold.Chemscore.Metal.Weighted>
-0.0000

> <Gold.Chemscore.Lipo.Weighted>
-10.9013

> <Gold.Chemscore.Internal_Hbond.Weighted>
0.0000

> <Gold.Chemscore.DEClash.Weighted>
0.7058

> <Gold.Chemscore.DEInternal.Weighted>
3.0563

> <Gold.Chemscore.Rot.Weighted>
3.9600

> <Gold.Chemscore.Internal.Correction.Weighted>
   9.000000E+99

> <Gold.Protein.RotatedTorsions>
[ 6907 6896 6895 6894 ] final -148.54 input  -60.11 | X-H torsion
[ 7974 7965 7964 7962 ] final -126.30 input  175.53 | X-H torsion
[ 8008 7997 7996 7995 ] final   78.70 input   59.86 | X-H torsion
[ 10167 10162 10161 10158 ] final   38.19 input  -65.29 | X-H torsion
[ 10718 10713 10712 10709 ] final  -46.59 input   66.30 | X-H torsion
[ 10763 10752 10751 10750 ] final -178.66 input  -60.55 | X-H torsion
[ 11005 11000 10999 10996 ] final   70.09 input  -57.11 | X-H torsion

> <Gold.Protein.ActiveResidues>
 VAL166  LYS551  ARG553  GLY616  TRP617  ASP618  TYR619  PRO620  LYS621  CYS622 
 ASP623  PHE694  ASN695  SER759  ASP760  ASP761  ALA762  ILE779  LEU786  VAL792 
 PHE793  MET794  SER795  GLU796  ALA797  LYS798  CYS799  TRP800  GLU811  SER814 

> <Gold.Protein.RotatedAtoms>
  151.1713  133.4782  159.2593 H   0  0  0  0  0  0  0  0  0  0  0  0  # atno 6907 bound_to 6896
  151.1353  135.0151  159.8611 H   0  0  0  0  0  0  0  0  0  0  0  0  # atno 6908 bound_to 6896
  152.5461  134.1612  159.8611 H   0  0  0  0  0  0  0  0  0  0  0  0  # atno 6909 bound_to 6896
  144.9887  140.7711  143.4567 H   0  0  0  0  0  0  0  0  0  0  0  0  # atno 7974 bound_to 7965
  155.8593  140.3454  155.5746 H   0  0  0  0  0  0  0  0  0  0  0  0  # atno 8008 bound_to 7997
  155.7951  140.0877  157.2007 H   0  0  0  0  0  0  0  0  0  0  0  0  # atno 8009 bound_to 7997
  154.4011  140.1476  156.3195 H   0  0  0  0  0  0  0  0  0  0  0  0  # atno 8010 bound_to 7997
  140.3960  144.1788  150.6132 H   0  0  0  0  0  0  0  0  0  0  0  0  # atno 10167 bound_to 10162
  156.2168  130.4164  149.9043 H   0  0  0  0  0  0  0  0  0  0  0  0  # atno 10718 bound_to 10713
  154.5449  135.2808  155.1061 H   0  0  0  0  0  0  0  0  0  0  0  0  # atno 10763 bound_to 10752
  154.2529  135.6336  153.5250 H   0  0  0  0  0  0  0  0  0  0  0  0  # atno 10764 bound_to 10752
  152.9988  135.5587  154.5999 H   0  0  0  0  0  0  0  0  0  0  0  0  # atno 10765 bound_to 10752
  139.9617  134.7049  156.0631 H   0  0  0  0  0  0  0  0  0  0  0  0  # atno 11005 bound_to 11000
  145.2317  139.2112  143.5039 LP  0  0  0  0  0  0  0  0  0  0  0  0  # atno 17320 bound_to 7965
  146.3426  140.2195  142.8591 LP  0  0  0  0  0  0  0  0  0  0  0  0  # atno 17321 bound_to 7965
  140.4790  143.2386  151.8982 LP  0  0  0  0  0  0  0  0  0  0  0  0  # atno 17342 bound_to 10162
  139.4786  144.5290  151.8694 LP  0  0  0  0  0  0  0  0  0  0  0  0  # atno 17343 bound_to 10162
  156.6703  130.8817  151.3561 LP  0  0  0  0  0  0  0  0  0  0  0  0  # atno 17370 bound_to 10713
  157.7067  130.9393  150.0955 LP  0  0  0  0  0  0  0  0  0  0  0  0  # atno 17371 bound_to 10713
  141.1295  133.6590  156.3425 LP  0  0  0  0  0  0  0  0  0  0  0  0  # atno 17394 bound_to 11000
  140.5485  134.6050  157.5401 LP  0  0  0  0  0  0  0  0  0  0  0  0  # atno 17395 bound_to 11000

$$$$
