AV-unprocessed.smi:1585|AV-procd|sdf|6370|dock2
  -GOLD-   22720 6593D 1   1.00000     0.00000
 Structure written by MMmdl.
 43 44  0  0  0  0  0  0  0  0  2 V2000
  150.4696  141.9372  156.2529 C   0  0  0  0  0  0  0  0  0  0  0  0
  150.1566  140.7100  155.4678 C   0  0  0  0  0  0  0  0  0  0  0  0
  149.0043  140.0039  155.2659 C   0  0  0  0  0  0  0  0  0  0  0  0
  149.4268  138.9397  154.4167 C   0  0  0  0  0  0  0  0  0  0  0  0
  148.6120  137.8951  153.9081 N   0  0  0  0  0  0  0  0  0  0  0  0
  147.2924  137.7082  154.0766 C   0  0  0  0  0  0  0  0  0  0  0  0
  146.5336  138.4690  154.6775 O   0  0  0  0  0  0  0  0  0  0  0  0
  146.8837  136.5702  153.4964 N   0  0  0  0  0  0  0  0  0  0  0  0
  145.5176  136.0567  153.5305 C   0  0  0  0  0  0  0  0  0  0  0  0
  144.7343  136.3956  152.2456 C   0  0  1  0  0  0  0  0  0  0  0  0
  144.4014  137.7695  152.2848 O   0  0  0  0  0  0  0  0  0  0  0  0
  145.5915  136.1564  150.9859 C   0  0  0  0  0  0  0  0  0  0  0  0
  145.5773  134.7389  150.5406 N   0  3  0  0  0  0  0  0  0  0  0  0
  146.2820  133.8434  151.4949 C   0  0  0  0  0  0  0  0  0  0  0  0
  146.3827  132.4104  150.9449 C   0  0  0  0  0  0  0  0  0  0  0  0
  144.9957  131.8543  150.5980 C   0  0  0  0  0  0  0  0  0  0  0  0
  144.2726  132.8106  149.6411 C   0  0  0  0  0  0  0  0  0  0  0  0
  144.2146  134.2336  150.2216 C   0  0  0  0  0  0  0  0  0  0  0  0
  150.7139  138.9993  154.1287 N   0  0  0  0  0  0  0  0  0  0  0  0
  151.1903  140.1317  154.7994 O   0  0  0  0  0  0  0  0  0  0  0  0
  149.5595  142.3885  156.6483 H   0  0  0  0  0  0  0  0  0  0  0  0
  150.9717  142.6778  155.6304 H   0  0  0  0  0  0  0  0  0  0  0  0
  151.1227  141.7013  157.0931 H   0  0  0  0  0  0  0  0  0  0  0  0
  148.0291  140.2260  155.6717 H   0  0  0  0  0  0  0  0  0  0  0  0
  149.1008  137.1916  153.3742 H   0  0  0  0  0  0  0  0  0  0  0  0
  147.5718  136.0026  153.0227 H   0  0  0  0  0  0  0  0  0  0  0  0
  145.5401  134.9797  153.7017 H   0  0  0  0  0  0  0  0  0  0  0  0
  145.0151  136.4862  154.3990 H   0  0  0  0  0  0  0  0  0  0  0  0
  143.8197  135.8057  152.1991 H   0  0  0  0  0  0  0  0  0  0  0  0
  144.0131  138.0078  151.4564 H   0  0  0  0  0  0  0  0  0  0  0  0
  145.2160  136.7991  150.1878 H   0  0  0  0  0  0  0  0  0  0  0  0
  146.6240  136.4637  151.1598 H   0  0  0  0  0  0  0  0  0  0  0  0
  147.2876  134.2224  151.6824 H   0  0  0  0  0  0  0  0  0  0  0  0
  145.7579  133.8451  152.4521 H   0  0  0  0  0  0  0  0  0  0  0  0
  147.0139  132.4031  150.0553 H   0  0  0  0  0  0  0  0  0  0  0  0
  146.8706  131.7643  151.6754 H   0  0  0  0  0  0  0  0  0  0  0  0
  145.0874  130.8660  150.1464 H   0  0  0  0  0  0  0  0  0  0  0  0
  144.4090  131.7296  151.5090 H   0  0  0  0  0  0  0  0  0  0  0  0
  144.7886  132.8279  148.6801 H   0  0  0  0  0  0  0  0  0  0  0  0
  143.2636  132.4468  149.4441 H   0  0  0  0  0  0  0  0  0  0  0  0
  143.6004  134.2445  151.1235 H   0  0  0  0  0  0  0  0  0  0  0  0
  143.7239  134.8862  149.5008 H   0  0  0  0  0  0  0  0  0  0  0  0
  146.1120  134.7108  149.6837 H   0  0  0  0  0  0  0  0  0  0  0  0
  1  2  1  0  0  0  0
  1 21  1  0  0  0  0
  1 22  1  0  0  0  0
  1 23  1  0  0  0  0
  2 20  1  0  0  0  0
  2  3  2  0  0  0  0
  3  4  1  0  0  0  0
  3 24  1  0  0  0  0
  4  5  1  0  0  0  0
  4 19  2  0  0  0  0
  5  6  1  0  0  0  0
  5 25  1  0  0  0  0
  6  7  2  0  0  0  0
  6  8  1  0  0  0  0
  8  9  1  0  0  0  0
  8 26  1  0  0  0  0
  9 10  1  0  0  0  0
  9 27  1  0  0  0  0
  9 28  1  0  0  0  0
 10 11  1  0  0  0  0
 10 12  1  0  0  0  0
 10 29  1  0  0  0  0
 11 30  1  0  0  0  0
 12 13  1  0  0  0  0
 12 31  1  0  0  0  0
 12 32  1  0  0  0  0
 13 18  1  0  0  0  0
 13 14  1  0  0  0  0
 13 43  1  0  0  0  0
 14 15  1  0  0  0  0
 14 33  1  0  0  0  0
 14 34  1  0  0  0  0
 15 16  1  0  0  0  0
 15 35  1  0  0  0  0
 15 36  1  0  0  0  0
 16 17  1  0  0  0  0
 16 37  1  0  0  0  0
 16 38  1  0  0  0  0
 17 18  1  0  0  0  0
 17 39  1  0  0  0  0
 17 40  1  0  0  0  0
 18 41  1  0  0  0  0
 18 42  1  0  0  0  0
 19 20  1  0  0  0  0
M  CHG  1  13   1
M  END
> <s_m_source_file>
AV-unprocessed.smi

> <i_m_source_file_index>
1585

> <i_lp_mmshare_version>
43012

> <i_f3d_flags>
0

> <s_epik_input>
W0NIM11jMVtjSF1jKG5vMSlbTkhdQyg9TylbTkhdW0NIMl1bQ0BIXShbT0hdKVtDSDJdTjJbQ0gyXVtDSDJdW0NIMl1bQ0gyXVtDSDJdMg==

> <s_epik_cmdline>
J2VwaWtfcHl0aG9uJywgJy1waCcsICc3LjAnLCAnLXRuJywgJzgnLCAnLW1hJywgJzIwMCcsICctbWV0YWxfYmluZGluZycsICctaW1hZScsICc8aW5maWxlLm1hZT4nLCAnLW9tYWUnLCAnPG91dGZpbGUubWFlPic=

> <r_epik_Ionization_Penalty>
0.00531443

> <r_epik_Ionization_Penalty_Charging>
0.0052814

> <r_epik_Ionization_Penalty_Neutral>
3.3027e-05

> <r_epik_State_Penalty>
0.00385383

> <r_epik_Charging_Adjusted_Penalty>
0.00913523

> <i_epik_Tot_Q>
1

> <i_epik_Tot_abs_Q>
1

> <r_epik_Metal_State_Penalty>
0.0139186

> <b_epik_Metal_Only>
0

> <s_lp_Force_Field>
OPLS_2005

> <r_lp_Energy>
18.0129

> <b_lp_Chiralities_Consistent>
1

> <s_lp_Variant>
AV-unprocessed.smi:1585-2

> <Gold.Version>
5.8.1

> <Gold.Id.Protein>
6NUR|6NUR_protein|mol2

> <Gold.PLP.Fitness>
46.7804

> <Gold.PLP.PLP>
-34.1021

> <Gold.PLP.part.hbond>
-6.3712

> <Gold.PLP.part.metal>
0.0000

> <Gold.PLP.part.buried>
-2.6396

> <Gold.PLP.part.nonpolar>
-25.5438

> <Gold.PLP.part.repulsive>
0.4421

> <Gold.PLP.ligand.clash>
0.0000

> <Gold.PLP.ligand.torsion>
0.5192

> <Gold.PLP.Chemscore.Hbond>
4.5520

> <Gold.PLP.Chemscore.CHOScore>
0.0000

> <Gold.PLP.Chemscore.Metal>
0.0000

> <Gold.Chemscore.Hbonds>
donor molecule, donor type, donor heavy atom, donor atom, acceptor molecule, acceptor atom, score
      L1  H     5    25       P1  7948  0.85
      L1  H     8    26       P1  7948  0.78
      L1  H    11    30       P1 10171  1.00
      L1  H    13    43       P1  7921  0.97
      P1  H  7989  7998       L1    20  0.75

> <Gold.PLP.Chemscore.Internal.Correction>
0.0607

> <Gold.Rescore>
     Score         DG    S(hbond)    S(metal)    S(lipo)     H(rot)  DE(clash)    DE(int)     intcor
     18.26     -20.32       3.84        0.00      71.76       2.50       0.42       1.65       ----

> <Gold.Chemscore.Fitness>
18.2603

> <Gold.Chemscore.DG>
-20.3222

> <Gold.Chemscore.ZeroCoef>
-5.4800

> <Gold.Chemscore.Hbond>
3.8424

> <Gold.Chemscore.Metal>
0.0000

> <Gold.Chemscore.Lipo>
71.7648

> <Gold.Chemscore.Internal_Hbond>
0.0000

> <Gold.Chemscore.DEClash>
0.4159

> <Gold.Chemscore.DEInternal>
1.6460

> <Gold.Chemscore.Rot>
2.4953

> <Gold.Chemscore.Internal.Correction>
   9.000000E+99

> <Gold.Chemscore.Hbonds>
donor molecule, donor type, donor heavy atom, donor atom, acceptor molecule, acceptor atom, score
      L1  H     5    25       P1  7948  0.83
      L1  H     8    26       P1  7948  0.78
      L1  H    11    30       P1 10171  1.00
      L1  H    13    43       P1  7921  0.43
      P1  H  7989  7998       L1    20  0.08

> <Gold.Chemscore.Hbond.Weighted>
-12.8337

> <Gold.Chemscore.Metal.Weighted>
-0.0000

> <Gold.Chemscore.Lipo.Weighted>
-8.3965

> <Gold.Chemscore.Internal_Hbond.Weighted>
0.0000

> <Gold.Chemscore.DEClash.Weighted>
0.4159

> <Gold.Chemscore.DEInternal.Weighted>
1.6460

> <Gold.Chemscore.Rot.Weighted>
6.3880

> <Gold.Chemscore.Internal.Correction.Weighted>
   9.000000E+99

> <Gold.Protein.RotatedTorsions>
[ 6907 6896 6895 6894 ] final   91.78 input  -60.11 | X-H torsion
[ 7974 7965 7964 7962 ] final   -5.89 input  175.53 | X-H torsion
[ 8008 7997 7996 7995 ] final  -37.16 input   59.86 | X-H torsion
[ 10167 10162 10161 10158 ] final -138.59 input  -65.29 | X-H torsion
[ 10718 10713 10712 10709 ] final -154.36 input   66.30 | X-H torsion
[ 10763 10752 10751 10750 ] final  -75.10 input  -60.55 | X-H torsion
[ 11005 11000 10999 10996 ] final  122.25 input  -57.11 | X-H torsion

> <Gold.Protein.ActiveResidues>
 VAL166  LYS551  ARG553  GLY616  TRP617  ASP618  TYR619  PRO620  LYS621  CYS622 
 ASP623  PHE694  ASN695  SER759  ASP760  ASP761  ALA762  ILE779  LEU786  VAL792 
 PHE793  MET794  SER795  GLU796  ALA797  LYS798  CYS799  TRP800  GLU811  SER814 

> <Gold.Protein.RotatedAtoms>
  152.5451  134.1604  159.8555 H   0  0  0  0  0  0  0  0  0  0  0  0  # atno 6907 bound_to 6896
  151.1623  133.4830  159.2601 H   0  0  0  0  0  0  0  0  0  0  0  0  # atno 6908 bound_to 6896
  151.1360  135.0166  159.8659 H   0  0  0  0  0  0  0  0  0  0  0  0  # atno 6909 bound_to 6896
  146.2343  140.2088  142.8335 H   0  0  0  0  0  0  0  0  0  0  0  0  # atno 7974 bound_to 7965
  154.4058  140.1611  156.2492 H   0  0  0  0  0  0  0  0  0  0  0  0  # atno 8008 bound_to 7997
  155.9134  140.3426  155.6093 H   0  0  0  0  0  0  0  0  0  0  0  0  # atno 8009 bound_to 7997
  155.7309  140.0780  157.2280 H   0  0  0  0  0  0  0  0  0  0  0  0  # atno 8010 bound_to 7997
  139.8463  143.7256  152.2660 H   0  0  0  0  0  0  0  0  0  0  0  0  # atno 10167 bound_to 10162
  156.4982  130.8379  151.2598 H   0  0  0  0  0  0  0  0  0  0  0  0  # atno 10718 bound_to 10713
  154.4820  135.5842  153.6396 H   0  0  0  0  0  0  0  0  0  0  0  0  # atno 10763 bound_to 10752
  152.9849  135.6092  154.3234 H   0  0  0  0  0  0  0  0  0  0  0  0  # atno 10764 bound_to 10752
  154.3126  135.2845  155.2538 H   0  0  0  0  0  0  0  0  0  0  0  0  # atno 10765 bound_to 10752
  139.9260  134.9641  156.8080 H   0  0  0  0  0  0  0  0  0  0  0  0  # atno 11005 bound_to 11000
  144.9723  140.8380  143.5448 LP  0  0  0  0  0  0  0  0  0  0  0  0  # atno 17320 bound_to 7965
  145.2071  139.2223  143.5162 LP  0  0  0  0  0  0  0  0  0  0  0  0  # atno 17321 bound_to 7965
  139.7509  144.7534  151.0508 LP  0  0  0  0  0  0  0  0  0  0  0  0  # atno 17342 bound_to 10162
  140.7792  143.4862  150.9953 LP  0  0  0  0  0  0  0  0  0  0  0  0  # atno 17343 bound_to 10162
  157.7466  130.9990  150.2875 LP  0  0  0  0  0  0  0  0  0  0  0  0  # atno 17370 bound_to 10713
  156.3359  130.3807  149.7451 LP  0  0  0  0  0  0  0  0  0  0  0  0  # atno 17371 bound_to 10713
  140.6335  133.9884  155.7673 LP  0  0  0  0  0  0  0  0  0  0  0  0  # atno 17394 bound_to 11000
  141.0818  134.0051  157.3375 LP  0  0  0  0  0  0  0  0  0  0  0  0  # atno 17395 bound_to 11000

$$$$
