AV-unprocessed.smi:847|AV-procd|sdf|3938|dock10
  -GOLD-   22720 1403D 1   1.00000     0.00000
 Structure written by MMmdl.
 46 47  0  0  0  0  0  0  0  0  1 V2000
  144.4425  147.7313  157.2295 C   0  0  0  0  0  0  0  0  0  0  0  0
  143.8155  146.6765  156.5215 O   0  0  0  0  0  0  0  0  0  0  0  0
  143.6402  145.5165  157.3178 C   0  0  0  0  0  0  0  0  0  0  0  0
  143.0141  144.4098  156.4642 C   0  0  0  0  0  0  0  0  0  0  0  0
  143.8341  144.1960  155.3193 O   0  0  0  0  0  0  0  0  0  0  0  0
  144.9968  143.4685  155.4680 C   0  0  0  0  0  0  0  0  0  0  0  0
  145.6706  143.0329  154.3090 C   0  0  0  0  0  0  0  0  0  0  0  0
  146.8608  142.2955  154.4530 C   0  0  0  0  0  0  0  0  0  0  0  0
  147.3375  142.0157  155.7506 C   0  0  0  0  0  0  0  0  0  0  0  0
  148.6268  141.2420  155.9617 C   0  0  0  0  0  0  0  0  0  0  0  0
  149.6889  142.0803  156.5053 N   0  0  0  0  0  0  0  0  0  0  0  0
  150.5784  141.7017  157.4354 C   0  0  0  0  0  0  0  0  0  0  0  0
  150.5522  140.6033  157.9922 O   0  0  0  0  0  0  0  0  0  0  0  0
  151.6714  142.7274  157.7906 C   0  0  1  0  0  0  0  0  0  0  0  0
  151.0373  144.0134  158.3444 C   0  0  0  0  0  0  0  0  0  0  0  0
  152.0746  144.5744  159.2988 C   0  0  0  0  0  0  0  0  0  0  0  0
  152.8261  143.3507  159.8211 C   0  0  0  0  0  0  0  0  0  0  0  0
  152.6183  142.2872  158.8346 N   0  0  0  0  0  0  0  0  0  0  0  0
  153.2682  141.0976  158.8725 C   0  0  0  0  0  0  0  0  0  0  0  0
  154.1876  140.8043  160.0605 C   0  0  0  0  0  0  0  0  0  0  0  0
  153.1650  140.2453  157.9900 O   0  0  0  0  0  0  0  0  0  0  0  0
  146.5907  142.4919  156.8483 C   0  0  0  0  0  0  0  0  0  0  0  0
  145.4486  143.1998  156.7188 N   0  0  0  0  0  0  0  0  0  0  0  0
  152.2597  142.9654  156.9023 H   0  0  0  0  0  0  0  0  0  0  0  0
  144.5529  148.5965  156.5759 H   0  0  0  0  0  0  0  0  0  0  0  0
  145.4358  147.4403  157.5734 H   0  0  0  0  0  0  0  0  0  0  0  0
  143.8482  148.0350  158.0924 H   0  0  0  0  0  0  0  0  0  0  0  0
  144.6122  145.1854  157.6860 H   0  0  0  0  0  0  0  0  0  0  0  0
  143.0145  145.7276  158.1864 H   0  0  0  0  0  0  0  0  0  0  0  0
  142.9049  143.4968  157.0521 H   0  0  0  0  0  0  0  0  0  0  0  0
  142.0194  144.7246  156.1443 H   0  0  0  0  0  0  0  0  0  0  0  0
  145.2839  143.2642  153.3275 H   0  0  0  0  0  0  0  0  0  0  0  0
  147.3980  141.9555  153.5802 H   0  0  0  0  0  0  0  0  0  0  0  0
  148.4505  140.4213  156.6576 H   0  0  0  0  0  0  0  0  0  0  0  0
  148.9327  140.7817  155.0205 H   0  0  0  0  0  0  0  0  0  0  0  0
  149.7851  143.0041  156.1088 H   0  0  0  0  0  0  0  0  0  0  0  0
  150.7738  144.7201  157.5569 H   0  0  0  0  0  0  0  0  0  0  0  0
  150.1274  143.7960  158.9071 H   0  0  0  0  0  0  0  0  0  0  0  0
  152.7646  145.2110  158.7434 H   0  0  0  0  0  0  0  0  0  0  0  0
  151.6388  145.1762  160.0967 H   0  0  0  0  0  0  0  0  0  0  0  0
  153.8824  143.5794  159.9689 H   0  0  0  0  0  0  0  0  0  0  0  0
  152.4080  143.0355  160.7782 H   0  0  0  0  0  0  0  0  0  0  0  0
  153.6507  140.9083  161.0035 H   0  0  0  0  0  0  0  0  0  0  0  0
  155.0418  141.4815  160.0648 H   0  0  0  0  0  0  0  0  0  0  0  0
  154.5705  139.7847  160.0065 H   0  0  0  0  0  0  0  0  0  0  0  0
  146.9200  142.3065  157.8602 H   0  0  0  0  0  0  0  0  0  0  0  0
  1  2  1  0  0  0  0
  1 25  1  0  0  0  0
  1 26  1  0  0  0  0
  1 27  1  0  0  0  0
  2  3  1  0  0  0  0
  3  4  1  0  0  0  0
  3 28  1  0  0  0  0
  3 29  1  0  0  0  0
  4  5  1  0  0  0  0
  4 30  1  0  0  0  0
  4 31  1  0  0  0  0
  5  6  1  0  0  0  0
  6 23  1  0  0  0  0
  6  7  2  0  0  0  0
  7  8  1  0  0  0  0
  7 32  1  0  0  0  0
  8  9  2  0  0  0  0
  8 33  1  0  0  0  0
  9 10  1  0  0  0  0
  9 22  1  0  0  0  0
 10 11  1  0  0  0  0
 10 34  1  0  0  0  0
 10 35  1  0  0  0  0
 11 12  1  0  0  0  0
 11 36  1  0  0  0  0
 12 13  2  0  0  0  0
 12 14  1  0  0  0  0
 14 24  1  0  0  0  0
 14 18  1  0  0  0  0
 14 15  1  0  0  0  0
 15 16  1  0  0  0  0
 15 37  1  0  0  0  0
 15 38  1  0  0  0  0
 16 17  1  0  0  0  0
 16 39  1  0  0  0  0
 16 40  1  0  0  0  0
 17 18  1  0  0  0  0
 17 41  1  0  0  0  0
 17 42  1  0  0  0  0
 18 19  1  0  0  0  0
 19 20  1  0  0  0  0
 19 21  2  0  0  0  0
 20 43  1  0  0  0  0
 20 44  1  0  0  0  0
 20 45  1  0  0  0  0
 22 23  2  0  0  0  0
 22 46  1  0  0  0  0
M  END
> <s_m_source_file>
AV-unprocessed.smi

> <i_m_source_file_index>
847

> <i_lp_mmshare_version>
43012

> <i_f3d_flags>
0

> <s_epik_input>
W0NIM11PW0NIMl1bQ0gyXU9jMVtjSF1bY0hdYyhbY0hdbjEpW0NIMl1bTkhdQyg9TylbQ0BASF0yW0NIMl1bQ0gyXVtDSDJdTjJDKD1PKVtDSDNd

> <s_epik_cmdline>
J2VwaWtfcHl0aG9uJywgJy1waCcsICc3LjAnLCAnLXRuJywgJzgnLCAnLW1hJywgJzIwMCcsICctbWV0YWxfYmluZGluZycsICctaW1hZScsICc8aW5maWxlLm1hZT4nLCAnLW9tYWUnLCAnPG91dGZpbGUubWFlPic=

> <r_lp_tautomer_probability>
1

> <r_epik_Ionization_Penalty>
6.04138e-05

> <r_epik_Ionization_Penalty_Charging>
0

> <r_epik_Ionization_Penalty_Neutral>
6.04138e-05

> <r_epik_State_Penalty>
-0

> <r_epik_Charging_Adjusted_Penalty>
0

> <i_epik_Tot_Q>
0

> <i_epik_Tot_abs_Q>
0

> <r_epik_Metal_State_Penalty>
-0

> <b_epik_Metal_Only>
0

> <s_lp_Force_Field>
OPLS_2005

> <r_lp_Energy>
14.1261

> <b_lp_Chiralities_Consistent>
1

> <s_lp_Variant>
AV-unprocessed.smi:847-2

> <Gold.Version>
5.8.1

> <Gold.Id.Protein>
6NUR|6NUR_protein|mol2

> <Gold.PLP.Fitness>
48.8213

> <Gold.PLP.PLP>
-44.2734

> <Gold.PLP.part.hbond>
-2.1416

> <Gold.PLP.part.metal>
0.0000

> <Gold.PLP.part.buried>
-4.7882

> <Gold.PLP.part.nonpolar>
-38.1396

> <Gold.PLP.part.repulsive>
0.3463

> <Gold.PLP.ligand.clash>
0.0000

> <Gold.PLP.ligand.torsion>
0.4451

> <Gold.PLP.Chemscore.Hbond>
1.7837

> <Gold.PLP.Chemscore.CHOScore>
0.0000

> <Gold.PLP.Chemscore.Metal>
0.0000

> <Gold.Chemscore.Hbonds>
donor molecule, donor type, donor heavy atom, donor atom, acceptor molecule, acceptor atom, score
      L1  H    11    36       P1  8028  0.94
      P1  H  7997  8008       L1    21  0.94

> <Gold.PLP.Chemscore.Internal.Correction>
0.0870

> <Gold.Rescore>
     Score         DG    S(hbond)    S(metal)    S(lipo)     H(rot)  DE(clash)    DE(int)     intcor
     11.63     -15.96       1.81        0.00      88.48       2.31       0.11       4.22       ----

> <Gold.Chemscore.Fitness>
11.6303

> <Gold.Chemscore.DG>
-15.9569

> <Gold.Chemscore.ZeroCoef>
-5.4800

> <Gold.Chemscore.Hbond>
1.8051

> <Gold.Chemscore.Metal>
0.0000

> <Gold.Chemscore.Lipo>
88.4758

> <Gold.Chemscore.Internal_Hbond>
0.0000

> <Gold.Chemscore.DEClash>
0.1087

> <Gold.Chemscore.DEInternal>
4.2179

> <Gold.Chemscore.Rot>
2.3062

> <Gold.Chemscore.Internal.Correction>
   9.000000E+99

> <Gold.Chemscore.Hbonds>
donor molecule, donor type, donor heavy atom, donor atom, acceptor molecule, acceptor atom, score
      L1  H    11    36       P1  8028  0.89
      P1  H  7997  8008       L1    21  0.82

> <Gold.Chemscore.Hbond.Weighted>
-6.0291

> <Gold.Chemscore.Metal.Weighted>
-0.0000

> <Gold.Chemscore.Lipo.Weighted>
-10.3517

> <Gold.Chemscore.Internal_Hbond.Weighted>
0.0000

> <Gold.Chemscore.DEClash.Weighted>
0.1087

> <Gold.Chemscore.DEInternal.Weighted>
4.2179

> <Gold.Chemscore.Rot.Weighted>
5.9038

> <Gold.Chemscore.Internal.Correction.Weighted>
   9.000000E+99

> <Gold.Protein.RotatedTorsions>
[ 6907 6896 6895 6894 ] final -111.66 input  -60.11 | X-H torsion
[ 7974 7965 7964 7962 ] final  -48.72 input  175.53 | X-H torsion
[ 8008 7997 7996 7995 ] final  -80.62 input   59.86 | X-H torsion
[ 10167 10162 10161 10158 ] final  -34.03 input  -65.29 | X-H torsion
[ 10718 10713 10712 10709 ] final  173.79 input   66.30 | X-H torsion
[ 10763 10752 10751 10750 ] final  177.66 input  -60.55 | X-H torsion
[ 11005 11000 10999 10996 ] final -161.48 input  -57.11 | X-H torsion

> <Gold.Protein.ActiveResidues>
 VAL166  LYS551  ARG553  GLY616  TRP617  ASP618  TYR619  PRO620  LYS621  CYS622 
 ASP623  PHE694  ASN695  SER759  ASP760  ASP761  ALA762  ILE779  LEU786  VAL792 
 PHE793  MET794  SER795  GLU796  ALA797  LYS798  CYS799  TRP800  GLU811  SER814 

> <Gold.Protein.RotatedAtoms>
  150.7705  133.9203  159.3395 H   0  0  0  0  0  0  0  0  0  0  0  0  # atno 6907 bound_to 6896
  151.7090  135.0914  160.0274 H   0  0  0  0  0  0  0  0  0  0  0  0  # atno 6908 bound_to 6896
  152.3721  133.6394  159.6130 H   0  0  0  0  0  0  0  0  0  0  0  0  # atno 6909 bound_to 6896
  145.9482  140.7598  142.9518 H   0  0  0  0  0  0  0  0  0  0  0  0  # atno 7974 bound_to 7965
  154.5901  140.0660  156.9227 H   0  0  0  0  0  0  0  0  0  0  0  0  # atno 8008 bound_to 7997
  155.2309  140.3337  155.4285 H   0  0  0  0  0  0  0  0  0  0  0  0  # atno 8009 bound_to 7997
  156.2250  140.1815  156.7369 H   0  0  0  0  0  0  0  0  0  0  0  0  # atno 8010 bound_to 7997
  140.7193  143.3577  151.2026 H   0  0  0  0  0  0  0  0  0  0  0  0  # atno 10167 bound_to 10162
  156.9592  131.0055  151.2931 H   0  0  0  0  0  0  0  0  0  0  0  0  # atno 10718 bound_to 10713
  154.4974  135.2782  155.1448 H   0  0  0  0  0  0  0  0  0  0  0  0  # atno 10763 bound_to 10752
  154.3095  135.6232  153.5463 H   0  0  0  0  0  0  0  0  0  0  0  0  # atno 10764 bound_to 10752
  152.9897  135.5716  154.5409 H   0  0  0  0  0  0  0  0  0  0  0  0  # atno 10765 bound_to 10752
  140.6200  134.4761  157.5223 H   0  0  0  0  0  0  0  0  0  0  0  0  # atno 11005 bound_to 11000
  144.6791  140.2391  143.7346 LP  0  0  0  0  0  0  0  0  0  0  0  0  # atno 17320 bound_to 7965
  145.8207  139.2042  143.1939 LP  0  0  0  0  0  0  0  0  0  0  0  0  # atno 17321 bound_to 7965
  139.7122  143.9358  152.2952 LP  0  0  0  0  0  0  0  0  0  0  0  0  # atno 17342 bound_to 10162
  139.9087  144.6869  150.8586 LP  0  0  0  0  0  0  0  0  0  0  0  0  # atno 17343 bound_to 10162
  157.5669  130.8284  149.8340 LP  0  0  0  0  0  0  0  0  0  0  0  0  # atno 17370 bound_to 10713
  156.0329  130.3759  150.1637 LP  0  0  0  0  0  0  0  0  0  0  0  0  # atno 17371 bound_to 10713
  139.9157  134.8251  156.1374 LP  0  0  0  0  0  0  0  0  0  0  0  0  # atno 17394 bound_to 11000
  141.0749  133.6780  156.2216 LP  0  0  0  0  0  0  0  0  0  0  0  0  # atno 17395 bound_to 11000

$$$$
