AV-unprocessed.smi:1241|AV-procd|sdf|5215|dock8
  -GOLD-   22720 4313D 1   1.00000     0.00000
 Structure written by MMmdl.
 38 39  0  0  0  0  0  0  0  0  1 V2000
  149.6438  141.4539  155.3148 C   0  0  0  0  0  0  0  0  0  0  0  0
  148.1021  141.1212  156.2614 S   0  0  0  0  0  0  0  0  0  0  0  0
  148.2700  139.8482  156.9793 O   0  0  0  0  0  0  0  0  0  0  0  0
  147.7497  142.3384  157.0085 O   0  0  0  0  0  0  0  0  0  0  0  0
  146.8943  140.8829  155.0314 N   0  0  0  0  0  0  0  0  0  0  0  0
  147.2322  141.1070  153.6110 C   0  0  0  0  0  0  0  0  0  0  0  0
  147.4778  139.7832  152.8653 C   0  0  0  0  0  0  0  0  0  0  0  0
  146.2954  138.8148  153.0353 C   0  0  0  0  0  0  0  0  0  0  0  0
  146.5722  137.5367  152.3849 N   0  0  0  0  0  0  0  0  0  0  0  0
  145.6589  136.5888  152.1272 C   0  0  0  0  0  0  0  0  0  0  0  0
  144.4665  136.7011  152.4132 O   0  0  0  0  0  0  0  0  0  0  0  0
  146.2168  135.5261  151.5202 N   0  0  0  0  0  0  0  0  0  0  0  0
  145.5908  134.3138  151.1238 C   0  0  0  0  0  0  0  0  0  0  0  0
  146.4755  133.2659  150.7819 C   0  0  0  0  0  0  0  0  0  0  0  0
  145.9530  132.0207  150.3816 C   0  0  0  0  0  0  0  0  0  0  0  0
  144.5574  131.8548  150.3348 C   0  0  0  0  0  0  0  0  0  0  0  0
  143.7472  132.9486  150.6911 C   0  0  0  0  0  0  0  0  0  0  0  0
  144.2459  134.1430  151.0740 N   0  0  0  0  0  0  0  0  0  0  0  0
  146.0320  138.5949  154.5319 C   0  0  0  0  0  0  0  0  0  0  0  0
  145.7899  139.9293  155.2590 C   0  0  0  0  0  0  0  0  0  0  0  0
  150.4585  141.6352  156.0155 H   0  0  0  0  0  0  0  0  0  0  0  0
  149.5131  142.3353  154.6897 H   0  0  0  0  0  0  0  0  0  0  0  0
  149.8937  140.5923  154.6982 H   0  0  0  0  0  0  0  0  0  0  0  0
  146.4047  141.6399  153.1413 H   0  0  0  0  0  0  0  0  0  0  0  0
  148.1028  141.7567  153.5245 H   0  0  0  0  0  0  0  0  0  0  0  0
  147.6415  139.9918  151.8074 H   0  0  0  0  0  0  0  0  0  0  0  0
  148.3940  139.3172  153.2265 H   0  0  0  0  0  0  0  0  0  0  0  0
  145.4021  139.2590  152.5918 H   0  0  0  0  0  0  0  0  0  0  0  0
  147.5289  137.3623  152.1144 H   0  0  0  0  0  0  0  0  0  0  0  0
  147.2056  135.5863  151.3282 H   0  0  0  0  0  0  0  0  0  0  0  0
  147.5455  133.4098  150.8247 H   0  0  0  0  0  0  0  0  0  0  0  0
  146.6123  131.2074  150.1166 H   0  0  0  0  0  0  0  0  0  0  0  0
  144.1192  130.9147  150.0340 H   0  0  0  0  0  0  0  0  0  0  0  0
  142.6708  132.8628  150.6701 H   0  0  0  0  0  0  0  0  0  0  0  0
  145.1645  137.9475  154.6656 H   0  0  0  0  0  0  0  0  0  0  0  0
  146.8736  138.0720  154.9850 H   0  0  0  0  0  0  0  0  0  0  0  0
  145.6485  139.7590  156.3259 H   0  0  0  0  0  0  0  0  0  0  0  0
  144.8661  140.3800  154.8949 H   0  0  0  0  0  0  0  0  0  0  0  0
  1  2  1  0  0  0  0
  1 21  1  0  0  0  0
  1 22  1  0  0  0  0
  1 23  1  0  0  0  0
  2  3  2  0  0  0  0
  2  4  2  0  0  0  0
  2  5  1  0  0  0  0
  5 20  1  0  0  0  0
  5  6  1  0  0  0  0
  6  7  1  0  0  0  0
  6 24  1  0  0  0  0
  6 25  1  0  0  0  0
  7  8  1  0  0  0  0
  7 26  1  0  0  0  0
  7 27  1  0  0  0  0
  8  9  1  0  0  0  0
  8 19  1  0  0  0  0
  8 28  1  0  0  0  0
  9 10  1  0  0  0  0
  9 29  1  0  0  0  0
 10 11  2  0  0  0  0
 10 12  1  0  0  0  0
 12 13  1  0  0  0  0
 12 30  1  0  0  0  0
 13 18  1  0  0  0  0
 13 14  2  0  0  0  0
 14 15  1  0  0  0  0
 14 31  1  0  0  0  0
 15 16  2  0  0  0  0
 15 32  1  0  0  0  0
 16 17  1  0  0  0  0
 16 33  1  0  0  0  0
 17 18  2  0  0  0  0
 17 34  1  0  0  0  0
 19 20  1  0  0  0  0
 19 35  1  0  0  0  0
 19 36  1  0  0  0  0
 20 37  1  0  0  0  0
 20 38  1  0  0  0  0
M  END
> <s_m_source_file>
AV-unprocessed.smi

> <i_m_source_file_index>
1241

> <i_lp_mmshare_version>
43012

> <i_f3d_flags>
0

> <s_epik_input>
W0NIM11TKD1PKSg9TylOMVtDSDJdW0NIMl1bQ0hdKFtDSDJdW0NIMl0xKVtOSF1DKD1PKVtOSF1jMltjSF1bY0hdW2NIXVtjSF1uMg==

> <s_epik_cmdline>
J2VwaWtfcHl0aG9uJywgJy1waCcsICc3LjAnLCAnLXRuJywgJzgnLCAnLW1hJywgJzIwMCcsICctbWV0YWxfYmluZGluZycsICctaW1hZScsICc8aW5maWxlLm1hZT4nLCAnLW9tYWUnLCAnPG91dGZpbGUubWFlPic=

> <r_lp_tautomer_probability>
1

> <r_epik_Ionization_Penalty>
4.62702e-05

> <r_epik_Ionization_Penalty_Charging>
0

> <r_epik_Ionization_Penalty_Neutral>
4.62702e-05

> <r_epik_State_Penalty>
-0

> <r_epik_Charging_Adjusted_Penalty>
0

> <i_epik_Tot_Q>
0

> <i_epik_Tot_abs_Q>
0

> <r_epik_Metal_State_Penalty>
-0

> <b_epik_Metal_Only>
0

> <s_lp_Force_Field>
OPLS_2005

> <r_lp_Energy>
3.28241

> <b_lp_Chiralities_Consistent>
1

> <s_lp_Variant>
AV-unprocessed.smi:1241-1

> <Gold.Version>
5.8.1

> <Gold.Id.Protein>
6NUR|6NUR_protein|mol2

> <Gold.PLP.Fitness>
36.7328

> <Gold.PLP.PLP>
-28.4946

> <Gold.PLP.part.hbond>
-2.0000

> <Gold.PLP.part.metal>
0.0000

> <Gold.PLP.part.buried>
-2.1401

> <Gold.PLP.part.nonpolar>
-26.4541

> <Gold.PLP.part.repulsive>
1.3319

> <Gold.PLP.ligand.clash>
0.0000

> <Gold.PLP.ligand.torsion>
1.3943

> <Gold.PLP.Chemscore.Hbond>
1.9920

> <Gold.PLP.Chemscore.CHOScore>
0.9993

> <Gold.PLP.Chemscore.Metal>
0.0000

> <Gold.Chemscore.Hbonds>
donor molecule, donor type, donor heavy atom, donor atom, acceptor molecule, acceptor atom, score
      L1  H     9    29       P1  7948  1.00
      L1  H    12    30       P1  7948  1.00
      L1  C    17    34       P1 10186  0.96

> <Gold.PLP.Chemscore.Internal.Correction>
2.0529

> <Gold.Rescore>
     Score         DG    S(hbond)    S(metal)    S(lipo)     H(rot)  DE(clash)    DE(int)     intcor
     14.02     -16.75       1.94        0.00      62.79       1.00       0.09       2.64       ----

> <Gold.Chemscore.Fitness>
14.0199

> <Gold.Chemscore.DG>
-16.7488

> <Gold.Chemscore.ZeroCoef>
-5.4800

> <Gold.Chemscore.Hbond>
1.9407

> <Gold.Chemscore.Metal>
0.0000

> <Gold.Chemscore.Lipo>
62.7943

> <Gold.Chemscore.Internal_Hbond>
0.0000

> <Gold.Chemscore.DEClash>
0.0868

> <Gold.Chemscore.DEInternal>
2.6421

> <Gold.Chemscore.Rot>
1.0000

> <Gold.Chemscore.Internal.Correction>
   9.000000E+99

> <Gold.Chemscore.Hbonds>
donor molecule, donor type, donor heavy atom, donor atom, acceptor molecule, acceptor atom, score
      L1  H     9    29       P1  7948  0.96
      L1  H    12    30       P1  7948  0.90

> <Gold.Chemscore.Hbond.Weighted>
-6.4819

> <Gold.Chemscore.Metal.Weighted>
-0.0000

> <Gold.Chemscore.Lipo.Weighted>
-7.3469

> <Gold.Chemscore.Internal_Hbond.Weighted>
0.0000

> <Gold.Chemscore.DEClash.Weighted>
0.0868

> <Gold.Chemscore.DEInternal.Weighted>
2.6421

> <Gold.Chemscore.Rot.Weighted>
2.5600

> <Gold.Chemscore.Internal.Correction.Weighted>
   9.000000E+99

> <Gold.Protein.RotatedTorsions>
[ 6907 6896 6895 6894 ] final  -32.02 input  -60.11 | X-H torsion
[ 7974 7965 7964 7962 ] final   37.09 input  175.53 | X-H torsion
[ 8008 7997 7996 7995 ] final   32.73 input   59.86 | X-H torsion
[ 10167 10162 10161 10158 ] final   65.40 input  -65.29 | X-H torsion
[ 10718 10713 10712 10709 ] final  -94.69 input   66.30 | X-H torsion
[ 10763 10752 10751 10750 ] final  -46.10 input  -60.55 | X-H torsion
[ 11005 11000 10999 10996 ] final   -8.21 input  -57.11 | X-H torsion

> <Gold.Protein.ActiveResidues>
 VAL166  LYS551  ARG553  GLY616  TRP617  ASP618  TYR619  PRO620  LYS621  CYS622 
 ASP623  PHE694  ASN695  SER759  ASP760  ASP761  ALA762  ILE779  LEU786  VAL792 
 PHE793  MET794  SER795  GLU796  ALA797  LYS798  CYS799  TRP800  GLU811  SER814 

> <Gold.Protein.RotatedAtoms>
  151.0843  134.9877  159.8371 H   0  0  0  0  0  0  0  0  0  0  0  0  # atno 6907 bound_to 6896
  152.5423  134.2143  159.8772 H   0  0  0  0  0  0  0  0  0  0  0  0  # atno 6908 bound_to 6896
  151.2176  133.4477  159.2633 H   0  0  0  0  0  0  0  0  0  0  0  0  # atno 6909 bound_to 6896
  146.1163  139.5937  142.9319 H   0  0  0  0  0  0  0  0  0  0  0  0  # atno 7974 bound_to 7965
  155.1271  140.3254  155.4483 H   0  0  0  0  0  0  0  0  0  0  0  0  # atno 8008 bound_to 7997
  156.2645  140.2017  156.6340 H   0  0  0  0  0  0  0  0  0  0  0  0  # atno 8009 bound_to 7997
  154.6640  140.0544  157.0080 H   0  0  0  0  0  0  0  0  0  0  0  0  # atno 8010 bound_to 7997
  140.1117  144.4812  150.6974 H   0  0  0  0  0  0  0  0  0  0  0  0  # atno 10167 bound_to 10162
  156.0031  130.5078  150.5964 H   0  0  0  0  0  0  0  0  0  0  0  0  # atno 10718 bound_to 10713
  154.0395  135.6646  153.4788 H   0  0  0  0  0  0  0  0  0  0  0  0  # atno 10763 bound_to 10752
  153.0507  135.5086  154.7856 H   0  0  0  0  0  0  0  0  0  0  0  0  # atno 10764 bound_to 10752
  154.6827  135.3048  154.9556 H   0  0  0  0  0  0  0  0  0  0  0  0  # atno 10765 bound_to 10752
  140.7211  133.8828  155.8821 H   0  0  0  0  0  0  0  0  0  0  0  0  # atno 11005 bound_to 11000
  145.5559  141.0409  143.2253 LP  0  0  0  0  0  0  0  0  0  0  0  0  # atno 17320 bound_to 7965
  144.7556  139.7082  143.7255 LP  0  0  0  0  0  0  0  0  0  0  0  0  # atno 17321 bound_to 7965
  140.6922  143.2382  151.5100 LP  0  0  0  0  0  0  0  0  0  0  0  0  # atno 17342 bound_to 10162
  139.5616  144.2143  152.1700 LP  0  0  0  0  0  0  0  0  0  0  0  0  # atno 17343 bound_to 10162
  157.3820  131.0782  151.1468 LP  0  0  0  0  0  0  0  0  0  0  0  0  # atno 17370 bound_to 10713
  157.2187  130.6471  149.5803 LP  0  0  0  0  0  0  0  0  0  0  0  0  # atno 17371 bound_to 10713
  141.0003  134.1159  157.4324 LP  0  0  0  0  0  0  0  0  0  0  0  0  # atno 17394 bound_to 11000
  139.8848  135.0066  156.6393 LP  0  0  0  0  0  0  0  0  0  0  0  0  # atno 17395 bound_to 11000

$$$$
