AV-unprocessed.smi:1809|AV-procd|sdf|7321|dock6
  -GOLD-   22720 8573D 1   1.00000     0.00000
 Structure written by MMmdl.
 39 41  0  0  0  0  0  0  0  0  3 V2000
  149.4800  141.3894  156.4779 C   0  0  0  0  0  0  0  0  0  0  0  0
  149.5362  139.9233  156.2161 C   0  0  0  0  0  0  0  0  0  0  0  0
  148.7135  139.0528  156.8058 N   0  0  0  0  0  0  0  0  0  0  0  0
  148.9556  137.7481  156.4010 N   0  0  0  0  0  0  0  0  0  0  0  0
  149.9479  137.6507  155.5052 C   0  0  0  0  0  0  0  0  0  0  0  0
  150.3388  136.4727  154.9909 N   0  5  0  0  0  0  0  0  0  0  0  0
  149.8821  135.3172  155.5233 C   0  0  0  0  0  0  0  0  0  0  0  0
  149.8976  135.0043  156.7161 O   0  0  0  0  0  0  0  0  0  0  0  0
  149.3696  134.4723  154.6177 N   0  0  0  0  0  0  0  0  0  0  0  0
  148.7922  133.1641  154.9063 C   0  0  0  0  0  0  0  0  0  0  0  0
  148.3535  132.4413  153.6216 C   0  0  2  0  0  0  0  0  0  0  0  0
  147.4564  133.3350  152.7341 C   0  0  0  0  0  0  0  0  0  0  0  0
  147.0015  132.5305  151.5857 N   0  3  2  0  0  0  0  0  0  0  0  0
  146.1462  133.1738  150.5742 C   0  0  0  0  0  0  0  0  0  0  0  0
  145.3890  132.0103  149.9029 C   0  0  0  0  0  0  0  0  0  0  0  0
  145.7383  130.7546  150.7233 C   0  0  0  0  0  0  0  0  0  0  0  0
  146.2819  131.3334  152.0259 C   0  0  1  0  0  0  0  0  0  0  0  0
  147.2240  130.4659  152.8707 C   0  0  0  0  0  0  0  0  0  0  0  0
  147.6436  131.2514  153.9873 O   0  0  0  0  0  0  0  0  0  0  0  0
  150.6858  139.2013  155.1027 S   0  0  0  0  0  0  0  0  0  0  0  0
  148.6677  141.8381  155.9062 H   0  0  0  0  0  0  0  0  0  0  0  0
  150.4178  141.8622  156.1862 H   0  0  0  0  0  0  0  0  0  0  0  0
  149.3100  141.5781  157.5382 H   0  0  0  0  0  0  0  0  0  0  0  0
  149.3787  134.7664  153.6518 H   0  0  0  0  0  0  0  0  0  0  0  0
  149.5352  132.5691  155.4378 H   0  0  0  0  0  0  0  0  0  0  0  0
  147.9462  133.2810  155.5859 H   0  0  0  0  0  0  0  0  0  0  0  0
  149.2375  132.1568  153.0479 H   0  0  0  0  0  0  0  0  0  0  0  0
  146.5978  133.7037  153.2975 H   0  0  0  0  0  0  0  0  0  0  0  0
  148.0118  134.2030  152.3775 H   0  0  0  0  0  0  0  0  0  0  0  0
  145.4408  133.8509  151.0586 H   0  0  0  0  0  0  0  0  0  0  0  0
  146.7423  133.7510  149.8670 H   0  0  0  0  0  0  0  0  0  0  0  0
  144.3152  132.2008  149.9208 H   0  0  0  0  0  0  0  0  0  0  0  0
  145.6828  131.8867  148.8599 H   0  0  0  0  0  0  0  0  0  0  0  0
  144.8816  130.0981  150.8789 H   0  0  0  0  0  0  0  0  0  0  0  0
  146.5139  130.1814  150.2129 H   0  0  0  0  0  0  0  0  0  0  0  0
  145.4353  131.6426  152.6435 H   0  0  0  0  0  0  0  0  0  0  0  0
  146.7070  129.5763  153.2307 H   0  0  0  0  0  0  0  0  0  0  0  0
  148.0880  130.1321  152.2939 H   0  0  0  0  0  0  0  0  0  0  0  0
  147.8265  132.2062  151.1010 H   0  0  0  0  0  0  0  0  0  0  0  0
  1  2  1  0  0  0  0
  1 21  1  0  0  0  0
  1 22  1  0  0  0  0
  1 23  1  0  0  0  0
  2 20  1  0  0  0  0
  2  3  2  0  0  0  0
  3  4  1  0  0  0  0
  4  5  2  0  0  0  0
  5  6  1  0  0  0  0
  5 20  1  0  0  0  0
  6  7  1  0  0  0  0
  7  8  2  0  0  0  0
  7  9  1  0  0  0  0
  9 10  1  0  0  0  0
  9 24  1  0  0  0  0
 10 11  1  0  0  0  0
 10 25  1  0  0  0  0
 10 26  1  0  0  0  0
 11 19  1  0  0  0  0
 11 12  1  0  0  0  0
 11 27  1  0  0  0  0
 12 13  1  0  0  0  0
 12 28  1  0  0  0  0
 12 29  1  0  0  0  0
 13 17  1  0  0  0  0
 13 14  1  0  0  0  0
 13 39  1  0  0  0  0
 14 15  1  0  0  0  0
 14 30  1  0  0  0  0
 14 31  1  0  0  0  0
 15 16  1  0  0  0  0
 15 32  1  0  0  0  0
 15 33  1  0  0  0  0
 16 17  1  0  0  0  0
 16 34  1  0  0  0  0
 16 35  1  0  0  0  0
 17 18  1  0  0  0  0
 17 36  1  0  0  0  0
 18 19  1  0  0  0  0
 18 37  1  0  0  0  0
 18 38  1  0  0  0  0
M  CHG  1   6  -1
M  CHG  1  13   1
M  END
> <s_m_source_file>
AV-unprocessed.smi

> <i_m_source_file_index>
1809

> <i_lp_mmshare_version>
43012

> <i_f3d_flags>
0

> <s_epik_input>
W0NIM11jMW5uYyhzMSlbTkhdQyg9TylbTkhdW0NIMl1bQ0BIXShbQ0gyXTIpT1tDSDJdW0NAQEhdKE4yMylbQ0gyXVtDSDJdW0NIMl0z

> <s_epik_cmdline>
J2VwaWtfcHl0aG9uJywgJy1waCcsICc3LjAnLCAnLXRuJywgJzgnLCAnLW1hJywgJzIwMCcsICctbWV0YWxfYmluZGluZycsICctaW1hZScsICc8aW5maWxlLm1hZT4nLCAnLW9tYWUnLCAnPG91dGZpbGUubWFlPic=

> <r_lp_tautomer_probability>
1

> <r_epik_Ionization_Penalty>
3.2601

> <r_epik_Ionization_Penalty_Charging>
3.1406

> <r_epik_Ionization_Penalty_Neutral>
0.119497

> <r_epik_State_Penalty>
3.08894

> <r_epik_Charging_Adjusted_Penalty>
6.22954

> <i_epik_Tot_Q>
0

> <i_epik_Tot_abs_Q>
2

> <r_epik_Metal_State_Penalty>
0.510807

> <b_epik_Metal_Only>
1

> <s_lp_Force_Field>
OPLS_2005

> <r_lp_Energy>
28.6606

> <b_lp_Chiralities_Consistent>
1

> <s_lp_Variant>
AV-unprocessed.smi:1809-13

> <Gold.Version>
5.8.1

> <Gold.Id.Protein>
6NUR|6NUR_protein|mol2

> <Gold.PLP.Fitness>
43.0375

> <Gold.PLP.PLP>
-35.0567

> <Gold.PLP.part.hbond>
-2.0000

> <Gold.PLP.part.metal>
0.0000

> <Gold.PLP.part.buried>
-4.9517

> <Gold.PLP.part.nonpolar>
-28.1808

> <Gold.PLP.part.repulsive>
0.3450

> <Gold.PLP.ligand.clash>
0.0000

> <Gold.PLP.ligand.torsion>
0.5148

> <Gold.PLP.Chemscore.Hbond>
3.0000

> <Gold.PLP.Chemscore.CHOScore>
0.0000

> <Gold.PLP.Chemscore.Metal>
0.0000

> <Gold.Chemscore.Hbonds>
donor molecule, donor type, donor heavy atom, donor atom, acceptor molecule, acceptor atom, score
      L1  H     9    24       P1  7948  0.20
      L1  H    13    39       P1 10747  1.00

> <Gold.PLP.Chemscore.Internal.Correction>
0.0103

> <Gold.Rescore>
     Score         DG    S(hbond)    S(metal)    S(lipo)     H(rot)  DE(clash)    DE(int)     intcor
     16.45     -17.88       1.81        0.00      83.35       1.32       0.12       1.31       ----

> <Gold.Chemscore.Fitness>
16.4454

> <Gold.Chemscore.DG>
-17.8772

> <Gold.Chemscore.ZeroCoef>
-5.4800

> <Gold.Chemscore.Hbond>
1.8072

> <Gold.Chemscore.Metal>
0.0000

> <Gold.Chemscore.Lipo>
83.3499

> <Gold.Chemscore.Internal_Hbond>
0.0000

> <Gold.Chemscore.DEClash>
0.1178

> <Gold.Chemscore.DEInternal>
1.3139

> <Gold.Chemscore.Rot>
1.3246

> <Gold.Chemscore.Internal.Correction>
   9.000000E+99

> <Gold.Chemscore.Hbonds>
donor molecule, donor type, donor heavy atom, donor atom, acceptor molecule, acceptor atom, score
      L1  H     9    24       P1  7948  0.02
      L1  H    13    39       P1 10747  0.97

> <Gold.Chemscore.Hbond.Weighted>
-6.0362

> <Gold.Chemscore.Metal.Weighted>
-0.0000

> <Gold.Chemscore.Lipo.Weighted>
-9.7519

> <Gold.Chemscore.Internal_Hbond.Weighted>
0.0000

> <Gold.Chemscore.DEClash.Weighted>
0.1178

> <Gold.Chemscore.DEInternal.Weighted>
1.3139

> <Gold.Chemscore.Rot.Weighted>
3.3910

> <Gold.Chemscore.Internal.Correction.Weighted>
   9.000000E+99

> <Gold.Protein.RotatedTorsions>
[ 6907 6896 6895 6894 ] final  -16.68 input  -60.11 | X-H torsion
[ 7974 7965 7964 7962 ] final  -98.35 input  175.53 | X-H torsion
[ 8008 7997 7996 7995 ] final -115.28 input   59.86 | X-H torsion
[ 10167 10162 10161 10158 ] final -115.87 input  -65.29 | X-H torsion
[ 10718 10713 10712 10709 ] final  -41.88 input   66.30 | X-H torsion
[ 10763 10752 10751 10750 ] final  155.16 input  -60.55 | X-H torsion
[ 11005 11000 10999 10996 ] final   32.13 input  -57.11 | X-H torsion

> <Gold.Protein.ActiveResidues>
 VAL166  LYS551  ARG553  GLY616  TRP617  ASP618  TYR619  PRO620  LYS621  CYS622 
 ASP623  PHE694  ASN695  SER759  ASP760  ASP761  ALA762  ILE779  LEU786  VAL792 
 PHE793  MET794  SER795  GLU796  ALA797  LYS798  CYS799  TRP800  GLU811  SER814 

> <Gold.Protein.RotatedAtoms>
  151.3049  135.0778  159.9251 H   0  0  0  0  0  0  0  0  0  0  0  0  # atno 6907 bound_to 6896
  152.5290  133.9796  159.7810 H   0  0  0  0  0  0  0  0  0  0  0  0  # atno 6908 bound_to 6896
  151.0089  133.5933  159.2715 H   0  0  0  0  0  0  0  0  0  0  0  0  # atno 6909 bound_to 6896
  145.3218  140.9423  143.2711 H   0  0  0  0  0  0  0  0  0  0  0  0  # atno 7974 bound_to 7965
  155.0496  140.0393  157.2539 H   0  0  0  0  0  0  0  0  0  0  0  0  # atno 8008 bound_to 7997
  154.7149  140.2700  155.6571 H   0  0  0  0  0  0  0  0  0  0  0  0  # atno 8009 bound_to 7997
  156.2800  140.2714  156.1802 H   0  0  0  0  0  0  0  0  0  0  0  0  # atno 8010 bound_to 7997
  140.0854  143.4749  152.1901 H   0  0  0  0  0  0  0  0  0  0  0  0  # atno 10167 bound_to 10162
  156.2656  130.4201  149.8494 H   0  0  0  0  0  0  0  0  0  0  0  0  # atno 10718 bound_to 10713
  154.1640  135.2808  155.3100 H   0  0  0  0  0  0  0  0  0  0  0  0  # atno 10763 bound_to 10752
  154.6125  135.5494  153.7492 H   0  0  0  0  0  0  0  0  0  0  0  0  # atno 10764 bound_to 10752
  153.0184  135.6419  154.1781 H   0  0  0  0  0  0  0  0  0  0  0  0  # atno 10765 bound_to 10752
  140.2767  134.3020  155.7812 H   0  0  0  0  0  0  0  0  0  0  0  0  # atno 11005 bound_to 11000
  144.8933  139.4745  143.6667 LP  0  0  0  0  0  0  0  0  0  0  0  0  # atno 17320 bound_to 7965
  146.3079  139.7644  142.9042 LP  0  0  0  0  0  0  0  0  0  0  0  0  # atno 17321 bound_to 7965
  139.5755  144.7485  151.3776 LP  0  0  0  0  0  0  0  0  0  0  0  0  # atno 17342 bound_to 10162
  140.7056  143.7522  150.7477 LP  0  0  0  0  0  0  0  0  0  0  0  0  # atno 17343 bound_to 10162
  156.5994  130.8540  151.3428 LP  0  0  0  0  0  0  0  0  0  0  0  0  # atno 17370 bound_to 10713
  157.7266  130.9631  150.1663 LP  0  0  0  0  0  0  0  0  0  0  0  0  # atno 17371 bound_to 10713
  141.2169  133.7500  156.9418 LP  0  0  0  0  0  0  0  0  0  0  0  0  # atno 17394 bound_to 11000
  140.1322  134.9348  157.2352 LP  0  0  0  0  0  0  0  0  0  0  0  0  # atno 17395 bound_to 11000

$$$$
