AV-unprocessed.smi:468|AV-procd|sdf|2652|dock1
  -GOLD-   2262023 63D 1   1.00000     0.00000
 Structure written by MMmdl.
 49 50  0  0  0  0  0  0  0  0  2 V2000
  144.6599  135.3573  156.6194 C   0  0  0  0  0  0  0  0  0  0  0  0
  145.5210  135.2300  157.7360 O   0  0  0  0  0  0  0  0  0  0  0  0
  146.4193  134.1401  157.6143 C   0  0  0  0  0  0  0  0  0  0  0  0
  147.4223  134.1723  158.7792 C   0  0  0  0  0  0  0  0  0  0  0  0
  148.0935  135.4759  158.9123 N   0  0  0  0  0  0  0  0  0  0  0  0
  148.0102  136.1904  160.0660 C   0  0  0  0  0  0  0  0  0  0  0  0
  148.6447  137.2345  160.2286 O   0  0  0  0  0  0  0  0  0  0  0  0
  147.0616  135.7096  161.1888 C   0  0  0  0  0  0  0  0  0  0  0  0
  147.1914  136.4388  162.5422 C   0  0  0  0  0  0  0  0  0  0  0  0
  147.1158  135.0750  163.2338 C   0  0  0  0  0  0  0  0  0  0  0  0
  147.5394  134.4372  161.9083 C   0  0  0  0  0  0  0  0  0  0  0  0
  148.8548  135.9135  157.8123 C   0  0  0  0  0  0  0  0  0  0  0  0
  148.5340  137.0241  157.0957 C   0  0  0  0  0  0  0  0  0  0  0  0
  147.4176  137.7832  157.4167 N   0  0  0  0  0  0  0  0  0  0  0  0
  149.3423  137.4187  155.9956 N   0  0  0  0  0  0  0  0  0  0  0  0
  148.9586  138.6258  155.2269 C   0  0  0  0  0  0  0  0  0  0  0  0
  149.8398  139.8595  155.5426 C   0  0  0  0  0  0  0  0  0  0  0  0
  149.1151  141.1957  155.3082 C   0  0  0  0  0  0  0  0  0  0  0  0
  151.1453  139.8078  154.7354 C   0  0  0  0  0  0  0  0  0  0  0  0
  150.4533  136.6954  155.6514 C   0  0  0  0  0  0  0  0  0  0  0  0
  151.1342  137.0531  154.6894 O   0  0  0  0  0  0  0  0  0  0  0  0
  150.7770  135.5893  156.3805 N   0  5  0  0  0  0  0  0  0  0  0  0
  150.0506  135.1497  157.4415 C   0  0  0  0  0  0  0  0  0  0  0  0
  150.3707  134.1515  158.0874 O   0  0  0  0  0  0  0  0  0  0  0  0
  143.9967  136.2096  156.7664 H   0  0  0  0  0  0  0  0  0  0  0  0
  144.0413  134.4675  156.4958 H   0  0  0  0  0  0  0  0  0  0  0  0
  145.2253  135.5230  155.7017 H   0  0  0  0  0  0  0  0  0  0  0  0
  145.8796  133.1921  157.5902 H   0  0  0  0  0  0  0  0  0  0  0  0
  146.9584  134.2292  156.6702 H   0  0  0  0  0  0  0  0  0  0  0  0
  146.9079  133.9296  159.7106 H   0  0  0  0  0  0  0  0  0  0  0  0
  148.1554  133.3750  158.6456 H   0  0  0  0  0  0  0  0  0  0  0  0
  146.0128  135.6484  160.8939 H   0  0  0  0  0  0  0  0  0  0  0  0
  148.1475  136.9347  162.7157 H   0  0  0  0  0  0  0  0  0  0  0  0
  146.3564  137.0993  162.7773 H   0  0  0  0  0  0  0  0  0  0  0  0
  147.8234  134.9381  164.0520 H   0  0  0  0  0  0  0  0  0  0  0  0
  146.0994  134.8054  163.5253 H   0  0  0  0  0  0  0  0  0  0  0  0
  146.9794  133.5378  161.6505 H   0  0  0  0  0  0  0  0  0  0  0  0
  148.6161  134.2715  161.8406 H   0  0  0  0  0  0  0  0  0  0  0  0
  146.8184  137.5288  158.1887 H   0  0  0  0  0  0  0  0  0  0  0  0
  147.0360  138.4486  156.7600 H   0  0  0  0  0  0  0  0  0  0  0  0
  149.0043  138.4022  154.1604 H   0  0  0  0  0  0  0  0  0  0  0  0
  147.9107  138.8880  155.3788 H   0  0  0  0  0  0  0  0  0  0  0  0
  150.1169  139.8258  156.5964 H   0  0  0  0  0  0  0  0  0  0  0  0
  148.7650  141.2811  154.2791 H   0  0  0  0  0  0  0  0  0  0  0  0
  149.7747  142.0407  155.5069 H   0  0  0  0  0  0  0  0  0  0  0  0
  148.2518  141.3029  155.9651 H   0  0  0  0  0  0  0  0  0  0  0  0
  150.9497  139.8535  153.6635 H   0  0  0  0  0  0  0  0  0  0  0  0
  151.6948  138.8875  154.9352 H   0  0  0  0  0  0  0  0  0  0  0  0
  151.7997  140.6418  154.9906 H   0  0  0  0  0  0  0  0  0  0  0  0
  1  2  1  0  0  0  0
  1 25  1  0  0  0  0
  1 26  1  0  0  0  0
  1 27  1  0  0  0  0
  2  3  1  0  0  0  0
  3  4  1  0  0  0  0
  3 28  1  0  0  0  0
  3 29  1  0  0  0  0
  4  5  1  0  0  0  0
  4 30  1  0  0  0  0
  4 31  1  0  0  0  0
  5  6  1  0  0  0  0
  5 12  1  0  0  0  0
  6  7  2  0  0  0  0
  6  8  1  0  0  0  0
  8 11  1  0  0  0  0
  8  9  1  0  0  0  0
  8 32  1  0  0  0  0
  9 10  1  0  0  0  0
  9 33  1  0  0  0  0
  9 34  1  0  0  0  0
 10 11  1  0  0  0  0
 10 35  1  0  0  0  0
 10 36  1  0  0  0  0
 11 37  1  0  0  0  0
 11 38  1  0  0  0  0
 12 23  1  0  0  0  0
 12 13  2  0  0  0  0
 13 14  1  0  0  0  0
 13 15  1  0  0  0  0
 14 39  1  0  0  0  0
 14 40  1  0  0  0  0
 15 16  1  0  0  0  0
 15 20  1  0  0  0  0
 16 17  1  0  0  0  0
 16 41  1  0  0  0  0
 16 42  1  0  0  0  0
 17 18  1  0  0  0  0
 17 19  1  0  0  0  0
 17 43  1  0  0  0  0
 18 44  1  0  0  0  0
 18 45  1  0  0  0  0
 18 46  1  0  0  0  0
 19 47  1  0  0  0  0
 19 48  1  0  0  0  0
 19 49  1  0  0  0  0
 20 21  2  0  0  0  0
 20 22  1  0  0  0  0
 22 23  1  0  0  0  0
 23 24  2  0  0  0  0
M  CHG  1  22  -1
M  END
> <s_m_source_file>
AV-unprocessed.smi

> <i_m_source_file_index>
468

> <i_lp_mmshare_version>
43012

> <i_f3d_flags>
0

> <s_epik_input>
W0NIMl0xW0NIMl1bQ0gyXVtDSF0xQyg9TylOKFtDSDJdW0NIMl1PW0NIM10pYzJjKFtOSDJdKW4oW0NIMl1bQ0hdKFtDSDNdKVtDSDNdKWMoPU8pW25IXWMyPU8=

> <s_epik_cmdline>
J2VwaWtfcHl0aG9uJywgJy1waCcsICc3LjAnLCAnLXRuJywgJzgnLCAnLW1hJywgJzIwMCcsICctbWV0YWxfYmluZGluZycsICctaW1hZScsICc8aW5maWxlLm1hZT4nLCAnLW9tYWUnLCAnPG91dGZpbGUubWFlPic=

> <r_lp_tautomer_probability>
1

> <r_epik_Ionization_Penalty>
5.91772

> <r_epik_Ionization_Penalty_Charging>
1.97379e-07

> <r_epik_Ionization_Penalty_Neutral>
5.91772

> <r_epik_State_Penalty>
5.91769

> <r_epik_Charging_Adjusted_Penalty>
5.91769

> <i_epik_Tot_Q>
-1

> <i_epik_Tot_abs_Q>
1

> <r_epik_Metal_State_Penalty>
1.85156

> <b_epik_Metal_Only>
1

> <s_lp_Force_Field>
OPLS_2005

> <r_lp_Energy>
46.8311

> <b_lp_Chiralities_Consistent>
1

> <s_lp_Variant>
AV-unprocessed.smi:468-2

> <Gold.Version>
5.8.1

> <Gold.Id.Protein>
6NUR|6NUR_protein|mol2

> <Gold.PLP.Fitness>
39.3109

> <Gold.PLP.PLP>
-32.7573

> <Gold.PLP.part.hbond>
-3.0000

> <Gold.PLP.part.metal>
0.0000

> <Gold.PLP.part.buried>
-3.5762

> <Gold.PLP.part.nonpolar>
-26.5814

> <Gold.PLP.part.repulsive>
0.2801

> <Gold.PLP.ligand.clash>
0.0000

> <Gold.PLP.ligand.torsion>
1.9686

> <Gold.PLP.Chemscore.Hbond>
2.5369

> <Gold.PLP.Chemscore.CHOScore>
0.0000

> <Gold.PLP.Chemscore.Metal>
0.0000

> <Gold.Chemscore.Hbonds>
donor molecule, donor type, donor heavy atom, donor atom, acceptor molecule, acceptor atom, score
      P1  H  6896  6908       L1    24  0.28
      P1  H  6931  6943       L1     7  0.59
      P1  H  6934  6947       L1     7  0.04
      P1  H 10752 10765       L1    21  0.31

> <Gold.PLP.Chemscore.Internal.Correction>
2.8800

> <Gold.Rescore>
     Score         DG    S(hbond)    S(metal)    S(lipo)     H(rot)  DE(clash)    DE(int)     intcor
     13.58     -15.85       2.55        0.00      60.46       2.04       0.00       2.27       ----

> <Gold.Chemscore.Fitness>
13.5751

> <Gold.Chemscore.DG>
-15.8507

> <Gold.Chemscore.ZeroCoef>
-5.4800

> <Gold.Chemscore.Hbond>
2.5476

> <Gold.Chemscore.Metal>
0.0000

> <Gold.Chemscore.Lipo>
60.4641

> <Gold.Chemscore.Internal_Hbond>
0.0000

> <Gold.Chemscore.DEClash>
0.0009

> <Gold.Chemscore.DEInternal>
2.2747

> <Gold.Chemscore.Rot>
2.0362

> <Gold.Chemscore.Internal.Correction>
   9.000000E+99

> <Gold.Chemscore.Hbonds>
donor molecule, donor type, donor heavy atom, donor atom, acceptor molecule, acceptor atom, score
      P1  H  6896  6908       L1    24  0.29
      P1  H  6931  6943       L1     7  0.58
      P1  H  6934  6947       L1     7  0.04
      P1  H 10752 10765       L1    21  0.25

> <Gold.Chemscore.Hbond.Weighted>
-8.5090

> <Gold.Chemscore.Metal.Weighted>
-0.0000

> <Gold.Chemscore.Lipo.Weighted>
-7.0743

> <Gold.Chemscore.Internal_Hbond.Weighted>
0.0000

> <Gold.Chemscore.DEClash.Weighted>
0.0009

> <Gold.Chemscore.DEInternal.Weighted>
2.2747

> <Gold.Chemscore.Rot.Weighted>
5.2126

> <Gold.Chemscore.Internal.Correction.Weighted>
   9.000000E+99

> <Gold.Protein.RotatedTorsions>
[ 6907 6896 6895 6894 ] final  125.24 input  -60.11 | X-H torsion
[ 7974 7965 7964 7962 ] final  -41.39 input  175.53 | X-H torsion
[ 8008 7997 7996 7995 ] final  153.42 input   59.86 | X-H torsion
[ 10167 10162 10161 10158 ] final -133.22 input  -65.29 | X-H torsion
[ 10718 10713 10712 10709 ] final   46.43 input   66.30 | X-H torsion
[ 10763 10752 10751 10750 ] final  165.21 input  -60.55 | X-H torsion
[ 11005 11000 10999 10996 ] final -100.29 input  -57.11 | X-H torsion

> <Gold.Protein.ActiveResidues>
 VAL166  LYS551  ARG553  GLY616  TRP617  ASP618  TYR619  PRO620  LYS621  CYS622 
 ASP623  PHE694  ASN695  SER759  ASP760  ASP761  ALA762  ILE779  LEU786  VAL792 
 PHE793  MET794  SER795  GLU796  ALA797  LYS798  CYS799  TRP800  GLU811  SER814 

> <Gold.Protein.RotatedAtoms>
  152.4009  133.6816  159.6314 H   0  0  0  0  0  0  0  0  0  0  0  0  # atno 6907 bound_to 6896
  150.7900  133.8793  159.3290 H   0  0  0  0  0  0  0  0  0  0  0  0  # atno 6908 bound_to 6896
  151.6559  135.0997  160.0221 H   0  0  0  0  0  0  0  0  0  0  0  0  # atno 6909 bound_to 6896
  146.0215  140.6843  142.9176 H   0  0  0  0  0  0  0  0  0  0  0  0  # atno 7974 bound_to 7965
  156.2582  140.1994  156.6488 H   0  0  0  0  0  0  0  0  0  0  0  0  # atno 8008 bound_to 7997
  154.6552  140.0567  157.0026 H   0  0  0  0  0  0  0  0  0  0  0  0  # atno 8009 bound_to 7997
  155.1357  140.3238  155.4466 H   0  0  0  0  0  0  0  0  0  0  0  0  # atno 8010 bound_to 7997
  139.9005  143.6614  152.2596 H   0  0  0  0  0  0  0  0  0  0  0  0  # atno 10167 bound_to 10162
  157.4480  130.8121  149.7760 H   0  0  0  0  0  0  0  0  0  0  0  0  # atno 10718 bound_to 10713
  154.3206  135.2756  155.2521 H   0  0  0  0  0  0  0  0  0  0  0  0  # atno 10763 bound_to 10752
  154.4876  135.5842  153.6439 H   0  0  0  0  0  0  0  0  0  0  0  0  # atno 10764 bound_to 10752
  152.9877  135.6127  154.3390 H   0  0  0  0  0  0  0  0  0  0  0  0  # atno 10765 bound_to 10752
  141.1276  133.8388  157.1084 H   0  0  0  0  0  0  0  0  0  0  0  0  # atno 11005 bound_to 11000
  144.6992  140.3575  143.7170 LP  0  0  0  0  0  0  0  0  0  0  0  0  # atno 17320 bound_to 7965
  145.7185  139.1703  143.2498 LP  0  0  0  0  0  0  0  0  0  0  0  0  # atno 17321 bound_to 7965
  139.7030  144.7632  151.1241 LP  0  0  0  0  0  0  0  0  0  0  0  0  # atno 17342 bound_to 10162
  140.7708  143.5433  150.9288 LP  0  0  0  0  0  0  0  0  0  0  0  0  # atno 17343 bound_to 10162
  155.9975  130.3899  150.2737 LP  0  0  0  0  0  0  0  0  0  0  0  0  # atno 17370 bound_to 10713
  157.0906  131.0169  151.3123 LP  0  0  0  0  0  0  0  0  0  0  0  0  # atno 17371 bound_to 10713
  140.0290  134.9910  157.0743 LP  0  0  0  0  0  0  0  0  0  0  0  0  # atno 17394 bound_to 11000
  140.4315  134.1775  155.7168 LP  0  0  0  0  0  0  0  0  0  0  0  0  # atno 17395 bound_to 11000

$$$$
