AV-unprocessed.smi:203|AV-procd|sdf|1595|dock1
  -GOLD-   2262019493D 1   1.00000     0.00000
 Structure written by MMmdl.
 57 61  0  0  0  0  0  0  0  0  1 V2000
  147.1023  141.9166  153.5478 O   0  0  0  0  0  0  0  0  0  0  0  0
  147.7348  141.0570  154.1566 C   0  0  0  0  0  0  0  0  0  0  0  0
  147.4035  140.6164  155.5722 C   0  0  0  0  0  0  0  0  0  0  0  0
  148.6023  139.7318  155.9678 C   0  0  2  0  0  0  0  0  0  0  0  0
  149.5166  140.3579  157.0691 C   0  0  2  0  0  0  0  0  0  0  0  0
  150.2176  141.6599  156.5987 C   0  0  0  0  0  0  0  0  0  0  0  0
  151.1111  142.2544  157.6951 C   0  0  0  0  0  0  0  0  0  0  0  0
  152.1271  141.2075  158.1630 C   0  0  0  0  0  0  0  0  0  0  0  0
  151.4052  139.9377  158.6323 C   0  0  0  0  0  0  0  0  0  0  0  0
  150.5199  139.4126  157.5929 N   0  0  0  0  0  0  0  0  0  0  0  0
  150.0649  138.1880  157.9407 C   0  0  0  0  0  0  0  0  0  0  0  0
  149.4668  138.0703  159.1515 N   0  0  0  0  0  0  0  0  0  0  0  0
  149.0090  136.8817  159.5563 C   0  0  0  0  0  0  0  0  0  0  0  0
  149.0455  135.7102  158.9167 N   0  0  0  0  0  0  0  0  0  0  0  0
  149.6390  135.8301  157.6945 C   0  0  0  0  0  0  0  0  0  0  0  0
  150.1717  137.0228  157.1302 C   0  0  0  0  0  0  0  0  0  0  0  0
  150.6951  136.7596  155.8700 N   0  0  0  0  0  0  0  0  0  0  0  0
  150.4881  135.4822  155.7005 C   0  0  0  0  0  0  0  0  0  0  0  0
  149.8626  134.8458  156.7483 N   0  0  0  0  0  0  0  0  0  0  0  0
  149.5180  133.4367  156.8229 C   0  0  0  0  0  0  0  0  0  0  0  0
  150.7645  132.5311  156.9229 C   0  0  1  0  0  0  0  0  0  0  0  0
  151.2202  132.5572  158.2623 O   0  0  0  0  0  0  0  0  0  0  0  0
  150.4790  131.0622  156.5508 C   0  0  1  0  0  0  0  0  0  0  0  0
  149.7615  130.8652  155.2137 C   0  0  0  0  0  0  0  0  0  0  0  0
  150.1460  129.4529  154.8052 C   0  0  0  0  0  0  0  0  0  0  0  0
  151.3891  129.1546  155.6464 C   0  0  0  0  0  0  0  0  0  0  0  0
  151.6983  130.3786  156.2989 O   0  0  0  0  0  0  0  0  0  0  0  0
  149.3341  139.4386  154.6385 C   0  0  0  0  0  0  0  0  0  0  0  0
  148.7838  140.3850  153.6879 N   0  0  0  0  0  0  0  0  0  0  0  0
  147.2524  141.4668  156.2370 H   0  0  0  0  0  0  0  0  0  0  0  0
  146.4793  140.0379  155.5530 H   0  0  0  0  0  0  0  0  0  0  0  0
  148.1853  138.7968  156.3432 H   0  0  0  0  0  0  0  0  0  0  0  0
  148.8731  140.6317  157.9058 H   0  0  0  0  0  0  0  0  0  0  0  0
  150.8289  141.4641  155.7177 H   0  0  0  0  0  0  0  0  0  0  0  0
  149.4853  142.4095  156.3004 H   0  0  0  0  0  0  0  0  0  0  0  0
  151.6271  143.1397  157.3222 H   0  0  0  0  0  0  0  0  0  0  0  0
  150.4984  142.5790  158.5369 H   0  0  0  0  0  0  0  0  0  0  0  0
  152.8087  140.9635  157.3470 H   0  0  0  0  0  0  0  0  0  0  0  0
  152.7383  141.6106  158.9709 H   0  0  0  0  0  0  0  0  0  0  0  0
  152.1429  139.1829  158.9094 H   0  0  0  0  0  0  0  0  0  0  0  0
  150.8229  140.1567  159.5284 H   0  0  0  0  0  0  0  0  0  0  0  0
  148.5487  136.8664  160.5332 H   0  0  0  0  0  0  0  0  0  0  0  0
  150.7908  134.9644  154.8021 H   0  0  0  0  0  0  0  0  0  0  0  0
  148.8602  133.2780  157.6784 H   0  0  0  0  0  0  0  0  0  0  0  0
  148.9352  133.1937  155.9343 H   0  0  0  0  0  0  0  0  0  0  0  0
  151.5488  132.9268  156.2762 H   0  0  0  0  0  0  0  0  0  0  0  0
  151.5390  131.6968  158.4878 H   0  0  0  0  0  0  0  0  0  0  0  0
  149.9249  130.5555  157.3440 H   0  0  0  0  0  0  0  0  0  0  0  0
  148.6823  131.0026  155.2871 H   0  0  0  0  0  0  0  0  0  0  0  0
  150.1427  131.5722  154.4754 H   0  0  0  0  0  0  0  0  0  0  0  0
  149.3503  128.7442  155.0378 H   0  0  0  0  0  0  0  0  0  0  0  0
  150.3494  129.3922  153.7354 H   0  0  0  0  0  0  0  0  0  0  0  0
  151.1721  128.3916  156.3952 H   0  0  0  0  0  0  0  0  0  0  0  0
  152.2300  128.8122  155.0430 H   0  0  0  0  0  0  0  0  0  0  0  0
  150.4171  139.5405  154.7096 H   0  0  0  0  0  0  0  0  0  0  0  0
  149.1206  138.4263  154.2937 H   0  0  0  0  0  0  0  0  0  0  0  0
  149.1747  140.5183  152.7665 H   0  0  0  0  0  0  0  0  0  0  0  0
  1  2  2  0  0  0  0
  2 29  1  0  0  0  0
  2  3  1  0  0  0  0
  3  4  1  0  0  0  0
  3 30  1  0  0  0  0
  3 31  1  0  0  0  0
  4  5  1  0  0  0  0
  4 28  1  0  0  0  0
  4 32  1  0  0  0  0
  5 10  1  0  0  0  0
  5  6  1  0  0  0  0
  5 33  1  0  0  0  0
  6  7  1  0  0  0  0
  6 34  1  0  0  0  0
  6 35  1  0  0  0  0
  7  8  1  0  0  0  0
  7 36  1  0  0  0  0
  7 37  1  0  0  0  0
  8  9  1  0  0  0  0
  8 38  1  0  0  0  0
  8 39  1  0  0  0  0
  9 10  1  0  0  0  0
  9 40  1  0  0  0  0
  9 41  1  0  0  0  0
 10 11  1  0  0  0  0
 11 16  1  0  0  0  0
 11 12  2  0  0  0  0
 12 13  1  0  0  0  0
 13 14  2  0  0  0  0
 13 42  1  0  0  0  0
 14 15  1  0  0  0  0
 15 19  1  0  0  0  0
 15 16  2  0  0  0  0
 16 17  1  0  0  0  0
 17 18  2  0  0  0  0
 18 19  1  0  0  0  0
 18 43  1  0  0  0  0
 19 20  1  0  0  0  0
 20 21  1  0  0  0  0
 20 44  1  0  0  0  0
 20 45  1  0  0  0  0
 21 22  1  0  0  0  0
 21 23  1  0  0  0  0
 21 46  1  0  0  0  0
 22 47  1  0  0  0  0
 23 27  1  0  0  0  0
 23 24  1  0  0  0  0
 23 48  1  0  0  0  0
 24 25  1  0  0  0  0
 24 49  1  0  0  0  0
 24 50  1  0  0  0  0
 25 26  1  0  0  0  0
 25 51  1  0  0  0  0
 25 52  1  0  0  0  0
 26 27  1  0  0  0  0
 26 53  1  0  0  0  0
 26 54  1  0  0  0  0
 28 29  1  0  0  0  0
 28 55  1  0  0  0  0
 28 56  1  0  0  0  0
 29 57  1  0  0  0  0
M  END
> <s_m_source_file>
AV-unprocessed.smi

> <i_m_source_file_index>
203

> <i_lp_mmshare_version>
43012

> <i_f3d_flags>
0

> <s_epik_input>
Tz1DMVtDSDJdW0NASF0oW0NIMl1bTkhdMSlbQ0BASF0yW0NIMl1bQ0gyXVtDSDJdW0NIMl1OMmMobltjSF1uMyljKGMzNCluW2NIXW40W0NIMl1bQ0BIXShbT0hdKVtDQEBIXTVbQ0gyXVtDSDJdW0NIMl1PNQ==

> <s_epik_cmdline>
J2VwaWtfcHl0aG9uJywgJy1waCcsICc3LjAnLCAnLXRuJywgJzgnLCAnLW1hJywgJzIwMCcsICctbWV0YWxfYmluZGluZycsICctaW1hZScsICc8aW5maWxlLm1hZT4nLCAnLW9tYWUnLCAnPG91dGZpbGUubWFlPic=

> <r_lp_tautomer_probability>
1

> <r_epik_Ionization_Penalty>
0.00175146

> <r_epik_Ionization_Penalty_Charging>
0

> <r_epik_Ionization_Penalty_Neutral>
0.00175146

> <r_epik_State_Penalty>
0.00109045

> <r_epik_Charging_Adjusted_Penalty>
0.00109045

> <i_epik_Tot_Q>
0

> <i_epik_Tot_abs_Q>
0

> <r_epik_Metal_State_Penalty>
-0

> <b_epik_Metal_Only>
0

> <s_lp_Force_Field>
OPLS_2005

> <r_lp_Energy>
56.5765

> <b_lp_Chiralities_Consistent>
1

> <s_lp_Variant>
AV-unprocessed.smi:203-14

> <Gold.Version>
5.8.1

> <Gold.Id.Protein>
6NUR|6NUR_protein|mol2

> <Gold.PLP.Fitness>
44.1426

> <Gold.PLP.PLP>
-36.4896

> <Gold.PLP.part.hbond>
-3.3449

> <Gold.PLP.part.metal>
0.0000

> <Gold.PLP.part.buried>
-7.8863

> <Gold.PLP.part.nonpolar>
-25.9453

> <Gold.PLP.part.repulsive>
0.4299

> <Gold.PLP.ligand.clash>
0.0000

> <Gold.PLP.ligand.torsion>
0.7963

> <Gold.PLP.Chemscore.Hbond>
2.9520

> <Gold.PLP.Chemscore.CHOScore>
0.0000

> <Gold.PLP.Chemscore.Metal>
0.0000

> <Gold.Chemscore.Hbonds>
donor molecule, donor type, donor heavy atom, donor atom, acceptor molecule, acceptor atom, score
      L1  H    29    57       P1  7957  1.00
      P1  H  6896  6907       L1    14  0.40
      P1  H  6896  6909       L1    22  0.49

> <Gold.PLP.Chemscore.Internal.Correction>
0.3897

> <Gold.Rescore>
     Score         DG    S(hbond)    S(metal)    S(lipo)     H(rot)  DE(clash)    DE(int)     intcor
     13.39     -14.40       2.20        0.00      72.98       2.72       0.12       0.89       ----

> <Gold.Chemscore.Fitness>
13.3910

> <Gold.Chemscore.DG>
-14.4049

> <Gold.Chemscore.ZeroCoef>
-5.4800

> <Gold.Chemscore.Hbond>
2.1982

> <Gold.Chemscore.Metal>
0.0000

> <Gold.Chemscore.Lipo>
72.9810

> <Gold.Chemscore.Internal_Hbond>
0.0000

> <Gold.Chemscore.DEClash>
0.1217

> <Gold.Chemscore.DEInternal>
0.8922

> <Gold.Chemscore.Rot>
2.7171

> <Gold.Chemscore.Internal.Correction>
   9.000000E+99

> <Gold.Chemscore.Hbonds>
donor molecule, donor type, donor heavy atom, donor atom, acceptor molecule, acceptor atom, score
      L1  H    29    57       P1  7957  0.99
      P1  H  6896  6907       L1    14  0.01
      P1  H  6896  6909       L1    22  0.15

> <Gold.Chemscore.Hbond.Weighted>
-7.3419

> <Gold.Chemscore.Metal.Weighted>
-0.0000

> <Gold.Chemscore.Lipo.Weighted>
-8.5388

> <Gold.Chemscore.Internal_Hbond.Weighted>
0.0000

> <Gold.Chemscore.DEClash.Weighted>
0.1217

> <Gold.Chemscore.DEInternal.Weighted>
0.8922

> <Gold.Chemscore.Rot.Weighted>
6.9557

> <Gold.Chemscore.Internal.Correction.Weighted>
   9.000000E+99

> <Gold.Protein.RotatedTorsions>
[ 6907 6896 6895 6894 ] final  -65.62 input  -60.11 | X-H torsion
[ 7974 7965 7964 7962 ] final  -31.49 input  175.53 | X-H torsion
[ 8008 7997 7996 7995 ] final   12.13 input   59.86 | X-H torsion
[ 10167 10162 10161 10158 ] final   -3.71 input  -65.29 | X-H torsion
[ 10718 10713 10712 10709 ] final  -72.45 input   66.30 | X-H torsion
[ 10763 10752 10751 10750 ] final  -31.71 input  -60.55 | X-H torsion
[ 11005 11000 10999 10996 ] final  -78.70 input  -57.11 | X-H torsion

> <Gold.Protein.ActiveResidues>
 VAL166  LYS551  ARG553  GLY616  TRP617  ASP618  TYR619  PRO620  LYS621  CYS622 
 ASP623  PHE694  ASN695  SER759  ASP760  ASP761  ALA762  ILE779  LEU786  VAL792 
 PHE793  MET794  SER795  GLU796  ALA797  LYS798  CYS799  TRP800  GLU811  SER814 

> <Gold.Protein.RotatedAtoms>
  150.7513  134.6134  159.6097 H   0  0  0  0  0  0  0  0  0  0  0  0  # atno 6907 bound_to 6896
  152.3462  134.7065  160.0259 H   0  0  0  0  0  0  0  0  0  0  0  0  # atno 6908 bound_to 6896
  151.7501  133.3291  159.3426 H   0  0  0  0  0  0  0  0  0  0  0  0  # atno 6909 bound_to 6896
  146.1063  140.5674  142.8798 H   0  0  0  0  0  0  0  0  0  0  0  0  # atno 7974 bound_to 7965
  154.8164  140.2876  155.5817 H   0  0  0  0  0  0  0  0  0  0  0  0  # atno 8008 bound_to 7997
  156.2993  140.2558  156.2992 H   0  0  0  0  0  0  0  0  0  0  0  0  # atno 8009 bound_to 7997
  154.9389  140.0382  157.2076 H   0  0  0  0  0  0  0  0  0  0  0  0  # atno 8010 bound_to 7997
  140.6900  143.6508  150.8352 H   0  0  0  0  0  0  0  0  0  0  0  0  # atno 10167 bound_to 10162
  156.0320  130.4372  150.2594 H   0  0  0  0  0  0  0  0  0  0  0  0  # atno 10718 bound_to 10713
  153.8019  135.6889  153.4854 H   0  0  0  0  0  0  0  0  0  0  0  0  # atno 10763 bound_to 10752
  153.1683  135.4552  154.9866 H   0  0  0  0  0  0  0  0  0  0  0  0  # atno 10764 bound_to 10752
  154.8003  135.3335  154.7507 H   0  0  0  0  0  0  0  0  0  0  0  0  # atno 10765 bound_to 10752
  141.1665  133.7074  156.8012 H   0  0  0  0  0  0  0  0  0  0  0  0  # atno 11005 bound_to 11000
  144.7474  140.5103  143.6826 LP  0  0  0  0  0  0  0  0  0  0  0  0  # atno 17320 bound_to 7965
  145.5754  139.1485  143.3265 LP  0  0  0  0  0  0  0  0  0  0  0  0  # atno 17321 bound_to 7965
  140.0220  143.5532  152.2796 LP  0  0  0  0  0  0  0  0  0  0  0  0  # atno 17342 bound_to 10162
  139.6294  144.7642  151.2568 LP  0  0  0  0  0  0  0  0  0  0  0  0  # atno 17343 bound_to 10162
  157.0696  131.0113  151.3195 LP  0  0  0  0  0  0  0  0  0  0  0  0  # atno 17370 bound_to 10713
  157.5010  130.7879  149.7604 LP  0  0  0  0  0  0  0  0  0  0  0  0  # atno 17371 bound_to 10713
  140.2255  134.8725  157.3422 LP  0  0  0  0  0  0  0  0  0  0  0  0  # atno 17394 bound_to 11000
  140.1944  134.4332  155.7697 LP  0  0  0  0  0  0  0  0  0  0  0  0  # atno 17395 bound_to 11000

$$$$
