AV-unprocessed.smi:1677|AV-procd|sdf|6721|dock1
  -GOLD-   22720 7463D 1   1.00000     0.00000
 Structure written by MMmdl.
 37 38  0  0  0  0  0  0  0  0  2 V2000
  148.9529  138.7224  156.2493 C   0  0  0  0  0  0  0  0  0  0  0  0
  150.0638  139.6562  155.7419 C   0  0  1  0  0  0  0  0  0  0  0  0
  149.7227  140.3293  154.3949 C   0  0  0  0  0  0  0  0  0  0  0  0
  148.3309  140.7835  154.3219 N   0  0  0  0  0  0  0  0  0  0  0  0
  147.7499  141.7908  155.0484 C   0  0  0  0  0  0  0  0  0  0  0  0
  146.4401  141.8563  154.6483 C   0  0  0  0  0  0  0  0  0  0  0  0
  146.2761  140.8842  153.6978 N   0  3  0  0  0  0  0  0  0  0  0  0
  147.4261  140.2302  153.5037 C   0  0  0  0  0  0  0  0  0  0  0  0
  150.3381  140.6693  156.7565 N   0  0  0  0  0  0  0  0  0  0  0  0
  151.5470  140.9463  157.2702 C   0  0  0  0  0  0  0  0  0  0  0  0
  152.5766  140.3697  156.9182 O   0  0  0  0  0  0  0  0  0  0  0  0
  151.5996  142.0387  158.3464 C   0  0  2  0  0  0  0  0  0  0  0  0
  151.2062  143.4184  157.7692 C   0  0  0  0  0  0  0  0  0  0  0  0
  151.4960  144.5492  158.7408 C   0  0  0  0  0  0  0  0  0  0  0  0
  152.2993  144.4171  159.8103 C   0  0  0  0  0  0  0  0  0  0  0  0
  153.0122  143.1242  160.1661 C   0  0  0  0  0  0  0  0  0  0  0  0
  152.9904  142.1088  159.0079 C   0  0  0  0  0  0  0  0  0  0  0  0
  148.7826  137.8930  155.5628 H   0  0  0  0  0  0  0  0  0  0  0  0
  148.0097  139.2565  156.3687 H   0  0  0  0  0  0  0  0  0  0  0  0
  149.2157  138.2911  157.2159 H   0  0  0  0  0  0  0  0  0  0  0  0
  150.9619  139.0495  155.6103 H   0  0  0  0  0  0  0  0  0  0  0  0
  150.3752  141.1861  154.2178 H   0  0  0  0  0  0  0  0  0  0  0  0
  149.8797  139.6376  153.5660 H   0  0  0  0  0  0  0  0  0  0  0  0
  148.2988  142.3720  155.7758 H   0  0  0  0  0  0  0  0  0  0  0  0
  145.6340  142.5038  154.9608 H   0  0  0  0  0  0  0  0  0  0  0  0
  147.5910  139.4184  152.8175 H   0  0  0  0  0  0  0  0  0  0  0  0
  149.5474  141.1918  157.1053 H   0  0  0  0  0  0  0  0  0  0  0  0
  150.8782  141.7830  159.1251 H   0  0  0  0  0  0  0  0  0  0  0  0
  151.7404  143.6294  156.8416 H   0  0  0  0  0  0  0  0  0  0  0  0
  150.1419  143.4291  157.5317 H   0  0  0  0  0  0  0  0  0  0  0  0
  151.0313  145.5018  158.5329 H   0  0  0  0  0  0  0  0  0  0  0  0
  152.4550  145.2569  160.4716 H   0  0  0  0  0  0  0  0  0  0  0  0
  154.0423  143.3455  160.4467 H   0  0  0  0  0  0  0  0  0  0  0  0
  152.5262  142.7026  161.0464 H   0  0  0  0  0  0  0  0  0  0  0  0
  153.2953  141.1280  159.3757 H   0  0  0  0  0  0  0  0  0  0  0  0
  153.7327  142.4020  158.2635 H   0  0  0  0  0  0  0  0  0  0  0  0
  145.4107  140.6861  153.2114 H   0  0  0  0  0  0  0  0  0  0  0  0
  1  2  1  0  0  0  0
  1 18  1  0  0  0  0
  1 19  1  0  0  0  0
  1 20  1  0  0  0  0
  2  3  1  0  0  0  0
  2  9  1  0  0  0  0
  2 21  1  0  0  0  0
  3  4  1  0  0  0  0
  3 22  1  0  0  0  0
  3 23  1  0  0  0  0
  4  8  1  0  0  0  0
  4  5  1  0  0  0  0
  5  6  2  0  0  0  0
  5 24  1  0  0  0  0
  6  7  1  0  0  0  0
  6 25  1  0  0  0  0
  7  8  2  0  0  0  0
  7 37  1  0  0  0  0
  8 26  1  0  0  0  0
  9 10  1  0  0  0  0
  9 27  1  0  0  0  0
 10 11  2  0  0  0  0
 10 12  1  0  0  0  0
 12 17  1  0  0  0  0
 12 13  1  0  0  0  0
 12 28  1  0  0  0  0
 13 14  1  0  0  0  0
 13 29  1  0  0  0  0
 13 30  1  0  0  0  0
 14 15  2  0  0  0  0
 14 31  1  0  0  0  0
 15 16  1  0  0  0  0
 15 32  1  0  0  0  0
 16 17  1  0  0  0  0
 16 33  1  0  0  0  0
 16 34  1  0  0  0  0
 17 35  1  0  0  0  0
 17 36  1  0  0  0  0
M  CHG  1   7   1
M  END
> <s_m_source_file>
AV-unprocessed.smi

> <i_m_source_file_index>
1677

> <i_lp_mmshare_version>
43012

> <i_f3d_flags>
0

> <s_epik_input>
W2NIXTFuW2NIXVtjSF1uMVtDSDJdW0NAQEhdKFtDSDNdKVtOSF1DKD1PKVtDQEBIXTJbQ0gyXVtDSF09W0NIXVtDSDJdW0NIMl0y

> <s_epik_cmdline>
J2VwaWtfcHl0aG9uJywgJy1waCcsICc3LjAnLCAnLXRuJywgJzgnLCAnLW1hJywgJzIwMCcsICctbWV0YWxfYmluZGluZycsICctaW1hZScsICc8aW5maWxlLm1hZT4nLCAnLW9tYWUnLCAnPG91dGZpbGUubWFlPic=

> <r_lp_tautomer_probability>
1

> <r_epik_Ionization_Penalty>
0.245541

> <r_epik_Ionization_Penalty_Charging>
0

> <r_epik_Ionization_Penalty_Neutral>
0.245541

> <r_epik_State_Penalty>
0.236686

> <r_epik_Charging_Adjusted_Penalty>
0.236686

> <i_epik_Tot_Q>
1

> <i_epik_Tot_abs_Q>
1

> <r_epik_Metal_State_Penalty>
0.529594

> <b_epik_Metal_Only>
0

> <s_lp_Force_Field>
OPLS_2005

> <r_lp_Energy>
11.4362

> <b_lp_Chiralities_Consistent>
1

> <s_lp_Variant>
AV-unprocessed.smi:1677-2

> <Gold.Version>
5.8.1

> <Gold.Id.Protein>
6NUR|6NUR_protein|mol2

> <Gold.PLP.Fitness>
50.2266

> <Gold.PLP.PLP>
-37.4714

> <Gold.PLP.part.hbond>
-2.0000

> <Gold.PLP.part.metal>
0.0000

> <Gold.PLP.part.buried>
0.4840

> <Gold.PLP.part.nonpolar>
-35.7863

> <Gold.PLP.part.repulsive>
0.0626

> <Gold.PLP.ligand.clash>
0.0000

> <Gold.PLP.ligand.torsion>
0.4227

> <Gold.PLP.Chemscore.Hbond>
3.0000

> <Gold.PLP.Chemscore.CHOScore>
1.5083

> <Gold.PLP.Chemscore.Metal>
0.0000

> <Gold.Chemscore.Hbonds>
donor molecule, donor type, donor heavy atom, donor atom, acceptor molecule, acceptor atom, score
      L1  H     7    37       P1 10175  2.00
      P1  H  7997  8010       L1    11  0.94
      L1  C     5    24       P1  8028  0.94
      L1  C     8    26       P1  7957  0.40

> <Gold.PLP.Chemscore.Internal.Correction>
0.0758

> <Gold.Rescore>
     Score         DG    S(hbond)    S(metal)    S(lipo)     H(rot)  DE(clash)    DE(int)     intcor
     17.63     -18.08       1.94        0.00      91.95       1.81       0.03       0.42       ----

> <Gold.Chemscore.Fitness>
17.6252

> <Gold.Chemscore.DG>
-18.0780

> <Gold.Chemscore.ZeroCoef>
-5.4800

> <Gold.Chemscore.Hbond>
1.9417

> <Gold.Chemscore.Metal>
0.0000

> <Gold.Chemscore.Lipo>
91.9515

> <Gold.Chemscore.Internal_Hbond>
0.0000

> <Gold.Chemscore.DEClash>
0.0330

> <Gold.Chemscore.DEInternal>
0.4198

> <Gold.Chemscore.Rot>
1.8147

> <Gold.Chemscore.Internal.Correction>
   9.000000E+99

> <Gold.Chemscore.Hbonds>
donor molecule, donor type, donor heavy atom, donor atom, acceptor molecule, acceptor atom, score
      L1  H     7    37       P1 10175  0.82
      P1  H  7997  8010       L1    11  0.91

> <Gold.Chemscore.Hbond.Weighted>
-6.4852

> <Gold.Chemscore.Metal.Weighted>
-0.0000

> <Gold.Chemscore.Lipo.Weighted>
-10.7583

> <Gold.Chemscore.Internal_Hbond.Weighted>
0.0000

> <Gold.Chemscore.DEClash.Weighted>
0.0330

> <Gold.Chemscore.DEInternal.Weighted>
0.4198

> <Gold.Chemscore.Rot.Weighted>
4.6456

> <Gold.Chemscore.Internal.Correction.Weighted>
   9.000000E+99

> <Gold.Protein.RotatedTorsions>
[ 6907 6896 6895 6894 ] final  149.62 input  -60.11 | X-H torsion
[ 7974 7965 7964 7962 ] final  -55.95 input  175.53 | X-H torsion
[ 8008 7997 7996 7995 ] final   70.17 input   59.86 | X-H torsion
[ 10167 10162 10161 10158 ] final  -95.33 input  -65.29 | X-H torsion
[ 10718 10713 10712 10709 ] final   44.54 input   66.30 | X-H torsion
[ 10763 10752 10751 10750 ] final -160.94 input  -60.55 | X-H torsion
[ 11005 11000 10999 10996 ] final   24.18 input  -57.11 | X-H torsion

> <Gold.Protein.ActiveResidues>
 VAL166  LYS551  ARG553  GLY616  TRP617  ASP618  TYR619  PRO620  LYS621  CYS622 
 ASP623  PHE694  ASN695  SER759  ASP760  ASP761  ALA762  ILE779  LEU786  VAL792 
 PHE793  MET794  SER795  GLU796  ALA797  LYS798  CYS799  TRP800  GLU811  SER814 

> <Gold.Protein.RotatedAtoms>
  152.1255  133.4377  159.4695 H   0  0  0  0  0  0  0  0  0  0  0  0  # atno 6907 bound_to 6896
  150.6874  134.2484  159.4510 H   0  0  0  0  0  0  0  0  0  0  0  0  # atno 6908 bound_to 6896
  152.0364  134.9737  160.0624 H   0  0  0  0  0  0  0  0  0  0  0  0  # atno 6909 bound_to 6896
  145.8683  140.8235  142.9901 H   0  0  0  0  0  0  0  0  0  0  0  0  # atno 7974 bound_to 7965
  155.7347  140.3491  155.5076 H   0  0  0  0  0  0  0  0  0  0  0  0  # atno 8008 bound_to 7997
  155.9150  140.1057  157.1272 H   0  0  0  0  0  0  0  0  0  0  0  0  # atno 8009 bound_to 7997
  154.4061  140.1260  156.4593 H   0  0  0  0  0  0  0  0  0  0  0  0  # atno 8010 bound_to 7997
  140.3053  143.3138  152.0206 H   0  0  0  0  0  0  0  0  0  0  0  0  # atno 10167 bound_to 10162
  157.4280  130.8008  149.7576 H   0  0  0  0  0  0  0  0  0  0  0  0  # atno 10718 bound_to 10713
  154.7346  135.3054  154.8833 H   0  0  0  0  0  0  0  0  0  0  0  0  # atno 10763 bound_to 10752
  153.9665  135.6747  153.4750 H   0  0  0  0  0  0  0  0  0  0  0  0  # atno 10764 bound_to 10752
  153.0951  135.4940  154.8685 H   0  0  0  0  0  0  0  0  0  0  0  0  # atno 10765 bound_to 10752
  140.3615  134.2120  155.7672 H   0  0  0  0  0  0  0  0  0  0  0  0  # atno 11005 bound_to 11000
  144.6726  140.1200  143.7450 LP  0  0  0  0  0  0  0  0  0  0  0  0  # atno 17320 bound_to 7965
  145.9167  139.2520  143.1406 LP  0  0  0  0  0  0  0  0  0  0  0  0  # atno 17321 bound_to 7965
  139.4906  144.6425  151.6846 LP  0  0  0  0  0  0  0  0  0  0  0  0  # atno 17342 bound_to 10162
  140.5616  144.0259  150.6172 LP  0  0  0  0  0  0  0  0  0  0  0  0  # atno 17343 bound_to 10162
  155.9903  130.3945  150.3034 LP  0  0  0  0  0  0  0  0  0  0  0  0  # atno 17370 bound_to 10713
  157.1188  131.0241  151.3018 LP  0  0  0  0  0  0  0  0  0  0  0  0  # atno 17371 bound_to 10713
  141.1982  133.8040  157.0591 LP  0  0  0  0  0  0  0  0  0  0  0  0  # atno 17394 bound_to 11000
  140.0623  134.9748  157.1326 LP  0  0  0  0  0  0  0  0  0  0  0  0  # atno 17395 bound_to 11000

$$$$
