AV-unprocessed.smi:212|AV-procd|sdf|1626|dock4
  -GOLD-   2262019573D 1   1.00000     0.00000
 Structure written by MMmdl.
 65 68  0  0  0  0  0  0  0  0  2 V2000
  149.5231  132.9256  157.2991 C   0  0  0  0  0  0  0  0  0  0  0  0
  149.9355  134.0480  156.3315 C   0  0  1  0  0  0  0  0  0  0  0  0
  149.4150  133.8022  154.8991 C   0  0  0  0  0  0  0  0  0  0  0  0
  147.9486  134.0230  154.8031 N   0  3  2  0  0  0  0  0  0  0  0  0
  147.3855  133.6751  153.4722 C   0  0  0  0  0  0  0  0  0  0  0  0
  147.0117  132.1788  153.3680 C   0  0  0  0  0  0  0  0  0  0  0  0
  146.1085  131.7737  154.5449 C   0  0  0  0  0  0  0  0  0  0  0  0
  146.3293  131.8378  152.0301 C   0  0  0  0  0  0  0  0  0  0  0  0
  148.1909  131.4057  153.4772 O   0  0  0  0  0  0  0  0  0  0  0  0
  147.5495  135.3729  155.2751 C   0  0  0  0  0  0  0  0  0  0  0  0
  148.0635  135.6325  156.7030 C   0  0  0  0  0  0  0  0  0  0  0  0
  149.4986  135.3625  156.8097 N   0  0  0  0  0  0  0  0  0  0  0  0
  150.3728  136.3860  156.6192 C   0  0  0  0  0  0  0  0  0  0  0  0
  151.1794  136.3955  155.5244 N   0  0  0  0  0  0  0  0  0  0  0  0
  152.0501  137.3913  155.3336 C   0  0  0  0  0  0  0  0  0  0  0  0
  152.2743  138.4609  156.0988 N   0  0  0  0  0  0  0  0  0  0  0  0
  151.4635  138.4619  157.1948 C   0  0  0  0  0  0  0  0  0  0  0  0
  150.4937  137.4749  157.5285 C   0  0  0  0  0  0  0  0  0  0  0  0
  149.8529  137.8238  158.7123 N   0  0  0  0  0  0  0  0  0  0  0  0
  150.4156  138.9490  159.0605 C   0  0  0  0  0  0  0  0  0  0  0  0
  151.3992  139.3996  158.2093 N   0  0  0  0  0  0  0  0  0  0  0  0
  152.1854  140.6126  158.3458 C   0  0  0  0  0  0  0  0  0  0  0  0
  151.3134  141.8954  158.3880 C   0  0  2  0  0  0  0  0  0  0  0  0
  150.4166  142.0156  157.1330 C   0  0  0  0  0  0  0  0  0  0  0  0
  151.1723  142.3802  155.9969 O   0  0  0  0  0  0  0  0  0  0  0  0
  152.1488  143.1836  158.6364 C   0  0  1  0  0  0  0  0  0  0  0  0
  151.3536  144.4791  158.4481 C   0  0  0  0  0  0  0  0  0  0  0  0
  151.5712  145.2513  159.7484 C   0  0  0  0  0  0  0  0  0  0  0  0
  151.8623  144.2402  160.6984 O   0  0  0  0  0  0  0  0  0  0  0  0
  152.7266  143.3189  160.0541 C   0  0  0  0  0  0  0  0  0  0  0  0
  149.9078  131.9623  156.9634 H   0  0  0  0  0  0  0  0  0  0  0  0
  148.4403  132.8333  157.3852 H   0  0  0  0  0  0  0  0  0  0  0  0
  149.9226  133.1067  158.2972 H   0  0  0  0  0  0  0  0  0  0  0  0
  151.0235  134.0201  156.2760 H   0  0  0  0  0  0  0  0  0  0  0  0
  149.9186  134.4766  154.2043 H   0  0  0  0  0  0  0  0  0  0  0  0
  149.6595  132.7866  154.5847 H   0  0  0  0  0  0  0  0  0  0  0  0
  146.5150  134.2975  153.2568 H   0  0  0  0  0  0  0  0  0  0  0  0
  148.1077  133.9116  152.6889 H   0  0  0  0  0  0  0  0  0  0  0  0
  145.1699  132.3288  154.5308 H   0  0  0  0  0  0  0  0  0  0  0  0
  146.5905  131.9685  155.5037 H   0  0  0  0  0  0  0  0  0  0  0  0
  145.8611  130.7118  154.5121 H   0  0  0  0  0  0  0  0  0  0  0  0
  145.4191  132.4228  151.8931 H   0  0  0  0  0  0  0  0  0  0  0  0
  146.0515  130.7839  151.9850 H   0  0  0  0  0  0  0  0  0  0  0  0
  146.9802  132.0367  151.1779 H   0  0  0  0  0  0  0  0  0  0  0  0
  148.2673  130.8611  152.7078 H   0  0  0  0  0  0  0  0  0  0  0  0
  147.9430  136.1242  154.5892 H   0  0  0  0  0  0  0  0  0  0  0  0
  146.4633  135.4660  155.2561 H   0  0  0  0  0  0  0  0  0  0  0  0
  147.8318  136.6522  157.0141 H   0  0  0  0  0  0  0  0  0  0  0  0
  147.5386  134.9846  157.4050 H   0  0  0  0  0  0  0  0  0  0  0  0
  152.6535  137.3214  154.4405 H   0  0  0  0  0  0  0  0  0  0  0  0
  150.1301  139.4822  159.9559 H   0  0  0  0  0  0  0  0  0  0  0  0
  152.7845  140.5110  159.2502 H   0  0  0  0  0  0  0  0  0  0  0  0
  152.8934  140.6553  157.5179 H   0  0  0  0  0  0  0  0  0  0  0  0
  150.6389  141.7942  159.2400 H   0  0  0  0  0  0  0  0  0  0  0  0
  149.8924  141.0813  156.9332 H   0  0  0  0  0  0  0  0  0  0  0  0
  149.6553  142.7833  157.2678 H   0  0  0  0  0  0  0  0  0  0  0  0
  150.9732  143.2777  155.7778 H   0  0  0  0  0  0  0  0  0  0  0  0
  152.9803  143.2007  157.9312 H   0  0  0  0  0  0  0  0  0  0  0  0
  151.6962  145.0506  157.5849 H   0  0  0  0  0  0  0  0  0  0  0  0
  150.2919  144.2838  158.2983 H   0  0  0  0  0  0  0  0  0  0  0  0
  152.4259  145.9239  159.6612 H   0  0  0  0  0  0  0  0  0  0  0  0
  150.7003  145.8390  160.0397 H   0  0  0  0  0  0  0  0  0  0  0  0
  152.7901  142.3778  160.6000 H   0  0  0  0  0  0  0  0  0  0  0  0
  153.7311  143.7444  160.0165 H   0  0  0  0  0  0  0  0  0  0  0  0
  147.5318  133.3699  155.4511 H   0  0  0  0  0  0  0  0  0  0  0  0
  1  2  1  0  0  0  0
  1 31  1  0  0  0  0
  1 32  1  0  0  0  0
  1 33  1  0  0  0  0
  2 12  1  0  0  0  0
  2  3  1  0  0  0  0
  2 34  1  0  0  0  0
  3  4  1  0  0  0  0
  3 35  1  0  0  0  0
  3 36  1  0  0  0  0
  4  5  1  0  0  0  0
  4 10  1  0  0  0  0
  4 65  1  0  0  0  0
  5  6  1  0  0  0  0
  5 37  1  0  0  0  0
  5 38  1  0  0  0  0
  6  7  1  0  0  0  0
  6  8  1  0  0  0  0
  6  9  1  0  0  0  0
  7 39  1  0  0  0  0
  7 40  1  0  0  0  0
  7 41  1  0  0  0  0
  8 42  1  0  0  0  0
  8 43  1  0  0  0  0
  8 44  1  0  0  0  0
  9 45  1  0  0  0  0
 10 11  1  0  0  0  0
 10 46  1  0  0  0  0
 10 47  1  0  0  0  0
 11 12  1  0  0  0  0
 11 48  1  0  0  0  0
 11 49  1  0  0  0  0
 12 13  1  0  0  0  0
 13 18  1  0  0  0  0
 13 14  2  0  0  0  0
 14 15  1  0  0  0  0
 15 16  2  0  0  0  0
 15 50  1  0  0  0  0
 16 17  1  0  0  0  0
 17 21  1  0  0  0  0
 17 18  2  0  0  0  0
 18 19  1  0  0  0  0
 19 20  2  0  0  0  0
 20 21  1  0  0  0  0
 20 51  1  0  0  0  0
 21 22  1  0  0  0  0
 22 23  1  0  0  0  0
 22 52  1  0  0  0  0
 22 53  1  0  0  0  0
 23 24  1  0  0  0  0
 23 26  1  0  0  0  0
 23 54  1  0  0  0  0
 24 25  1  0  0  0  0
 24 55  1  0  0  0  0
 24 56  1  0  0  0  0
 25 57  1  0  0  0  0
 26 30  1  0  0  0  0
 26 27  1  0  0  0  0
 26 58  1  0  0  0  0
 27 28  1  0  0  0  0
 27 59  1  0  0  0  0
 27 60  1  0  0  0  0
 28 29  1  0  0  0  0
 28 61  1  0  0  0  0
 28 62  1  0  0  0  0
 29 30  1  0  0  0  0
 30 63  1  0  0  0  0
 30 64  1  0  0  0  0
M  CHG  1   4   1
M  END
> <s_m_source_file>
AV-unprocessed.smi

> <i_m_source_file_index>
212

> <i_lp_mmshare_version>
43012

> <i_f3d_flags>
0

> <s_epik_input>
W0NIM11bQ0BASF0xW0NIMl1OKFtDSDJdQyhbQ0gzXSkoW0NIM10pW09IXSlbQ0gyXVtDSDJdTjFjKG5bY0hdbjIpYyhjMjMpbltjSF1uM1tDSDJdW0NASF0oW0NIMl1bT0hdKVtDQEBIXTRbQ0gyXVtDSDJdT1tDSDJdNA==

> <s_epik_cmdline>
J2VwaWtfcHl0aG9uJywgJy1waCcsICc3LjAnLCAnLXRuJywgJzgnLCAnLW1hJywgJzIwMCcsICctbWV0YWxfYmluZGluZycsICctaW1hZScsICc8aW5maWxlLm1hZT4nLCAnLW9tYWUnLCAnPG91dGZpbGUubWFlPic=

> <r_lp_tautomer_probability>
1

> <r_epik_Ionization_Penalty>
0.00182193

> <r_epik_Ionization_Penalty_Charging>
0.00173996

> <r_epik_Ionization_Penalty_Neutral>
8.19718e-05

> <r_epik_State_Penalty>
-0

> <r_epik_Charging_Adjusted_Penalty>
0.00173996

> <i_epik_Tot_Q>
1

> <i_epik_Tot_abs_Q>
1

> <r_epik_Metal_State_Penalty>
-0

> <b_epik_Metal_Only>
0

> <s_lp_Force_Field>
OPLS_2005

> <r_lp_Energy>
61.088

> <b_lp_Chiralities_Consistent>
1

> <s_lp_Variant>
AV-unprocessed.smi:212-10

> <Gold.Version>
5.8.1

> <Gold.Id.Protein>
6NUR|6NUR_protein|mol2

> <Gold.PLP.Fitness>
52.8464

> <Gold.PLP.PLP>
-46.5299

> <Gold.PLP.part.hbond>
-3.0000

> <Gold.PLP.part.metal>
0.0000

> <Gold.PLP.part.buried>
-9.0239

> <Gold.PLP.part.nonpolar>
-34.9031

> <Gold.PLP.part.repulsive>
0.2403

> <Gold.PLP.ligand.clash>
0.0000

> <Gold.PLP.ligand.torsion>
1.5577

> <Gold.PLP.Chemscore.Hbond>
2.7800

> <Gold.PLP.Chemscore.CHOScore>
0.0000

> <Gold.PLP.Chemscore.Metal>
0.0000

> <Gold.PLP.Chemscore.Internal.Correction>
1.0919

> <Gold.Rescore>
     Score         DG    S(hbond)    S(metal)    S(lipo)     H(rot)  DE(clash)    DE(int)     intcor
     13.25     -15.80       1.98        0.00     105.97       3.40       0.03       2.53       ----

> <Gold.Chemscore.Fitness>
13.2478

> <Gold.Chemscore.DG>
-15.8043

> <Gold.Chemscore.ZeroCoef>
-5.4800

> <Gold.Chemscore.Hbond>
1.9840

> <Gold.Chemscore.Metal>
0.0000

> <Gold.Chemscore.Lipo>
105.9670

> <Gold.Chemscore.Internal_Hbond>
0.0000

> <Gold.Chemscore.DEClash>
0.0267

> <Gold.Chemscore.DEInternal>
2.5298

> <Gold.Chemscore.Rot>
3.3986

> <Gold.Chemscore.Internal.Correction>
   9.000000E+99

> <Gold.Chemscore.Hbonds>
donor molecule, donor type, donor heavy atom, donor atom, acceptor molecule, acceptor atom, score
      L1  H     9    45       P1 10747  0.01

> <Gold.Chemscore.Hbond.Weighted>
-6.6267

> <Gold.Chemscore.Metal.Weighted>
-0.0000

> <Gold.Chemscore.Lipo.Weighted>
-12.3981

> <Gold.Chemscore.Internal_Hbond.Weighted>
0.0000

> <Gold.Chemscore.DEClash.Weighted>
0.0267

> <Gold.Chemscore.DEInternal.Weighted>
2.5298

> <Gold.Chemscore.Rot.Weighted>
8.7005

> <Gold.Chemscore.Internal.Correction.Weighted>
   9.000000E+99

> <Gold.Protein.RotatedTorsions>
[ 6907 6896 6895 6894 ] final  -94.90 input  -60.11 | X-H torsion
[ 7974 7965 7964 7962 ] final  163.43 input  175.53 | X-H torsion
[ 8008 7997 7996 7995 ] final   96.12 input   59.86 | X-H torsion
[ 10167 10162 10161 10158 ] final  -17.20 input  -65.29 | X-H torsion
[ 10718 10713 10712 10709 ] final -156.78 input   66.30 | X-H torsion
[ 10763 10752 10751 10750 ] final -171.55 input  -60.55 | X-H torsion
[ 11005 11000 10999 10996 ] final -124.55 input  -57.11 | X-H torsion

> <Gold.Protein.ActiveResidues>
 VAL166  LYS551  ARG553  GLY616  TRP617  ASP618  TYR619  PRO620  LYS621  CYS622 
 ASP623  PHE694  ASN695  SER759  ASP760  ASP761  ALA762  ILE779  LEU786  VAL792 
 PHE793  MET794  SER795  GLU796  ALA797  LYS798  CYS799  TRP800  GLU811  SER814 

> <Gold.Protein.RotatedAtoms>
  150.6952  134.1741  159.4223 H   0  0  0  0  0  0  0  0  0  0  0  0  # atno 6907 bound_to 6896
  151.9718  135.0071  160.0562 H   0  0  0  0  0  0  0  0  0  0  0  0  # atno 6908 bound_to 6896
  152.1835  133.4688  159.5007 H   0  0  0  0  0  0  0  0  0  0  0  0  # atno 6909 bound_to 6896
  144.7590  139.8182  143.6339 H   0  0  0  0  0  0  0  0  0  0  0  0  # atno 7974 bound_to 7965
  156.0763  140.3277  155.7637 H   0  0  0  0  0  0  0  0  0  0  0  0  # atno 8008 bound_to 7997
  155.5225  140.0586  157.2921 H   0  0  0  0  0  0  0  0  0  0  0  0  # atno 8009 bound_to 7997
  154.4557  140.1941  156.0404 H   0  0  0  0  0  0  0  0  0  0  0  0  # atno 8010 bound_to 7997
  140.7244  143.5039  150.9834 H   0  0  0  0  0  0  0  0  0  0  0  0  # atno 10167 bound_to 10162
  156.5312  130.8521  151.2717 H   0  0  0  0  0  0  0  0  0  0  0  0  # atno 10718 bound_to 10713
  154.6292  135.2884  155.0236 H   0  0  0  0  0  0  0  0  0  0  0  0  # atno 10763 bound_to 10752
  154.1403  135.6519  153.4944 H   0  0  0  0  0  0  0  0  0  0  0  0  # atno 10764 bound_to 10752
  153.0272  135.5331  154.7113 H   0  0  0  0  0  0  0  0  0  0  0  0  # atno 10765 bound_to 10752
  140.9832  134.0644  157.3741 H   0  0  0  0  0  0  0  0  0  0  0  0  # atno 11005 bound_to 11000
  146.1632  139.4754  142.9974 LP  0  0  0  0  0  0  0  0  0  0  0  0  # atno 17320 bound_to 7965
  145.6682  141.0223  143.1672 LP  0  0  0  0  0  0  0  0  0  0  0  0  # atno 17321 bound_to 7965
  139.8750  143.7144  152.3163 LP  0  0  0  0  0  0  0  0  0  0  0  0  # atno 17342 bound_to 10162
  139.7406  144.7560  151.0658 LP  0  0  0  0  0  0  0  0  0  0  0  0  # atno 17343 bound_to 10162
  157.7421  130.9884  150.2495 LP  0  0  0  0  0  0  0  0  0  0  0  0  # atno 17370 bound_to 10713
  156.3058  130.3765  149.7707 LP  0  0  0  0  0  0  0  0  0  0  0  0  # atno 17371 bound_to 10713
  139.8959  135.0143  156.7025 LP  0  0  0  0  0  0  0  0  0  0  0  0  # atno 17394 bound_to 11000
  140.7155  133.9186  155.8112 LP  0  0  0  0  0  0  0  0  0  0  0  0  # atno 17395 bound_to 11000

$$$$
