AV-unprocessed.smi:21|AV-procd|sdf|147|dock9
  -GOLD-   2262015363D 1   1.00000     0.00000
 Structure written by MMmdl.
 62 65  0  0  0  0  0  0  0  0  2 V2000
  143.8004  132.6044  150.8214 C   0  0  0  0  0  0  0  0  0  0  0  0
  143.9895  133.9369  151.2697 O   0  0  0  0  0  0  0  0  0  0  0  0
  145.2700  134.4661  150.9546 C   0  0  1  0  0  0  0  0  0  0  0  0
  145.1869  135.9842  151.0308 C   0  0  0  0  0  0  0  0  0  0  0  0
  145.4675  136.3068  152.5017 C   0  0  2  0  0  0  0  0  0  0  0  0
  145.9806  137.7461  152.7471 C   0  0  0  0  0  0  0  0  0  0  0  0
  146.1898  138.0569  154.1625 N   0  0  0  0  0  0  0  0  0  0  0  0
  145.0551  137.9478  155.0701 C   0  0  0  0  0  0  0  0  0  0  0  0
  147.1801  138.9372  154.4579 C   0  0  0  0  0  0  0  0  0  0  0  0
  147.7467  139.6155  153.4264 N   0  0  0  0  0  0  0  0  0  0  0  0
  148.6722  140.5500  153.6577 C   0  0  0  0  0  0  0  0  0  0  0  0
  149.1493  140.9780  154.8269 N   0  0  0  0  0  0  0  0  0  0  0  0
  148.5830  140.3049  155.8683 C   0  0  0  0  0  0  0  0  0  0  0  0
  147.6192  139.2605  155.7762 C   0  0  0  0  0  0  0  0  0  0  0  0
  147.2813  138.8241  157.0530 N   0  0  0  0  0  0  0  0  0  0  0  0
  147.9890  139.5755  157.8507 C   0  0  0  0  0  0  0  0  0  0  0  0
  148.7650  140.5220  157.2225 N   0  0  0  0  0  0  0  0  0  0  0  0
  149.6004  141.5222  157.8615 C   0  0  0  0  0  0  0  0  0  0  0  0
  151.1180  141.3747  157.5643 C   0  0  2  0  0  0  0  0  0  0  0  0
  151.5918  139.9755  158.0210 C   0  0  0  0  0  0  0  0  0  0  0  0
  152.7286  139.5467  157.2987 O   0  0  0  0  0  0  0  0  0  0  0  0
  152.0108  142.5233  158.1258 C   0  0  1  0  0  0  0  0  0  0  0  0
  151.5812  143.9220  157.7096 C   0  0  0  0  0  0  0  0  0  0  0  0
  152.2923  144.7985  158.7307 C   0  0  0  0  0  0  0  0  0  0  0  0
  152.2039  144.0682  159.9438 O   0  0  0  0  0  0  0  0  0  0  0  0
  152.0199  142.6853  159.6562 C   0  0  0  0  0  0  0  0  0  0  0  0
  146.4663  135.2924  152.9074 N   0  3  1  0  0  0  0  0  0  0  0  0
  146.4704  134.9799  154.3533 C   0  0  0  0  0  0  0  0  0  0  0  0
  146.2934  134.1000  152.0419 C   0  0  0  0  0  0  0  0  0  0  0  0
  145.5851  134.1499  149.9586 H   0  0  0  0  0  0  0  0  0  0  0  0
  144.5535  136.1310  153.0718 H   0  0  0  0  0  0  0  0  0  0  0  0
  142.8094  132.2586  151.1150 H   0  0  0  0  0  0  0  0  0  0  0  0
  144.5352  131.9247  151.2538 H   0  0  0  0  0  0  0  0  0  0  0  0
  143.8660  132.5435  149.7343 H   0  0  0  0  0  0  0  0  0  0  0  0
  145.9589  136.4215  150.3962 H   0  0  0  0  0  0  0  0  0  0  0  0
  144.2231  136.3584  150.6892 H   0  0  0  0  0  0  0  0  0  0  0  0
  146.9385  137.8815  152.2448 H   0  0  0  0  0  0  0  0  0  0  0  0
  145.3080  138.4698  152.2853 H   0  0  0  0  0  0  0  0  0  0  0  0
  145.3804  137.9877  156.1103 H   0  0  0  0  0  0  0  0  0  0  0  0
  144.5427  136.9975  154.9200 H   0  0  0  0  0  0  0  0  0  0  0  0
  144.3368  138.7492  154.8974 H   0  0  0  0  0  0  0  0  0  0  0  0
  149.0753  141.0367  152.7816 H   0  0  0  0  0  0  0  0  0  0  0  0
  147.9347  139.4832  158.9258 H   0  0  0  0  0  0  0  0  0  0  0  0
  149.2512  142.5079  157.5518 H   0  0  0  0  0  0  0  0  0  0  0  0
  149.4218  141.4569  158.9355 H   0  0  0  0  0  0  0  0  0  0  0  0
  151.2379  141.3815  156.4803 H   0  0  0  0  0  0  0  0  0  0  0  0
  151.8383  139.9861  159.0833 H   0  0  0  0  0  0  0  0  0  0  0  0
  150.8011  139.2348  157.9033 H   0  0  0  0  0  0  0  0  0  0  0  0
  152.5184  138.7369  156.8597 H   0  0  0  0  0  0  0  0  0  0  0  0
  153.0382  142.3756  157.7888 H   0  0  0  0  0  0  0  0  0  0  0  0
  151.8605  144.1713  156.6854 H   0  0  0  0  0  0  0  0  0  0  0  0
  150.5008  144.0371  157.8094 H   0  0  0  0  0  0  0  0  0  0  0  0
  153.3432  144.9209  158.4649 H   0  0  0  0  0  0  0  0  0  0  0  0
  151.8446  145.7881  158.8243 H   0  0  0  0  0  0  0  0  0  0  0  0
  151.0691  142.3802  160.0935 H   0  0  0  0  0  0  0  0  0  0  0  0
  152.8124  142.1041  160.1254 H   0  0  0  0  0  0  0  0  0  0  0  0
  145.5140  134.5598  154.6675 H   0  0  0  0  0  0  0  0  0  0  0  0
  146.6621  135.8747  154.9453 H   0  0  0  0  0  0  0  0  0  0  0  0
  147.2532  134.2560  154.5819 H   0  0  0  0  0  0  0  0  0  0  0  0
  145.9785  133.2239  152.6105 H   0  0  0  0  0  0  0  0  0  0  0  0
  147.2592  133.8632  151.5949 H   0  0  0  0  0  0  0  0  0  0  0  0
  147.3716  135.6763  152.6765 H   0  0  0  0  0  0  0  0  0  0  0  0
  1  2  1  0  0  0  0
  1 32  1  0  0  0  0
  1 33  1  0  0  0  0
  1 34  1  0  0  0  0
  2  3  1  0  0  0  0
  3 30  1  0  0  0  0
  3 29  1  0  0  0  0
  3  4  1  0  0  0  0
  4  5  1  0  0  0  0
  4 35  1  0  0  0  0
  4 36  1  0  0  0  0
  5 31  1  0  0  0  0
  5  6  1  0  0  0  0
  5 27  1  0  0  0  0
  6  7  1  0  0  0  0
  6 37  1  0  0  0  0
  6 38  1  0  0  0  0
  7  8  1  0  0  0  0
  7  9  1  0  0  0  0
  8 39  1  0  0  0  0
  8 40  1  0  0  0  0
  8 41  1  0  0  0  0
  9 14  1  0  0  0  0
  9 10  2  0  0  0  0
 10 11  1  0  0  0  0
 11 12  2  0  0  0  0
 11 42  1  0  0  0  0
 12 13  1  0  0  0  0
 13 17  1  0  0  0  0
 13 14  2  0  0  0  0
 14 15  1  0  0  0  0
 15 16  2  0  0  0  0
 16 17  1  0  0  0  0
 16 43  1  0  0  0  0
 17 18  1  0  0  0  0
 18 19  1  0  0  0  0
 18 44  1  0  0  0  0
 18 45  1  0  0  0  0
 19 20  1  0  0  0  0
 19 22  1  0  0  0  0
 19 46  1  0  0  0  0
 20 21  1  0  0  0  0
 20 47  1  0  0  0  0
 20 48  1  0  0  0  0
 21 49  1  0  0  0  0
 22 26  1  0  0  0  0
 22 23  1  0  0  0  0
 22 50  1  0  0  0  0
 23 24  1  0  0  0  0
 23 51  1  0  0  0  0
 23 52  1  0  0  0  0
 24 25  1  0  0  0  0
 24 53  1  0  0  0  0
 24 54  1  0  0  0  0
 25 26  1  0  0  0  0
 26 55  1  0  0  0  0
 26 56  1  0  0  0  0
 27 28  1  0  0  0  0
 27 29  1  0  0  0  0
 27 62  1  0  0  0  0
 28 57  1  0  0  0  0
 28 58  1  0  0  0  0
 28 59  1  0  0  0  0
 29 60  1  0  0  0  0
 29 61  1  0  0  0  0
M  CHG  1  27   1
M  END
> <s_m_source_file>
AV-unprocessed.smi

> <i_m_source_file_index>
21

> <i_lp_mmshare_version>
43012

> <i_f3d_flags>
0

> <s_epik_input>
W0NIM11PW0NASF0xW0NIMl1bQ0BIXShOKFtDSDNdKVtDSDJdMSlbQ0gyXU4oW0NIM10pYyhuW2NIXW4yKWMoYzIzKW5bY0hdbjNbQ0gyXVtDQEhdKFtDSDJdW09IXSlbQ0BASF00W0NIMl1bQ0gyXU9bQ0gyXTQ=

> <s_epik_cmdline>
J2VwaWtfcHl0aG9uJywgJy1waCcsICc3LjAnLCAnLXRuJywgJzgnLCAnLW1hJywgJzIwMCcsICctbWV0YWxfYmluZGluZycsICctaW1hZScsICc8aW5maWxlLm1hZT4nLCAnLW9tYWUnLCAnPG91dGZpbGUubWFlPic=

> <r_lp_tautomer_probability>
1

> <r_epik_Ionization_Penalty>
0.0157465

> <r_epik_Ionization_Penalty_Charging>
0.015354

> <r_epik_Ionization_Penalty_Neutral>
0.000392529

> <r_epik_State_Penalty>
0.0120612

> <r_epik_Charging_Adjusted_Penalty>
0.0274152

> <i_epik_Tot_Q>
1

> <i_epik_Tot_abs_Q>
1

> <r_epik_Metal_State_Penalty>
0.0121253

> <b_epik_Metal_Only>
0

> <s_lp_Force_Field>
OPLS_2005

> <r_lp_Energy>
57.9391

> <b_lp_Chiralities_Consistent>
1

> <s_lp_Variant>
AV-unprocessed.smi:21-27

> <Gold.Version>
5.8.1

> <Gold.Id.Protein>
6NUR|6NUR_protein|mol2

> <Gold.PLP.Fitness>
49.1753

> <Gold.PLP.PLP>
-39.0178

> <Gold.PLP.part.hbond>
-2.0000

> <Gold.PLP.part.metal>
0.0000

> <Gold.PLP.part.buried>
-4.6672

> <Gold.PLP.part.nonpolar>
-34.4587

> <Gold.PLP.part.repulsive>
1.4952

> <Gold.PLP.ligand.clash>
0.0000

> <Gold.PLP.ligand.torsion>
0.9640

> <Gold.PLP.Chemscore.Hbond>
3.0000

> <Gold.PLP.Chemscore.CHOScore>
0.7864

> <Gold.PLP.Chemscore.Metal>
0.0000

> <Gold.Chemscore.Hbonds>
donor molecule, donor type, donor heavy atom, donor atom, acceptor molecule, acceptor atom, score
      L1  H    27    62       P1  7948  2.00
      P1  H  7997  8009       L1    21  1.00
      L1  C    11    42       P1  7957  0.73

> <Gold.PLP.Chemscore.Internal.Correction>
0.7265

> <Gold.Rescore>
     Score         DG    S(hbond)    S(metal)    S(lipo)     H(rot)  DE(clash)    DE(int)     intcor
     13.63     -14.82       1.98        0.00      90.52       3.08       0.03       1.16       ----

> <Gold.Chemscore.Fitness>
13.6304

> <Gold.Chemscore.DG>
-14.8193

> <Gold.Chemscore.ZeroCoef>
-5.4800

> <Gold.Chemscore.Hbond>
1.9828

> <Gold.Chemscore.Metal>
0.0000

> <Gold.Chemscore.Lipo>
90.5200

> <Gold.Chemscore.Internal_Hbond>
0.0000

> <Gold.Chemscore.DEClash>
0.0260

> <Gold.Chemscore.DEInternal>
1.1629

> <Gold.Chemscore.Rot>
3.0758

> <Gold.Chemscore.Internal.Correction>
   9.000000E+99

> <Gold.Chemscore.Hbonds>
donor molecule, donor type, donor heavy atom, donor atom, acceptor molecule, acceptor atom, score
      L1  H    27    62       P1  7948  1.00
      P1  H  7997  8009       L1    21  0.65

> <Gold.Chemscore.Hbond.Weighted>
-6.6226

> <Gold.Chemscore.Metal.Weighted>
-0.0000

> <Gold.Chemscore.Lipo.Weighted>
-10.5908

> <Gold.Chemscore.Internal_Hbond.Weighted>
0.0000

> <Gold.Chemscore.DEClash.Weighted>
0.0260

> <Gold.Chemscore.DEInternal.Weighted>
1.1629

> <Gold.Chemscore.Rot.Weighted>
7.8741

> <Gold.Chemscore.Internal.Correction.Weighted>
   9.000000E+99

> <Gold.Protein.RotatedTorsions>
[ 6907 6896 6895 6894 ] final  -82.64 input  -60.11 | X-H torsion
[ 7974 7965 7964 7962 ] final -137.13 input  175.53 | X-H torsion
[ 8008 7997 7996 7995 ] final  174.75 input   59.86 | X-H torsion
[ 10167 10162 10161 10158 ] final  170.28 input  -65.29 | X-H torsion
[ 10718 10713 10712 10709 ] final  -95.52 input   66.30 | X-H torsion
[ 10763 10752 10751 10750 ] final -141.75 input  -60.55 | X-H torsion
[ 11005 11000 10999 10996 ] final -161.10 input  -57.11 | X-H torsion

> <Gold.Protein.ActiveResidues>
 VAL166  LYS551  ARG553  GLY616  TRP617  ASP618  TYR619  PRO620  LYS621  CYS622 
 ASP623  PHE694  ASN695  SER759  ASP760  ASP761  ALA762  ILE779  LEU786  VAL792 
 PHE793  MET794  SER795  GLU796  ALA797  LYS798  CYS799  TRP800  GLU811  SER814 

> <Gold.Protein.RotatedAtoms>
  150.6895  134.3634  159.4960 H   0  0  0  0  0  0  0  0  0  0  0  0  # atno 6907 bound_to 6896
  152.1460  134.9023  160.0560 H   0  0  0  0  0  0  0  0  0  0  0  0  # atno 6908 bound_to 6896
  152.0138  133.3837  159.4267 H   0  0  0  0  0  0  0  0  0  0  0  0  # atno 6909 bound_to 6896
  144.8868  140.6586  143.5170 H   0  0  0  0  0  0  0  0  0  0  0  0  # atno 7974 bound_to 7965
  156.0942  140.1426  156.9552 H   0  0  0  0  0  0  0  0  0  0  0  0  # atno 8008 bound_to 7997
  154.4661  140.0926  156.7069 H   0  0  0  0  0  0  0  0  0  0  0  0  # atno 8009 bound_to 7997
  155.4869  140.3447  155.4351 H   0  0  0  0  0  0  0  0  0  0  0  0  # atno 8010 bound_to 7997
  139.5014  144.3614  151.9821 H   0  0  0  0  0  0  0  0  0  0  0  0  # atno 10167 bound_to 10162
  156.0045  130.5113  150.6089 H   0  0  0  0  0  0  0  0  0  0  0  0  # atno 10718 bound_to 10713
  154.8534  135.3515  154.5917 H   0  0  0  0  0  0  0  0  0  0  0  0  # atno 10763 bound_to 10752
  153.6527  135.6993  153.5208 H   0  0  0  0  0  0  0  0  0  0  0  0  # atno 10764 bound_to 10752
  153.2881  135.4243  155.1099 H   0  0  0  0  0  0  0  0  0  0  0  0  # atno 10765 bound_to 10752
  140.6241  134.4719  157.5225 H   0  0  0  0  0  0  0  0  0  0  0  0  # atno 11005 bound_to 11000
  145.3854  139.1628  143.4258 LP  0  0  0  0  0  0  0  0  0  0  0  0  # atno 17320 bound_to 7965
  146.3029  140.3939  142.8697 LP  0  0  0  0  0  0  0  0  0  0  0  0  # atno 17321 bound_to 7965
  140.3050  144.3603  150.6049 LP  0  0  0  0  0  0  0  0  0  0  0  0  # atno 17342 bound_to 10162
  140.5843  143.2171  151.7370 LP  0  0  0  0  0  0  0  0  0  0  0  0  # atno 17343 bound_to 10162
  157.3925  131.0798  151.1381 LP  0  0  0  0  0  0  0  0  0  0  0  0  # atno 17370 bound_to 10713
  157.2068  130.6420  149.5759 LP  0  0  0  0  0  0  0  0  0  0  0  0  # atno 17371 bound_to 10713
  139.9141  134.8282  156.1424 LP  0  0  0  0  0  0  0  0  0  0  0  0  # atno 17394 bound_to 11000
  141.0721  133.6792  156.2162 LP  0  0  0  0  0  0  0  0  0  0  0  0  # atno 17395 bound_to 11000

$$$$
