AV-unprocessed.smi:263|AV-procd|sdf|2003|dock3
  -GOLD-   2262021193D 1   1.00000     0.00000
 Structure written by MMmdl.
 57 61  0  0  0  0  0  0  0  0  1 V2000
  149.4319  133.8571  157.5554 O   0  0  0  0  0  0  0  0  0  0  0  0
  149.9730  134.0510  156.2596 C   0  0  0  0  0  0  0  0  0  0  0  0
  149.3637  135.3561  155.6892 C   0  0  0  0  0  0  0  0  0  0  0  0
  149.7356  136.5515  156.4307 N   0  0  0  0  0  0  0  0  0  0  0  0
  149.0452  137.1266  157.4735 C   0  0  0  0  0  0  0  0  0  0  0  0
  149.5917  138.1992  157.9780 N   0  0  0  0  0  0  0  0  0  0  0  0
  150.7478  138.3782  157.2270 C   0  0  0  0  0  0  0  0  0  0  0  0
  151.7991  139.3385  157.2373 C   0  0  0  0  0  0  0  0  0  0  0  0
  151.8509  140.3619  158.1281 N   0  0  0  0  0  0  0  0  0  0  0  0
  152.9134  140.2392  159.1263 C   0  0  0  0  0  0  0  0  0  0  0  0
  152.6975  141.2151  160.2990 C   0  0  0  0  0  0  0  0  0  0  0  0
  152.5001  142.6672  159.8154 C   0  0  2  0  0  0  0  0  0  0  0  0
  153.7224  143.0938  159.2349 O   0  0  0  0  0  0  0  0  0  0  0  0
  152.1801  143.6226  160.9869 C   0  0  0  0  0  0  0  0  0  0  0  0
  151.8714  145.0537  160.5065 C   0  0  0  0  0  0  0  0  0  0  0  0
  150.7520  145.0683  159.4532 C   0  0  0  0  0  0  0  0  0  0  0  0
  151.0752  144.1346  158.2750 C   0  0  0  0  0  0  0  0  0  0  0  0
  151.3581  142.7017  158.7668 C   0  0  1  0  0  0  0  0  0  0  0  0
  151.6241  141.7146  157.6143 C   0  0  0  0  0  0  0  0  0  0  0  0
  152.7827  139.1969  156.3080 N   0  0  0  0  0  0  0  0  0  0  0  0
  152.7487  138.1850  155.4359 C   0  0  0  0  0  0  0  0  0  0  0  0
  151.8384  137.2171  155.3166 N   0  0  0  0  0  0  0  0  0  0  0  0
  150.8455  137.3562  156.2408 C   0  0  0  0  0  0  0  0  0  0  0  0
  151.5121  134.1126  156.3795 C   0  0  0  0  0  0  0  0  0  0  0  0
  152.1199  132.7487  156.7516 C   0  0  0  0  0  0  0  0  0  0  0  0
  151.7117  131.7597  155.8144 O   0  0  0  0  0  0  0  0  0  0  0  0
  150.3043  131.5542  155.8136 C   0  0  0  0  0  0  0  0  0  0  0  0
  149.5826  132.8439  155.3824 C   0  0  0  0  0  0  0  0  0  0  0  0
  148.4974  133.7421  157.4764 H   0  0  0  0  0  0  0  0  0  0  0  0
  149.6800  135.4917  154.6540 H   0  0  0  0  0  0  0  0  0  0  0  0
  148.2748  135.2919  155.6649 H   0  0  0  0  0  0  0  0  0  0  0  0
  148.1194  136.7200  157.8540 H   0  0  0  0  0  0  0  0  0  0  0  0
  152.9749  139.2243  159.5171 H   0  0  0  0  0  0  0  0  0  0  0  0
  153.8701  140.4402  158.6427 H   0  0  0  0  0  0  0  0  0  0  0  0
  151.8180  140.8975  160.8609 H   0  0  0  0  0  0  0  0  0  0  0  0
  153.5383  141.1539  160.9912 H   0  0  0  0  0  0  0  0  0  0  0  0
  154.1768  142.3342  158.9044 H   0  0  0  0  0  0  0  0  0  0  0  0
  151.3166  143.2446  161.5360 H   0  0  0  0  0  0  0  0  0  0  0  0
  153.0063  143.6417  161.6989 H   0  0  0  0  0  0  0  0  0  0  0  0
  151.5877  145.6757  161.3560 H   0  0  0  0  0  0  0  0  0  0  0  0
  152.7715  145.5043  160.0869 H   0  0  0  0  0  0  0  0  0  0  0  0
  149.8139  144.7590  159.9159 H   0  0  0  0  0  0  0  0  0  0  0  0
  150.5966  146.0846  159.0903 H   0  0  0  0  0  0  0  0  0  0  0  0
  150.2388  144.1293  157.5753 H   0  0  0  0  0  0  0  0  0  0  0  0
  151.9338  144.5198  157.7239 H   0  0  0  0  0  0  0  0  0  0  0  0
  150.4494  142.3590  159.2653 H   0  0  0  0  0  0  0  0  0  0  0  0
  152.4894  142.0346  157.0321 H   0  0  0  0  0  0  0  0  0  0  0  0
  150.7669  141.7104  156.9394 H   0  0  0  0  0  0  0  0  0  0  0  0
  153.5694  138.1438  154.7350 H   0  0  0  0  0  0  0  0  0  0  0  0
  151.9338  134.4302  155.4251 H   0  0  0  0  0  0  0  0  0  0  0  0
  151.8171  134.8594  157.1138 H   0  0  0  0  0  0  0  0  0  0  0  0
  153.2081  132.8123  156.7422 H   0  0  0  0  0  0  0  0  0  0  0  0
  151.8312  132.4517  157.7609 H   0  0  0  0  0  0  0  0  0  0  0  0
  150.0698  130.7472  155.1194 H   0  0  0  0  0  0  0  0  0  0  0  0
  149.9720  131.2272  156.8000 H   0  0  0  0  0  0  0  0  0  0  0  0
  148.5026  132.6915  155.3972 H   0  0  0  0  0  0  0  0  0  0  0  0
  149.8459  133.0525  154.3446 H   0  0  0  0  0  0  0  0  0  0  0  0
  1  2  1  0  0  0  0
  1 29  1  0  0  0  0
  2 28  1  0  0  0  0
  2  3  1  0  0  0  0
  2 24  1  0  0  0  0
  3  4  1  0  0  0  0
  3 30  1  0  0  0  0
  3 31  1  0  0  0  0
  4 23  1  0  0  0  0
  4  5  1  0  0  0  0
  5  6  2  0  0  0  0
  5 32  1  0  0  0  0
  6  7  1  0  0  0  0
  7 23  2  0  0  0  0
  7  8  1  0  0  0  0
  8  9  1  0  0  0  0
  8 20  2  0  0  0  0
  9 19  1  0  0  0  0
  9 10  1  0  0  0  0
 10 11  1  0  0  0  0
 10 33  1  0  0  0  0
 10 34  1  0  0  0  0
 11 12  1  0  0  0  0
 11 35  1  0  0  0  0
 11 36  1  0  0  0  0
 12 18  1  0  0  0  0
 12 13  1  0  0  0  0
 12 14  1  0  0  0  0
 13 37  1  0  0  0  0
 14 15  1  0  0  0  0
 14 38  1  0  0  0  0
 14 39  1  0  0  0  0
 15 16  1  0  0  0  0
 15 40  1  0  0  0  0
 15 41  1  0  0  0  0
 16 17  1  0  0  0  0
 16 42  1  0  0  0  0
 16 43  1  0  0  0  0
 17 18  1  0  0  0  0
 17 44  1  0  0  0  0
 17 45  1  0  0  0  0
 18 19  1  0  0  0  0
 18 46  1  0  0  0  0
 19 47  1  0  0  0  0
 19 48  1  0  0  0  0
 20 21  1  0  0  0  0
 21 22  2  0  0  0  0
 21 49  1  0  0  0  0
 22 23  1  0  0  0  0
 24 25  1  0  0  0  0
 24 50  1  0  0  0  0
 24 51  1  0  0  0  0
 25 26  1  0  0  0  0
 25 52  1  0  0  0  0
 25 53  1  0  0  0  0
 26 27  1  0  0  0  0
 27 28  1  0  0  0  0
 27 54  1  0  0  0  0
 27 55  1  0  0  0  0
 28 56  1  0  0  0  0
 28 57  1  0  0  0  0
M  END
> <s_m_source_file>
AV-unprocessed.smi

> <i_m_source_file_index>
263

> <i_lp_mmshare_version>
43012

> <i_f3d_flags>
0

> <s_epik_input>
W0NIMl0xW0NIMl1PW0NIMl1bQ0gyXUMxKFtPSF0pW0NIMl1uKFtjSF1uMiljKGMyMyluW2NIXW5jM04oW0NIMl1bQ0gyXTQpW0NIMl1bQ0BASF0oW0NAXTQ1W09IXSlbQ0gyXVtDSDJdW0NIMl1bQ0gyXTU=

> <s_epik_cmdline>
J2VwaWtfcHl0aG9uJywgJy1waCcsICc3LjAnLCAnLXRuJywgJzgnLCAnLW1hJywgJzIwMCcsICctbWV0YWxfYmluZGluZycsICctaW1hZScsICc8aW5maWxlLm1hZT4nLCAnLW9tYWUnLCAnPG91dGZpbGUubWFlPic=

> <r_lp_tautomer_probability>
1

> <r_epik_Ionization_Penalty>
0.00747493

> <r_epik_Ionization_Penalty_Charging>
0

> <r_epik_Ionization_Penalty_Neutral>
0.00747493

> <r_epik_State_Penalty>
0.00549307

> <r_epik_Charging_Adjusted_Penalty>
0.00549307

> <i_epik_Tot_Q>
0

> <i_epik_Tot_abs_Q>
0

> <r_epik_Metal_State_Penalty>
-0

> <b_epik_Metal_Only>
0

> <s_lp_Force_Field>
OPLS_2005

> <r_lp_Energy>
38.6154

> <b_lp_Chiralities_Consistent>
1

> <s_lp_Variant>
AV-unprocessed.smi:263-1

> <Gold.Version>
5.8.1

> <Gold.Id.Protein>
6NUR|6NUR_protein|mol2

> <Gold.PLP.Fitness>
50.6038

> <Gold.PLP.PLP>
-42.3944

> <Gold.PLP.part.hbond>
-3.0000

> <Gold.PLP.part.metal>
0.0000

> <Gold.PLP.part.buried>
-5.6270

> <Gold.PLP.part.nonpolar>
-33.2413

> <Gold.PLP.part.repulsive>
0.0605

> <Gold.PLP.ligand.clash>
0.0000

> <Gold.PLP.ligand.torsion>
0.5699

> <Gold.PLP.Chemscore.Hbond>
2.9913

> <Gold.PLP.Chemscore.CHOScore>
0.0000

> <Gold.PLP.Chemscore.Metal>
0.0000

> <Gold.Chemscore.Hbonds>
donor molecule, donor type, donor heavy atom, donor atom, acceptor molecule, acceptor atom, score
      P1  H  6896  6907       L1     1  0.48
      P1  H  7997  8010       L1    20  1.00
      P1  H 10752 10765       L1    22  0.87

> <Gold.PLP.Chemscore.Internal.Correction>
0.3754

> <Gold.Rescore>
     Score         DG    S(hbond)    S(metal)    S(lipo)     H(rot)  DE(clash)    DE(int)     intcor
     20.75     -21.45       2.55        0.00     120.93       2.62       0.12       0.58       ----

> <Gold.Chemscore.Fitness>
20.7483

> <Gold.Chemscore.DG>
-21.4467

> <Gold.Chemscore.ZeroCoef>
-5.4800

> <Gold.Chemscore.Hbond>
2.5549

> <Gold.Chemscore.Metal>
0.0000

> <Gold.Chemscore.Lipo>
120.9308

> <Gold.Chemscore.Internal_Hbond>
0.0000

> <Gold.Chemscore.DEClash>
0.1226

> <Gold.Chemscore.DEInternal>
0.5759

> <Gold.Chemscore.Rot>
2.6232

> <Gold.Chemscore.Internal.Correction>
   9.000000E+99

> <Gold.Chemscore.Hbonds>
donor molecule, donor type, donor heavy atom, donor atom, acceptor molecule, acceptor atom, score
      P1  H  6896  6907       L1     1  0.43
      P1  H  7997  8010       L1    20  0.93
      P1  H 10752 10765       L1    22  0.28

> <Gold.Chemscore.Hbond.Weighted>
-8.5333

> <Gold.Chemscore.Metal.Weighted>
-0.0000

> <Gold.Chemscore.Lipo.Weighted>
-14.1489

> <Gold.Chemscore.Internal_Hbond.Weighted>
0.0000

> <Gold.Chemscore.DEClash.Weighted>
0.1226

> <Gold.Chemscore.DEInternal.Weighted>
0.5759

> <Gold.Chemscore.Rot.Weighted>
6.7155

> <Gold.Chemscore.Internal.Correction.Weighted>
   9.000000E+99

> <Gold.Protein.RotatedTorsions>
[ 6907 6896 6895 6894 ] final -131.33 input  -60.11 | X-H torsion
[ 7974 7965 7964 7962 ] final   77.96 input  175.53 | X-H torsion
[ 8008 7997 7996 7995 ] final   64.46 input   59.86 | X-H torsion
[ 10167 10162 10161 10158 ] final  142.47 input  -65.29 | X-H torsion
[ 10718 10713 10712 10709 ] final  -91.93 input   66.30 | X-H torsion
[ 10763 10752 10751 10750 ] final -170.89 input  -60.55 | X-H torsion
[ 11005 11000 10999 10996 ] final  -57.70 input  -57.11 | X-H torsion

> <Gold.Protein.ActiveResidues>
 VAL166  LYS551  ARG553  GLY616  TRP617  ASP618  TYR619  PRO620  LYS621  CYS622 
 ASP623  PHE694  ASN695  SER759  ASP760  ASP761  ALA762  ILE779  LEU786  VAL792 
 PHE793  MET794  SER795  GLU796  ALA797  LYS798  CYS799  TRP800  GLU811  SER814 

> <Gold.Protein.RotatedAtoms>
  150.9497  133.6563  159.2774 H   0  0  0  0  0  0  0  0  0  0  0  0  # atno 6907 bound_to 6896
  151.3923  135.0957  159.9539 H   0  0  0  0  0  0  0  0  0  0  0  0  # atno 6908 bound_to 6896
  152.5105  133.9009  159.7495 H   0  0  0  0  0  0  0  0  0  0  0  0  # atno 6909 bound_to 6896
  145.6833  139.2530  143.1801 H   0  0  0  0  0  0  0  0  0  0  0  0  # atno 7974 bound_to 7965
  155.6463  140.3497  155.4732 H   0  0  0  0  0  0  0  0  0  0  0  0  # atno 8008 bound_to 7997
  155.9884  140.1188  157.0684 H   0  0  0  0  0  0  0  0  0  0  0  0  # atno 8009 bound_to 7997
  154.4212  140.1124  156.5518 H   0  0  0  0  0  0  0  0  0  0  0  0  # atno 8010 bound_to 7997
  139.4993  144.6104  151.6283 H   0  0  0  0  0  0  0  0  0  0  0  0  # atno 10167 bound_to 10162
  155.9997  130.4967  150.5548 H   0  0  0  0  0  0  0  0  0  0  0  0  # atno 10718 bound_to 10713
  154.6365  135.2893  155.0154 H   0  0  0  0  0  0  0  0  0  0  0  0  # atno 10763 bound_to 10752
  154.1296  135.6535  153.4923 H   0  0  0  0  0  0  0  0  0  0  0  0  # atno 10764 bound_to 10752
  153.0305  135.5307  154.7215 H   0  0  0  0  0  0  0  0  0  0  0  0  # atno 10765 bound_to 10752
  141.1176  133.6611  156.4809 H   0  0  0  0  0  0  0  0  0  0  0  0  # atno 11005 bound_to 11000
  146.0945  140.7617  142.9579 LP  0  0  0  0  0  0  0  0  0  0  0  0  # atno 17320 bound_to 7965
  144.7019  140.3689  143.7149 LP  0  0  0  0  0  0  0  0  0  0  0  0  # atno 17321 bound_to 7965
  140.5778  143.9999  150.6251 LP  0  0  0  0  0  0  0  0  0  0  0  0  # atno 17342 bound_to 10162
  140.3138  143.3181  152.0853 LP  0  0  0  0  0  0  0  0  0  0  0  0  # atno 17343 bound_to 10162
  157.3466  131.0726  151.1746 LP  0  0  0  0  0  0  0  0  0  0  0  0  # atno 17370 bound_to 10713
  157.2576  130.6644  149.5960 LP  0  0  0  0  0  0  0  0  0  0  0  0  # atno 17371 bound_to 10713
  140.4601  134.6849  157.5081 LP  0  0  0  0  0  0  0  0  0  0  0  0  # atno 17394 bound_to 11000
  140.0109  134.6692  155.9382 LP  0  0  0  0  0  0  0  0  0  0  0  0  # atno 17395 bound_to 11000

$$$$
