AV-unprocessed.smi:679|AV-procd|sdf|3321|dock9
  -GOLD-   22720 0293D 1   1.00000     0.00000
 Structure written by MMmdl.
 41 43  0  0  0  0  0  0  0  0  1 V2000
  152.2716  143.1370  160.2956 C   0  0  0  0  0  0  0  0  0  0  0  0
  152.8758  141.7618  160.0040 C   0  0  0  0  0  0  0  0  0  0  0  0
  152.0141  141.0627  159.1227 O   0  0  0  0  0  0  0  0  0  0  0  0
  151.7157  141.7940  157.9441 C   0  0  2  0  0  0  0  0  0  0  0  0
  150.3308  142.4488  157.9317 C   0  0  0  0  0  0  0  0  0  0  0  0
  150.2883  142.0773  156.4482 C   0  0  2  0  0  0  0  0  0  0  0  0
  148.9597  141.6680  156.0124 N   0  0  0  0  0  0  0  0  0  0  0  0
  148.6383  141.3560  154.7487 C   0  0  0  0  0  0  0  0  0  0  0  0
  149.4106  141.4816  153.7989 O   0  0  0  0  0  0  0  0  0  0  0  0
  147.2409  140.7793  154.5289 C   0  0  0  0  0  0  0  0  0  0  0  0
  146.2313  141.7741  154.8394 N   0  0  0  0  0  0  0  0  0  0  0  0
  145.8831  142.8965  154.2065 C   0  0  0  0  0  0  0  0  0  0  0  0
  144.8766  143.5071  154.8130 N   0  0  0  0  0  0  0  0  0  0  0  0
  144.6096  142.6794  155.8911 N   0  0  0  0  0  0  0  0  0  0  0  0
  145.4100  141.6493  155.9120 N   0  0  0  0  0  0  0  0  0  0  0  0
  151.2496  140.9023  156.7661 C   0  0  0  0  0  0  0  0  0  0  0  0
  152.3013  140.5267  155.7271 C   0  0  0  0  0  0  0  0  0  0  0  0
  152.8505  139.1463  156.1077 C   0  0  0  0  0  0  0  0  0  0  0  0
  151.8330  138.5377  157.0779 C   0  0  0  0  0  0  0  0  0  0  0  0
  150.6667  139.5253  157.1152 C   0  0  0  0  0  0  0  0  0  0  0  0
  152.9064  143.7058  160.9750 H   0  0  0  0  0  0  0  0  0  0  0  0
  151.2882  143.0417  160.7568 H   0  0  0  0  0  0  0  0  0  0  0  0
  152.1576  143.7164  159.3791 H   0  0  0  0  0  0  0  0  0  0  0  0
  153.8641  141.8775  159.5570 H   0  0  0  0  0  0  0  0  0  0  0  0
  152.9958  141.2031  160.9333 H   0  0  0  0  0  0  0  0  0  0  0  0
  152.5110  142.4844  157.6525 H   0  0  0  0  0  0  0  0  0  0  0  0
  149.5988  141.9169  158.5429 H   0  0  0  0  0  0  0  0  0  0  0  0
  150.3305  143.5196  158.1364 H   0  0  0  0  0  0  0  0  0  0  0  0
  150.7516  142.8452  155.8236 H   0  0  0  0  0  0  0  0  0  0  0  0
  148.2615  141.5364  156.7302 H   0  0  0  0  0  0  0  0  0  0  0  0
  147.1251  140.4484  153.4956 H   0  0  0  0  0  0  0  0  0  0  0  0
  147.0869  139.9098  155.1691 H   0  0  0  0  0  0  0  0  0  0  0  0
  146.3559  143.2568  153.3045 H   0  0  0  0  0  0  0  0  0  0  0  0
  151.8421  140.4722  154.7394 H   0  0  0  0  0  0  0  0  0  0  0  0
  153.1007  141.2650  155.6587 H   0  0  0  0  0  0  0  0  0  0  0  0
  152.9870  138.5230  155.2234 H   0  0  0  0  0  0  0  0  0  0  0  0
  153.8214  139.2398  156.5959 H   0  0  0  0  0  0  0  0  0  0  0  0
  151.5125  137.5411  156.7730 H   0  0  0  0  0  0  0  0  0  0  0  0
  152.2781  138.4514  158.0699 H   0  0  0  0  0  0  0  0  0  0  0  0
  150.1570  139.5078  158.0792 H   0  0  0  0  0  0  0  0  0  0  0  0
  149.9347  139.2171  156.3683 H   0  0  0  0  0  0  0  0  0  0  0  0
  1  2  1  0  0  0  0
  1 21  1  0  0  0  0
  1 22  1  0  0  0  0
  1 23  1  0  0  0  0
  2  3  1  0  0  0  0
  2 24  1  0  0  0  0
  2 25  1  0  0  0  0
  3  4  1  0  0  0  0
  4 16  1  0  0  0  0
  4  5  1  0  0  0  0
  4 26  1  0  0  0  0
  5  6  1  0  0  0  0
  5 27  1  0  0  0  0
  5 28  1  0  0  0  0
  6  7  1  0  0  0  0
  6 16  1  0  0  0  0
  6 29  1  0  0  0  0
  7  8  1  0  0  0  0
  7 30  1  0  0  0  0
  8  9  2  0  0  0  0
  8 10  1  0  0  0  0
 10 11  1  0  0  0  0
 10 31  1  0  0  0  0
 10 32  1  0  0  0  0
 11 15  1  0  0  0  0
 11 12  1  0  0  0  0
 12 13  2  0  0  0  0
 12 33  1  0  0  0  0
 13 14  1  0  0  0  0
 14 15  2  0  0  0  0
 16 20  1  0  0  0  0
 16 17  1  0  0  0  0
 17 18  1  0  0  0  0
 17 34  1  0  0  0  0
 17 35  1  0  0  0  0
 18 19  1  0  0  0  0
 18 36  1  0  0  0  0
 18 37  1  0  0  0  0
 19 20  1  0  0  0  0
 19 38  1  0  0  0  0
 19 39  1  0  0  0  0
 20 40  1  0  0  0  0
 20 41  1  0  0  0  0
M  END
> <s_m_source_file>
AV-unprocessed.smi

> <i_m_source_file_index>
679

> <i_lp_mmshare_version>
43012

> <i_f3d_flags>
0

> <s_epik_input>
W0NIMl0xW0NIMl1bQ0gyXVtDSDJdQzEyW0NASF0oT1tDSDJdW0NIM10pW0NIMl1bQ0BIXTJbTkhdQyg9TylbQ0gyXW4zW2NIXW5ubjM=

> <s_epik_cmdline>
J2VwaWtfcHl0aG9uJywgJy1waCcsICc3LjAnLCAnLXRuJywgJzgnLCAnLW1hJywgJzIwMCcsICctbWV0YWxfYmluZGluZycsICctaW1hZScsICc8aW5maWxlLm1hZT4nLCAnLW9tYWUnLCAnPG91dGZpbGUubWFlPic=

> <r_lp_tautomer_probability>
1

> <r_epik_Ionization_Penalty>
7.96741e-07

> <r_epik_Ionization_Penalty_Charging>
0

> <r_epik_Ionization_Penalty_Neutral>
7.96741e-07

> <r_epik_State_Penalty>
-0

> <r_epik_Charging_Adjusted_Penalty>
0

> <i_epik_Tot_Q>
0

> <i_epik_Tot_abs_Q>
0

> <r_epik_Metal_State_Penalty>
-0

> <b_epik_Metal_Only>
0

> <s_lp_Force_Field>
OPLS_2005

> <r_lp_Energy>
37

> <b_lp_Chiralities_Consistent>
1

> <s_lp_Variant>
AV-unprocessed.smi:679-3

> <Gold.Version>
5.8.1

> <Gold.Id.Protein>
6NUR|6NUR_protein|mol2

> <Gold.PLP.Fitness>
35.8610

> <Gold.PLP.PLP>
-33.2836

> <Gold.PLP.part.hbond>
-2.7939

> <Gold.PLP.part.metal>
0.0000

> <Gold.PLP.part.buried>
-4.9997

> <Gold.PLP.part.nonpolar>
-27.7209

> <Gold.PLP.part.repulsive>
2.8605

> <Gold.PLP.ligand.clash>
0.0000

> <Gold.PLP.ligand.torsion>
0.7064

> <Gold.PLP.Chemscore.Hbond>
1.2112

> <Gold.PLP.Chemscore.CHOScore>
0.0000

> <Gold.PLP.Chemscore.Metal>
0.0000

> <Gold.Chemscore.Hbonds>
donor molecule, donor type, donor heavy atom, donor atom, acceptor molecule, acceptor atom, score
      P1  H  7989  7998       L1     9  0.07
      P1  H  8011  8017       L1     9  0.75

> <Gold.PLP.Chemscore.Internal.Correction>
0.3567

> <Gold.Rescore>
     Score         DG    S(hbond)    S(metal)    S(lipo)     H(rot)  DE(clash)    DE(int)     intcor
     10.44     -12.48       1.21        0.00      78.07       2.41       1.41       0.63       ----

> <Gold.Chemscore.Fitness>
10.4359

> <Gold.Chemscore.DG>
-12.4806

> <Gold.Chemscore.ZeroCoef>
-5.4800

> <Gold.Chemscore.Hbond>
1.2075

> <Gold.Chemscore.Metal>
0.0000

> <Gold.Chemscore.Lipo>
78.0725

> <Gold.Chemscore.Internal_Hbond>
0.0000

> <Gold.Chemscore.DEClash>
1.4127

> <Gold.Chemscore.DEInternal>
0.6320

> <Gold.Chemscore.Rot>
2.4089

> <Gold.Chemscore.Internal.Correction>
   9.000000E+99

> <Gold.Chemscore.Hbonds>
donor molecule, donor type, donor heavy atom, donor atom, acceptor molecule, acceptor atom, score
      P1  H  7989  7998       L1     9  0.07
      P1  H  8011  8017       L1     9  0.76

> <Gold.Chemscore.Hbond.Weighted>
-4.0329

> <Gold.Chemscore.Metal.Weighted>
-0.0000

> <Gold.Chemscore.Lipo.Weighted>
-9.1345

> <Gold.Chemscore.Internal_Hbond.Weighted>
0.0000

> <Gold.Chemscore.DEClash.Weighted>
1.4127

> <Gold.Chemscore.DEInternal.Weighted>
0.6320

> <Gold.Chemscore.Rot.Weighted>
6.1668

> <Gold.Chemscore.Internal.Correction.Weighted>
   9.000000E+99

> <Gold.Protein.RotatedTorsions>
[ 6907 6896 6895 6894 ] final  -51.90 input  -60.11 | X-H torsion
[ 7974 7965 7964 7962 ] final  -39.19 input  175.53 | X-H torsion
[ 8008 7997 7996 7995 ] final  109.92 input   59.86 | X-H torsion
[ 10167 10162 10161 10158 ] final  -81.91 input  -65.29 | X-H torsion
[ 10718 10713 10712 10709 ] final  148.72 input   66.30 | X-H torsion
[ 10763 10752 10751 10750 ] final -112.33 input  -60.55 | X-H torsion
[ 11005 11000 10999 10996 ] final -101.90 input  -57.11 | X-H torsion

> <Gold.Protein.ActiveResidues>
 VAL166  LYS551  ARG553  GLY616  TRP617  ASP618  TYR619  PRO620  LYS621  CYS622 
 ASP623  PHE694  ASN695  SER759  ASP760  ASP761  ALA762  ILE779  LEU786  VAL792 
 PHE793  MET794  SER795  GLU796  ALA797  LYS798  CYS799  TRP800  GLU811  SER814 

> <Gold.Protein.RotatedAtoms>
  150.8568  134.7908  159.7051 H   0  0  0  0  0  0  0  0  0  0  0  0  # atno 6907 bound_to 6896
  152.4617  134.5166  159.9780 H   0  0  0  0  0  0  0  0  0  0  0  0  # atno 6908 bound_to 6896
  151.5277  133.3416  159.2948 H   0  0  0  0  0  0  0  0  0  0  0  0  # atno 6909 bound_to 6896
  146.0419  140.6597  142.9083 H   0  0  0  0  0  0  0  0  0  0  0  0  # atno 7974 bound_to 7965
  156.2015  140.3048  155.9536 H   0  0  0  0  0  0  0  0  0  0  0  0  # atno 8008 bound_to 7997
  155.2943  140.0443  157.3042 H   0  0  0  0  0  0  0  0  0  0  0  0  # atno 8009 bound_to 7997
  154.5576  140.2310  155.8394 H   0  0  0  0  0  0  0  0  0  0  0  0  # atno 8010 bound_to 7997
  140.4369  143.2528  151.8681 H   0  0  0  0  0  0  0  0  0  0  0  0  # atno 10167 bound_to 10162
  157.3050  131.0877  151.1360 H   0  0  0  0  0  0  0  0  0  0  0  0  # atno 10718 bound_to 10713
  154.8344  135.4494  154.1177 H   0  0  0  0  0  0  0  0  0  0  0  0  # atno 10763 bound_to 10752
  153.2422  135.6917  153.7777 H   0  0  0  0  0  0  0  0  0  0  0  0  # atno 10764 bound_to 10752
  153.7120  135.3355  155.3224 H   0  0  0  0  0  0  0  0  0  0  0  0  # atno 10765 bound_to 10752
  141.1212  133.8515  157.1291 H   0  0  0  0  0  0  0  0  0  0  0  0  # atno 11005 bound_to 11000
  144.7079  140.3923  143.7104 LP  0  0  0  0  0  0  0  0  0  0  0  0  # atno 17320 bound_to 7965
  145.6870  139.1631  143.2668 LP  0  0  0  0  0  0  0  0  0  0  0  0  # atno 17321 bound_to 7965
  139.4787  144.5273  151.8717 LP  0  0  0  0  0  0  0  0  0  0  0  0  # atno 17342 bound_to 10162
  140.4364  144.2047  150.5889 LP  0  0  0  0  0  0  0  0  0  0  0  0  # atno 17343 bound_to 10162
  157.2705  130.6702  149.6017 LP  0  0  0  0  0  0  0  0  0  0  0  0  # atno 17370 bound_to 10713
  155.9674  130.4481  150.5605 LP  0  0  0  0  0  0  0  0  0  0  0  0  # atno 17371 bound_to 10713
  140.0170  134.9963  157.0514 LP  0  0  0  0  0  0  0  0  0  0  0  0  # atno 17394 bound_to 11000
  140.4502  134.1590  155.7181 LP  0  0  0  0  0  0  0  0  0  0  0  0  # atno 17395 bound_to 11000

$$$$
