AV-unprocessed.smi:826|AV-procd|sdf|3854|dock3
  -GOLD-   22720 1303D 1   1.00000     0.00000
 Structure written by MMmdl.
 38 39  0  0  0  0  0  0  0  0  2 V2000
  145.7639  135.2658  162.5345 C   0  0  0  0  0  0  0  0  0  0  0  0
  146.7898  135.7725  161.5798 C   0  0  0  0  0  0  0  0  0  0  0  0
  147.1446  137.0580  161.5127 N   0  0  0  0  0  0  0  0  0  0  0  0
  148.1137  137.2829  160.5457 N   0  0  0  0  0  0  0  0  0  0  0  0
  148.4686  136.1700  159.8879 C   0  0  0  0  0  0  0  0  0  0  0  0
  149.3925  136.1727  158.9129 N   0  5  0  0  0  0  0  0  0  0  0  0
  150.2447  137.2161  158.7931 C   0  0  0  0  0  0  0  0  0  0  0  0
  150.9300  137.7063  159.6940 O   0  0  0  0  0  0  0  0  0  0  0  0
  150.3057  137.7259  157.5534 N   0  0  0  0  0  0  0  0  0  0  0  0
  151.1379  138.8505  157.1270 C   0  0  2  0  0  0  0  0  0  0  0  0
  152.5609  138.6215  157.6634 C   0  0  0  0  0  0  0  0  0  0  0  0
  150.6038  140.1656  157.7161 C   0  0  0  0  0  0  0  0  0  0  0  0
  149.4455  140.2444  158.1295 O   0  0  0  0  0  0  0  0  0  0  0  0
  151.4691  141.1898  157.7562 N   0  0  0  0  0  0  0  0  0  0  0  0
  151.1624  142.5262  158.2568 C   0  0  0  0  0  0  0  0  0  0  0  0
  151.6494  143.6243  157.2880 C   0  0  0  0  0  0  0  0  0  0  0  0
  152.4177  144.6327  158.1437 C   0  0  0  0  0  0  0  0  0  0  0  0
  152.9894  143.7962  159.2836 C   0  0  0  0  0  0  0  0  0  0  0  0
  151.8851  142.7843  159.5918 C   0  0  0  0  0  0  0  0  0  0  0  0
  147.6256  134.7251  160.4459 S   0  0  0  0  0  0  0  0  0  0  0  0
  144.7773  135.3033  162.0729 H   0  0  0  0  0  0  0  0  0  0  0  0
  145.7522  135.8735  163.4399 H   0  0  0  0  0  0  0  0  0  0  0  0
  145.9839  134.2344  162.8105 H   0  0  0  0  0  0  0  0  0  0  0  0
  149.7347  137.2888  156.8453 H   0  0  0  0  0  0  0  0  0  0  0  0
  151.1650  138.9024  156.0366 H   0  0  0  0  0  0  0  0  0  0  0  0
  153.2275  139.4365  157.3784 H   0  0  0  0  0  0  0  0  0  0  0  0
  152.9838  137.7006  157.2603 H   0  0  0  0  0  0  0  0  0  0  0  0
  152.5784  138.5411  158.7515 H   0  0  0  0  0  0  0  0  0  0  0  0
  152.3985  141.0386  157.3919 H   0  0  0  0  0  0  0  0  0  0  0  0
  150.0862  142.6135  158.4166 H   0  0  0  0  0  0  0  0  0  0  0  0
  152.3273  143.2056  156.5419 H   0  0  0  0  0  0  0  0  0  0  0  0
  150.8256  144.0901  156.7463 H   0  0  0  0  0  0  0  0  0  0  0  0
  153.1878  145.1602  157.5803 H   0  0  0  0  0  0  0  0  0  0  0  0
  151.7282  145.3767  158.5447 H   0  0  0  0  0  0  0  0  0  0  0  0
  153.8836  143.2730  158.9419 H   0  0  0  0  0  0  0  0  0  0  0  0
  153.2637  144.3969  160.1513 H   0  0  0  0  0  0  0  0  0  0  0  0
  151.1828  143.2270  160.2994 H   0  0  0  0  0  0  0  0  0  0  0  0
  152.2772  141.8786  160.0565 H   0  0  0  0  0  0  0  0  0  0  0  0
  1  2  1  0  0  0  0
  1 21  1  0  0  0  0
  1 22  1  0  0  0  0
  1 23  1  0  0  0  0
  2 20  1  0  0  0  0
  2  3  2  0  0  0  0
  3  4  1  0  0  0  0
  4  5  2  0  0  0  0
  5  6  1  0  0  0  0
  5 20  1  0  0  0  0
  6  7  1  0  0  0  0
  7  8  2  0  0  0  0
  7  9  1  0  0  0  0
  9 10  1  0  0  0  0
  9 24  1  0  0  0  0
 10 11  1  0  0  0  0
 10 12  1  0  0  0  0
 10 25  1  0  0  0  0
 11 26  1  0  0  0  0
 11 27  1  0  0  0  0
 11 28  1  0  0  0  0
 12 13  2  0  0  0  0
 12 14  1  0  0  0  0
 14 15  1  0  0  0  0
 14 29  1  0  0  0  0
 15 19  1  0  0  0  0
 15 16  1  0  0  0  0
 15 30  1  0  0  0  0
 16 17  1  0  0  0  0
 16 31  1  0  0  0  0
 16 32  1  0  0  0  0
 17 18  1  0  0  0  0
 17 33  1  0  0  0  0
 17 34  1  0  0  0  0
 18 19  1  0  0  0  0
 18 35  1  0  0  0  0
 18 36  1  0  0  0  0
 19 37  1  0  0  0  0
 19 38  1  0  0  0  0
M  CHG  1   6  -1
M  END
> <s_m_source_file>
AV-unprocessed.smi

> <i_m_source_file_index>
826

> <i_lp_mmshare_version>
43012

> <i_f3d_flags>
0

> <s_epik_input>
W0NIM11jMW5uYyhzMSlbTkhdQyg9TylbTkhdW0NASF0oW0NIM10pQyg9TylbTkhdW0NIXTJbQ0gyXVtDSDJdW0NIMl1bQ0gyXTI=

> <s_epik_cmdline>
J2VwaWtfcHl0aG9uJywgJy1waCcsICc3LjAnLCAnLXRuJywgJzgnLCAnLW1hJywgJzIwMCcsICctbWV0YWxfYmluZGluZycsICctaW1hZScsICc8aW5maWxlLm1hZT4nLCAnLW9tYWUnLCAnPG91dGZpbGUubWFlPic=

> <r_lp_tautomer_probability>
1

> <r_epik_Ionization_Penalty>
3.15008

> <r_epik_Ionization_Penalty_Charging>
3.01509

> <r_epik_Ionization_Penalty_Neutral>
0.134987

> <r_epik_State_Penalty>
3.01143

> <r_epik_Charging_Adjusted_Penalty>
6.02652

> <i_epik_Tot_Q>
-1

> <i_epik_Tot_abs_Q>
1

> <r_epik_Metal_State_Penalty>
0.454645

> <b_epik_Metal_Only>
1

> <s_lp_Force_Field>
OPLS_2005

> <r_lp_Energy>
15.3268

> <b_lp_Chiralities_Consistent>
1

> <s_lp_Variant>
AV-unprocessed.smi:826-3

> <Gold.Version>
5.8.1

> <Gold.Id.Protein>
6NUR|6NUR_protein|mol2

> <Gold.PLP.Fitness>
40.3495

> <Gold.PLP.PLP>
-36.0864

> <Gold.PLP.part.hbond>
-5.5839

> <Gold.PLP.part.metal>
0.0000

> <Gold.PLP.part.buried>
-4.1525

> <Gold.PLP.part.nonpolar>
-27.8146

> <Gold.PLP.part.repulsive>
0.1156

> <Gold.PLP.ligand.clash>
0.0000

> <Gold.PLP.ligand.torsion>
1.2802

> <Gold.PLP.Chemscore.Hbond>
2.2496

> <Gold.PLP.Chemscore.CHOScore>
0.0000

> <Gold.PLP.Chemscore.Metal>
0.0000

> <Gold.Chemscore.Hbonds>
donor molecule, donor type, donor heavy atom, donor atom, acceptor molecule, acceptor atom, score
      P1  H  6896  6907       L1     6  1.59
      P1  H  6931  6943       L1     4  0.22

> <Gold.PLP.Chemscore.Internal.Correction>
0.0748

> <Gold.Rescore>
     Score         DG    S(hbond)    S(metal)    S(lipo)     H(rot)  DE(clash)    DE(int)     intcor
     10.35     -13.41       0.47        0.00      89.94       1.62       0.38       2.68       ----

> <Gold.Chemscore.Fitness>
10.3456

> <Gold.Chemscore.DG>
-13.4127

> <Gold.Chemscore.ZeroCoef>
-5.4800

> <Gold.Chemscore.Hbond>
0.4662

> <Gold.Chemscore.Metal>
0.0000

> <Gold.Chemscore.Lipo>
89.9412

> <Gold.Chemscore.Internal_Hbond>
0.0000

> <Gold.Chemscore.DEClash>
0.3829

> <Gold.Chemscore.DEInternal>
2.6841

> <Gold.Chemscore.Rot>
1.6201

> <Gold.Chemscore.Internal.Correction>
   9.000000E+99

> <Gold.Chemscore.Hbonds>
donor molecule, donor type, donor heavy atom, donor atom, acceptor molecule, acceptor atom, score
      P1  H  6896  6907       L1     6  0.07

> <Gold.Chemscore.Hbond.Weighted>
-1.5570

> <Gold.Chemscore.Metal.Weighted>
-0.0000

> <Gold.Chemscore.Lipo.Weighted>
-10.5231

> <Gold.Chemscore.Internal_Hbond.Weighted>
0.0000

> <Gold.Chemscore.DEClash.Weighted>
0.3829

> <Gold.Chemscore.DEInternal.Weighted>
2.6841

> <Gold.Chemscore.Rot.Weighted>
4.1475

> <Gold.Chemscore.Internal.Correction.Weighted>
   9.000000E+99

> <Gold.Protein.RotatedTorsions>
[ 6907 6896 6895 6894 ] final  -65.57 input  -60.11 | X-H torsion
[ 7974 7965 7964 7962 ] final -170.08 input  175.53 | X-H torsion
[ 8008 7997 7996 7995 ] final   38.22 input   59.86 | X-H torsion
[ 10167 10162 10161 10158 ] final   43.67 input  -65.29 | X-H torsion
[ 10718 10713 10712 10709 ] final    0.87 input   66.30 | X-H torsion
[ 10763 10752 10751 10750 ] final   35.42 input  -60.55 | X-H torsion
[ 11005 11000 10999 10996 ] final   -3.83 input  -57.11 | X-H torsion

> <Gold.Protein.ActiveResidues>
 VAL166  LYS551  ARG553  GLY616  TRP617  ASP618  TYR619  PRO620  LYS621  CYS622 
 ASP623  PHE694  ASN695  SER759  ASP760  ASP761  ALA762  ILE779  LEU786  VAL792 
 PHE793  MET794  SER795  GLU796  ALA797  LYS798  CYS799  TRP800  GLU811  SER814 

> <Gold.Protein.RotatedAtoms>
  150.7516  134.6142  159.6101 H   0  0  0  0  0  0  0  0  0  0  0  0  # atno 6907 bound_to 6896
  152.3467  134.7058  160.0257 H   0  0  0  0  0  0  0  0  0  0  0  0  # atno 6908 bound_to 6896
  151.7492  133.3290  159.3423 H   0  0  0  0  0  0  0  0  0  0  0  0  # atno 6909 bound_to 6896
  144.7175  140.2126  143.6325 H   0  0  0  0  0  0  0  0  0  0  0  0  # atno 7974 bound_to 7965
  155.2166  140.3327  155.4321 H   0  0  0  0  0  0  0  0  0  0  0  0  # atno 8008 bound_to 7997
  156.2350  140.1868  156.7192 H   0  0  0  0  0  0  0  0  0  0  0  0  # atno 8009 bound_to 7997
  154.6043  140.0618  156.9395 H   0  0  0  0  0  0  0  0  0  0  0  0  # atno 8010 bound_to 7997
  140.3421  144.2457  150.6154 H   0  0  0  0  0  0  0  0  0  0  0  0  # atno 10167 bound_to 10162
  156.8398  130.5517  149.5679 H   0  0  0  0  0  0  0  0  0  0  0  0  # atno 10718 bound_to 10713
  153.0120  135.6334  154.1824 H   0  0  0  0  0  0  0  0  0  0  0  0  # atno 10763 bound_to 10752
  154.1565  135.2826  155.3122 H   0  0  0  0  0  0  0  0  0  0  0  0  # atno 10764 bound_to 10752
  154.6014  135.5586  153.7439 H   0  0  0  0  0  0  0  0  0  0  0  0  # atno 10765 bound_to 10752
  140.6736  133.9215  155.8510 H   0  0  0  0  0  0  0  0  0  0  0  0  # atno 11005 bound_to 11000
  145.8577  139.2207  143.1735 LP  0  0  0  0  0  0  0  0  0  0  0  0  # atno 17320 bound_to 7965
  146.0203  140.8354  142.9927 LP  0  0  0  0  0  0  0  0  0  0  0  0  # atno 17321 bound_to 7965
  140.5299  143.2246  151.8255 LP  0  0  0  0  0  0  0  0  0  0  0  0  # atno 17342 bound_to 10162
  139.4839  144.4733  151.9398 LP  0  0  0  0  0  0  0  0  0  0  0  0  # atno 17343 bound_to 10162
  156.0887  130.5878  150.9694 LP  0  0  0  0  0  0  0  0  0  0  0  0  # atno 17370 bound_to 10713
  157.6362  131.0916  150.8344 LP  0  0  0  0  0  0  0  0  0  0  0  0  # atno 17371 bound_to 10713
  141.0373  134.0672  157.3944 LP  0  0  0  0  0  0  0  0  0  0  0  0  # atno 17394 bound_to 11000
  139.8974  135.0150  156.7097 LP  0  0  0  0  0  0  0  0  0  0  0  0  # atno 17395 bound_to 11000

$$$$
