AV-unprocessed.smi:1258|AV-procd|sdf|5287|dock6
  -GOLD-   22720 4403D 1   1.00000     0.00000
 Structure written by MMmdl.
 33 34  0  0  0  0  0  0  0  0  1 V2000
  151.9034  145.6290  159.8514 C   0  0  0  0  0  0  0  0  0  0  0  0
  152.0874  144.1400  160.1766 C   0  0  2  0  0  0  0  0  0  0  0  0
  152.4140  143.9252  161.6671 C   0  0  0  0  0  0  0  0  0  0  0  0
  152.6072  142.4365  161.9977 C   0  0  0  0  0  0  0  0  0  0  0  0
  153.6826  141.7959  161.1016 C   0  0  0  0  0  0  0  0  0  0  0  0
  153.3847  141.9999  159.6038 C   0  0  1  0  0  0  0  0  0  0  0  0
  152.2152  141.2142  159.2201 N   0  0  0  0  0  0  0  0  0  0  0  0
  152.2168  140.1450  158.4085 C   0  0  0  0  0  0  0  0  0  0  0  0
  153.2431  139.6339  157.9622 O   0  0  0  0  0  0  0  0  0  0  0  0
  150.8487  139.5708  158.0320 C   0  0  0  0  0  0  0  0  0  0  0  0
  150.6322  139.6155  156.5960 N   0  0  0  0  0  0  0  0  0  0  0  0
  150.6618  140.6366  155.7370 C   0  0  0  0  0  0  0  0  0  0  0  0
  150.4376  140.2378  154.4947 N   0  0  0  0  0  0  0  0  0  0  0  0
  150.2579  138.8714  154.6308 N   0  0  0  0  0  0  0  0  0  0  0  0
  150.3711  138.4962  155.8754 N   0  0  0  0  0  0  0  0  0  0  0  0
  153.1769  143.4989  159.2907 C   0  0  0  0  0  0  0  0  0  0  0  0
  152.8170  146.1934  160.0409 H   0  0  0  0  0  0  0  0  0  0  0  0
  151.1095  146.0674  160.4569 H   0  0  0  0  0  0  0  0  0  0  0  0
  151.6349  145.7715  158.8042 H   0  0  0  0  0  0  0  0  0  0  0  0
  151.1385  143.6449  159.9643 H   0  0  0  0  0  0  0  0  0  0  0  0
  153.3198  144.4742  161.9283 H   0  0  0  0  0  0  0  0  0  0  0  0
  151.6160  144.3353  162.2870 H   0  0  0  0  0  0  0  0  0  0  0  0
  152.8859  142.3243  163.0457 H   0  0  0  0  0  0  0  0  0  0  0  0
  151.6601  141.9093  161.8755 H   0  0  0  0  0  0  0  0  0  0  0  0
  154.6514  142.2385  161.3369 H   0  0  0  0  0  0  0  0  0  0  0  0
  153.7726  140.7327  161.3277 H   0  0  0  0  0  0  0  0  0  0  0  0
  154.2412  141.6350  159.0343 H   0  0  0  0  0  0  0  0  0  0  0  0
  151.3226  141.5543  159.5467 H   0  0  0  0  0  0  0  0  0  0  0  0
  150.7653  138.5375  158.3723 H   0  0  0  0  0  0  0  0  0  0  0  0
  150.0627  140.1415  158.5276 H   0  0  0  0  0  0  0  0  0  0  0  0
  150.8568  141.6609  156.0187 H   0  0  0  0  0  0  0  0  0  0  0  0
  152.9289  143.6337  158.2370 H   0  0  0  0  0  0  0  0  0  0  0  0
  154.1199  144.0257  159.4436 H   0  0  0  0  0  0  0  0  0  0  0  0
  1  2  1  0  0  0  0
  1 17  1  0  0  0  0
  1 18  1  0  0  0  0
  1 19  1  0  0  0  0
  2 16  1  0  0  0  0
  2  3  1  0  0  0  0
  2 20  1  0  0  0  0
  3  4  1  0  0  0  0
  3 21  1  0  0  0  0
  3 22  1  0  0  0  0
  4  5  1  0  0  0  0
  4 23  1  0  0  0  0
  4 24  1  0  0  0  0
  5  6  1  0  0  0  0
  5 25  1  0  0  0  0
  5 26  1  0  0  0  0
  6  7  1  0  0  0  0
  6 16  1  0  0  0  0
  6 27  1  0  0  0  0
  7  8  1  0  0  0  0
  7 28  1  0  0  0  0
  8  9  2  0  0  0  0
  8 10  1  0  0  0  0
 10 11  1  0  0  0  0
 10 29  1  0  0  0  0
 10 30  1  0  0  0  0
 11 15  1  0  0  0  0
 11 12  1  0  0  0  0
 12 13  2  0  0  0  0
 12 31  1  0  0  0  0
 13 14  1  0  0  0  0
 14 15  2  0  0  0  0
 16 32  1  0  0  0  0
 16 33  1  0  0  0  0
M  END
> <s_m_source_file>
AV-unprocessed.smi

> <i_m_source_file_index>
1258

> <i_lp_mmshare_version>
43012

> <i_f3d_flags>
0

> <s_epik_input>
W0NIM11bQ0BASF0xW0NIMl1bQ0gyXVtDSDJdW0NASF0oW0NIMl0xKVtOSF1DKD1PKVtDSDJdbjJbY0hdbm5uMg==

> <s_epik_cmdline>
J2VwaWtfcHl0aG9uJywgJy1waCcsICc3LjAnLCAnLXRuJywgJzgnLCAnLW1hJywgJzIwMCcsICctbWV0YWxfYmluZGluZycsICctaW1hZScsICc8aW5maWxlLm1hZT4nLCAnLW9tYWUnLCAnPG91dGZpbGUubWFlPic=

> <r_lp_tautomer_probability>
1

> <r_epik_Ionization_Penalty>
5.03816e-07

> <r_epik_Ionization_Penalty_Charging>
0

> <r_epik_Ionization_Penalty_Neutral>
5.03816e-07

> <r_epik_State_Penalty>
-0

> <r_epik_Charging_Adjusted_Penalty>
0

> <i_epik_Tot_Q>
0

> <i_epik_Tot_abs_Q>
0

> <r_epik_Metal_State_Penalty>
-0

> <b_epik_Metal_Only>
0

> <s_lp_Force_Field>
OPLS_2005

> <r_lp_Energy>
9.71314

> <b_lp_Chiralities_Consistent>
1

> <s_lp_Variant>
AV-unprocessed.smi:1258-1

> <Gold.Version>
5.8.1

> <Gold.Id.Protein>
6NUR|6NUR_protein|mol2

> <Gold.PLP.Fitness>
44.0714

> <Gold.PLP.PLP>
-38.1741

> <Gold.PLP.part.hbond>
-2.0000

> <Gold.PLP.part.metal>
0.0000

> <Gold.PLP.part.buried>
-5.4547

> <Gold.PLP.part.nonpolar>
-31.1643

> <Gold.PLP.part.repulsive>
0.3802

> <Gold.PLP.ligand.clash>
0.0000

> <Gold.PLP.ligand.torsion>
0.0548

> <Gold.PLP.Chemscore.Hbond>
2.0000

> <Gold.PLP.Chemscore.CHOScore>
0.0000

> <Gold.PLP.Chemscore.Metal>
0.0000

> <Gold.Chemscore.Hbonds>
donor molecule, donor type, donor heavy atom, donor atom, acceptor molecule, acceptor atom, score
      P1  H  7989  7998       L1    13  1.00
      P1  H  7997  8009       L1     9  1.00

> <Gold.PLP.Chemscore.Internal.Correction>
0.0070

> <Gold.Rescore>
     Score         DG    S(hbond)    S(metal)    S(lipo)     H(rot)  DE(clash)    DE(int)     intcor
     17.42     -17.55       1.99        0.00      88.34       1.92       0.02       0.11       ----

> <Gold.Chemscore.Fitness>
17.4177

> <Gold.Chemscore.DG>
-17.5509

> <Gold.Chemscore.ZeroCoef>
-5.4800

> <Gold.Chemscore.Hbond>
1.9886

> <Gold.Chemscore.Metal>
0.0000

> <Gold.Chemscore.Lipo>
88.3430

> <Gold.Chemscore.Internal_Hbond>
0.0000

> <Gold.Chemscore.DEClash>
0.0246

> <Gold.Chemscore.DEInternal>
0.1085

> <Gold.Chemscore.Rot>
1.9169

> <Gold.Chemscore.Internal.Correction>
   9.000000E+99

> <Gold.Chemscore.Hbonds>
donor molecule, donor type, donor heavy atom, donor atom, acceptor molecule, acceptor atom, score
      P1  H  7989  7998       L1    13  0.68
      P1  H  7997  8009       L1     9  0.94

> <Gold.Chemscore.Hbond.Weighted>
-6.6420

> <Gold.Chemscore.Metal.Weighted>
-0.0000

> <Gold.Chemscore.Lipo.Weighted>
-10.3361

> <Gold.Chemscore.Internal_Hbond.Weighted>
0.0000

> <Gold.Chemscore.DEClash.Weighted>
0.0246

> <Gold.Chemscore.DEInternal.Weighted>
0.1085

> <Gold.Chemscore.Rot.Weighted>
4.9073

> <Gold.Chemscore.Internal.Correction.Weighted>
   9.000000E+99

> <Gold.Protein.RotatedTorsions>
[ 6907 6896 6895 6894 ] final  146.64 input  -60.11 | X-H torsion
[ 7974 7965 7964 7962 ] final -123.41 input  175.53 | X-H torsion
[ 8008 7997 7996 7995 ] final  140.34 input   59.86 | X-H torsion
[ 10167 10162 10161 10158 ] final  129.71 input  -65.29 | X-H torsion
[ 10718 10713 10712 10709 ] final  -43.42 input   66.30 | X-H torsion
[ 10763 10752 10751 10750 ] final  -20.20 input  -60.55 | X-H torsion
[ 11005 11000 10999 10996 ] final  163.35 input  -57.11 | X-H torsion

> <Gold.Protein.ActiveResidues>
 VAL166  LYS551  ARG553  GLY616  TRP617  ASP618  TYR619  PRO620  LYS621  CYS622 
 ASP623  PHE694  ASN695  SER759  ASP760  ASP761  ALA762  ILE779  LEU786  VAL792 
 PHE793  MET794  SER795  GLU796  ALA797  LYS798  CYS799  TRP800  GLU811  SER814 

> <Gold.Protein.RotatedAtoms>
  152.1652  133.4607  159.4880 H   0  0  0  0  0  0  0  0  0  0  0  0  # atno 6907 bound_to 6896
  150.6912  134.2022  159.4335 H   0  0  0  0  0  0  0  0  0  0  0  0  # atno 6908 bound_to 6896
  151.9926  134.9971  160.0613 H   0  0  0  0  0  0  0  0  0  0  0  0  # atno 6909 bound_to 6896
  145.0190  140.7972  143.4392 H   0  0  0  0  0  0  0  0  0  0  0  0  # atno 7974 bound_to 7965
  156.2980  140.2344  156.4386 H   0  0  0  0  0  0  0  0  0  0  0  0  # atno 8008 bound_to 7997
  154.8206  140.0438  157.1428 H   0  0  0  0  0  0  0  0  0  0  0  0  # atno 8009 bound_to 7997
  154.9319  140.3018  155.5167 H   0  0  0  0  0  0  0  0  0  0  0  0  # atno 8010 bound_to 7997
  139.5464  144.6777  151.4458 H   0  0  0  0  0  0  0  0  0  0  0  0  # atno 10167 bound_to 10162
  156.2492  130.4186  149.8669 H   0  0  0  0  0  0  0  0  0  0  0  0  # atno 10718 bound_to 10713
  153.6167  135.6994  153.5326 H   0  0  0  0  0  0  0  0  0  0  0  0  # atno 10763 bound_to 10752
  153.2971  135.4140  155.1219 H   0  0  0  0  0  0  0  0  0  0  0  0  # atno 10764 bound_to 10752
  154.8552  135.3639  154.5707 H   0  0  0  0  0  0  0  0  0  0  0  0  # atno 10765 bound_to 10752
  140.2350  134.8095  157.3354 H   0  0  0  0  0  0  0  0  0  0  0  0  # atno 11005 bound_to 11000
  145.1921  139.2296  143.5237 LP  0  0  0  0  0  0  0  0  0  0  0  0  # atno 17320 bound_to 7965
  146.3482  140.1719  142.8589 LP  0  0  0  0  0  0  0  0  0  0  0  0  # atno 17321 bound_to 7965
  140.6714  143.8285  150.7004 LP  0  0  0  0  0  0  0  0  0  0  0  0  # atno 17342 bound_to 10162
  140.1711  143.4194  152.2000 LP  0  0  0  0  0  0  0  0  0  0  0  0  # atno 17343 bound_to 10162
  156.6224  130.8632  151.3478 LP  0  0  0  0  0  0  0  0  0  0  0  0  # atno 17370 bound_to 10713
  157.7207  130.9555  150.1429 LP  0  0  0  0  0  0  0  0  0  0  0  0  # atno 17371 bound_to 10713
  140.1712  134.4606  155.7830 LP  0  0  0  0  0  0  0  0  0  0  0  0  # atno 17394 bound_to 11000
  141.2215  133.6942  156.7710 LP  0  0  0  0  0  0  0  0  0  0  0  0  # atno 17395 bound_to 11000

$$$$
