AV-unprocessed.smi:3283|AV-procd|sdf|12569|dock10
  -GOLD-   2272018493D 1   1.00000     0.00000
 Structure written by MMmdl.
 44 45  0  0  0  0  0  0  0  0  2 V2000
  151.4449  145.3834  158.6584 C   0  0  0  0  0  0  0  0  0  0  0  0
  151.8417  144.2927  159.6394 C   0  0  0  0  0  0  0  0  0  0  0  0
  152.1288  144.6148  160.9151 C   0  0  0  0  0  0  0  0  0  0  0  0
  152.6071  143.6293  161.9559 C   0  0  0  0  0  0  0  0  0  0  0  0
  153.2009  142.3818  161.2975 C   0  0  0  0  0  0  0  0  0  0  0  0
  152.2572  141.8076  160.2282 C   0  0  2  0  0  0  0  0  0  0  0  0
  152.8570  140.5055  159.6622 C   0  0  0  0  0  0  0  0  0  0  0  0
  151.9238  142.8452  159.1118 C   0  0  1  0  0  0  0  0  0  0  0  0
  150.6447  142.4113  158.3475 C   0  0  0  0  0  0  0  0  0  0  0  0
  150.7073  142.7202  156.9048 N   0  3  0  0  0  0  0  0  0  0  0  0
  150.5352  141.5481  156.0241 C   0  0  0  0  0  0  0  0  0  0  0  0
  151.4592  140.3906  156.4321 C   0  0  0  0  0  0  0  0  0  0  0  0
  151.0404  139.0633  155.8770 C   0  0  0  0  0  0  0  0  0  0  0  0
  150.0180  138.7643  155.0204 C   0  0  0  0  0  0  0  0  0  0  0  0
  150.0942  137.3530  154.8656 C   0  0  0  0  0  0  0  0  0  0  0  0
  151.0780  136.8200  155.5683 N   0  0  0  0  0  0  0  0  0  0  0  0
  151.6664  137.8662  156.1859 N   0  0  0  0  0  0  0  0  0  0  0  0
  152.8069  137.6175  157.0483 C   0  0  0  0  0  0  0  0  0  0  0  0
  152.0584  145.3286  157.7595 H   0  0  0  0  0  0  0  0  0  0  0  0
  151.5850  146.3746  159.0912 H   0  0  0  0  0  0  0  0  0  0  0  0
  150.3950  145.2971  158.3801 H   0  0  0  0  0  0  0  0  0  0  0  0
  152.0365  145.6389  161.2471 H   0  0  0  0  0  0  0  0  0  0  0  0
  153.3595  144.1081  162.5831 H   0  0  0  0  0  0  0  0  0  0  0  0
  151.7687  143.3678  162.6021 H   0  0  0  0  0  0  0  0  0  0  0  0
  154.1598  142.6330  160.8409 H   0  0  0  0  0  0  0  0  0  0  0  0
  153.4110  141.6346  162.0637 H   0  0  0  0  0  0  0  0  0  0  0  0
  151.3269  141.5496  160.7372 H   0  0  0  0  0  0  0  0  0  0  0  0
  153.7889  140.6992  159.1298 H   0  0  0  0  0  0  0  0  0  0  0  0
  152.1827  139.9994  158.9731 H   0  0  0  0  0  0  0  0  0  0  0  0
  153.0785  139.7985  160.4625 H   0  0  0  0  0  0  0  0  0  0  0  0
  152.7590  142.8406  158.4097 H   0  0  0  0  0  0  0  0  0  0  0  0
  150.4795  141.3386  158.4342 H   0  0  0  0  0  0  0  0  0  0  0  0
  149.7701  142.8915  158.7891 H   0  0  0  0  0  0  0  0  0  0  0  0
  149.9817  143.3898  156.6917 H   0  0  0  0  0  0  0  0  0  0  0  0
  149.4946  141.2219  156.0523 H   0  0  0  0  0  0  0  0  0  0  0  0
  150.7507  141.8430  154.9963 H   0  0  0  0  0  0  0  0  0  0  0  0
  152.4689  140.6111  156.0842 H   0  0  0  0  0  0  0  0  0  0  0  0
  151.5323  140.3451  157.5186 H   0  0  0  0  0  0  0  0  0  0  0  0
  149.3169  139.4523  154.5715 H   0  0  0  0  0  0  0  0  0  0  0  0
  149.4674  136.7053  154.2705 H   0  0  0  0  0  0  0  0  0  0  0  0
  153.6007  138.3340  156.8366 H   0  0  0  0  0  0  0  0  0  0  0  0
  153.1984  136.6123  156.8846 H   0  0  0  0  0  0  0  0  0  0  0  0
  152.5054  137.7095  158.0911 H   0  0  0  0  0  0  0  0  0  0  0  0
  151.6035  143.1421  156.7065 H   0  0  0  0  0  0  0  0  0  0  0  0
  1  2  1  0  0  0  0
  1 19  1  0  0  0  0
  1 20  1  0  0  0  0
  1 21  1  0  0  0  0
  2  8  1  0  0  0  0
  2  3  2  0  0  0  0
  3  4  1  0  0  0  0
  3 22  1  0  0  0  0
  4  5  1  0  0  0  0
  4 23  1  0  0  0  0
  4 24  1  0  0  0  0
  5  6  1  0  0  0  0
  5 25  1  0  0  0  0
  5 26  1  0  0  0  0
  6  7  1  0  0  0  0
  6  8  1  0  0  0  0
  6 27  1  0  0  0  0
  7 28  1  0  0  0  0
  7 29  1  0  0  0  0
  7 30  1  0  0  0  0
  8  9  1  0  0  0  0
  8 31  1  0  0  0  0
  9 10  1  0  0  0  0
  9 32  1  0  0  0  0
  9 33  1  0  0  0  0
 10 11  1  0  0  0  0
 10 34  1  0  0  0  0
 10 44  1  0  0  0  0
 11 12  1  0  0  0  0
 11 35  1  0  0  0  0
 11 36  1  0  0  0  0
 12 13  1  0  0  0  0
 12 37  1  0  0  0  0
 12 38  1  0  0  0  0
 13 17  1  0  0  0  0
 13 14  2  0  0  0  0
 14 15  1  0  0  0  0
 14 39  1  0  0  0  0
 15 16  2  0  0  0  0
 15 40  1  0  0  0  0
 16 17  1  0  0  0  0
 17 18  1  0  0  0  0
 18 41  1  0  0  0  0
 18 42  1  0  0  0  0
 18 43  1  0  0  0  0
M  CHG  1  10   1
M  END
> <s_m_source_file>
AV-unprocessed.smi

> <i_m_source_file_index>
3283

> <i_lp_mmshare_version>
43012

> <i_f3d_flags>
0

> <s_epik_input>
W0NIM11DMT1bQ0hdW0NIMl1bQ0gyXVtDQEBIXShbQ0gzXSlbQ0BIXTFbQ0gyXVtOSF1bQ0gyXVtDSDJdYzJbY0hdW2NIXW5uMltDSDNd

> <s_epik_cmdline>
J2VwaWtfcHl0aG9uJywgJy1waCcsICc3LjAnLCAnLXRuJywgJzgnLCAnLW1hJywgJzIwMCcsICctbWV0YWxfYmluZGluZycsICctaW1hZScsICc8aW5maWxlLm1hZT4nLCAnLW9tYWUnLCAnPG91dGZpbGUubWFlPic=

> <r_lp_tautomer_probability>
1

> <r_epik_Ionization_Penalty>
0.000866911

> <r_epik_Ionization_Penalty_Charging>
0.000836385

> <r_epik_Ionization_Penalty_Neutral>
3.05258e-05

> <r_epik_State_Penalty>
-0

> <r_epik_Charging_Adjusted_Penalty>
0.000836385

> <i_epik_Tot_Q>
1

> <i_epik_Tot_abs_Q>
1

> <r_epik_Metal_State_Penalty>
-0

> <b_epik_Metal_Only>
0

> <s_lp_Force_Field>
OPLS_2005

> <r_lp_Energy>
14.6109

> <b_lp_Chiralities_Consistent>
1

> <s_lp_Variant>
AV-unprocessed.smi:3283-2

> <Gold.Version>
5.8.1

> <Gold.Id.Protein>
6NUR|6NUR_protein|mol2

> <Gold.PLP.Fitness>
56.9935

> <Gold.PLP.PLP>
-46.8429

> <Gold.PLP.part.hbond>
-2.0000

> <Gold.PLP.part.metal>
0.0000

> <Gold.PLP.part.buried>
-5.1707

> <Gold.PLP.part.nonpolar>
-39.8306

> <Gold.PLP.part.repulsive>
0.1393

> <Gold.PLP.ligand.clash>
0.0000

> <Gold.PLP.ligand.torsion>
0.9266

> <Gold.PLP.Chemscore.Hbond>
2.9825

> <Gold.PLP.Chemscore.CHOScore>
1.0034

> <Gold.PLP.Chemscore.Metal>
0.0000

> <Gold.Chemscore.Hbonds>
donor molecule, donor type, donor heavy atom, donor atom, acceptor molecule, acceptor atom, score
      L1  H    10    34       P1  8028  2.00
      L1  C    15    40       P1  7948  1.00

> <Gold.PLP.Chemscore.Internal.Correction>
0.0461

> <Gold.Rescore>
     Score         DG    S(hbond)    S(metal)    S(lipo)     H(rot)  DE(clash)    DE(int)     intcor
     22.67     -23.65       1.86        0.00     134.53       1.48       0.13       0.85       ----

> <Gold.Chemscore.Fitness>
22.6655

> <Gold.Chemscore.DG>
-23.6450

> <Gold.Chemscore.ZeroCoef>
-5.4800

> <Gold.Chemscore.Hbond>
1.8639

> <Gold.Chemscore.Metal>
0.0000

> <Gold.Chemscore.Lipo>
134.5341

> <Gold.Chemscore.Internal_Hbond>
0.0000

> <Gold.Chemscore.DEClash>
0.1278

> <Gold.Chemscore.DEInternal>
0.8516

> <Gold.Chemscore.Rot>
1.4847

> <Gold.Chemscore.Internal.Correction>
   9.000000E+99

> <Gold.Chemscore.Hbonds>
donor molecule, donor type, donor heavy atom, donor atom, acceptor molecule, acceptor atom, score
      L1  H    10    34       P1  8028  0.96
      P1  H 10752 10764       L1    16  0.03

> <Gold.Chemscore.Hbond.Weighted>
-6.2253

> <Gold.Chemscore.Metal.Weighted>
-0.0000

> <Gold.Chemscore.Lipo.Weighted>
-15.7405

> <Gold.Chemscore.Internal_Hbond.Weighted>
0.0000

> <Gold.Chemscore.DEClash.Weighted>
0.1278

> <Gold.Chemscore.DEInternal.Weighted>
0.8516

> <Gold.Chemscore.Rot.Weighted>
3.8008

> <Gold.Chemscore.Internal.Correction.Weighted>
   9.000000E+99

> <Gold.Protein.RotatedTorsions>
[ 6907 6896 6895 6894 ] final   82.54 input  -60.11 | X-H torsion
[ 7974 7965 7964 7962 ] final  -16.19 input  175.53 | X-H torsion
[ 8008 7997 7996 7995 ] final  -86.55 input   59.86 | X-H torsion
[ 10167 10162 10161 10158 ] final  171.84 input  -65.29 | X-H torsion
[ 10718 10713 10712 10709 ] final  -22.47 input   66.30 | X-H torsion
[ 10763 10752 10751 10750 ] final  -62.09 input  -60.55 | X-H torsion
[ 11005 11000 10999 10996 ] final   65.79 input  -57.11 | X-H torsion

> <Gold.Protein.ActiveResidues>
 VAL166  LYS551  ARG553  GLY616  TRP617  ASP618  TYR619  PRO620  LYS621  CYS622 
 ASP623  PHE694  ASN695  SER759  ASP760  ASP761  ALA762  ILE779  LEU786  VAL792 
 PHE793  MET794  SER795  GLU796  ALA797  LYS798  CYS799  TRP800  GLU811  SER814 

> <Gold.Protein.RotatedAtoms>
  152.5302  134.3034  159.9086 H   0  0  0  0  0  0  0  0  0  0  0  0  # atno 6907 bound_to 6896
  151.2984  133.4127  159.2645 H   0  0  0  0  0  0  0  0  0  0  0  0  # atno 6908 bound_to 6896
  151.0140  134.9435  159.8080 H   0  0  0  0  0  0  0  0  0  0  0  0  # atno 6909 bound_to 6896
  146.1998  140.3601  142.8427 H   0  0  0  0  0  0  0  0  0  0  0  0  # atno 7974 bound_to 7965
  154.6531  140.0577  156.9978 H   0  0  0  0  0  0  0  0  0  0  0  0  # atno 8008 bound_to 7997
  155.1341  140.3259  155.4449 H   0  0  0  0  0  0  0  0  0  0  0  0  # atno 8009 bound_to 7997
  156.2585  140.1975  156.6459 H   0  0  0  0  0  0  0  0  0  0  0  0  # atno 8010 bound_to 7997
  139.5058  144.3440  151.9989 H   0  0  0  0  0  0  0  0  0  0  0  0  # atno 10167 bound_to 10162
  156.5041  130.4594  149.6685 H   0  0  0  0  0  0  0  0  0  0  0  0  # atno 10718 bound_to 10713
  154.2945  135.6247  153.5399 H   0  0  0  0  0  0  0  0  0  0  0  0  # atno 10763 bound_to 10752
  152.9848  135.5663  154.5353 H   0  0  0  0  0  0  0  0  0  0  0  0  # atno 10764 bound_to 10752
  154.4970  135.2870  155.1427 H   0  0  0  0  0  0  0  0  0  0  0  0  # atno 10765 bound_to 10752
  139.9872  134.6648  156.0154 H   0  0  0  0  0  0  0  0  0  0  0  0  # atno 11005 bound_to 11000
  144.8659  140.7205  143.6077 LP  0  0  0  0  0  0  0  0  0  0  0  0  # atno 17320 bound_to 7965
  145.3521  139.1703  143.4429 LP  0  0  0  0  0  0  0  0  0  0  0  0  # atno 17321 bound_to 7965
  140.2878  144.3788  150.6098 LP  0  0  0  0  0  0  0  0  0  0  0  0  # atno 17342 bound_to 10162
  140.5969  143.2167  151.7146 LP  0  0  0  0  0  0  0  0  0  0  0  0  # atno 17343 bound_to 10162
  156.3304  130.7328  151.2257 LP  0  0  0  0  0  0  0  0  0  0  0  0  # atno 17370 bound_to 10713
  157.7459  131.0431  150.4728 LP  0  0  0  0  0  0  0  0  0  0  0  0  # atno 17371 bound_to 10713
  141.1535  133.6545  156.4088 LP  0  0  0  0  0  0  0  0  0  0  0  0  # atno 17394 bound_to 11000
  140.4978  134.6514  157.5236 LP  0  0  0  0  0  0  0  0  0  0  0  0  # atno 17395 bound_to 11000

$$$$
