AV-unprocessed.smi:47|AV-procd|sdf|429|dock3
  -GOLD-   2262016303D 1   1.00000     0.00000
 Structure written by MMmdl.
 31 33  0  0  0  0  0  0  0  0  3 V2000
  146.2331  139.8443  153.7523 O   0  0  0  0  0  0  0  0  0  0  0  0
  147.2243  140.8469  153.8295 C   0  0  1  0  0  0  0  0  0  0  0  0
  146.9839  141.8123  154.9944 C   0  0  0  0  0  0  0  0  0  0  0  0
  148.3181  142.2784  155.4214 N   0  3  0  0  0  0  0  0  0  0  0  0
  149.3422  141.4770  154.7220 C   0  0  1  0  0  0  0  0  0  0  0  0
  150.4865  141.0932  155.6367 C   0  0  0  0  0  0  0  0  0  0  0  0
  151.5164  140.2970  155.2866 N   0  0  0  0  0  0  0  0  0  0  0  0
  152.3060  140.2360  156.3410 N   0  5  0  0  0  0  0  0  0  0  0  0
  151.7621  140.9958  157.3041 C   0  0  0  0  0  0  0  0  0  0  0  0
  152.3937  141.1627  158.6293 C   0  0  0  0  0  0  0  0  0  0  0  0
  153.2217  140.1465  159.1606 C   0  0  0  0  0  0  0  0  0  0  0  0
  153.8291  140.2901  160.4233 C   0  0  0  0  0  0  0  0  0  0  0  0
  153.6168  141.4580  161.1778 C   0  0  0  0  0  0  0  0  0  0  0  0
  152.7967  142.4794  160.6655 C   0  0  0  0  0  0  0  0  0  0  0  0
  152.1917  142.3311  159.4021 C   0  0  0  0  0  0  0  0  0  0  0  0
  150.6290  141.5461  156.8909 N   0  0  0  0  0  0  0  0  0  0  0  0
  148.6027  140.2712  154.1370 C   0  0  0  0  0  0  0  0  0  0  0  0
  147.2583  141.4005  152.8900 H   0  0  0  0  0  0  0  0  0  0  0  0
  149.7303  142.0881  153.9058 H   0  0  0  0  0  0  0  0  0  0  0  0
  145.5686  140.1219  153.1396 H   0  0  0  0  0  0  0  0  0  0  0  0
  146.3344  142.6442  154.7213 H   0  0  0  0  0  0  0  0  0  0  0  0
  146.5286  141.2925  155.8389 H   0  0  0  0  0  0  0  0  0  0  0  0
  148.4473  143.2557  155.2035 H   0  0  0  0  0  0  0  0  0  0  0  0
  153.3968  139.2420  158.5970 H   0  0  0  0  0  0  0  0  0  0  0  0
  154.4580  139.5026  160.8116 H   0  0  0  0  0  0  0  0  0  0  0  0
  154.0815  141.5699  162.1463 H   0  0  0  0  0  0  0  0  0  0  0  0
  152.6303  143.3779  161.2410 H   0  0  0  0  0  0  0  0  0  0  0  0
  151.5655  143.1285  159.0298 H   0  0  0  0  0  0  0  0  0  0  0  0
  148.5130  139.4890  154.8933 H   0  0  0  0  0  0  0  0  0  0  0  0
  149.1033  139.8426  153.2682 H   0  0  0  0  0  0  0  0  0  0  0  0
  148.4134  142.1360  156.4174 H   0  0  0  0  0  0  0  0  0  0  0  0
  1  2  1  0  0  0  0
  1 20  1  0  0  0  0
  2 18  1  0  0  0  0
  2 17  1  0  0  0  0
  2  3  1  0  0  0  0
  3  4  1  0  0  0  0
  3 21  1  0  0  0  0
  3 22  1  0  0  0  0
  4  5  1  0  0  0  0
  4 23  1  0  0  0  0
  4 31  1  0  0  0  0
  5 19  1  0  0  0  0
  5  6  1  0  0  0  0
  5 17  1  0  0  0  0
  6 16  1  0  0  0  0
  6  7  2  0  0  0  0
  7  8  1  0  0  0  0
  8  9  1  0  0  0  0
  9 10  1  0  0  0  0
  9 16  2  0  0  0  0
 10 15  1  0  0  0  0
 10 11  2  0  0  0  0
 11 12  1  0  0  0  0
 11 24  1  0  0  0  0
 12 13  2  0  0  0  0
 12 25  1  0  0  0  0
 13 14  1  0  0  0  0
 13 26  1  0  0  0  0
 14 15  2  0  0  0  0
 14 27  1  0  0  0  0
 15 28  1  0  0  0  0
 17 29  1  0  0  0  0
 17 30  1  0  0  0  0
M  CHG  1   4   1
M  CHG  1   8  -1
M  END
> <s_m_source_file>
AV-unprocessed.smi

> <i_m_source_file_index>
47

> <i_lp_mmshare_version>
43012

> <i_f3d_flags>
0

> <s_epik_input>
W09IXVtDQEhdMVtDSDJdW05IXVtDQEBIXShbQ0gyXTEpYzJuW25IXWMobjIpLWMzW2NIXVtjSF1bY0hdW2NIXVtjSF0z

> <s_epik_cmdline>
J2VwaWtfcHl0aG9uJywgJy1waCcsICc3LjAnLCAnLXRuJywgJzgnLCAnLW1hJywgJzIwMCcsICctbWV0YWxfYmluZGluZycsICctaW1hZScsICc8aW5maWxlLm1hZT4nLCAnLW9tYWUnLCAnPG91dGZpbGUubWFlPic=

> <r_lp_tautomer_probability>
1

> <r_epik_Ionization_Penalty>
1.09593

> <r_epik_Ionization_Penalty_Charging>
1.09593

> <r_epik_Ionization_Penalty_Neutral>
3.91329e-08

> <r_epik_State_Penalty>
0.690005

> <r_epik_Charging_Adjusted_Penalty>
1.78594

> <i_epik_Tot_Q>
0

> <i_epik_Tot_abs_Q>
2

> <r_epik_Metal_State_Penalty>
0.213596

> <b_epik_Metal_Only>
0

> <s_lp_Force_Field>
OPLS_2005

> <r_lp_Energy>
21.6155

> <b_lp_Chiralities_Consistent>
1

> <s_lp_Variant>
AV-unprocessed.smi:47-7

> <Gold.Version>
5.8.1

> <Gold.Id.Protein>
6NUR|6NUR_protein|mol2

> <Gold.PLP.Fitness>
52.5304

> <Gold.PLP.PLP>
-35.9338

> <Gold.PLP.part.hbond>
-3.8463

> <Gold.PLP.part.metal>
0.0000

> <Gold.PLP.part.buried>
-2.9917

> <Gold.PLP.part.nonpolar>
-28.5975

> <Gold.PLP.part.repulsive>
0.2117

> <Gold.PLP.ligand.clash>
0.0000

> <Gold.PLP.ligand.torsion>
0.3827

> <Gold.PLP.Chemscore.Hbond>
5.7849

> <Gold.PLP.Chemscore.CHOScore>
0.0000

> <Gold.PLP.Chemscore.Metal>
0.0000

> <Gold.Chemscore.Hbonds>
donor molecule, donor type, donor heavy atom, donor atom, acceptor molecule, acceptor atom, score
      L1  H     1    20       P1 10175  1.00
      L1  H     4    23       P1  8028  2.00
      P1  H  7989  7998       L1     7  0.79
      P1  H  7997  8008       L1     8  2.00

> <Gold.PLP.Chemscore.Internal.Correction>
0.0073

> <Gold.Rescore>
     Score         DG    S(hbond)    S(metal)    S(lipo)     H(rot)  DE(clash)    DE(int)     intcor
     20.59     -20.94       2.93        0.00      81.06       1.48       0.04       0.31       ----

> <Gold.Chemscore.Fitness>
20.5926

> <Gold.Chemscore.DG>
-20.9441

> <Gold.Chemscore.ZeroCoef>
-5.4800

> <Gold.Chemscore.Hbond>
2.9253

> <Gold.Chemscore.Metal>
0.0000

> <Gold.Chemscore.Lipo>
81.0554

> <Gold.Chemscore.Internal_Hbond>
0.0000

> <Gold.Chemscore.DEClash>
0.0440

> <Gold.Chemscore.DEInternal>
0.3075

> <Gold.Chemscore.Rot>
1.4804

> <Gold.Chemscore.Internal.Correction>
   9.000000E+99

> <Gold.Chemscore.Hbonds>
donor molecule, donor type, donor heavy atom, donor atom, acceptor molecule, acceptor atom, score
      L1  H     1    20       P1 10175  0.92
      L1  H     4    23       P1  8028  0.93
      P1  H  7989  7998       L1     7  0.13
      P1  H  7997  8008       L1     8  0.83

> <Gold.Chemscore.Hbond.Weighted>
-9.7705

> <Gold.Chemscore.Metal.Weighted>
-0.0000

> <Gold.Chemscore.Lipo.Weighted>
-9.4835

> <Gold.Chemscore.Internal_Hbond.Weighted>
0.0000

> <Gold.Chemscore.DEClash.Weighted>
0.0440

> <Gold.Chemscore.DEInternal.Weighted>
0.3075

> <Gold.Chemscore.Rot.Weighted>
3.7899

> <Gold.Chemscore.Internal.Correction.Weighted>
   9.000000E+99

> <Gold.Protein.RotatedTorsions>
[ 6907 6896 6895 6894 ] final -143.84 input  -60.11 | X-H torsion
[ 7974 7965 7964 7962 ] final   73.55 input  175.53 | X-H torsion
[ 8008 7997 7996 7995 ] final  -45.55 input   59.86 | X-H torsion
[ 10167 10162 10161 10158 ] final  107.22 input  -65.29 | X-H torsion
[ 10718 10713 10712 10709 ] final  149.07 input   66.30 | X-H torsion
[ 10763 10752 10751 10750 ] final -113.23 input  -60.55 | X-H torsion
[ 11005 11000 10999 10996 ] final -161.78 input  -57.11 | X-H torsion

> <Gold.Protein.ActiveResidues>
 VAL166  LYS551  ARG553  GLY616  TRP617  ASP618  TYR619  PRO620  LYS621  CYS622 
 ASP623  PHE694  ASN695  SER759  ASP760  ASP761  ALA762  ILE779  LEU786  VAL792 
 PHE793  MET794  SER795  GLU796  ALA797  LYS798  CYS799  TRP800  GLU811  SER814 

> <Gold.Protein.RotatedAtoms>
  151.1060  133.5208  159.2607 H   0  0  0  0  0  0  0  0  0  0  0  0  # atno 6907 bound_to 6896
  151.2021  135.0446  159.8886 H   0  0  0  0  0  0  0  0  0  0  0  0  # atno 6908 bound_to 6896
  152.5446  134.0886  159.8320 H   0  0  0  0  0  0  0  0  0  0  0  0  # atno 6909 bound_to 6896
  145.7395  139.2715  143.1494 H   0  0  0  0  0  0  0  0  0  0  0  0  # atno 7974 bound_to 7965
  154.4001  140.1394  156.3865 H   0  0  0  0  0  0  0  0  0  0  0  0  # atno 8008 bound_to 7997
  155.7954  140.3477  155.5352 H   0  0  0  0  0  0  0  0  0  0  0  0  # atno 8009 bound_to 7997
  155.8537  140.0945  157.1649 H   0  0  0  0  0  0  0  0  0  0  0  0  # atno 8010 bound_to 7997
  139.6945  144.7103  151.1292 H   0  0  0  0  0  0  0  0  0  0  0  0  # atno 10167 bound_to 10162
  157.3007  131.0870  151.1392 H   0  0  0  0  0  0  0  0  0  0  0  0  # atno 10718 bound_to 10713
  154.8387  135.4462  154.1317 H   0  0  0  0  0  0  0  0  0  0  0  0  # atno 10763 bound_to 10752
  153.2526  135.6928  153.7669 H   0  0  0  0  0  0  0  0  0  0  0  0  # atno 10764 bound_to 10752
  153.6976  135.3377  155.3193 H   0  0  0  0  0  0  0  0  0  0  0  0  # atno 10765 bound_to 10752
  140.6166  134.4794  157.5220 H   0  0  0  0  0  0  0  0  0  0  0  0  # atno 11005 bound_to 11000
  146.0461  140.8116  142.9804 LP  0  0  0  0  0  0  0  0  0  0  0  0  # atno 17320 bound_to 7965
  144.6874  140.2983  143.7267 LP  0  0  0  0  0  0  0  0  0  0  0  0  # atno 17321 bound_to 7965
  140.7692  143.5512  150.9202 LP  0  0  0  0  0  0  0  0  0  0  0  0  # atno 17342 bound_to 10162
  139.9191  143.6627  152.3100 LP  0  0  0  0  0  0  0  0  0  0  0  0  # atno 17343 bound_to 10162
  157.2753  130.6724  149.6039 LP  0  0  0  0  0  0  0  0  0  0  0  0  # atno 17370 bound_to 10713
  155.9671  130.4466  150.5549 LP  0  0  0  0  0  0  0  0  0  0  0  0  # atno 17371 bound_to 10713
  139.9170  134.8225  156.1333 LP  0  0  0  0  0  0  0  0  0  0  0  0  # atno 17394 bound_to 11000
  141.0771  133.6770  156.2259 LP  0  0  0  0  0  0  0  0  0  0  0  0  # atno 17395 bound_to 11000

$$$$
