AV-unprocessed.smi:1982|AV-procd|sdf|8023|dock5
  -GOLD-   2272010213D 1   1.00000     0.00000
 Structure written by MMmdl.
 36 37  0  0  0  0  0  0  0  0  1 V2000
  154.0787  141.9392  159.8065 C   0  0  0  0  0  0  0  0  0  0  0  0
  152.5461  142.0209  159.9612 C   0  0  1  0  0  0  0  0  0  0  0  0
  152.0315  143.4620  159.7662 C   0  0  0  0  0  0  0  0  0  0  0  0
  152.0801  143.9029  158.2947 C   0  0  0  0  0  0  0  0  0  0  0  0
  151.3042  142.9286  157.3975 C   0  0  0  0  0  0  0  0  0  0  0  0
  151.7986  141.4774  157.5641 C   0  0  2  0  0  0  0  0  0  0  0  0
  150.9733  140.5833  156.7568 N   0  0  0  0  0  0  0  0  0  0  0  0
  151.3975  139.8520  155.7145 C   0  0  0  0  0  0  0  0  0  0  0  0
  152.5434  139.9011  155.2687 O   0  0  0  0  0  0  0  0  0  0  0  0
  150.3702  138.9119  155.0831 C   0  0  0  0  0  0  0  0  0  0  0  0
  150.7186  137.5243  155.3284 N   0  0  0  0  0  0  0  0  0  0  0  0
  150.1042  136.3913  154.9821 C   0  0  0  0  0  0  0  0  0  0  0  0
  150.7771  135.3263  155.3903 N   0  0  0  0  0  0  0  0  0  0  0  0
  151.8769  135.8743  156.0293 N   0  0  0  0  0  0  0  0  0  0  0  0
  151.8478  137.1781  155.9959 N   0  0  0  0  0  0  0  0  0  0  0  0
  151.7615  141.0385  159.0508 C   0  0  1  0  0  0  0  0  0  0  0  0
  152.1925  139.5719  159.2557 C   0  0  0  0  0  0  0  0  0  0  0  0
  154.4020  142.1450  158.7867 H   0  0  0  0  0  0  0  0  0  0  0  0
  154.4574  140.9550  160.0808 H   0  0  0  0  0  0  0  0  0  0  0  0
  154.5728  142.6603  160.4578 H   0  0  0  0  0  0  0  0  0  0  0  0
  152.3305  141.7482  160.9953 H   0  0  0  0  0  0  0  0  0  0  0  0
  151.0020  143.5260  160.1214 H   0  0  0  0  0  0  0  0  0  0  0  0
  152.6050  144.1556  160.3821 H   0  0  0  0  0  0  0  0  0  0  0  0
  151.6633  144.9056  158.1963 H   0  0  0  0  0  0  0  0  0  0  0  0
  153.1146  143.9692  157.9572 H   0  0  0  0  0  0  0  0  0  0  0  0
  150.2425  142.9856  157.6419 H   0  0  0  0  0  0  0  0  0  0  0  0
  151.3973  143.2401  156.3564 H   0  0  0  0  0  0  0  0  0  0  0  0
  152.8304  141.4162  157.2142 H   0  0  0  0  0  0  0  0  0  0  0  0
  150.0112  140.4761  157.0446 H   0  0  0  0  0  0  0  0  0  0  0  0
  149.3781  139.1172  155.4889 H   0  0  0  0  0  0  0  0  0  0  0  0
  150.3216  139.0755  154.0058 H   0  0  0  0  0  0  0  0  0  0  0  0
  149.1768  136.3478  154.4302 H   0  0  0  0  0  0  0  0  0  0  0  0
  150.7196  141.0927  159.3712 H   0  0  0  0  0  0  0  0  0  0  0  0
  153.1853  139.3842  158.8463 H   0  0  0  0  0  0  0  0  0  0  0  0
  151.5043  138.8799  158.7693 H   0  0  0  0  0  0  0  0  0  0  0  0
  152.2120  139.3128  160.3144 H   0  0  0  0  0  0  0  0  0  0  0  0
  1  2  1  0  0  0  0
  1 18  1  0  0  0  0
  1 19  1  0  0  0  0
  1 20  1  0  0  0  0
  2 16  1  0  0  0  0
  2  3  1  0  0  0  0
  2 21  1  0  0  0  0
  3  4  1  0  0  0  0
  3 22  1  0  0  0  0
  3 23  1  0  0  0  0
  4  5  1  0  0  0  0
  4 24  1  0  0  0  0
  4 25  1  0  0  0  0
  5  6  1  0  0  0  0
  5 26  1  0  0  0  0
  5 27  1  0  0  0  0
  6  7  1  0  0  0  0
  6 16  1  0  0  0  0
  6 28  1  0  0  0  0
  7  8  1  0  0  0  0
  7 29  1  0  0  0  0
  8  9  2  0  0  0  0
  8 10  1  0  0  0  0
 10 11  1  0  0  0  0
 10 30  1  0  0  0  0
 10 31  1  0  0  0  0
 11 15  1  0  0  0  0
 11 12  1  0  0  0  0
 12 13  2  0  0  0  0
 12 32  1  0  0  0  0
 13 14  1  0  0  0  0
 14 15  2  0  0  0  0
 16 17  1  0  0  0  0
 16 33  1  0  0  0  0
 17 34  1  0  0  0  0
 17 35  1  0  0  0  0
 17 36  1  0  0  0  0
M  END
> <s_m_source_file>
AV-unprocessed.smi

> <i_m_source_file_index>
1982

> <i_lp_mmshare_version>
43012

> <i_f3d_flags>
0

> <s_epik_input>
W0NIM11bQ0BASF0xW0NIMl1bQ0gyXVtDSDJdW0NASF0oW0NASF0xW0NIM10pW05IXUMoPU8pW0NIMl1uMltjSF1ubm4y

> <s_epik_cmdline>
J2VwaWtfcHl0aG9uJywgJy1waCcsICc3LjAnLCAnLXRuJywgJzgnLCAnLW1hJywgJzIwMCcsICctbWV0YWxfYmluZGluZycsICctaW1hZScsICc8aW5maWxlLm1hZT4nLCAnLW9tYWUnLCAnPG91dGZpbGUubWFlPic=

> <r_lp_tautomer_probability>
1

> <r_epik_Ionization_Penalty>
5.03816e-07

> <r_epik_Ionization_Penalty_Charging>
0

> <r_epik_Ionization_Penalty_Neutral>
5.03816e-07

> <r_epik_State_Penalty>
-0

> <r_epik_Charging_Adjusted_Penalty>
0

> <i_epik_Tot_Q>
0

> <i_epik_Tot_abs_Q>
0

> <r_epik_Metal_State_Penalty>
-0

> <b_epik_Metal_Only>
0

> <s_lp_Force_Field>
OPLS_2005

> <r_lp_Energy>
15.2513

> <b_lp_Chiralities_Consistent>
1

> <s_lp_Variant>
AV-unprocessed.smi:1982-4

> <Gold.Version>
5.8.1

> <Gold.Id.Protein>
6NUR|6NUR_protein|mol2

> <Gold.PLP.Fitness>
42.7527

> <Gold.PLP.PLP>
-33.7188

> <Gold.PLP.part.hbond>
-3.9512

> <Gold.PLP.part.metal>
0.0000

> <Gold.PLP.part.buried>
-3.6636

> <Gold.PLP.part.nonpolar>
-26.8486

> <Gold.PLP.part.repulsive>
0.2478

> <Gold.PLP.ligand.clash>
0.0000

> <Gold.PLP.ligand.torsion>
0.0783

> <Gold.PLP.Chemscore.Hbond>
2.1582

> <Gold.PLP.Chemscore.CHOScore>
0.9032

> <Gold.PLP.Chemscore.Metal>
0.0000

> <Gold.Chemscore.Hbonds>
donor molecule, donor type, donor heavy atom, donor atom, acceptor molecule, acceptor atom, score
      P1  H  7989  7998       L1     9  0.13
      P1  H  7997  8010       L1     9  1.00
      P1  H 10752 10765       L1    14  0.95
      L1  C    12    32       P1  7948  0.83

> <Gold.PLP.Chemscore.Internal.Correction>
0.0061

> <Gold.Rescore>
     Score         DG    S(hbond)    S(metal)    S(lipo)     H(rot)  DE(clash)    DE(int)     intcor
     13.30     -14.72       1.38        0.00      81.28       1.91       0.07       1.35       ----

> <Gold.Chemscore.Fitness>
13.3040

> <Gold.Chemscore.DG>
-14.7222

> <Gold.Chemscore.ZeroCoef>
-5.4800

> <Gold.Chemscore.Hbond>
1.3806

> <Gold.Chemscore.Metal>
0.0000

> <Gold.Chemscore.Lipo>
81.2807

> <Gold.Chemscore.Internal_Hbond>
0.0000

> <Gold.Chemscore.DEClash>
0.0664

> <Gold.Chemscore.DEInternal>
1.3519

> <Gold.Chemscore.Rot>
1.9058

> <Gold.Chemscore.Internal.Correction>
   9.000000E+99

> <Gold.Chemscore.Hbonds>
donor molecule, donor type, donor heavy atom, donor atom, acceptor molecule, acceptor atom, score
      P1  H  7997  8010       L1     9  0.94
      P1  H 10752 10765       L1    14  0.07

> <Gold.Chemscore.Hbond.Weighted>
-4.6112

> <Gold.Chemscore.Metal.Weighted>
-0.0000

> <Gold.Chemscore.Lipo.Weighted>
-9.5098

> <Gold.Chemscore.Internal_Hbond.Weighted>
0.0000

> <Gold.Chemscore.DEClash.Weighted>
0.0664

> <Gold.Chemscore.DEInternal.Weighted>
1.3519

> <Gold.Chemscore.Rot.Weighted>
4.8788

> <Gold.Chemscore.Internal.Correction.Weighted>
   9.000000E+99

> <Gold.Protein.RotatedTorsions>
[ 6907 6896 6895 6894 ] final  150.23 input  -60.11 | X-H torsion
[ 7974 7965 7964 7962 ] final   58.10 input  175.53 | X-H torsion
[ 8008 7997 7996 7995 ] final  100.89 input   59.86 | X-H torsion
[ 10167 10162 10161 10158 ] final -148.26 input  -65.29 | X-H torsion
[ 10718 10713 10712 10709 ] final   68.89 input   66.30 | X-H torsion
[ 10763 10752 10751 10750 ] final -163.07 input  -60.55 | X-H torsion
[ 11005 11000 10999 10996 ] final  -22.43 input  -57.11 | X-H torsion

> <Gold.Protein.ActiveResidues>
 VAL166  LYS551  ARG553  GLY616  TRP617  ASP618  TYR619  PRO620  LYS621  CYS622 
 ASP623  PHE694  ASN695  SER759  ASP760  ASP761  ALA762  ILE779  LEU786  VAL792 
 PHE793  MET794  SER795  GLU796  ALA797  LYS798  CYS799  TRP800  GLU811  SER814 

> <Gold.Protein.RotatedAtoms>
  152.1172  133.4333  159.4658 H   0  0  0  0  0  0  0  0  0  0  0  0  # atno 6907 bound_to 6896
  150.6870  134.2578  159.4546 H   0  0  0  0  0  0  0  0  0  0  0  0  # atno 6908 bound_to 6896
  152.0451  134.9687  160.0625 H   0  0  0  0  0  0  0  0  0  0  0  0  # atno 6909 bound_to 6896
  145.9218  139.3736  143.0473 H   0  0  0  0  0  0  0  0  0  0  0  0  # atno 7974 bound_to 7965
  156.1247  140.3206  155.8260 H   0  0  0  0  0  0  0  0  0  0  0  0  # atno 8008 bound_to 7997
  155.4441  140.0527  157.3024 H   0  0  0  0  0  0  0  0  0  0  0  0  # atno 8009 bound_to 7997
  154.4853  140.2070  155.9682 H   0  0  0  0  0  0  0  0  0  0  0  0  # atno 8010 bound_to 7997
  139.7548  143.8465  152.2594 H   0  0  0  0  0  0  0  0  0  0  0  0  # atno 10167 bound_to 10162
  157.6315  130.9397  150.0439 H   0  0  0  0  0  0  0  0  0  0  0  0  # atno 10718 bound_to 10713
  154.7156  135.3015  154.9128 H   0  0  0  0  0  0  0  0  0  0  0  0  # atno 10763 bound_to 10752
  154.0016  135.6706  153.4763 H   0  0  0  0  0  0  0  0  0  0  0  0  # atno 10764 bound_to 10752
  153.0791  135.5019  154.8381 H   0  0  0  0  0  0  0  0  0  0  0  0  # atno 10765 bound_to 10752
  140.8656  133.7756  156.0126 H   0  0  0  0  0  0  0  0  0  0  0  0  # atno 11005 bound_to 11000
  145.8539  140.9513  143.0735 LP  0  0  0  0  0  0  0  0  0  0  0  0  # atno 17320 bound_to 7965
  144.6754  140.0443  143.7480 LP  0  0  0  0  0  0  0  0  0  0  0  0  # atno 17321 bound_to 7965
  139.8454  144.7190  150.9280 LP  0  0  0  0  0  0  0  0  0  0  0  0  # atno 17342 bound_to 10162
  140.7801  143.3946  151.1251 LP  0  0  0  0  0  0  0  0  0  0  0  0  # atno 17343 bound_to 10162
  156.1522  130.3642  149.9421 LP  0  0  0  0  0  0  0  0  0  0  0  0  # atno 17370 bound_to 10713
  156.7438  130.9089  151.3633 LP  0  0  0  0  0  0  0  0  0  0  0  0  # atno 17371 bound_to 10713
  140.8632  134.2815  157.5225 LP  0  0  0  0  0  0  0  0  0  0  0  0  # atno 17394 bound_to 11000
  139.8709  134.9529  156.4129 LP  0  0  0  0  0  0  0  0  0  0  0  0  # atno 17395 bound_to 11000

$$$$
