AV-unprocessed.smi:37|AV-procd|sdf|307|dock4
  -GOLD-   2262016113D 1   1.00000     0.00000
 Structure written by MMmdl.
 44 45  0  0  0  0  0  0  0  0  1 V2000
  153.0460  142.7115  162.3596 C   0  0  0  0  0  0  0  0  0  0  0  0
  152.2807  143.8185  161.6189 C   0  0  0  0  0  0  0  0  0  0  0  0
  152.0543  143.5188  160.1353 C   0  0  0  0  0  0  0  0  0  0  0  0
  152.9809  143.4539  159.3253 O   0  0  0  0  0  0  0  0  0  0  0  0
  150.7545  143.3438  159.8509 O   0  0  0  0  0  0  0  0  0  0  0  0
  150.3561  143.1165  158.5091 C   0  0  0  0  0  0  0  0  0  0  0  0
  150.5507  141.6364  158.1600 C   0  0  2  0  0  0  0  0  0  0  0  0
  151.8417  141.2005  158.5890 O   0  0  0  0  0  0  0  0  0  0  0  0
  152.4273  140.3819  157.6208 C   0  0  1  0  0  0  0  0  0  0  0  0
  152.9380  139.1230  158.2872 N   0  0  0  0  0  0  0  0  0  0  0  0
  152.7941  138.9586  159.6580 C   0  0  0  0  0  0  0  0  0  0  0  0
  153.2022  137.8480  160.3167 C   0  0  0  0  0  0  0  0  0  0  0  0
  153.0350  137.7667  161.6476 F   0  0  0  0  0  0  0  0  0  0  0  0
  153.8180  136.7387  159.5949 C   0  0  0  0  0  0  0  0  0  0  0  0
  154.2259  135.6963  160.1031 O   0  0  0  0  0  0  0  0  0  0  0  0
  153.9204  136.9357  158.2148 N   0  0  0  0  0  0  0  0  0  0  0  0
  153.4995  138.0731  157.5229 C   0  0  0  0  0  0  0  0  0  0  0  0
  153.6230  138.1235  156.3003 O   0  0  0  0  0  0  0  0  0  0  0  0
  151.3715  140.1131  156.5460 C   0  0  2  0  0  0  0  0  0  0  0  0
  152.1886  139.9385  154.7394 Br  0  0  0  0  0  0  0  0  0  0  0  0
  150.5173  141.3567  156.6529 C   0  0  1  0  0  0  0  0  0  0  0  0
  149.2078  141.0700  156.1798 O   0  0  0  0  0  0  0  0  0  0  0  0
  148.9400  141.0802  154.8618 C   0  0  0  0  0  0  0  0  0  0  0  0
  149.7688  141.1606  153.9550 O   0  0  0  0  0  0  0  0  0  0  0  0
  147.4448  140.9882  154.5661 C   0  0  0  0  0  0  0  0  0  0  0  0
  146.8889  142.2942  153.9825 C   0  0  0  0  0  0  0  0  0  0  0  0
  154.3285  136.1886  157.6716 H   0  0  0  0  0  0  0  0  0  0  0  0
  153.1888  142.9784  163.4067 H   0  0  0  0  0  0  0  0  0  0  0  0
  154.0327  142.5498  161.9238 H   0  0  0  0  0  0  0  0  0  0  0  0
  152.5039  141.7656  162.3317 H   0  0  0  0  0  0  0  0  0  0  0  0
  151.3112  143.9741  162.0924 H   0  0  0  0  0  0  0  0  0  0  0  0
  152.8263  144.7589  161.7018 H   0  0  0  0  0  0  0  0  0  0  0  0
  149.3037  143.3842  158.4090 H   0  0  0  0  0  0  0  0  0  0  0  0
  150.9224  143.7508  157.8256 H   0  0  0  0  0  0  0  0  0  0  0  0
  149.7988  141.0225  158.6586 H   0  0  0  0  0  0  0  0  0  0  0  0
  153.2963  140.9094  157.2252 H   0  0  0  0  0  0  0  0  0  0  0  0
  152.3433  139.7493  160.2408 H   0  0  0  0  0  0  0  0  0  0  0  0
  150.7960  139.2127  156.7585 H   0  0  0  0  0  0  0  0  0  0  0  0
  150.9994  142.1696  156.1072 H   0  0  0  0  0  0  0  0  0  0  0  0
  147.2722  140.1651  153.8725 H   0  0  0  0  0  0  0  0  0  0  0  0
  146.9178  140.7414  155.4881 H   0  0  0  0  0  0  0  0  0  0  0  0
  145.8142  142.2143  153.8194 H   0  0  0  0  0  0  0  0  0  0  0  0
  147.3503  142.5331  153.0238 H   0  0  0  0  0  0  0  0  0  0  0  0
  147.0593  143.1343  154.6570 H   0  0  0  0  0  0  0  0  0  0  0  0
  1  2  1  0  0  0  0
  1 28  1  0  0  0  0
  1 29  1  0  0  0  0
  1 30  1  0  0  0  0
  2  3  1  0  0  0  0
  2 31  1  0  0  0  0
  2 32  1  0  0  0  0
  3  4  2  0  0  0  0
  3  5  1  0  0  0  0
  5  6  1  0  0  0  0
  6  7  1  0  0  0  0
  6 33  1  0  0  0  0
  6 34  1  0  0  0  0
  7 21  1  0  0  0  0
  7  8  1  0  0  0  0
  7 35  1  0  0  0  0
  8  9  1  0  0  0  0
  9 10  1  0  0  0  0
  9 19  1  0  0  0  0
  9 36  1  0  0  0  0
 10 17  1  0  0  0  0
 10 11  1  0  0  0  0
 11 12  2  0  0  0  0
 11 37  1  0  0  0  0
 12 13  1  0  0  0  0
 12 14  1  0  0  0  0
 14 15  2  0  0  0  0
 14 16  1  0  0  0  0
 16 27  1  0  0  0  0
 16 17  1  0  0  0  0
 17 18  2  0  0  0  0
 19 20  1  0  0  0  0
 19 21  1  0  0  0  0
 19 38  1  0  0  0  0
 21 22  1  0  0  0  0
 21 39  1  0  0  0  0
 22 23  1  0  0  0  0
 23 24  2  0  0  0  0
 23 25  1  0  0  0  0
 25 26  1  0  0  0  0
 25 40  1  0  0  0  0
 25 41  1  0  0  0  0
 26 42  1  0  0  0  0
 26 43  1  0  0  0  0
 26 44  1  0  0  0  0
M  END
> <s_m_source_file>
AV-unprocessed.smi

> <i_m_source_file_index>
37

> <i_lp_mmshare_version>
43012

> <i_f3d_flags>
0

> <s_epik_input>
W0NIM11bQ0gyXUMoPU8pT1tDSDJdW0NAQEhdMU9bQ0BASF0objJbY0hdYyhGKWMoPU8pW25IXWMyPU8pW0NAQEhdKEJyKVtDQEhdMU9DKD1PKVtDSDJdW0NIM10=

> <s_epik_cmdline>
J2VwaWtfcHl0aG9uJywgJy1waCcsICc3LjAnLCAnLXRuJywgJzgnLCAnLW1hJywgJzIwMCcsICctbWV0YWxfYmluZGluZycsICctaW1hZScsICc8aW5maWxlLm1hZT4nLCAnLW9tYWUnLCAnPG91dGZpbGUubWFlPic=

> <r_lp_tautomer_probability>
0.999537

> <r_epik_Ionization_Penalty>
0.104106

> <r_epik_Ionization_Penalty_Charging>
0.104106

> <r_epik_Ionization_Penalty_Neutral>
3.94675e-16

> <r_epik_State_Penalty>
0.0940182

> <r_epik_Charging_Adjusted_Penalty>
0.198124

> <i_epik_Tot_Q>
0

> <i_epik_Tot_abs_Q>
0

> <r_epik_Metal_State_Penalty>
3.05314

> <b_epik_Metal_Only>
0

> <s_epik_Chemistry_Notes>
This compound has an ester and may undergo hydrolysis at high or low pH. This compound contains an acetal/aminal-like group ( X-CH(R)-Y where X, Y are N, S, or O) that may be acid/base labile, releasing an aldehyde.

> <s_lp_Force_Field>
OPLS_2005

> <r_lp_Energy>
20.0289

> <b_lp_Chiralities_Consistent>
1

> <s_lp_Variant>
AV-unprocessed.smi:37-5

> <Gold.Version>
5.8.1

> <Gold.Id.Protein>
6NUR|6NUR_protein|mol2

> <Gold.PLP.Fitness>
44.7921

> <Gold.PLP.PLP>
-38.3692

> <Gold.PLP.part.hbond>
-4.9952

> <Gold.PLP.part.metal>
0.0000

> <Gold.PLP.part.buried>
0.3234

> <Gold.PLP.part.nonpolar>
-32.6250

> <Gold.PLP.part.repulsive>
1.3089

> <Gold.PLP.ligand.clash>
0.0000

> <Gold.PLP.ligand.torsion>
0.5996

> <Gold.PLP.Chemscore.Hbond>
2.4271

> <Gold.PLP.Chemscore.CHOScore>
0.0000

> <Gold.PLP.Chemscore.Metal>
0.0000

> <Gold.Chemscore.Hbonds>
donor molecule, donor type, donor heavy atom, donor atom, acceptor molecule, acceptor atom, score
      P1  H  6896  6908       L1    15  0.91
      P1  H  7989  7998       L1    24  0.35
      P1  H  7997  8008       L1    18  0.38
      P1  H  8011  8017       L1    24  0.77

> <Gold.PLP.Chemscore.Internal.Correction>
0.3407

> <Gold.Rescore>
     Score         DG    S(hbond)    S(metal)    S(lipo)     H(rot)  DE(clash)    DE(int)     intcor
      3.47     -12.29       1.72        0.00      82.05       3.33       3.43       5.39       ----

> <Gold.Chemscore.Fitness>
3.4710

> <Gold.Chemscore.DG>
-12.2872

> <Gold.Chemscore.ZeroCoef>
-5.4800

> <Gold.Chemscore.Hbond>
1.7163

> <Gold.Chemscore.Metal>
0.0000

> <Gold.Chemscore.Lipo>
82.0540

> <Gold.Chemscore.Internal_Hbond>
0.0000

> <Gold.Chemscore.DEClash>
3.4261

> <Gold.Chemscore.DEInternal>
5.3901

> <Gold.Chemscore.Rot>
3.3303

> <Gold.Chemscore.Internal.Correction>
   9.000000E+99

> <Gold.Chemscore.Hbonds>
donor molecule, donor type, donor heavy atom, donor atom, acceptor molecule, acceptor atom, score
      P1  H  6896  6908       L1    15  0.26
      P1  H  7989  7998       L1    24  0.36
      P1  H  7997  8008       L1    18  0.06
      P1  H  8011  8017       L1    24  0.73

> <Gold.Chemscore.Hbond.Weighted>
-5.7325

> <Gold.Chemscore.Metal.Weighted>
-0.0000

> <Gold.Chemscore.Lipo.Weighted>
-9.6003

> <Gold.Chemscore.Internal_Hbond.Weighted>
0.0000

> <Gold.Chemscore.DEClash.Weighted>
3.4261

> <Gold.Chemscore.DEInternal.Weighted>
5.3901

> <Gold.Chemscore.Rot.Weighted>
8.5256

> <Gold.Chemscore.Internal.Correction.Weighted>
   9.000000E+99

> <Gold.Protein.RotatedTorsions>
[ 6907 6896 6895 6894 ] final  -48.21 input  -60.11 | X-H torsion
[ 7974 7965 7964 7962 ] final   11.03 input  175.53 | X-H torsion
[ 8008 7997 7996 7995 ] final  -35.12 input   59.86 | X-H torsion
[ 10167 10162 10161 10158 ] final  -26.78 input  -65.29 | X-H torsion
[ 10718 10713 10712 10709 ] final  133.19 input   66.30 | X-H torsion
[ 10763 10752 10751 10750 ] final -110.69 input  -60.55 | X-H torsion
[ 11005 11000 10999 10996 ] final  102.28 input  -57.11 | X-H torsion

> <Gold.Protein.ActiveResidues>
 VAL166  LYS551  ARG553  GLY616  TRP617  ASP618  TYR619  PRO620  LYS621  CYS622 
 ASP623  PHE694  ASN695  SER759  ASP760  ASP761  ALA762  ILE779  LEU786  VAL792 
 PHE793  MET794  SER795  GLU796  ALA797  LYS798  CYS799  TRP800  GLU811  SER814 

> <Gold.Protein.RotatedAtoms>
  150.8929  134.8334  159.7305 H   0  0  0  0  0  0  0  0  0  0  0  0  # atno 6907 bound_to 6896
  152.4847  134.4621  159.9618 H   0  0  0  0  0  0  0  0  0  0  0  0  # atno 6908 bound_to 6896
  151.4681  133.3537  159.2854 H   0  0  0  0  0  0  0  0  0  0  0  0  # atno 6909 bound_to 6896
  146.2378  139.9546  142.8466 H   0  0  0  0  0  0  0  0  0  0  0  0  # atno 7974 bound_to 7965
  154.4103  140.1665  156.2161 H   0  0  0  0  0  0  0  0  0  0  0  0  # atno 8008 bound_to 7997
  155.9403  140.3408  155.6299 H   0  0  0  0  0  0  0  0  0  0  0  0  # atno 8009 bound_to 7997
  155.6997  140.0743  157.2406 H   0  0  0  0  0  0  0  0  0  0  0  0  # atno 8010 bound_to 7997
  140.7281  143.4149  151.1045 H   0  0  0  0  0  0  0  0  0  0  0  0  # atno 10167 bound_to 10162
  157.4797  131.1085  150.9698 H   0  0  0  0  0  0  0  0  0  0  0  0  # atno 10718 bound_to 10713
  154.8261  135.4555  154.0924 H   0  0  0  0  0  0  0  0  0  0  0  0  # atno 10763 bound_to 10752
  153.2237  135.6897  153.7976 H   0  0  0  0  0  0  0  0  0  0  0  0  # atno 10764 bound_to 10752
  153.7384  135.3316  155.3276 H   0  0  0  0  0  0  0  0  0  0  0  0  # atno 10765 bound_to 10752
  139.8777  134.9217  156.5034 H   0  0  0  0  0  0  0  0  0  0  0  0  # atno 11005 bound_to 11000
  145.1829  140.9775  143.4256 LP  0  0  0  0  0  0  0  0  0  0  0  0  # atno 17320 bound_to 7965
  144.9926  139.3675  143.6207 LP  0  0  0  0  0  0  0  0  0  0  0  0  # atno 17321 bound_to 7965
  139.7787  143.8387  152.3134 LP  0  0  0  0  0  0  0  0  0  0  0  0  # atno 17342 bound_to 10162
  139.8330  144.7245  150.9426 LP  0  0  0  0  0  0  0  0  0  0  0  0  # atno 17343 bound_to 10162
  157.0435  130.5758  149.5359 LP  0  0  0  0  0  0  0  0  0  0  0  0  # atno 17370 bound_to 10713
  156.0115  130.5207  150.8003 LP  0  0  0  0  0  0  0  0  0  0  0  0  # atno 17371 bound_to 10713
  140.8573  133.8086  155.9229 LP  0  0  0  0  0  0  0  0  0  0  0  0  # atno 17394 bound_to 11000
  140.9085  134.2290  157.5000 LP  0  0  0  0  0  0  0  0  0  0  0  0  # atno 17395 bound_to 11000

$$$$
