AV-unprocessed.smi:250|AV-procd|sdf|1933|dock10
  -GOLD-   2262021 53D 1   1.00000     0.00000
 Structure written by MMmdl.
 56 60  0  0  0  0  0  0  0  0  1 V2000
  151.3545  142.4440  157.3826 C   0  0  0  0  0  0  0  0  0  0  0  0
  151.1067  141.2646  156.5631 N   0  0  0  0  0  0  0  0  0  0  0  0
  151.8341  140.1352  156.5776 C   0  0  0  0  0  0  0  0  0  0  0  0
  152.8012  139.9012  157.2999 O   0  0  0  0  0  0  0  0  0  0  0  0
  151.3366  139.3032  155.6580 N   0  0  0  0  0  0  0  0  0  0  0  0
  150.2723  139.9070  154.8851 C   0  0  1  0  0  0  0  0  0  0  0  0
  149.1218  138.9448  154.5024 C   0  0  0  0  0  0  0  0  0  0  0  0
  147.9218  139.0809  155.3286 N   0  0  0  0  0  0  0  0  0  0  0  0
  146.9508  138.1612  155.0941 C   0  0  0  0  0  0  0  0  0  0  0  0
  146.4709  137.4770  156.1651 N   0  0  0  0  0  0  0  0  0  0  0  0
  145.5117  136.5606  156.0110 C   0  0  0  0  0  0  0  0  0  0  0  0
  144.9000  136.1747  154.8909 N   0  0  0  0  0  0  0  0  0  0  0  0
  145.3788  136.8509  153.8078 C   0  0  0  0  0  0  0  0  0  0  0  0
  146.3961  137.8488  153.8161 C   0  0  0  0  0  0  0  0  0  0  0  0
  146.6264  138.2860  152.5156 N   0  0  0  0  0  0  0  0  0  0  0  0
  145.7906  137.5979  151.7883 C   0  0  0  0  0  0  0  0  0  0  0  0
  144.9892  136.7234  152.4853 N   0  0  0  0  0  0  0  0  0  0  0  0
  143.9816  135.8304  151.9297 C   0  0  0  0  0  0  0  0  0  0  0  0
  144.5279  134.5898  151.1565 C   0  0  0  0  0  0  0  0  0  0  0  0
  144.4106  134.8975  149.6364 C   0  0  0  0  0  0  0  0  0  0  0  0
  144.9916  136.1392  149.2901 O   0  0  0  0  0  0  0  0  0  0  0  0
  146.0138  134.3271  151.5175 C   0  0  0  0  0  0  0  0  0  0  0  0
  146.5491  133.0043  150.9363 C   0  0  0  0  0  0  0  0  0  0  0  0
  145.7356  131.9185  151.3632 O   0  0  0  0  0  0  0  0  0  0  0  0
  144.3843  132.0319  150.9341 C   0  0  0  0  0  0  0  0  0  0  0  0
  143.7512  133.3009  151.5331 C   0  0  0  0  0  0  0  0  0  0  0  0
  147.5279  140.4277  155.7213 C   0  0  0  0  0  0  0  0  0  0  0  0
  148.6585  141.0638  156.5259 C   0  0  0  0  0  0  0  0  0  0  0  0
  149.9454  141.1775  155.6871 C   0  0  1  0  0  0  0  0  0  0  0  0
  150.7550  140.2086  153.9536 H   0  0  0  0  0  0  0  0  0  0  0  0
  149.8893  142.0402  155.0215 H   0  0  0  0  0  0  0  0  0  0  0  0
  152.3883  142.7757  157.2776 H   0  0  0  0  0  0  0  0  0  0  0  0
  151.1686  142.2218  158.4338 H   0  0  0  0  0  0  0  0  0  0  0  0
  150.7051  143.2693  157.0895 H   0  0  0  0  0  0  0  0  0  0  0  0
  151.7072  138.3852  155.4593 H   0  0  0  0  0  0  0  0  0  0  0  0
  148.8224  139.1522  153.4743 H   0  0  0  0  0  0  0  0  0  0  0  0
  149.4900  137.9182  154.5071 H   0  0  0  0  0  0  0  0  0  0  0  0
  145.1875  136.0666  156.9150 H   0  0  0  0  0  0  0  0  0  0  0  0
  145.7322  137.7134  150.7156 H   0  0  0  0  0  0  0  0  0  0  0  0
  143.3443  135.5103  152.7548 H   0  0  0  0  0  0  0  0  0  0  0  0
  143.3406  136.4218  151.2743 H   0  0  0  0  0  0  0  0  0  0  0  0
  144.9032  134.1179  149.0544 H   0  0  0  0  0  0  0  0  0  0  0  0
  143.3763  134.9183  149.2983 H   0  0  0  0  0  0  0  0  0  0  0  0
  144.4003  136.8298  149.5487 H   0  0  0  0  0  0  0  0  0  0  0  0
  146.6380  135.1592  151.1898 H   0  0  0  0  0  0  0  0  0  0  0  0
  146.1338  134.2659  152.5985 H   0  0  0  0  0  0  0  0  0  0  0  0
  146.6042  133.0299  149.8480 H   0  0  0  0  0  0  0  0  0  0  0  0
  147.5656  132.8323  151.2904 H   0  0  0  0  0  0  0  0  0  0  0  0
  144.3290  132.0275  149.8453 H   0  0  0  0  0  0  0  0  0  0  0  0
  143.8395  131.1516  151.2750 H   0  0  0  0  0  0  0  0  0  0  0  0
  143.7435  133.1723  152.6146 H   0  0  0  0  0  0  0  0  0  0  0  0
  142.7056  133.3754  151.2332 H   0  0  0  0  0  0  0  0  0  0  0  0
  147.3029  141.0236  154.8360 H   0  0  0  0  0  0  0  0  0  0  0  0
  146.6291  140.3960  156.3382 H   0  0  0  0  0  0  0  0  0  0  0  0
  148.3576  142.0494  156.8819 H   0  0  0  0  0  0  0  0  0  0  0  0
  148.8359  140.4569  157.4159 H   0  0  0  0  0  0  0  0  0  0  0  0
  1  2  1  0  0  0  0
  1 32  1  0  0  0  0
  1 33  1  0  0  0  0
  1 34  1  0  0  0  0
  2 29  1  0  0  0  0
  2  3  1  0  0  0  0
  3  4  2  0  0  0  0
  3  5  1  0  0  0  0
  5  6  1  0  0  0  0
  5 35  1  0  0  0  0
  6 30  1  0  0  0  0
  6 29  1  0  0  0  0
  6  7  1  0  0  0  0
  7  8  1  0  0  0  0
  7 36  1  0  0  0  0
  7 37  1  0  0  0  0
  8  9  1  0  0  0  0
  8 27  1  0  0  0  0
  9 14  1  0  0  0  0
  9 10  2  0  0  0  0
 10 11  1  0  0  0  0
 11 12  2  0  0  0  0
 11 38  1  0  0  0  0
 12 13  1  0  0  0  0
 13 17  1  0  0  0  0
 13 14  2  0  0  0  0
 14 15  1  0  0  0  0
 15 16  2  0  0  0  0
 16 17  1  0  0  0  0
 16 39  1  0  0  0  0
 17 18  1  0  0  0  0
 18 19  1  0  0  0  0
 18 40  1  0  0  0  0
 18 41  1  0  0  0  0
 19 26  1  0  0  0  0
 19 20  1  0  0  0  0
 19 22  1  0  0  0  0
 20 21  1  0  0  0  0
 20 42  1  0  0  0  0
 20 43  1  0  0  0  0
 21 44  1  0  0  0  0
 22 23  1  0  0  0  0
 22 45  1  0  0  0  0
 22 46  1  0  0  0  0
 23 24  1  0  0  0  0
 23 47  1  0  0  0  0
 23 48  1  0  0  0  0
 24 25  1  0  0  0  0
 25 26  1  0  0  0  0
 25 49  1  0  0  0  0
 25 50  1  0  0  0  0
 26 51  1  0  0  0  0
 26 52  1  0  0  0  0
 27 28  1  0  0  0  0
 27 53  1  0  0  0  0
 27 54  1  0  0  0  0
 28 29  1  0  0  0  0
 28 55  1  0  0  0  0
 28 56  1  0  0  0  0
 29 31  1  0  0  0  0
M  END
> <s_m_source_file>
AV-unprocessed.smi

> <i_m_source_file_index>
250

> <i_lp_mmshare_version>
43012

> <i_f3d_flags>
0

> <s_epik_input>
Tz1DKFtOSF0xKU4oW0NIM10pW0NASF0oW0NASF0xMilbQ0gyXVtDSDJdTihbQ0gyXTIpYyhuW2NIXW4zKWMoYzM0KW5bY0hdbjRbQ0gyXUM1KFtDSDJdW09IXSlbQ0gyXVtDSDJdT1tDSDJdW0NIMl01

> <s_epik_cmdline>
J2VwaWtfcHl0aG9uJywgJy1waCcsICc3LjAnLCAnLXRuJywgJzgnLCAnLW1hJywgJzIwMCcsICctbWV0YWxfYmluZGluZycsICctaW1hZScsICc8aW5maWxlLm1hZT4nLCAnLW9tYWUnLCAnPG91dGZpbGUubWFlPic=

> <r_lp_tautomer_probability>
1

> <r_epik_Ionization_Penalty>
0.00229024

> <r_epik_Ionization_Penalty_Charging>
0

> <r_epik_Ionization_Penalty_Neutral>
0.00229024

> <r_epik_State_Penalty>
0.0013961

> <r_epik_Charging_Adjusted_Penalty>
0.0013961

> <i_epik_Tot_Q>
0

> <i_epik_Tot_abs_Q>
0

> <r_epik_Metal_State_Penalty>
-0

> <b_epik_Metal_Only>
0

> <s_lp_Force_Field>
OPLS_2005

> <r_lp_Energy>
68.1887

> <b_lp_Chiralities_Consistent>
1

> <s_lp_Variant>
AV-unprocessed.smi:250-4

> <Gold.Version>
5.8.1

> <Gold.Id.Protein>
6NUR|6NUR_protein|mol2

> <Gold.PLP.Fitness>
42.2000

> <Gold.PLP.PLP>
-38.2753

> <Gold.PLP.part.hbond>
-2.5319

> <Gold.PLP.part.metal>
0.0000

> <Gold.PLP.part.buried>
-0.9074

> <Gold.PLP.part.nonpolar>
-35.4292

> <Gold.PLP.part.repulsive>
0.5371

> <Gold.PLP.ligand.clash>
0.0000

> <Gold.PLP.ligand.torsion>
2.3343

> <Gold.PLP.Chemscore.Hbond>
2.0000

> <Gold.PLP.Chemscore.CHOScore>
0.7750

> <Gold.PLP.Chemscore.Metal>
0.0000

> <Gold.Chemscore.Hbonds>
donor molecule, donor type, donor heavy atom, donor atom, acceptor molecule, acceptor atom, score
      L1  H    21    44       P1 10171  1.00
      P1  H  7997  8009       L1     4  1.00
      L1  C    16    39       P1 10171  0.80

> <Gold.PLP.Chemscore.Internal.Correction>
0.2683

> <Gold.Rescore>
     Score         DG    S(hbond)    S(metal)    S(lipo)     H(rot)  DE(clash)    DE(int)     intcor
     11.20     -16.49       1.99        0.00      85.69       2.22       2.99       2.31       ----

> <Gold.Chemscore.Fitness>
11.2001

> <Gold.Chemscore.DG>
-16.4938

> <Gold.Chemscore.ZeroCoef>
-5.4800

> <Gold.Chemscore.Hbond>
1.9950

> <Gold.Chemscore.Metal>
0.0000

> <Gold.Chemscore.Lipo>
85.6944

> <Gold.Chemscore.Internal_Hbond>
0.0000

> <Gold.Chemscore.DEClash>
2.9883

> <Gold.Chemscore.DEInternal>
2.3054

> <Gold.Chemscore.Rot>
2.2170

> <Gold.Chemscore.Internal.Correction>
   9.000000E+99

> <Gold.Chemscore.Hbonds>
donor molecule, donor type, donor heavy atom, donor atom, acceptor molecule, acceptor atom, score
      L1  H    21    44       P1 10171  0.98
      P1  H  7997  8009       L1     4  0.95

> <Gold.Chemscore.Hbond.Weighted>
-6.6632

> <Gold.Chemscore.Metal.Weighted>
-0.0000

> <Gold.Chemscore.Lipo.Weighted>
-10.0263

> <Gold.Chemscore.Internal_Hbond.Weighted>
0.0000

> <Gold.Chemscore.DEClash.Weighted>
2.9883

> <Gold.Chemscore.DEInternal.Weighted>
2.3054

> <Gold.Chemscore.Rot.Weighted>
5.6756

> <Gold.Chemscore.Internal.Correction.Weighted>
   9.000000E+99

> <Gold.Protein.RotatedTorsions>
[ 6907 6896 6895 6894 ] final -125.98 input  -60.11 | X-H torsion
[ 7974 7965 7964 7962 ] final -169.58 input  175.53 | X-H torsion
[ 8008 7997 7996 7995 ] final -178.93 input   59.86 | X-H torsion
[ 10167 10162 10161 10158 ] final   84.26 input  -65.29 | X-H torsion
[ 10718 10713 10712 10709 ] final   -4.11 input   66.30 | X-H torsion
[ 10763 10752 10751 10750 ] final   56.50 input  -60.55 | X-H torsion
[ 11005 11000 10999 10996 ] final  -83.77 input  -57.11 | X-H torsion

> <Gold.Protein.ActiveResidues>
 VAL166  LYS551  ARG553  GLY616  TRP617  ASP618  TYR619  PRO620  LYS621  CYS622 
 ASP623  PHE694  ASN695  SER759  ASP760  ASP761  ALA762  ILE779  LEU786  VAL792 
 PHE793  MET794  SER795  GLU796  ALA797  LYS798  CYS799  TRP800  GLU811  SER814 

> <Gold.Protein.RotatedAtoms>
  150.8923  133.7227  159.2901 H   0  0  0  0  0  0  0  0  0  0  0  0  # atno 6907 bound_to 6896
  151.4773  135.1048  159.9777 H   0  0  0  0  0  0  0  0  0  0  0  0  # atno 6908 bound_to 6896
  152.4827  133.8248  159.7128 H   0  0  0  0  0  0  0  0  0  0  0  0  # atno 6909 bound_to 6896
  144.7183  140.2199  143.6317 H   0  0  0  0  0  0  0  0  0  0  0  0  # atno 7974 bound_to 7965
  156.0246  140.1268  157.0322 H   0  0  0  0  0  0  0  0  0  0  0  0  # atno 8008 bound_to 7997
  154.4325  140.1062  156.6083 H   0  0  0  0  0  0  0  0  0  0  0  0  # atno 8009 bound_to 7997
  155.5895  140.3469  155.4564 H   0  0  0  0  0  0  0  0  0  0  0  0  # atno 8010 bound_to 7997
  139.9098  144.6278  150.8549 H   0  0  0  0  0  0  0  0  0  0  0  0  # atno 10167 bound_to 10162
  156.7662  130.5285  149.5776 H   0  0  0  0  0  0  0  0  0  0  0  0  # atno 10718 bound_to 10713
  152.9833  135.5674  154.5239 H   0  0  0  0  0  0  0  0  0  0  0  0  # atno 10763 bound_to 10752
  154.4723  135.2785  155.1635 H   0  0  0  0  0  0  0  0  0  0  0  0  # atno 10764 bound_to 10752
  154.3179  135.6275  153.5547 H   0  0  0  0  0  0  0  0  0  0  0  0  # atno 10765 bound_to 10752
  141.1655  133.7311  156.8770 H   0  0  0  0  0  0  0  0  0  0  0  0  # atno 11005 bound_to 11000
  145.8511  139.2176  143.1772 LP  0  0  0  0  0  0  0  0  0  0  0  0  # atno 17320 bound_to 7965
  146.0260  140.8303  142.9900 LP  0  0  0  0  0  0  0  0  0  0  0  0  # atno 17321 bound_to 7965
  140.7688  143.3374  151.2280 LP  0  0  0  0  0  0  0  0  0  0  0  0  # atno 17342 bound_to 10162
  139.6952  143.9625  152.2879 LP  0  0  0  0  0  0  0  0  0  0  0  0  # atno 17343 bound_to 10162
  156.1307  130.6176  151.0329 LP  0  0  0  0  0  0  0  0  0  0  0  0  # atno 17370 bound_to 10713
  157.6712  131.0861  150.7607 LP  0  0  0  0  0  0  0  0  0  0  0  0  # atno 17371 bound_to 10713
  140.1742  134.9079  157.2870 LP  0  0  0  0  0  0  0  0  0  0  0  0  # atno 17394 bound_to 11000
  140.2468  134.3730  155.7458 LP  0  0  0  0  0  0  0  0  0  0  0  0  # atno 17395 bound_to 11000

$$$$
