AV-unprocessed.smi:2945|AV-procd|sdf|11278|dock6
  -GOLD-   2272016173D 1   1.00000     0.00000
 Structure written by MMmdl.
 36 37  0  0  0  0  0  0  0  0  1 V2000
  139.5234  137.9900  153.9117 C   0  0  0  0  0  0  0  0  0  0  0  0
  140.6890  137.0844  154.1181 C   0  0  0  0  0  0  0  0  0  0  0  0
  141.1868  136.0312  153.4037 C   0  0  0  0  0  0  0  0  0  0  0  0
  142.3141  135.6301  154.1688 C   0  0  0  0  0  0  0  0  0  0  0  0
  143.1247  134.5435  153.7530 N   0  0  0  0  0  0  0  0  0  0  0  0
  144.1250  134.5617  152.8560 C   0  0  0  0  0  0  0  0  0  0  0  0
  144.5153  135.5596  152.2495 O   0  0  0  0  0  0  0  0  0  0  0  0
  144.6567  133.3397  152.7038 N   0  0  0  0  0  0  0  0  0  0  0  0
  145.7550  132.9784  151.8048 C   0  0  2  0  0  0  0  0  0  0  0  0
  145.2459  131.9984  150.7285 C   0  0  0  0  0  0  0  0  0  0  0  0
  144.9156  130.6138  151.3124 C   0  0  0  0  0  0  0  0  0  0  0  0
  146.1176  130.0281  152.0682 C   0  0  0  0  0  0  0  0  0  0  0  0
  146.6172  130.9903  153.1581 C   0  0  0  0  0  0  0  0  0  0  0  0
  146.9577  132.3787  152.5775 C   0  0  2  0  0  0  0  0  0  0  0  0
  147.5119  133.3235  153.6574 C   0  0  0  0  0  0  0  0  0  0  0  0
  142.4877  136.3698  155.2532 N   0  0  0  0  0  0  0  0  0  0  0  0
  141.4467  137.3054  155.2265 O   0  0  0  0  0  0  0  0  0  0  0  0
  139.0405  137.7922  152.9546 H   0  0  0  0  0  0  0  0  0  0  0  0
  139.8375  139.0337  153.9215 H   0  0  0  0  0  0  0  0  0  0  0  0
  138.7827  137.8514  154.6995 H   0  0  0  0  0  0  0  0  0  0  0  0
  140.8052  135.6184  152.4816 H   0  0  0  0  0  0  0  0  0  0  0  0
  142.9141  133.6531  154.1782 H   0  0  0  0  0  0  0  0  0  0  0  0
  144.2666  132.5879  153.2527 H   0  0  0  0  0  0  0  0  0  0  0  0
  146.1025  133.8728  151.2847 H   0  0  0  0  0  0  0  0  0  0  0  0
  144.3701  132.4110  150.2261 H   0  0  0  0  0  0  0  0  0  0  0  0
  146.0100  131.8854  149.9584 H   0  0  0  0  0  0  0  0  0  0  0  0
  144.0613  130.6897  151.9860 H   0  0  0  0  0  0  0  0  0  0  0  0
  144.6153  129.9368  150.5124 H   0  0  0  0  0  0  0  0  0  0  0  0
  145.8453  129.0709  152.5136 H   0  0  0  0  0  0  0  0  0  0  0  0
  146.9254  129.8223  151.3647 H   0  0  0  0  0  0  0  0  0  0  0  0
  145.8589  131.0863  153.9362 H   0  0  0  0  0  0  0  0  0  0  0  0
  147.4970  130.5636  153.6410 H   0  0  0  0  0  0  0  0  0  0  0  0
  147.7597  132.2340  151.8518 H   0  0  0  0  0  0  0  0  0  0  0  0
  146.7965  133.4792  154.4652 H   0  0  0  0  0  0  0  0  0  0  0  0
  147.7563  134.2988  153.2358 H   0  0  0  0  0  0  0  0  0  0  0  0
  148.4225  132.9189  154.0998 H   0  0  0  0  0  0  0  0  0  0  0  0
  1  2  1  0  0  0  0
  1 18  1  0  0  0  0
  1 19  1  0  0  0  0
  1 20  1  0  0  0  0
  2 17  1  0  0  0  0
  2  3  2  0  0  0  0
  3  4  1  0  0  0  0
  3 21  1  0  0  0  0
  4  5  1  0  0  0  0
  4 16  2  0  0  0  0
  5  6  1  0  0  0  0
  5 22  1  0  0  0  0
  6  7  2  0  0  0  0
  6  8  1  0  0  0  0
  8  9  1  0  0  0  0
  8 23  1  0  0  0  0
  9 14  1  0  0  0  0
  9 10  1  0  0  0  0
  9 24  1  0  0  0  0
 10 11  1  0  0  0  0
 10 25  1  0  0  0  0
 10 26  1  0  0  0  0
 11 12  1  0  0  0  0
 11 27  1  0  0  0  0
 11 28  1  0  0  0  0
 12 13  1  0  0  0  0
 12 29  1  0  0  0  0
 12 30  1  0  0  0  0
 13 14  1  0  0  0  0
 13 31  1  0  0  0  0
 13 32  1  0  0  0  0
 14 15  1  0  0  0  0
 14 33  1  0  0  0  0
 15 34  1  0  0  0  0
 15 35  1  0  0  0  0
 15 36  1  0  0  0  0
 16 17  1  0  0  0  0
M  END
> <s_m_source_file>
AV-unprocessed.smi

> <i_m_source_file_index>
2945

> <i_lp_mmshare_version>
43012

> <i_f3d_flags>
0

> <s_epik_input>
W0NIM11jMVtjSF1jKG5vMSlbTkhdQyg9TylbTkhdW0NAQEhdMltDSDJdW0NIMl1bQ0gyXVtDSDJdW0NASF0yW0NIM10=

> <s_epik_cmdline>
J2VwaWtfcHl0aG9uJywgJy1waCcsICc3LjAnLCAnLXRuJywgJzgnLCAnLW1hJywgJzIwMCcsICctbWV0YWxfYmluZGluZycsICctaW1hZScsICc8aW5maWxlLm1hZT4nLCAnLW9tYWUnLCAnPG91dGZpbGUubWFlPic=

> <r_lp_tautomer_probability>
1

> <r_epik_Ionization_Penalty>
2.357e-05

> <r_epik_Ionization_Penalty_Charging>
0

> <r_epik_Ionization_Penalty_Neutral>
2.357e-05

> <r_epik_State_Penalty>
-0

> <r_epik_Charging_Adjusted_Penalty>
0

> <i_epik_Tot_Q>
0

> <i_epik_Tot_abs_Q>
0

> <r_epik_Metal_State_Penalty>
-0

> <b_epik_Metal_Only>
0

> <s_lp_Force_Field>
OPLS_2005

> <r_lp_Energy>
7.46694

> <b_lp_Chiralities_Consistent>
1

> <s_lp_Variant>
AV-unprocessed.smi:2945-3

> <Gold.Version>
5.8.1

> <Gold.Id.Protein>
6NUR|6NUR_protein|mol2

> <Gold.PLP.Fitness>
31.8391

> <Gold.PLP.PLP>
-29.1733

> <Gold.PLP.part.hbond>
-2.3961

> <Gold.PLP.part.metal>
0.0000

> <Gold.PLP.part.buried>
-5.4077

> <Gold.PLP.part.nonpolar>
-21.9013

> <Gold.PLP.part.repulsive>
0.1385

> <Gold.PLP.ligand.clash>
0.0000

> <Gold.PLP.ligand.torsion>
0.7484

> <Gold.PLP.Chemscore.Hbond>
1.3853

> <Gold.PLP.Chemscore.CHOScore>
0.0000

> <Gold.PLP.Chemscore.Metal>
0.0000

> <Gold.Chemscore.Hbonds>
donor molecule, donor type, donor heavy atom, donor atom, acceptor molecule, acceptor atom, score
      L1  H     5    22       P1 10957  1.00
      L1  H     8    23       P1 10957  0.20

> <Gold.PLP.Chemscore.Internal.Correction>
0.0067

> <Gold.Rescore>
     Score         DG    S(hbond)    S(metal)    S(lipo)     H(rot)  DE(clash)    DE(int)     intcor
     14.45     -15.11       1.35        0.00      65.63       1.00       0.00       0.66       ----

> <Gold.Chemscore.Fitness>
14.4462

> <Gold.Chemscore.DG>
-15.1096

> <Gold.Chemscore.ZeroCoef>
-5.4800

> <Gold.Chemscore.Hbond>
1.3507

> <Gold.Chemscore.Metal>
0.0000

> <Gold.Chemscore.Lipo>
65.6273

> <Gold.Chemscore.Internal_Hbond>
0.0000

> <Gold.Chemscore.DEClash>
0.0000

> <Gold.Chemscore.DEInternal>
0.6634

> <Gold.Chemscore.Rot>
1.0000

> <Gold.Chemscore.Internal.Correction>
   9.000000E+99

> <Gold.Chemscore.Hbonds>
donor molecule, donor type, donor heavy atom, donor atom, acceptor molecule, acceptor atom, score
      L1  H     5    22       P1 10957  0.97
      L1  H     8    23       P1 10957  0.04

> <Gold.Chemscore.Hbond.Weighted>
-4.5112

> <Gold.Chemscore.Metal.Weighted>
-0.0000

> <Gold.Chemscore.Lipo.Weighted>
-7.6784

> <Gold.Chemscore.Internal_Hbond.Weighted>
0.0000

> <Gold.Chemscore.DEClash.Weighted>
0.0000

> <Gold.Chemscore.DEInternal.Weighted>
0.6634

> <Gold.Chemscore.Rot.Weighted>
2.5600

> <Gold.Chemscore.Internal.Correction.Weighted>
   9.000000E+99

> <Gold.Protein.RotatedTorsions>
[ 6907 6896 6895 6894 ] final  -86.36 input  -60.11 | X-H torsion
[ 7974 7965 7964 7962 ] final  -94.43 input  175.53 | X-H torsion
[ 8008 7997 7996 7995 ] final -128.55 input   59.86 | X-H torsion
[ 10167 10162 10161 10158 ] final  155.33 input  -65.29 | X-H torsion
[ 10718 10713 10712 10709 ] final    0.73 input   66.30 | X-H torsion
[ 10763 10752 10751 10750 ] final  103.19 input  -60.55 | X-H torsion
[ 11005 11000 10999 10996 ] final   27.37 input  -57.11 | X-H torsion

> <Gold.Protein.ActiveResidues>
 VAL166  LYS551  ARG553  GLY616  TRP617  ASP618  TYR619  PRO620  LYS621  CYS622 
 ASP623  PHE694  ASN695  SER759  ASP760  ASP761  ALA762  ILE779  LEU786  VAL792 
 PHE793  MET794  SER795  GLU796  ALA797  LYS798  CYS799  TRP800  GLU811  SER814 

> <Gold.Protein.RotatedAtoms>
  150.6867  134.3062  159.4726 H   0  0  0  0  0  0  0  0  0  0  0  0  # atno 6907 bound_to 6896
  152.0953  134.9377  160.0580 H   0  0  0  0  0  0  0  0  0  0  0  0  # atno 6908 bound_to 6896
  152.0677  133.4057  159.4482 H   0  0  0  0  0  0  0  0  0  0  0  0  # atno 6909 bound_to 6896
  145.3734  140.9508  143.2434 H   0  0  0  0  0  0  0  0  0  0  0  0  # atno 7974 bound_to 7965
  155.2645  140.0437  157.3001 H   0  0  0  0  0  0  0  0  0  0  0  0  # atno 8008 bound_to 7997
  154.5691  140.2368  155.8188 H   0  0  0  0  0  0  0  0  0  0  0  0  # atno 8009 bound_to 7997
  156.2108  140.2999  155.9736 H   0  0  0  0  0  0  0  0  0  0  0  0  # atno 8010 bound_to 7997
  139.4821  144.5108  151.8028 H   0  0  0  0  0  0  0  0  0  0  0  0  # atno 10167 bound_to 10162
  156.8377  130.5510  149.5680 H   0  0  0  0  0  0  0  0  0  0  0  0  # atno 10718 bound_to 10713
  153.3494  135.3985  155.1634 H   0  0  0  0  0  0  0  0  0  0  0  0  # atno 10763 bound_to 10752
  154.8659  135.3653  154.5241 H   0  0  0  0  0  0  0  0  0  0  0  0  # atno 10764 bound_to 10752
  153.5692  135.7079  153.5572 H   0  0  0  0  0  0  0  0  0  0  0  0  # atno 10765 bound_to 10752
  140.3270  134.2480  155.7708 H   0  0  0  0  0  0  0  0  0  0  0  0  # atno 11005 bound_to 11000
  144.8560  139.5249  143.6834 LP  0  0  0  0  0  0  0  0  0  0  0  0  # atno 17320 bound_to 7965
  146.2875  139.7045  142.9185 LP  0  0  0  0  0  0  0  0  0  0  0  0  # atno 17321 bound_to 7965
  140.4611  144.1721  150.5906 LP  0  0  0  0  0  0  0  0  0  0  0  0  # atno 17342 bound_to 10162
  140.4484  143.2497  151.9381 LP  0  0  0  0  0  0  0  0  0  0  0  0  # atno 17343 bound_to 10162
  156.0898  130.5887  150.9713 LP  0  0  0  0  0  0  0  0  0  0  0  0  # atno 17370 bound_to 10713
  157.6373  131.0914  150.8323 LP  0  0  0  0  0  0  0  0  0  0  0  0  # atno 17371 bound_to 10713
  141.2073  133.7810  157.0128 LP  0  0  0  0  0  0  0  0  0  0  0  0  # atno 17394 bound_to 11000
  140.0893  134.9602  157.1750 LP  0  0  0  0  0  0  0  0  0  0  0  0  # atno 17395 bound_to 11000

$$$$
