AV-unprocessed.smi:308|AV-procd|sdf|2289|dock4
  -GOLD-   2262022193D 1   1.00000     0.00000
 Structure written by MMmdl.
 50 51  0  0  0  0  0  0  0  0  4 V2000
  145.6619  132.4863  152.7121 C   0  0  0  0  0  0  0  0  0  0  0  0
  146.7996  132.9288  153.6432 C   0  0  2  0  0  0  0  0  0  0  0  0
  146.6223  134.3854  154.1049 C   0  0  0  0  0  0  0  0  0  0  0  0
  147.7832  134.8289  155.0101 C   0  0  0  0  0  0  0  0  0  0  0  0
  149.0913  134.6580  154.3216 N   0  3  1  0  0  0  0  0  0  0  0  0
  150.2434  135.2239  155.0740 C   0  0  0  0  0  0  0  0  0  0  0  0
  149.9305  136.6244  155.6428 C   0  0  0  0  0  0  0  0  0  0  0  0
  150.1831  137.6577  154.6341 N   0  5  0  0  0  0  0  0  0  0  0  0
  150.3187  138.9858  154.8954 C   0  0  0  0  0  0  0  0  0  0  0  0
  150.1944  139.9244  154.1012 O   0  0  0  0  0  0  0  0  0  0  0  0
  150.6329  139.2161  156.1828 N   0  0  0  0  0  0  0  0  0  0  0  0
  150.8648  140.4500  156.8492 C   0  0  0  0  0  0  0  0  0  0  0  0
  151.5703  140.4114  158.0691 C   0  0  0  0  0  0  0  0  0  0  0  0
  151.8118  141.6050  158.7789 C   0  0  0  0  0  0  0  0  0  0  0  0
  151.3356  142.8372  158.2677 C   0  0  0  0  0  0  0  0  0  0  0  0
  151.5373  144.0734  158.9190 N   0  0  0  0  0  0  0  0  0  0  0  0
  151.0038  145.2963  158.3299 C   0  0  0  0  0  0  0  0  0  0  0  0
  152.3853  144.1377  160.1021 C   0  0  0  0  0  0  0  0  0  0  0  0
  150.6486  142.8219  157.0991 N   0  3  0  0  0  0  0  0  0  0  0  0
  150.3962  141.7024  156.3870 C   0  0  0  0  0  0  0  0  0  0  0  0
  149.3084  133.2507  153.8994 C   0  0  0  0  0  0  0  0  0  0  0  0
  148.1765  132.7706  152.9753 C   0  0  0  0  0  0  0  0  0  0  0  0
  145.6363  133.0867  151.8021 H   0  0  0  0  0  0  0  0  0  0  0  0
  144.6927  132.5841  153.2025 H   0  0  0  0  0  0  0  0  0  0  0  0
  145.7783  131.4426  152.4189 H   0  0  0  0  0  0  0  0  0  0  0  0
  146.7739  132.2878  154.5258 H   0  0  0  0  0  0  0  0  0  0  0  0
  146.5656  135.0459  153.2383 H   0  0  0  0  0  0  0  0  0  0  0  0
  145.6782  134.4960  154.6396 H   0  0  0  0  0  0  0  0  0  0  0  0
  147.6411  135.8735  155.2886 H   0  0  0  0  0  0  0  0  0  0  0  0
  147.7795  134.2518  155.9361 H   0  0  0  0  0  0  0  0  0  0  0  0
  150.5372  134.5461  155.8767 H   0  0  0  0  0  0  0  0  0  0  0  0
  151.1174  135.3030  154.4255 H   0  0  0  0  0  0  0  0  0  0  0  0
  148.8898  136.6447  155.9662 H   0  0  0  0  0  0  0  0  0  0  0  0
  150.5167  136.7812  156.5487 H   0  0  0  0  0  0  0  0  0  0  0  0
  150.7935  138.3880  156.7375 H   0  0  0  0  0  0  0  0  0  0  0  0
  151.9322  139.4716  158.4604 H   0  0  0  0  0  0  0  0  0  0  0  0
  152.3600  141.5529  159.7073 H   0  0  0  0  0  0  0  0  0  0  0  0
  149.9197  145.2338  158.2312 H   0  0  0  0  0  0  0  0  0  0  0  0
  151.4338  145.4641  157.3422 H   0  0  0  0  0  0  0  0  0  0  0  0
  151.2316  146.1658  158.9466 H   0  0  0  0  0  0  0  0  0  0  0  0
  153.3980  143.8087  159.8662 H   0  0  0  0  0  0  0  0  0  0  0  0
  151.9871  143.5028  160.8941 H   0  0  0  0  0  0  0  0  0  0  0  0
  152.4458  145.1537  160.4921 H   0  0  0  0  0  0  0  0  0  0  0  0
  149.8204  141.8581  155.4870 H   0  0  0  0  0  0  0  0  0  0  0  0
  150.2583  133.1702  153.3687 H   0  0  0  0  0  0  0  0  0  0  0  0
  149.3786  132.6108  154.7804 H   0  0  0  0  0  0  0  0  0  0  0  0
  148.3434  131.7277  152.7037 H   0  0  0  0  0  0  0  0  0  0  0  0
  148.2042  133.3399  152.0449 H   0  0  0  0  0  0  0  0  0  0  0  0
  149.0493  135.1989  153.4686 H   0  0  0  0  0  0  0  0  0  0  0  0
  150.2981  143.7078  156.7352 H   0  0  0  0  0  0  0  0  0  0  0  0
  1  2  1  0  0  0  0
  1 23  1  0  0  0  0
  1 24  1  0  0  0  0
  1 25  1  0  0  0  0
  2 22  1  0  0  0  0
  2  3  1  0  0  0  0
  2 26  1  0  0  0  0
  3  4  1  0  0  0  0
  3 27  1  0  0  0  0
  3 28  1  0  0  0  0
  4  5  1  0  0  0  0
  4 29  1  0  0  0  0
  4 30  1  0  0  0  0
  5  6  1  0  0  0  0
  5 21  1  0  0  0  0
  5 49  1  0  0  0  0
  6  7  1  0  0  0  0
  6 31  1  0  0  0  0
  6 32  1  0  0  0  0
  7  8  1  0  0  0  0
  7 33  1  0  0  0  0
  7 34  1  0  0  0  0
  8  9  1  0  0  0  0
  9 10  2  0  0  0  0
  9 11  1  0  0  0  0
 11 12  1  0  0  0  0
 11 35  1  0  0  0  0
 12 20  1  0  0  0  0
 12 13  2  0  0  0  0
 13 14  1  0  0  0  0
 13 36  1  0  0  0  0
 14 15  2  0  0  0  0
 14 37  1  0  0  0  0
 15 16  1  0  0  0  0
 15 19  1  0  0  0  0
 16 17  1  0  0  0  0
 16 18  1  0  0  0  0
 17 38  1  0  0  0  0
 17 39  1  0  0  0  0
 17 40  1  0  0  0  0
 18 41  1  0  0  0  0
 18 42  1  0  0  0  0
 18 43  1  0  0  0  0
 19 20  2  0  0  0  0
 19 50  1  0  0  0  0
 20 44  1  0  0  0  0
 21 22  1  0  0  0  0
 21 45  1  0  0  0  0
 21 46  1  0  0  0  0
 22 47  1  0  0  0  0
 22 48  1  0  0  0  0
M  CHG  1   5   1
M  CHG  1   8  -1
M  CHG  1  19   1
M  END
> <s_m_source_file>
AV-unprocessed.smi

> <i_m_source_file_index>
308

> <i_lp_mmshare_version>
43012

> <i_f3d_flags>
0

> <s_epik_input>
W0NIM11bQ0hdMVtDSDJdW0NIMl1OKFtDSDJdW0NIMl0xKVtDSDJdW0NIMl1bTkhdQyg9TylbTkhdYzJbY0hdW2NIXWMoTihbQ0gzXSlbQ0gzXSluW2NIXTI=

> <s_epik_cmdline>
J2VwaWtfcHl0aG9uJywgJy1waCcsICc3LjAnLCAnLXRuJywgJzgnLCAnLW1hJywgJzIwMCcsICctbWV0YWxfYmluZGluZycsICctaW1hZScsICc8aW5maWxlLm1hZT4nLCAnLW9tYWUnLCAnPG91dGZpbGUubWFlPic=

> <r_lp_tautomer_probability>
0.999994

> <r_epik_Ionization_Penalty>
7.42107

> <r_epik_Ionization_Penalty_Charging>
7.42107

> <r_epik_Ionization_Penalty_Neutral>
3.68925e-06

> <r_epik_State_Penalty>
7.0982

> <r_epik_Charging_Adjusted_Penalty>
14.5193

> <i_epik_Tot_Q>
1

> <i_epik_Tot_abs_Q>
3

> <r_epik_Metal_State_Penalty>
3.28646

> <b_epik_Metal_Only>
1

> <s_lp_Force_Field>
OPLS_2005

> <r_lp_Energy>
19.707

> <b_lp_Chiralities_Consistent>
1

> <s_lp_Variant>
AV-unprocessed.smi:308-5

> <Gold.Version>
5.8.1

> <Gold.Id.Protein>
6NUR|6NUR_protein|mol2

> <Gold.PLP.Fitness>
52.4951

> <Gold.PLP.PLP>
-38.8309

> <Gold.PLP.part.hbond>
-3.0000

> <Gold.PLP.part.metal>
0.0000

> <Gold.PLP.part.buried>
-6.9461

> <Gold.PLP.part.nonpolar>
-30.1499

> <Gold.PLP.part.repulsive>
1.3967

> <Gold.PLP.ligand.clash>
0.4016

> <Gold.PLP.ligand.torsion>
0.5046

> <Gold.PLP.Chemscore.Hbond>
4.9825

> <Gold.PLP.Chemscore.CHOScore>
0.0000

> <Gold.PLP.Chemscore.Metal>
0.0000

> <Gold.Chemscore.Hbonds>
donor molecule, donor type, donor heavy atom, donor atom, acceptor molecule, acceptor atom, score
      L1  H     5    49       P1  7948  2.00
      L1  H    19    50       P1  8028  1.98
      P1  H  7989  7998       L1    10  1.00

> <Gold.PLP.Chemscore.Internal.Correction>
0.1275

> <Gold.Rescore>
     Score         DG    S(hbond)    S(metal)    S(lipo)     H(rot)  DE(clash)    DE(int)     intcor
     18.49     -20.38       2.66        0.00      82.58       1.42       0.19       1.70       ----

> <Gold.Chemscore.Fitness>
18.4947

> <Gold.Chemscore.DG>
-20.3807

> <Gold.Chemscore.ZeroCoef>
-5.4800

> <Gold.Chemscore.Hbond>
2.6602

> <Gold.Chemscore.Metal>
0.0000

> <Gold.Chemscore.Lipo>
82.5761

> <Gold.Chemscore.Internal_Hbond>
0.0000

> <Gold.Chemscore.DEClash>
0.1889

> <Gold.Chemscore.DEInternal>
1.6971

> <Gold.Chemscore.Rot>
1.4241

> <Gold.Chemscore.Internal.Correction>
   9.000000E+99

> <Gold.Chemscore.Hbonds>
donor molecule, donor type, donor heavy atom, donor atom, acceptor molecule, acceptor atom, score
      L1  H     5    49       P1  7948  0.40
      L1  H    19    50       P1  8028  0.88
      P1  H  7989  7998       L1    10  0.96

> <Gold.Chemscore.Hbond.Weighted>
-8.8850

> <Gold.Chemscore.Metal.Weighted>
-0.0000

> <Gold.Chemscore.Lipo.Weighted>
-9.6614

> <Gold.Chemscore.Internal_Hbond.Weighted>
0.0000

> <Gold.Chemscore.DEClash.Weighted>
0.1889

> <Gold.Chemscore.DEInternal.Weighted>
1.6971

> <Gold.Chemscore.Rot.Weighted>
3.6456

> <Gold.Chemscore.Internal.Correction.Weighted>
   9.000000E+99

> <Gold.Protein.RotatedTorsions>
[ 6907 6896 6895 6894 ] final -111.31 input  -60.11 | X-H torsion
[ 7974 7965 7964 7962 ] final   85.55 input  175.53 | X-H torsion
[ 8008 7997 7996 7995 ] final -148.39 input   59.86 | X-H torsion
[ 10167 10162 10161 10158 ] final -115.00 input  -65.29 | X-H torsion
[ 10718 10713 10712 10709 ] final -147.29 input   66.30 | X-H torsion
[ 10763 10752 10751 10750 ] final  -35.06 input  -60.55 | X-H torsion
[ 11005 11000 10999 10996 ] final   30.81 input  -57.11 | X-H torsion

> <Gold.Protein.ActiveResidues>
 VAL166  LYS551  ARG553  GLY616  TRP617  ASP618  TYR619  PRO620  LYS621  CYS622 
 ASP623  PHE694  ASN695  SER759  ASP760  ASP761  ALA762  ILE779  LEU786  VAL792 
 PHE793  MET794  SER795  GLU796  ALA797  LYS798  CYS799  TRP800  GLU811  SER814 

> <Gold.Protein.RotatedAtoms>
  150.7681  133.9255  159.3410 H   0  0  0  0  0  0  0  0  0  0  0  0  # atno 6907 bound_to 6896
  151.7147  135.0904  160.0283 H   0  0  0  0  0  0  0  0  0  0  0  0  # atno 6908 bound_to 6896
  152.3687  133.6353  159.6106 H   0  0  0  0  0  0  0  0  0  0  0  0  # atno 6909 bound_to 6896
  145.5840  139.2329  143.2337 H   0  0  0  0  0  0  0  0  0  0  0  0  # atno 7974 bound_to 7965
  155.5908  140.0652  157.2759 H   0  0  0  0  0  0  0  0  0  0  0  0  # atno 8008 bound_to 7997
  154.4306  140.1835  156.1119 H   0  0  0  0  0  0  0  0  0  0  0  0  # atno 8009 bound_to 7997
  156.0234  140.3314  155.7066 H   0  0  0  0  0  0  0  0  0  0  0  0  # atno 8010 bound_to 7997
  140.0948  143.4666  152.1848 H   0  0  0  0  0  0  0  0  0  0  0  0  # atno 10167 bound_to 10162
  156.4056  130.7956  151.2170 H   0  0  0  0  0  0  0  0  0  0  0  0  # atno 10718 bound_to 10713
  153.8570  135.6843  153.4786 H   0  0  0  0  0  0  0  0  0  0  0  0  # atno 10763 bound_to 10752
  153.1364  135.4676  154.9426 H   0  0  0  0  0  0  0  0  0  0  0  0  # atno 10764 bound_to 10752
  154.7776  135.3258  154.8007 H   0  0  0  0  0  0  0  0  0  0  0  0  # atno 10765 bound_to 10752
  140.2905  134.2870  155.7777 H   0  0  0  0  0  0  0  0  0  0  0  0  # atno 11005 bound_to 11000
  146.1695  140.6667  142.9239 LP  0  0  0  0  0  0  0  0  0  0  0  0  # atno 17320 bound_to 7965
  144.7381  140.4865  143.6889 LP  0  0  0  0  0  0  0  0  0  0  0  0  # atno 17321 bound_to 7965
  139.5704  144.7459  151.3906 LP  0  0  0  0  0  0  0  0  0  0  0  0  # atno 17342 bound_to 10162
  140.7009  143.7633  150.7402 LP  0  0  0  0  0  0  0  0  0  0  0  0  # atno 17343 bound_to 10162
  157.7505  131.0273  150.4000 LP  0  0  0  0  0  0  0  0  0  0  0  0  # atno 17370 bound_to 10713
  156.4288  130.3968  149.6774 LP  0  0  0  0  0  0  0  0  0  0  0  0  # atno 17371 bound_to 10713
  141.2147  133.7582  156.9617 LP  0  0  0  0  0  0  0  0  0  0  0  0  # atno 17394 bound_to 11000
  140.1200  134.9423  157.2189 LP  0  0  0  0  0  0  0  0  0  0  0  0  # atno 17395 bound_to 11000

$$$$
