AV-unprocessed.smi:1224|AV-procd|sdf|5128|dock7
  -GOLD-   22720 4183D 1   1.00000     0.00000
 Structure written by MMmdl.
 44 46  0  0  0  0  0  0  0  0  2 V2000
  153.0338  143.0130  161.5930 C   0  0  0  0  0  0  0  0  0  0  0  0
  152.4932  142.5463  160.2530 C   0  0  0  0  0  0  0  0  0  0  0  0
  152.9470  141.3191  159.7189 C   0  0  0  0  0  0  0  0  0  0  0  0
  152.4641  140.8463  158.4792 C   0  0  0  0  0  0  0  0  0  0  0  0
  152.7627  139.6899  157.7793 N   0  0  0  0  0  0  0  0  0  0  0  0
  151.9893  139.8185  156.7053 C   0  0  0  0  0  0  0  0  0  0  0  0
  151.2179  140.9204  156.6301 N   0  0  0  0  0  0  0  0  0  0  0  0
  150.2892  141.2714  155.5706 C   0  0  0  0  0  0  0  0  0  0  0  0
  150.3221  140.2626  154.4062 C   0  0  2  0  0  0  0  0  0  0  0  0
  150.0060  140.9308  153.1994 O   0  0  0  0  0  0  0  0  0  0  0  0
  149.3195  139.1156  154.6074 C   0  0  0  0  0  0  0  0  0  0  0  0
  148.6349  138.7799  153.3406 N   0  3  0  0  0  0  0  0  0  0  0  0
  147.1610  138.8687  153.3835 C   0  0  0  0  0  0  0  0  0  0  0  0
  146.6873  140.1430  154.0041 C   0  0  0  0  0  0  0  0  0  0  0  0
  145.9246  140.2952  155.1345 C   0  0  0  0  0  0  0  0  0  0  0  0
  145.6677  141.6600  155.4574 C   0  0  0  0  0  0  0  0  0  0  0  0
  146.2381  142.5321  154.5687 C   0  0  0  0  0  0  0  0  0  0  0  0
  147.1033  141.6913  153.3122 S   0  0  0  0  0  0  0  0  0  0  0  0
  151.5059  141.6405  157.7841 C   0  0  0  0  0  0  0  0  0  0  0  0
  151.0507  142.8658  158.3021 C   0  0  0  0  0  0  0  0  0  0  0  0
  151.5440  143.3236  159.5416 C   0  0  0  0  0  0  0  0  0  0  0  0
  151.0449  144.6470  160.0943 C   0  0  0  0  0  0  0  0  0  0  0  0
  153.7853  142.3247  161.9806 H   0  0  0  0  0  0  0  0  0  0  0  0
  152.2293  143.0781  162.3259 H   0  0  0  0  0  0  0  0  0  0  0  0
  153.4977  143.9951  161.4995 H   0  0  0  0  0  0  0  0  0  0  0  0
  153.6706  140.7275  160.2602 H   0  0  0  0  0  0  0  0  0  0  0  0
  151.9759  139.0637  155.9325 H   0  0  0  0  0  0  0  0  0  0  0  0
  149.2878  141.3218  156.0002 H   0  0  0  0  0  0  0  0  0  0  0  0
  150.5275  142.2749  155.2143 H   0  0  0  0  0  0  0  0  0  0  0  0
  151.3294  139.8530  154.3170 H   0  0  0  0  0  0  0  0  0  0  0  0
  150.1274  140.3276  152.4811 H   0  0  0  0  0  0  0  0  0  0  0  0
  149.8401  138.2252  154.9626 H   0  0  0  0  0  0  0  0  0  0  0  0
  148.5925  139.3866  155.3743 H   0  0  0  0  0  0  0  0  0  0  0  0
  148.9712  139.4062  152.6227 H   0  0  0  0  0  0  0  0  0  0  0  0
  146.7863  138.8030  152.3618 H   0  0  0  0  0  0  0  0  0  0  0  0
  146.7582  138.0074  153.9182 H   0  0  0  0  0  0  0  0  0  0  0  0
  145.5470  139.4826  155.7376 H   0  0  0  0  0  0  0  0  0  0  0  0
  145.0826  141.9502  156.3176 H   0  0  0  0  0  0  0  0  0  0  0  0
  146.2027  143.6120  154.5749 H   0  0  0  0  0  0  0  0  0  0  0  0
  150.3271  143.4475  157.7509 H   0  0  0  0  0  0  0  0  0  0  0  0
  150.3104  145.1042  159.4307 H   0  0  0  0  0  0  0  0  0  0  0  0
  151.8718  145.3478  160.2108 H   0  0  0  0  0  0  0  0  0  0  0  0
  150.5733  144.5023  161.0665 H   0  0  0  0  0  0  0  0  0  0  0  0
  148.8901  137.8360  153.0877 H   0  0  0  0  0  0  0  0  0  0  0  0
  1  2  1  0  0  0  0
  1 23  1  0  0  0  0
  1 24  1  0  0  0  0
  1 25  1  0  0  0  0
  2 21  1  0  0  0  0
  2  3  2  0  0  0  0
  3  4  1  0  0  0  0
  3 26  1  0  0  0  0
  4 19  2  0  0  0  0
  4  5  1  0  0  0  0
  5  6  2  0  0  0  0
  6  7  1  0  0  0  0
  6 27  1  0  0  0  0
  7  8  1  0  0  0  0
  7 19  1  0  0  0  0
  8  9  1  0  0  0  0
  8 28  1  0  0  0  0
  8 29  1  0  0  0  0
  9 10  1  0  0  0  0
  9 11  1  0  0  0  0
  9 30  1  0  0  0  0
 10 31  1  0  0  0  0
 11 12  1  0  0  0  0
 11 32  1  0  0  0  0
 11 33  1  0  0  0  0
 12 13  1  0  0  0  0
 12 34  1  0  0  0  0
 12 44  1  0  0  0  0
 13 14  1  0  0  0  0
 13 35  1  0  0  0  0
 13 36  1  0  0  0  0
 14 18  1  0  0  0  0
 14 15  2  0  0  0  0
 15 16  1  0  0  0  0
 15 37  1  0  0  0  0
 16 17  2  0  0  0  0
 16 38  1  0  0  0  0
 17 18  1  0  0  0  0
 17 39  1  0  0  0  0
 19 20  1  0  0  0  0
 20 21  2  0  0  0  0
 20 40  1  0  0  0  0
 21 22  1  0  0  0  0
 22 41  1  0  0  0  0
 22 42  1  0  0  0  0
 22 43  1  0  0  0  0
M  CHG  1  12   1
M  END
> <s_m_source_file>
AV-unprocessed.smi

> <i_m_source_file_index>
1224

> <i_lp_mmshare_version>
43012

> <i_f3d_flags>
0

> <s_epik_input>
W0NIM11jKFtjSF0xKWMoW0NIM10pW2NIXWMoYzEyKW4oW2NIXW4yKVtDSDJdW0NASF0oW09IXSlbQ0gyXVtOSF1bQ0gyXWMzW2NIXVtjSF1bY0hdczM=

> <s_epik_cmdline>
J2VwaWtfcHl0aG9uJywgJy1waCcsICc3LjAnLCAnLXRuJywgJzgnLCAnLW1hJywgJzIwMCcsICctbWV0YWxfYmluZGluZycsICctaW1hZScsICc8aW5maWxlLm1hZT4nLCAnLW9tYWUnLCAnPG91dGZpbGUubWFlPic=

> <r_epik_Ionization_Penalty>
0.145091

> <r_epik_Ionization_Penalty_Charging>
0.0551904

> <r_epik_Ionization_Penalty_Neutral>
0.0899003

> <r_epik_State_Penalty>
0.131364

> <r_epik_Charging_Adjusted_Penalty>
0.186554

> <i_epik_Tot_Q>
1

> <i_epik_Tot_abs_Q>
1

> <r_epik_Metal_State_Penalty>
0.0472291

> <b_epik_Metal_Only>
0

> <s_lp_Force_Field>
OPLS_2005

> <r_lp_Energy>
7.24279

> <b_lp_Chiralities_Consistent>
1

> <s_lp_Variant>
AV-unprocessed.smi:1224-1

> <Gold.Version>
5.8.1

> <Gold.Id.Protein>
6NUR|6NUR_protein|mol2

> <Gold.PLP.Fitness>
58.4254

> <Gold.PLP.PLP>
-44.2717

> <Gold.PLP.part.hbond>
-4.6136

> <Gold.PLP.part.metal>
0.0000

> <Gold.PLP.part.buried>
-2.9943

> <Gold.PLP.part.nonpolar>
-35.8684

> <Gold.PLP.part.repulsive>
0.0437

> <Gold.PLP.ligand.clash>
0.0000

> <Gold.PLP.ligand.torsion>
1.3934

> <Gold.PLP.Chemscore.Hbond>
5.6114

> <Gold.PLP.Chemscore.CHOScore>
0.0000

> <Gold.PLP.Chemscore.Metal>
0.0000

> <Gold.Chemscore.Hbonds>
donor molecule, donor type, donor heavy atom, donor atom, acceptor molecule, acceptor atom, score
      L1  H    10    31       P1  7957  0.62
      L1  H    12    34       P1  7957  1.00
      L1  H    12    44       P1  7948  2.00
      P1  H  7997  8009       L1     5  1.00
      P1  H  8011  8017       L1    10  1.00

> <Gold.PLP.Chemscore.Internal.Correction>
0.1061

> <Gold.Rescore>
     Score         DG    S(hbond)    S(metal)    S(lipo)     H(rot)  DE(clash)    DE(int)     intcor
     21.66     -24.71       3.33        0.00     122.44       2.42       1.67       1.37       ----

> <Gold.Chemscore.Fitness>
21.6603

> <Gold.Chemscore.DG>
-24.7081

> <Gold.Chemscore.ZeroCoef>
-5.4800

> <Gold.Chemscore.Hbond>
3.3259

> <Gold.Chemscore.Metal>
0.0000

> <Gold.Chemscore.Lipo>
122.4357

> <Gold.Chemscore.Internal_Hbond>
0.0000

> <Gold.Chemscore.DEClash>
1.6739

> <Gold.Chemscore.DEInternal>
1.3739

> <Gold.Chemscore.Rot>
2.4240

> <Gold.Chemscore.Internal.Correction>
   9.000000E+99

> <Gold.Chemscore.Hbonds>
donor molecule, donor type, donor heavy atom, donor atom, acceptor molecule, acceptor atom, score
      L1  H    10    31       P1  7957  0.61
      L1  H    12    34       P1  7957  1.00
      L1  H    12    44       P1  7948  0.94
      P1  H  7997  8009       L1     5  0.16
      P1  H  8011  8017       L1    10  0.25

> <Gold.Chemscore.Hbond.Weighted>
-11.1086

> <Gold.Chemscore.Metal.Weighted>
-0.0000

> <Gold.Chemscore.Lipo.Weighted>
-14.3250

> <Gold.Chemscore.Internal_Hbond.Weighted>
0.0000

> <Gold.Chemscore.DEClash.Weighted>
1.6739

> <Gold.Chemscore.DEInternal.Weighted>
1.3739

> <Gold.Chemscore.Rot.Weighted>
6.2055

> <Gold.Chemscore.Internal.Correction.Weighted>
   9.000000E+99

> <Gold.Protein.RotatedTorsions>
[ 6907 6896 6895 6894 ] final   44.30 input  -60.11 | X-H torsion
[ 7974 7965 7964 7962 ] final  -70.59 input  175.53 | X-H torsion
[ 8008 7997 7996 7995 ] final  152.19 input   59.86 | X-H torsion
[ 10167 10162 10161 10158 ] final  118.57 input  -65.29 | X-H torsion
[ 10718 10713 10712 10709 ] final  -70.26 input   66.30 | X-H torsion
[ 10763 10752 10751 10750 ] final  -15.25 input  -60.55 | X-H torsion
[ 11005 11000 10999 10996 ] final   81.53 input  -57.11 | X-H torsion

> <Gold.Protein.ActiveResidues>
 VAL166  LYS551  ARG553  GLY616  TRP617  ASP618  TYR619  PRO620  LYS621  CYS622 
 ASP623  PHE694  ASN695  SER759  ASP760  ASP761  ALA762  ILE779  LEU786  VAL792 
 PHE793  MET794  SER795  GLU796  ALA797  LYS798  CYS799  TRP800  GLU811  SER814 

> <Gold.Protein.RotatedAtoms>
  152.2308  134.8324  160.0473 H   0  0  0  0  0  0  0  0  0  0  0  0  # atno 6907 bound_to 6896
  151.9073  133.3547  159.3859 H   0  0  0  0  0  0  0  0  0  0  0  0  # atno 6908 bound_to 6896
  150.7025  134.4693  159.5462 H   0  0  0  0  0  0  0  0  0  0  0  0  # atno 6909 bound_to 6896
  145.6890  140.9160  143.0792 H   0  0  0  0  0  0  0  0  0  0  0  0  # atno 7974 bound_to 7965
  156.2640  140.2027  156.6295 H   0  0  0  0  0  0  0  0  0  0  0  0  # atno 8008 bound_to 7997
  154.6694  140.0552  157.0173 H   0  0  0  0  0  0  0  0  0  0  0  0  # atno 8009 bound_to 7997
  155.1159  140.3220  155.4512 H   0  0  0  0  0  0  0  0  0  0  0  0  # atno 8010 bound_to 7997
  139.6103  144.7080  151.2859 H   0  0  0  0  0  0  0  0  0  0  0  0  # atno 10167 bound_to 10162
  156.0416  130.4328  150.2269 H   0  0  0  0  0  0  0  0  0  0  0  0  # atno 10718 bound_to 10713
  153.5405  135.7013  153.5639 H   0  0  0  0  0  0  0  0  0  0  0  0  # atno 10763 bound_to 10752
  153.3607  135.3970  155.1716 H   0  0  0  0  0  0  0  0  0  0  0  0  # atno 10764 bound_to 10752
  154.8674  135.3788  154.4909 H   0  0  0  0  0  0  0  0  0  0  0  0  # atno 10765 bound_to 10752
  139.9095  134.8004  156.2054 H   0  0  0  0  0  0  0  0  0  0  0  0  # atno 11005 bound_to 11000
  144.7002  139.8796  143.7446 LP  0  0  0  0  0  0  0  0  0  0  0  0  # atno 17320 bound_to 7965
  146.0898  139.3888  143.0412 LP  0  0  0  0  0  0  0  0  0  0  0  0  # atno 17321 bound_to 7965
  140.7314  143.6852  150.7967 LP  0  0  0  0  0  0  0  0  0  0  0  0  # atno 17342 bound_to 10162
  140.0445  143.5312  152.2702 LP  0  0  0  0  0  0  0  0  0  0  0  0  # atno 17343 bound_to 10162
  157.0364  131.0022  151.3297 LP  0  0  0  0  0  0  0  0  0  0  0  0  # atno 17370 bound_to 10713
  157.5241  130.8016  149.7842 LP  0  0  0  0  0  0  0  0  0  0  0  0  # atno 17371 bound_to 10713
  141.0498  133.6894  156.1751 LP  0  0  0  0  0  0  0  0  0  0  0  0  # atno 17394 bound_to 11000
  140.6827  134.4750  157.5589 LP  0  0  0  0  0  0  0  0  0  0  0  0  # atno 17395 bound_to 11000

$$$$
