AV-unprocessed.smi:2538|AV-procd|sdf|9984|dock4
  -GOLD-   2272014 33D 1   1.00000     0.00000
 Structure written by MMmdl.
 49 50  0  0  0  0  0  0  0  0  2 V2000
  152.5152  144.9391  160.5437 C   0  0  0  0  0  0  0  0  0  0  0  0
  152.0176  143.6673  159.8788 C   0  0  0  0  0  0  0  0  0  0  0  0
  151.1261  143.7809  158.7879 C   0  0  0  0  0  0  0  0  0  0  0  0
  150.6883  142.5999  158.2007 C   0  0  0  0  0  0  0  0  0  0  0  0
  149.8218  142.3755  157.1282 N   0  3  0  0  0  0  0  0  0  0  0  0
  149.6943  141.0357  156.9194 C   0  0  0  0  0  0  0  0  0  0  0  0
  150.4669  140.4022  157.8432 N   0  0  0  0  0  0  0  0  0  0  0  0
  150.6872  138.9682  158.0721 C   0  0  0  0  0  0  0  0  0  0  0  0
  149.3714  138.1897  158.2721 C   0  0  1  0  0  0  0  0  0  0  0  0
  149.1505  137.4006  157.1197 O   0  0  0  0  0  0  0  0  0  0  0  0
  149.4300  137.2660  159.5082 C   0  0  0  0  0  0  0  0  0  0  0  0
  148.1764  136.5233  159.7404 N   0  0  0  0  0  0  0  0  0  0  0  0
  147.9843  135.3115  158.9319 C   0  0  0  0  0  0  0  0  0  0  0  0
  147.3542  136.6442  161.2664 S   0  0  0  0  0  0  0  0  0  0  0  0
  148.3794  136.7996  162.3105 O   0  0  0  0  0  0  0  0  0  0  0  0
  146.3130  137.6719  161.1094 O   0  0  0  0  0  0  0  0  0  0  0  0
  146.5301  134.9878  161.4566 C   0  0  0  0  0  0  0  0  0  0  0  0
  145.0181  135.1529  161.6670 C   0  0  0  0  0  0  0  0  0  0  0  0
  147.1740  134.1928  162.6017 C   0  0  0  0  0  0  0  0  0  0  0  0
  151.1071  141.3375  158.6624 C   0  0  0  0  0  0  0  0  0  0  0  0
  151.9855  141.2065  159.7351 C   0  0  0  0  0  0  0  0  0  0  0  0
  152.4416  142.3962  160.3463 C   0  0  0  0  0  0  0  0  0  0  0  0
  153.3990  142.2855  161.5208 C   0  0  0  0  0  0  0  0  0  0  0  0
  152.0872  145.8272  160.0777 H   0  0  0  0  0  0  0  0  0  0  0  0
  153.6001  145.0124  160.4661 H   0  0  0  0  0  0  0  0  0  0  0  0
  152.2411  144.9526  161.5987 H   0  0  0  0  0  0  0  0  0  0  0  0
  150.7988  144.7451  158.4269 H   0  0  0  0  0  0  0  0  0  0  0  0
  149.0861  140.5619  156.1621 H   0  0  0  0  0  0  0  0  0  0  0  0
  151.2384  138.5763  157.2159 H   0  0  0  0  0  0  0  0  0  0  0  0
  151.3411  138.8599  158.9386 H   0  0  0  0  0  0  0  0  0  0  0  0
  148.5581  138.9081  158.3612 H   0  0  0  0  0  0  0  0  0  0  0  0
  148.2235  137.3882  156.9368 H   0  0  0  0  0  0  0  0  0  0  0  0
  150.2743  136.5779  159.4540 H   0  0  0  0  0  0  0  0  0  0  0  0
  149.6168  137.8661  160.3996 H   0  0  0  0  0  0  0  0  0  0  0  0
  148.3922  135.4427  157.9293 H   0  0  0  0  0  0  0  0  0  0  0  0
  146.9222  135.0863  158.8358 H   0  0  0  0  0  0  0  0  0  0  0  0
  148.4735  134.4570  159.3992 H   0  0  0  0  0  0  0  0  0  0  0  0
  146.6851  134.4327  160.5345 H   0  0  0  0  0  0  0  0  0  0  0  0
  144.5238  134.1835  161.7347 H   0  0  0  0  0  0  0  0  0  0  0  0
  144.5638  135.6959  160.8377 H   0  0  0  0  0  0  0  0  0  0  0  0
  144.8021  135.7000  162.5851 H   0  0  0  0  0  0  0  0  0  0  0  0
  146.6998  133.2178  162.7173 H   0  0  0  0  0  0  0  0  0  0  0  0
  147.0819  134.7231  163.5502 H   0  0  0  0  0  0  0  0  0  0  0  0
  148.2344  134.0196  162.4178 H   0  0  0  0  0  0  0  0  0  0  0  0
  152.3063  140.2383  160.0904 H   0  0  0  0  0  0  0  0  0  0  0  0
  153.6383  141.2453  161.7442 H   0  0  0  0  0  0  0  0  0  0  0  0
  152.9586  142.7256  162.4156 H   0  0  0  0  0  0  0  0  0  0  0  0
  154.3340  142.8023  161.3038 H   0  0  0  0  0  0  0  0  0  0  0  0
  149.3495  143.0823  156.5790 H   0  0  0  0  0  0  0  0  0  0  0  0
  1  2  1  0  0  0  0
  1 24  1  0  0  0  0
  1 25  1  0  0  0  0
  1 26  1  0  0  0  0
  2 22  1  0  0  0  0
  2  3  2  0  0  0  0
  3  4  1  0  0  0  0
  3 27  1  0  0  0  0
  4 20  2  0  0  0  0
  4  5  1  0  0  0  0
  5  6  2  0  0  0  0
  5 49  1  0  0  0  0
  6  7  1  0  0  0  0
  6 28  1  0  0  0  0
  7  8  1  0  0  0  0
  7 20  1  0  0  0  0
  8  9  1  0  0  0  0
  8 29  1  0  0  0  0
  8 30  1  0  0  0  0
  9 10  1  0  0  0  0
  9 11  1  0  0  0  0
  9 31  1  0  0  0  0
 10 32  1  0  0  0  0
 11 12  1  0  0  0  0
 11 33  1  0  0  0  0
 11 34  1  0  0  0  0
 12 13  1  0  0  0  0
 12 14  1  0  0  0  0
 13 35  1  0  0  0  0
 13 36  1  0  0  0  0
 13 37  1  0  0  0  0
 14 15  2  0  0  0  0
 14 16  2  0  0  0  0
 14 17  1  0  0  0  0
 17 18  1  0  0  0  0
 17 19  1  0  0  0  0
 17 38  1  0  0  0  0
 18 39  1  0  0  0  0
 18 40  1  0  0  0  0
 18 41  1  0  0  0  0
 19 42  1  0  0  0  0
 19 43  1  0  0  0  0
 19 44  1  0  0  0  0
 20 21  1  0  0  0  0
 21 22  2  0  0  0  0
 21 45  1  0  0  0  0
 22 23  1  0  0  0  0
 23 46  1  0  0  0  0
 23 47  1  0  0  0  0
 23 48  1  0  0  0  0
M  CHG  1   5   1
M  END
> <s_m_source_file>
AV-unprocessed.smi

> <i_m_source_file_index>
2538

> <i_lp_mmshare_version>
43012

> <i_f3d_flags>
0

> <s_epik_input>
W0NIM11jKFtjSF0xKWMoW0NIM10pW2NIXWMoYzEyKW4oW2NIXW4yKVtDSDJdW0NASF0oW09IXSlbQ0gyXU4oW0NIM10pUyg9TykoPU8pW0NIXShbQ0gzXSlbQ0gzXQ==

> <s_epik_cmdline>
J2VwaWtfcHl0aG9uJywgJy1waCcsICc3LjAnLCAnLXRuJywgJzgnLCAnLW1hJywgJzIwMCcsICctbWV0YWxfYmluZGluZycsICctaW1hZScsICc8aW5maWxlLm1hZT4nLCAnLW9tYWUnLCAnPG91dGZpbGUubWFlPic=

> <r_epik_Ionization_Penalty>
1.07686

> <r_epik_Ionization_Penalty_Charging>
1.07685

> <r_epik_Ionization_Penalty_Neutral>
1.40866e-06

> <r_epik_State_Penalty>
1.13193

> <r_epik_Charging_Adjusted_Penalty>
2.20879

> <i_epik_Tot_Q>
1

> <i_epik_Tot_abs_Q>
1

> <r_epik_Metal_State_Penalty>
5.12988

> <b_epik_Metal_Only>
0

> <s_lp_Force_Field>
OPLS_2005

> <r_lp_Energy>
10.053

> <b_lp_Chiralities_Consistent>
1

> <s_lp_Variant>
AV-unprocessed.smi:2538-4

> <Gold.Version>
5.8.1

> <Gold.Id.Protein>
6NUR|6NUR_protein|mol2

> <Gold.PLP.Fitness>
54.3951

> <Gold.PLP.PLP>
-44.4209

> <Gold.PLP.part.hbond>
-2.9645

> <Gold.PLP.part.metal>
0.0000

> <Gold.PLP.part.buried>
-6.5861

> <Gold.PLP.part.nonpolar>
-35.5831

> <Gold.PLP.part.repulsive>
0.0318

> <Gold.PLP.ligand.clash>
0.0000

> <Gold.PLP.ligand.torsion>
2.2595

> <Gold.PLP.Chemscore.Hbond>
3.9753

> <Gold.PLP.Chemscore.CHOScore>
0.0000

> <Gold.PLP.Chemscore.Metal>
0.0000

> <Gold.Chemscore.Hbonds>
donor molecule, donor type, donor heavy atom, donor atom, acceptor molecule, acceptor atom, score
      L1  H     5    49       P1  8028  2.00
      P1  H  6931  6943       L1    15  1.00
      P1  H  6934  6947       L1    16  1.00

> <Gold.PLP.Chemscore.Internal.Correction>
2.5674

> <Gold.Rescore>
     Score         DG    S(hbond)    S(metal)    S(lipo)     H(rot)  DE(clash)    DE(int)     intcor
     16.99     -20.05       2.46        0.00     105.91       2.36       0.04       3.02       ----

> <Gold.Chemscore.Fitness>
16.9880

> <Gold.Chemscore.DG>
-20.0526

> <Gold.Chemscore.ZeroCoef>
-5.4800

> <Gold.Chemscore.Hbond>
2.4614

> <Gold.Chemscore.Metal>
0.0000

> <Gold.Chemscore.Lipo>
105.9127

> <Gold.Chemscore.Internal_Hbond>
0.0000

> <Gold.Chemscore.DEClash>
0.0398

> <Gold.Chemscore.DEInternal>
3.0247

> <Gold.Chemscore.Rot>
2.3595

> <Gold.Chemscore.Internal.Correction>
   9.000000E+99

> <Gold.Chemscore.Hbonds>
donor molecule, donor type, donor heavy atom, donor atom, acceptor molecule, acceptor atom, score
      L1  H     5    49       P1  8028  0.99
      P1  H  6931  6943       L1    15  0.39
      P1  H  6934  6947       L1    16  0.44

> <Gold.Chemscore.Hbond.Weighted>
-8.2211

> <Gold.Chemscore.Metal.Weighted>
-0.0000

> <Gold.Chemscore.Lipo.Weighted>
-12.3918

> <Gold.Chemscore.Internal_Hbond.Weighted>
0.0000

> <Gold.Chemscore.DEClash.Weighted>
0.0398

> <Gold.Chemscore.DEInternal.Weighted>
3.0247

> <Gold.Chemscore.Rot.Weighted>
6.0403

> <Gold.Chemscore.Internal.Correction.Weighted>
   9.000000E+99

> <Gold.Protein.RotatedTorsions>
[ 6907 6896 6895 6894 ] final  -88.53 input  -60.11 | X-H torsion
[ 7974 7965 7964 7962 ] final  176.59 input  175.53 | X-H torsion
[ 8008 7997 7996 7995 ] final   91.60 input   59.86 | X-H torsion
[ 10167 10162 10161 10158 ] final -111.72 input  -65.29 | X-H torsion
[ 10718 10713 10712 10709 ] final  156.61 input   66.30 | X-H torsion
[ 10763 10752 10751 10750 ] final  159.38 input  -60.55 | X-H torsion
[ 11005 11000 10999 10996 ] final   78.66 input  -57.11 | X-H torsion

> <Gold.Protein.ActiveResidues>
 VAL166  LYS551  ARG553  GLY616  TRP617  ASP618  TYR619  PRO620  LYS621  CYS622 
 ASP623  PHE694  ASN695  SER759  ASP760  ASP761  ALA762  ILE779  LEU786  VAL792 
 PHE793  MET794  SER795  GLU796  ALA797  LYS798  CYS799  TRP800  GLU811  SER814 

> <Gold.Protein.RotatedAtoms>
  150.6869  134.2727  159.4594 H   0  0  0  0  0  0  0  0  0  0  0  0  # atno 6907 bound_to 6896
  152.0648  134.9568  160.0584 H   0  0  0  0  0  0  0  0  0  0  0  0  # atno 6908 bound_to 6896
  152.0981  133.4201  159.4611 H   0  0  0  0  0  0  0  0  0  0  0  0  # atno 6909 bound_to 6896
  144.7182  140.0119  143.6440 H   0  0  0  0  0  0  0  0  0  0  0  0  # atno 7974 bound_to 7965
  156.0256  140.3335  155.7085 H   0  0  0  0  0  0  0  0  0  0  0  0  # atno 8008 bound_to 7997
  155.5959  140.0651  157.2764 H   0  0  0  0  0  0  0  0  0  0  0  0  # atno 8009 bound_to 7997
  154.4333  140.1819  156.1110 H   0  0  0  0  0  0  0  0  0  0  0  0  # atno 8010 bound_to 7997
  140.1305  143.4365  152.1630 H   0  0  0  0  0  0  0  0  0  0  0  0  # atno 10167 bound_to 10162
  157.2026  131.0679  151.2016 H   0  0  0  0  0  0  0  0  0  0  0  0  # atno 10718 bound_to 10713
  154.2309  135.2778  155.2890 H   0  0  0  0  0  0  0  0  0  0  0  0  # atno 10763 bound_to 10752
  154.5624  135.5643  153.7023 H   0  0  0  0  0  0  0  0  0  0  0  0  # atno 10764 bound_to 10752
  153.0020  135.6301  154.2451 H   0  0  0  0  0  0  0  0  0  0  0  0  # atno 10765 bound_to 10752
  139.9203  134.7781  156.1678 H   0  0  0  0  0  0  0  0  0  0  0  0  # atno 11005 bound_to 11000
  146.0251  139.3285  143.0789 LP  0  0  0  0  0  0  0  0  0  0  0  0  # atno 17320 bound_to 7965
  145.8521  140.9523  143.0744 LP  0  0  0  0  0  0  0  0  0  0  0  0  # atno 17321 bound_to 7965
  139.5522  144.7346  151.4401 LP  0  0  0  0  0  0  0  0  0  0  0  0  # atno 17342 bound_to 10162
  140.6820  143.8061  150.7134 LP  0  0  0  0  0  0  0  0  0  0  0  0  # atno 17343 bound_to 10162
  157.3752  130.7202  149.6592 LP  0  0  0  0  0  0  0  0  0  0  0  0  # atno 17370 bound_to 10713
  155.9699  130.4188  150.4343 LP  0  0  0  0  0  0  0  0  0  0  0  0  # atno 17371 bound_to 10713
  141.0718  133.6793  156.2157 LP  0  0  0  0  0  0  0  0  0  0  0  0  # atno 17394 bound_to 11000
  140.6493  134.5083  157.5576 LP  0  0  0  0  0  0  0  0  0  0  0  0  # atno 17395 bound_to 11000

$$$$
