AV-unprocessed.smi:3347|AV-procd|sdf|12914|dock1
  -GOLD-   2272019333D 1   1.00000     0.00000
 Structure written by MMmdl.
 40 42  0  0  0  0  0  0  0  0  2 V2000
  149.9660  135.3303  156.3733 O   0  0  0  0  0  0  0  0  0  0  0  0
  149.7418  135.5277  155.1794 C   0  0  0  0  0  0  0  0  0  0  0  0
  149.2004  134.6072  154.3688 N   0  0  0  0  0  0  0  0  0  0  0  0
  148.8297  133.2493  154.7567 C   0  0  0  0  0  0  0  0  0  0  0  0
  148.3829  132.4001  153.5507 C   0  0  1  0  0  0  0  0  0  0  0  0
  147.2682  131.4083  153.8770 C   0  0  0  0  0  0  0  0  0  0  0  0
  146.6340  131.0911  152.5175 C   0  0  0  0  0  0  0  0  0  0  0  0
  147.0062  132.1965  151.6041 N   0  3  1  0  0  0  0  0  0  0  0  0
  145.8692  132.7733  150.8554 C   0  0  0  0  0  0  0  0  0  0  0  0
  144.7783  131.7748  150.5509 C   0  0  0  0  0  0  0  0  0  0  0  0
  145.7244  132.2222  149.4573 C   0  0  0  0  0  0  0  0  0  0  0  0
  147.7698  133.1870  152.3894 C   0  0  0  0  0  0  0  0  0  0  0  0
  149.9754  136.6759  154.5213 N   0  0  0  0  0  0  0  0  0  0  0  0
  150.5297  137.8881  155.0151 C   0  0  0  0  0  0  0  0  0  0  0  0
  151.3261  137.9895  156.1820 C   0  0  0  0  0  0  0  0  0  0  0  0
  151.8276  139.2516  156.5548 C   0  0  0  0  0  0  0  0  0  0  0  0
  151.5227  140.3631  155.7458 C   0  0  0  0  0  0  0  0  0  0  0  0
  150.7761  140.2794  154.6249 N   0  0  0  0  0  0  0  0  0  0  0  0
  150.2991  139.0665  154.2733 C   0  0  0  0  0  0  0  0  0  0  0  0
  149.0479  134.8593  153.4031 H   0  0  0  0  0  0  0  0  0  0  0  0
  149.7052  132.7914  155.2176 H   0  0  0  0  0  0  0  0  0  0  0  0
  148.0561  133.2663  155.5265 H   0  0  0  0  0  0  0  0  0  0  0  0
  149.2386  131.8369  153.1740 H   0  0  0  0  0  0  0  0  0  0  0  0
  147.6328  130.5167  154.3883 H   0  0  0  0  0  0  0  0  0  0  0  0
  146.5255  131.8805  154.5221 H   0  0  0  0  0  0  0  0  0  0  0  0
  147.0354  130.1621  152.1117 H   0  0  0  0  0  0  0  0  0  0  0  0
  145.5532  130.9714  152.6078 H   0  0  0  0  0  0  0  0  0  0  0  0
  145.6242  133.8126  151.0686 H   0  0  0  0  0  0  0  0  0  0  0  0
  144.8891  130.7597  150.9278 H   0  0  0  0  0  0  0  0  0  0  0  0
  143.7563  132.1454  150.5076 H   0  0  0  0  0  0  0  0  0  0  0  0
  145.3244  132.8872  148.6944 H   0  0  0  0  0  0  0  0  0  0  0  0
  146.4641  131.5045  149.1069 H   0  0  0  0  0  0  0  0  0  0  0  0
  147.0903  133.9490  152.7761 H   0  0  0  0  0  0  0  0  0  0  0  0
  148.5200  133.6853  151.7746 H   0  0  0  0  0  0  0  0  0  0  0  0
  149.6724  136.7035  153.5587 H   0  0  0  0  0  0  0  0  0  0  0  0
  151.5737  137.1330  156.7887 H   0  0  0  0  0  0  0  0  0  0  0  0
  152.4374  139.3637  157.4388 H   0  0  0  0  0  0  0  0  0  0  0  0
  151.8929  141.3444  156.0034 H   0  0  0  0  0  0  0  0  0  0  0  0
  149.7074  139.0375  153.3699 H   0  0  0  0  0  0  0  0  0  0  0  0
  147.6484  131.8051  150.9298 H   0  0  0  0  0  0  0  0  0  0  0  0
  1  2  2  0  0  0  0
  2  3  1  0  0  0  0
  2 13  1  0  0  0  0
  3  4  1  0  0  0  0
  3 20  1  0  0  0  0
  4  5  1  0  0  0  0
  4 21  1  0  0  0  0
  4 22  1  0  0  0  0
  5 12  1  0  0  0  0
  5  6  1  0  0  0  0
  5 23  1  0  0  0  0
  6  7  1  0  0  0  0
  6 24  1  0  0  0  0
  6 25  1  0  0  0  0
  7  8  1  0  0  0  0
  7 26  1  0  0  0  0
  7 27  1  0  0  0  0
  8  9  1  0  0  0  0
  8 12  1  0  0  0  0
  8 40  1  0  0  0  0
  9 11  1  0  0  0  0
  9 10  1  0  0  0  0
  9 28  1  0  0  0  0
 10 11  1  0  0  0  0
 10 29  1  0  0  0  0
 10 30  1  0  0  0  0
 11 31  1  0  0  0  0
 11 32  1  0  0  0  0
 12 33  1  0  0  0  0
 12 34  1  0  0  0  0
 13 14  1  0  0  0  0
 13 35  1  0  0  0  0
 14 19  1  0  0  0  0
 14 15  2  0  0  0  0
 15 16  1  0  0  0  0
 15 36  1  0  0  0  0
 16 17  2  0  0  0  0
 16 37  1  0  0  0  0
 17 18  1  0  0  0  0
 17 38  1  0  0  0  0
 18 19  2  0  0  0  0
 19 39  1  0  0  0  0
M  CHG  1   8   1
M  END
> <s_m_source_file>
AV-unprocessed.smi

> <i_m_source_file_index>
3347

> <i_lp_mmshare_version>
43012

> <i_f3d_flags>
0

> <s_epik_input>
W2NIXTFuW2NIXVtjSF1bY0hdYzFbTkhdQyg9TylbTkhdW0NIMl1bQ0BASF0yW0NIMl1bQ0gyXU4oW0NIMl0yKVtDSF0zW0NIMl1bQ0gyXTM=

> <s_epik_cmdline>
J2VwaWtfcHl0aG9uJywgJy1waCcsICc3LjAnLCAnLXRuJywgJzgnLCAnLW1hJywgJzIwMCcsICctbWV0YWxfYmluZGluZycsICctaW1hZScsICc8aW5maWxlLm1hZT4nLCAnLW9tYWUnLCAnPG91dGZpbGUubWFlPic=

> <r_epik_Ionization_Penalty>
0.00442629

> <r_epik_Ionization_Penalty_Charging>
0.000203384

> <r_epik_Ionization_Penalty_Neutral>
0.00422291

> <r_epik_State_Penalty>
0.00301008

> <r_epik_Charging_Adjusted_Penalty>
0.00321347

> <i_epik_Tot_Q>
1

> <i_epik_Tot_abs_Q>
1

> <r_epik_Metal_State_Penalty>
-0

> <b_epik_Metal_Only>
0

> <s_lp_Force_Field>
OPLS_2005

> <r_lp_Energy>
39.1383

> <b_lp_Chiralities_Consistent>
1

> <s_lp_Variant>
AV-unprocessed.smi:3347-4

> <Gold.Version>
5.8.1

> <Gold.Id.Protein>
6NUR|6NUR_protein|mol2

> <Gold.PLP.Fitness>
50.8548

> <Gold.PLP.PLP>
-38.3464

> <Gold.PLP.part.hbond>
-4.6389

> <Gold.PLP.part.metal>
0.0000

> <Gold.PLP.part.buried>
-3.6873

> <Gold.PLP.part.nonpolar>
-30.2514

> <Gold.PLP.part.repulsive>
0.2113

> <Gold.PLP.ligand.clash>
0.0000

> <Gold.PLP.ligand.torsion>
1.4186

> <Gold.PLP.Chemscore.Hbond>
3.6920

> <Gold.PLP.Chemscore.CHOScore>
1.0000

> <Gold.PLP.Chemscore.Metal>
0.0000

> <Gold.Chemscore.Hbonds>
donor molecule, donor type, donor heavy atom, donor atom, acceptor molecule, acceptor atom, score
      L1  H     3    20       P1  7948  0.90
      L1  H     8    40       P1 10747  1.00
      L1  H    13    35       P1  7948  1.00
      P1  H  7989  7998       L1    18  1.00
      L1  C    19    39       P1  7957  1.00

> <Gold.PLP.Chemscore.Internal.Correction>
1.2696

> <Gold.Rescore>
     Score         DG    S(hbond)    S(metal)    S(lipo)     H(rot)  DE(clash)    DE(int)     intcor
     16.20     -18.86       2.13        0.00      84.83       1.42       0.03       2.63       ----

> <Gold.Chemscore.Fitness>
16.2036

> <Gold.Chemscore.DG>
-18.8637

> <Gold.Chemscore.ZeroCoef>
-5.4800

> <Gold.Chemscore.Hbond>
2.1255

> <Gold.Chemscore.Metal>
0.0000

> <Gold.Chemscore.Lipo>
84.8252

> <Gold.Chemscore.Internal_Hbond>
0.0000

> <Gold.Chemscore.DEClash>
0.0314

> <Gold.Chemscore.DEInternal>
2.6287

> <Gold.Chemscore.Rot>
1.4219

> <Gold.Chemscore.Internal.Correction>
   9.000000E+99

> <Gold.Chemscore.Hbonds>
donor molecule, donor type, donor heavy atom, donor atom, acceptor molecule, acceptor atom, score
      L1  H     3    20       P1  7948  0.16
      L1  H     8    40       P1 10747  1.00
      L1  H    13    35       P1  7948  0.60
      P1  H  7989  7998       L1    18  0.40

> <Gold.Chemscore.Hbond.Weighted>
-7.0993

> <Gold.Chemscore.Metal.Weighted>
-0.0000

> <Gold.Chemscore.Lipo.Weighted>
-9.9245

> <Gold.Chemscore.Internal_Hbond.Weighted>
0.0000

> <Gold.Chemscore.DEClash.Weighted>
0.0314

> <Gold.Chemscore.DEInternal.Weighted>
2.6287

> <Gold.Chemscore.Rot.Weighted>
3.6401

> <Gold.Chemscore.Internal.Correction.Weighted>
   9.000000E+99

> <Gold.Protein.RotatedTorsions>
[ 6907 6896 6895 6894 ] final -178.57 input  -60.11 | X-H torsion
[ 7974 7965 7964 7962 ] final  167.44 input  175.53 | X-H torsion
[ 8008 7997 7996 7995 ] final -126.37 input   59.86 | X-H torsion
[ 10167 10162 10161 10158 ] final    6.18 input  -65.29 | X-H torsion
[ 10718 10713 10712 10709 ] final  -67.83 input   66.30 | X-H torsion
[ 10763 10752 10751 10750 ] final    9.45 input  -60.55 | X-H torsion
[ 11005 11000 10999 10996 ] final    6.13 input  -57.11 | X-H torsion

> <Gold.Protein.ActiveResidues>
 VAL166  LYS551  ARG553  GLY616  TRP617  ASP618  TYR619  PRO620  LYS621  CYS622 
 ASP623  PHE694  ASN695  SER759  ASP760  ASP761  ALA762  ILE779  LEU786  VAL792 
 PHE793  MET794  SER795  GLU796  ALA797  LYS798  CYS799  TRP800  GLU811  SER814 

> <Gold.Protein.RotatedAtoms>
  151.6394  133.3327  159.3126 H   0  0  0  0  0  0  0  0  0  0  0  0  # atno 6907 bound_to 6896
  150.8016  134.7117  159.6617 H   0  0  0  0  0  0  0  0  0  0  0  0  # atno 6908 bound_to 6896
  152.4108  134.6131  160.0082 H   0  0  0  0  0  0  0  0  0  0  0  0  # atno 6909 bound_to 6896
  144.7424  139.8761  143.6392 H   0  0  0  0  0  0  0  0  0  0  0  0  # atno 7974 bound_to 7965
  155.2286  140.0424  157.2959 H   0  0  0  0  0  0  0  0  0  0  0  0  # atno 8008 bound_to 7997
  154.5903  140.2425  155.7900 H   0  0  0  0  0  0  0  0  0  0  0  0  # atno 8009 bound_to 7997
  156.2254  140.2956  156.0064 H   0  0  0  0  0  0  0  0  0  0  0  0  # atno 8010 bound_to 7997
  140.6442  143.7703  150.7473 H   0  0  0  0  0  0  0  0  0  0  0  0  # atno 10167 bound_to 10162
  156.0537  130.4284  150.1911 H   0  0  0  0  0  0  0  0  0  0  0  0  # atno 10718 bound_to 10713
  153.2139  135.6872  153.8081 H   0  0  0  0  0  0  0  0  0  0  0  0  # atno 10763 bound_to 10752
  153.7303  135.3253  155.3285 H   0  0  0  0  0  0  0  0  0  0  0  0  # atno 10764 bound_to 10752
  154.8236  135.4634  154.0958 H   0  0  0  0  0  0  0  0  0  0  0  0  # atno 10765 bound_to 10752
  140.5629  134.0175  155.7979 H   0  0  0  0  0  0  0  0  0  0  0  0  # atno 11005 bound_to 11000
  146.1245  139.4268  143.0207 LP  0  0  0  0  0  0  0  0  0  0  0  0  # atno 17320 bound_to 7965
  145.7255  141.0060  143.1379 LP  0  0  0  0  0  0  0  0  0  0  0  0  # atno 17321 bound_to 7965
  140.1340  143.4500  152.2236 LP  0  0  0  0  0  0  0  0  0  0  0  0  # atno 17342 bound_to 10162
  139.5651  144.7430  151.4044 LP  0  0  0  0  0  0  0  0  0  0  0  0  # atno 17343 bound_to 10162
  156.9991  130.9917  151.3395 LP  0  0  0  0  0  0  0  0  0  0  0  0  # atno 17370 bound_to 10713
  157.5487  130.8168  149.8118 LP  0  0  0  0  0  0  0  0  0  0  0  0  # atno 17371 bound_to 10713
  141.1103  133.9627  157.2922 LP  0  0  0  0  0  0  0  0  0  0  0  0  # atno 17394 bound_to 11000
  139.9399  135.0192  156.8674 LP  0  0  0  0  0  0  0  0  0  0  0  0  # atno 17395 bound_to 11000

$$$$
