AV-unprocessed.smi:254|AV-procd|sdf|1948|dock7
  -GOLD-   2262021 83D 1   1.00000     0.00000
 Structure written by MMmdl.
 50 53  0  0  0  0  0  0  0  0  1 V2000
  152.8085  140.3014  158.2146 O   0  0  0  0  0  0  0  0  0  0  0  0
  151.7713  140.7527  157.7313 C   0  0  0  0  0  0  0  0  0  0  0  0
  151.1378  140.2011  156.4673 C   0  0  0  0  0  0  0  0  0  0  0  0
  149.9581  141.0484  156.3438 N   0  0  0  0  0  0  0  0  0  0  0  0
  149.0535  140.9209  155.3390 C   0  0  0  0  0  0  0  0  0  0  0  0
  148.6595  142.0459  154.6859 N   0  0  0  0  0  0  0  0  0  0  0  0
  147.7710  141.9795  153.6908 C   0  0  0  0  0  0  0  0  0  0  0  0
  147.1575  140.9059  153.1921 N   0  0  0  0  0  0  0  0  0  0  0  0
  147.5471  139.7709  153.8387 C   0  0  0  0  0  0  0  0  0  0  0  0
  148.4793  139.6856  154.9134 C   0  0  0  0  0  0  0  0  0  0  0  0
  148.6098  138.3577  155.3083 N   0  0  0  0  0  0  0  0  0  0  0  0
  147.8042  137.7017  154.5192 C   0  0  0  0  0  0  0  0  0  0  0  0
  147.1332  138.4728  153.5988 N   0  0  0  0  0  0  0  0  0  0  0  0
  146.1789  138.0129  152.6039 C   0  0  0  0  0  0  0  0  0  0  0  0
  145.1244  137.0236  153.1644 C   0  0  1  0  0  0  0  0  0  0  0  0
  144.0223  137.7717  153.9582 C   0  0  0  0  0  0  0  0  0  0  0  0
  143.0950  138.4075  153.1043 O   0  0  0  0  0  0  0  0  0  0  0  0
  144.5372  136.1531  152.0187 C   0  0  1  0  0  0  0  0  0  0  0  0
  145.5702  135.4151  151.1820 C   0  0  0  0  0  0  0  0  0  0  0  0
  144.7329  134.3459  150.4891 C   0  0  0  0  0  0  0  0  0  0  0  0
  143.6845  134.0302  151.3965 O   0  0  0  0  0  0  0  0  0  0  0  0
  143.6659  134.9723  152.4639 C   0  0  0  0  0  0  0  0  0  0  0  0
  149.8557  142.0248  157.4194 C   0  0  0  0  0  0  0  0  0  0  0  0
  151.0425  141.7639  158.2171 N   0  0  0  0  0  0  0  0  0  0  0  0
  151.3168  142.5367  159.4265 C   0  0  0  0  0  0  0  0  0  0  0  0
  152.0043  143.8798  159.1225 C   0  0  0  0  0  0  0  0  0  0  0  0
  153.2809  143.6525  158.8171 F   0  0  0  0  0  0  0  0  0  0  0  0
  151.4266  144.4959  158.0915 F   0  0  0  0  0  0  0  0  0  0  0  0
  151.9586  144.6761  160.1908 F   0  0  0  0  0  0  0  0  0  0  0  0
  151.8075  140.3151  155.6141 H   0  0  0  0  0  0  0  0  0  0  0  0
  150.8695  139.1514  156.5927 H   0  0  0  0  0  0  0  0  0  0  0  0
  147.5161  142.9212  153.2275 H   0  0  0  0  0  0  0  0  0  0  0  0
  147.6823  136.6300  154.5836 H   0  0  0  0  0  0  0  0  0  0  0  0
  145.6837  138.8822  152.1694 H   0  0  0  0  0  0  0  0  0  0  0  0
  146.7557  137.5526  151.8020 H   0  0  0  0  0  0  0  0  0  0  0  0
  145.6433  136.3617  153.8594 H   0  0  0  0  0  0  0  0  0  0  0  0
  143.4402  137.0893  154.5758 H   0  0  0  0  0  0  0  0  0  0  0  0
  144.4624  138.5071  154.6324 H   0  0  0  0  0  0  0  0  0  0  0  0
  143.3826  139.2953  152.9553 H   0  0  0  0  0  0  0  0  0  0  0  0
  143.9472  136.7852  151.3528 H   0  0  0  0  0  0  0  0  0  0  0  0
  146.0879  136.0557  150.4677 H   0  0  0  0  0  0  0  0  0  0  0  0
  146.3167  134.9470  151.8258 H   0  0  0  0  0  0  0  0  0  0  0  0
  144.2914  134.7421  149.5741 H   0  0  0  0  0  0  0  0  0  0  0  0
  145.3166  133.4627  150.2293 H   0  0  0  0  0  0  0  0  0  0  0  0
  144.0881  134.4920  153.3478 H   0  0  0  0  0  0  0  0  0  0  0  0
  142.6431  135.2705  152.6954 H   0  0  0  0  0  0  0  0  0  0  0  0
  149.8708  143.0443  157.0320 H   0  0  0  0  0  0  0  0  0  0  0  0
  148.9520  141.8689  158.0103 H   0  0  0  0  0  0  0  0  0  0  0  0
  150.3777  142.7170  159.9514 H   0  0  0  0  0  0  0  0  0  0  0  0
  151.9348  141.9458  160.1044 H   0  0  0  0  0  0  0  0  0  0  0  0
  1  2  2  0  0  0  0
  2 24  1  0  0  0  0
  2  3  1  0  0  0  0
  3  4  1  0  0  0  0
  3 30  1  0  0  0  0
  3 31  1  0  0  0  0
  4  5  1  0  0  0  0
  4 23  1  0  0  0  0
  5 10  1  0  0  0  0
  5  6  2  0  0  0  0
  6  7  1  0  0  0  0
  7  8  2  0  0  0  0
  7 32  1  0  0  0  0
  8  9  1  0  0  0  0
  9 13  1  0  0  0  0
  9 10  2  0  0  0  0
 10 11  1  0  0  0  0
 11 12  2  0  0  0  0
 12 13  1  0  0  0  0
 12 33  1  0  0  0  0
 13 14  1  0  0  0  0
 14 15  1  0  0  0  0
 14 34  1  0  0  0  0
 14 35  1  0  0  0  0
 15 16  1  0  0  0  0
 15 18  1  0  0  0  0
 15 36  1  0  0  0  0
 16 17  1  0  0  0  0
 16 37  1  0  0  0  0
 16 38  1  0  0  0  0
 17 39  1  0  0  0  0
 18 22  1  0  0  0  0
 18 19  1  0  0  0  0
 18 40  1  0  0  0  0
 19 20  1  0  0  0  0
 19 41  1  0  0  0  0
 19 42  1  0  0  0  0
 20 21  1  0  0  0  0
 20 43  1  0  0  0  0
 20 44  1  0  0  0  0
 21 22  1  0  0  0  0
 22 45  1  0  0  0  0
 22 46  1  0  0  0  0
 23 24  1  0  0  0  0
 23 47  1  0  0  0  0
 23 48  1  0  0  0  0
 24 25  1  0  0  0  0
 25 26  1  0  0  0  0
 25 49  1  0  0  0  0
 25 50  1  0  0  0  0
 26 27  1  0  0  0  0
 26 28  1  0  0  0  0
 26 29  1  0  0  0  0
M  END
> <s_m_source_file>
AV-unprocessed.smi

> <i_m_source_file_index>
254

> <i_lp_mmshare_version>
43012

> <i_f3d_flags>
0

> <s_epik_input>
RkMoRikoRilbQ0gyXU4xW0NIMl1OKFtDSDJdQzE9TyljKG5bY0hdbjIpYyhjMjMpbltjSF1uM1tDSDJdW0NASF0oW0NIMl1bT0hdKVtDQEBIXTRbQ0gyXVtDSDJdT1tDSDJdNA==

> <s_epik_cmdline>
J2VwaWtfcHl0aG9uJywgJy1waCcsICc3LjAnLCAnLXRuJywgJzgnLCAnLW1hJywgJzIwMCcsICctbWV0YWxfYmluZGluZycsICctaW1hZScsICc8aW5maWxlLm1hZT4nLCAnLW9tYWUnLCAnPG91dGZpbGUubWFlPic=

> <r_lp_tautomer_probability>
1

> <r_epik_Ionization_Penalty>
0.000292924

> <r_epik_Ionization_Penalty_Charging>
0

> <r_epik_Ionization_Penalty_Neutral>
0.000292924

> <r_epik_State_Penalty>
-0

> <r_epik_Charging_Adjusted_Penalty>
0

> <i_epik_Tot_Q>
0

> <i_epik_Tot_abs_Q>
0

> <r_epik_Metal_State_Penalty>
-0

> <b_epik_Metal_Only>
0

> <s_epik_Chemistry_Notes>
This compound contains an acetal/aminal-like group ( X-CH(R)-Y where X, Y are N, S, or O) that may be acid/base labile, releasing an aldehyde.

> <s_lp_Force_Field>
OPLS_2005

> <r_lp_Energy>
39.6801

> <b_lp_Chiralities_Consistent>
1

> <s_lp_Variant>
AV-unprocessed.smi:254-4

> <Gold.Version>
5.8.1

> <Gold.Id.Protein>
6NUR|6NUR_protein|mol2

> <Gold.PLP.Fitness>
48.5517

> <Gold.PLP.PLP>
-46.2960

> <Gold.PLP.part.hbond>
-1.8181

> <Gold.PLP.part.metal>
0.0000

> <Gold.PLP.part.buried>
-7.4561

> <Gold.PLP.part.nonpolar>
-40.0522

> <Gold.PLP.part.repulsive>
2.3965

> <Gold.PLP.ligand.clash>
0.0000

> <Gold.PLP.ligand.torsion>
1.8146

> <Gold.PLP.Chemscore.Hbond>
1.8800

> <Gold.PLP.Chemscore.CHOScore>
0.0024

> <Gold.PLP.Chemscore.Metal>
0.0000

> <Gold.Chemscore.Hbonds>
donor molecule, donor type, donor heavy atom, donor atom, acceptor molecule, acceptor atom, score
      L1  H    17    39       P1 10175  0.32
      P1  H  7997  8010       L1     1  0.61

> <Gold.PLP.Chemscore.Internal.Correction>
0.2377

> <Gold.Rescore>
     Score         DG    S(hbond)    S(metal)    S(lipo)     H(rot)  DE(clash)    DE(int)     intcor
      6.64     -10.33       1.77        0.00      62.91       3.30       1.90       1.79       ----

> <Gold.Chemscore.Fitness>
6.6425

> <Gold.Chemscore.DG>
-10.3265

> <Gold.Chemscore.ZeroCoef>
-5.4800

> <Gold.Chemscore.Hbond>
1.7747

> <Gold.Chemscore.Metal>
0.0000

> <Gold.Chemscore.Lipo>
62.9091

> <Gold.Chemscore.Internal_Hbond>
0.0000

> <Gold.Chemscore.DEClash>
1.8988

> <Gold.Chemscore.DEInternal>
1.7853

> <Gold.Chemscore.Rot>
3.2974

> <Gold.Chemscore.Internal.Correction>
   9.000000E+99

> <Gold.Chemscore.Hbonds>
donor molecule, donor type, donor heavy atom, donor atom, acceptor molecule, acceptor atom, score
      L1  H    17    39       P1 10175  0.33
      P1  H  7997  8010       L1     1  0.56

> <Gold.Chemscore.Hbond.Weighted>
-5.9276

> <Gold.Chemscore.Metal.Weighted>
-0.0000

> <Gold.Chemscore.Lipo.Weighted>
-7.3604

> <Gold.Chemscore.Internal_Hbond.Weighted>
0.0000

> <Gold.Chemscore.DEClash.Weighted>
1.8988

> <Gold.Chemscore.DEInternal.Weighted>
1.7853

> <Gold.Chemscore.Rot.Weighted>
8.4414

> <Gold.Chemscore.Internal.Correction.Weighted>
   9.000000E+99

> <Gold.Protein.RotatedTorsions>
[ 6907 6896 6895 6894 ] final   76.43 input  -60.11 | X-H torsion
[ 7974 7965 7964 7962 ] final   83.91 input  175.53 | X-H torsion
[ 8008 7997 7996 7995 ] final   47.93 input   59.86 | X-H torsion
[ 10167 10162 10161 10158 ] final    1.24 input  -65.29 | X-H torsion
[ 10718 10713 10712 10709 ] final   14.76 input   66.30 | X-H torsion
[ 10763 10752 10751 10750 ] final  -24.27 input  -60.55 | X-H torsion
[ 11005 11000 10999 10996 ] final  -36.23 input  -57.11 | X-H torsion

> <Gold.Protein.ActiveResidues>
 VAL166  LYS551  ARG553  GLY616  TRP617  ASP618  TYR619  PRO620  LYS621  CYS622 
 ASP623  PHE694  ASN695  SER759  ASP760  ASP761  ALA762  ILE779  LEU786  VAL792 
 PHE793  MET794  SER795  GLU796  ALA797  LYS798  CYS799  TRP800  GLU811  SER814 

> <Gold.Protein.RotatedAtoms>
  152.5073  134.3970  159.9403 H   0  0  0  0  0  0  0  0  0  0  0  0  # atno 6907 bound_to 6896
  151.3932  133.3775  159.2731 H   0  0  0  0  0  0  0  0  0  0  0  0  # atno 6908 bound_to 6896
  150.9417  134.8846  159.7675 H   0  0  0  0  0  0  0  0  0  0  0  0  # atno 6909 bound_to 6896
  145.6057  139.2360  143.2220 H   0  0  0  0  0  0  0  0  0  0  0  0  # atno 7974 bound_to 7965
  155.3771  140.3426  155.4245 H   0  0  0  0  0  0  0  0  0  0  0  0  # atno 8008 bound_to 7997
  156.1631  140.1607  156.8612 H   0  0  0  0  0  0  0  0  0  0  0  0  # atno 8009 bound_to 7997
  154.5158  140.0779  156.8060 H   0  0  0  0  0  0  0  0  0  0  0  0  # atno 8010 bound_to 7997
  140.6692  143.7096  150.7888 H   0  0  0  0  0  0  0  0  0  0  0  0  # atno 10167 bound_to 10162
  157.0438  130.6242  149.5755 H   0  0  0  0  0  0  0  0  0  0  0  0  # atno 10718 bound_to 10713
  153.6812  135.6967  153.5117 H   0  0  0  0  0  0  0  0  0  0  0  0  # atno 10763 bound_to 10752
  153.2484  135.4283  155.0770 H   0  0  0  0  0  0  0  0  0  0  0  0  # atno 10764 bound_to 10752
  154.8399  135.3525  154.6355 H   0  0  0  0  0  0  0  0  0  0  0  0  # atno 10765 bound_to 10752
  140.9858  133.7031  156.1763 H   0  0  0  0  0  0  0  0  0  0  0  0  # atno 11005 bound_to 11000
  146.1542  140.6881  142.9308 LP  0  0  0  0  0  0  0  0  0  0  0  0  # atno 17320 bound_to 7965
  144.7291  140.4616  143.6951 LP  0  0  0  0  0  0  0  0  0  0  0  0  # atno 17321 bound_to 7965
  140.0778  143.4998  152.2546 LP  0  0  0  0  0  0  0  0  0  0  0  0  # atno 17342 bound_to 10162
  139.5953  144.7565  151.3301 LP  0  0  0  0  0  0  0  0  0  0  0  0  # atno 17343 bound_to 10162
  156.0029  130.5112  150.7729 LP  0  0  0  0  0  0  0  0  0  0  0  0  # atno 17370 bound_to 10713
  157.5084  131.0923  151.0229 LP  0  0  0  0  0  0  0  0  0  0  0  0  # atno 17371 bound_to 10713
  140.7116  134.4455  157.5581 LP  0  0  0  0  0  0  0  0  0  0  0  0  # atno 17394 bound_to 11000
  139.8970  134.8646  156.2063 LP  0  0  0  0  0  0  0  0  0  0  0  0  # atno 17395 bound_to 11000

$$$$
