AV-unprocessed.smi:1|AV-procd|sdf|15|dock4
  -GOLD-   2262015113D 1   1.00000     0.00000
 Structure written by MMmdl.
 57 62  0  0  0  0  0  0  0  0  1 V2000
  153.7240  138.9389  158.5352 O   0  0  0  0  0  0  0  0  0  0  0  0
  153.5969  139.4084  159.6694 C   0  0  0  0  0  0  0  0  0  0  0  0
  153.7813  138.7846  160.8962 N   0  0  0  0  0  0  0  0  0  0  0  0
  154.0198  137.5094  160.9500 C   0  0  0  0  0  0  0  0  0  0  0  0
  154.1536  136.5281  159.9590 N   0  0  0  0  0  0  0  0  0  0  0  0
  154.4291  135.1695  160.1785 C   0  0  0  0  0  0  0  0  0  0  0  0
  154.5989  134.6222  161.3523 N   0  0  0  0  0  0  0  0  0  0  0  0
  154.4725  135.5542  162.3737 C   0  0  0  0  0  0  0  0  0  0  0  0
  154.2059  136.9036  162.2859 C   0  0  0  0  0  0  0  0  0  0  0  0
  154.1614  137.4834  163.5497 N   0  0  0  0  0  0  0  0  0  0  0  0
  154.4081  136.4514  164.3523 C   0  0  0  0  0  0  0  0  0  0  0  0
  154.6024  135.2732  163.7321 N   0  0  0  0  0  0  0  0  0  0  0  0
  154.9059  133.9675  164.3864 C   0  0  2  0  0  0  0  0  0  0  0  0
  153.8936  133.0651  164.0753 O   0  0  0  0  0  0  0  0  0  0  0  0
  153.6728  132.1742  165.1672 C   0  0  2  0  0  0  0  0  0  0  0  0
  152.1728  132.1847  165.4867 C   0  0  0  0  0  0  0  0  0  0  0  0
  151.8804  131.1515  166.4130 O   0  0  0  0  0  0  0  0  0  0  0  0
  150.6096  130.7387  166.5838 C   0  0  0  0  0  0  0  0  0  0  0  0
  149.7412  130.8260  165.7129 O   0  0  0  0  0  0  0  0  0  0  0  0
  150.3647  130.1602  167.9366 C   0  0  0  0  0  0  0  0  0  0  0  0
  149.0612  129.7335  168.2824 C   0  0  0  0  0  0  0  0  0  0  0  0
  148.8003  129.1796  169.5508 C   0  0  0  0  0  0  0  0  0  0  0  0
  149.8397  129.0468  170.4898 C   0  0  0  0  0  0  0  0  0  0  0  0
  151.1404  129.4692  170.1587 C   0  0  0  0  0  0  0  0  0  0  0  0
  151.4033  130.0227  168.8904 C   0  0  0  0  0  0  0  0  0  0  0  0
  154.5428  132.6809  166.3266 C   0  0  1  0  0  0  0  0  0  0  0  0
  155.7246  131.9041  166.4250 O   0  0  0  0  0  0  0  0  0  0  0  0
  157.0144  132.9323  166.6902 S   0  0  0  0  0  0  0  0  0  0  0  0
  157.3500  132.8929  168.1217 O   0  0  0  0  0  0  0  0  0  0  0  0
  158.0127  132.7003  165.6352 O   0  0  0  0  0  0  0  0  0  0  0  0
  156.2420  134.3805  166.3746 O   0  0  0  0  0  0  0  0  0  0  0  0
  154.9343  134.0997  165.9076 C   0  0  1  0  0  0  0  0  0  0  0  0
  153.2087  140.8456  159.7927 C   0  0  0  0  0  0  0  0  0  0  0  0
  152.0567  141.3256  159.1345 C   0  0  0  0  0  0  0  0  0  0  0  0
  151.6965  142.6833  159.2413 C   0  0  0  0  0  0  0  0  0  0  0  0
  152.4873  143.5642  160.0043 C   0  0  0  0  0  0  0  0  0  0  0  0
  153.6387  143.0879  160.6609 C   0  0  0  0  0  0  0  0  0  0  0  0
  154.0005  141.7307  160.5546 C   0  0  0  0  0  0  0  0  0  0  0  0
  154.4950  134.5769  159.2649 H   0  0  0  0  0  0  0  0  0  0  0  0
  154.4493  136.5560  165.4266 H   0  0  0  0  0  0  0  0  0  0  0  0
  155.8500  133.6284  163.9574 H   0  0  0  0  0  0  0  0  0  0  0  0
  153.9761  131.1705  164.8653 H   0  0  0  0  0  0  0  0  0  0  0  0
  151.8730  133.1546  165.8865 H   0  0  0  0  0  0  0  0  0  0  0  0
  151.6002  132.0150  164.5738 H   0  0  0  0  0  0  0  0  0  0  0  0
  148.2473  129.8244  167.5775 H   0  0  0  0  0  0  0  0  0  0  0  0
  147.8013  128.8556  169.8029 H   0  0  0  0  0  0  0  0  0  0  0  0
  149.6391  128.6220  171.4623 H   0  0  0  0  0  0  0  0  0  0  0  0
  151.9393  129.3682  170.8786 H   0  0  0  0  0  0  0  0  0  0  0  0
  152.4128  130.3374  168.6691 H   0  0  0  0  0  0  0  0  0  0  0  0
  154.0308  132.6620  167.2895 H   0  0  0  0  0  0  0  0  0  0  0  0
  154.2022  134.8308  166.2515 H   0  0  0  0  0  0  0  0  0  0  0  0
  151.4461  140.6561  158.5460 H   0  0  0  0  0  0  0  0  0  0  0  0
  150.8148  143.0492  158.7364 H   0  0  0  0  0  0  0  0  0  0  0  0
  152.2113  144.6053  160.0850 H   0  0  0  0  0  0  0  0  0  0  0  0
  154.2452  143.7639  161.2453 H   0  0  0  0  0  0  0  0  0  0  0  0
  154.8870  141.3732  161.0584 H   0  0  0  0  0  0  0  0  0  0  0  0
  154.0452  136.8276  159.0004 H   0  0  0  0  0  0  0  0  0  0  0  0
  1  2  2  0  0  0  0
  2  3  1  0  0  0  0
  2 33  1  0  0  0  0
  3  4  2  0  0  0  0
  4  9  1  0  0  0  0
  4  5  1  0  0  0  0
  5  6  1  0  0  0  0
  5 57  1  0  0  0  0
  6  7  2  0  0  0  0
  6 39  1  0  0  0  0
  7  8  1  0  0  0  0
  8 12  1  0  0  0  0
  8  9  2  0  0  0  0
  9 10  1  0  0  0  0
 10 11  2  0  0  0  0
 11 12  1  0  0  0  0
 11 40  1  0  0  0  0
 12 13  1  0  0  0  0
 13 32  1  0  0  0  0
 13 14  1  0  0  0  0
 13 41  1  0  0  0  0
 14 15  1  0  0  0  0
 15 16  1  0  0  0  0
 15 26  1  0  0  0  0
 15 42  1  0  0  0  0
 16 17  1  0  0  0  0
 16 43  1  0  0  0  0
 16 44  1  0  0  0  0
 17 18  1  0  0  0  0
 18 19  2  0  0  0  0
 18 20  1  0  0  0  0
 20 25  1  0  0  0  0
 20 21  2  0  0  0  0
 21 22  1  0  0  0  0
 21 45  1  0  0  0  0
 22 23  2  0  0  0  0
 22 46  1  0  0  0  0
 23 24  1  0  0  0  0
 23 47  1  0  0  0  0
 24 25  2  0  0  0  0
 24 48  1  0  0  0  0
 25 49  1  0  0  0  0
 26 32  1  0  0  0  0
 26 27  1  0  0  0  0
 26 50  1  0  0  0  0
 27 28  1  0  0  0  0
 28 29  2  0  0  0  0
 28 30  2  0  0  0  0
 28 31  1  0  0  0  0
 31 32  1  0  0  0  0
 32 51  1  0  0  0  0
 33 38  1  0  0  0  0
 33 34  2  0  0  0  0
 34 35  1  0  0  0  0
 34 52  1  0  0  0  0
 35 36  2  0  0  0  0
 35 53  1  0  0  0  0
 36 37  1  0  0  0  0
 36 54  1  0  0  0  0
 37 38  2  0  0  0  0
 37 55  1  0  0  0  0
 38 56  1  0  0  0  0
M  END
> <s_m_source_file>
AV-unprocessed.smi

> <i_m_source_file_index>
1

> <i_lp_mmshare_version>
43012

> <i_f3d_flags>
0

> <s_epik_input>
W2NIXTFbY0hdW2NIXVtjSF1bY0hdYzFDKD1PKVtOSF1jKG5bY0hdbjIpYyhjMjMpbltjSF1uM1tDQEBIXShbQ0BIXShbQ0BIXTQ1KU9TKE81KSg9Tyk9TylPW0NASF00W0NIMl1PQyg9TyljNltjSF1bY0hdW2NIXVtjSF1bY0hdNg==

> <s_epik_cmdline>
J2VwaWtfcHl0aG9uJywgJy1waCcsICc3LjAnLCAnLXRuJywgJzgnLCAnLW1hJywgJzIwMCcsICctbWV0YWxfYmluZGluZycsICctaW1hZScsICc8aW5maWxlLm1hZT4nLCAnLW9tYWUnLCAnPG91dGZpbGUubWFlPic=

> <r_epik_Ionization_Penalty>
0.122545

> <r_epik_Ionization_Penalty_Charging>
0.122545

> <r_epik_Ionization_Penalty_Neutral>
7.8935e-16

> <r_epik_State_Penalty>
2.69178

> <r_epik_Charging_Adjusted_Penalty>
2.81433

> <i_epik_Tot_Q>
0

> <i_epik_Tot_abs_Q>
0

> <r_epik_Metal_State_Penalty>
3.02665

> <b_epik_Metal_Only>
0

> <s_epik_Chemistry_Notes>
This compound has an ester and may undergo hydrolysis at high or low pH. This compound contains an acetal/aminal-like group ( X-CH(R)-Y where X, Y are N, S, or O) that may be acid/base labile, releasing an aldehyde.

> <s_lp_Force_Field>
OPLS_2005

> <r_lp_Energy>
60.8199

> <b_lp_Chiralities_Consistent>
1

> <s_lp_Variant>
AV-unprocessed.smi:1-15

> <Gold.Version>
5.8.1

> <Gold.Id.Protein>
6NUR|6NUR_protein|mol2

> <Gold.PLP.Fitness>
59.9139

> <Gold.PLP.PLP>
-59.7289

> <Gold.PLP.part.hbond>
-1.0000

> <Gold.PLP.part.metal>
0.0000

> <Gold.PLP.part.buried>
-9.2194

> <Gold.PLP.part.nonpolar>
-50.3179

> <Gold.PLP.part.repulsive>
0.3398

> <Gold.PLP.ligand.clash>
0.0000

> <Gold.PLP.ligand.torsion>
1.4843

> <Gold.PLP.Chemscore.Hbond>
1.0000

> <Gold.PLP.Chemscore.CHOScore>
0.0000

> <Gold.PLP.Chemscore.Metal>
0.0000

> <Gold.Chemscore.Hbonds>
donor molecule, donor type, donor heavy atom, donor atom, acceptor molecule, acceptor atom, score
      P1  H  7997  8009       L1     1  0.89

> <Gold.PLP.Chemscore.Internal.Correction>
0.1536

> <Gold.Rescore>
     Score         DG    S(hbond)    S(metal)    S(lipo)     H(rot)  DE(clash)    DE(int)     intcor
     19.01     -20.41       0.93        0.00     147.69       2.13       0.35       1.05       ----

> <Gold.Chemscore.Fitness>
19.0099

> <Gold.Chemscore.DG>
-20.4085

> <Gold.Chemscore.ZeroCoef>
-5.4800

> <Gold.Chemscore.Hbond>
0.9311

> <Gold.Chemscore.Metal>
0.0000

> <Gold.Chemscore.Lipo>
147.6926

> <Gold.Chemscore.Internal_Hbond>
0.0000

> <Gold.Chemscore.DEClash>
0.3463

> <Gold.Chemscore.DEInternal>
1.0523

> <Gold.Chemscore.Rot>
2.1333

> <Gold.Chemscore.Internal.Correction>
   9.000000E+99

> <Gold.Chemscore.Hbonds>
donor molecule, donor type, donor heavy atom, donor atom, acceptor molecule, acceptor atom, score
      P1  H  7997  8009       L1     1  0.83

> <Gold.Chemscore.Hbond.Weighted>
-3.1099

> <Gold.Chemscore.Metal.Weighted>
-0.0000

> <Gold.Chemscore.Lipo.Weighted>
-17.2800

> <Gold.Chemscore.Internal_Hbond.Weighted>
0.0000

> <Gold.Chemscore.DEClash.Weighted>
0.3463

> <Gold.Chemscore.DEInternal.Weighted>
1.0523

> <Gold.Chemscore.Rot.Weighted>
5.4614

> <Gold.Chemscore.Internal.Correction.Weighted>
   9.000000E+99

> <Gold.Protein.RotatedTorsions>
[ 6907 6896 6895 6894 ] final  147.69 input  -60.11 | X-H torsion
[ 7974 7965 7964 7962 ] final  -48.98 input  175.53 | X-H torsion
[ 8008 7997 7996 7995 ] final  159.10 input   59.86 | X-H torsion
[ 10167 10162 10161 10158 ] final  -56.75 input  -65.29 | X-H torsion
[ 10718 10713 10712 10709 ] final -156.15 input   66.30 | X-H torsion
[ 10763 10752 10751 10750 ] final  -40.03 input  -60.55 | X-H torsion
[ 11005 11000 10999 10996 ] final  -87.09 input  -57.11 | X-H torsion

> <Gold.Protein.ActiveResidues>
 VAL166  LYS551  ARG553  GLY616  TRP617  ASP618  TYR619  PRO620  LYS621  CYS622 
 ASP623  PHE694  ASN695  SER759  ASP760  ASP761  ALA762  ILE779  LEU786  VAL792 
 PHE793  MET794  SER795  GLU796  ALA797  LYS798  CYS799  TRP800  GLU811  SER814 

> <Gold.Protein.RotatedAtoms>
  152.1514  133.4524  159.4815 H   0  0  0  0  0  0  0  0  0  0  0  0  # atno 6907 bound_to 6896
  150.6896  134.2184  159.4396 H   0  0  0  0  0  0  0  0  0  0  0  0  # atno 6908 bound_to 6896
  152.0081  134.9891  160.0618 H   0  0  0  0  0  0  0  0  0  0  0  0  # atno 6909 bound_to 6896
  145.9454  140.7623  142.9531 H   0  0  0  0  0  0  0  0  0  0  0  0  # atno 7974 bound_to 7965
  156.2260  140.1840  156.7361 H   0  0  0  0  0  0  0  0  0  0  0  0  # atno 8008 bound_to 7997
  154.5942  140.0646  156.9309 H   0  0  0  0  0  0  0  0  0  0  0  0  # atno 8009 bound_to 7997
  155.2283  140.3313  155.4309 H   0  0  0  0  0  0  0  0  0  0  0  0  # atno 8010 bound_to 7997
  140.6299  143.2454  151.5269 H   0  0  0  0  0  0  0  0  0  0  0  0  # atno 10167 bound_to 10162
  156.5226  130.8485  151.2687 H   0  0  0  0  0  0  0  0  0  0  0  0  # atno 10718 bound_to 10713
  153.9392  135.6763  153.4744 H   0  0  0  0  0  0  0  0  0  0  0  0  # atno 10763 bound_to 10752
  153.0940  135.4860  154.8741 H   0  0  0  0  0  0  0  0  0  0  0  0  # atno 10764 bound_to 10752
  154.7386  135.3155  154.8725 H   0  0  0  0  0  0  0  0  0  0  0  0  # atno 10765 bound_to 10752
  141.1621  133.7491  156.9256 H   0  0  0  0  0  0  0  0  0  0  0  0  # atno 11005 bound_to 11000
  144.6786  140.2348  143.7351 LP  0  0  0  0  0  0  0  0  0  0  0  0  # atno 17320 bound_to 7965
  145.8243  139.2058  143.1919 LP  0  0  0  0  0  0  0  0  0  0  0  0  # atno 17321 bound_to 7965
  139.5514  144.2386  152.1537 LP  0  0  0  0  0  0  0  0  0  0  0  0  # atno 17342 bound_to 10162
  140.1627  144.5011  150.6624 LP  0  0  0  0  0  0  0  0  0  0  0  0  # atno 17343 bound_to 10162
  157.7434  130.9912  150.2592 LP  0  0  0  0  0  0  0  0  0  0  0  0  # atno 17370 bound_to 10713
  156.3135  130.3775  149.7640 LP  0  0  0  0  0  0  0  0  0  0  0  0  # atno 17371 bound_to 10713
  140.1421  134.9286  157.2481 LP  0  0  0  0  0  0  0  0  0  0  0  0  # atno 17394 bound_to 11000
  140.2823  134.3335  155.7339 LP  0  0  0  0  0  0  0  0  0  0  0  0  # atno 17395 bound_to 11000

$$$$
