AV-unprocessed.smi:84|AV-procd|sdf|809|dock9
  -GOLD-   2262017203D 1   1.00000     0.00000
 Structure written by MMmdl.
 51 55  0  0  0  0  0  0  0  0  1 V2000
  148.3658  144.3277  161.2501 O   0  0  0  0  0  0  0  0  0  0  0  0
  149.4418  144.6526  160.7535 C   0  0  0  0  0  0  0  0  0  0  0  0
  150.0669  143.9507  159.5586 C   0  0  0  0  0  0  0  0  0  0  0  0
  151.5279  144.4486  159.5984 C   0  0  2  0  0  0  0  0  0  0  0  0
  152.1818  144.5438  158.2137 C   0  0  0  0  0  0  0  0  0  0  0  0
  152.6904  143.1249  157.9660 C   0  0  0  0  0  0  0  0  0  0  0  0
  153.0539  142.6268  159.2844 N   0  0  0  0  0  0  0  0  0  0  0  0
  153.4029  141.3311  159.4941 C   0  0  0  0  0  0  0  0  0  0  0  0
  153.0641  140.4052  158.5578 N   0  0  0  0  0  0  0  0  0  0  0  0
  153.3889  139.1203  158.7243 C   0  0  0  0  0  0  0  0  0  0  0  0
  154.0449  138.5504  159.7357 N   0  0  0  0  0  0  0  0  0  0  0  0
  154.3979  139.4719  160.6765 C   0  0  0  0  0  0  0  0  0  0  0  0
  154.1272  140.8702  160.6336 C   0  0  0  0  0  0  0  0  0  0  0  0
  154.6724  141.4838  161.7566 N   0  0  0  0  0  0  0  0  0  0  0  0
  155.2252  140.5080  162.4232 C   0  0  0  0  0  0  0  0  0  0  0  0
  155.0844  139.2609  161.8594 N   0  0  0  0  0  0  0  0  0  0  0  0
  155.6192  138.0252  162.3509 C   0  0  0  0  0  0  0  0  0  0  0  0
  154.9828  136.6866  161.9657 C   0  0  0  0  0  0  0  0  0  0  0  0
  155.3840  136.1136  163.3451 C   0  0  0  0  0  0  0  0  0  0  0  0
  154.3677  135.1968  164.0546 C   0  0  0  0  0  0  0  0  0  0  0  0
  154.6247  135.0686  165.4387 O   0  0  0  0  0  0  0  0  0  0  0  0
  156.7491  135.4013  163.3926 C   0  0  0  0  0  0  0  0  0  0  0  0
  157.1502  135.1370  164.7216 O   0  0  0  0  0  0  0  0  0  0  0  0
  155.4237  137.5887  163.8072 C   0  0  0  0  0  0  0  0  0  0  0  0
  152.4329  143.4321  160.3274 C   0  0  0  0  0  0  0  0  0  0  0  0
  151.4230  145.7876  160.3582 C   0  0  0  0  0  0  0  0  0  0  0  0
  150.2244  145.6497  161.1636 N   0  0  0  0  0  0  0  0  0  0  0  0
  149.9782  142.8659  159.6289 H   0  0  0  0  0  0  0  0  0  0  0  0
  149.5509  144.2784  158.6553 H   0  0  0  0  0  0  0  0  0  0  0  0
  151.5059  144.8944  157.4332 H   0  0  0  0  0  0  0  0  0  0  0  0
  153.0289  145.2304  158.2511 H   0  0  0  0  0  0  0  0  0  0  0  0
  151.8987  142.5051  157.5419 H   0  0  0  0  0  0  0  0  0  0  0  0
  153.5410  143.1148  157.2837 H   0  0  0  0  0  0  0  0  0  0  0  0
  153.0774  138.4534  157.9338 H   0  0  0  0  0  0  0  0  0  0  0  0
  155.7506  140.6754  163.3522 H   0  0  0  0  0  0  0  0  0  0  0  0
  156.6786  138.0344  162.0902 H   0  0  0  0  0  0  0  0  0  0  0  0
  153.9043  136.7697  161.8225 H   0  0  0  0  0  0  0  0  0  0  0  0
  155.4488  136.2011  161.1080 H   0  0  0  0  0  0  0  0  0  0  0  0
  153.3517  135.5771  163.9447 H   0  0  0  0  0  0  0  0  0  0  0  0
  154.3781  134.1973  163.6189 H   0  0  0  0  0  0  0  0  0  0  0  0
  155.2569  134.3773  165.5642 H   0  0  0  0  0  0  0  0  0  0  0  0
  156.7212  134.4512  162.8586 H   0  0  0  0  0  0  0  0  0  0  0  0
  157.5208  135.9997  162.9070 H   0  0  0  0  0  0  0  0  0  0  0  0
  156.7137  134.3521  165.0161 H   0  0  0  0  0  0  0  0  0  0  0  0
  156.2549  137.8401  164.4668 H   0  0  0  0  0  0  0  0  0  0  0  0
  154.4798  137.9434  164.2237 H   0  0  0  0  0  0  0  0  0  0  0  0
  153.2277  143.9336  160.8802 H   0  0  0  0  0  0  0  0  0  0  0  0
  151.8650  142.8271  161.0352 H   0  0  0  0  0  0  0  0  0  0  0  0
  152.2969  146.0024  160.9739 H   0  0  0  0  0  0  0  0  0  0  0  0
  151.2837  146.6219  159.6692 H   0  0  0  0  0  0  0  0  0  0  0  0
  150.0138  146.2569  161.9426 H   0  0  0  0  0  0  0  0  0  0  0  0
  1  2  2  0  0  0  0
  2 27  1  0  0  0  0
  2  3  1  0  0  0  0
  3  4  1  0  0  0  0
  3 28  1  0  0  0  0
  3 29  1  0  0  0  0
  4 25  1  0  0  0  0
  4  5  1  0  0  0  0
  4 26  1  0  0  0  0
  5  6  1  0  0  0  0
  5 30  1  0  0  0  0
  5 31  1  0  0  0  0
  6  7  1  0  0  0  0
  6 32  1  0  0  0  0
  6 33  1  0  0  0  0
  7  8  1  0  0  0  0
  7 25  1  0  0  0  0
  8 13  1  0  0  0  0
  8  9  2  0  0  0  0
  9 10  1  0  0  0  0
 10 11  2  0  0  0  0
 10 34  1  0  0  0  0
 11 12  1  0  0  0  0
 12 16  1  0  0  0  0
 12 13  2  0  0  0  0
 13 14  1  0  0  0  0
 14 15  2  0  0  0  0
 15 16  1  0  0  0  0
 15 35  1  0  0  0  0
 16 17  1  0  0  0  0
 17 24  1  0  0  0  0
 17 18  1  0  0  0  0
 17 36  1  0  0  0  0
 18 19  1  0  0  0  0
 18 37  1  0  0  0  0
 18 38  1  0  0  0  0
 19 20  1  0  0  0  0
 19 22  1  0  0  0  0
 19 24  1  0  0  0  0
 20 21  1  0  0  0  0
 20 39  1  0  0  0  0
 20 40  1  0  0  0  0
 21 41  1  0  0  0  0
 22 23  1  0  0  0  0
 22 42  1  0  0  0  0
 22 43  1  0  0  0  0
 23 44  1  0  0  0  0
 24 45  1  0  0  0  0
 24 46  1  0  0  0  0
 25 47  1  0  0  0  0
 25 48  1  0  0  0  0
 26 27  1  0  0  0  0
 26 49  1  0  0  0  0
 26 50  1  0  0  0  0
 27 51  1  0  0  0  0
M  END
> <s_m_source_file>
AV-unprocessed.smi

> <i_m_source_file_index>
84

> <i_lp_mmshare_version>
43012

> <i_f3d_flags>
0

> <s_epik_input>
W0NIMl0xW05IXUMoPU8pW0NIMl1bQ0BdMTJbQ0gyXVtDSDJdTihbQ0gyXTIpYyhuW2NIXW4zKWMoYzM0KW5bY0hdbjRbQ0hdKFtDSDJdNSlbQ0gyXUM1KFtDSDJdW09IXSlbQ0gyXVtPSF0=

> <s_epik_cmdline>
J2VwaWtfcHl0aG9uJywgJy1waCcsICc3LjAnLCAnLXRuJywgJzgnLCAnLW1hJywgJzIwMCcsICctbWV0YWxfYmluZGluZycsICctaW1hZScsICc8aW5maWxlLm1hZT4nLCAnLW9tYWUnLCAnPG91dGZpbGUubWFlPic=

> <r_lp_tautomer_probability>
1

> <r_epik_Ionization_Penalty>
0.00201507

> <r_epik_Ionization_Penalty_Charging>
0

> <r_epik_Ionization_Penalty_Neutral>
0.00201507

> <r_epik_State_Penalty>
0.00133787

> <r_epik_Charging_Adjusted_Penalty>
0.00133787

> <i_epik_Tot_Q>
0

> <i_epik_Tot_abs_Q>
0

> <r_epik_Metal_State_Penalty>
-0

> <b_epik_Metal_Only>
0

> <s_lp_Force_Field>
OPLS_2005

> <r_lp_Energy>
68.8544

> <b_lp_Chiralities_Consistent>
1

> <s_lp_Variant>
AV-unprocessed.smi:84-2

> <Gold.Version>
5.8.1

> <Gold.Id.Protein>
6NUR|6NUR_protein|mol2

> <Gold.PLP.Fitness>
48.5243

> <Gold.PLP.PLP>
-47.1358

> <Gold.PLP.part.hbond>
-4.3295

> <Gold.PLP.part.metal>
0.0000

> <Gold.PLP.part.buried>
-3.9191

> <Gold.PLP.part.nonpolar>
-39.9649

> <Gold.PLP.part.repulsive>
1.3266

> <Gold.PLP.ligand.clash>
0.0000

> <Gold.PLP.ligand.torsion>
1.1270

> <Gold.PLP.Chemscore.Hbond>
1.0000

> <Gold.PLP.Chemscore.CHOScore>
0.0000

> <Gold.PLP.Chemscore.Metal>
0.0000

> <Gold.Chemscore.Hbonds>
donor molecule, donor type, donor heavy atom, donor atom, acceptor molecule, acceptor atom, score
      P1  H  6933  6944       L1     1  0.94

> <Gold.PLP.Chemscore.Internal.Correction>
0.6425

> <Gold.Rescore>
     Score         DG    S(hbond)    S(metal)    S(lipo)     H(rot)  DE(clash)    DE(int)     intcor
      5.61     -12.40       0.48        0.00     110.27       2.96       4.85       1.95       ----

> <Gold.Chemscore.Fitness>
5.6098

> <Gold.Chemscore.DG>
-12.4028

> <Gold.Chemscore.ZeroCoef>
-5.4800

> <Gold.Chemscore.Hbond>
0.4824

> <Gold.Chemscore.Metal>
0.0000

> <Gold.Chemscore.Lipo>
110.2721

> <Gold.Chemscore.Internal_Hbond>
0.0000

> <Gold.Chemscore.DEClash>
4.8462

> <Gold.Chemscore.DEInternal>
1.9468

> <Gold.Chemscore.Rot>
2.9649

> <Gold.Chemscore.Internal.Correction>
   9.000000E+99

> <Gold.Chemscore.Hbonds>
donor molecule, donor type, donor heavy atom, donor atom, acceptor molecule, acceptor atom, score
      P1  H  6933  6944       L1     1  0.35

> <Gold.Chemscore.Hbond.Weighted>
-1.6111

> <Gold.Chemscore.Metal.Weighted>
-0.0000

> <Gold.Chemscore.Lipo.Weighted>
-12.9018

> <Gold.Chemscore.Internal_Hbond.Weighted>
0.0000

> <Gold.Chemscore.DEClash.Weighted>
4.8462

> <Gold.Chemscore.DEInternal.Weighted>
1.9468

> <Gold.Chemscore.Rot.Weighted>
7.5902

> <Gold.Chemscore.Internal.Correction.Weighted>
   9.000000E+99

> <Gold.Protein.RotatedTorsions>
[ 6907 6896 6895 6894 ] final -132.62 input  -60.11 | X-H torsion
[ 7974 7965 7964 7962 ] final  -95.85 input  175.53 | X-H torsion
[ 8008 7997 7996 7995 ] final   24.19 input   59.86 | X-H torsion
[ 10167 10162 10161 10158 ] final   52.97 input  -65.29 | X-H torsion
[ 10718 10713 10712 10709 ] final   -2.27 input   66.30 | X-H torsion
[ 10763 10752 10751 10750 ] final  145.87 input  -60.55 | X-H torsion
[ 11005 11000 10999 10996 ] final  171.60 input  -57.11 | X-H torsion

> <Gold.Protein.ActiveResidues>
 VAL166  LYS551  ARG553  GLY616  TRP617  ASP618  TYR619  PRO620  LYS621  CYS622 
 ASP623  PHE694  ASN695  SER759  ASP760  ASP761  ALA762  ILE779  LEU786  VAL792 
 PHE793  MET794  SER795  GLU796  ALA797  LYS798  CYS799  TRP800  GLU811  SER814 

> <Gold.Protein.RotatedAtoms>
  150.9645  133.6409  159.2748 H   0  0  0  0  0  0  0  0  0  0  0  0  # atno 6907 bound_to 6896
  151.3720  135.0923  159.9478 H   0  0  0  0  0  0  0  0  0  0  0  0  # atno 6908 bound_to 6896
  152.5160  133.9197  159.7583 H   0  0  0  0  0  0  0  0  0  0  0  0  # atno 6909 bound_to 6896
  145.3546  140.9482  143.2535 H   0  0  0  0  0  0  0  0  0  0  0  0  # atno 7974 bound_to 7965
  154.9925  140.3115  155.4900 H   0  0  0  0  0  0  0  0  0  0  0  0  # atno 8008 bound_to 7997
  156.2937  140.2246  156.4971 H   0  0  0  0  0  0  0  0  0  0  0  0  # atno 8009 bound_to 7997
  154.7690  140.0453  157.1024 H   0  0  0  0  0  0  0  0  0  0  0  0  # atno 8010 bound_to 7997
  140.2457  144.3534  150.6365 H   0  0  0  0  0  0  0  0  0  0  0  0  # atno 10167 bound_to 10162
  156.7932  130.5368  149.5732 H   0  0  0  0  0  0  0  0  0  0  0  0  # atno 10718 bound_to 10713
  154.0125  135.2913  155.3390 H   0  0  0  0  0  0  0  0  0  0  0  0  # atno 10763 bound_to 10752
  154.7094  135.5155  153.8647 H   0  0  0  0  0  0  0  0  0  0  0  0  # atno 10764 bound_to 10752
  153.0716  135.6650  154.0355 H   0  0  0  0  0  0  0  0  0  0  0  0  # atno 10765 bound_to 10752
  140.3208  134.7439  157.4062 H   0  0  0  0  0  0  0  0  0  0  0  0  # atno 11005 bound_to 11000
  144.8692  139.5063  143.6776 LP  0  0  0  0  0  0  0  0  0  0  0  0  # atno 17320 bound_to 7965
  146.2953  139.7260  142.9131 LP  0  0  0  0  0  0  0  0  0  0  0  0  # atno 17321 bound_to 7965
  140.6079  143.2168  151.6944 LP  0  0  0  0  0  0  0  0  0  0  0  0  # atno 17342 bound_to 10162
  139.5062  144.3688  152.0490 LP  0  0  0  0  0  0  0  0  0  0  0  0  # atno 17343 bound_to 10162
  156.1146  130.6065  151.0100 LP  0  0  0  0  0  0  0  0  0  0  0  0  # atno 17370 bound_to 10713
  157.6590  131.0884  150.7882 LP  0  0  0  0  0  0  0  0  0  0  0  0  # atno 17371 bound_to 10713
  140.0944  134.5557  155.8413 LP  0  0  0  0  0  0  0  0  0  0  0  0  # atno 17394 bound_to 11000
  141.2087  133.6676  156.6389 LP  0  0  0  0  0  0  0  0  0  0  0  0  # atno 17395 bound_to 11000

$$$$
