AV-unprocessed.smi:951|AV-procd|sdf|4253|dock1
  -GOLD-   22720 2163D 1   1.00000     0.00000
 Structure written by MMmdl.
 52 54  0  0  0  0  0  0  0  0  2 V2000
  152.9696  142.6196  161.6072 O   0  0  0  0  0  0  0  0  0  0  0  0
  153.3648  142.1358  160.5453 C   0  0  0  0  0  0  0  0  0  0  0  0
  154.0774  141.0014  160.4753 N   0  0  0  0  0  0  0  0  0  0  0  0
  154.4545  140.1814  161.6198 C   0  0  0  0  0  0  0  0  0  0  0  0
  154.2195  138.6863  161.3476 C   0  0  0  0  0  0  0  0  0  0  0  0
  154.6225  137.8205  162.5250 C   0  0  0  0  0  0  0  0  0  0  0  0
  153.7116  136.9554  163.1693 C   0  0  0  0  0  0  0  0  0  0  0  0
  154.1525  136.1828  164.2641 C   0  0  0  0  0  0  0  0  0  0  0  0
  155.4923  136.2920  164.6911 C   0  0  0  0  0  0  0  0  0  0  0  0
  156.3584  137.1737  164.0125 C   0  0  0  0  0  0  0  0  0  0  0  0
  155.8984  137.8967  162.9679 N   0  3  0  0  0  0  0  0  0  0  0  0
  153.0738  142.8416  159.2063 C   0  0  2  0  0  0  0  0  0  0  0  0
  152.4426  144.2172  159.4737 C   0  0  0  0  0  0  0  0  0  0  0  0
  151.5629  144.4766  158.2676 C   0  0  0  0  0  0  0  0  0  0  0  0
  151.1255  143.0890  157.8028 C   0  0  0  0  0  0  0  0  0  0  0  0
  152.1183  142.1423  158.3216 N   0  0  0  0  0  0  0  0  0  0  0  0
  152.1940  140.8348  157.9592 C   0  0  0  0  0  0  0  0  0  0  0  0
  153.1279  140.1178  158.3202 O   0  0  0  0  0  0  0  0  0  0  0  0
  151.0901  140.2256  157.0586 C   0  0  0  0  0  0  0  0  0  0  0  0
  150.3877  138.9966  157.6916 C   0  0  0  0  0  0  0  0  0  0  0  0
  151.1993  137.6875  157.6095 C   0  0  0  0  0  0  0  0  0  0  0  0
  151.6772  137.4064  156.1774 C   0  0  0  0  0  0  0  0  0  0  0  0
  152.4652  138.5965  155.6120 C   0  0  0  0  0  0  0  0  0  0  0  0
  151.6210  139.8829  155.6469 C   0  0  0  0  0  0  0  0  0  0  0  0
  154.3663  140.6776  159.5633 H   0  0  0  0  0  0  0  0  0  0  0  0
  155.4981  140.3671  161.8799 H   0  0  0  0  0  0  0  0  0  0  0  0
  153.8600  140.5011  162.4761 H   0  0  0  0  0  0  0  0  0  0  0  0
  153.1680  138.5098  161.1167 H   0  0  0  0  0  0  0  0  0  0  0  0
  154.7841  138.3662  160.4708 H   0  0  0  0  0  0  0  0  0  0  0  0
  152.6876  136.8846  162.8320 H   0  0  0  0  0  0  0  0  0  0  0  0
  153.4707  135.5152  164.7705 H   0  0  0  0  0  0  0  0  0  0  0  0
  155.8499  135.7086  165.5270 H   0  0  0  0  0  0  0  0  0  0  0  0
  157.3966  137.3214  164.2715 H   0  0  0  0  0  0  0  0  0  0  0  0
  154.0014  142.9685  158.6447 H   0  0  0  0  0  0  0  0  0  0  0  0
  151.8136  144.1981  160.3659 H   0  0  0  0  0  0  0  0  0  0  0  0
  153.1898  144.9985  159.6161 H   0  0  0  0  0  0  0  0  0  0  0  0
  150.7223  145.1356  158.4864 H   0  0  0  0  0  0  0  0  0  0  0  0
  152.1589  144.9483  157.4851 H   0  0  0  0  0  0  0  0  0  0  0  0
  150.1506  142.8511  158.2306 H   0  0  0  0  0  0  0  0  0  0  0  0
  151.0420  143.0516  156.7159 H   0  0  0  0  0  0  0  0  0  0  0  0
  150.3007  140.9657  156.9398 H   0  0  0  0  0  0  0  0  0  0  0  0
  150.1313  139.2039  158.7315 H   0  0  0  0  0  0  0  0  0  0  0  0
  149.4362  138.8431  157.1806 H   0  0  0  0  0  0  0  0  0  0  0  0
  152.0575  137.7257  158.2793 H   0  0  0  0  0  0  0  0  0  0  0  0
  150.5871  136.8564  157.9608 H   0  0  0  0  0  0  0  0  0  0  0  0
  152.2956  136.5085  156.1616 H   0  0  0  0  0  0  0  0  0  0  0  0
  150.8173  137.2013  155.5385 H   0  0  0  0  0  0  0  0  0  0  0  0
  153.3860  138.7341  156.1796 H   0  0  0  0  0  0  0  0  0  0  0  0
  152.7683  138.3834  154.5866 H   0  0  0  0  0  0  0  0  0  0  0  0
  150.7737  139.7677  154.9699 H   0  0  0  0  0  0  0  0  0  0  0  0
  152.2063  140.7126  155.2490 H   0  0  0  0  0  0  0  0  0  0  0  0
  156.5425  138.5289  162.4915 H   0  0  0  0  0  0  0  0  0  0  0  0
  1  2  2  0  0  0  0
  2  3  1  0  0  0  0
  2 12  1  0  0  0  0
  3  4  1  0  0  0  0
  3 25  1  0  0  0  0
  4  5  1  0  0  0  0
  4 26  1  0  0  0  0
  4 27  1  0  0  0  0
  5  6  1  0  0  0  0
  5 28  1  0  0  0  0
  5 29  1  0  0  0  0
  6 11  1  0  0  0  0
  6  7  2  0  0  0  0
  7  8  1  0  0  0  0
  7 30  1  0  0  0  0
  8  9  2  0  0  0  0
  8 31  1  0  0  0  0
  9 10  1  0  0  0  0
  9 32  1  0  0  0  0
 10 11  2  0  0  0  0
 10 33  1  0  0  0  0
 11 52  1  0  0  0  0
 12 16  1  0  0  0  0
 12 13  1  0  0  0  0
 12 34  1  0  0  0  0
 13 14  1  0  0  0  0
 13 35  1  0  0  0  0
 13 36  1  0  0  0  0
 14 15  1  0  0  0  0
 14 37  1  0  0  0  0
 14 38  1  0  0  0  0
 15 16  1  0  0  0  0
 15 39  1  0  0  0  0
 15 40  1  0  0  0  0
 16 17  1  0  0  0  0
 17 18  2  0  0  0  0
 17 19  1  0  0  0  0
 19 24  1  0  0  0  0
 19 20  1  0  0  0  0
 19 41  1  0  0  0  0
 20 21  1  0  0  0  0
 20 42  1  0  0  0  0
 20 43  1  0  0  0  0
 21 22  1  0  0  0  0
 21 44  1  0  0  0  0
 21 45  1  0  0  0  0
 22 23  1  0  0  0  0
 22 46  1  0  0  0  0
 22 47  1  0  0  0  0
 23 24  1  0  0  0  0
 23 48  1  0  0  0  0
 23 49  1  0  0  0  0
 24 50  1  0  0  0  0
 24 51  1  0  0  0  0
M  CHG  1  11   1
M  END
> <s_m_source_file>
AV-unprocessed.smi

> <i_m_source_file_index>
951

> <i_lp_mmshare_version>
43012

> <i_f3d_flags>
0

> <s_epik_input>
bjFbY0hdW2NIXVtjSF1bY0hdYzFbQ0gyXVtDSDJdW05IXUMoPU8pW0NAQEhdMltDSDJdW0NIMl1bQ0gyXU4yQyg9TylbQ0hdM1tDSDJdW0NIMl1bQ0gyXVtDSDJdW0NIMl0z

> <s_epik_cmdline>
J2VwaWtfcHl0aG9uJywgJy1waCcsICc3LjAnLCAnLXRuJywgJzgnLCAnLW1hJywgJzIwMCcsICctbWV0YWxfYmluZGluZycsICctaW1hZScsICc8aW5maWxlLm1hZT4nLCAnLW9tYWUnLCAnPG91dGZpbGUubWFlPic=

> <r_epik_Ionization_Penalty>
1.85306

> <r_epik_Ionization_Penalty_Charging>
1.85306

> <r_epik_Ionization_Penalty_Neutral>
5.78903e-08

> <r_epik_State_Penalty>
1.97071

> <r_epik_Charging_Adjusted_Penalty>
3.82377

> <i_epik_Tot_Q>
1

> <i_epik_Tot_abs_Q>
1

> <r_epik_Metal_State_Penalty>
1.99634

> <b_epik_Metal_Only>
0

> <s_lp_Force_Field>
OPLS_2005

> <r_lp_Energy>
27.2114

> <b_lp_Chiralities_Consistent>
1

> <s_lp_Variant>
AV-unprocessed.smi:951-3

> <Gold.Version>
5.8.1

> <Gold.Id.Protein>
6NUR|6NUR_protein|mol2

> <Gold.PLP.Fitness>
51.5829

> <Gold.PLP.PLP>
-49.1458

> <Gold.PLP.part.hbond>
-1.0000

> <Gold.PLP.part.metal>
0.0000

> <Gold.PLP.part.buried>
-5.0298

> <Gold.PLP.part.nonpolar>
-42.7519

> <Gold.PLP.part.repulsive>
0.0936

> <Gold.PLP.ligand.clash>
0.0000

> <Gold.PLP.ligand.torsion>
0.3374

> <Gold.PLP.Chemscore.Hbond>
1.0000

> <Gold.PLP.Chemscore.CHOScore>
0.0000

> <Gold.PLP.Chemscore.Metal>
0.0000

> <Gold.Chemscore.Hbonds>
donor molecule, donor type, donor heavy atom, donor atom, acceptor molecule, acceptor atom, score
      P1  H  7997  8010       L1    18  0.99

> <Gold.PLP.Chemscore.Internal.Correction>
0.1120

> <Gold.Rescore>
     Score         DG    S(hbond)    S(metal)    S(lipo)     H(rot)  DE(clash)    DE(int)     intcor
     16.43     -19.57       0.89        0.00     131.18       1.65       0.01       3.13       ----

> <Gold.Chemscore.Fitness>
16.4331

> <Gold.Chemscore.DG>
-19.5702

> <Gold.Chemscore.ZeroCoef>
-5.4800

> <Gold.Chemscore.Hbond>
0.8916

> <Gold.Chemscore.Metal>
0.0000

> <Gold.Chemscore.Lipo>
131.1825

> <Gold.Chemscore.Internal_Hbond>
0.0000

> <Gold.Chemscore.DEClash>
0.0108

> <Gold.Chemscore.DEInternal>
3.1264

> <Gold.Chemscore.Rot>
1.6548

> <Gold.Chemscore.Internal.Correction>
   9.000000E+99

> <Gold.Chemscore.Hbonds>
donor molecule, donor type, donor heavy atom, donor atom, acceptor molecule, acceptor atom, score
      P1  H  7997  8010       L1    18  0.73

> <Gold.Chemscore.Hbond.Weighted>
-2.9780

> <Gold.Chemscore.Metal.Weighted>
-0.0000

> <Gold.Chemscore.Lipo.Weighted>
-15.3483

> <Gold.Chemscore.Internal_Hbond.Weighted>
0.0000

> <Gold.Chemscore.DEClash.Weighted>
0.0108

> <Gold.Chemscore.DEInternal.Weighted>
3.1264

> <Gold.Chemscore.Rot.Weighted>
4.2362

> <Gold.Chemscore.Internal.Correction.Weighted>
   9.000000E+99

> <Gold.Protein.RotatedTorsions>
[ 6907 6896 6895 6894 ] final  -97.93 input  -60.11 | X-H torsion
[ 7974 7965 7964 7962 ] final    6.71 input  175.53 | X-H torsion
[ 8008 7997 7996 7995 ] final   39.42 input   59.86 | X-H torsion
[ 10167 10162 10161 10158 ] final   51.04 input  -65.29 | X-H torsion
[ 10718 10713 10712 10709 ] final   70.12 input   66.30 | X-H torsion
[ 10763 10752 10751 10750 ] final    6.52 input  -60.55 | X-H torsion
[ 11005 11000 10999 10996 ] final   88.17 input  -57.11 | X-H torsion

> <Gold.Protein.ActiveResidues>
 VAL166  LYS551  ARG553  GLY616  TRP617  ASP618  TYR619  PRO620  LYS621  CYS622 
 ASP623  PHE694  ASN695  SER759  ASP760  ASP761  ALA762  ILE779  LEU786  VAL792 
 PHE793  MET794  SER795  GLU796  ALA797  LYS798  CYS799  TRP800  GLU811  SER814 

> <Gold.Protein.RotatedAtoms>
  150.7031  134.1272  159.4056 H   0  0  0  0  0  0  0  0  0  0  0  0  # atno 6907 bound_to 6896
  151.9258  135.0276  160.0535 H   0  0  0  0  0  0  0  0  0  0  0  0  # atno 6908 bound_to 6896
  152.2217  133.4953  159.5203 H   0  0  0  0  0  0  0  0  0  0  0  0  # atno 6909 bound_to 6896
  146.2432  140.0192  142.8399 H   0  0  0  0  0  0  0  0  0  0  0  0  # atno 7974 bound_to 7965
  155.2363  140.3342  155.4297 H   0  0  0  0  0  0  0  0  0  0  0  0  # atno 8008 bound_to 7997
  156.2274  140.1835  156.7374 H   0  0  0  0  0  0  0  0  0  0  0  0  # atno 8009 bound_to 7997
  154.5921  140.0636  156.9238 H   0  0  0  0  0  0  0  0  0  0  0  0  # atno 8010 bound_to 7997
  140.2661  144.3319  150.6303 H   0  0  0  0  0  0  0  0  0  0  0  0  # atno 10167 bound_to 10162
  157.6383  130.9461  150.0607 H   0  0  0  0  0  0  0  0  0  0  0  0  # atno 10718 bound_to 10713
  153.2468  135.6909  153.7722 H   0  0  0  0  0  0  0  0  0  0  0  0  # atno 10763 bound_to 10752
  153.6832  135.3325  155.3184 H   0  0  0  0  0  0  0  0  0  0  0  0  # atno 10764 bound_to 10752
  154.8378  135.4527  154.1410 H   0  0  0  0  0  0  0  0  0  0  0  0  # atno 10765 bound_to 10752
  139.8902  134.8470  156.2963 H   0  0  0  0  0  0  0  0  0  0  0  0  # atno 11005 bound_to 11000
  145.1256  140.9488  143.4574 LP  0  0  0  0  0  0  0  0  0  0  0  0  # atno 17320 bound_to 7965
  145.0438  139.3238  143.5963 LP  0  0  0  0  0  0  0  0  0  0  0  0  # atno 17321 bound_to 7965
  140.5927  143.2167  151.7222 LP  0  0  0  0  0  0  0  0  0  0  0  0  # atno 17342 bound_to 10162
  139.5002  144.3914  152.0276 LP  0  0  0  0  0  0  0  0  0  0  0  0  # atno 17343 bound_to 10162
  156.1641  130.3644  149.9258 LP  0  0  0  0  0  0  0  0  0  0  0  0  # atno 17370 bound_to 10713
  156.7249  130.9021  151.3621 LP  0  0  0  0  0  0  0  0  0  0  0  0  # atno 17371 bound_to 10713
  140.9943  133.7190  156.0862 LP  0  0  0  0  0  0  0  0  0  0  0  0  # atno 17394 bound_to 11000
  140.7583  134.3967  157.5530 LP  0  0  0  0  0  0  0  0  0  0  0  0  # atno 17395 bound_to 11000

$$$$
