AV-unprocessed.smi:610|AV-procd|sdf|3053|dock5
  -GOLD-   2262023573D 1   1.00000     0.00000
 Structure written by MMmdl.
 39 40  0  0  0  0  0  0  0  0  3 V2000
  143.0878  137.6933  154.5972 C   0  0  0  0  0  0  0  0  0  0  0  0
  142.4397  137.4877  153.2217 C   0  0  2  0  0  0  0  0  0  0  0  0
  141.2716  136.4815  153.2999 C   0  0  0  0  0  0  0  0  0  0  0  0
  139.9901  137.1138  153.6333 N   0  0  0  0  0  0  0  0  0  0  0  0
  139.1463  136.7879  154.6643 C   0  0  0  0  0  0  0  0  0  0  0  0
  138.0794  137.6452  154.5826 C   0  0  0  0  0  0  0  0  0  0  0  0
  138.3119  138.4511  153.5003 N   0  3  0  0  0  0  0  0  0  0  0  0
  139.4707  138.1220  152.9204 C   0  0  0  0  0  0  0  0  0  0  0  0
  143.4630  137.0303  152.2821 N   0  0  0  0  0  0  0  0  0  0  0  0
  144.2801  135.9764  152.4530 C   0  0  0  0  0  0  0  0  0  0  0  0
  144.2317  135.2615  153.4544 O   0  0  0  0  0  0  0  0  0  0  0  0
  145.2986  135.6518  151.3342 C   0  0  0  0  0  0  0  0  0  0  0  0
  146.1207  136.8585  151.1282 N   0  3  0  0  0  0  0  0  0  0  0  0
  146.1758  134.4121  151.6072 C   0  0  0  0  0  0  0  0  0  0  0  0
  145.3017  133.2085  151.2302 C   0  0  0  0  0  0  0  0  0  0  0  0
  144.2982  133.7304  150.1897 C   0  0  0  0  0  0  0  0  0  0  0  0
  144.5867  135.2310  150.0342 C   0  0  0  0  0  0  0  0  0  0  0  0
  142.3623  138.0654  155.3211 H   0  0  0  0  0  0  0  0  0  0  0  0
  143.8997  138.4194  154.5456 H   0  0  0  0  0  0  0  0  0  0  0  0
  143.4978  136.7613  154.9880 H   0  0  0  0  0  0  0  0  0  0  0  0
  142.0504  138.4565  152.9037 H   0  0  0  0  0  0  0  0  0  0  0  0
  141.1621  135.9386  152.3594 H   0  0  0  0  0  0  0  0  0  0  0  0
  141.4672  135.7365  154.0724 H   0  0  0  0  0  0  0  0  0  0  0  0
  139.3653  135.9947  155.3648 H   0  0  0  0  0  0  0  0  0  0  0  0
  137.1946  137.7377  155.1958 H   0  0  0  0  0  0  0  0  0  0  0  0
  139.9031  138.5850  152.0511 H   0  0  0  0  0  0  0  0  0  0  0  0
  143.5593  137.5645  151.4303 H   0  0  0  0  0  0  0  0  0  0  0  0
  145.8518  137.5699  151.7927 H   0  0  0  0  0  0  0  0  0  0  0  0
  145.9851  137.2042  150.1888 H   0  0  0  0  0  0  0  0  0  0  0  0
  147.0457  134.4317  150.9483 H   0  0  0  0  0  0  0  0  0  0  0  0
  146.5664  134.3439  152.6232 H   0  0  0  0  0  0  0  0  0  0  0  0
  145.9008  132.3830  150.8447 H   0  0  0  0  0  0  0  0  0  0  0  0
  144.7671  132.8417  152.1072 H   0  0  0  0  0  0  0  0  0  0  0  0
  144.3939  133.2096  149.2364 H   0  0  0  0  0  0  0  0  0  0  0  0
  143.2789  133.5745  150.5442 H   0  0  0  0  0  0  0  0  0  0  0  0
  143.6809  135.7989  149.8176 H   0  0  0  0  0  0  0  0  0  0  0  0
  145.2557  135.3766  149.1842 H   0  0  0  0  0  0  0  0  0  0  0  0
  147.0945  136.6241  151.2603 H   0  0  0  0  0  0  0  0  0  0  0  0
  137.6933  139.1855  153.1791 H   0  0  0  0  0  0  0  0  0  0  0  0
  1  2  1  0  0  0  0
  1 18  1  0  0  0  0
  1 19  1  0  0  0  0
  1 20  1  0  0  0  0
  2  3  1  0  0  0  0
  2  9  1  0  0  0  0
  2 21  1  0  0  0  0
  3  4  1  0  0  0  0
  3 22  1  0  0  0  0
  3 23  1  0  0  0  0
  4  8  1  0  0  0  0
  4  5  1  0  0  0  0
  5  6  2  0  0  0  0
  5 24  1  0  0  0  0
  6  7  1  0  0  0  0
  6 25  1  0  0  0  0
  7  8  2  0  0  0  0
  7 39  1  0  0  0  0
  8 26  1  0  0  0  0
  9 10  1  0  0  0  0
  9 27  1  0  0  0  0
 10 11  2  0  0  0  0
 10 12  1  0  0  0  0
 12 17  1  0  0  0  0
 12 13  1  0  0  0  0
 12 14  1  0  0  0  0
 13 28  1  0  0  0  0
 13 29  1  0  0  0  0
 13 38  1  0  0  0  0
 14 15  1  0  0  0  0
 14 30  1  0  0  0  0
 14 31  1  0  0  0  0
 15 16  1  0  0  0  0
 15 32  1  0  0  0  0
 15 33  1  0  0  0  0
 16 17  1  0  0  0  0
 16 34  1  0  0  0  0
 16 35  1  0  0  0  0
 17 36  1  0  0  0  0
 17 37  1  0  0  0  0
M  CHG  1   7   1
M  CHG  1  13   1
M  END
> <s_m_source_file>
AV-unprocessed.smi

> <i_m_source_file_index>
610

> <i_lp_mmshare_version>
43012

> <i_f3d_flags>
0

> <s_epik_input>
W2NIXTFuW2NIXVtjSF1uMVtDSDJdW0NAQEhdKFtDSDNdKVtOSF1DKD1PKUMyKFtOSDJdKVtDSDJdW0NIMl1bQ0gyXVtDSDJdMg==

> <s_epik_cmdline>
J2VwaWtfcHl0aG9uJywgJy1waCcsICc3LjAnLCAnLXRuJywgJzgnLCAnLW1hJywgJzIwMCcsICctbWV0YWxfYmluZGluZycsICctaW1hZScsICc8aW5maWxlLm1hZT4nLCAnLW9tYWUnLCAnPG91dGZpbGUubWFlPic=

> <r_lp_tautomer_probability>
1

> <r_epik_Ionization_Penalty>
0.349719

> <r_epik_Ionization_Penalty_Charging>
0.0753376

> <r_epik_Ionization_Penalty_Neutral>
0.274381

> <r_epik_State_Penalty>
0.326418

> <r_epik_Charging_Adjusted_Penalty>
0.401755

> <i_epik_Tot_Q>
2

> <i_epik_Tot_abs_Q>
2

> <r_epik_Metal_State_Penalty>
0.608513

> <b_epik_Metal_Only>
0

> <s_lp_Force_Field>
OPLS_2005

> <r_lp_Energy>
30.886

> <b_lp_Chiralities_Consistent>
1

> <s_lp_Variant>
AV-unprocessed.smi:610-1

> <Gold.Version>
5.8.1

> <Gold.Id.Protein>
6NUR|6NUR_protein|mol2

> <Gold.PLP.Fitness>
45.5803

> <Gold.PLP.PLP>
-31.4621

> <Gold.PLP.part.hbond>
-2.7937

> <Gold.PLP.part.metal>
0.0000

> <Gold.PLP.part.buried>
-3.7082

> <Gold.PLP.part.nonpolar>
-24.9186

> <Gold.PLP.part.repulsive>
0.1944

> <Gold.PLP.ligand.clash>
0.0000

> <Gold.PLP.ligand.torsion>
0.4710

> <Gold.PLP.Chemscore.Hbond>
3.0000

> <Gold.PLP.Chemscore.CHOScore>
2.0000

> <Gold.PLP.Chemscore.Metal>
0.0000

> <Gold.Chemscore.Hbonds>
donor molecule, donor type, donor heavy atom, donor atom, acceptor molecule, acceptor atom, score
      L1  H     9    27       P1 10171  1.00
      L1  H    13    38       P1  7948  2.00
      L1  C     5    24       P1 11000  1.00
      L1  C     8    26       P1 10160  1.00

> <Gold.PLP.Chemscore.Internal.Correction>
0.0603

> <Gold.Rescore>
     Score         DG    S(hbond)    S(metal)    S(lipo)     H(rot)  DE(clash)    DE(int)     intcor
     11.34     -13.37       1.97        0.00      56.27       2.06       0.44       1.59       ----

> <Gold.Chemscore.Fitness>
11.3382

> <Gold.Chemscore.DG>
-13.3709

> <Gold.Chemscore.ZeroCoef>
-5.4800

> <Gold.Chemscore.Hbond>
1.9737

> <Gold.Chemscore.Metal>
0.0000

> <Gold.Chemscore.Lipo>
56.2677

> <Gold.Chemscore.Internal_Hbond>
0.0000

> <Gold.Chemscore.DEClash>
0.4414

> <Gold.Chemscore.DEInternal>
1.5912

> <Gold.Chemscore.Rot>
2.0644

> <Gold.Chemscore.Internal.Correction>
   9.000000E+99

> <Gold.Chemscore.Hbonds>
donor molecule, donor type, donor heavy atom, donor atom, acceptor molecule, acceptor atom, score
      L1  H     9    27       P1 10171  0.97
      L1  H    13    38       P1  7948  0.99

> <Gold.Chemscore.Hbond.Weighted>
-6.5923

> <Gold.Chemscore.Metal.Weighted>
-0.0000

> <Gold.Chemscore.Lipo.Weighted>
-6.5833

> <Gold.Chemscore.Internal_Hbond.Weighted>
0.0000

> <Gold.Chemscore.DEClash.Weighted>
0.4414

> <Gold.Chemscore.DEInternal.Weighted>
1.5912

> <Gold.Chemscore.Rot.Weighted>
5.2848

> <Gold.Chemscore.Internal.Correction.Weighted>
   9.000000E+99

> <Gold.Protein.RotatedTorsions>
[ 6907 6896 6895 6894 ] final -176.34 input  -60.11 | X-H torsion
[ 7974 7965 7964 7962 ] final   22.65 input  175.53 | X-H torsion
[ 8008 7997 7996 7995 ] final  137.33 input   59.86 | X-H torsion
[ 10167 10162 10161 10158 ] final   22.56 input  -65.29 | X-H torsion
[ 10718 10713 10712 10709 ] final  110.13 input   66.30 | X-H torsion
[ 10763 10752 10751 10750 ] final  -69.69 input  -60.55 | X-H torsion
[ 11005 11000 10999 10996 ] final -143.01 input  -57.11 | X-H torsion

> <Gold.Protein.ActiveResidues>
 VAL166  LYS551  ARG553  GLY616  TRP617  ASP618  TYR619  PRO620  LYS621  CYS622 
 ASP623  PHE694  ASN695  SER759  ASP760  ASP761  ALA762  ILE779  LEU786  VAL792 
 PHE793  MET794  SER795  GLU796  ALA797  LYS798  CYS799  TRP800  GLU811  SER814 

> <Gold.Protein.RotatedAtoms>
  151.6032  133.3354  159.3051 H   0  0  0  0  0  0  0  0  0  0  0  0  # atno 6907 bound_to 6896
  150.8196  134.7400  159.6772 H   0  0  0  0  0  0  0  0  0  0  0  0  # atno 6908 bound_to 6896
  152.4290  134.5819  160.0001 H   0  0  0  0  0  0  0  0  0  0  0  0  # atno 6909 bound_to 6896
  146.2019  139.7855  142.8755 H   0  0  0  0  0  0  0  0  0  0  0  0  # atno 7974 bound_to 7965
  156.3002  140.2422  156.3892 H   0  0  0  0  0  0  0  0  0  0  0  0  # atno 8008 bound_to 7997
  154.8629  140.0419  157.1696 H   0  0  0  0  0  0  0  0  0  0  0  0  # atno 8009 bound_to 7997
  154.8877  140.2958  155.5392 H   0  0  0  0  0  0  0  0  0  0  0  0  # atno 8010 bound_to 7997
  140.5338  143.9795  150.6480 H   0  0  0  0  0  0  0  0  0  0  0  0  # atno 10167 bound_to 10162
  157.6509  131.0927  150.6556 H   0  0  0  0  0  0  0  0  0  0  0  0  # atno 10718 bound_to 10713
  154.4070  135.6018  153.5930 H   0  0  0  0  0  0  0  0  0  0  0  0  # atno 10763 bound_to 10752
  152.9789  135.5920  154.4116 H   0  0  0  0  0  0  0  0  0  0  0  0  # atno 10764 bound_to 10752
  154.3923  135.2842  155.2126 H   0  0  0  0  0  0  0  0  0  0  0  0  # atno 10765 bound_to 10752
  140.8168  134.2678  157.4917 H   0  0  0  0  0  0  0  0  0  0  0  0  # atno 11005 bound_to 11000
  145.3453  141.0296  143.3369 LP  0  0  0  0  0  0  0  0  0  0  0  0  # atno 17320 bound_to 7965
  144.8703  139.5047  143.6771 LP  0  0  0  0  0  0  0  0  0  0  0  0  # atno 17321 bound_to 7965
  140.3177  143.3157  152.0815 LP  0  0  0  0  0  0  0  0  0  0  0  0  # atno 17342 bound_to 10162
  139.4964  144.6594  151.6498 LP  0  0  0  0  0  0  0  0  0  0  0  0  # atno 17343 bound_to 10162
  156.6867  130.4583  149.5612 LP  0  0  0  0  0  0  0  0  0  0  0  0  # atno 17370 bound_to 10713
  156.1891  130.6548  151.1040 LP  0  0  0  0  0  0  0  0  0  0  0  0  # atno 17371 bound_to 10713
  139.8710  134.9514  156.4083 LP  0  0  0  0  0  0  0  0  0  0  0  0  # atno 17394 bound_to 11000
  140.9140  133.7691  155.9826 LP  0  0  0  0  0  0  0  0  0  0  0  0  # atno 17395 bound_to 11000

$$$$
