AV-unprocessed.smi:1931|AV-procd|sdf|7812|dock4
  -GOLD-   22720 9553D 1   1.00000     0.00000
 Structure written by MMmdl.
 48 49  0  0  0  0  0  0  0  0  1 V2000
  144.2340  133.9180  150.8126 C   0  0  0  0  0  0  0  0  0  0  0  0
  143.4208  134.9095  151.4148 O   0  0  0  0  0  0  0  0  0  0  0  0
  144.1146  135.6594  152.3982 C   0  0  0  0  0  0  0  0  0  0  0  0
  145.2411  136.4479  151.7232 C   0  0  0  0  0  0  0  0  0  0  0  0
  145.7810  137.3761  152.6495 O   0  0  0  0  0  0  0  0  0  0  0  0
  146.6796  138.2903  152.0434 C   0  0  0  0  0  0  0  0  0  0  0  0
  147.2866  139.1710  153.1327 C   0  0  0  0  0  0  0  0  0  0  0  0
  146.5915  140.0324  153.6696 O   0  0  0  0  0  0  0  0  0  0  0  0
  148.5722  138.9131  153.4368 N   0  0  0  0  0  0  0  0  0  0  0  0
  149.4216  139.5575  154.3781 C   0  0  0  0  0  0  0  0  0  0  0  0
  150.7303  139.1303  154.7090 C   0  0  0  0  0  0  0  0  0  0  0  0
  151.4589  139.8517  155.6739 C   0  0  0  0  0  0  0  0  0  0  0  0
  150.8557  140.9741  156.2856 C   0  0  0  0  0  0  0  0  0  0  0  0
  151.5282  141.7357  157.2506 N   0  0  0  0  0  0  0  0  0  0  0  0
  150.7739  142.8878  157.7276 C   0  0  0  0  0  0  0  0  0  0  0  0
  151.6334  143.7467  158.6764 C   0  0  2  0  0  0  0  0  0  0  0  0
  152.7098  144.5745  157.9517 C   0  0  0  0  0  0  0  0  0  0  0  0
  152.1880  142.9293  159.7112 O   0  0  0  0  0  0  0  0  0  0  0  0
  152.9461  141.8092  159.2514 C   0  0  1  0  0  0  0  0  0  0  0  0
  153.4437  141.0371  160.4775 C   0  0  0  0  0  0  0  0  0  0  0  0
  152.0672  140.9342  158.3391 C   0  0  0  0  0  0  0  0  0  0  0  0
  149.6058  141.3824  155.9793 N   0  0  0  0  0  0  0  0  0  0  0  0
  148.9129  140.6864  155.0534 C   0  0  0  0  0  0  0  0  0  0  0  0
  143.6540  133.3714  150.0692 H   0  0  0  0  0  0  0  0  0  0  0  0
  144.5952  133.2015  151.5513 H   0  0  0  0  0  0  0  0  0  0  0  0
  145.0920  134.3642  150.3080 H   0  0  0  0  0  0  0  0  0  0  0  0
  143.4391  136.3325  152.9285 H   0  0  0  0  0  0  0  0  0  0  0  0
  144.5418  134.9758  153.1337 H   0  0  0  0  0  0  0  0  0  0  0  0
  146.0296  135.7625  151.4092 H   0  0  0  0  0  0  0  0  0  0  0  0
  144.8695  136.9514  150.8294 H   0  0  0  0  0  0  0  0  0  0  0  0
  147.4735  137.7592  151.5155 H   0  0  0  0  0  0  0  0  0  0  0  0
  146.1557  138.9129  151.3162 H   0  0  0  0  0  0  0  0  0  0  0  0
  148.9844  138.1281  152.9536 H   0  0  0  0  0  0  0  0  0  0  0  0
  151.1881  138.2645  154.2581 H   0  0  0  0  0  0  0  0  0  0  0  0
  152.4607  139.5438  155.9353 H   0  0  0  0  0  0  0  0  0  0  0  0
  150.4267  143.4846  156.8832 H   0  0  0  0  0  0  0  0  0  0  0  0
  149.8869  142.5433  158.2607 H   0  0  0  0  0  0  0  0  0  0  0  0
  150.9710  144.4568  159.1719 H   0  0  0  0  0  0  0  0  0  0  0  0
  152.2512  145.2781  157.2567 H   0  0  0  0  0  0  0  0  0  0  0  0
  153.3934  143.9518  157.3752 H   0  0  0  0  0  0  0  0  0  0  0  0
  153.3009  145.1514  158.6632 H   0  0  0  0  0  0  0  0  0  0  0  0
  153.8164  142.1582  158.6952 H   0  0  0  0  0  0  0  0  0  0  0  0
  154.0325  140.1687  160.1817 H   0  0  0  0  0  0  0  0  0  0  0  0
  152.6110  140.6850  161.0871 H   0  0  0  0  0  0  0  0  0  0  0  0
  154.0740  141.6677  161.1052 H   0  0  0  0  0  0  0  0  0  0  0  0
  151.2475  140.4994  158.9131 H   0  0  0  0  0  0  0  0  0  0  0  0
  152.6519  140.1071  157.9338 H   0  0  0  0  0  0  0  0  0  0  0  0
  147.9160  141.0461  154.8437 H   0  0  0  0  0  0  0  0  0  0  0  0
  1  2  1  0  0  0  0
  1 24  1  0  0  0  0
  1 25  1  0  0  0  0
  1 26  1  0  0  0  0
  2  3  1  0  0  0  0
  3  4  1  0  0  0  0
  3 27  1  0  0  0  0
  3 28  1  0  0  0  0
  4  5  1  0  0  0  0
  4 29  1  0  0  0  0
  4 30  1  0  0  0  0
  5  6  1  0  0  0  0
  6  7  1  0  0  0  0
  6 31  1  0  0  0  0
  6 32  1  0  0  0  0
  7  8  2  0  0  0  0
  7  9  1  0  0  0  0
  9 10  1  0  0  0  0
  9 33  1  0  0  0  0
 10 23  1  0  0  0  0
 10 11  2  0  0  0  0
 11 12  1  0  0  0  0
 11 34  1  0  0  0  0
 12 13  2  0  0  0  0
 12 35  1  0  0  0  0
 13 14  1  0  0  0  0
 13 22  1  0  0  0  0
 14 21  1  0  0  0  0
 14 15  1  0  0  0  0
 15 16  1  0  0  0  0
 15 36  1  0  0  0  0
 15 37  1  0  0  0  0
 16 17  1  0  0  0  0
 16 18  1  0  0  0  0
 16 38  1  0  0  0  0
 17 39  1  0  0  0  0
 17 40  1  0  0  0  0
 17 41  1  0  0  0  0
 18 19  1  0  0  0  0
 19 20  1  0  0  0  0
 19 21  1  0  0  0  0
 19 42  1  0  0  0  0
 20 43  1  0  0  0  0
 20 44  1  0  0  0  0
 20 45  1  0  0  0  0
 21 46  1  0  0  0  0
 21 47  1  0  0  0  0
 22 23  2  0  0  0  0
 23 48  1  0  0  0  0
M  END
> <s_m_source_file>
AV-unprocessed.smi

> <i_m_source_file_index>
1931

> <i_lp_mmshare_version>
43012

> <i_f3d_flags>
0

> <s_epik_input>
W0NIM11PW0NIMl1bQ0gyXU9bQ0gyXUMoPU8pW05IXWMxW2NIXVtjSF1jKG5bY0hdMSlOMltDSDJdW0NAQEhdKFtDSDNdKU9bQ0BASF0oW0NIM10pW0NIMl0y

> <s_epik_cmdline>
J2VwaWtfcHl0aG9uJywgJy1waCcsICc3LjAnLCAnLXRuJywgJzgnLCAnLW1hJywgJzIwMCcsICctbWV0YWxfYmluZGluZycsICctaW1hZScsICc8aW5maWxlLm1hZT4nLCAnLW9tYWUnLCAnPG91dGZpbGUubWFlPic=

> <r_lp_tautomer_probability>
1

> <r_epik_Ionization_Penalty>
0.000582342

> <r_epik_Ionization_Penalty_Charging>
0

> <r_epik_Ionization_Penalty_Neutral>
0.000582342

> <r_epik_State_Penalty>
0.00036524

> <r_epik_Charging_Adjusted_Penalty>
0.00036524

> <i_epik_Tot_Q>
0

> <i_epik_Tot_abs_Q>
0

> <r_epik_Metal_State_Penalty>
-0

> <b_epik_Metal_Only>
0

> <s_lp_Force_Field>
OPLS_2005

> <r_lp_Energy>
28.1169

> <b_lp_Chiralities_Consistent>
1

> <s_lp_Variant>
AV-unprocessed.smi:1931-2

> <Gold.Version>
5.8.1

> <Gold.Id.Protein>
6NUR|6NUR_protein|mol2

> <Gold.PLP.Fitness>
46.4757

> <Gold.PLP.PLP>
-44.6756

> <Gold.PLP.part.hbond>
-1.8541

> <Gold.PLP.part.metal>
0.0000

> <Gold.PLP.part.buried>
-2.7170

> <Gold.PLP.part.nonpolar>
-41.3661

> <Gold.PLP.part.repulsive>
0.7663

> <Gold.PLP.ligand.clash>
0.0000

> <Gold.PLP.ligand.torsion>
0.2739

> <Gold.PLP.Chemscore.Hbond>
0.7150

> <Gold.PLP.Chemscore.CHOScore>
0.0000

> <Gold.PLP.Chemscore.Metal>
0.0000

> <Gold.Chemscore.Hbonds>
donor molecule, donor type, donor heavy atom, donor atom, acceptor molecule, acceptor atom, score
      L1  H     9    33       P1  7948  0.68

> <Gold.PLP.Chemscore.Internal.Correction>
0.2029

> <Gold.Rescore>
     Score         DG    S(hbond)    S(metal)    S(lipo)     H(rot)  DE(clash)    DE(int)     intcor
     13.47     -15.31       0.43        0.00     114.21       1.93       0.16       1.68       ----

> <Gold.Chemscore.Fitness>
13.4673

> <Gold.Chemscore.DG>
-15.3111

> <Gold.Chemscore.ZeroCoef>
-5.4800

> <Gold.Chemscore.Hbond>
0.4256

> <Gold.Chemscore.Metal>
0.0000

> <Gold.Chemscore.Lipo>
114.2148

> <Gold.Chemscore.Internal_Hbond>
0.0000

> <Gold.Chemscore.DEClash>
0.1606

> <Gold.Chemscore.DEInternal>
1.6832

> <Gold.Chemscore.Rot>
1.9349

> <Gold.Chemscore.Internal.Correction>
   9.000000E+99

> <Gold.Chemscore.Hbonds>
donor molecule, donor type, donor heavy atom, donor atom, acceptor molecule, acceptor atom, score
      L1  H     9    33       P1  7948  0.66

> <Gold.Chemscore.Hbond.Weighted>
-1.4213

> <Gold.Chemscore.Metal.Weighted>
-0.0000

> <Gold.Chemscore.Lipo.Weighted>
-13.3631

> <Gold.Chemscore.Internal_Hbond.Weighted>
0.0000

> <Gold.Chemscore.DEClash.Weighted>
0.1606

> <Gold.Chemscore.DEInternal.Weighted>
1.6832

> <Gold.Chemscore.Rot.Weighted>
4.9534

> <Gold.Chemscore.Internal.Correction.Weighted>
   9.000000E+99

> <Gold.Protein.RotatedTorsions>
[ 6907 6896 6895 6894 ] final  -54.71 input  -60.11 | X-H torsion
[ 7974 7965 7964 7962 ] final  121.28 input  175.53 | X-H torsion
[ 8008 7997 7996 7995 ] final  154.81 input   59.86 | X-H torsion
[ 10167 10162 10161 10158 ] final  138.58 input  -65.29 | X-H torsion
[ 10718 10713 10712 10709 ] final   24.11 input   66.30 | X-H torsion
[ 10763 10752 10751 10750 ] final  -25.68 input  -60.55 | X-H torsion
[ 11005 11000 10999 10996 ] final  -45.28 input  -57.11 | X-H torsion

> <Gold.Protein.ActiveResidues>
 VAL166  LYS551  ARG553  GLY616  TRP617  ASP618  TYR619  PRO620  LYS621  CYS622 
 ASP623  PHE694  ASN695  SER759  ASP760  ASP761  ALA762  ILE779  LEU786  VAL792 
 PHE793  MET794  SER795  GLU796  ALA797  LYS798  CYS799  TRP800  GLU811  SER814 

> <Gold.Protein.RotatedAtoms>
  150.8314  134.7569  159.6856 H   0  0  0  0  0  0  0  0  0  0  0  0  # atno 6907 bound_to 6896
  152.4418  134.5572  159.9893 H   0  0  0  0  0  0  0  0  0  0  0  0  # atno 6908 bound_to 6896
  151.5732  133.3349  159.3029 H   0  0  0  0  0  0  0  0  0  0  0  0  # atno 6909 bound_to 6896
  145.1212  139.3388  143.4713 H   0  0  0  0  0  0  0  0  0  0  0  0  # atno 7974 bound_to 7965
  156.2511  140.1956  156.6705 H   0  0  0  0  0  0  0  0  0  0  0  0  # atno 8008 bound_to 7997
  154.6397  140.0585  156.9856 H   0  0  0  0  0  0  0  0  0  0  0  0  # atno 8009 bound_to 7997
  155.1582  140.3257  155.4419 H   0  0  0  0  0  0  0  0  0  0  0  0  # atno 8010 bound_to 7997
  139.5106  144.6345  151.5733 H   0  0  0  0  0  0  0  0  0  0  0  0  # atno 10167 bound_to 10162
  157.1753  130.6778  149.6093 H   0  0  0  0  0  0  0  0  0  0  0  0  # atno 10718 bound_to 10713
  153.7037  135.6955  153.5056 H   0  0  0  0  0  0  0  0  0  0  0  0  # atno 10763 bound_to 10752
  153.2323  135.4333  155.0608 H   0  0  0  0  0  0  0  0  0  0  0  0  # atno 10764 bound_to 10752
  154.8336  135.3487  154.6576 H   0  0  0  0  0  0  0  0  0  0  0  0  # atno 10765 bound_to 10752
  141.0505  133.6744  156.2991 H   0  0  0  0  0  0  0  0  0  0  0  0  # atno 11005 bound_to 11000
  146.3521  140.1172  142.8601 LP  0  0  0  0  0  0  0  0  0  0  0  0  # atno 17320 bound_to 7965
  145.0738  140.9174  143.4866 LP  0  0  0  0  0  0  0  0  0  0  0  0  # atno 17321 bound_to 7965
  140.6089  143.9473  150.6438 LP  0  0  0  0  0  0  0  0  0  0  0  0  # atno 17342 bound_to 10162
  140.2709  143.3456  152.1238 LP  0  0  0  0  0  0  0  0  0  0  0  0  # atno 17343 bound_to 10162
  155.9732  130.4665  150.6291 LP  0  0  0  0  0  0  0  0  0  0  0  0  # atno 17370 bound_to 10713
  157.4004  131.0809  151.1314 LP  0  0  0  0  0  0  0  0  0  0  0  0  # atno 17371 bound_to 10713
  140.6064  134.5503  157.5526 LP  0  0  0  0  0  0  0  0  0  0  0  0  # atno 17394 bound_to 11000
  139.9347  134.7898  156.0836 LP  0  0  0  0  0  0  0  0  0  0  0  0  # atno 17395 bound_to 11000

$$$$
