AV-unprocessed.smi:284|AV-procd|sdf|2160|dock9
  -GOLD-   2262021513D 1   1.00000     0.00000
 Structure written by MMmdl.
 60 62  0  0  0  0  0  0  0  0  1 V2000
  146.1934  128.2001  152.3700 C   0  0  0  0  0  0  0  0  0  0  0  0
  146.8788  129.5144  152.7091 C   0  0  0  0  0  0  0  0  0  0  0  0
  146.4960  130.6882  152.1559 C   0  0  0  0  0  0  0  0  0  0  0  0
  147.0969  131.9000  152.4420 N   0  0  0  0  0  0  0  0  0  0  0  0
  146.6298  133.1833  151.7904 C   0  0  1  0  0  0  0  0  0  0  0  0
  146.4210  132.9746  150.2886 C   0  0  0  0  0  0  0  0  0  0  0  0
  144.9180  132.8035  150.2010 C   0  0  2  0  0  0  0  0  0  0  0  0
  144.4387  133.1902  148.9296 O   0  0  0  0  0  0  0  0  0  0  0  0
  144.4262  133.7279  151.3176 C   0  0  1  0  0  0  0  0  0  0  0  0
  143.0305  133.3649  151.8488 C   0  0  0  0  0  0  0  0  0  0  0  0
  142.8286  133.9460  153.1193 O   0  0  0  0  0  0  0  0  0  0  0  0
  145.4028  133.5607  152.3441 O   0  0  0  0  0  0  0  0  0  0  0  0
  148.1899  131.9434  153.3312 C   0  0  0  0  0  0  0  0  0  0  0  0
  148.7617  133.0074  153.5799 O   0  0  0  0  0  0  0  0  0  0  0  0
  148.6152  130.7344  153.9267 N   0  0  0  0  0  0  0  0  0  0  0  0
  149.7419  130.7829  154.8852 C   0  0  0  0  0  0  0  0  0  0  0  0
  149.5455  131.8249  155.9975 C   0  0  0  0  0  0  0  0  0  0  0  0
  150.0782  132.9319  155.9106 O   0  0  0  0  0  0  0  0  0  0  0  0
  148.7385  131.4426  157.0041 N   0  0  0  0  0  0  0  0  0  0  0  0
  148.3844  132.1495  158.1859 C   0  0  0  0  0  0  0  0  0  0  0  0
  147.7414  131.4195  159.2041 C   0  0  0  0  0  0  0  0  0  0  0  0
  147.3775  132.0395  160.4149 C   0  0  0  0  0  0  0  0  0  0  0  0
  147.6562  133.4098  160.6409 C   0  0  0  0  0  0  0  0  0  0  0  0
  147.2760  134.1251  161.9515 C   0  0  0  0  0  0  0  0  0  0  0  0
  146.5618  133.1348  162.8953 C   0  0  0  0  0  0  0  0  0  0  0  0
  146.3281  135.3258  161.7306 C   0  0  0  0  0  0  0  0  0  0  0  0
  148.5508  134.6557  162.6396 C   0  0  0  0  0  0  0  0  0  0  0  0
  148.3127  134.1327  159.6174 C   0  0  0  0  0  0  0  0  0  0  0  0
  148.6799  133.5144  158.4073 C   0  0  0  0  0  0  0  0  0  0  0  0
  147.9899  129.4906  153.6635 C   0  0  0  0  0  0  0  0  0  0  0  0
  148.3766  128.4619  154.2214 O   0  0  0  0  0  0  0  0  0  0  0  0
  145.3864  128.3370  151.6494 H   0  0  0  0  0  0  0  0  0  0  0  0
  145.7662  127.7501  153.2669 H   0  0  0  0  0  0  0  0  0  0  0  0
  146.9079  127.4974  151.9402 H   0  0  0  0  0  0  0  0  0  0  0  0
  145.6789  130.6681  151.4509 H   0  0  0  0  0  0  0  0  0  0  0  0
  147.3725  133.9468  152.0257 H   0  0  0  0  0  0  0  0  0  0  0  0
  146.7445  133.8803  149.7732 H   0  0  0  0  0  0  0  0  0  0  0  0
  146.9890  132.1274  149.9020 H   0  0  0  0  0  0  0  0  0  0  0  0
  144.6444  131.7672  150.4042 H   0  0  0  0  0  0  0  0  0  0  0  0
  145.1283  133.6482  148.4738 H   0  0  0  0  0  0  0  0  0  0  0  0
  144.4591  134.7627  150.9704 H   0  0  0  0  0  0  0  0  0  0  0  0
  142.2620  133.7619  151.1848 H   0  0  0  0  0  0  0  0  0  0  0  0
  142.8894  132.2850  151.8976 H   0  0  0  0  0  0  0  0  0  0  0  0
  142.6968  133.2541  153.7493 H   0  0  0  0  0  0  0  0  0  0  0  0
  149.9140  129.8141  155.3562 H   0  0  0  0  0  0  0  0  0  0  0  0
  150.6770  130.9875  154.3605 H   0  0  0  0  0  0  0  0  0  0  0  0
  148.2924  130.5440  156.8908 H   0  0  0  0  0  0  0  0  0  0  0  0
  147.5188  130.3723  159.0597 H   0  0  0  0  0  0  0  0  0  0  0  0
  146.8834  131.4320  161.1567 H   0  0  0  0  0  0  0  0  0  0  0  0
  146.2603  133.6196  163.8246 H   0  0  0  0  0  0  0  0  0  0  0  0
  147.1989  132.2935  163.1681 H   0  0  0  0  0  0  0  0  0  0  0  0
  145.6620  132.7278  162.4324 H   0  0  0  0  0  0  0  0  0  0  0  0
  145.3871  135.0184  161.2723 H   0  0  0  0  0  0  0  0  0  0  0  0
  146.7823  136.0875  161.0956 H   0  0  0  0  0  0  0  0  0  0  0  0
  146.0776  135.8092  162.6755 H   0  0  0  0  0  0  0  0  0  0  0  0
  148.3122  135.1865  163.5620 H   0  0  0  0  0  0  0  0  0  0  0  0
  149.0878  135.3502  161.9923 H   0  0  0  0  0  0  0  0  0  0  0  0
  149.2402  133.8535  162.9029 H   0  0  0  0  0  0  0  0  0  0  0  0
  148.5488  135.1775  159.7532 H   0  0  0  0  0  0  0  0  0  0  0  0
  149.2000  134.1081  157.6720 H   0  0  0  0  0  0  0  0  0  0  0  0
  1  2  1  0  0  0  0
  1 32  1  0  0  0  0
  1 33  1  0  0  0  0
  1 34  1  0  0  0  0
  2 30  1  0  0  0  0
  2  3  2  0  0  0  0
  3  4  1  0  0  0  0
  3 35  1  0  0  0  0
  4  5  1  0  0  0  0
  4 13  1  0  0  0  0
  5 12  1  0  0  0  0
  5  6  1  0  0  0  0
  5 36  1  0  0  0  0
  6  7  1  0  0  0  0
  6 37  1  0  0  0  0
  6 38  1  0  0  0  0
  7  8  1  0  0  0  0
  7  9  1  0  0  0  0
  7 39  1  0  0  0  0
  8 40  1  0  0  0  0
  9 10  1  0  0  0  0
  9 12  1  0  0  0  0
  9 41  1  0  0  0  0
 10 11  1  0  0  0  0
 10 42  1  0  0  0  0
 10 43  1  0  0  0  0
 11 44  1  0  0  0  0
 13 14  2  0  0  0  0
 13 15  1  0  0  0  0
 15 16  1  0  0  0  0
 15 30  1  0  0  0  0
 16 17  1  0  0  0  0
 16 45  1  0  0  0  0
 16 46  1  0  0  0  0
 17 18  2  0  0  0  0
 17 19  1  0  0  0  0
 19 20  1  0  0  0  0
 19 47  1  0  0  0  0
 20 29  1  0  0  0  0
 20 21  2  0  0  0  0
 21 22  1  0  0  0  0
 21 48  1  0  0  0  0
 22 23  2  0  0  0  0
 22 49  1  0  0  0  0
 23 24  1  0  0  0  0
 23 28  1  0  0  0  0
 24 25  1  0  0  0  0
 24 26  1  0  0  0  0
 24 27  1  0  0  0  0
 25 50  1  0  0  0  0
 25 51  1  0  0  0  0
 25 52  1  0  0  0  0
 26 53  1  0  0  0  0
 26 54  1  0  0  0  0
 26 55  1  0  0  0  0
 27 56  1  0  0  0  0
 27 57  1  0  0  0  0
 27 58  1  0  0  0  0
 28 29  2  0  0  0  0
 28 59  1  0  0  0  0
 29 60  1  0  0  0  0
 30 31  2  0  0  0  0
M  END
> <s_m_source_file>
AV-unprocessed.smi

> <i_m_source_file_index>
284

> <i_lp_mmshare_version>
43012

> <i_f3d_flags>
0

> <s_epik_input>
W09IXVtDSDJdW0NAQEhdKE8xKVtDQEhdKFtPSF0pW0NIMl1bQ0BIXTFuKFtjSF1jMltDSDNdKWMoPU8pbihjMj1PKVtDSDJdQyg9TylbTkhdYzNbY0hdW2NIXWMoQyhbQ0gzXSkoW0NIM10pW0NIM10pW2NIXVtjSF0z

> <s_epik_cmdline>
J2VwaWtfcHl0aG9uJywgJy1waCcsICc3LjAnLCAnLXRuJywgJzgnLCAnLW1hJywgJzIwMCcsICctbWV0YWxfYmluZGluZycsICctaW1hZScsICc8aW5maWxlLm1hZT4nLCAnLW9tYWUnLCAnPG91dGZpbGUubWFlPic=

> <r_lp_tautomer_probability>
1

> <r_epik_Ionization_Penalty>
4.92358e-06

> <r_epik_Ionization_Penalty_Charging>
1.29777e-07

> <r_epik_Ionization_Penalty_Neutral>
4.79381e-06

> <r_epik_State_Penalty>
-0

> <r_epik_Charging_Adjusted_Penalty>
1.29777e-07

> <i_epik_Tot_Q>
0

> <i_epik_Tot_abs_Q>
0

> <r_epik_Metal_State_Penalty>
-0

> <b_epik_Metal_Only>
0

> <s_epik_Chemistry_Notes>
This compound contains an acetal/aminal-like group ( X-CH(R)-Y where X, Y are N, S, or O) that may be acid/base labile, releasing an aldehyde.

> <s_lp_Force_Field>
OPLS_2005

> <r_lp_Energy>
39.3511

> <b_lp_Chiralities_Consistent>
1

> <s_lp_Variant>
AV-unprocessed.smi:284-4

> <Gold.Version>
5.8.1

> <Gold.Id.Protein>
6NUR|6NUR_protein|mol2

> <Gold.PLP.Fitness>
52.4814

> <Gold.PLP.PLP>
-48.0300

> <Gold.PLP.part.hbond>
-2.0000

> <Gold.PLP.part.metal>
0.0000

> <Gold.PLP.part.buried>
-4.2721

> <Gold.PLP.part.nonpolar>
-41.5735

> <Gold.PLP.part.repulsive>
0.3244

> <Gold.PLP.ligand.clash>
0.0000

> <Gold.PLP.ligand.torsion>
0.8197

> <Gold.PLP.Chemscore.Hbond>
2.0000

> <Gold.PLP.Chemscore.CHOScore>
0.0000

> <Gold.PLP.Chemscore.Metal>
0.0000

> <Gold.Chemscore.Hbonds>
donor molecule, donor type, donor heavy atom, donor atom, acceptor molecule, acceptor atom, score
      L1  H     8    40       P1  7921  1.00
      L1  H    11    44       P1 10957  1.00

> <Gold.PLP.Chemscore.Internal.Correction>
0.0908

> <Gold.Rescore>
     Score         DG    S(hbond)    S(metal)    S(lipo)     H(rot)  DE(clash)    DE(int)     intcor
     11.08     -16.52       1.95        0.00     110.24       3.27       0.06       5.38       ----

> <Gold.Chemscore.Fitness>
11.0757

> <Gold.Chemscore.DG>
-16.5205

> <Gold.Chemscore.ZeroCoef>
-5.4800

> <Gold.Chemscore.Hbond>
1.9530

> <Gold.Chemscore.Metal>
0.0000

> <Gold.Chemscore.Lipo>
110.2360

> <Gold.Chemscore.Internal_Hbond>
0.0000

> <Gold.Chemscore.DEClash>
0.0617

> <Gold.Chemscore.DEInternal>
5.3831

> <Gold.Chemscore.Rot>
3.2735

> <Gold.Chemscore.Internal.Correction>
   9.000000E+99

> <Gold.Chemscore.Hbonds>
donor molecule, donor type, donor heavy atom, donor atom, acceptor molecule, acceptor atom, score
      L1  H     8    40       P1  7921  0.78
      L1  H    11    44       P1 10957  1.00

> <Gold.Chemscore.Hbond.Weighted>
-6.5229

> <Gold.Chemscore.Metal.Weighted>
-0.0000

> <Gold.Chemscore.Lipo.Weighted>
-12.8976

> <Gold.Chemscore.Internal_Hbond.Weighted>
0.0000

> <Gold.Chemscore.DEClash.Weighted>
0.0617

> <Gold.Chemscore.DEInternal.Weighted>
5.3831

> <Gold.Chemscore.Rot.Weighted>
8.3801

> <Gold.Chemscore.Internal.Correction.Weighted>
   9.000000E+99

> <Gold.Protein.RotatedTorsions>
[ 6907 6896 6895 6894 ] final  -39.08 input  -60.11 | X-H torsion
[ 7974 7965 7964 7962 ] final -128.64 input  175.53 | X-H torsion
[ 8008 7997 7996 7995 ] final   23.58 input   59.86 | X-H torsion
[ 10167 10162 10161 10158 ] final  151.77 input  -65.29 | X-H torsion
[ 10718 10713 10712 10709 ] final -158.14 input   66.30 | X-H torsion
[ 10763 10752 10751 10750 ] final -179.77 input  -60.55 | X-H torsion
[ 11005 11000 10999 10996 ] final  152.20 input  -57.11 | X-H torsion

> <Gold.Protein.ActiveResidues>
 VAL166  LYS551  ARG553  GLY616  TRP617  ASP618  TYR619  PRO620  LYS621  CYS622 
 ASP623  PHE694  ASN695  SER759  ASP760  ASP761  ALA762  ILE779  LEU786  VAL792 
 PHE793  MET794  SER795  GLU796  ALA797  LYS798  CYS799  TRP800  GLU811  SER814 

> <Gold.Protein.RotatedAtoms>
  150.9947  134.9273  159.7919 H   0  0  0  0  0  0  0  0  0  0  0  0  # atno 6907 bound_to 6896
  152.5261  134.3235  159.9167 H   0  0  0  0  0  0  0  0  0  0  0  0  # atno 6908 bound_to 6896
  151.3240  133.3986  159.2691 H   0  0  0  0  0  0  0  0  0  0  0  0  # atno 6909 bound_to 6896
  144.9650  140.7487  143.4705 H   0  0  0  0  0  0  0  0  0  0  0  0  # atno 7974 bound_to 7965
  154.9830  140.3104  155.4938 H   0  0  0  0  0  0  0  0  0  0  0  0  # atno 8008 bound_to 7997
  156.2950  140.2263  156.4870 H   0  0  0  0  0  0  0  0  0  0  0  0  # atno 8009 bound_to 7997
  154.7772  140.0448  157.1086 H   0  0  0  0  0  0  0  0  0  0  0  0  # atno 8010 bound_to 7997
  139.4838  144.5414  151.7559 H   0  0  0  0  0  0  0  0  0  0  0  0  # atno 10167 bound_to 10162
  156.5501  130.8601  151.2777 H   0  0  0  0  0  0  0  0  0  0  0  0  # atno 10718 bound_to 10713
  154.5308  135.2799  155.1182 H   0  0  0  0  0  0  0  0  0  0  0  0  # atno 10763 bound_to 10752
  154.2703  135.6305  153.5311 H   0  0  0  0  0  0  0  0  0  0  0  0  # atno 10764 bound_to 10752
  152.9956  135.5626  154.5821 H   0  0  0  0  0  0  0  0  0  0  0  0  # atno 10765 bound_to 10752
  140.1287  134.8816  157.2173 H   0  0  0  0  0  0  0  0  0  0  0  0  # atno 11005 bound_to 11000
  145.2643  139.1980  143.4875 LP  0  0  0  0  0  0  0  0  0  0  0  0  # atno 17320 bound_to 7965
  146.3365  140.2578  142.8601 LP  0  0  0  0  0  0  0  0  0  0  0  0  # atno 17321 bound_to 7965
  140.4954  144.1249  150.5959 LP  0  0  0  0  0  0  0  0  0  0  0  0  # atno 17342 bound_to 10162
  140.4124  143.2650  151.9817 LP  0  0  0  0  0  0  0  0  0  0  0  0  # atno 17343 bound_to 10162
  157.7389  130.9822  150.2281 LP  0  0  0  0  0  0  0  0  0  0  0  0  # atno 17370 bound_to 10713
  156.2893  130.3743  149.7858 LP  0  0  0  0  0  0  0  0  0  0  0  0  # atno 17371 bound_to 10713
  140.2871  134.3283  155.7326 LP  0  0  0  0  0  0  0  0  0  0  0  0  # atno 17394 bound_to 11000
  141.2166  133.7512  156.9448 LP  0  0  0  0  0  0  0  0  0  0  0  0  # atno 17395 bound_to 11000

$$$$
