AV-unprocessed.smi:221|AV-procd|sdf|1699|dock3
  -GOLD-   2262020153D 1   1.00000     0.00000
 Structure written by MMmdl.
 50 53  0  0  0  0  0  0  0  0  1 V2000
  147.2193  136.9160  158.4706 N   0  0  0  0  0  0  0  0  0  0  0  0
  147.1574  136.6796  159.7833 C   0  0  0  0  0  0  0  0  0  0  0  0
  146.3808  137.2876  160.5183 O   0  0  0  0  0  0  0  0  0  0  0  0
  148.1123  135.6048  160.3364 C   0  0  1  0  0  0  0  0  0  0  0  0
  148.0580  135.5228  161.8730 C   0  0  0  0  0  0  0  0  0  0  0  0
  147.0069  134.4539  162.1741 C   0  0  1  0  0  0  0  0  0  0  0  0
  145.7879  134.9954  162.1630 F   0  0  0  0  0  0  0  0  0  0  0  0
  147.1515  133.4785  161.0052 C   0  0  0  0  0  0  0  0  0  0  0  0
  147.7396  134.2533  159.9160 N   0  0  0  0  0  0  0  0  0  0  0  0
  147.9837  133.7139  158.6887 C   0  0  0  0  0  0  0  0  0  0  0  0
  149.2761  133.6575  158.2690 N   0  0  0  0  0  0  0  0  0  0  0  0
  149.5891  133.1388  157.0794 C   0  0  0  0  0  0  0  0  0  0  0  0
  148.7775  132.6253  156.1558 N   0  0  0  0  0  0  0  0  0  0  0  0
  147.4770  132.6779  156.5605 C   0  0  0  0  0  0  0  0  0  0  0  0
  146.9924  133.2009  157.7960 C   0  0  0  0  0  0  0  0  0  0  0  0
  145.6061  133.0807  157.8308 N   0  0  0  0  0  0  0  0  0  0  0  0
  145.2937  132.5235  156.6940 C   0  0  0  0  0  0  0  0  0  0  0  0
  146.3574  132.2514  155.8679 N   0  0  0  0  0  0  0  0  0  0  0  0
  146.2961  131.6407  154.5518 C   0  0  0  0  0  0  0  0  0  0  0  0
  146.8767  132.5265  153.4179 C   0  0  1  0  0  0  0  0  0  0  0  0
  148.4272  132.5296  153.4038 C   0  0  0  0  0  0  0  0  0  0  0  0
  148.9532  131.2527  153.1049 O   0  0  0  0  0  0  0  0  0  0  0  0
  146.3098  132.0835  152.0437 C   0  0  1  0  0  0  0  0  0  0  0  0
  144.8017  132.2074  151.9012 C   0  0  0  0  0  0  0  0  0  0  0  0
  144.6195  132.1730  150.3898 C   0  0  0  0  0  0  0  0  0  0  0  0
  145.7447  132.8657  149.8672 O   0  0  0  0  0  0  0  0  0  0  0  0
  146.7749  132.9298  150.8495 C   0  0  0  0  0  0  0  0  0  0  0  0
  149.1349  135.8341  160.0360 H   0  0  0  0  0  0  0  0  0  0  0  0
  147.1414  133.9795  163.1465 H   0  0  0  0  0  0  0  0  0  0  0  0
  146.6110  137.6082  158.0581 H   0  0  0  0  0  0  0  0  0  0  0  0
  147.8692  136.4006  157.8952 H   0  0  0  0  0  0  0  0  0  0  0  0
  149.0263  135.1881  162.2473 H   0  0  0  0  0  0  0  0  0  0  0  0
  147.8389  136.4754  162.3579 H   0  0  0  0  0  0  0  0  0  0  0  0
  147.8331  132.6692  161.2703 H   0  0  0  0  0  0  0  0  0  0  0  0
  146.1914  133.0403  160.7286 H   0  0  0  0  0  0  0  0  0  0  0  0
  150.6407  133.1347  156.8332 H   0  0  0  0  0  0  0  0  0  0  0  0
  144.2724  132.2999  156.4220 H   0  0  0  0  0  0  0  0  0  0  0  0
  146.8225  130.6861  154.5873 H   0  0  0  0  0  0  0  0  0  0  0  0
  145.2500  131.4048  154.3573 H   0  0  0  0  0  0  0  0  0  0  0  0
  146.5418  133.5513  153.5876 H   0  0  0  0  0  0  0  0  0  0  0  0
  148.8068  133.2601  152.6888 H   0  0  0  0  0  0  0  0  0  0  0  0
  148.8338  132.8054  154.3755 H   0  0  0  0  0  0  0  0  0  0  0  0
  148.6851  131.0146  152.2304 H   0  0  0  0  0  0  0  0  0  0  0  0
  146.5846  131.0435  151.8585 H   0  0  0  0  0  0  0  0  0  0  0  0
  144.2525  131.4088  152.4005 H   0  0  0  0  0  0  0  0  0  0  0  0
  144.4559  133.1629  152.2983 H   0  0  0  0  0  0  0  0  0  0  0  0
  144.6417  131.1447  150.0275 H   0  0  0  0  0  0  0  0  0  0  0  0
  143.6828  132.6283  150.0679 H   0  0  0  0  0  0  0  0  0  0  0  0
  146.9039  133.9742  151.1368 H   0  0  0  0  0  0  0  0  0  0  0  0
  147.7196  132.5763  150.4358 H   0  0  0  0  0  0  0  0  0  0  0  0
  1  2  1  0  0  0  0
  1 30  1  0  0  0  0
  1 31  1  0  0  0  0
  2  3  2  0  0  0  0
  2  4  1  0  0  0  0
  4 28  1  0  0  0  0
  4  9  1  0  0  0  0
  4  5  1  0  0  0  0
  5  6  1  0  0  0  0
  5 32  1  0  0  0  0
  5 33  1  0  0  0  0
  6 29  1  0  0  0  0
  6  7  1  0  0  0  0
  6  8  1  0  0  0  0
  8  9  1  0  0  0  0
  8 34  1  0  0  0  0
  8 35  1  0  0  0  0
  9 10  1  0  0  0  0
 10 15  1  0  0  0  0
 10 11  2  0  0  0  0
 11 12  1  0  0  0  0
 12 13  2  0  0  0  0
 12 36  1  0  0  0  0
 13 14  1  0  0  0  0
 14 18  1  0  0  0  0
 14 15  2  0  0  0  0
 15 16  1  0  0  0  0
 16 17  2  0  0  0  0
 17 18  1  0  0  0  0
 17 37  1  0  0  0  0
 18 19  1  0  0  0  0
 19 20  1  0  0  0  0
 19 38  1  0  0  0  0
 19 39  1  0  0  0  0
 20 21  1  0  0  0  0
 20 23  1  0  0  0  0
 20 40  1  0  0  0  0
 21 22  1  0  0  0  0
 21 41  1  0  0  0  0
 21 42  1  0  0  0  0
 22 43  1  0  0  0  0
 23 27  1  0  0  0  0
 23 24  1  0  0  0  0
 23 44  1  0  0  0  0
 24 25  1  0  0  0  0
 24 45  1  0  0  0  0
 24 46  1  0  0  0  0
 25 26  1  0  0  0  0
 25 47  1  0  0  0  0
 25 48  1  0  0  0  0
 26 27  1  0  0  0  0
 27 49  1  0  0  0  0
 27 50  1  0  0  0  0
M  END
> <s_m_source_file>
AV-unprocessed.smi

> <i_m_source_file_index>
221

> <i_lp_mmshare_version>
43012

> <i_f3d_flags>
0

> <s_epik_input>
W05IMl1DKD1PKVtDQEBIXTFbQ0gyXVtDQEBIXShGKVtDSDJdTjFjKG5bY0hdbjIpYyhjMjMpbltjSF1uM1tDSDJdW0NASF0oW0NIMl1bT0hdKVtDQEBIXTRbQ0gyXVtDSDJdT1tDSDJdNA==

> <s_epik_cmdline>
J2VwaWtfcHl0aG9uJywgJy1waCcsICc3LjAnLCAnLXRuJywgJzgnLCAnLW1hJywgJzIwMCcsICctbWV0YWxfYmluZGluZycsICctaW1hZScsICc8aW5maWxlLm1hZT4nLCAnLW9tYWUnLCAnPG91dGZpbGUubWFlPic=

> <r_lp_tautomer_probability>
1

> <r_epik_Ionization_Penalty>
0.000818822

> <r_epik_Ionization_Penalty_Charging>
0

> <r_epik_Ionization_Penalty_Neutral>
0.000818822

> <r_epik_State_Penalty>
0.000440551

> <r_epik_Charging_Adjusted_Penalty>
0.000440551

> <i_epik_Tot_Q>
0

> <i_epik_Tot_abs_Q>
0

> <r_epik_Metal_State_Penalty>
-0

> <b_epik_Metal_Only>
0

> <s_lp_Force_Field>
OPLS_2005

> <r_lp_Energy>
47.9731

> <b_lp_Chiralities_Consistent>
1

> <s_lp_Variant>
AV-unprocessed.smi:221-14

> <Gold.Version>
5.8.1

> <Gold.Id.Protein>
6NUR|6NUR_protein|mol2

> <Gold.PLP.Fitness>
43.3572

> <Gold.PLP.PLP>
-34.2251

> <Gold.PLP.part.hbond>
-3.0000

> <Gold.PLP.part.metal>
0.0000

> <Gold.PLP.part.buried>
-4.6703

> <Gold.PLP.part.nonpolar>
-26.8540

> <Gold.PLP.part.repulsive>
1.1752

> <Gold.PLP.ligand.clash>
0.0000

> <Gold.PLP.ligand.torsion>
1.4630

> <Gold.PLP.Chemscore.Hbond>
2.9913

> <Gold.PLP.Chemscore.CHOScore>
1.0000

> <Gold.PLP.Chemscore.Metal>
0.0000

> <Gold.Chemscore.Hbonds>
donor molecule, donor type, donor heavy atom, donor atom, acceptor molecule, acceptor atom, score
      L1  H    22    43       P1 10747  1.00
      P1  H  6896  6908       L1    11  1.00
      P1  H  6934  6947       L1     3  1.00
      L1  C    17    37       P1 10957  1.00

> <Gold.PLP.Chemscore.Internal.Correction>
0.0843

> <Gold.Rescore>
     Score         DG    S(hbond)    S(metal)    S(lipo)     H(rot)  DE(clash)    DE(int)     intcor
     10.42     -14.57       2.73        0.00      72.06       3.31       0.13       4.02       ----

> <Gold.Chemscore.Fitness>
10.4246

> <Gold.Chemscore.DG>
-14.5704

> <Gold.Chemscore.ZeroCoef>
-5.4800

> <Gold.Chemscore.Hbond>
2.7335

> <Gold.Chemscore.Metal>
0.0000

> <Gold.Chemscore.Lipo>
72.0643

> <Gold.Chemscore.Internal_Hbond>
0.0000

> <Gold.Chemscore.DEClash>
0.1273

> <Gold.Chemscore.DEInternal>
4.0184

> <Gold.Chemscore.Rot>
3.3089

> <Gold.Chemscore.Internal.Correction>
   9.000000E+99

> <Gold.Chemscore.Hbonds>
donor molecule, donor type, donor heavy atom, donor atom, acceptor molecule, acceptor atom, score
      L1  H    22    43       P1 10747  0.81
      P1  H  6896  6908       L1    11  0.65
      P1  H  6934  6947       L1     3  0.65

> <Gold.Chemscore.Hbond.Weighted>
-9.1297

> <Gold.Chemscore.Metal.Weighted>
-0.0000

> <Gold.Chemscore.Lipo.Weighted>
-8.4315

> <Gold.Chemscore.Internal_Hbond.Weighted>
0.0000

> <Gold.Chemscore.DEClash.Weighted>
0.1273

> <Gold.Chemscore.DEInternal.Weighted>
4.0184

> <Gold.Chemscore.Rot.Weighted>
8.4709

> <Gold.Chemscore.Internal.Correction.Weighted>
   9.000000E+99

> <Gold.Protein.RotatedTorsions>
[ 6907 6896 6895 6894 ] final  116.70 input  -60.11 | X-H torsion
[ 7974 7965 7964 7962 ] final   46.33 input  175.53 | X-H torsion
[ 8008 7997 7996 7995 ] final   55.69 input   59.86 | X-H torsion
[ 10167 10162 10161 10158 ] final -165.23 input  -65.29 | X-H torsion
[ 10718 10713 10712 10709 ] final   64.59 input   66.30 | X-H torsion
[ 10763 10752 10751 10750 ] final   -8.83 input  -60.55 | X-H torsion
[ 11005 11000 10999 10996 ] final  109.54 input  -57.11 | X-H torsion

> <Gold.Protein.ActiveResidues>
 VAL166  LYS551  ARG553  GLY616  TRP617  ASP618  TYR619  PRO620  LYS621  CYS622 
 ASP623  PHE694  ASN695  SER759  ASP760  ASP761  ALA762  ILE779  LEU786  VAL792 
 PHE793  MET794  SER795  GLU796  ALA797  LYS798  CYS799  TRP800  GLU811  SER814 

> <Gold.Protein.RotatedAtoms>
  152.4661  133.7925  159.6909 H   0  0  0  0  0  0  0  0  0  0  0  0  # atno 6907 bound_to 6896
  150.8626  133.7612  159.2994 H   0  0  0  0  0  0  0  0  0  0  0  0  # atno 6908 bound_to 6896
  151.5172  135.1069  159.9921 H   0  0  0  0  0  0  0  0  0  0  0  0  # atno 6909 bound_to 6896
  146.0400  139.4868  142.9784 H   0  0  0  0  0  0  0  0  0  0  0  0  # atno 7974 bound_to 7965
  155.5052  140.3475  155.4378 H   0  0  0  0  0  0  0  0  0  0  0  0  # atno 8008 bound_to 7997
  156.0887  140.1405  156.9648 H   0  0  0  0  0  0  0  0  0  0  0  0  # atno 8009 bound_to 7997
  154.4622  140.0931  156.6900 H   0  0  0  0  0  0  0  0  0  0  0  0  # atno 8010 bound_to 7997
  139.6196  144.0650  152.1920 H   0  0  0  0  0  0  0  0  0  0  0  0  # atno 10167 bound_to 10162
  157.6049  130.9168  149.9865 H   0  0  0  0  0  0  0  0  0  0  0  0  # atno 10718 bound_to 10713
  153.4461  135.7014  153.6138 H   0  0  0  0  0  0  0  0  0  0  0  0  # atno 10763 bound_to 10752
  153.4492  135.3762  155.2274 H   0  0  0  0  0  0  0  0  0  0  0  0  # atno 10764 bound_to 10752
  154.8728  135.3993  154.3867 H   0  0  0  0  0  0  0  0  0  0  0  0  # atno 10765 bound_to 10752
  139.8864  134.9461  156.6141 H   0  0  0  0  0  0  0  0  0  0  0  0  # atno 11005 bound_to 11000
  145.6901  141.0166  143.1560 LP  0  0  0  0  0  0  0  0  0  0  0  0  # atno 17320 bound_to 7965
  144.7070  139.8522  143.7427 LP  0  0  0  0  0  0  0  0  0  0  0  0  # atno 17321 bound_to 7965
  140.0289  144.6096  150.7504 LP  0  0  0  0  0  0  0  0  0  0  0  0  # atno 17342 bound_to 10162
  140.7373  143.2764  151.3728 LP  0  0  0  0  0  0  0  0  0  0  0  0  # atno 17343 bound_to 10162
  156.1133  130.3649  150.0012 LP  0  0  0  0  0  0  0  0  0  0  0  0  # atno 17370 bound_to 10713
  156.8106  130.9323  151.3644 LP  0  0  0  0  0  0  0  0  0  0  0  0  # atno 17371 bound_to 10713
  140.7789  133.8676  155.8552 LP  0  0  0  0  0  0  0  0  0  0  0  0  # atno 17394 bound_to 11000
  140.9777  134.1447  157.4521 LP  0  0  0  0  0  0  0  0  0  0  0  0  # atno 17395 bound_to 11000

$$$$
