AV-unprocessed.smi:2176|AV-procd|sdf|8847|dock10
  -GOLD-   2272012 43D 1   1.00000     0.00000
 Structure written by MMmdl.
 28 29  0  0  0  0  0  0  0  0  2 V2000
  150.7470  141.1516  157.9066 O   0  0  0  0  0  0  0  0  0  0  0  0
  150.2575  141.9856  157.1436 C   0  0  0  0  0  0  0  0  0  0  0  0
  150.0002  141.6363  155.6721 C   0  0  0  0  0  0  0  0  0  0  0  0
  150.4321  140.2703  155.3367 N   0  0  0  0  0  0  0  0  0  0  0  0
  151.7470  139.8973  155.6666 C   0  0  0  0  0  0  0  0  0  0  0  0
  152.2235  138.6658  155.4019 C   0  0  0  0  0  0  0  0  0  0  0  0
  151.3371  137.7068  154.7544 C   0  0  0  0  0  0  0  0  0  0  0  0
  151.7569  136.5795  154.5007 O   0  0  0  0  0  0  0  0  0  0  0  0
  150.0686  138.1150  154.4582 N   0  5  0  0  0  0  0  0  0  0  0  0
  149.5965  139.3699  154.7357 C   0  0  0  0  0  0  0  0  0  0  0  0
  148.4469  139.7168  154.4618 O   0  0  0  0  0  0  0  0  0  0  0  0
  149.9465  143.2336  157.5206 N   0  0  0  0  0  0  0  0  0  0  0  0
  150.1004  143.7521  158.8717 C   0  0  0  0  0  0  0  0  0  0  0  0
  150.9881  144.9754  158.9622 C   0  0  0  0  0  0  0  0  0  0  0  0
  152.4860  144.8507  158.8110 C   0  0  0  0  0  0  0  0  0  0  0  0
  151.8887  145.1927  160.1555 C   0  0  0  0  0  0  0  0  0  0  0  0
  148.9430  141.7662  155.4320 H   0  0  0  0  0  0  0  0  0  0  0  0
  150.5251  142.3655  155.0539 H   0  0  0  0  0  0  0  0  0  0  0  0
  152.3352  140.6638  156.1493 H   0  0  0  0  0  0  0  0  0  0  0  0
  153.2350  138.3937  155.6650 H   0  0  0  0  0  0  0  0  0  0  0  0
  149.5505  143.8554  156.8307 H   0  0  0  0  0  0  0  0  0  0  0  0
  149.1211  143.9925  159.2897 H   0  0  0  0  0  0  0  0  0  0  0  0
  150.5278  142.9686  159.4986 H   0  0  0  0  0  0  0  0  0  0  0  0
  150.5471  145.8695  158.5248 H   0  0  0  0  0  0  0  0  0  0  0  0
  152.9023  143.8530  158.6866 H   0  0  0  0  0  0  0  0  0  0  0  0
  153.0052  145.6430  158.2757 H   0  0  0  0  0  0  0  0  0  0  0  0
  152.0051  146.2128  160.5152 H   0  0  0  0  0  0  0  0  0  0  0  0
  151.9058  144.4226  160.9243 H   0  0  0  0  0  0  0  0  0  0  0  0
  1  2  2  0  0  0  0
  2  3  1  0  0  0  0
  2 12  1  0  0  0  0
  3  4  1  0  0  0  0
  3 17  1  0  0  0  0
  3 18  1  0  0  0  0
  4 10  1  0  0  0  0
  4  5  1  0  0  0  0
  5  6  2  0  0  0  0
  5 19  1  0  0  0  0
  6  7  1  0  0  0  0
  6 20  1  0  0  0  0
  7  8  2  0  0  0  0
  7  9  1  0  0  0  0
  9 10  1  0  0  0  0
 10 11  2  0  0  0  0
 12 13  1  0  0  0  0
 12 21  1  0  0  0  0
 13 14  1  0  0  0  0
 13 22  1  0  0  0  0
 13 23  1  0  0  0  0
 14 16  1  0  0  0  0
 14 15  1  0  0  0  0
 14 24  1  0  0  0  0
 15 16  1  0  0  0  0
 15 25  1  0  0  0  0
 15 26  1  0  0  0  0
 16 27  1  0  0  0  0
 16 28  1  0  0  0  0
M  CHG  1   9  -1
M  END
> <s_m_source_file>
AV-unprocessed.smi

> <i_m_source_file_index>
2176

> <i_lp_mmshare_version>
43012

> <i_f3d_flags>
0

> <s_epik_input>
W0NIMl0xW0NIMl1bQ0hdMVtDSDJdW05IXUMoPU8pW0NIMl1uMltjSF1bY0hdYyg9TylbbkhdYzI9Tw==

> <s_epik_cmdline>
J2VwaWtfcHl0aG9uJywgJy1waCcsICc3LjAnLCAnLXRuJywgJzgnLCAnLW1hJywgJzIwMCcsICctbWV0YWxfYmluZGluZycsICctaW1hZScsICc8aW5maWxlLm1hZT4nLCAnLW9tYWUnLCAnPG91dGZpbGUubWFlPic=

> <r_lp_tautomer_probability>
0.999537

> <r_epik_Ionization_Penalty>
3.07884

> <r_epik_Ionization_Penalty_Charging>
2.64713e-08

> <r_epik_Ionization_Penalty_Neutral>
3.07884

> <r_epik_State_Penalty>
3.07787

> <r_epik_Charging_Adjusted_Penalty>
3.07787

> <i_epik_Tot_Q>
-1

> <i_epik_Tot_abs_Q>
1

> <r_epik_Metal_State_Penalty>
0.459857

> <b_epik_Metal_Only>
1

> <s_lp_Force_Field>
OPLS_2005

> <r_lp_Energy>
21.5126

> <b_lp_Chiralities_Consistent>
1

> <s_lp_Variant>
AV-unprocessed.smi:2176-2

> <Gold.Version>
5.8.1

> <Gold.Id.Protein>
6NUR|6NUR_protein|mol2

> <Gold.PLP.Fitness>
41.8402

> <Gold.PLP.PLP>
-36.0159

> <Gold.PLP.part.hbond>
-1.9084

> <Gold.PLP.part.metal>
0.0000

> <Gold.PLP.part.buried>
-4.5869

> <Gold.PLP.part.nonpolar>
-30.7726

> <Gold.PLP.part.repulsive>
1.0394

> <Gold.PLP.ligand.clash>
0.0000

> <Gold.PLP.ligand.torsion>
0.3439

> <Gold.PLP.Chemscore.Hbond>
1.9913

> <Gold.PLP.Chemscore.CHOScore>
0.0000

> <Gold.PLP.Chemscore.Metal>
0.0000

> <Gold.Chemscore.Hbonds>
donor molecule, donor type, donor heavy atom, donor atom, acceptor molecule, acceptor atom, score
      L1  H    12    21       P1  8028  1.00
      P1  H 10752 10765       L1     8  0.96

> <Gold.PLP.Chemscore.Internal.Correction>
0.5382

> <Gold.Rescore>
     Score         DG    S(hbond)    S(metal)    S(lipo)     H(rot)  DE(clash)    DE(int)     intcor
     13.44     -15.18       1.97        0.00      70.09       1.99       0.15       1.58       ----

> <Gold.Chemscore.Fitness>
13.4437

> <Gold.Chemscore.DG>
-15.1820

> <Gold.Chemscore.ZeroCoef>
-5.4800

> <Gold.Chemscore.Hbond>
1.9745

> <Gold.Chemscore.Metal>
0.0000

> <Gold.Chemscore.Lipo>
70.0887

> <Gold.Chemscore.Internal_Hbond>
0.0000

> <Gold.Chemscore.DEClash>
0.1534

> <Gold.Chemscore.DEInternal>
1.5848

> <Gold.Chemscore.Rot>
1.9895

> <Gold.Chemscore.Internal.Correction>
   9.000000E+99

> <Gold.Chemscore.Hbonds>
donor molecule, donor type, donor heavy atom, donor atom, acceptor molecule, acceptor atom, score
      L1  H    12    21       P1  8028  0.91
      P1  H 10752 10765       L1     8  0.90

> <Gold.Chemscore.Hbond.Weighted>
-6.5947

> <Gold.Chemscore.Metal.Weighted>
-0.0000

> <Gold.Chemscore.Lipo.Weighted>
-8.2004

> <Gold.Chemscore.Internal_Hbond.Weighted>
0.0000

> <Gold.Chemscore.DEClash.Weighted>
0.1534

> <Gold.Chemscore.DEInternal.Weighted>
1.5848

> <Gold.Chemscore.Rot.Weighted>
5.0931

> <Gold.Chemscore.Internal.Correction.Weighted>
   9.000000E+99

> <Gold.Protein.RotatedTorsions>
[ 6907 6896 6895 6894 ] final  165.55 input  -60.11 | X-H torsion
[ 7974 7965 7964 7962 ] final -161.27 input  175.53 | X-H torsion
[ 8008 7997 7996 7995 ] final  -71.94 input   59.86 | X-H torsion
[ 10167 10162 10161 10158 ] final  -37.06 input  -65.29 | X-H torsion
[ 10718 10713 10712 10709 ] final   51.22 input   66.30 | X-H torsion
[ 10763 10752 10751 10750 ] final  173.97 input  -60.55 | X-H torsion
[ 11005 11000 10999 10996 ] final -141.89 input  -57.11 | X-H torsion

> <Gold.Protein.ActiveResidues>
 VAL166  LYS551  ARG553  GLY616  TRP617  ASP618  TYR619  PRO620  LYS621  CYS622 
 ASP623  PHE694  ASN695  SER759  ASP760  ASP761  ALA762  ILE779  LEU786  VAL792 
 PHE793  MET794  SER795  GLU796  ALA797  LYS798  CYS799  TRP800  GLU811  SER814 

> <Gold.Protein.RotatedAtoms>
  151.8927  133.3520  159.3803 H   0  0  0  0  0  0  0  0  0  0  0  0  # atno 6907 bound_to 6896
  150.7099  134.4908  159.5524 H   0  0  0  0  0  0  0  0  0  0  0  0  # atno 6908 bound_to 6896
  152.2481  134.8161  160.0501 H   0  0  0  0  0  0  0  0  0  0  0  0  # atno 6909 bound_to 6896
  144.7397  140.3421  143.6132 H   0  0  0  0  0  0  0  0  0  0  0  0  # atno 7974 bound_to 7965
  154.5127  140.0806  156.8022 H   0  0  0  0  0  0  0  0  0  0  0  0  # atno 8008 bound_to 7997
  155.3748  140.3425  155.4226 H   0  0  0  0  0  0  0  0  0  0  0  0  # atno 8009 bound_to 7997
  156.1592  140.1583  156.8628 H   0  0  0  0  0  0  0  0  0  0  0  0  # atno 8010 bound_to 7997
  140.7127  143.3367  151.2447 H   0  0  0  0  0  0  0  0  0  0  0  0  # atno 10167 bound_to 10162
  157.4960  130.8407  149.8259 H   0  0  0  0  0  0  0  0  0  0  0  0  # atno 10718 bound_to 10713
  154.4474  135.2764  155.1805 H   0  0  0  0  0  0  0  0  0  0  0  0  # atno 10763 bound_to 10752
  154.3646  135.6122  153.5712 H   0  0  0  0  0  0  0  0  0  0  0  0  # atno 10764 bound_to 10752
  152.9844  135.5842  154.4812 H   0  0  0  0  0  0  0  0  0  0  0  0  # atno 10765 bound_to 10752
  140.8279  134.2552  157.4870 H   0  0  0  0  0  0  0  0  0  0  0  0  # atno 11005 bound_to 11000
  145.7363  139.1751  143.2401 LP  0  0  0  0  0  0  0  0  0  0  0  0  # atno 17320 bound_to 7965
  146.1168  140.7360  142.9477 LP  0  0  0  0  0  0  0  0  0  0  0  0  # atno 17321 bound_to 7965
  139.6864  143.9767  152.2836 LP  0  0  0  0  0  0  0  0  0  0  0  0  # atno 17342 bound_to 10162
  139.9413  144.6679  150.8263 LP  0  0  0  0  0  0  0  0  0  0  0  0  # atno 17343 bound_to 10162
  156.0201  130.3799  150.1989 LP  0  0  0  0  0  0  0  0  0  0  0  0  # atno 17370 bound_to 10713
  157.0178  130.9970  151.3348 LP  0  0  0  0  0  0  0  0  0  0  0  0  # atno 17371 bound_to 10713
  139.8706  134.9570  156.4256 LP  0  0  0  0  0  0  0  0  0  0  0  0  # atno 17394 bound_to 11000
  140.9029  133.7766  155.9701 LP  0  0  0  0  0  0  0  0  0  0  0  0  # atno 17395 bound_to 11000

$$$$
