AV-unprocessed.smi:1948|AV-procd|sdf|7873|dock3
  -GOLD-   2272010 23D 1   1.00000     0.00000
 Structure written by MMmdl.
 30 31  0  0  0  0  0  0  0  0  1 V2000
  147.3534  132.3327  154.0949 O   0  0  0  0  0  0  0  0  0  0  0  0
  147.7673  133.3419  153.5236 C   0  0  0  0  0  0  0  0  0  0  0  0
  148.9329  133.9602  153.7834 N   0  0  0  0  0  0  0  0  0  0  0  0
  149.9234  133.6066  154.7381 C   0  0  0  0  0  0  0  0  0  0  0  0
  150.4821  134.4805  155.5903 N   0  0  0  0  0  0  0  0  0  0  0  0
  151.4206  133.8743  156.4156 N   0  0  0  0  0  0  0  0  0  0  0  0
  151.5326  132.5690  156.1538 C   0  0  0  0  0  0  0  0  0  0  0  0
  150.5037  131.9527  154.8720 S   0  0  0  0  0  0  0  0  0  0  0  0
  147.0930  133.9685  152.5482 N   0  0  0  0  0  0  0  0  0  0  0  0
  145.7961  133.5546  152.0201 C   0  0  2  0  0  0  0  0  0  0  0  0
  145.8573  132.0734  151.6012 C   0  0  0  0  0  0  0  0  0  0  0  0
  144.5281  131.6071  150.9853 C   0  0  0  0  0  0  0  0  0  0  0  0
  144.1266  132.4970  149.7966 C   0  0  1  0  0  0  0  0  0  0  0  0
  142.8708  132.0841  149.3005 O   0  0  0  0  0  0  0  0  0  0  0  0
  144.0550  133.9764  150.2123 C   0  0  0  0  0  0  0  0  0  0  0  0
  145.3835  134.4442  150.8285 C   0  0  0  0  0  0  0  0  0  0  0  0
  149.1374  134.7803  153.2316 H   0  0  0  0  0  0  0  0  0  0  0  0
  152.2270  131.9652  156.7190 H   0  0  0  0  0  0  0  0  0  0  0  0
  147.5075  134.7917  152.1366 H   0  0  0  0  0  0  0  0  0  0  0  0
  145.0463  133.6510  152.8080 H   0  0  0  0  0  0  0  0  0  0  0  0
  146.6606  131.9259  150.8776 H   0  0  0  0  0  0  0  0  0  0  0  0
  146.0997  131.4504  152.4631 H   0  0  0  0  0  0  0  0  0  0  0  0
  144.6143  130.5683  150.6642 H   0  0  0  0  0  0  0  0  0  0  0  0
  143.7484  131.6322  151.7482 H   0  0  0  0  0  0  0  0  0  0  0  0
  144.8577  132.3814  148.9955 H   0  0  0  0  0  0  0  0  0  0  0  0
  142.2425  132.7708  149.4640 H   0  0  0  0  0  0  0  0  0  0  0  0
  143.8095  134.5972  149.3498 H   0  0  0  0  0  0  0  0  0  0  0  0
  143.2519  134.1206  150.9366 H   0  0  0  0  0  0  0  0  0  0  0  0
  145.2903  135.4831  151.1471 H   0  0  0  0  0  0  0  0  0  0  0  0
  146.1625  134.4243  150.0650 H   0  0  0  0  0  0  0  0  0  0  0  0
  1  2  2  0  0  0  0
  2  3  1  0  0  0  0
  2  9  1  0  0  0  0
  3  4  1  0  0  0  0
  3 17  1  0  0  0  0
  4  8  1  0  0  0  0
  4  5  2  0  0  0  0
  5  6  1  0  0  0  0
  6  7  2  0  0  0  0
  7  8  1  0  0  0  0
  7 18  1  0  0  0  0
  9 10  1  0  0  0  0
  9 19  1  0  0  0  0
 10 16  1  0  0  0  0
 10 11  1  0  0  0  0
 10 20  1  0  0  0  0
 11 12  1  0  0  0  0
 11 21  1  0  0  0  0
 11 22  1  0  0  0  0
 12 13  1  0  0  0  0
 12 23  1  0  0  0  0
 12 24  1  0  0  0  0
 13 14  1  0  0  0  0
 13 15  1  0  0  0  0
 13 25  1  0  0  0  0
 14 26  1  0  0  0  0
 15 16  1  0  0  0  0
 15 27  1  0  0  0  0
 15 28  1  0  0  0  0
 16 29  1  0  0  0  0
 16 30  1  0  0  0  0
M  END
> <s_m_source_file>
AV-unprocessed.smi

> <i_m_source_file_index>
1948

> <i_lp_mmshare_version>
43012

> <i_f3d_flags>
0

> <s_epik_input>
czFbY0hdbm5jMVtOSF1DKD1PKVtOSF1bQ0BASF0yW0NIMl1bQ0gyXVtDQEBIXShbT0hdKVtDSDJdW0NIMl0y

> <s_epik_cmdline>
J2VwaWtfcHl0aG9uJywgJy1waCcsICc3LjAnLCAnLXRuJywgJzgnLCAnLW1hJywgJzIwMCcsICctbWV0YWxfYmluZGluZycsICctaW1hZScsICc8aW5maWxlLm1hZT4nLCAnLW9tYWUnLCAnPG91dGZpbGUubWFlPic=

> <r_lp_tautomer_probability>
1

> <r_epik_Ionization_Penalty>
0.000336938

> <r_epik_Ionization_Penalty_Charging>
0

> <r_epik_Ionization_Penalty_Neutral>
0.000336938

> <r_epik_State_Penalty>
-0

> <r_epik_Charging_Adjusted_Penalty>
0

> <i_epik_Tot_Q>
0

> <i_epik_Tot_abs_Q>
0

> <r_epik_Metal_State_Penalty>
0.175756

> <b_epik_Metal_Only>
0

> <s_lp_Force_Field>
OPLS_2005

> <r_lp_Energy>
6.64552

> <b_lp_Chiralities_Consistent>
1

> <s_lp_Variant>
AV-unprocessed.smi:1948-1

> <Gold.Version>
5.8.1

> <Gold.Id.Protein>
6NUR|6NUR_protein|mol2

> <Gold.PLP.Fitness>
39.9866

> <Gold.PLP.PLP>
-29.4995

> <Gold.PLP.part.hbond>
-5.2998

> <Gold.PLP.part.metal>
0.0000

> <Gold.PLP.part.buried>
-5.0842

> <Gold.PLP.part.nonpolar>
-20.2003

> <Gold.PLP.part.repulsive>
0.1049

> <Gold.PLP.ligand.clash>
0.0000

> <Gold.PLP.ligand.torsion>
0.4488

> <Gold.PLP.Chemscore.Hbond>
3.7938

> <Gold.PLP.Chemscore.CHOScore>
0.0000

> <Gold.PLP.Chemscore.Metal>
0.0000

> <Gold.Chemscore.Hbonds>
donor molecule, donor type, donor heavy atom, donor atom, acceptor molecule, acceptor atom, score
      L1  H     3    17       P1  7948  0.65
      L1  H     9    19       P1  7948  1.00
      L1  H    14    26       P1 10186  0.94
      P1  H 10785 10796       L1    14  0.96

> <Gold.PLP.Chemscore.Internal.Correction>
0.0033

> <Gold.Rescore>
     Score         DG    S(hbond)    S(metal)    S(lipo)     H(rot)  DE(clash)    DE(int)     intcor
     16.08     -17.94       3.03        0.00      53.64       1.55       0.29       1.56       ----

> <Gold.Chemscore.Fitness>
16.0847

> <Gold.Chemscore.DG>
-17.9351

> <Gold.Chemscore.ZeroCoef>
-5.4800

> <Gold.Chemscore.Hbond>
3.0347

> <Gold.Chemscore.Metal>
0.0000

> <Gold.Chemscore.Lipo>
53.6408

> <Gold.Chemscore.Internal_Hbond>
0.0000

> <Gold.Chemscore.DEClash>
0.2946

> <Gold.Chemscore.DEInternal>
1.5559

> <Gold.Chemscore.Rot>
1.5456

> <Gold.Chemscore.Internal.Correction>
   9.000000E+99

> <Gold.Chemscore.Hbonds>
donor molecule, donor type, donor heavy atom, donor atom, acceptor molecule, acceptor atom, score
      L1  H     3    17       P1  7948  0.06
      L1  H     9    19       P1  7948  0.79
      L1  H    14    26       P1 10186  0.90
      P1  H 10785 10796       L1    14  0.41

> <Gold.Chemscore.Hbond.Weighted>
-10.1360

> <Gold.Chemscore.Metal.Weighted>
-0.0000

> <Gold.Chemscore.Lipo.Weighted>
-6.2760

> <Gold.Chemscore.Internal_Hbond.Weighted>
0.0000

> <Gold.Chemscore.DEClash.Weighted>
0.2946

> <Gold.Chemscore.DEInternal.Weighted>
1.5559

> <Gold.Chemscore.Rot.Weighted>
3.9568

> <Gold.Chemscore.Internal.Correction.Weighted>
   9.000000E+99

> <Gold.Protein.RotatedTorsions>
[ 6907 6896 6895 6894 ] final -158.00 input  -60.11 | X-H torsion
[ 7974 7965 7964 7962 ] final -172.62 input  175.53 | X-H torsion
[ 8008 7997 7996 7995 ] final  143.19 input   59.86 | X-H torsion
[ 10167 10162 10161 10158 ] final -147.69 input  -65.29 | X-H torsion
[ 10718 10713 10712 10709 ] final  122.95 input   66.30 | X-H torsion
[ 10763 10752 10751 10750 ] final -132.80 input  -60.55 | X-H torsion
[ 11005 11000 10999 10996 ] final -118.76 input  -57.11 | X-H torsion

> <Gold.Protein.ActiveResidues>
 VAL166  LYS551  ARG553  GLY616  TRP617  ASP618  TYR619  PRO620  LYS621  CYS622 
 ASP623  PHE694  ASN695  SER759  ASP760  ASP761  ALA762  ILE779  LEU786  VAL792 
 PHE793  MET794  SER795  GLU796  ALA797  LYS798  CYS799  TRP800  GLU811  SER814 

> <Gold.Protein.RotatedAtoms>
  151.3115  133.4079  159.2646 H   0  0  0  0  0  0  0  0  0  0  0  0  # atno 6907 bound_to 6896
  151.0111  134.9398  159.8018 H   0  0  0  0  0  0  0  0  0  0  0  0  # atno 6908 bound_to 6896
  152.5301  134.3079  159.9155 H   0  0  0  0  0  0  0  0  0  0  0  0  # atno 6909 bound_to 6896
  144.7144  140.1744  143.6364 H   0  0  0  0  0  0  0  0  0  0  0  0  # atno 7974 bound_to 7965
  156.2935  140.2269  156.4851 H   0  0  0  0  0  0  0  0  0  0  0  0  # atno 8008 bound_to 7997
  154.7819  140.0459  157.1155 H   0  0  0  0  0  0  0  0  0  0  0  0  # atno 8009 bound_to 7997
  154.9748  140.3071  155.4975 H   0  0  0  0  0  0  0  0  0  0  0  0  # atno 8010 bound_to 7997
  139.7599  143.8392  152.2605 H   0  0  0  0  0  0  0  0  0  0  0  0  # atno 10167 bound_to 10162
  157.5703  131.1083  150.8380 H   0  0  0  0  0  0  0  0  0  0  0  0  # atno 10718 bound_to 10713
  154.8739  135.3786  154.4468 H   0  0  0  0  0  0  0  0  0  0  0  0  # atno 10763 bound_to 10752
  153.5148  135.7029  153.5767 H   0  0  0  0  0  0  0  0  0  0  0  0  # atno 10764 bound_to 10752
  153.4040  135.3941  155.1972 H   0  0  0  0  0  0  0  0  0  0  0  0  # atno 10765 bound_to 10752
  141.0263  134.0049  157.3209 H   0  0  0  0  0  0  0  0  0  0  0  0  # atno 11005 bound_to 11000
  145.8914  139.2378  143.1547 LP  0  0  0  0  0  0  0  0  0  0  0  0  # atno 17320 bound_to 7965
  145.9900  140.8611  143.0071 LP  0  0  0  0  0  0  0  0  0  0  0  0  # atno 17321 bound_to 7965
  139.8396  144.7216  150.9348 LP  0  0  0  0  0  0  0  0  0  0  0  0  # atno 17342 bound_to 10162
  140.7806  143.3996  151.1172 LP  0  0  0  0  0  0  0  0  0  0  0  0  # atno 17343 bound_to 10162
  156.8853  130.5194  149.5289 LP  0  0  0  0  0  0  0  0  0  0  0  0  # atno 17370 bound_to 10713
  156.0748  130.5773  150.9453 LP  0  0  0  0  0  0  0  0  0  0  0  0  # atno 17371 bound_to 10713
  139.9178  135.0198  156.7949 LP  0  0  0  0  0  0  0  0  0  0  0  0  # atno 17394 bound_to 11000
  140.6485  133.9753  155.7743 LP  0  0  0  0  0  0  0  0  0  0  0  0  # atno 17395 bound_to 11000

$$$$
