AV-unprocessed.smi:1803|AV-procd|sdf|7289|dock10
  -GOLD-   22720 8543D 1   1.00000     0.00000
 Structure written by MMmdl.
 35 37  0  0  0  0  0  0  0  0  3 V2000
  148.9113  138.4956  155.1659 O   0  0  0  0  0  0  0  0  0  0  0  0
  149.3821  139.3414  154.4067 C   0  0  0  0  0  0  0  0  0  0  0  0
  150.7160  139.5285  154.2301 N   0  5  0  0  0  0  0  0  0  0  0  0
  151.6318  139.1109  155.1241 C   0  0  0  0  0  0  0  0  0  0  0  0
  152.9515  139.1553  154.8796 N   0  0  0  0  0  0  0  0  0  0  0  0
  153.7183  138.6844  155.9366 N   0  0  0  0  0  0  0  0  0  0  0  0
  152.9532  138.2852  156.9523 C   0  0  0  0  0  0  0  0  0  0  0  0
  151.2270  138.4538  156.7119 S   0  0  0  0  0  0  0  0  0  0  0  0
  148.5415  140.1268  153.7080 N   0  0  0  0  0  0  0  0  0  0  0  0
  147.0857  140.0827  153.7635 C   0  0  2  0  0  0  0  0  0  0  0  0
  146.5040  140.2923  155.1750 C   0  0  0  0  0  0  0  0  0  0  0  0
  145.3081  139.3245  155.2707 C   0  0  0  0  0  0  0  0  0  0  0  0
  145.1981  138.7076  153.9346 N   0  3  2  0  0  0  0  0  0  0  0  0
  144.5399  137.3857  153.8520 C   0  0  0  0  0  0  0  0  0  0  0  0
  144.4568  136.9501  152.3746 C   0  0  0  0  0  0  0  0  0  0  0  0
  145.8359  136.9969  151.6843 C   0  0  0  0  0  0  0  0  0  0  0  0
  146.5107  138.3677  151.8827 C   0  0  0  0  0  0  0  0  0  0  0  0
  146.5604  138.7013  153.3823 C   0  0  1  0  0  0  0  0  0  0  0  0
  153.4077  137.8886  157.8478 H   0  0  0  0  0  0  0  0  0  0  0  0
  148.9544  140.8083  153.0881 H   0  0  0  0  0  0  0  0  0  0  0  0
  146.6649  140.8262  153.0832 H   0  0  0  0  0  0  0  0  0  0  0  0
  147.2367  140.0512  155.9466 H   0  0  0  0  0  0  0  0  0  0  0  0
  146.2020  141.3296  155.3238 H   0  0  0  0  0  0  0  0  0  0  0  0
  145.5061  138.5599  156.0234 H   0  0  0  0  0  0  0  0  0  0  0  0
  144.3818  139.8327  155.5393 H   0  0  0  0  0  0  0  0  0  0  0  0
  145.1010  136.6539  154.4352 H   0  0  0  0  0  0  0  0  0  0  0  0
  143.5406  137.4464  154.2841 H   0  0  0  0  0  0  0  0  0  0  0  0
  144.0372  135.9461  152.3041 H   0  0  0  0  0  0  0  0  0  0  0  0
  143.7683  137.6087  151.8436 H   0  0  0  0  0  0  0  0  0  0  0  0
  146.4745  136.2153  152.0980 H   0  0  0  0  0  0  0  0  0  0  0  0
  145.7315  136.7799  150.6208 H   0  0  0  0  0  0  0  0  0  0  0  0
  147.5178  138.3560  151.4643 H   0  0  0  0  0  0  0  0  0  0  0  0
  145.9554  139.1366  151.3438 H   0  0  0  0  0  0  0  0  0  0  0  0
  147.1434  137.9390  153.9053 H   0  0  0  0  0  0  0  0  0  0  0  0
  144.6641  139.3488  153.3657 H   0  0  0  0  0  0  0  0  0  0  0  0
  1  2  2  0  0  0  0
  2  3  1  0  0  0  0
  2  9  1  0  0  0  0
  3  4  1  0  0  0  0
  4  8  1  0  0  0  0
  4  5  2  0  0  0  0
  5  6  1  0  0  0  0
  6  7  2  0  0  0  0
  7  8  1  0  0  0  0
  7 19  1  0  0  0  0
  9 10  1  0  0  0  0
  9 20  1  0  0  0  0
 10 18  1  0  0  0  0
 10 11  1  0  0  0  0
 10 21  1  0  0  0  0
 11 12  1  0  0  0  0
 11 22  1  0  0  0  0
 11 23  1  0  0  0  0
 12 13  1  0  0  0  0
 12 24  1  0  0  0  0
 12 25  1  0  0  0  0
 13 18  1  0  0  0  0
 13 14  1  0  0  0  0
 13 35  1  0  0  0  0
 14 15  1  0  0  0  0
 14 26  1  0  0  0  0
 14 27  1  0  0  0  0
 15 16  1  0  0  0  0
 15 28  1  0  0  0  0
 15 29  1  0  0  0  0
 16 17  1  0  0  0  0
 16 30  1  0  0  0  0
 16 31  1  0  0  0  0
 17 18  1  0  0  0  0
 17 32  1  0  0  0  0
 17 33  1  0  0  0  0
 18 34  1  0  0  0  0
M  CHG  1   3  -1
M  CHG  1  13   1
M  END
> <s_m_source_file>
AV-unprocessed.smi

> <i_m_source_file_index>
1803

> <i_lp_mmshare_version>
43012

> <i_f3d_flags>
0

> <s_epik_input>
czFbY0hdbm5jMVtOSF1DKD1PKVtOSF1bQ0BIXShbQ0gyXVtDSDJdMilbQ0BASF0oTjIzKVtDSDJdW0NIMl1bQ0gyXVtDSDJdMw==

> <s_epik_cmdline>
J2VwaWtfcHl0aG9uJywgJy1waCcsICc3LjAnLCAnLXRuJywgJzgnLCAnLW1hJywgJzIwMCcsICctbWV0YWxfYmluZGluZycsICctaW1hZScsICc8aW5maWxlLm1hZT4nLCAnLW9tYWUnLCAnPG91dGZpbGUubWFlPic=

> <r_lp_tautomer_probability>
1

> <r_epik_Ionization_Penalty>
3.78828

> <r_epik_Ionization_Penalty_Charging>
3.7591

> <r_epik_Ionization_Penalty_Neutral>
0.0291838

> <r_epik_State_Penalty>
3.757

> <r_epik_Charging_Adjusted_Penalty>
7.51609

> <i_epik_Tot_Q>
0

> <i_epik_Tot_abs_Q>
2

> <r_epik_Metal_State_Penalty>
0.558016

> <b_epik_Metal_Only>
1

> <s_lp_Force_Field>
OPLS_2005

> <r_lp_Energy>
28.5802

> <b_lp_Chiralities_Consistent>
1

> <s_lp_Variant>
AV-unprocessed.smi:1803-11

> <Gold.Version>
5.8.1

> <Gold.Id.Protein>
6NUR|6NUR_protein|mol2

> <Gold.PLP.Fitness>
35.6226

> <Gold.PLP.PLP>
-24.1262

> <Gold.PLP.part.hbond>
-4.8278

> <Gold.PLP.part.metal>
0.0000

> <Gold.PLP.part.buried>
-1.4821

> <Gold.PLP.part.nonpolar>
-19.2012

> <Gold.PLP.part.repulsive>
0.3632

> <Gold.PLP.ligand.clash>
0.0000

> <Gold.PLP.ligand.torsion>
0.1091

> <Gold.PLP.Chemscore.Hbond>
3.9016

> <Gold.PLP.Chemscore.CHOScore>
0.0000

> <Gold.PLP.Chemscore.Metal>
0.0000

> <Gold.Chemscore.Hbonds>
donor molecule, donor type, donor heavy atom, donor atom, acceptor molecule, acceptor atom, score
      L1  H     9    20       P1  7957  0.21
      L1  H    13    35       P1 10175  2.00
      P1  H  7989  7998       L1     3  0.95
      P1  H  7997  8009       L1     6  0.69

> <Gold.PLP.Chemscore.Internal.Correction>
0.0099

> <Gold.Rescore>
     Score         DG    S(hbond)    S(metal)    S(lipo)     H(rot)  DE(clash)    DE(int)     intcor
     12.41     -16.19       2.30        0.00      47.74       1.00       0.06       3.72       ----

> <Gold.Chemscore.Fitness>
12.4143

> <Gold.Chemscore.DG>
-16.1915

> <Gold.Chemscore.ZeroCoef>
-5.4800

> <Gold.Chemscore.Hbond>
2.3013

> <Gold.Chemscore.Metal>
0.0000

> <Gold.Chemscore.Lipo>
47.7355

> <Gold.Chemscore.Internal_Hbond>
0.0000

> <Gold.Chemscore.DEClash>
0.0566

> <Gold.Chemscore.DEInternal>
3.7206

> <Gold.Chemscore.Rot>
1.0000

> <Gold.Chemscore.Internal.Correction>
   9.000000E+99

> <Gold.Chemscore.Hbonds>
donor molecule, donor type, donor heavy atom, donor atom, acceptor molecule, acceptor atom, score
      L1  H     9    20       P1  7957  0.21
      L1  H    13    35       P1 10175  1.00
      P1  H  7989  7998       L1     3  0.22
      P1  H  7997  8009       L1     6  0.09

> <Gold.Chemscore.Hbond.Weighted>
-7.6865

> <Gold.Chemscore.Metal.Weighted>
-0.0000

> <Gold.Chemscore.Lipo.Weighted>
-5.5851

> <Gold.Chemscore.Internal_Hbond.Weighted>
0.0000

> <Gold.Chemscore.DEClash.Weighted>
0.0566

> <Gold.Chemscore.DEInternal.Weighted>
3.7206

> <Gold.Chemscore.Rot.Weighted>
2.5600

> <Gold.Chemscore.Internal.Correction.Weighted>
   9.000000E+99

> <Gold.Protein.RotatedTorsions>
[ 6907 6896 6895 6894 ] final  165.47 input  -60.11 | X-H torsion
[ 7974 7965 7964 7962 ] final  138.55 input  175.53 | X-H torsion
[ 8008 7997 7996 7995 ] final -169.66 input   59.86 | X-H torsion
[ 10167 10162 10161 10158 ] final   24.17 input  -65.29 | X-H torsion
[ 10718 10713 10712 10709 ] final -152.96 input   66.30 | X-H torsion
[ 10763 10752 10751 10750 ] final -102.80 input  -60.55 | X-H torsion
[ 11005 11000 10999 10996 ] final  -13.64 input  -57.11 | X-H torsion

> <Gold.Protein.ActiveResidues>
 VAL166  LYS551  ARG553  GLY616  TRP617  ASP618  TYR619  PRO620  LYS621  CYS622 
 ASP623  PHE694  ASN695  SER759  ASP760  ASP761  ALA762  ILE779  LEU786  VAL792 
 PHE793  MET794  SER795  GLU796  ALA797  LYS798  CYS799  TRP800  GLU811  SER814 

> <Gold.Protein.RotatedAtoms>
  151.8939  133.3522  159.3807 H   0  0  0  0  0  0  0  0  0  0  0  0  # atno 6907 bound_to 6896
  150.7096  134.4896  159.5518 H   0  0  0  0  0  0  0  0  0  0  0  0  # atno 6908 bound_to 6896
  152.2471  134.8170  160.0502 H   0  0  0  0  0  0  0  0  0  0  0  0  # atno 6909 bound_to 6896
  144.9362  139.4986  143.5594 H   0  0  0  0  0  0  0  0  0  0  0  0  # atno 7974 bound_to 7965
  155.9080  140.1052  157.1301 H   0  0  0  0  0  0  0  0  0  0  0  0  # atno 8008 bound_to 7997
  154.4035  140.1280  156.4585 H   0  0  0  0  0  0  0  0  0  0  0  0  # atno 8009 bound_to 7997
  155.7345  140.3468  155.5077 H   0  0  0  0  0  0  0  0  0  0  0  0  # atno 8010 bound_to 7997
  140.5210  144.0002  150.6417 H   0  0  0  0  0  0  0  0  0  0  0  0  # atno 10167 bound_to 10162
  156.4795  130.8296  151.2524 H   0  0  0  0  0  0  0  0  0  0  0  0  # atno 10718 bound_to 10713
  154.7761  135.4847  153.9747 H   0  0  0  0  0  0  0  0  0  0  0  0  # atno 10763 bound_to 10752
  153.1431  135.6776  153.9004 H   0  0  0  0  0  0  0  0  0  0  0  0  # atno 10764 bound_to 10752
  153.8673  135.3148  155.3419 H   0  0  0  0  0  0  0  0  0  0  0  0  # atno 10765 bound_to 10752
  140.7781  133.8384  155.9267 H   0  0  0  0  0  0  0  0  0  0  0  0  # atno 11005 bound_to 11000
  146.3267  139.8348  142.8901 LP  0  0  0  0  0  0  0  0  0  0  0  0  # atno 17320 bound_to 7965
  145.3064  141.0208  143.3580 LP  0  0  0  0  0  0  0  0  0  0  0  0  # atno 17321 bound_to 7965
  140.3351  143.3053  152.0646 LP  0  0  0  0  0  0  0  0  0  0  0  0  # atno 17342 bound_to 10162
  139.4923  144.6482  151.6733 LP  0  0  0  0  0  0  0  0  0  0  0  0  # atno 17343 bound_to 10162
  157.7484  131.0049  150.3095 LP  0  0  0  0  0  0  0  0  0  0  0  0  # atno 17370 bound_to 10713
  156.3536  130.3835  149.7309 LP  0  0  0  0  0  0  0  0  0  0  0  0  # atno 17371 bound_to 10713
  140.9509  134.1780  157.4728 LP  0  0  0  0  0  0  0  0  0  0  0  0  # atno 17394 bound_to 11000
  139.8746  134.9908  156.5522 LP  0  0  0  0  0  0  0  0  0  0  0  0  # atno 17395 bound_to 11000

$$$$
