AV-unprocessed.smi:2830|AV-procd|sdf|10907|dock3
  -GOLD-   2272015353D 1   1.00000     0.00000
 Structure written by MMmdl.
 28 28  0  0  0  0  0  0  0  0  1 V2000
  144.9647  137.4073  152.8756 C   0  0  0  0  0  0  0  0  0  0  0  0
  146.1423  137.5458  152.1003 O   0  0  0  0  0  0  0  0  0  0  0  0
  146.5669  138.8951  151.9887 C   0  0  0  0  0  0  0  0  0  0  0  0
  147.3350  139.2886  153.2636 C   0  0  1  0  0  0  0  0  0  0  0  0
  148.6181  138.5893  153.3007 N   0  0  0  0  0  0  0  0  0  0  0  0
  149.5628  138.8032  154.3162 C   0  0  0  0  0  0  0  0  0  0  0  0
  150.8749  138.3217  154.1229 C   0  0  0  0  0  0  0  0  0  0  0  0
  151.8328  138.5299  155.1345 C   0  0  0  0  0  0  0  0  0  0  0  0
  151.4454  139.2115  156.3048 C   0  0  0  0  0  0  0  0  0  0  0  0
  152.3965  139.4523  157.3763 C   0  0  0  0  0  0  0  0  0  0  0  0
  153.1540  139.6442  158.2296 N   0  0  0  0  0  0  0  0  0  0  0  0
  150.1112  139.6539  156.4095 C   0  0  0  0  0  0  0  0  0  0  0  0
  149.1890  139.4557  155.4432 N   0  0  0  0  0  0  0  0  0  0  0  0
  147.4744  140.8180  153.3308 C   0  0  0  0  0  0  0  0  0  0  0  0
  146.3505  141.5345  153.2451 N   0  0  0  0  0  0  0  0  0  0  0  0
  148.5791  141.3469  153.4431 O   0  0  0  0  0  0  0  0  0  0  0  0
  144.6850  136.3552  152.9306 H   0  0  0  0  0  0  0  0  0  0  0  0
  144.1327  137.9543  152.4304 H   0  0  0  0  0  0  0  0  0  0  0  0
  145.1174  137.7685  153.8936 H   0  0  0  0  0  0  0  0  0  0  0  0
  147.1927  139.0288  151.1039 H   0  0  0  0  0  0  0  0  0  0  0  0
  145.6864  139.5284  151.8616 H   0  0  0  0  0  0  0  0  0  0  0  0
  146.7365  138.9661  154.1177 H   0  0  0  0  0  0  0  0  0  0  0  0
  148.8789  138.0377  152.4964 H   0  0  0  0  0  0  0  0  0  0  0  0
  151.1472  137.8025  153.2156 H   0  0  0  0  0  0  0  0  0  0  0  0
  152.8443  138.1714  155.0079 H   0  0  0  0  0  0  0  0  0  0  0  0
  149.7690  140.1807  157.2887 H   0  0  0  0  0  0  0  0  0  0  0  0
  146.3920  142.5429  153.2757 H   0  0  0  0  0  0  0  0  0  0  0  0
  145.4634  141.0639  153.1412 H   0  0  0  0  0  0  0  0  0  0  0  0
  1  2  1  0  0  0  0
  1 17  1  0  0  0  0
  1 18  1  0  0  0  0
  1 19  1  0  0  0  0
  2  3  1  0  0  0  0
  3  4  1  0  0  0  0
  3 20  1  0  0  0  0
  3 21  1  0  0  0  0
  4  5  1  0  0  0  0
  4 14  1  0  0  0  0
  4 22  1  0  0  0  0
  5  6  1  0  0  0  0
  5 23  1  0  0  0  0
  6 13  1  0  0  0  0
  6  7  2  0  0  0  0
  7  8  1  0  0  0  0
  7 24  1  0  0  0  0
  8  9  2  0  0  0  0
  8 25  1  0  0  0  0
  9 10  1  0  0  0  0
  9 12  1  0  0  0  0
 10 11  3  0  0  0  0
 12 13  2  0  0  0  0
 12 26  1  0  0  0  0
 14 15  1  0  0  0  0
 14 16  2  0  0  0  0
 15 27  1  0  0  0  0
 15 28  1  0  0  0  0
M  END
> <s_m_source_file>
AV-unprocessed.smi

> <i_m_source_file_index>
2830

> <i_lp_mmshare_version>
43012

> <i_f3d_flags>
0

> <s_epik_input>
W0NIM11PW0NIMl1bQ0BASF0oQyg9TylbTkgyXSlbTkhdYzFbY0hdW2NIXWMoQyNOKVtjSF1uMQ==

> <s_epik_cmdline>
J2VwaWtfcHl0aG9uJywgJy1waCcsICc3LjAnLCAnLXRuJywgJzgnLCAnLW1hJywgJzIwMCcsICctbWV0YWxfYmluZGluZycsICctaW1hZScsICc8aW5maWxlLm1hZT4nLCAnLW9tYWUnLCAnPG91dGZpbGUubWFlPic=

> <r_lp_tautomer_probability>
1

> <r_epik_Ionization_Penalty>
4.37908e-06

> <r_epik_Ionization_Penalty_Charging>
0

> <r_epik_Ionization_Penalty_Neutral>
4.37908e-06

> <r_epik_State_Penalty>
-0

> <r_epik_Charging_Adjusted_Penalty>
0

> <i_epik_Tot_Q>
0

> <i_epik_Tot_abs_Q>
0

> <r_epik_Metal_State_Penalty>
-0

> <b_epik_Metal_Only>
0

> <s_lp_Force_Field>
OPLS_2005

> <r_lp_Energy>
3.76959

> <b_lp_Chiralities_Consistent>
1

> <s_lp_Variant>
AV-unprocessed.smi:2830-2

> <Gold.Version>
5.8.1

> <Gold.Id.Protein>
6NUR|6NUR_protein|mol2

> <Gold.PLP.Fitness>
35.7749

> <Gold.PLP.PLP>
-25.4803

> <Gold.PLP.part.hbond>
-5.0000

> <Gold.PLP.part.metal>
0.0000

> <Gold.PLP.part.buried>
-2.7676

> <Gold.PLP.part.nonpolar>
-19.6721

> <Gold.PLP.part.repulsive>
1.9550

> <Gold.PLP.ligand.clash>
0.0000

> <Gold.PLP.ligand.torsion>
0.2828

> <Gold.PLP.Chemscore.Hbond>
3.6073

> <Gold.PLP.Chemscore.CHOScore>
0.0000

> <Gold.PLP.Chemscore.Metal>
0.0000

> <Gold.Chemscore.Hbonds>
donor molecule, donor type, donor heavy atom, donor atom, acceptor molecule, acceptor atom, score
      L1  H     5    23       P1  7948  0.88
      L1  H    15    28       P1 10175  1.00
      P1  H  7997  8009       L1    11  0.98
      P1  H  8011  8017       L1    16  0.83

> <Gold.PLP.Chemscore.Internal.Correction>
0.0384

> <Gold.Rescore>
     Score         DG    S(hbond)    S(metal)    S(lipo)     H(rot)  DE(clash)    DE(int)     intcor
     11.78     -14.19       2.82        0.00      44.74       2.32       0.92       1.49       ----

> <Gold.Chemscore.Fitness>
11.7842

> <Gold.Chemscore.DG>
-14.1861

> <Gold.Chemscore.ZeroCoef>
-5.4800

> <Gold.Chemscore.Hbond>
2.8172

> <Gold.Chemscore.Metal>
0.0000

> <Gold.Chemscore.Lipo>
44.7446

> <Gold.Chemscore.Internal_Hbond>
0.0000

> <Gold.Chemscore.DEClash>
0.9158

> <Gold.Chemscore.DEInternal>
1.4862

> <Gold.Chemscore.Rot>
2.3197

> <Gold.Chemscore.Internal.Correction>
   9.000000E+99

> <Gold.Chemscore.Hbonds>
donor molecule, donor type, donor heavy atom, donor atom, acceptor molecule, acceptor atom, score
      L1  H     5    23       P1  7948  0.86
      L1  H    15    28       P1 10175  0.29
      P1  H  7997  8009       L1    11  0.32
      P1  H  8011  8017       L1    16  0.82

> <Gold.Chemscore.Hbond.Weighted>
-9.4094

> <Gold.Chemscore.Metal.Weighted>
-0.0000

> <Gold.Chemscore.Lipo.Weighted>
-5.2351

> <Gold.Chemscore.Internal_Hbond.Weighted>
0.0000

> <Gold.Chemscore.DEClash.Weighted>
0.9158

> <Gold.Chemscore.DEInternal.Weighted>
1.4862

> <Gold.Chemscore.Rot.Weighted>
5.9384

> <Gold.Chemscore.Internal.Correction.Weighted>
   9.000000E+99

> <Gold.Protein.RotatedTorsions>
[ 6907 6896 6895 6894 ] final -106.03 input  -60.11 | X-H torsion
[ 7974 7965 7964 7962 ] final    0.92 input  175.53 | X-H torsion
[ 8008 7997 7996 7995 ] final  136.64 input   59.86 | X-H torsion
[ 10167 10162 10161 10158 ] final -157.07 input  -65.29 | X-H torsion
[ 10718 10713 10712 10709 ] final  -32.63 input   66.30 | X-H torsion
[ 10763 10752 10751 10750 ] final    4.85 input  -60.55 | X-H torsion
[ 11005 11000 10999 10996 ] final  -90.15 input  -57.11 | X-H torsion

> <Gold.Protein.ActiveResidues>
 VAL166  LYS551  ARG553  GLY616  TRP617  ASP618  TYR619  PRO620  LYS621  CYS622 
 ASP623  PHE694  ASN695  SER759  ASP760  ASP761  ALA762  ILE779  LEU786  VAL792 
 PHE793  MET794  SER795  GLU796  ALA797  LYS798  CYS799  TRP800  GLU811  SER814 

> <Gold.Protein.RotatedAtoms>
  150.7368  134.0037  159.3646 H   0  0  0  0  0  0  0  0  0  0  0  0  # atno 6907 bound_to 6896
  151.7993  135.0711  160.0407 H   0  0  0  0  0  0  0  0  0  0  0  0  # atno 6908 bound_to 6896
  152.3152  133.5759  159.5744 H   0  0  0  0  0  0  0  0  0  0  0  0  # atno 6909 bound_to 6896
  146.2437  140.1064  142.8345 H   0  0  0  0  0  0  0  0  0  0  0  0  # atno 7974 bound_to 7965
  156.3004  140.2440  156.3778 H   0  0  0  0  0  0  0  0  0  0  0  0  # atno 8008 bound_to 7997
  154.8729  140.0415  157.1755 H   0  0  0  0  0  0  0  0  0  0  0  0  # atno 8009 bound_to 7997
  154.8776  140.2944  155.5448 H   0  0  0  0  0  0  0  0  0  0  0  0  # atno 8010 bound_to 7997
  139.6800  143.9598  152.2331 H   0  0  0  0  0  0  0  0  0  0  0  0  # atno 10167 bound_to 10162
  156.3726  130.4342  149.7533 H   0  0  0  0  0  0  0  0  0  0  0  0  # atno 10718 bound_to 10713
  153.2663  135.6928  153.7526 H   0  0  0  0  0  0  0  0  0  0  0  0  # atno 10763 bound_to 10752
  153.6566  135.3367  155.3116 H   0  0  0  0  0  0  0  0  0  0  0  0  # atno 10764 bound_to 10752
  154.8448  135.4467  154.1671 H   0  0  0  0  0  0  0  0  0  0  0  0  # atno 10765 bound_to 10752
  141.1571  133.7674  156.9696 H   0  0  0  0  0  0  0  0  0  0  0  0  # atno 11005 bound_to 11000
  145.0524  140.9027  143.4987 LP  0  0  0  0  0  0  0  0  0  0  0  0  # atno 17320 bound_to 7965
  145.1165  139.2722  143.5611 LP  0  0  0  0  0  0  0  0  0  0  0  0  # atno 17321 bound_to 7965
  139.9385  144.6696  150.8290 LP  0  0  0  0  0  0  0  0  0  0  0  0  # atno 17342 bound_to 10162
  140.7649  143.3260  151.2515 LP  0  0  0  0  0  0  0  0  0  0  0  0  # atno 17343 bound_to 10162
  156.4655  130.7972  151.2991 LP  0  0  0  0  0  0  0  0  0  0  0  0  # atno 17370 bound_to 10713
  157.7485  131.0052  150.3106 LP  0  0  0  0  0  0  0  0  0  0  0  0  # atno 17371 bound_to 10713
  140.1138  134.9460  157.2104 LP  0  0  0  0  0  0  0  0  0  0  0  0  # atno 17394 bound_to 11000
  140.3159  134.2971  155.7256 LP  0  0  0  0  0  0  0  0  0  0  0  0  # atno 17395 bound_to 11000

$$$$
