AV-unprocessed.smi:800|AV-procd|sdf|3788|dock2
  -GOLD-   22720 1223D 1   1.00000     0.00000
 Structure written by MMmdl.
 35 36  0  0  0  0  0  0  0  0  2 V2000
  145.8520  136.5866  162.0699 C   0  0  0  0  0  0  0  0  0  0  0  0
  147.2563  136.0297  161.7887 C   0  0  0  0  0  0  0  0  0  0  0  0
  148.0637  135.8622  163.0833 C   0  0  0  0  0  0  0  0  0  0  0  0
  147.9723  136.9410  160.8969 N   0  5  0  0  0  0  0  0  0  0  0  0
  148.4936  136.5831  159.6889 C   0  0  0  0  0  0  0  0  0  0  0  0
  148.8361  135.4719  159.2695 O   0  0  0  0  0  0  0  0  0  0  0  0
  148.7198  137.7711  158.7977 C   0  0  0  0  0  0  0  0  0  0  0  0
  149.8396  138.4940  159.0331 N   0  0  0  0  0  0  0  0  0  0  0  0
  150.0833  139.5645  158.2685 C   0  0  0  0  0  0  0  0  0  0  0  0
  151.2413  140.3045  158.5415 N   0  0  0  0  0  0  0  0  0  0  0  0
  151.4543  141.6511  158.0060 C   0  0  0  0  0  0  0  0  0  0  0  0
  152.2572  142.5108  158.9971 C   0  0  0  0  0  0  0  0  0  0  0  0
  153.4772  141.8575  159.3254 O   0  0  0  0  0  0  0  0  0  0  0  0
  153.2450  140.6042  159.9570 C   0  0  0  0  0  0  0  0  0  0  0  0
  152.4807  139.6727  159.0014 C   0  0  0  0  0  0  0  0  0  0  0  0
  149.3025  139.9810  157.2638 N   0  0  0  0  0  0  0  0  0  0  0  0
  148.1895  139.2662  156.9976 C   0  0  0  0  0  0  0  0  0  0  0  0
  147.8400  138.1233  157.7407 C   0  0  0  0  0  0  0  0  0  0  0  0
  146.4257  137.2185  157.3174 Cl  0  0  0  0  0  0  0  0  0  0  0  0
  145.2983  135.9284  162.7395 H   0  0  0  0  0  0  0  0  0  0  0  0
  145.2723  136.6807  161.1508 H   0  0  0  0  0  0  0  0  0  0  0  0
  145.8991  137.5715  162.5363 H   0  0  0  0  0  0  0  0  0  0  0  0
  147.1420  135.0387  161.3466 H   0  0  0  0  0  0  0  0  0  0  0  0
  147.5602  135.1828  163.7715 H   0  0  0  0  0  0  0  0  0  0  0  0
  148.1983  136.8146  163.5971 H   0  0  0  0  0  0  0  0  0  0  0  0
  149.0527  135.4494  162.8805 H   0  0  0  0  0  0  0  0  0  0  0  0
  151.9915  141.5686  157.0606 H   0  0  0  0  0  0  0  0  0  0  0  0
  150.5164  142.1631  157.7927 H   0  0  0  0  0  0  0  0  0  0  0  0
  152.4829  143.4808  158.5543 H   0  0  0  0  0  0  0  0  0  0  0  0
  151.6792  142.7019  159.9029 H   0  0  0  0  0  0  0  0  0  0  0  0
  154.2038  140.1605  160.2252 H   0  0  0  0  0  0  0  0  0  0  0  0
  152.6904  140.7478  160.8860 H   0  0  0  0  0  0  0  0  0  0  0  0
  152.2999  138.7290  159.5153 H   0  0  0  0  0  0  0  0  0  0  0  0
  153.0966  139.4436  158.1313 H   0  0  0  0  0  0  0  0  0  0  0  0
  147.5786  139.6051  156.1741 H   0  0  0  0  0  0  0  0  0  0  0  0
  1  2  1  0  0  0  0
  1 20  1  0  0  0  0
  1 21  1  0  0  0  0
  1 22  1  0  0  0  0
  2  3  1  0  0  0  0
  2  4  1  0  0  0  0
  2 23  1  0  0  0  0
  3 24  1  0  0  0  0
  3 25  1  0  0  0  0
  3 26  1  0  0  0  0
  4  5  1  0  0  0  0
  5  6  2  0  0  0  0
  5  7  1  0  0  0  0
  7 18  1  0  0  0  0
  7  8  2  0  0  0  0
  8  9  1  0  0  0  0
  9 10  1  0  0  0  0
  9 16  2  0  0  0  0
 10 15  1  0  0  0  0
 10 11  1  0  0  0  0
 11 12  1  0  0  0  0
 11 27  1  0  0  0  0
 11 28  1  0  0  0  0
 12 13  1  0  0  0  0
 12 29  1  0  0  0  0
 12 30  1  0  0  0  0
 13 14  1  0  0  0  0
 14 15  1  0  0  0  0
 14 31  1  0  0  0  0
 14 32  1  0  0  0  0
 15 33  1  0  0  0  0
 15 34  1  0  0  0  0
 16 17  1  0  0  0  0
 17 18  2  0  0  0  0
 17 35  1  0  0  0  0
 18 19  1  0  0  0  0
M  CHG  1   4  -1
M  END
> <s_m_source_file>
AV-unprocessed.smi

> <i_m_source_file_index>
800

> <i_lp_mmshare_version>
43012

> <i_f3d_flags>
0

> <s_epik_input>
W0NIM11bQ0hdKFtDSDNdKVtOSF1DKD1PKWMxbmMobltjSF1jMUNsKU4yW0NIMl1bQ0gyXU9bQ0gyXVtDSDJdMg==

> <s_epik_cmdline>
J2VwaWtfcHl0aG9uJywgJy1waCcsICc3LjAnLCAnLXRuJywgJzgnLCAnLW1hJywgJzIwMCcsICctbWV0YWxfYmluZGluZycsICctaW1hZScsICc8aW5maWxlLm1hZT4nLCAnLW9tYWUnLCAnPG91dGZpbGUubWFlPic=

> <r_lp_tautomer_probability>
1

> <r_epik_Ionization_Penalty>
6.38192

> <r_epik_Ionization_Penalty_Charging>
6.38189

> <r_epik_Ionization_Penalty_Neutral>
2.33077e-05

> <r_epik_State_Penalty>
6.38188

> <r_epik_Charging_Adjusted_Penalty>
12.7638

> <i_epik_Tot_Q>
-1

> <i_epik_Tot_abs_Q>
1

> <r_epik_Metal_State_Penalty>
2.31349

> <b_epik_Metal_Only>
1

> <s_lp_Force_Field>
OPLS_2005

> <r_lp_Energy>
18.4653

> <b_lp_Chiralities_Consistent>
1

> <s_lp_Variant>
AV-unprocessed.smi:800-2

> <Gold.Version>
5.8.1

> <Gold.Id.Protein>
6NUR|6NUR_protein|mol2

> <Gold.PLP.Fitness>
39.7392

> <Gold.PLP.PLP>
-30.2364

> <Gold.PLP.part.hbond>
-3.9950

> <Gold.PLP.part.metal>
0.0000

> <Gold.PLP.part.buried>
-4.9099

> <Gold.PLP.part.nonpolar>
-22.1842

> <Gold.PLP.part.repulsive>
0.0000

> <Gold.PLP.ligand.clash>
0.0000

> <Gold.PLP.ligand.torsion>
1.8720

> <Gold.PLP.Chemscore.Hbond>
4.3600

> <Gold.PLP.Chemscore.CHOScore>
0.0000

> <Gold.PLP.Chemscore.Metal>
0.0000

> <Gold.Chemscore.Hbonds>
donor molecule, donor type, donor heavy atom, donor atom, acceptor molecule, acceptor atom, score
      P1  H  6896  6909       L1     6  0.91
      P1  H  6931  6943       L1     4  2.00
      P1  H  6934  6947       L1     4  0.83

> <Gold.PLP.Chemscore.Internal.Correction>
0.1668

> <Gold.Rescore>
     Score         DG    S(hbond)    S(metal)    S(lipo)     H(rot)  DE(clash)    DE(int)     intcor
     14.46     -16.80       1.95        0.00      63.00       1.00       0.06       2.28       ----

> <Gold.Chemscore.Fitness>
14.4610

> <Gold.Chemscore.DG>
-16.7955

> <Gold.Chemscore.ZeroCoef>
-5.4800

> <Gold.Chemscore.Hbond>
1.9473

> <Gold.Chemscore.Metal>
0.0000

> <Gold.Chemscore.Lipo>
63.0041

> <Gold.Chemscore.Internal_Hbond>
0.0000

> <Gold.Chemscore.DEClash>
0.0569

> <Gold.Chemscore.DEInternal>
2.2777

> <Gold.Chemscore.Rot>
1.0000

> <Gold.Chemscore.Internal.Correction>
   9.000000E+99

> <Gold.Chemscore.Hbonds>
donor molecule, donor type, donor heavy atom, donor atom, acceptor molecule, acceptor atom, score
      P1  H  6896  6909       L1     6  0.88
      P1  H  6931  6943       L1     4  0.69
      P1  H  6934  6947       L1     4  0.31

> <Gold.Chemscore.Hbond.Weighted>
-6.5041

> <Gold.Chemscore.Metal.Weighted>
-0.0000

> <Gold.Chemscore.Lipo.Weighted>
-7.3715

> <Gold.Chemscore.Internal_Hbond.Weighted>
0.0000

> <Gold.Chemscore.DEClash.Weighted>
0.0569

> <Gold.Chemscore.DEInternal.Weighted>
2.2777

> <Gold.Chemscore.Rot.Weighted>
2.5600

> <Gold.Chemscore.Internal.Correction.Weighted>
   9.000000E+99

> <Gold.Protein.RotatedTorsions>
[ 6907 6896 6895 6894 ] final   44.91 input  -60.11 | X-H torsion
[ 7974 7965 7964 7962 ] final  107.74 input  175.53 | X-H torsion
[ 8008 7997 7996 7995 ] final  -10.08 input   59.86 | X-H torsion
[ 10167 10162 10161 10158 ] final  104.52 input  -65.29 | X-H torsion
[ 10718 10713 10712 10709 ] final  -50.82 input   66.30 | X-H torsion
[ 10763 10752 10751 10750 ] final -167.46 input  -60.55 | X-H torsion
[ 11005 11000 10999 10996 ] final    9.46 input  -57.11 | X-H torsion

> <Gold.Protein.ActiveResidues>
 VAL166  LYS551  ARG553  GLY616  TRP617  ASP618  TYR619  PRO620  LYS621  CYS622 
 ASP623  PHE694  ASN695  SER759  ASP760  ASP761  ALA762  ILE779  LEU786  VAL792 
 PHE793  MET794  SER795  GLU796  ALA797  LYS798  CYS799  TRP800  GLU811  SER814 

> <Gold.Protein.RotatedAtoms>
  152.2382  134.8254  160.0463 H   0  0  0  0  0  0  0  0  0  0  0  0  # atno 6907 bound_to 6896
  151.8978  133.3526  159.3828 H   0  0  0  0  0  0  0  0  0  0  0  0  # atno 6908 bound_to 6896
  150.7046  134.4784  159.5503 H   0  0  0  0  0  0  0  0  0  0  0  0  # atno 6909 bound_to 6896
  145.2897  139.2604  143.3871 H   0  0  0  0  0  0  0  0  0  0  0  0  # atno 7974 bound_to 7965
  154.5587  140.2338  155.8370 H   0  0  0  0  0  0  0  0  0  0  0  0  # atno 8008 bound_to 7997
  156.2010  140.3052  155.9487 H   0  0  0  0  0  0  0  0  0  0  0  0  # atno 8009 bound_to 7997
  155.2931  140.0427  157.3015 H   0  0  0  0  0  0  0  0  0  0  0  0  # atno 8010 bound_to 7997
  139.7170  144.7066  151.0934 H   0  0  0  0  0  0  0  0  0  0  0  0  # atno 10167 bound_to 10162
  156.1765  130.4150  149.9569 H   0  0  0  0  0  0  0  0  0  0  0  0  # atno 10718 bound_to 10713
  154.6729  135.2942  154.9718 H   0  0  0  0  0  0  0  0  0  0  0  0  # atno 10763 bound_to 10752
  154.0738  135.6614  153.4832 H   0  0  0  0  0  0  0  0  0  0  0  0  # atno 10764 bound_to 10752
  153.0498  135.5181  154.7734 H   0  0  0  0  0  0  0  0  0  0  0  0  # atno 10765 bound_to 10752
  140.5255  134.0517  155.7857 H   0  0  0  0  0  0  0  0  0  0  0  0  # atno 11005 bound_to 11000
  146.3189  140.3385  142.8646 LP  0  0  0  0  0  0  0  0  0  0  0  0  # atno 17320 bound_to 7965
  144.9183  140.7839  143.5764 LP  0  0  0  0  0  0  0  0  0  0  0  0  # atno 17321 bound_to 7965
  140.7746  143.5217  150.9529 LP  0  0  0  0  0  0  0  0  0  0  0  0  # atno 17342 bound_to 10162
  139.8903  143.6962  152.3146 LP  0  0  0  0  0  0  0  0  0  0  0  0  # atno 17343 bound_to 10162
  156.7353  130.9059  151.3628 LP  0  0  0  0  0  0  0  0  0  0  0  0  # atno 17370 bound_to 10713
  157.6839  130.9167  150.0337 LP  0  0  0  0  0  0  0  0  0  0  0  0  # atno 17371 bound_to 10713
  141.1311  133.9301  157.2534 LP  0  0  0  0  0  0  0  0  0  0  0  0  # atno 17394 bound_to 11000
  139.9583  135.0160  156.9189 LP  0  0  0  0  0  0  0  0  0  0  0  0  # atno 17395 bound_to 11000

$$$$
