AV-unprocessed.smi:3297|AV-procd|sdf|12638|dock4
  -GOLD-   2272018573D 1   1.00000     0.00000
 Structure written by MMmdl.
 34 35  0  0  0  0  0  0  0  0  1 V2000
  153.0990  137.1162  153.7811 O   0  0  0  0  0  0  0  0  0  0  0  0
  152.2677  137.8180  154.6804 C   0  0  0  0  0  0  0  0  0  0  0  0
  151.1735  138.5695  153.9127 C   0  0  0  0  0  0  0  0  0  0  0  0
  151.1576  139.9238  154.3404 O   0  0  0  0  0  0  0  0  0  0  0  0
  150.4662  140.1498  155.5616 C   0  0  2  0  0  0  0  0  0  0  0  0
  149.0690  140.7491  155.3040 C   0  0  0  0  0  0  0  0  0  0  0  0
  148.4028  141.1362  156.6335 C   0  0  0  0  0  0  0  0  0  0  0  0
  149.3044  142.0757  157.4519 C   0  0  0  0  0  0  0  0  0  0  0  0
  150.6326  141.4928  157.6379 N   0  0  0  0  0  0  0  0  0  0  0  0
  151.4055  142.1160  158.6388 C   0  0  0  0  0  0  0  0  0  0  0  0
  151.7095  141.4007  159.7509 N   0  0  0  0  0  0  0  0  0  0  0  0
  152.4582  141.9796  160.7136 C   0  0  0  0  0  0  0  0  0  0  0  0
  152.9439  143.2976  160.6252 C   0  0  0  0  0  0  0  0  0  0  0  0
  152.6277  144.0473  159.4775 C   0  0  0  0  0  0  0  0  0  0  0  0
  151.8464  143.4516  158.4682 C   0  0  0  0  0  0  0  0  0  0  0  0
  151.5134  144.1659  157.3655 F   0  0  0  0  0  0  0  0  0  0  0  0
  151.3180  141.1208  156.3989 C   0  0  0  0  0  0  0  0  0  0  0  0
  152.5901  136.8862  153.0188 H   0  0  0  0  0  0  0  0  0  0  0  0
  151.8137  137.0855  155.3480 H   0  0  0  0  0  0  0  0  0  0  0  0
  152.8576  138.4958  155.2978 H   0  0  0  0  0  0  0  0  0  0  0  0
  151.3199  138.4765  152.8363 H   0  0  0  0  0  0  0  0  0  0  0  0
  150.2063  138.1223  154.1463 H   0  0  0  0  0  0  0  0  0  0  0  0
  150.3708  139.2144  156.1163 H   0  0  0  0  0  0  0  0  0  0  0  0
  149.1582  141.6313  154.6688 H   0  0  0  0  0  0  0  0  0  0  0  0
  148.4333  140.0429  154.7707 H   0  0  0  0  0  0  0  0  0  0  0  0
  147.4408  141.6132  156.4449 H   0  0  0  0  0  0  0  0  0  0  0  0
  148.1942  140.2357  157.2125 H   0  0  0  0  0  0  0  0  0  0  0  0
  149.4119  143.0297  156.9341 H   0  0  0  0  0  0  0  0  0  0  0  0
  148.8280  142.2927  158.4075 H   0  0  0  0  0  0  0  0  0  0  0  0
  152.6771  141.3736  161.5802 H   0  0  0  0  0  0  0  0  0  0  0  0
  153.5402  143.7228  161.4188 H   0  0  0  0  0  0  0  0  0  0  0  0
  152.9758  145.0643  159.3738 H   0  0  0  0  0  0  0  0  0  0  0  0
  152.2762  140.6541  156.6313 H   0  0  0  0  0  0  0  0  0  0  0  0
  151.5296  142.0223  155.8219 H   0  0  0  0  0  0  0  0  0  0  0  0
  1  2  1  0  0  0  0
  1 18  1  0  0  0  0
  2  3  1  0  0  0  0
  2 19  1  0  0  0  0
  2 20  1  0  0  0  0
  3  4  1  0  0  0  0
  3 21  1  0  0  0  0
  3 22  1  0  0  0  0
  4  5  1  0  0  0  0
  5 17  1  0  0  0  0
  5  6  1  0  0  0  0
  5 23  1  0  0  0  0
  6  7  1  0  0  0  0
  6 24  1  0  0  0  0
  6 25  1  0  0  0  0
  7  8  1  0  0  0  0
  7 26  1  0  0  0  0
  7 27  1  0  0  0  0
  8  9  1  0  0  0  0
  8 28  1  0  0  0  0
  8 29  1  0  0  0  0
  9 10  1  0  0  0  0
  9 17  1  0  0  0  0
 10 15  1  0  0  0  0
 10 11  2  0  0  0  0
 11 12  1  0  0  0  0
 12 13  2  0  0  0  0
 12 30  1  0  0  0  0
 13 14  1  0  0  0  0
 13 31  1  0  0  0  0
 14 15  2  0  0  0  0
 14 32  1  0  0  0  0
 15 16  1  0  0  0  0
 17 33  1  0  0  0  0
 17 34  1  0  0  0  0
M  END
> <s_m_source_file>
AV-unprocessed.smi

> <i_m_source_file_index>
3297

> <i_lp_mmshare_version>
43012

> <i_f3d_flags>
0

> <s_epik_input>
W09IXVtDSDJdW0NIMl1PW0NAQEhdMVtDSDJdW0NIMl1bQ0gyXU4oW0NIMl0xKWMybltjSF1bY0hdW2NIXWMyRg==

> <s_epik_cmdline>
J2VwaWtfcHl0aG9uJywgJy1waCcsICc3LjAnLCAnLXRuJywgJzgnLCAnLW1hJywgJzIwMCcsICctbWV0YWxfYmluZGluZycsICctaW1hZScsICc8aW5maWxlLm1hZT4nLCAnLW9tYWUnLCAnPG91dGZpbGUubWFlPic=

> <r_lp_tautomer_probability>
1

> <r_epik_Ionization_Penalty>
0.00104501

> <r_epik_Ionization_Penalty_Charging>
0

> <r_epik_Ionization_Penalty_Neutral>
0.00104501

> <r_epik_State_Penalty>
0.000654582

> <r_epik_Charging_Adjusted_Penalty>
0.000654582

> <i_epik_Tot_Q>
0

> <i_epik_Tot_abs_Q>
0

> <r_epik_Metal_State_Penalty>
-0

> <b_epik_Metal_Only>
0

> <s_lp_Force_Field>
OPLS_2005

> <r_lp_Energy>
21.0324

> <b_lp_Chiralities_Consistent>
1

> <s_lp_Variant>
AV-unprocessed.smi:3297-1

> <Gold.Version>
5.8.1

> <Gold.Id.Protein>
6NUR|6NUR_protein|mol2

> <Gold.PLP.Fitness>
43.9869

> <Gold.PLP.PLP>
-37.0991

> <Gold.PLP.part.hbond>
-3.6238

> <Gold.PLP.part.metal>
0.0000

> <Gold.PLP.part.buried>
-4.3438

> <Gold.PLP.part.nonpolar>
-29.1109

> <Gold.PLP.part.repulsive>
0.1547

> <Gold.PLP.ligand.clash>
0.0000

> <Gold.PLP.ligand.torsion>
1.2292

> <Gold.PLP.Chemscore.Hbond>
3.0000

> <Gold.PLP.Chemscore.CHOScore>
0.0000

> <Gold.PLP.Chemscore.Metal>
0.0000

> <Gold.Chemscore.Hbonds>
donor molecule, donor type, donor heavy atom, donor atom, acceptor molecule, acceptor atom, score
      L1  H     1    18       P1  7949  0.44
      P1  H  7989  7998       L1     4  0.55
      P1  H 10752 10765       L1     1  0.04

> <Gold.PLP.Chemscore.Internal.Correction>
0.3462

> <Gold.Rescore>
     Score         DG    S(hbond)    S(metal)    S(lipo)     H(rot)  DE(clash)    DE(int)     intcor
     17.91     -19.15       2.70        0.00      89.20       2.25       0.24       1.00       ----

> <Gold.Chemscore.Fitness>
17.9122

> <Gold.Chemscore.DG>
-19.1515

> <Gold.Chemscore.ZeroCoef>
-5.4800

> <Gold.Chemscore.Hbond>
2.6951

> <Gold.Chemscore.Metal>
0.0000

> <Gold.Chemscore.Lipo>
89.1956

> <Gold.Chemscore.Internal_Hbond>
0.0000

> <Gold.Chemscore.DEClash>
0.2355

> <Gold.Chemscore.DEInternal>
1.0038

> <Gold.Chemscore.Rot>
2.2524

> <Gold.Chemscore.Internal.Correction>
   9.000000E+99

> <Gold.Chemscore.Hbonds>
donor molecule, donor type, donor heavy atom, donor atom, acceptor molecule, acceptor atom, score
      L1  H     1    18       P1  7949  0.44
      P1  H  7989  7998       L1     4  0.52

> <Gold.Chemscore.Hbond.Weighted>
-9.0017

> <Gold.Chemscore.Metal.Weighted>
-0.0000

> <Gold.Chemscore.Lipo.Weighted>
-10.4359

> <Gold.Chemscore.Internal_Hbond.Weighted>
0.0000

> <Gold.Chemscore.DEClash.Weighted>
0.2355

> <Gold.Chemscore.DEInternal.Weighted>
1.0038

> <Gold.Chemscore.Rot.Weighted>
5.7661

> <Gold.Chemscore.Internal.Correction.Weighted>
   9.000000E+99

> <Gold.Protein.RotatedTorsions>
[ 6907 6896 6895 6894 ] final  169.60 input  -60.11 | X-H torsion
[ 7974 7965 7964 7962 ] final  166.18 input  175.53 | X-H torsion
[ 8008 7997 7996 7995 ] final -109.18 input   59.86 | X-H torsion
[ 10167 10162 10161 10158 ] final  133.19 input  -65.29 | X-H torsion
[ 10718 10713 10712 10709 ] final  114.24 input   66.30 | X-H torsion
[ 10763 10752 10751 10750 ] final  144.32 input  -60.55 | X-H torsion
[ 11005 11000 10999 10996 ] final   64.51 input  -57.11 | X-H torsion

> <Gold.Protein.ActiveResidues>
 VAL166  LYS551  ARG553  GLY616  TRP617  ASP618  TYR619  PRO620  LYS621  CYS622 
 ASP623  PHE694  ASN695  SER759  ASP760  ASP761  ALA762  ILE779  LEU786  VAL792 
 PHE793  MET794  SER795  GLU796  ALA797  LYS798  CYS799  TRP800  GLU811  SER814 

> <Gold.Protein.RotatedAtoms>
  151.8293  133.3406  159.3608 H   0  0  0  0  0  0  0  0  0  0  0  0  # atno 6907 bound_to 6896
  150.7269  134.5498  159.5798 H   0  0  0  0  0  0  0  0  0  0  0  0  # atno 6908 bound_to 6896
  152.2948  134.7681  160.0421 H   0  0  0  0  0  0  0  0  0  0  0  0  # atno 6909 bound_to 6896
  144.7472  139.8578  143.6378 H   0  0  0  0  0  0  0  0  0  0  0  0  # atno 7974 bound_to 7965
  154.9555  140.0400  157.2165 H   0  0  0  0  0  0  0  0  0  0  0  0  # atno 8008 bound_to 7997
  154.7938  140.2840  155.5950 H   0  0  0  0  0  0  0  0  0  0  0  0  # atno 8009 bound_to 7997
  156.2953  140.2568  156.2791 H   0  0  0  0  0  0  0  0  0  0  0  0  # atno 8010 bound_to 7997
  139.5307  144.6627  151.4960 H   0  0  0  0  0  0  0  0  0  0  0  0  # atno 10167 bound_to 10162
  157.6292  131.0995  150.7157 H   0  0  0  0  0  0  0  0  0  0  0  0  # atno 10718 bound_to 10713
  153.9869  135.2936  155.3415 H   0  0  0  0  0  0  0  0  0  0  0  0  # atno 10763 bound_to 10752
  154.7237  135.5098  153.8855 H   0  0  0  0  0  0  0  0  0  0  0  0  # atno 10764 bound_to 10752
  153.0828  135.6684  154.0126 H   0  0  0  0  0  0  0  0  0  0  0  0  # atno 10765 bound_to 10752
  139.9954  134.6525  156.0019 H   0  0  0  0  0  0  0  0  0  0  0  0  # atno 11005 bound_to 11000
  146.1370  139.4417  143.0133 LP  0  0  0  0  0  0  0  0  0  0  0  0  # atno 17320 bound_to 7965
  145.7077  141.0116  143.1470 LP  0  0  0  0  0  0  0  0  0  0  0  0  # atno 17321 bound_to 7965
  140.6484  143.8748  150.6760 LP  0  0  0  0  0  0  0  0  0  0  0  0  # atno 17342 bound_to 10162
  140.2104  143.3888  152.1722 LP  0  0  0  0  0  0  0  0  0  0  0  0  # atno 17343 bound_to 10162
  156.7499  130.4765  149.5459 LP  0  0  0  0  0  0  0  0  0  0  0  0  # atno 17370 bound_to 10713
  156.1485  130.6293  151.0563 LP  0  0  0  0  0  0  0  0  0  0  0  0  # atno 17371 bound_to 10713
  141.1600  133.6539  156.4287 LP  0  0  0  0  0  0  0  0  0  0  0  0  # atno 17394 bound_to 11000
  140.4828  134.6648  157.5178 LP  0  0  0  0  0  0  0  0  0  0  0  0  # atno 17395 bound_to 11000

$$$$
