AV-unprocessed.smi:1712|AV-procd|sdf|6903|dock2
  -GOLD-   22720 8103D 1   1.00000     0.00000
 Structure written by MMmdl.
 38 39  0  0  0  0  0  0  0  0  2 V2000
  147.3008  140.1887  154.5644 C   0  0  0  0  0  0  0  0  0  0  0  0
  147.6180  139.2010  153.4141 C   0  0  2  0  0  0  0  0  0  0  0  0
  146.3249  138.4864  152.9283 C   0  0  0  0  0  0  0  0  0  0  0  0
  146.5646  137.1505  152.3858 N   0  0  0  0  0  0  0  0  0  0  0  0
  145.6175  136.2362  152.1275 C   0  0  0  0  0  0  0  0  0  0  0  0
  144.4143  136.4385  152.2923 O   0  0  0  0  0  0  0  0  0  0  0  0
  146.1526  135.0935  151.6674 N   0  0  0  0  0  0  0  0  0  0  0  0
  145.4633  133.9191  151.2720 C   0  0  0  0  0  0  0  0  0  0  0  0
  146.0766  132.6562  151.0506 C   0  0  0  0  0  0  0  0  0  0  0  0
  145.1870  131.7433  150.6877 N   0  0  0  0  0  0  0  0  0  0  0  0
  144.0115  132.4113  150.6756 N   0  0  0  0  0  0  0  0  0  0  0  0
  144.1312  133.7383  151.0244 C   0  0  0  0  0  0  0  0  0  0  0  0
  148.6912  138.2242  153.8057 N   0  3  0  0  0  0  0  0  0  0  0  0
  150.0458  138.8327  153.9403 C   0  0  0  0  0  0  0  0  0  0  0  0
  151.1013  137.7917  154.3495 C   0  0  0  0  0  0  0  0  0  0  0  0
  150.7122  137.1635  155.5596 O   0  0  0  0  0  0  0  0  0  0  0  0
  149.4912  136.4608  155.3992 C   0  0  0  0  0  0  0  0  0  0  0  0
  148.3683  137.4467  155.0363 C   0  0  0  0  0  0  0  0  0  0  0  0
  143.1455  131.9530  150.4295 H   0  0  0  0  0  0  0  0  0  0  0  0
  146.5062  140.8840  154.2985 H   0  0  0  0  0  0  0  0  0  0  0  0
  148.1477  140.8235  154.8188 H   0  0  0  0  0  0  0  0  0  0  0  0
  146.9869  139.6605  155.4651 H   0  0  0  0  0  0  0  0  0  0  0  0
  148.0014  139.7856  152.5761 H   0  0  0  0  0  0  0  0  0  0  0  0
  145.6393  138.3207  153.7578 H   0  0  0  0  0  0  0  0  0  0  0  0
  145.7940  139.1136  152.2099 H   0  0  0  0  0  0  0  0  0  0  0  0
  147.5266  136.8961  152.2141 H   0  0  0  0  0  0  0  0  0  0  0  0
  147.1582  135.0597  151.5863 H   0  0  0  0  0  0  0  0  0  0  0  0
  147.1163  132.3768  151.1380 H   0  0  0  0  0  0  0  0  0  0  0  0
  143.2826  134.4050  151.0607 H   0  0  0  0  0  0  0  0  0  0  0  0
  150.3777  139.2622  152.9969 H   0  0  0  0  0  0  0  0  0  0  0  0
  150.0135  139.6393  154.6746 H   0  0  0  0  0  0  0  0  0  0  0  0
  151.2414  137.0472  153.5640 H   0  0  0  0  0  0  0  0  0  0  0  0
  152.0658  138.2770  154.5006 H   0  0  0  0  0  0  0  0  0  0  0  0
  149.5951  135.6880  154.6356 H   0  0  0  0  0  0  0  0  0  0  0  0
  149.2543  135.9520  156.3340 H   0  0  0  0  0  0  0  0  0  0  0  0
  148.1924  138.1328  155.8663 H   0  0  0  0  0  0  0  0  0  0  0  0
  147.4620  136.8594  154.9032 H   0  0  0  0  0  0  0  0  0  0  0  0
  148.7562  137.5532  153.0533 H   0  0  0  0  0  0  0  0  0  0  0  0
  1  2  1  0  0  0  0
  1 20  1  0  0  0  0
  1 21  1  0  0  0  0
  1 22  1  0  0  0  0
  2  3  1  0  0  0  0
  2 13  1  0  0  0  0
  2 23  1  0  0  0  0
  3  4  1  0  0  0  0
  3 24  1  0  0  0  0
  3 25  1  0  0  0  0
  4  5  1  0  0  0  0
  4 26  1  0  0  0  0
  5  6  2  0  0  0  0
  5  7  1  0  0  0  0
  7  8  1  0  0  0  0
  7 27  1  0  0  0  0
  8 12  2  0  0  0  0
  8  9  1  0  0  0  0
  9 10  2  0  0  0  0
  9 28  1  0  0  0  0
 10 11  1  0  0  0  0
 11 19  1  0  0  0  0
 11 12  1  0  0  0  0
 12 29  1  0  0  0  0
 13 18  1  0  0  0  0
 13 14  1  0  0  0  0
 13 38  1  0  0  0  0
 14 15  1  0  0  0  0
 14 30  1  0  0  0  0
 14 31  1  0  0  0  0
 15 16  1  0  0  0  0
 15 32  1  0  0  0  0
 15 33  1  0  0  0  0
 16 17  1  0  0  0  0
 17 18  1  0  0  0  0
 17 34  1  0  0  0  0
 17 35  1  0  0  0  0
 18 36  1  0  0  0  0
 18 37  1  0  0  0  0
M  CHG  1  13   1
M  END
> <s_m_source_file>
AV-unprocessed.smi

> <i_m_source_file_index>
1712

> <i_lp_mmshare_version>
43012

> <i_f3d_flags>
0

> <s_epik_input>
W0NIMl0xW0NIMl1PW0NIMl1bQ0gyXU4xW0NASF0oW0NIM10pW0NIMl1bTkhdQyg9TylbTkhdYzJbY0hdbltuSF1bY0hdMg==

> <s_epik_cmdline>
J2VwaWtfcHl0aG9uJywgJy1waCcsICc3LjAnLCAnLXRuJywgJzgnLCAnLW1hJywgJzIwMCcsICctbWV0YWxfYmluZGluZycsICctaW1hZScsICc8aW5maWxlLm1hZT4nLCAnLW9tYWUnLCAnPG91dGZpbGUubWFlPic=

> <r_lp_tautomer_probability>
0.5

> <r_epik_Ionization_Penalty>
0.646007

> <r_epik_Ionization_Penalty_Charging>
0.645968

> <r_epik_Ionization_Penalty_Neutral>
3.91929e-05

> <r_epik_State_Penalty>
0.664063

> <r_epik_Charging_Adjusted_Penalty>
1.31003

> <i_epik_Tot_Q>
1

> <i_epik_Tot_abs_Q>
1

> <r_epik_Metal_State_Penalty>
0.664064

> <b_epik_Metal_Only>
0

> <s_lp_Force_Field>
OPLS_2005

> <r_lp_Energy>
23.9653

> <b_lp_Chiralities_Consistent>
1

> <s_lp_Variant>
AV-unprocessed.smi:1712-3

> <Gold.Version>
5.8.1

> <Gold.Id.Protein>
6NUR|6NUR_protein|mol2

> <Gold.PLP.Fitness>
41.6301

> <Gold.PLP.PLP>
-25.3513

> <Gold.PLP.part.hbond>
-3.0000

> <Gold.PLP.part.metal>
0.0000

> <Gold.PLP.part.buried>
-5.5228

> <Gold.PLP.part.nonpolar>
-18.7297

> <Gold.PLP.part.repulsive>
1.2085

> <Gold.PLP.ligand.clash>
0.0000

> <Gold.PLP.ligand.torsion>
0.6192

> <Gold.PLP.Chemscore.Hbond>
3.8882

> <Gold.PLP.Chemscore.CHOScore>
1.9252

> <Gold.PLP.Chemscore.Metal>
0.0000

> <Gold.Chemscore.Hbonds>
donor molecule, donor type, donor heavy atom, donor atom, acceptor molecule, acceptor atom, score
      L1  H     4    26       P1  7948  1.00
      L1  H     7    27       P1  7948  0.70
      L1  H    13    38       P1  7948  2.00
      L1  C     9    28       P1 10747  0.95
      L1  C    12    29       P1 10186  0.52

> <Gold.PLP.Chemscore.Internal.Correction>
0.0770

> <Gold.Rescore>
     Score         DG    S(hbond)    S(metal)    S(lipo)     H(rot)  DE(clash)    DE(int)     intcor
     15.43     -16.98       2.79        0.00      55.24       1.68       0.01       1.54       ----

> <Gold.Chemscore.Fitness>
15.4252

> <Gold.Chemscore.DG>
-16.9794

> <Gold.Chemscore.ZeroCoef>
-5.4800

> <Gold.Chemscore.Hbond>
2.7933

> <Gold.Chemscore.Metal>
0.0000

> <Gold.Chemscore.Lipo>
55.2429

> <Gold.Chemscore.Internal_Hbond>
0.0000

> <Gold.Chemscore.DEClash>
0.0149

> <Gold.Chemscore.DEInternal>
1.5394

> <Gold.Chemscore.Rot>
1.6771

> <Gold.Chemscore.Internal.Correction>
   9.000000E+99

> <Gold.Chemscore.Hbonds>
donor molecule, donor type, donor heavy atom, donor atom, acceptor molecule, acceptor atom, score
      L1  H     4    26       P1  7948  0.99
      L1  H     7    27       P1  7948  0.60
      L1  H    13    38       P1  7948  1.00

> <Gold.Chemscore.Hbond.Weighted>
-9.3295

> <Gold.Chemscore.Metal.Weighted>
-0.0000

> <Gold.Chemscore.Lipo.Weighted>
-6.4634

> <Gold.Chemscore.Internal_Hbond.Weighted>
0.0000

> <Gold.Chemscore.DEClash.Weighted>
0.0149

> <Gold.Chemscore.DEInternal.Weighted>
1.5394

> <Gold.Chemscore.Rot.Weighted>
4.2935

> <Gold.Chemscore.Internal.Correction.Weighted>
   9.000000E+99

> <Gold.Protein.RotatedTorsions>
[ 6907 6896 6895 6894 ] final  -33.76 input  -60.11 | X-H torsion
[ 7974 7965 7964 7962 ] final -133.09 input  175.53 | X-H torsion
[ 8008 7997 7996 7995 ] final -141.22 input   59.86 | X-H torsion
[ 10167 10162 10161 10158 ] final   92.30 input  -65.29 | X-H torsion
[ 10718 10713 10712 10709 ] final  165.76 input   66.30 | X-H torsion
[ 10763 10752 10751 10750 ] final -157.10 input  -60.55 | X-H torsion
[ 11005 11000 10999 10996 ] final  -61.44 input  -57.11 | X-H torsion

> <Gold.Protein.ActiveResidues>
 VAL166  LYS551  ARG553  GLY616  TRP617  ASP618  TYR619  PRO620  LYS621  CYS622 
 ASP623  PHE694  ASN695  SER759  ASP760  ASP761  ALA762  ILE779  LEU786  VAL792 
 PHE793  MET794  SER795  GLU796  ALA797  LYS798  CYS799  TRP800  GLU811  SER814 

> <Gold.Protein.RotatedAtoms>
  151.0614  134.9739  159.8261 H   0  0  0  0  0  0  0  0  0  0  0  0  # atno 6907 bound_to 6896
  152.5396  134.2413  159.8873 H   0  0  0  0  0  0  0  0  0  0  0  0  # atno 6908 bound_to 6896
  151.2433  133.4345  159.2642 H   0  0  0  0  0  0  0  0  0  0  0  0  # atno 6909 bound_to 6896
  144.9225  140.7032  143.4956 H   0  0  0  0  0  0  0  0  0  0  0  0  # atno 7974 bound_to 7965
  155.4742  140.0555  157.2975 H   0  0  0  0  0  0  0  0  0  0  0  0  # atno 8008 bound_to 7997
  154.4686  140.2030  156.0006 H   0  0  0  0  0  0  0  0  0  0  0  0  # atno 8009 bound_to 7997
  156.1017  140.3218  155.7956 H   0  0  0  0  0  0  0  0  0  0  0  0  # atno 8010 bound_to 7997
  139.8290  144.6696  150.9423 H   0  0  0  0  0  0  0  0  0  0  0  0  # atno 10167 bound_to 10162
  157.0756  131.0378  151.2595 H   0  0  0  0  0  0  0  0  0  0  0  0  # atno 10718 bound_to 10713
  154.7662  135.3131  154.8282 H   0  0  0  0  0  0  0  0  0  0  0  0  # atno 10763 bound_to 10752
  153.9029  135.6814  153.4758 H   0  0  0  0  0  0  0  0  0  0  0  0  # atno 10764 bound_to 10752
  153.1268  135.4798  154.9218 H   0  0  0  0  0  0  0  0  0  0  0  0  # atno 10765 bound_to 10752
  141.1324  133.6630  156.5376 H   0  0  0  0  0  0  0  0  0  0  0  0  # atno 11005 bound_to 11000
  145.3272  139.1770  143.4556 LP  0  0  0  0  0  0  0  0  0  0  0  0  # atno 17320 bound_to 7965
  146.3211  140.3297  142.8639 LP  0  0  0  0  0  0  0  0  0  0  0  0  # atno 17321 bound_to 7965
  140.7808  143.4018  151.1136 LP  0  0  0  0  0  0  0  0  0  0  0  0  # atno 17342 bound_to 10162
  139.7673  143.8546  152.3113 LP  0  0  0  0  0  0  0  0  0  0  0  0  # atno 17343 bound_to 10162
  157.4842  130.7783  149.7444 LP  0  0  0  0  0  0  0  0  0  0  0  0  # atno 17370 bound_to 10713
  155.9938  130.3922  150.2886 LP  0  0  0  0  0  0  0  0  0  0  0  0  # atno 17371 bound_to 10713
  140.4166  134.7225  157.4866 LP  0  0  0  0  0  0  0  0  0  0  0  0  # atno 17394 bound_to 11000
  140.0390  134.6296  155.9006 LP  0  0  0  0  0  0  0  0  0  0  0  0  # atno 17395 bound_to 11000

$$$$
