AV-unprocessed.smi:2955|AV-procd|sdf|11302|dock5
  -GOLD-   2272016203D 1   1.00000     0.00000
 Structure written by MMmdl.
 45 47  0  0  0  0  0  0  0  0  1 V2000
  152.6913  142.5788  163.1597 C   0  0  0  0  0  0  0  0  0  0  0  0
  152.2730  143.2098  161.8474 C   0  0  0  0  0  0  0  0  0  0  0  0
  151.8412  144.5506  161.8109 C   0  0  0  0  0  0  0  0  0  0  0  0
  151.4582  145.1319  160.5884 C   0  0  0  0  0  0  0  0  0  0  0  0
  151.5073  144.3751  159.4026 C   0  0  0  0  0  0  0  0  0  0  0  0
  151.9385  143.0327  159.4200 C   0  0  0  0  0  0  0  0  0  0  0  0
  151.9586  142.3660  158.2135 O   0  0  0  0  0  0  0  0  0  0  0  0
  151.0820  142.8086  157.1859 C   0  0  0  0  0  0  0  0  0  0  0  0
  149.7778  142.0003  157.2241 C   0  0  0  0  0  0  0  0  0  0  0  0
  149.5814  141.2052  156.0188 N   0  0  0  0  0  0  0  0  0  0  0  0
  150.3456  140.1981  155.5163 C   0  0  0  0  0  0  0  0  0  0  0  0
  151.6067  139.7080  156.1832 C   0  0  1  0  0  0  0  0  0  0  0  0
  151.3926  139.3893  157.6699 C   0  0  0  0  0  0  0  0  0  0  0  0
  152.0721  138.5230  155.4707 N   0  0  0  0  0  0  0  0  0  0  0  0
  153.2408  138.4463  154.8218 C   0  0  0  0  0  0  0  0  0  0  0  0
  154.0400  139.3773  154.7636 O   0  0  0  0  0  0  0  0  0  0  0  0
  149.9245  139.6824  154.3581 N   0  0  0  0  0  0  0  0  0  0  0  0
  148.7691  140.3922  154.1044 C   0  0  0  0  0  0  0  0  0  0  0  0
  147.8535  140.3034  153.0315 C   0  0  0  0  0  0  0  0  0  0  0  0
  146.7240  141.1466  152.9856 C   0  0  0  0  0  0  0  0  0  0  0  0
  146.4948  142.0880  154.0097 C   0  0  0  0  0  0  0  0  0  0  0  0
  147.3964  142.1936  155.0861 C   0  0  0  0  0  0  0  0  0  0  0  0
  148.5231  141.3502  155.1268 C   0  0  0  0  0  0  0  0  0  0  0  0
  152.3218  142.4547  160.6572 C   0  0  0  0  0  0  0  0  0  0  0  0
  152.3209  143.1523  164.0099 H   0  0  0  0  0  0  0  0  0  0  0  0
  153.7788  142.5332  163.2241 H   0  0  0  0  0  0  0  0  0  0  0  0
  152.2998  141.5644  163.2401 H   0  0  0  0  0  0  0  0  0  0  0  0
  151.8030  145.1365  162.7178 H   0  0  0  0  0  0  0  0  0  0  0  0
  151.1269  146.1595  160.5598 H   0  0  0  0  0  0  0  0  0  0  0  0
  151.2090  144.8311  158.4703 H   0  0  0  0  0  0  0  0  0  0  0  0
  150.8562  143.8687  157.3125 H   0  0  0  0  0  0  0  0  0  0  0  0
  151.5548  142.6790  156.2112 H   0  0  0  0  0  0  0  0  0  0  0  0
  149.7979  141.3234  158.0785 H   0  0  0  0  0  0  0  0  0  0  0  0
  148.9177  142.6479  157.3889 H   0  0  0  0  0  0  0  0  0  0  0  0
  152.3838  140.4690  156.1370 H   0  0  0  0  0  0  0  0  0  0  0  0
  151.0191  140.2623  158.2046 H   0  0  0  0  0  0  0  0  0  0  0  0
  152.3256  139.0836  158.1440 H   0  0  0  0  0  0  0  0  0  0  0  0
  150.6697  138.5844  157.8086 H   0  0  0  0  0  0  0  0  0  0  0  0
  151.4578  137.7217  155.4529 H   0  0  0  0  0  0  0  0  0  0  0  0
  153.3888  137.4596  154.3553 H   0  0  0  0  0  0  0  0  0  0  0  0
  148.0199  139.5845  152.2427 H   0  0  0  0  0  0  0  0  0  0  0  0
  146.0305  141.0701  152.1611 H   0  0  0  0  0  0  0  0  0  0  0  0
  145.6269  142.7296  153.9680 H   0  0  0  0  0  0  0  0  0  0  0  0
  147.2226  142.9139  155.8717 H   0  0  0  0  0  0  0  0  0  0  0  0
  152.6595  141.4312  160.7181 H   0  0  0  0  0  0  0  0  0  0  0  0
  1  2  1  0  0  0  0
  1 25  1  0  0  0  0
  1 26  1  0  0  0  0
  1 27  1  0  0  0  0
  2 24  1  0  0  0  0
  2  3  2  0  0  0  0
  3  4  1  0  0  0  0
  3 28  1  0  0  0  0
  4  5  2  0  0  0  0
  4 29  1  0  0  0  0
  5  6  1  0  0  0  0
  5 30  1  0  0  0  0
  6  7  1  0  0  0  0
  6 24  2  0  0  0  0
  7  8  1  0  0  0  0
  8  9  1  0  0  0  0
  8 31  1  0  0  0  0
  8 32  1  0  0  0  0
  9 10  1  0  0  0  0
  9 33  1  0  0  0  0
  9 34  1  0  0  0  0
 10 23  1  0  0  0  0
 10 11  1  0  0  0  0
 11 12  1  0  0  0  0
 11 17  2  0  0  0  0
 12 13  1  0  0  0  0
 12 14  1  0  0  0  0
 12 35  1  0  0  0  0
 13 36  1  0  0  0  0
 13 37  1  0  0  0  0
 13 38  1  0  0  0  0
 14 15  1  0  0  0  0
 14 39  1  0  0  0  0
 15 16  2  0  0  0  0
 15 40  1  0  0  0  0
 17 18  1  0  0  0  0
 18 23  2  0  0  0  0
 18 19  1  0  0  0  0
 19 20  2  0  0  0  0
 19 41  1  0  0  0  0
 20 21  1  0  0  0  0
 20 42  1  0  0  0  0
 21 22  2  0  0  0  0
 21 43  1  0  0  0  0
 22 23  1  0  0  0  0
 22 44  1  0  0  0  0
 24 45  1  0  0  0  0
M  END
> <s_m_source_file>
AV-unprocessed.smi

> <i_m_source_file_index>
2955

> <i_lp_mmshare_version>
43012

> <i_f3d_flags>
0

> <s_epik_input>
W0NIM11jMVtjSF1bY0hdW2NIXWMoW2NIXTEpT1tDSDJdW0NIMl1uKGMobjIpW0NASF0oW0NIM10pW05IXVtDSF09TyljKGMyMylbY0hdW2NIXVtjSF1bY0hdMw==

> <s_epik_cmdline>
J2VwaWtfcHl0aG9uJywgJy1waCcsICc3LjAnLCAnLXRuJywgJzgnLCAnLW1hJywgJzIwMCcsICctbWV0YWxfYmluZGluZycsICctaW1hZScsICc8aW5maWxlLm1hZT4nLCAnLW9tYWUnLCAnPG91dGZpbGUubWFlPic=

> <r_lp_tautomer_probability>
1

> <r_epik_Ionization_Penalty>
0.0917757

> <r_epik_Ionization_Penalty_Charging>
0

> <r_epik_Ionization_Penalty_Neutral>
0.0917757

> <r_epik_State_Penalty>
0.0820948

> <r_epik_Charging_Adjusted_Penalty>
0.0820948

> <i_epik_Tot_Q>
0

> <i_epik_Tot_abs_Q>
0

> <r_epik_Metal_State_Penalty>
0.0709956

> <b_epik_Metal_Only>
0

> <s_lp_Force_Field>
OPLS_2005

> <r_lp_Energy>
12.9149

> <b_lp_Chiralities_Consistent>
1

> <s_lp_Variant>
AV-unprocessed.smi:2955-2

> <Gold.Version>
5.8.1

> <Gold.Id.Protein>
6NUR|6NUR_protein|mol2

> <Gold.PLP.Fitness>
52.3108

> <Gold.PLP.PLP>
-51.3972

> <Gold.PLP.part.hbond>
-1.4114

> <Gold.PLP.part.metal>
0.0000

> <Gold.PLP.part.buried>
3.9058

> <Gold.PLP.part.nonpolar>
-54.7203

> <Gold.PLP.part.repulsive>
0.3433

> <Gold.PLP.ligand.clash>
0.0923

> <Gold.PLP.ligand.torsion>
1.1184

> <Gold.PLP.Chemscore.Hbond>
1.0498

> <Gold.PLP.Chemscore.CHOScore>
0.0000

> <Gold.PLP.Chemscore.Metal>
0.0000

> <Gold.Chemscore.Hbonds>
donor molecule, donor type, donor heavy atom, donor atom, acceptor molecule, acceptor atom, score
      P1  H  7989  7998       L1    17  0.09
      P1  H  7997  8008       L1    16  0.60

> <Gold.PLP.Chemscore.Internal.Correction>
0.0935

> <Gold.Rescore>
     Score         DG    S(hbond)    S(metal)    S(lipo)     H(rot)  DE(clash)    DE(int)     intcor
     17.43     -19.92       1.00        0.00     144.53       2.26       1.65       0.84       ----

> <Gold.Chemscore.Fitness>
17.4342

> <Gold.Chemscore.DG>
-19.9233

> <Gold.Chemscore.ZeroCoef>
-5.4800

> <Gold.Chemscore.Hbond>
0.9950

> <Gold.Chemscore.Metal>
0.0000

> <Gold.Chemscore.Lipo>
144.5343

> <Gold.Chemscore.Internal_Hbond>
0.0000

> <Gold.Chemscore.DEClash>
1.6474

> <Gold.Chemscore.DEInternal>
0.8418

> <Gold.Chemscore.Rot>
2.2619

> <Gold.Chemscore.Internal.Correction>
   9.000000E+99

> <Gold.Chemscore.Hbonds>
donor molecule, donor type, donor heavy atom, donor atom, acceptor molecule, acceptor atom, score
      P1  H  7997  8008       L1    16  0.57

> <Gold.Chemscore.Hbond.Weighted>
-3.3233

> <Gold.Chemscore.Metal.Weighted>
-0.0000

> <Gold.Chemscore.Lipo.Weighted>
-16.9105

> <Gold.Chemscore.Internal_Hbond.Weighted>
0.0000

> <Gold.Chemscore.DEClash.Weighted>
1.6474

> <Gold.Chemscore.DEInternal.Weighted>
0.8418

> <Gold.Chemscore.Rot.Weighted>
5.7906

> <Gold.Chemscore.Internal.Correction.Weighted>
   9.000000E+99

> <Gold.Protein.RotatedTorsions>
[ 6907 6896 6895 6894 ] final   68.14 input  -60.11 | X-H torsion
[ 7974 7965 7964 7962 ] final  131.38 input  175.53 | X-H torsion
[ 8008 7997 7996 7995 ] final   -1.60 input   59.86 | X-H torsion
[ 10167 10162 10161 10158 ] final  131.41 input  -65.29 | X-H torsion
[ 10718 10713 10712 10709 ] final  -69.40 input   66.30 | X-H torsion
[ 10763 10752 10751 10750 ] final  -97.71 input  -60.55 | X-H torsion
[ 11005 11000 10999 10996 ] final  -48.71 input  -57.11 | X-H torsion

> <Gold.Protein.ActiveResidues>
 VAL166  LYS551  ARG553  GLY616  TRP617  ASP618  TYR619  PRO620  LYS621  CYS622 
 ASP623  PHE694  ASN695  SER759  ASP760  ASP761  ALA762  ILE779  LEU786  VAL792 
 PHE793  MET794  SER795  GLU796  ALA797  LYS798  CYS799  TRP800  GLU811  SER814 

> <Gold.Protein.RotatedAtoms>
  152.4600  134.5206  159.9781 H   0  0  0  0  0  0  0  0  0  0  0  0  # atno 6907 bound_to 6896
  151.5257  133.3452  159.2917 H   0  0  0  0  0  0  0  0  0  0  0  0  # atno 6908 bound_to 6896
  150.8559  134.7927  159.7107 H   0  0  0  0  0  0  0  0  0  0  0  0  # atno 6909 bound_to 6896
  145.0079  139.4248  143.5259 H   0  0  0  0  0  0  0  0  0  0  0  0  # atno 7974 bound_to 7965
  154.6450  140.2555  155.7279 H   0  0  0  0  0  0  0  0  0  0  0  0  # atno 8008 bound_to 7997
  156.2547  140.2879  156.0780 H   0  0  0  0  0  0  0  0  0  0  0  0  # atno 8009 bound_to 7997
  155.1538  140.0383  157.2817 H   0  0  0  0  0  0  0  0  0  0  0  0  # atno 8010 bound_to 7997
  139.5385  144.6707  151.4703 H   0  0  0  0  0  0  0  0  0  0  0  0  # atno 10167 bound_to 10162
  156.0457  130.4312  150.2143 H   0  0  0  0  0  0  0  0  0  0  0  0  # atno 10718 bound_to 10713
  154.7351  135.5036  153.9029 H   0  0  0  0  0  0  0  0  0  0  0  0  # atno 10763 bound_to 10752
  153.0988  135.6679  153.9721 H   0  0  0  0  0  0  0  0  0  0  0  0  # atno 10764 bound_to 10752
  153.9513  135.3057  155.3417 H   0  0  0  0  0  0  0  0  0  0  0  0  # atno 10765 bound_to 10752
  141.0717  133.6677  156.3481 H   0  0  0  0  0  0  0  0  0  0  0  0  # atno 11005 bound_to 11000
  146.3464  139.9507  142.8729 LP  0  0  0  0  0  0  0  0  0  0  0  0  # atno 17320 bound_to 7965
  145.2063  140.9876  143.4127 LP  0  0  0  0  0  0  0  0  0  0  0  0  # atno 17321 bound_to 7965
  140.6604  143.8510  150.6882 LP  0  0  0  0  0  0  0  0  0  0  0  0  # atno 17342 bound_to 10162
  140.1903  143.4042  152.1868 LP  0  0  0  0  0  0  0  0  0  0  0  0  # atno 17343 bound_to 10162
  157.0233  130.9986  151.3333 LP  0  0  0  0  0  0  0  0  0  0  0  0  # atno 17370 bound_to 10713
  157.5329  130.8070  149.7938 LP  0  0  0  0  0  0  0  0  0  0  0  0  # atno 17371 bound_to 10713
  140.5659  134.5888  157.5445 LP  0  0  0  0  0  0  0  0  0  0  0  0  # atno 17394 bound_to 11000
  139.9530  134.7584  156.0405 LP  0  0  0  0  0  0  0  0  0  0  0  0  # atno 17395 bound_to 11000

$$$$
