AV-unprocessed.smi:2520|AV-procd|sdf|9909|dock8
  -GOLD-   2272013543D 1   1.00000     0.00000
 Structure written by MMmdl.
 41 44  0  0  0  0  0  0  0  0  1 V2000
  145.6028  138.2058  153.8292 O   0  0  0  0  0  0  0  0  0  0  0  0
  146.5142  137.5845  153.2856 C   0  0  0  0  0  0  0  0  0  0  0  0
  147.7714  138.0761  153.2557 N   0  0  0  0  0  0  0  0  0  0  0  0
  148.3237  139.2846  153.7738 C   0  0  0  0  0  0  0  0  0  0  0  0
  147.4425  140.3871  153.7668 C   0  0  0  0  0  0  0  0  0  0  0  0
  147.9049  141.6177  154.2637 C   0  0  0  0  0  0  0  0  0  0  0  0
  149.2262  141.6639  154.7397 C   0  0  0  0  0  0  0  0  0  0  0  0
  150.0366  140.5841  154.7318 N   0  0  0  0  0  0  0  0  0  0  0  0
  149.5881  139.4176  154.2568 N   0  0  0  0  0  0  0  0  0  0  0  0
  146.3317  136.3959  152.6920 N   0  0  0  0  0  0  0  0  0  0  0  0
  145.0742  135.6531  152.6198 C   0  0  2  0  0  0  0  0  0  0  0  0
  144.7324  134.9276  153.9416 C   0  0  2  0  0  0  0  0  0  0  0  0
  145.4561  135.2063  155.2375 C   0  0  0  0  0  0  0  0  0  0  0  0
  146.5052  134.0915  155.2885 C   0  0  0  0  0  0  0  0  0  0  0  0
  146.6375  133.6498  153.9390 O   0  0  0  0  0  0  0  0  0  0  0  0
  145.3428  133.6705  153.3421 C   0  0  2  0  0  0  0  0  0  0  0  0
  145.2504  134.2810  151.9280 C   0  0  0  0  0  0  0  0  0  0  0  0
  146.4208  134.0399  150.9736 C   0  0  0  0  0  0  0  0  0  0  0  0
  146.1130  132.7513  150.2088 C   0  0  0  0  0  0  0  0  0  0  0  0
  144.5888  132.6058  150.2472 C   0  0  0  0  0  0  0  0  0  0  0  0
  144.0793  133.7853  151.0815 C   0  0  0  0  0  0  0  0  0  0  0  0
  148.4324  137.4961  152.7600 H   0  0  0  0  0  0  0  0  0  0  0  0
  146.4345  140.2953  153.3891 H   0  0  0  0  0  0  0  0  0  0  0  0
  147.2711  142.4920  154.2794 H   0  0  0  0  0  0  0  0  0  0  0  0
  149.6403  142.5801  155.1338 H   0  0  0  0  0  0  0  0  0  0  0  0
  147.1358  135.9578  152.2646 H   0  0  0  0  0  0  0  0  0  0  0  0
  144.2321  136.2237  152.2248 H   0  0  0  0  0  0  0  0  0  0  0  0
  143.6525  134.8215  154.0554 H   0  0  0  0  0  0  0  0  0  0  0  0
  145.9243  136.1905  155.2446 H   0  0  0  0  0  0  0  0  0  0  0  0
  144.7908  135.1583  156.0999 H   0  0  0  0  0  0  0  0  0  0  0  0
  147.4595  134.4295  155.6932 H   0  0  0  0  0  0  0  0  0  0  0  0
  146.1497  133.2604  155.8991 H   0  0  0  0  0  0  0  0  0  0  0  0
  144.7635  132.7630  153.5188 H   0  0  0  0  0  0  0  0  0  0  0  0
  146.4989  134.8674  150.2668 H   0  0  0  0  0  0  0  0  0  0  0  0
  147.3810  133.9761  151.4865 H   0  0  0  0  0  0  0  0  0  0  0  0
  146.4996  132.7859  149.1897 H   0  0  0  0  0  0  0  0  0  0  0  0
  146.5770  131.9000  150.7086 H   0  0  0  0  0  0  0  0  0  0  0  0
  144.1531  132.6103  149.2475 H   0  0  0  0  0  0  0  0  0  0  0  0
  144.3178  131.6607  150.7194 H   0  0  0  0  0  0  0  0  0  0  0  0
  143.2163  133.5021  151.6852 H   0  0  0  0  0  0  0  0  0  0  0  0
  143.7450  134.5794  150.4121 H   0  0  0  0  0  0  0  0  0  0  0  0
  1  2  2  0  0  0  0
  2  3  1  0  0  0  0
  2 10  1  0  0  0  0
  3  4  1  0  0  0  0
  3 22  1  0  0  0  0
  4  9  1  0  0  0  0
  4  5  2  0  0  0  0
  5  6  1  0  0  0  0
  5 23  1  0  0  0  0
  6  7  2  0  0  0  0
  6 24  1  0  0  0  0
  7  8  1  0  0  0  0
  7 25  1  0  0  0  0
  8  9  2  0  0  0  0
 10 11  1  0  0  0  0
 10 26  1  0  0  0  0
 11 17  1  0  0  0  0
 11 12  1  0  0  0  0
 11 27  1  0  0  0  0
 12 16  1  0  0  0  0
 12 13  1  0  0  0  0
 12 28  1  0  0  0  0
 13 14  1  0  0  0  0
 13 29  1  0  0  0  0
 13 30  1  0  0  0  0
 14 15  1  0  0  0  0
 14 31  1  0  0  0  0
 14 32  1  0  0  0  0
 15 16  1  0  0  0  0
 16 17  1  0  0  0  0
 16 33  1  0  0  0  0
 17 21  1  0  0  0  0
 17 18  1  0  0  0  0
 18 19  1  0  0  0  0
 18 34  1  0  0  0  0
 18 35  1  0  0  0  0
 19 20  1  0  0  0  0
 19 36  1  0  0  0  0
 19 37  1  0  0  0  0
 20 21  1  0  0  0  0
 20 38  1  0  0  0  0
 20 39  1  0  0  0  0
 21 40  1  0  0  0  0
 21 41  1  0  0  0  0
M  END
> <s_m_source_file>
AV-unprocessed.smi

> <i_m_source_file_index>
2520

> <i_lp_mmshare_version>
43012

> <i_f3d_flags>
0

> <s_epik_input>
bjFuW2NIXVtjSF1bY0hdYzFbTkhdQyg9TylbTkhdW0NAQEhdMltDQEBIXShbQ0gyXVtDSDJdTzMpW0NASF0zQzI0W0NIMl1bQ0gyXVtDSDJdW0NIMl00

> <s_epik_cmdline>
J2VwaWtfcHl0aG9uJywgJy1waCcsICc3LjAnLCAnLXRuJywgJzgnLCAnLW1hJywgJzIwMCcsICctbWV0YWxfYmluZGluZycsICctaW1hZScsICc8aW5maWxlLm1hZT4nLCAnLW9tYWUnLCAnPG91dGZpbGUubWFlPic=

> <r_lp_tautomer_probability>
1

> <r_epik_Ionization_Penalty>
0.00552561

> <r_epik_Ionization_Penalty_Charging>
0

> <r_epik_Ionization_Penalty_Neutral>
0.00552561

> <r_epik_State_Penalty>
-0

> <r_epik_Charging_Adjusted_Penalty>
0

> <i_epik_Tot_Q>
0

> <i_epik_Tot_abs_Q>
0

> <r_epik_Metal_State_Penalty>
-0

> <b_epik_Metal_Only>
0

> <s_lp_Force_Field>
OPLS_2005

> <r_lp_Energy>
62.4196

> <b_lp_Chiralities_Consistent>
1

> <s_lp_Variant>
AV-unprocessed.smi:2520-3

> <Gold.Version>
5.8.1

> <Gold.Id.Protein>
6NUR|6NUR_protein|mol2

> <Gold.PLP.Fitness>
39.1754

> <Gold.PLP.PLP>
-28.4329

> <Gold.PLP.part.hbond>
-3.0000

> <Gold.PLP.part.metal>
0.0000

> <Gold.PLP.part.buried>
-3.1735

> <Gold.PLP.part.nonpolar>
-21.9172

> <Gold.PLP.part.repulsive>
0.5602

> <Gold.PLP.ligand.clash>
0.0000

> <Gold.PLP.ligand.torsion>
0.3458

> <Gold.PLP.Chemscore.Hbond>
2.7440

> <Gold.PLP.Chemscore.CHOScore>
1.0000

> <Gold.PLP.Chemscore.Metal>
0.0000

> <Gold.Chemscore.Hbonds>
donor molecule, donor type, donor heavy atom, donor atom, acceptor molecule, acceptor atom, score
      L1  H     3    22       P1  7948  1.00
      L1  H    10    26       P1  7948  0.88
      P1  H  7989  7998       L1     8  0.86
      L1  C     7    25       P1  8028  1.00

> <Gold.PLP.Chemscore.Internal.Correction>
0.2021

> <Gold.Rescore>
     Score         DG    S(hbond)    S(metal)    S(lipo)     H(rot)  DE(clash)    DE(int)     intcor
     15.54     -17.20       2.04        0.00      63.76       1.00       0.01       1.66       ----

> <Gold.Chemscore.Fitness>
15.5358

> <Gold.Chemscore.DG>
-17.2004

> <Gold.Chemscore.ZeroCoef>
-5.4800

> <Gold.Chemscore.Hbond>
2.0420

> <Gold.Chemscore.Metal>
0.0000

> <Gold.Chemscore.Lipo>
63.7634

> <Gold.Chemscore.Internal_Hbond>
0.0000

> <Gold.Chemscore.DEClash>
0.0082

> <Gold.Chemscore.DEInternal>
1.6564

> <Gold.Chemscore.Rot>
1.0000

> <Gold.Chemscore.Internal.Correction>
   9.000000E+99

> <Gold.Chemscore.Hbonds>
donor molecule, donor type, donor heavy atom, donor atom, acceptor molecule, acceptor atom, score
      L1  H     3    22       P1  7948  0.98
      L1  H    10    26       P1  7948  0.86
      P1  H  7989  7998       L1     8  0.15

> <Gold.Chemscore.Hbond.Weighted>
-6.8201

> <Gold.Chemscore.Metal.Weighted>
-0.0000

> <Gold.Chemscore.Lipo.Weighted>
-7.4603

> <Gold.Chemscore.Internal_Hbond.Weighted>
0.0000

> <Gold.Chemscore.DEClash.Weighted>
0.0082

> <Gold.Chemscore.DEInternal.Weighted>
1.6564

> <Gold.Chemscore.Rot.Weighted>
2.5600

> <Gold.Chemscore.Internal.Correction.Weighted>
   9.000000E+99

> <Gold.Protein.RotatedTorsions>
[ 6907 6896 6895 6894 ] final  -27.95 input  -60.11 | X-H torsion
[ 7974 7965 7964 7962 ] final  -34.22 input  175.53 | X-H torsion
[ 8008 7997 7996 7995 ] final  -63.04 input   59.86 | X-H torsion
[ 10167 10162 10161 10158 ] final  119.36 input  -65.29 | X-H torsion
[ 10718 10713 10712 10709 ] final  177.52 input   66.30 | X-H torsion
[ 10763 10752 10751 10750 ] final   78.99 input  -60.55 | X-H torsion
[ 11005 11000 10999 10996 ] final   -4.44 input  -57.11 | X-H torsion

> <Gold.Protein.ActiveResidues>
 VAL166  LYS551  ARG553  GLY616  TRP617  ASP618  TYR619  PRO620  LYS621  CYS622 
 ASP623  PHE694  ASN695  SER759  ASP760  ASP761  ALA762  ILE779  LEU786  VAL792 
 PHE793  MET794  SER795  GLU796  ALA797  LYS798  CYS799  TRP800  GLU811  SER814 

> <Gold.Protein.RotatedAtoms>
  151.1397  135.0173  159.8619 H   0  0  0  0  0  0  0  0  0  0  0  0  # atno 6907 bound_to 6896
  152.5452  134.1514  159.8530 H   0  0  0  0  0  0  0  0  0  0  0  0  # atno 6908 bound_to 6896
  151.1588  133.4813  159.2627 H   0  0  0  0  0  0  0  0  0  0  0  0  # atno 6909 bound_to 6896
  146.0847  140.6012  142.8892 H   0  0  0  0  0  0  0  0  0  0  0  0  # atno 7974 bound_to 7965
  154.4532  140.0983  156.6681 H   0  0  0  0  0  0  0  0  0  0  0  0  # atno 8008 bound_to 7997
  155.5218  140.3479  155.4390 H   0  0  0  0  0  0  0  0  0  0  0  0  # atno 8009 bound_to 7997
  156.0725  140.1353  156.9800 H   0  0  0  0  0  0  0  0  0  0  0  0  # atno 8010 bound_to 7997
  139.6051  144.7068  151.2972 H   0  0  0  0  0  0  0  0  0  0  0  0  # atno 10167 bound_to 10162
  156.9042  130.9888  151.3031 H   0  0  0  0  0  0  0  0  0  0  0  0  # atno 10718 bound_to 10713
  153.0918  135.4856  154.8703 H   0  0  0  0  0  0  0  0  0  0  0  0  # atno 10763 bound_to 10752
  154.7277  135.3053  154.8945 H   0  0  0  0  0  0  0  0  0  0  0  0  # atno 10764 bound_to 10752
  153.9590  135.6814  153.4798 H   0  0  0  0  0  0  0  0  0  0  0  0  # atno 10765 bound_to 10752
  140.6803  133.9160  155.8550 H   0  0  0  0  0  0  0  0  0  0  0  0  # atno 11005 bound_to 11000
  144.7317  140.4691  143.6933 LP  0  0  0  0  0  0  0  0  0  0  0  0  # atno 17320 bound_to 7965
  145.6152  139.1518  143.3053 LP  0  0  0  0  0  0  0  0  0  0  0  0  # atno 17321 bound_to 7965
  140.7279  143.6951  150.7891 LP  0  0  0  0  0  0  0  0  0  0  0  0  # atno 17342 bound_to 10162
  140.0535  143.5226  152.2662 LP  0  0  0  0  0  0  0  0  0  0  0  0  # atno 17343 bound_to 10162
  157.6008  130.8511  149.8798 LP  0  0  0  0  0  0  0  0  0  0  0  0  # atno 17370 bound_to 10713
  156.0567  130.3707  150.1074 LP  0  0  0  0  0  0  0  0  0  0  0  0  # atno 17371 bound_to 10713
  141.0323  134.0739  157.4000 LP  0  0  0  0  0  0  0  0  0  0  0  0  # atno 17394 bound_to 11000
  139.8954  135.0141  156.6999 LP  0  0  0  0  0  0  0  0  0  0  0  0  # atno 17395 bound_to 11000

$$$$
