AV-unprocessed.smi:232|AV-procd|sdf|1781|dock9
  -GOLD-   2262020333D 1   1.00000     0.00000
 Structure written by MMmdl.
 52 55  0  0  0  0  0  0  0  0  1 V2000
  153.6082  137.4368  160.2927 C   0  0  0  0  0  0  0  0  0  0  0  0
  152.5978  138.4416  159.7266 C   0  0  0  0  0  0  0  0  0  0  0  0
  153.2174  139.8231  159.4308 C   0  0  2  0  0  0  0  0  0  0  0  0
  153.7081  140.5711  160.6783 C   0  0  0  0  0  0  0  0  0  0  0  0
  153.5103  142.0554  160.3467 C   0  0  0  0  0  0  0  0  0  0  0  0
  152.8837  142.0621  158.9465 C   0  0  2  0  0  0  0  0  0  0  0  0
  151.8917  143.2162  158.7252 C   0  0  0  0  0  0  0  0  0  0  0  0
  152.2757  140.7452  158.8058 N   0  0  0  0  0  0  0  0  0  0  0  0
  151.8801  140.4284  157.5505 C   0  0  0  0  0  0  0  0  0  0  0  0
  152.5924  139.5434  156.8031 N   0  0  0  0  0  0  0  0  0  0  0  0
  152.1853  139.2344  155.5681 C   0  0  0  0  0  0  0  0  0  0  0  0
  151.1188  139.6848  154.9026 N   0  0  0  0  0  0  0  0  0  0  0  0
  150.4078  140.5755  155.6524 C   0  0  0  0  0  0  0  0  0  0  0  0
  150.7172  141.0006  156.9736 C   0  0  0  0  0  0  0  0  0  0  0  0
  149.7692  141.9134  157.4177 N   0  0  0  0  0  0  0  0  0  0  0  0
  148.9413  142.0207  156.4137 C   0  0  0  0  0  0  0  0  0  0  0  0
  149.2491  141.2503  155.3147 N   0  0  0  0  0  0  0  0  0  0  0  0
  148.5040  141.1669  154.0719 C   0  0  0  0  0  0  0  0  0  0  0  0
  147.0661  140.6573  154.2871 C   0  0  1  0  0  0  0  0  0  0  0  0
  146.1249  141.6177  153.8443 O   0  0  0  0  0  0  0  0  0  0  0  0
  146.8111  139.2937  153.6141 C   0  0  1  0  0  0  0  0  0  0  0  0
  145.6381  138.4652  154.1624 C   0  0  0  0  0  0  0  0  0  0  0  0
  144.9829  137.8868  152.9150 C   0  0  0  0  0  0  0  0  0  0  0  0
  145.9654  138.2151  151.7939 C   0  0  0  0  0  0  0  0  0  0  0  0
  146.5589  139.4289  152.2223 O   0  0  0  0  0  0  0  0  0  0  0  0
  153.1386  136.4663  160.4538 H   0  0  0  0  0  0  0  0  0  0  0  0
  154.0110  137.7714  161.2488 H   0  0  0  0  0  0  0  0  0  0  0  0
  154.4438  137.2923  159.6075 H   0  0  0  0  0  0  0  0  0  0  0  0
  152.1802  138.0223  158.8107 H   0  0  0  0  0  0  0  0  0  0  0  0
  151.7613  138.5500  160.4183 H   0  0  0  0  0  0  0  0  0  0  0  0
  154.0691  139.6910  158.7610 H   0  0  0  0  0  0  0  0  0  0  0  0
  153.1067  140.3112  161.5505 H   0  0  0  0  0  0  0  0  0  0  0  0
  154.7467  140.3318  160.9087 H   0  0  0  0  0  0  0  0  0  0  0  0
  152.8403  142.5069  161.0799 H   0  0  0  0  0  0  0  0  0  0  0  0
  154.4470  142.6130  160.3666 H   0  0  0  0  0  0  0  0  0  0  0  0
  153.6886  142.1484  158.2141 H   0  0  0  0  0  0  0  0  0  0  0  0
  152.3774  144.1798  158.8793 H   0  0  0  0  0  0  0  0  0  0  0  0
  151.0499  143.1527  159.4154 H   0  0  0  0  0  0  0  0  0  0  0  0
  151.4918  143.2106  157.7109 H   0  0  0  0  0  0  0  0  0  0  0  0
  152.8022  138.5241  155.0376 H   0  0  0  0  0  0  0  0  0  0  0  0
  148.0736  142.6634  156.4490 H   0  0  0  0  0  0  0  0  0  0  0  0
  148.4981  142.1517  153.6028 H   0  0  0  0  0  0  0  0  0  0  0  0
  149.0430  140.5020  153.3958 H   0  0  0  0  0  0  0  0  0  0  0  0
  146.9014  140.5337  155.3583 H   0  0  0  0  0  0  0  0  0  0  0  0
  145.4410  141.1703  153.3699 H   0  0  0  0  0  0  0  0  0  0  0  0
  147.7184  138.6935  153.7049 H   0  0  0  0  0  0  0  0  0  0  0  0
  146.0002  137.6807  154.8278 H   0  0  0  0  0  0  0  0  0  0  0  0
  144.9184  139.0621  154.7226 H   0  0  0  0  0  0  0  0  0  0  0  0
  144.7846  136.8176  152.9953 H   0  0  0  0  0  0  0  0  0  0  0  0
  144.0336  138.3919  152.7319 H   0  0  0  0  0  0  0  0  0  0  0  0
  146.7325  137.4435  151.7100 H   0  0  0  0  0  0  0  0  0  0  0  0
  145.4787  138.3233  150.8243 H   0  0  0  0  0  0  0  0  0  0  0  0
  1  2  1  0  0  0  0
  1 26  1  0  0  0  0
  1 27  1  0  0  0  0
  1 28  1  0  0  0  0
  2  3  1  0  0  0  0
  2 29  1  0  0  0  0
  2 30  1  0  0  0  0
  3  8  1  0  0  0  0
  3  4  1  0  0  0  0
  3 31  1  0  0  0  0
  4  5  1  0  0  0  0
  4 32  1  0  0  0  0
  4 33  1  0  0  0  0
  5  6  1  0  0  0  0
  5 34  1  0  0  0  0
  5 35  1  0  0  0  0
  6  7  1  0  0  0  0
  6  8  1  0  0  0  0
  6 36  1  0  0  0  0
  7 37  1  0  0  0  0
  7 38  1  0  0  0  0
  7 39  1  0  0  0  0
  8  9  1  0  0  0  0
  9 14  1  0  0  0  0
  9 10  2  0  0  0  0
 10 11  1  0  0  0  0
 11 12  2  0  0  0  0
 11 40  1  0  0  0  0
 12 13  1  0  0  0  0
 13 17  1  0  0  0  0
 13 14  2  0  0  0  0
 14 15  1  0  0  0  0
 15 16  2  0  0  0  0
 16 17  1  0  0  0  0
 16 41  1  0  0  0  0
 17 18  1  0  0  0  0
 18 19  1  0  0  0  0
 18 42  1  0  0  0  0
 18 43  1  0  0  0  0
 19 20  1  0  0  0  0
 19 21  1  0  0  0  0
 19 44  1  0  0  0  0
 20 45  1  0  0  0  0
 21 25  1  0  0  0  0
 21 22  1  0  0  0  0
 21 46  1  0  0  0  0
 22 23  1  0  0  0  0
 22 47  1  0  0  0  0
 22 48  1  0  0  0  0
 23 24  1  0  0  0  0
 23 49  1  0  0  0  0
 23 50  1  0  0  0  0
 24 25  1  0  0  0  0
 24 51  1  0  0  0  0
 24 52  1  0  0  0  0
M  END
> <s_m_source_file>
AV-unprocessed.smi

> <i_m_source_file_index>
232

> <i_lp_mmshare_version>
43012

> <i_f3d_flags>
0

> <s_epik_input>
W0NIM11bQ0gyXVtDQEBIXTFbQ0gyXVtDSDJdW0NAQEhdKFtDSDNdKU4xYyhuW2NIXW4yKWMoYzIzKW5bY0hdbjNbQ0gyXVtDQEhdKFtPSF0pW0NAQEhdNFtDSDJdW0NIMl1bQ0gyXU80

> <s_epik_cmdline>
J2VwaWtfcHl0aG9uJywgJy1waCcsICc3LjAnLCAnLXRuJywgJzgnLCAnLW1hJywgJzIwMCcsICctbWV0YWxfYmluZGluZycsICctaW1hZScsICc8aW5maWxlLm1hZT4nLCAnLW9tYWUnLCAnPG91dGZpbGUubWFlPic=

> <r_lp_tautomer_probability>
1

> <r_epik_Ionization_Penalty>
0.00258048

> <r_epik_Ionization_Penalty_Charging>
0

> <r_epik_Ionization_Penalty_Neutral>
0.00258048

> <r_epik_State_Penalty>
0.00168551

> <r_epik_Charging_Adjusted_Penalty>
0.00168551

> <i_epik_Tot_Q>
0

> <i_epik_Tot_abs_Q>
0

> <r_epik_Metal_State_Penalty>
-0

> <b_epik_Metal_Only>
0

> <s_lp_Force_Field>
OPLS_2005

> <r_lp_Energy>
54.2714

> <b_lp_Chiralities_Consistent>
1

> <s_lp_Variant>
AV-unprocessed.smi:232-15

> <Gold.Version>
5.8.1

> <Gold.Id.Protein>
6NUR|6NUR_protein|mol2

> <Gold.PLP.Fitness>
50.9117

> <Gold.PLP.PLP>
-43.6331

> <Gold.PLP.part.hbond>
-3.0000

> <Gold.PLP.part.metal>
0.0000

> <Gold.PLP.part.buried>
-1.9812

> <Gold.PLP.part.nonpolar>
-40.0726

> <Gold.PLP.part.repulsive>
1.3412

> <Gold.PLP.ligand.clash>
0.0000

> <Gold.PLP.ligand.torsion>
1.5112

> <Gold.PLP.Chemscore.Hbond>
3.0000

> <Gold.PLP.Chemscore.CHOScore>
0.3973

> <Gold.PLP.Chemscore.Metal>
0.0000

> <Gold.Chemscore.Hbonds>
donor molecule, donor type, donor heavy atom, donor atom, acceptor molecule, acceptor atom, score
      L1  H    20    45       P1 10175  0.88
      P1  H  7989  7998       L1    12  0.90
      P1  H  7997  8010       L1    10  1.00
      L1  C    16    41       P1  8028  0.49

> <Gold.PLP.Chemscore.Internal.Correction>
0.1092

> <Gold.Rescore>
     Score         DG    S(hbond)    S(metal)    S(lipo)     H(rot)  DE(clash)    DE(int)     intcor
     14.64     -16.95       1.96        0.00      95.19       2.43       0.07       2.24       ----

> <Gold.Chemscore.Fitness>
14.6400

> <Gold.Chemscore.DG>
-16.9521

> <Gold.Chemscore.ZeroCoef>
-5.4800

> <Gold.Chemscore.Hbond>
1.9597

> <Gold.Chemscore.Metal>
0.0000

> <Gold.Chemscore.Lipo>
95.1922

> <Gold.Chemscore.Internal_Hbond>
0.0000

> <Gold.Chemscore.DEClash>
0.0699

> <Gold.Chemscore.DEInternal>
2.2422

> <Gold.Chemscore.Rot>
2.4260

> <Gold.Chemscore.Internal.Correction>
   9.000000E+99

> <Gold.Chemscore.Hbonds>
donor molecule, donor type, donor heavy atom, donor atom, acceptor molecule, acceptor atom, score
      L1  H    20    45       P1 10175  0.30
      P1  H  7989  7998       L1    12  0.14
      P1  H  7997  8010       L1    10  0.43

> <Gold.Chemscore.Hbond.Weighted>
-6.5453

> <Gold.Chemscore.Metal.Weighted>
-0.0000

> <Gold.Chemscore.Lipo.Weighted>
-11.1375

> <Gold.Chemscore.Internal_Hbond.Weighted>
0.0000

> <Gold.Chemscore.DEClash.Weighted>
0.0699

> <Gold.Chemscore.DEInternal.Weighted>
2.2422

> <Gold.Chemscore.Rot.Weighted>
6.2107

> <Gold.Chemscore.Internal.Correction.Weighted>
   9.000000E+99

> <Gold.Protein.RotatedTorsions>
[ 6907 6896 6895 6894 ] final  -47.53 input  -60.11 | X-H torsion
[ 7974 7965 7964 7962 ] final   13.38 input  175.53 | X-H torsion
[ 8008 7997 7996 7995 ] final   59.48 input   59.86 | X-H torsion
[ 10167 10162 10161 10158 ] final    0.69 input  -65.29 | X-H torsion
[ 10718 10713 10712 10709 ] final -111.29 input   66.30 | X-H torsion
[ 10763 10752 10751 10750 ] final -103.48 input  -60.55 | X-H torsion
[ 11005 11000 10999 10996 ] final -104.66 input  -57.11 | X-H torsion

> <Gold.Protein.ActiveResidues>
 VAL166  LYS551  ARG553  GLY616  TRP617  ASP618  TYR619  PRO620  LYS621  CYS622 
 ASP623  PHE694  ASN695  SER759  ASP760  ASP761  ALA762  ILE779  LEU786  VAL792 
 PHE793  MET794  SER795  GLU796  ALA797  LYS798  CYS799  TRP800  GLU811  SER814 

> <Gold.Protein.RotatedAtoms>
  150.8998  134.8410  159.7352 H   0  0  0  0  0  0  0  0  0  0  0  0  # atno 6907 bound_to 6896
  152.4886  134.4519  159.9587 H   0  0  0  0  0  0  0  0  0  0  0  0  # atno 6908 bound_to 6896
  151.4572  133.3563  159.2839 H   0  0  0  0  0  0  0  0  0  0  0  0  # atno 6909 bound_to 6896
  146.2330  139.9196  142.8512 H   0  0  0  0  0  0  0  0  0  0  0  0  # atno 7974 bound_to 7965
  155.5669  140.3489  155.4505 H   0  0  0  0  0  0  0  0  0  0  0  0  # atno 8008 bound_to 7997
  156.0473  140.1309  157.0115 H   0  0  0  0  0  0  0  0  0  0  0  0  # atno 8009 bound_to 7997
  154.4418  140.1012  156.6309 H   0  0  0  0  0  0  0  0  0  0  0  0  # atno 8010 bound_to 7997
  140.6717  143.7029  150.7937 H   0  0  0  0  0  0  0  0  0  0  0  0  # atno 10167 bound_to 10162
  156.0638  130.5859  150.8353 H   0  0  0  0  0  0  0  0  0  0  0  0  # atno 10718 bound_to 10713
  154.7810  135.4822  153.9844 H   0  0  0  0  0  0  0  0  0  0  0  0  # atno 10763 bound_to 10752
  153.1494  135.6788  153.8913 H   0  0  0  0  0  0  0  0  0  0  0  0  # atno 10764 bound_to 10752
  153.8562  135.3161  155.3413 H   0  0  0  0  0  0  0  0  0  0  0  0  # atno 10765 bound_to 10752
  141.1090  133.8742  157.1639 H   0  0  0  0  0  0  0  0  0  0  0  0  # atno 11005 bound_to 11000
  145.2149  140.9911  143.4079 LP  0  0  0  0  0  0  0  0  0  0  0  0  # atno 17320 bound_to 7965
  144.9659  139.3930  143.6333 LP  0  0  0  0  0  0  0  0  0  0  0  0  # atno 17321 bound_to 7965
  140.0716  143.5056  152.2577 LP  0  0  0  0  0  0  0  0  0  0  0  0  # atno 17342 bound_to 10162
  139.5989  144.7576  151.3219 LP  0  0  0  0  0  0  0  0  0  0  0  0  # atno 17343 bound_to 10162
  157.5666  131.0946  150.9480 LP  0  0  0  0  0  0  0  0  0  0  0  0  # atno 17370 bound_to 10713
  156.9705  130.5489  149.5290 LP  0  0  0  0  0  0  0  0  0  0  0  0  # atno 17371 bound_to 10713
  139.9974  135.0041  157.0113 LP  0  0  0  0  0  0  0  0  0  0  0  0  # atno 17394 bound_to 11000
  140.4826  134.1274  155.7219 LP  0  0  0  0  0  0  0  0  0  0  0  0  # atno 17395 bound_to 11000

$$$$
