AV-unprocessed.smi:1006|AV-procd|sdf|4397|dock9
  -GOLD-   22720 2333D 1   1.00000     0.00000
 Structure written by MMmdl.
 47 49  0  0  0  0  0  0  0  0  3 V2000
  148.7712  133.1064  153.3506 C   0  0  0  0  0  0  0  0  0  0  0  0
  149.4693  133.1596  154.6930 C   0  0  0  0  0  0  0  0  0  0  0  0
  150.1297  132.0392  155.2375 C   0  0  0  0  0  0  0  0  0  0  0  0
  150.7390  132.2101  156.4928 C   0  0  0  0  0  0  0  0  0  0  0  0
  151.4145  131.1596  157.1087 N   0  0  0  0  0  0  0  0  0  0  0  0
  150.6923  133.3892  157.1438 N   0  0  0  0  0  0  0  0  0  0  0  0
  150.0464  134.4137  156.5708 C   0  0  0  0  0  0  0  0  0  0  0  0
  149.9660  135.9877  157.4084 S   0  0  0  0  0  0  0  0  0  0  0  0
  150.9319  137.0774  156.3154 C   0  0  0  0  0  0  0  0  0  0  0  0
  151.4249  138.3372  157.0462 C   0  0  1  0  0  0  0  0  0  0  0  0
  152.5051  137.9917  157.8923 O   0  0  0  0  0  0  0  0  0  0  0  0
  151.8599  139.4417  156.0633 C   0  0  0  0  0  0  0  0  0  0  0  0
  151.3399  140.7676  156.4293 N   0  0  0  0  0  0  0  0  0  0  0  0
  150.4415  141.5558  155.7783 C   0  0  0  0  0  0  0  0  0  0  0  0
  150.2813  142.6908  156.5130 N   0  3  0  0  0  0  0  0  0  0  0  0
  151.0885  142.6274  157.6504 C   0  0  0  0  0  0  0  0  0  0  0  0
  151.2674  143.5329  158.6896 C   0  0  0  0  0  0  0  0  0  0  0  0
  152.1680  143.1678  159.7153 C   0  0  0  0  0  0  0  0  0  0  0  0
  152.3859  144.1343  160.8672 C   0  0  0  0  0  0  0  0  0  0  0  0
  152.8546  141.9267  159.6760 C   0  0  0  0  0  0  0  0  0  0  0  0
  153.8172  141.5423  160.7869 C   0  0  0  0  0  0  0  0  0  0  0  0
  152.6605  141.0205  158.6090 C   0  0  0  0  0  0  0  0  0  0  0  0
  151.7704  141.3956  157.6049 C   0  0  0  0  0  0  0  0  0  0  0  0
  149.4414  134.3310  155.3770 N   0  3  0  0  0  0  0  0  0  0  0  0
  149.0706  132.2210  152.7886 H   0  0  0  0  0  0  0  0  0  0  0  0
  149.0173  133.9854  152.7538 H   0  0  0  0  0  0  0  0  0  0  0  0
  147.6900  133.0745  153.4881 H   0  0  0  0  0  0  0  0  0  0  0  0
  150.1653  131.0941  154.7145 H   0  0  0  0  0  0  0  0  0  0  0  0
  151.4872  130.2496  156.6765 H   0  0  0  0  0  0  0  0  0  0  0  0
  151.8498  131.2717  158.0132 H   0  0  0  0  0  0  0  0  0  0  0  0
  151.7782  136.5242  155.9058 H   0  0  0  0  0  0  0  0  0  0  0  0
  150.2985  137.3660  155.4758 H   0  0  0  0  0  0  0  0  0  0  0  0
  150.6197  138.7227  157.6732 H   0  0  0  0  0  0  0  0  0  0  0  0
  152.2189  138.0580  158.7903 H   0  0  0  0  0  0  0  0  0  0  0  0
  152.9453  139.4893  155.9724 H   0  0  0  0  0  0  0  0  0  0  0  0
  151.4818  139.2171  155.0651 H   0  0  0  0  0  0  0  0  0  0  0  0
  149.9444  141.3231  154.8477 H   0  0  0  0  0  0  0  0  0  0  0  0
  150.7393  144.4751  158.7137 H   0  0  0  0  0  0  0  0  0  0  0  0
  153.4356  144.4219  160.9334 H   0  0  0  0  0  0  0  0  0  0  0  0
  152.0911  143.6763  161.8117 H   0  0  0  0  0  0  0  0  0  0  0  0
  151.7992  145.0446  160.7406 H   0  0  0  0  0  0  0  0  0  0  0  0
  154.2558  140.5591  160.6132 H   0  0  0  0  0  0  0  0  0  0  0  0
  153.3012  141.5109  161.7468 H   0  0  0  0  0  0  0  0  0  0  0  0
  154.6322  142.2632  160.8543 H   0  0  0  0  0  0  0  0  0  0  0  0
  153.1821  140.0756  158.5838 H   0  0  0  0  0  0  0  0  0  0  0  0
  148.9613  135.1390  154.9799 H   0  0  0  0  0  0  0  0  0  0  0  0
  149.6641  143.4503  156.2555 H   0  0  0  0  0  0  0  0  0  0  0  0
  1  2  1  0  0  0  0
  1 25  1  0  0  0  0
  1 26  1  0  0  0  0
  1 27  1  0  0  0  0
  2 24  1  0  0  0  0
  2  3  2  0  0  0  0
  3  4  1  0  0  0  0
  3 28  1  0  0  0  0
  4  5  1  0  0  0  0
  4  6  2  0  0  0  0
  5 29  1  0  0  0  0
  5 30  1  0  0  0  0
  6  7  1  0  0  0  0
  7  8  1  0  0  0  0
  7 24  2  0  0  0  0
  8  9  1  0  0  0  0
  9 10  1  0  0  0  0
  9 31  1  0  0  0  0
  9 32  1  0  0  0  0
 10 11  1  0  0  0  0
 10 12  1  0  0  0  0
 10 33  1  0  0  0  0
 11 34  1  0  0  0  0
 12 13  1  0  0  0  0
 12 35  1  0  0  0  0
 12 36  1  0  0  0  0
 13 23  1  0  0  0  0
 13 14  1  0  0  0  0
 14 15  2  0  0  0  0
 14 37  1  0  0  0  0
 15 16  1  0  0  0  0
 15 47  1  0  0  0  0
 16 23  2  0  0  0  0
 16 17  1  0  0  0  0
 17 18  2  0  0  0  0
 17 38  1  0  0  0  0
 18 19  1  0  0  0  0
 18 20  1  0  0  0  0
 19 39  1  0  0  0  0
 19 40  1  0  0  0  0
 19 41  1  0  0  0  0
 20 21  1  0  0  0  0
 20 22  2  0  0  0  0
 21 42  1  0  0  0  0
 21 43  1  0  0  0  0
 21 44  1  0  0  0  0
 22 23  1  0  0  0  0
 22 45  1  0  0  0  0
 24 46  1  0  0  0  0
M  CHG  1  15   1
M  CHG  1  24   1
M  END
> <s_m_source_file>
AV-unprocessed.smi

> <i_m_source_file_index>
1006

> <i_lp_mmshare_version>
43012

> <i_f3d_flags>
0

> <s_epik_input>
W0NIM11jMVtjSF1jKFtOSDJdKW5jKG4xKVNbQ0gyXVtDQEhdKFtPSF0pW0NIMl1uKFtjSF1uMiljKGMyMylbY0hdYyhbQ0gzXSljKFtjSF0zKVtDSDNd

> <s_epik_cmdline>
J2VwaWtfcHl0aG9uJywgJy1waCcsICc3LjAnLCAnLXRuJywgJzgnLCAnLW1hJywgJzIwMCcsICctbWV0YWxfYmluZGluZycsICctaW1hZScsICc8aW5maWxlLm1hZT4nLCAnLW9tYWUnLCAnPG91dGZpbGUubWFlPic=

> <r_lp_tautomer_probability>
0.999762

> <r_epik_Ionization_Penalty>
1.50932

> <r_epik_Ionization_Penalty_Charging>
1.50929

> <r_epik_Ionization_Penalty_Neutral>
3.48853e-05

> <r_epik_State_Penalty>
1.56619

> <r_epik_Charging_Adjusted_Penalty>
3.07548

> <i_epik_Tot_Q>
2

> <i_epik_Tot_abs_Q>
2

> <r_epik_Metal_State_Penalty>
1.82892

> <b_epik_Metal_Only>
0

> <s_lp_Force_Field>
OPLS_2005

> <r_lp_Energy>
17.0634

> <b_lp_Chiralities_Consistent>
1

> <s_lp_Variant>
AV-unprocessed.smi:1006-8

> <Gold.Version>
5.8.1

> <Gold.Id.Protein>
6NUR|6NUR_protein|mol2

> <Gold.PLP.Fitness>
52.3456

> <Gold.PLP.PLP>
-45.6790

> <Gold.PLP.part.hbond>
-2.0000

> <Gold.PLP.part.metal>
0.0000

> <Gold.PLP.part.buried>
-6.8105

> <Gold.PLP.part.nonpolar>
-37.9259

> <Gold.PLP.part.repulsive>
0.1581

> <Gold.PLP.ligand.clash>
0.0000

> <Gold.PLP.ligand.torsion>
0.9315

> <Gold.PLP.Chemscore.Hbond>
2.8320

> <Gold.PLP.Chemscore.CHOScore>
0.0000

> <Gold.PLP.Chemscore.Metal>
0.0000

> <Gold.Chemscore.Hbonds>
donor molecule, donor type, donor heavy atom, donor atom, acceptor molecule, acceptor atom, score
      L1  H    15    47       P1  8028  2.00
      P1  H  6896  6908       L1     6  0.69

> <Gold.PLP.Chemscore.Internal.Correction>
0.0335

> <Gold.Rescore>
     Score         DG    S(hbond)    S(metal)    S(lipo)     H(rot)  DE(clash)    DE(int)     intcor
     16.68     -17.62       1.89        0.00     114.58       2.96       0.02       0.91       ----

> <Gold.Chemscore.Fitness>
16.6827

> <Gold.Chemscore.DG>
-17.6181

> <Gold.Chemscore.ZeroCoef>
-5.4800

> <Gold.Chemscore.Hbond>
1.8892

> <Gold.Chemscore.Metal>
0.0000

> <Gold.Chemscore.Lipo>
114.5756

> <Gold.Chemscore.Internal_Hbond>
0.0000

> <Gold.Chemscore.DEClash>
0.0211

> <Gold.Chemscore.DEInternal>
0.9142

> <Gold.Chemscore.Rot>
2.9599

> <Gold.Chemscore.Internal.Correction>
   9.000000E+99

> <Gold.Chemscore.Hbonds>
donor molecule, donor type, donor heavy atom, donor atom, acceptor molecule, acceptor atom, score
      L1  H    15    47       P1  8028  0.99
      P1  H  6896  6908       L1     6  0.63

> <Gold.Chemscore.Hbond.Weighted>
-6.3099

> <Gold.Chemscore.Metal.Weighted>
-0.0000

> <Gold.Chemscore.Lipo.Weighted>
-13.4053

> <Gold.Chemscore.Internal_Hbond.Weighted>
0.0000

> <Gold.Chemscore.DEClash.Weighted>
0.0211

> <Gold.Chemscore.DEInternal.Weighted>
0.9142

> <Gold.Chemscore.Rot.Weighted>
7.5772

> <Gold.Chemscore.Internal.Correction.Weighted>
   9.000000E+99

> <Gold.Protein.RotatedTorsions>
[ 6907 6896 6895 6894 ] final   91.20 input  -60.11 | X-H torsion
[ 7974 7965 7964 7962 ] final  148.25 input  175.53 | X-H torsion
[ 8008 7997 7996 7995 ] final   86.22 input   59.86 | X-H torsion
[ 10167 10162 10161 10158 ] final  127.20 input  -65.29 | X-H torsion
[ 10718 10713 10712 10709 ] final  170.03 input   66.30 | X-H torsion
[ 10763 10752 10751 10750 ] final  -66.11 input  -60.55 | X-H torsion
[ 11005 11000 10999 10996 ] final   26.34 input  -57.11 | X-H torsion

> <Gold.Protein.ActiveResidues>
 VAL166  LYS551  ARG553  GLY616  TRP617  ASP618  TYR619  PRO620  LYS621  CYS622 
 ASP623  PHE694  ASN695  SER759  ASP760  ASP761  ALA762  ILE779  LEU786  VAL792 
 PHE793  MET794  SER795  GLU796  ALA797  LYS798  CYS799  TRP800  GLU811  SER814 

> <Gold.Protein.RotatedAtoms>
  152.5449  134.1693  159.8589 H   0  0  0  0  0  0  0  0  0  0  0  0  # atno 6907 bound_to 6896
  151.1705  133.4780  159.2601 H   0  0  0  0  0  0  0  0  0  0  0  0  # atno 6908 bound_to 6896
  151.1280  135.0126  159.8624 H   0  0  0  0  0  0  0  0  0  0  0  0  # atno 6909 bound_to 6896
  144.8528  139.6131  143.5966 H   0  0  0  0  0  0  0  0  0  0  0  0  # atno 7974 bound_to 7965
  155.9600  140.3394  155.6482 H   0  0  0  0  0  0  0  0  0  0  0  0  # atno 8008 bound_to 7997
  155.6810  140.0738  157.2503 H   0  0  0  0  0  0  0  0  0  0  0  0  # atno 8009 bound_to 7997
  154.4141  140.1674  156.1970 H   0  0  0  0  0  0  0  0  0  0  0  0  # atno 8010 bound_to 7997
  139.5590  144.6869  151.4097 H   0  0  0  0  0  0  0  0  0  0  0  0  # atno 10167 bound_to 10162
  157.0140  131.0212  151.2795 H   0  0  0  0  0  0  0  0  0  0  0  0  # atno 10718 bound_to 10713
  154.3549  135.6128  153.5661 H   0  0  0  0  0  0  0  0  0  0  0  0  # atno 10763 bound_to 10752
  152.9796  135.5801  154.4700 H   0  0  0  0  0  0  0  0  0  0  0  0  # atno 10764 bound_to 10752
  154.4428  135.2850  155.1813 H   0  0  0  0  0  0  0  0  0  0  0  0  # atno 10765 bound_to 10752
  140.3381  134.2363  155.7693 H   0  0  0  0  0  0  0  0  0  0  0  0  # atno 11005 bound_to 11000
  146.2799  139.6849  142.9237 LP  0  0  0  0  0  0  0  0  0  0  0  0  # atno 17320 bound_to 7965
  145.4466  141.0426  143.2828 LP  0  0  0  0  0  0  0  0  0  0  0  0  # atno 17321 bound_to 7965
  140.6868  143.7955  150.7197 LP  0  0  0  0  0  0  0  0  0  0  0  0  # atno 17342 bound_to 10162
  140.1425  143.4428  152.2184 LP  0  0  0  0  0  0  0  0  0  0  0  0  # atno 17343 bound_to 10162
  157.5299  130.8052  149.7905 LP  0  0  0  0  0  0  0  0  0  0  0  0  # atno 17370 bound_to 10713
  156.0126  130.3827  150.2215 LP  0  0  0  0  0  0  0  0  0  0  0  0  # atno 17371 bound_to 10713
  141.2046  133.7882  157.0279 LP  0  0  0  0  0  0  0  0  0  0  0  0  # atno 17394 bound_to 11000
  140.0804  134.9651  157.1615 LP  0  0  0  0  0  0  0  0  0  0  0  0  # atno 17395 bound_to 11000

$$$$
