AV-unprocessed.smi:837|AV-procd|sdf|3902|dock8
  -GOLD-   22720 1363D 1   1.00000     0.00000
 Structure written by MMmdl.
 48 50  0  0  0  0  0  0  0  0  2 V2000
  150.9680  142.1072  157.2492 C   0  0  0  0  0  0  0  0  0  0  0  0
  150.8044  141.3162  155.9322 C   0  0  2  0  0  0  0  0  0  0  0  0
  149.3752  141.5098  155.3776 C   0  0  0  0  0  0  0  0  0  0  0  0
  149.1812  140.8034  154.0283 C   0  0  0  0  0  0  0  0  0  0  0  0
  149.5086  139.3087  154.1316 C   0  0  0  0  0  0  0  0  0  0  0  0
  150.9342  139.0929  154.6682 C   0  0  0  0  0  0  0  0  0  0  0  0
  151.1995  139.8035  156.0230 C   0  0  1  0  0  0  0  0  0  0  0  0
  152.6100  139.6691  156.3442 N   0  5  0  0  0  0  0  0  0  0  0  0
  152.7385  138.9741  157.4980 C   0  0  0  0  0  0  0  0  0  0  0  0
  153.7895  138.6862  158.0700 O   0  0  0  0  0  0  0  0  0  0  0  0
  151.5350  138.6163  157.9834 N   0  0  0  0  0  0  0  0  0  0  0  0
  151.3188  137.8802  159.2366 C   0  0  0  0  0  0  0  0  0  0  0  0
  150.2469  136.7864  159.1237 C   0  0  0  0  0  0  0  0  0  0  0  0
  150.3966  135.8230  158.3701 O   0  0  0  0  0  0  0  0  0  0  0  0
  149.1658  136.9460  159.9019 N   0  0  0  0  0  0  0  0  0  0  0  0
  148.0320  136.0314  159.9594 C   0  0  0  0  0  0  0  0  0  0  0  0
  147.8513  135.4399  161.3668 C   0  0  0  0  0  0  0  0  0  0  0  0
  146.4285  135.5898  161.8691 C   0  0  0  0  0  0  0  0  0  0  0  0
  145.6905  134.4659  162.2941 C   0  0  0  0  0  0  0  0  0  0  0  0
  144.3739  134.6551  162.7571 C   0  0  0  0  0  0  0  0  0  0  0  0
  143.8511  135.9638  162.7759 C   0  0  0  0  0  0  0  0  0  0  0  0
  144.5490  137.0471  162.3715 N   0  0  0  0  0  0  0  0  0  0  0  0
  145.8103  136.8570  161.9283 C   0  0  0  0  0  0  0  0  0  0  0  0
  150.5534  139.0588  157.1899 C   0  0  0  0  0  0  0  0  0  0  0  0
  149.3415  138.9140  157.3562 O   0  0  0  0  0  0  0  0  0  0  0  0
  150.2899  141.7507  158.0249 H   0  0  0  0  0  0  0  0  0  0  0  0
  150.7562  143.1653  157.0945 H   0  0  0  0  0  0  0  0  0  0  0  0
  151.9842  142.0375  157.6379 H   0  0  0  0  0  0  0  0  0  0  0  0
  151.4822  141.7788  155.2123 H   0  0  0  0  0  0  0  0  0  0  0  0
  148.6386  141.1421  156.0921 H   0  0  0  0  0  0  0  0  0  0  0  0
  149.1690  142.5734  155.2551 H   0  0  0  0  0  0  0  0  0  0  0  0
  148.1555  140.9358  153.6832 H   0  0  0  0  0  0  0  0  0  0  0  0
  149.8228  141.2672  153.2779 H   0  0  0  0  0  0  0  0  0  0  0  0
  148.7813  138.8142  154.7752 H   0  0  0  0  0  0  0  0  0  0  0  0
  149.4114  138.8421  153.1510 H   0  0  0  0  0  0  0  0  0  0  0  0
  151.1248  138.0218  154.7549 H   0  0  0  0  0  0  0  0  0  0  0  0
  151.6421  139.4589  153.9226 H   0  0  0  0  0  0  0  0  0  0  0  0
  152.2497  137.4167  159.5670 H   0  0  0  0  0  0  0  0  0  0  0  0
  151.0403  138.5780  160.0282 H   0  0  0  0  0  0  0  0  0  0  0  0
  149.1256  137.7627  160.4945 H   0  0  0  0  0  0  0  0  0  0  0  0
  147.1230  136.5429  159.6386 H   0  0  0  0  0  0  0  0  0  0  0  0
  148.2087  135.2312  159.2402 H   0  0  0  0  0  0  0  0  0  0  0  0
  148.1190  134.3824  161.3667 H   0  0  0  0  0  0  0  0  0  0  0  0
  148.5260  135.9270  162.0722 H   0  0  0  0  0  0  0  0  0  0  0  0
  146.1244  133.4768  162.2675 H   0  0  0  0  0  0  0  0  0  0  0  0
  143.7791  133.8174  163.0906 H   0  0  0  0  0  0  0  0  0  0  0  0
  142.8454  136.1451  163.1249 H   0  0  0  0  0  0  0  0  0  0  0  0
  146.3426  137.7432  161.6149 H   0  0  0  0  0  0  0  0  0  0  0  0
  1  2  1  0  0  0  0
  1 26  1  0  0  0  0
  1 27  1  0  0  0  0
  1 28  1  0  0  0  0
  2  7  1  0  0  0  0
  2  3  1  0  0  0  0
  2 29  1  0  0  0  0
  3  4  1  0  0  0  0
  3 30  1  0  0  0  0
  3 31  1  0  0  0  0
  4  5  1  0  0  0  0
  4 32  1  0  0  0  0
  4 33  1  0  0  0  0
  5  6  1  0  0  0  0
  5 34  1  0  0  0  0
  5 35  1  0  0  0  0
  6  7  1  0  0  0  0
  6 36  1  0  0  0  0
  6 37  1  0  0  0  0
  7 24  1  0  0  0  0
  7  8  1  0  0  0  0
  8  9  1  0  0  0  0
  9 10  2  0  0  0  0
  9 11  1  0  0  0  0
 11 12  1  0  0  0  0
 11 24  1  0  0  0  0
 12 13  1  0  0  0  0
 12 38  1  0  0  0  0
 12 39  1  0  0  0  0
 13 14  2  0  0  0  0
 13 15  1  0  0  0  0
 15 16  1  0  0  0  0
 15 40  1  0  0  0  0
 16 17  1  0  0  0  0
 16 41  1  0  0  0  0
 16 42  1  0  0  0  0
 17 18  1  0  0  0  0
 17 43  1  0  0  0  0
 17 44  1  0  0  0  0
 18 23  1  0  0  0  0
 18 19  2  0  0  0  0
 19 20  1  0  0  0  0
 19 45  1  0  0  0  0
 20 21  2  0  0  0  0
 20 46  1  0  0  0  0
 21 22  1  0  0  0  0
 21 47  1  0  0  0  0
 22 23  2  0  0  0  0
 23 48  1  0  0  0  0
 24 25  2  0  0  0  0
M  CHG  1   8  -1
M  END
> <s_m_source_file>
AV-unprocessed.smi

> <i_m_source_file_index>
837

> <i_lp_mmshare_version>
43012

> <i_f3d_flags>
0

> <s_epik_input>
W0NIMl0xW0NIMl1bQ0gyXVtDSDJdW0NAQEhdKFtDSDNdKVtDQEBdMTJbTkhdQyg9TylOKEMyPU8pW0NIMl1DKD1PKVtOSF1bQ0gyXVtDSDJdYzNbY0hdW2NIXVtjSF1uW2NIXTM=

> <s_epik_cmdline>
J2VwaWtfcHl0aG9uJywgJy1waCcsICc3LjAnLCAnLXRuJywgJzgnLCAnLW1hJywgJzIwMCcsICctbWV0YWxfYmluZGluZycsICctaW1hZScsICc8aW5maWxlLm1hZT4nLCAnLW9tYWUnLCAnPG91dGZpbGUubWFlPic=

> <r_lp_tautomer_probability>
1

> <r_epik_Ionization_Penalty>
6.03002

> <r_epik_Ionization_Penalty_Charging>
6.01728

> <r_epik_Ionization_Penalty_Neutral>
0.0127382

> <r_epik_State_Penalty>
6.02713

> <r_epik_Charging_Adjusted_Penalty>
12.0444

> <i_epik_Tot_Q>
-1

> <i_epik_Tot_abs_Q>
1

> <r_epik_Metal_State_Penalty>
1.99078

> <b_epik_Metal_Only>
1

> <s_lp_Force_Field>
OPLS_2005

> <r_lp_Energy>
14.9732

> <b_lp_Chiralities_Consistent>
1

> <s_lp_Variant>
AV-unprocessed.smi:837-11

> <Gold.Version>
5.8.1

> <Gold.Id.Protein>
6NUR|6NUR_protein|mol2

> <Gold.PLP.Fitness>
47.8781

> <Gold.PLP.PLP>
-40.4796

> <Gold.PLP.part.hbond>
-3.0000

> <Gold.PLP.part.metal>
0.0000

> <Gold.PLP.part.buried>
-1.6132

> <Gold.PLP.part.nonpolar>
-36.7504

> <Gold.PLP.part.repulsive>
0.8210

> <Gold.PLP.ligand.clash>
0.0000

> <Gold.PLP.ligand.torsion>
0.6095

> <Gold.PLP.Chemscore.Hbond>
2.8671

> <Gold.PLP.Chemscore.CHOScore>
0.0000

> <Gold.PLP.Chemscore.Metal>
0.0000

> <Gold.Chemscore.Hbonds>
donor molecule, donor type, donor heavy atom, donor atom, acceptor molecule, acceptor atom, score
      P1  H  6896  6908       L1    14  0.69
      P1  H  7997  8008       L1    10  0.08
      P1  H  7997  8009       L1     8  2.00

> <Gold.PLP.Chemscore.Internal.Correction>
0.0162

> <Gold.Rescore>
     Score         DG    S(hbond)    S(metal)    S(lipo)     H(rot)  DE(clash)    DE(int)     intcor
     13.19     -15.81       0.99        0.00      99.67       1.81       0.72       1.89       ----

> <Gold.Chemscore.Fitness>
13.1910

> <Gold.Chemscore.DG>
-15.8062

> <Gold.Chemscore.ZeroCoef>
-5.4800

> <Gold.Chemscore.Hbond>
0.9866

> <Gold.Chemscore.Metal>
0.0000

> <Gold.Chemscore.Lipo>
99.6750

> <Gold.Chemscore.Internal_Hbond>
0.0000

> <Gold.Chemscore.DEClash>
0.7219

> <Gold.Chemscore.DEInternal>
1.8933

> <Gold.Chemscore.Rot>
1.8090

> <Gold.Chemscore.Internal.Correction>
   9.000000E+99

> <Gold.Chemscore.Hbonds>
donor molecule, donor type, donor heavy atom, donor atom, acceptor molecule, acceptor atom, score
      P1  H  6896  6908       L1    14  0.14
      P1  H  7997  8008       L1    10  0.06
      P1  H  7997  8009       L1     8  0.25

> <Gold.Chemscore.Hbond.Weighted>
-3.2952

> <Gold.Chemscore.Metal.Weighted>
-0.0000

> <Gold.Chemscore.Lipo.Weighted>
-11.6620

> <Gold.Chemscore.Internal_Hbond.Weighted>
0.0000

> <Gold.Chemscore.DEClash.Weighted>
0.7219

> <Gold.Chemscore.DEInternal.Weighted>
1.8933

> <Gold.Chemscore.Rot.Weighted>
4.6310

> <Gold.Chemscore.Internal.Correction.Weighted>
   9.000000E+99

> <Gold.Protein.RotatedTorsions>
[ 6907 6896 6895 6894 ] final  173.23 input  -60.11 | X-H torsion
[ 7974 7965 7964 7962 ] final  123.61 input  175.53 | X-H torsion
[ 8008 7997 7996 7995 ] final -145.88 input   59.86 | X-H torsion
[ 10167 10162 10161 10158 ] final   84.96 input  -65.29 | X-H torsion
[ 10718 10713 10712 10709 ] final   61.50 input   66.30 | X-H torsion
[ 10763 10752 10751 10750 ] final   31.39 input  -60.55 | X-H torsion
[ 11005 11000 10999 10996 ] final   26.88 input  -57.11 | X-H torsion

> <Gold.Protein.ActiveResidues>
 VAL166  LYS551  ARG553  GLY616  TRP617  ASP618  TYR619  PRO620  LYS621  CYS622 
 ASP623  PHE694  ASN695  SER759  ASP760  ASP761  ALA762  ILE779  LEU786  VAL792 
 PHE793  MET794  SER795  GLU796  ALA797  LYS798  CYS799  TRP800  GLU811  SER814 

> <Gold.Protein.RotatedAtoms>
  151.7717  133.3342  159.3446 H   0  0  0  0  0  0  0  0  0  0  0  0  # atno 6907 bound_to 6896
  150.7459  134.6012  159.6047 H   0  0  0  0  0  0  0  0  0  0  0  0  # atno 6908 bound_to 6896
  152.3337  134.7228  160.0334 H   0  0  0  0  0  0  0  0  0  0  0  0  # atno 6909 bound_to 6896
  145.0939  139.3567  143.4847 H   0  0  0  0  0  0  0  0  0  0  0  0  # atno 7974 bound_to 7965
  155.5503  140.0616  157.2851 H   0  0  0  0  0  0  0  0  0  0  0  0  # atno 8008 bound_to 7997
  154.4423  140.1903  156.0725 H   0  0  0  0  0  0  0  0  0  0  0  0  # atno 8009 bound_to 7997
  156.0521  140.3283  155.7366 H   0  0  0  0  0  0  0  0  0  0  0  0  # atno 8010 bound_to 7997
  139.9027  144.6320  150.8620 H   0  0  0  0  0  0  0  0  0  0  0  0  # atno 10167 bound_to 10162
  157.5832  130.8998  149.9468 H   0  0  0  0  0  0  0  0  0  0  0  0  # atno 10718 bound_to 10713
  153.0318  135.6440  154.1192 H   0  0  0  0  0  0  0  0  0  0  0  0  # atno 10763 bound_to 10752
  154.0913  135.2866  155.3272 H   0  0  0  0  0  0  0  0  0  0  0  0  # atno 10764 bound_to 10752
  154.6462  135.5442  153.7911 H   0  0  0  0  0  0  0  0  0  0  0  0  # atno 10765 bound_to 10752
  140.3323  134.2424  155.7700 H   0  0  0  0  0  0  0  0  0  0  0  0  # atno 11005 bound_to 11000
  146.3531  140.0785  142.8619 LP  0  0  0  0  0  0  0  0  0  0  0  0  # atno 17320 bound_to 7965
  145.1034  140.9360  143.4699 LP  0  0  0  0  0  0  0  0  0  0  0  0  # atno 17321 bound_to 7965
  140.7703  143.3425  151.2179 LP  0  0  0  0  0  0  0  0  0  0  0  0  # atno 17342 bound_to 10162
  139.7011  143.9531  152.2906 LP  0  0  0  0  0  0  0  0  0  0  0  0  # atno 17343 bound_to 10162
  156.0879  130.3666  150.0451 LP  0  0  0  0  0  0  0  0  0  0  0  0  # atno 17370 bound_to 10713
  156.8587  130.9484  151.3620 LP  0  0  0  0  0  0  0  0  0  0  0  0  # atno 17371 bound_to 10713
  141.2060  133.7845  157.0201 LP  0  0  0  0  0  0  0  0  0  0  0  0  # atno 17394 bound_to 11000
  140.0850  134.9626  157.1686 LP  0  0  0  0  0  0  0  0  0  0  0  0  # atno 17395 bound_to 11000

$$$$
