AV-unprocessed.smi:678|AV-procd|sdf|3318|dock7
  -GOLD-   22720 0283D 1   1.00000     0.00000
 Structure written by MMmdl.
 50 51  0  0  0  0  0  0  0  0  1 V2000
  150.0693  129.7292  154.6886 C   0  0  0  0  0  0  0  0  0  0  0  0
  149.8885  131.2272  154.5156 C   0  0  0  0  0  0  0  0  0  0  0  0
  149.0291  131.7336  153.6047 C   0  0  0  0  0  0  0  0  0  0  0  0
  148.8630  133.1582  153.4477 C   0  0  0  0  0  0  0  0  0  0  0  0
  149.5900  133.9705  154.2278 C   0  0  0  0  0  0  0  0  0  0  0  0
  150.4954  133.4688  155.1811 N   0  0  0  0  0  0  0  0  0  0  0  0
  151.2369  134.4571  155.9828 C   0  0  0  0  0  0  0  0  0  0  0  0
  150.6352  135.8675  155.9113 C   0  0  0  0  0  0  0  0  0  0  0  0
  149.4633  136.0693  156.2327 O   0  0  0  0  0  0  0  0  0  0  0  0
  151.4501  136.8322  155.4574 N   0  0  0  0  0  0  0  0  0  0  0  0
  151.0906  138.2377  155.2934 C   0  0  0  0  0  0  0  0  0  0  0  0
  151.8810  139.1546  156.2441 C   0  0  1  0  0  0  0  0  0  0  0  0
  151.2037  140.5208  156.4905 C   0  0  0  0  0  0  0  0  0  0  0  0
  151.9320  141.3304  157.4644 N   0  0  0  0  0  0  0  0  0  0  0  0
  151.2888  142.6196  157.7247 C   0  0  0  0  0  0  0  0  0  0  0  0
  152.1556  143.6748  158.4460 C   0  0  0  0  0  0  0  0  0  0  0  0
  152.4234  143.2913  159.9105 C   0  0  0  0  0  0  0  0  0  0  0  0
  151.4919  145.0571  158.3650 C   0  0  0  0  0  0  0  0  0  0  0  0
  152.0822  140.5666  158.6971 C   0  0  0  0  0  0  0  0  0  0  0  0
  152.7608  139.2095  158.4521 C   0  0  0  0  0  0  0  0  0  0  0  0
  152.0145  138.4735  157.4890 O   0  0  0  0  0  0  0  0  0  0  0  0
  150.6818  132.1262  155.3748 C   0  0  0  0  0  0  0  0  0  0  0  0
  151.4714  131.7020  156.2208 O   0  0  0  0  0  0  0  0  0  0  0  0
  149.4491  129.1693  153.9877 H   0  0  0  0  0  0  0  0  0  0  0  0
  149.7936  129.4263  155.6991 H   0  0  0  0  0  0  0  0  0  0  0  0
  151.1086  129.4474  154.5164 H   0  0  0  0  0  0  0  0  0  0  0  0
  148.4518  131.0674  152.9803 H   0  0  0  0  0  0  0  0  0  0  0  0
  148.1690  133.5591  152.7237 H   0  0  0  0  0  0  0  0  0  0  0  0
  149.5201  135.0476  154.1794 H   0  0  0  0  0  0  0  0  0  0  0  0
  151.2885  134.1339  157.0243 H   0  0  0  0  0  0  0  0  0  0  0  0
  152.2750  134.5159  155.6526 H   0  0  0  0  0  0  0  0  0  0  0  0
  152.3941  136.5742  155.2085 H   0  0  0  0  0  0  0  0  0  0  0  0
  151.2186  138.5606  154.2587 H   0  0  0  0  0  0  0  0  0  0  0  0
  150.0254  138.3284  155.5078 H   0  0  0  0  0  0  0  0  0  0  0  0
  152.8781  139.3145  155.8291 H   0  0  0  0  0  0  0  0  0  0  0  0
  151.1408  141.0527  155.5427 H   0  0  0  0  0  0  0  0  0  0  0  0
  150.1790  140.3640  156.8312 H   0  0  0  0  0  0  0  0  0  0  0  0
  150.9288  143.0358  156.7824 H   0  0  0  0  0  0  0  0  0  0  0  0
  150.3977  142.4521  158.3316 H   0  0  0  0  0  0  0  0  0  0  0  0
  153.1156  143.7615  157.9377 H   0  0  0  0  0  0  0  0  0  0  0  0
  151.4930  143.1888  160.4699 H   0  0  0  0  0  0  0  0  0  0  0  0
  153.0308  144.0466  160.4097 H   0  0  0  0  0  0  0  0  0  0  0  0
  152.9604  142.3450  159.9808 H   0  0  0  0  0  0  0  0  0  0  0  0
  150.5207  145.0606  158.8607 H   0  0  0  0  0  0  0  0  0  0  0  0
  151.3375  145.3586  157.3284 H   0  0  0  0  0  0  0  0  0  0  0  0
  152.1104  145.8200  158.8390 H   0  0  0  0  0  0  0  0  0  0  0  0
  152.6704  141.1367  159.4170 H   0  0  0  0  0  0  0  0  0  0  0  0
  151.1042  140.4033  159.1530 H   0  0  0  0  0  0  0  0  0  0  0  0
  153.7858  139.3456  158.1040 H   0  0  0  0  0  0  0  0  0  0  0  0
  152.8095  138.6373  159.3785 H   0  0  0  0  0  0  0  0  0  0  0  0
  1  2  1  0  0  0  0
  1 24  1  0  0  0  0
  1 25  1  0  0  0  0
  1 26  1  0  0  0  0
  2 22  1  0  0  0  0
  2  3  2  0  0  0  0
  3  4  1  0  0  0  0
  3 27  1  0  0  0  0
  4  5  2  0  0  0  0
  4 28  1  0  0  0  0
  5  6  1  0  0  0  0
  5 29  1  0  0  0  0
  6  7  1  0  0  0  0
  6 22  1  0  0  0  0
  7  8  1  0  0  0  0
  7 30  1  0  0  0  0
  7 31  1  0  0  0  0
  8  9  2  0  0  0  0
  8 10  1  0  0  0  0
 10 11  1  0  0  0  0
 10 32  1  0  0  0  0
 11 12  1  0  0  0  0
 11 33  1  0  0  0  0
 11 34  1  0  0  0  0
 12 21  1  0  0  0  0
 12 13  1  0  0  0  0
 12 35  1  0  0  0  0
 13 14  1  0  0  0  0
 13 36  1  0  0  0  0
 13 37  1  0  0  0  0
 14 15  1  0  0  0  0
 14 19  1  0  0  0  0
 15 16  1  0  0  0  0
 15 38  1  0  0  0  0
 15 39  1  0  0  0  0
 16 17  1  0  0  0  0
 16 18  1  0  0  0  0
 16 40  1  0  0  0  0
 17 41  1  0  0  0  0
 17 42  1  0  0  0  0
 17 43  1  0  0  0  0
 18 44  1  0  0  0  0
 18 45  1  0  0  0  0
 18 46  1  0  0  0  0
 19 20  1  0  0  0  0
 19 47  1  0  0  0  0
 19 48  1  0  0  0  0
 20 21  1  0  0  0  0
 20 49  1  0  0  0  0
 20 50  1  0  0  0  0
 22 23  2  0  0  0  0
M  END
> <s_m_source_file>
AV-unprocessed.smi

> <i_m_source_file_index>
678

> <i_lp_mmshare_version>
43012

> <i_f3d_flags>
0

> <s_epik_input>
W0NIM11jMVtjSF1bY0hdW2NIXW4oYzE9TylbQ0gyXUMoPU8pW05IXVtDSDJdW0NAQEhdMltDSDJdTihbQ0gyXVtDSDJdTzIpW0NIMl1bQ0hdKFtDSDNdKVtDSDNd

> <s_epik_cmdline>
J2VwaWtfcHl0aG9uJywgJy1waCcsICc3LjAnLCAnLXRuJywgJzgnLCAnLW1hJywgJzIwMCcsICctbWV0YWxfYmluZGluZycsICctaW1hZScsICc8aW5maWxlLm1hZT4nLCAnLW9tYWUnLCAnPG91dGZpbGUubWFlPic=

> <r_lp_tautomer_probability>
1

> <r_epik_Ionization_Penalty>
1.11669

> <r_epik_Ionization_Penalty_Charging>
7.32459e-07

> <r_epik_Ionization_Penalty_Neutral>
1.11669

> <r_epik_State_Penalty>
1.17516

> <r_epik_Charging_Adjusted_Penalty>
1.17516

> <i_epik_Tot_Q>
0

> <i_epik_Tot_abs_Q>
0

> <r_epik_Metal_State_Penalty>
1.17513

> <b_epik_Metal_Only>
0

> <s_lp_Force_Field>
OPLS_2005

> <r_lp_Energy>
33.1266

> <b_lp_Chiralities_Consistent>
1

> <s_lp_Variant>
AV-unprocessed.smi:678-6

> <Gold.Version>
5.8.1

> <Gold.Id.Protein>
6NUR|6NUR_protein|mol2

> <Gold.PLP.Fitness>
44.1133

> <Gold.PLP.PLP>
-43.0470

> <Gold.PLP.part.hbond>
0.0000

> <Gold.PLP.part.metal>
0.0000

> <Gold.PLP.part.buried>
-4.3342

> <Gold.PLP.part.nonpolar>
-38.1504

> <Gold.PLP.part.repulsive>
0.2106

> <Gold.PLP.ligand.clash>
0.2451

> <Gold.PLP.ligand.torsion>
0.5996

> <Gold.PLP.Chemscore.Hbond>
0.0000

> <Gold.PLP.Chemscore.CHOScore>
0.8109

> <Gold.PLP.Chemscore.Metal>
0.0000

> <Gold.Chemscore.Hbonds>
donor molecule, donor type, donor heavy atom, donor atom, acceptor molecule, acceptor atom, score
      L1  C     5    29       P1  7948  0.55

> <Gold.PLP.Chemscore.Internal.Correction>
0.0779

> <Gold.Rescore>
     Score         DG    S(hbond)    S(metal)    S(lipo)     H(rot)  DE(clash)    DE(int)     intcor
     11.82     -13.77       0.00        0.00     110.76       1.82       0.00       1.94       ----

> <Gold.Chemscore.Fitness>
11.8245

> <Gold.Chemscore.DG>
-13.7682

> <Gold.Chemscore.ZeroCoef>
-5.4800

> <Gold.Chemscore.Hbond>
0.0000

> <Gold.Chemscore.Metal>
0.0000

> <Gold.Chemscore.Lipo>
110.7564

> <Gold.Chemscore.Internal_Hbond>
0.0000

> <Gold.Chemscore.DEClash>
0.0000

> <Gold.Chemscore.DEInternal>
1.9437

> <Gold.Chemscore.Rot>
1.8243

> <Gold.Chemscore.Internal.Correction>
   9.000000E+99

> <Gold.Chemscore.Hbond.Weighted>
-0.0000

> <Gold.Chemscore.Metal.Weighted>
-0.0000

> <Gold.Chemscore.Lipo.Weighted>
-12.9585

> <Gold.Chemscore.Internal_Hbond.Weighted>
0.0000

> <Gold.Chemscore.DEClash.Weighted>
0.0000

> <Gold.Chemscore.DEInternal.Weighted>
1.9437

> <Gold.Chemscore.Rot.Weighted>
4.6703

> <Gold.Chemscore.Internal.Correction.Weighted>
   9.000000E+99

> <Gold.Protein.RotatedTorsions>
[ 6907 6896 6895 6894 ] final  -98.98 input  -60.11 | X-H torsion
[ 7974 7965 7964 7962 ] final   -2.90 input  175.53 | X-H torsion
[ 8008 7997 7996 7995 ] final  172.59 input   59.86 | X-H torsion
[ 10167 10162 10161 10158 ] final -112.79 input  -65.29 | X-H torsion
[ 10718 10713 10712 10709 ] final  174.27 input   66.30 | X-H torsion
[ 10763 10752 10751 10750 ] final  137.35 input  -60.55 | X-H torsion
[ 11005 11000 10999 10996 ] final  -81.77 input  -57.11 | X-H torsion

> <Gold.Protein.ActiveResidues>
 VAL166  LYS551  ARG553  GLY616  TRP617  ASP618  TYR619  PRO620  LYS621  CYS622 
 ASP623  PHE694  ASN695  SER759  ASP760  ASP761  ALA762  ILE779  LEU786  VAL792 
 PHE793  MET794  SER795  GLU796  ALA797  LYS798  CYS799  TRP800  GLU811  SER814 

> <Gold.Protein.RotatedAtoms>
  150.7065  134.1110  159.3999 H   0  0  0  0  0  0  0  0  0  0  0  0  # atno 6907 bound_to 6896
  151.9097  135.0342  160.0522 H   0  0  0  0  0  0  0  0  0  0  0  0  # atno 6908 bound_to 6896
  152.2346  133.5050  159.5272 H   0  0  0  0  0  0  0  0  0  0  0  0  # atno 6909 bound_to 6896
  146.2398  140.1640  142.8332 H   0  0  0  0  0  0  0  0  0  0  0  0  # atno 7974 bound_to 7965
  156.1160  140.1482  156.9273 H   0  0  0  0  0  0  0  0  0  0  0  0  # atno 8008 bound_to 7997
  154.4800  140.0882  156.7398 H   0  0  0  0  0  0  0  0  0  0  0  0  # atno 8009 bound_to 7997
  155.4513  140.3435  155.4303 H   0  0  0  0  0  0  0  0  0  0  0  0  # atno 8010 bound_to 7997
  140.1189  143.4461  152.1704 H   0  0  0  0  0  0  0  0  0  0  0  0  # atno 10167 bound_to 10162
  156.9520  131.0034  151.2946 H   0  0  0  0  0  0  0  0  0  0  0  0  # atno 10718 bound_to 10713
  153.8715  135.3055  155.3442 H   0  0  0  0  0  0  0  0  0  0  0  0  # atno 10763 bound_to 10752
  154.7803  135.4839  153.9834 H   0  0  0  0  0  0  0  0  0  0  0  0  # atno 10764 bound_to 10752
  153.1403  135.6822  153.9133 H   0  0  0  0  0  0  0  0  0  0  0  0  # atno 10765 bound_to 10752
  141.1665  133.7212  156.8472 H   0  0  0  0  0  0  0  0  0  0  0  0  # atno 11005 bound_to 11000
  145.0065  140.8678  143.5250 LP  0  0  0  0  0  0  0  0  0  0  0  0  # atno 17320 bound_to 7965
  145.1668  139.2427  143.5363 LP  0  0  0  0  0  0  0  0  0  0  0  0  # atno 17321 bound_to 7965
  139.5579  144.7386  151.4239 LP  0  0  0  0  0  0  0  0  0  0  0  0  # atno 17342 bound_to 10162
  140.6884  143.7921  150.7219 LP  0  0  0  0  0  0  0  0  0  0  0  0  # atno 17343 bound_to 10162
  157.5715  130.8314  149.8398 LP  0  0  0  0  0  0  0  0  0  0  0  0  # atno 17370 bound_to 10713
  156.0359  130.3751  150.1563 LP  0  0  0  0  0  0  0  0  0  0  0  0  # atno 17371 bound_to 10713
  140.1941  134.8944  157.3094 LP  0  0  0  0  0  0  0  0  0  0  0  0  # atno 17394 bound_to 11000
  140.2258  134.3969  155.7544 LP  0  0  0  0  0  0  0  0  0  0  0  0  # atno 17395 bound_to 11000

$$$$
