AV-unprocessed.smi:2114|AV-procd|sdf|8617|dock10
  -GOLD-   2272011363D 1   1.00000     0.00000
 Structure written by MMmdl.
 47 48  0  0  0  0  0  0  0  0  1 V2000
  149.1353  132.4621  153.6461 C   0  0  0  0  0  0  0  0  0  0  0  0
  148.6368  133.2160  154.7371 O   0  0  0  0  0  0  0  0  0  0  0  0
  149.3763  134.4061  154.9592 C   0  0  0  0  0  0  0  0  0  0  0  0
  150.4305  134.1564  156.0486 C   0  0  2  0  0  0  0  0  0  0  0  0
  149.8883  133.2395  157.1572 C   0  0  0  0  0  0  0  0  0  0  0  0
  150.8559  135.4336  156.6144 N   0  0  0  0  0  0  0  0  0  0  0  0
  151.3600  136.4655  155.9183 C   0  0  0  0  0  0  0  0  0  0  0  0
  151.5135  136.4528  154.6968 O   0  0  0  0  0  0  0  0  0  0  0  0
  151.6752  137.6944  156.7208 C   0  0  0  0  0  0  0  0  0  0  0  0
  151.5251  137.7247  158.1245 C   0  0  0  0  0  0  0  0  0  0  0  0
  151.8549  138.9013  158.8241 C   0  0  0  0  0  0  0  0  0  0  0  0
  152.3339  140.0217  158.1051 C   0  0  0  0  0  0  0  0  0  0  0  0
  152.6620  141.2140  158.7861 N   0  0  0  0  0  0  0  0  0  0  0  0
  151.9954  142.4458  158.3693 C   0  0  0  0  0  0  0  0  0  0  0  0
  152.6777  143.6694  159.0082 C   0  0  1  0  0  0  0  0  0  0  0  0
  151.9375  144.9724  158.6901 C   0  0  0  0  0  0  0  0  0  0  0  0
  152.7032  143.5029  160.4229 O   0  0  0  0  0  0  0  0  0  0  0  0
  153.4503  142.3573  160.8229 C   0  0  1  0  0  0  0  0  0  0  0  0
  153.4942  142.3229  162.3542 C   0  0  0  0  0  0  0  0  0  0  0  0
  152.7949  141.0933  160.2354 C   0  0  0  0  0  0  0  0  0  0  0  0
  152.4971  139.9831  156.7598 N   0  0  0  0  0  0  0  0  0  0  0  0
  152.1791  138.8533  156.0931 C   0  0  0  0  0  0  0  0  0  0  0  0
  148.5246  131.5698  153.5082 H   0  0  0  0  0  0  0  0  0  0  0  0
  150.1627  132.1423  153.8257 H   0  0  0  0  0  0  0  0  0  0  0  0
  149.1040  133.0381  152.7204 H   0  0  0  0  0  0  0  0  0  0  0  0
  149.8537  134.7365  154.0348 H   0  0  0  0  0  0  0  0  0  0  0  0
  148.6957  135.1980  155.2761 H   0  0  0  0  0  0  0  0  0  0  0  0
  151.2868  133.6647  155.5830 H   0  0  0  0  0  0  0  0  0  0  0  0
  149.5689  132.2801  156.7497 H   0  0  0  0  0  0  0  0  0  0  0  0
  149.0317  133.6890  157.6605 H   0  0  0  0  0  0  0  0  0  0  0  0
  150.6490  133.0363  157.9117 H   0  0  0  0  0  0  0  0  0  0  0  0
  150.7396  135.5478  157.6107 H   0  0  0  0  0  0  0  0  0  0  0  0
  151.1678  136.8630  158.6696 H   0  0  0  0  0  0  0  0  0  0  0  0
  151.7516  138.9251  159.8986 H   0  0  0  0  0  0  0  0  0  0  0  0
  152.0273  142.5403  157.2828 H   0  0  0  0  0  0  0  0  0  0  0  0
  150.9454  142.4038  158.6630 H   0  0  0  0  0  0  0  0  0  0  0  0
  153.7013  143.7536  158.6389 H   0  0  0  0  0  0  0  0  0  0  0  0
  151.8985  145.1494  157.6150 H   0  0  0  0  0  0  0  0  0  0  0  0
  152.4369  145.8255  159.1496 H   0  0  0  0  0  0  0  0  0  0  0  0
  150.9130  144.9453  159.0626 H   0  0  0  0  0  0  0  0  0  0  0  0
  154.4718  142.4480  160.4492 H   0  0  0  0  0  0  0  0  0  0  0  0
  154.0645  141.4652  162.7114 H   0  0  0  0  0  0  0  0  0  0  0  0
  152.4911  142.2580  162.7768 H   0  0  0  0  0  0  0  0  0  0  0  0
  153.9651  143.2229  162.7503 H   0  0  0  0  0  0  0  0  0  0  0  0
  151.8028  140.9497  160.6657 H   0  0  0  0  0  0  0  0  0  0  0  0
  153.3886  140.2235  160.5135 H   0  0  0  0  0  0  0  0  0  0  0  0
  152.3295  138.8847  155.0236 H   0  0  0  0  0  0  0  0  0  0  0  0
  1  2  1  0  0  0  0
  1 23  1  0  0  0  0
  1 24  1  0  0  0  0
  1 25  1  0  0  0  0
  2  3  1  0  0  0  0
  3  4  1  0  0  0  0
  3 26  1  0  0  0  0
  3 27  1  0  0  0  0
  4  5  1  0  0  0  0
  4  6  1  0  0  0  0
  4 28  1  0  0  0  0
  5 29  1  0  0  0  0
  5 30  1  0  0  0  0
  5 31  1  0  0  0  0
  6  7  1  0  0  0  0
  6 32  1  0  0  0  0
  7  8  2  0  0  0  0
  7  9  1  0  0  0  0
  9 22  1  0  0  0  0
  9 10  2  0  0  0  0
 10 11  1  0  0  0  0
 10 33  1  0  0  0  0
 11 12  2  0  0  0  0
 11 34  1  0  0  0  0
 12 13  1  0  0  0  0
 12 21  1  0  0  0  0
 13 20  1  0  0  0  0
 13 14  1  0  0  0  0
 14 15  1  0  0  0  0
 14 35  1  0  0  0  0
 14 36  1  0  0  0  0
 15 16  1  0  0  0  0
 15 17  1  0  0  0  0
 15 37  1  0  0  0  0
 16 38  1  0  0  0  0
 16 39  1  0  0  0  0
 16 40  1  0  0  0  0
 17 18  1  0  0  0  0
 18 19  1  0  0  0  0
 18 20  1  0  0  0  0
 18 41  1  0  0  0  0
 19 42  1  0  0  0  0
 19 43  1  0  0  0  0
 19 44  1  0  0  0  0
 20 45  1  0  0  0  0
 20 46  1  0  0  0  0
 21 22  2  0  0  0  0
 22 47  1  0  0  0  0
M  END
> <s_m_source_file>
AV-unprocessed.smi

> <i_m_source_file_index>
2114

> <i_lp_mmshare_version>
43012

> <i_f3d_flags>
0

> <s_epik_input>
W0NIM11PW0NIMl1bQ0BIXShbQ0gzXSlbTkhdQyg9TyljMVtjSF1bY0hdYyhuW2NIXTEpTjJbQ0gyXVtDQEBIXShbQ0gzXSlPW0NAQEhdKFtDSDNdKVtDSDJdMg==

> <s_epik_cmdline>
J2VwaWtfcHl0aG9uJywgJy1waCcsICc3LjAnLCAnLXRuJywgJzgnLCAnLW1hJywgJzIwMCcsICctbWV0YWxfYmluZGluZycsICctaW1hZScsICc8aW5maWxlLm1hZT4nLCAnLW9tYWUnLCAnPG91dGZpbGUubWFlPic=

> <r_lp_tautomer_probability>
1

> <r_epik_Ionization_Penalty>
1.92915e-05

> <r_epik_Ionization_Penalty_Charging>
0

> <r_epik_Ionization_Penalty_Neutral>
1.92915e-05

> <r_epik_State_Penalty>
-0

> <r_epik_Charging_Adjusted_Penalty>
0

> <i_epik_Tot_Q>
0

> <i_epik_Tot_abs_Q>
0

> <r_epik_Metal_State_Penalty>
-0

> <b_epik_Metal_Only>
0

> <s_lp_Force_Field>
OPLS_2005

> <r_lp_Energy>
18.4653

> <b_lp_Chiralities_Consistent>
1

> <s_lp_Variant>
AV-unprocessed.smi:2114-1

> <Gold.Version>
5.8.1

> <Gold.Id.Protein>
6NUR|6NUR_protein|mol2

> <Gold.PLP.Fitness>
45.3327

> <Gold.PLP.PLP>
-40.3134

> <Gold.PLP.part.hbond>
-2.0000

> <Gold.PLP.part.metal>
0.0000

> <Gold.PLP.part.buried>
-6.1205

> <Gold.PLP.part.nonpolar>
-32.5042

> <Gold.PLP.part.repulsive>
0.3760

> <Gold.PLP.ligand.clash>
0.0000

> <Gold.PLP.ligand.torsion>
0.6594

> <Gold.PLP.Chemscore.Hbond>
2.0000

> <Gold.PLP.Chemscore.CHOScore>
0.0000

> <Gold.PLP.Chemscore.Metal>
0.0000

> <Gold.Chemscore.Hbonds>
donor molecule, donor type, donor heavy atom, donor atom, acceptor molecule, acceptor atom, score
      P1  H  7997  8008       L1    21  1.00
      P1  H 10752 10763       L1     8  1.00

> <Gold.PLP.Chemscore.Internal.Correction>
0.3382

> <Gold.Rescore>
     Score         DG    S(hbond)    S(metal)    S(lipo)     H(rot)  DE(clash)    DE(int)     intcor
     18.86     -19.72       1.84        0.00     102.52       1.52       0.05       0.81       ----

> <Gold.Chemscore.Fitness>
18.8617

> <Gold.Chemscore.DG>
-19.7203

> <Gold.Chemscore.ZeroCoef>
-5.4800

> <Gold.Chemscore.Hbond>
1.8392

> <Gold.Chemscore.Metal>
0.0000

> <Gold.Chemscore.Lipo>
102.5234

> <Gold.Chemscore.Internal_Hbond>
0.0000

> <Gold.Chemscore.DEClash>
0.0473

> <Gold.Chemscore.DEInternal>
0.8113

> <Gold.Chemscore.Rot>
1.5226

> <Gold.Chemscore.Internal.Correction>
   9.000000E+99

> <Gold.Chemscore.Hbonds>
donor molecule, donor type, donor heavy atom, donor atom, acceptor molecule, acceptor atom, score
      P1  H  7997  8008       L1    21  0.20
      P1  H 10752 10763       L1     8  0.40

> <Gold.Chemscore.Hbond.Weighted>
-6.1430

> <Gold.Chemscore.Metal.Weighted>
-0.0000

> <Gold.Chemscore.Lipo.Weighted>
-11.9952

> <Gold.Chemscore.Internal_Hbond.Weighted>
0.0000

> <Gold.Chemscore.DEClash.Weighted>
0.0473

> <Gold.Chemscore.DEInternal.Weighted>
0.8113

> <Gold.Chemscore.Rot.Weighted>
3.8980

> <Gold.Chemscore.Internal.Correction.Weighted>
   9.000000E+99

> <Gold.Protein.RotatedTorsions>
[ 6907 6896 6895 6894 ] final  -79.62 input  -60.11 | X-H torsion
[ 7974 7965 7964 7962 ] final -123.39 input  175.53 | X-H torsion
[ 8008 7997 7996 7995 ] final  -51.13 input   59.86 | X-H torsion
[ 10167 10162 10161 10158 ] final -138.41 input  -65.29 | X-H torsion
[ 10718 10713 10712 10709 ] final  -36.94 input   66.30 | X-H torsion
[ 10763 10752 10751 10750 ] final   54.98 input  -60.55 | X-H torsion
[ 11005 11000 10999 10996 ] final  138.98 input  -57.11 | X-H torsion

> <Gold.Protein.ActiveResidues>
 VAL166  LYS551  ARG553  GLY616  TRP617  ASP618  TYR619  PRO620  LYS621  CYS622 
 ASP623  PHE694  ASN695  SER759  ASP760  ASP761  ALA762  ILE779  LEU786  VAL792 
 PHE793  MET794  SER795  GLU796  ALA797  LYS798  CYS799  TRP800  GLU811  SER814 

> <Gold.Protein.RotatedAtoms>
  150.6946  134.4094  159.5154 H   0  0  0  0  0  0  0  0  0  0  0  0  # atno 6907 bound_to 6896
  152.1855  134.8715  160.0531 H   0  0  0  0  0  0  0  0  0  0  0  0  # atno 6908 bound_to 6896
  151.9689  133.3684  159.4100 H   0  0  0  0  0  0  0  0  0  0  0  0  # atno 6909 bound_to 6896
  145.0192  140.7973  143.4391 H   0  0  0  0  0  0  0  0  0  0  0  0  # atno 7974 bound_to 7965
  154.4076  140.1255  156.4779 H   0  0  0  0  0  0  0  0  0  0  0  0  # atno 8008 bound_to 7997
  155.7115  140.3494  155.4956 H   0  0  0  0  0  0  0  0  0  0  0  0  # atno 8009 bound_to 7997
  155.9296  140.1067  157.1132 H   0  0  0  0  0  0  0  0  0  0  0  0  # atno 8010 bound_to 7997
  139.8481  143.7234  152.2659 H   0  0  0  0  0  0  0  0  0  0  0  0  # atno 10167 bound_to 10162
  156.3210  130.4265  149.7960 H   0  0  0  0  0  0  0  0  0  0  0  0  # atno 10718 bound_to 10713
  152.9811  135.5726  154.4993 H   0  0  0  0  0  0  0  0  0  0  0  0  # atno 10763 bound_to 10752
  154.4515  135.2778  155.1780 H   0  0  0  0  0  0  0  0  0  0  0  0  # atno 10764 bound_to 10752
  154.3406  135.6230  153.5648 H   0  0  0  0  0  0  0  0  0  0  0  0  # atno 10765 bound_to 10752
  140.0222  134.9391  157.0497 H   0  0  0  0  0  0  0  0  0  0  0  0  # atno 11005 bound_to 11000
  145.1919  139.2297  143.5238 LP  0  0  0  0  0  0  0  0  0  0  0  0  # atno 17320 bound_to 7965
  146.3483  140.1717  142.8589 LP  0  0  0  0  0  0  0  0  0  0  0  0  # atno 17321 bound_to 7965
  139.7492  144.7539  151.0532 LP  0  0  0  0  0  0  0  0  0  0  0  0  # atno 17342 bound_to 10162
  140.7791  143.4880  150.9931 LP  0  0  0  0  0  0  0  0  0  0  0  0  # atno 17343 bound_to 10162
  156.5268  130.8240  151.3223 LP  0  0  0  0  0  0  0  0  0  0  0  0  # atno 17370 bound_to 10713
  157.7412  130.9864  150.2427 LP  0  0  0  0  0  0  0  0  0  0  0  0  # atno 17371 bound_to 10713
  140.4368  134.1723  155.7171 LP  0  0  0  0  0  0  0  0  0  0  0  0  # atno 17394 bound_to 11000
  141.1781  133.8472  157.1353 LP  0  0  0  0  0  0  0  0  0  0  0  0  # atno 17395 bound_to 11000

$$$$
