AV-unprocessed.smi:1957|AV-procd|sdf|7904|dock3
  -GOLD-   2272010 63D 1   1.00000     0.00000
 Structure written by MMmdl.
 42 43  0  0  0  0  0  0  0  0  1 V2000
  150.8051  140.6279  155.9253 C   0  0  0  0  0  0  0  0  0  0  0  0
  150.6448  139.8405  154.7589 O   0  0  0  0  0  0  0  0  0  0  0  0
  149.9891  138.6097  155.0188 C   0  0  0  0  0  0  0  0  0  0  0  0
  150.8591  137.4502  154.5072 C   0  0  0  0  0  0  0  0  0  0  0  0
  150.4847  136.1734  155.1253 N   0  0  0  0  0  0  0  0  0  0  0  0
  149.3431  135.6030  154.5890 N   0  0  0  0  0  0  0  0  0  0  0  0
  148.9122  134.4670  155.0334 C   0  0  0  0  0  0  0  0  0  0  0  0
  147.6928  133.8192  154.4766 C   0  0  0  0  0  0  0  0  0  0  0  0
  147.0520  132.9804  155.1124 O   0  0  0  0  0  0  0  0  0  0  0  0
  147.3501  134.2154  153.2374 N   0  0  0  0  0  0  0  0  0  0  0  0
  146.1895  133.7558  152.4758 C   0  0  2  0  0  0  0  0  0  0  0  0
  146.5993  132.6504  151.4682 C   0  0  0  0  0  0  0  0  0  0  0  0
  145.7047  132.5025  150.2197 C   0  0  0  0  0  0  0  0  0  0  0  0
  144.2006  132.3058  150.4986 C   0  0  0  0  0  0  0  0  0  0  0  0
  143.5157  133.3669  151.3923 C   0  0  0  0  0  0  0  0  0  0  0  0
  144.1711  134.6739  151.3830 N   0  0  0  0  0  0  0  0  0  0  0  0
  145.3923  134.9334  151.8812 C   0  0  0  0  0  0  0  0  0  0  0  0
  145.8710  136.0664  151.8483 O   0  0  0  0  0  0  0  0  0  0  0  0
  149.6097  133.7737  156.1032 C   0  0  0  0  0  0  0  0  0  0  0  0
  150.7232  134.3419  156.6160 C   0  0  0  0  0  0  0  0  0  0  0  0
  151.2362  135.6223  156.1255 C   0  0  0  0  0  0  0  0  0  0  0  0
  152.2538  136.1539  156.5687 O   0  0  0  0  0  0  0  0  0  0  0  0
  151.3054  141.5619  155.6697 H   0  0  0  0  0  0  0  0  0  0  0  0
  151.4145  140.1118  156.6684 H   0  0  0  0  0  0  0  0  0  0  0  0
  149.8407  140.8735  156.3716 H   0  0  0  0  0  0  0  0  0  0  0  0
  149.7885  138.5001  156.0858 H   0  0  0  0  0  0  0  0  0  0  0  0
  149.0267  138.5956  154.5056 H   0  0  0  0  0  0  0  0  0  0  0  0
  150.7734  137.3776  153.4216 H   0  0  0  0  0  0  0  0  0  0  0  0
  151.9109  137.6705  154.6986 H   0  0  0  0  0  0  0  0  0  0  0  0
  147.9310  134.9109  152.7904 H   0  0  0  0  0  0  0  0  0  0  0  0
  145.5175  133.2996  153.2040 H   0  0  0  0  0  0  0  0  0  0  0  0
  147.6156  132.8391  151.1193 H   0  0  0  0  0  0  0  0  0  0  0  0
  146.6437  131.6950  151.9925 H   0  0  0  0  0  0  0  0  0  0  0  0
  145.8403  133.3704  149.5731 H   0  0  0  0  0  0  0  0  0  0  0  0
  146.0637  131.6567  149.6327 H   0  0  0  0  0  0  0  0  0  0  0  0
  143.6890  132.2866  149.5356 H   0  0  0  0  0  0  0  0  0  0  0  0
  144.0365  131.3198  150.9342 H   0  0  0  0  0  0  0  0  0  0  0  0
  142.4816  133.4986  151.0728 H   0  0  0  0  0  0  0  0  0  0  0  0
  143.4534  133.0061  152.4195 H   0  0  0  0  0  0  0  0  0  0  0  0
  143.6532  135.4421  150.9814 H   0  0  0  0  0  0  0  0  0  0  0  0
  149.2536  132.8274  156.4840 H   0  0  0  0  0  0  0  0  0  0  0  0
  151.2523  133.8377  157.4114 H   0  0  0  0  0  0  0  0  0  0  0  0
  1  2  1  0  0  0  0
  1 23  1  0  0  0  0
  1 24  1  0  0  0  0
  1 25  1  0  0  0  0
  2  3  1  0  0  0  0
  3  4  1  0  0  0  0
  3 26  1  0  0  0  0
  3 27  1  0  0  0  0
  4  5  1  0  0  0  0
  4 28  1  0  0  0  0
  4 29  1  0  0  0  0
  5 21  1  0  0  0  0
  5  6  1  0  0  0  0
  6  7  2  0  0  0  0
  7  8  1  0  0  0  0
  7 19  1  0  0  0  0
  8  9  2  0  0  0  0
  8 10  1  0  0  0  0
 10 11  1  0  0  0  0
 10 30  1  0  0  0  0
 11 17  1  0  0  0  0
 11 12  1  0  0  0  0
 11 31  1  0  0  0  0
 12 13  1  0  0  0  0
 12 32  1  0  0  0  0
 12 33  1  0  0  0  0
 13 14  1  0  0  0  0
 13 34  1  0  0  0  0
 13 35  1  0  0  0  0
 14 15  1  0  0  0  0
 14 36  1  0  0  0  0
 14 37  1  0  0  0  0
 15 16  1  0  0  0  0
 15 38  1  0  0  0  0
 15 39  1  0  0  0  0
 16 17  1  0  0  0  0
 16 40  1  0  0  0  0
 17 18  2  0  0  0  0
 19 20  2  0  0  0  0
 19 41  1  0  0  0  0
 20 21  1  0  0  0  0
 20 42  1  0  0  0  0
 21 22  2  0  0  0  0
M  END
> <s_m_source_file>
AV-unprocessed.smi

> <i_m_source_file_index>
1957

> <i_lp_mmshare_version>
43012

> <i_f3d_flags>
0

> <s_epik_input>
W0NIM11PW0NIMl1bQ0gyXW4xbmMoW2NIXVtjSF1jMT1PKUMoPU8pW05IXVtDQEBIXTJbQ0gyXVtDSDJdW0NIMl1bQ0gyXVtOSF1DMj1P

> <s_epik_cmdline>
J2VwaWtfcHl0aG9uJywgJy1waCcsICc3LjAnLCAnLXRuJywgJzgnLCAnLW1hJywgJzIwMCcsICctbWV0YWxfYmluZGluZycsICctaW1hZScsICc8aW5maWxlLm1hZT4nLCAnLW9tYWUnLCAnPG91dGZpbGUubWFlPic=

> <r_lp_tautomer_probability>
1

> <r_epik_Ionization_Penalty>
2.17512e-06

> <r_epik_Ionization_Penalty_Charging>
5.0222e-09

> <r_epik_Ionization_Penalty_Neutral>
2.1701e-06

> <r_epik_State_Penalty>
-0

> <r_epik_Charging_Adjusted_Penalty>
5.0222e-09

> <i_epik_Tot_Q>
0

> <i_epik_Tot_abs_Q>
0

> <r_epik_Metal_State_Penalty>
-0

> <b_epik_Metal_Only>
0

> <s_lp_Force_Field>
OPLS_2005

> <r_lp_Energy>
35.215

> <b_lp_Chiralities_Consistent>
1

> <s_lp_Variant>
AV-unprocessed.smi:1957-1

> <Gold.Version>
5.8.1

> <Gold.Id.Protein>
6NUR|6NUR_protein|mol2

> <Gold.PLP.Fitness>
38.2141

> <Gold.PLP.PLP>
-31.4842

> <Gold.PLP.part.hbond>
-3.0000

> <Gold.PLP.part.metal>
0.0000

> <Gold.PLP.part.buried>
-4.4589

> <Gold.PLP.part.nonpolar>
-27.4543

> <Gold.PLP.part.repulsive>
3.3562

> <Gold.PLP.ligand.clash>
0.0000

> <Gold.PLP.ligand.torsion>
1.1073

> <Gold.PLP.Chemscore.Hbond>
2.9500

> <Gold.PLP.Chemscore.CHOScore>
0.0000

> <Gold.PLP.Chemscore.Metal>
0.0000

> <Gold.Chemscore.Hbonds>
donor molecule, donor type, donor heavy atom, donor atom, acceptor molecule, acceptor atom, score
      L1  H    10    30       P1  7948  1.00
      P1  H  7989  7998       L1     2  1.00
      P1  H 10752 10763       L1    22  0.90

> <Gold.PLP.Chemscore.Internal.Correction>
0.0945

> <Gold.Rescore>
     Score         DG    S(hbond)    S(metal)    S(lipo)     H(rot)  DE(clash)    DE(int)     intcor
     13.08     -15.81       2.07        0.00      68.19       1.78       1.47       1.26       ----

> <Gold.Chemscore.Fitness>
13.0804

> <Gold.Chemscore.DG>
-15.8074

> <Gold.Chemscore.ZeroCoef>
-5.4800

> <Gold.Chemscore.Hbond>
2.0670

> <Gold.Chemscore.Metal>
0.0000

> <Gold.Chemscore.Lipo>
68.1894

> <Gold.Chemscore.Internal_Hbond>
0.0000

> <Gold.Chemscore.DEClash>
1.4659

> <Gold.Chemscore.DEInternal>
1.2611

> <Gold.Chemscore.Rot>
1.7791

> <Gold.Chemscore.Internal.Correction>
   9.000000E+99

> <Gold.Chemscore.Hbonds>
donor molecule, donor type, donor heavy atom, donor atom, acceptor molecule, acceptor atom, score
      L1  H    10    30       P1  7948  0.93
      P1  H  7989  7998       L1     2  0.30
      P1  H 10752 10763       L1    22  0.17

> <Gold.Chemscore.Hbond.Weighted>
-6.9036

> <Gold.Chemscore.Metal.Weighted>
-0.0000

> <Gold.Chemscore.Lipo.Weighted>
-7.9782

> <Gold.Chemscore.Internal_Hbond.Weighted>
0.0000

> <Gold.Chemscore.DEClash.Weighted>
1.4659

> <Gold.Chemscore.DEInternal.Weighted>
1.2611

> <Gold.Chemscore.Rot.Weighted>
4.5544

> <Gold.Chemscore.Internal.Correction.Weighted>
   9.000000E+99

> <Gold.Protein.RotatedTorsions>
[ 6907 6896 6895 6894 ] final -159.99 input  -60.11 | X-H torsion
[ 7974 7965 7964 7962 ] final  102.73 input  175.53 | X-H torsion
[ 8008 7997 7996 7995 ] final  126.31 input   59.86 | X-H torsion
[ 10167 10162 10161 10158 ] final  -58.47 input  -65.29 | X-H torsion
[ 10718 10713 10712 10709 ] final  172.38 input   66.30 | X-H torsion
[ 10763 10752 10751 10750 ] final  117.47 input  -60.55 | X-H torsion
[ 11005 11000 10999 10996 ] final  -10.05 input  -57.11 | X-H torsion

> <Gold.Protein.ActiveResidues>
 VAL166  LYS551  ARG553  GLY616  TRP617  ASP618  TYR619  PRO620  LYS621  CYS622 
 ASP623  PHE694  ASN695  SER759  ASP760  ASP761  ALA762  ILE779  LEU786  VAL792 
 PHE793  MET794  SER795  GLU796  ALA797  LYS798  CYS799  TRP800  GLU811  SER814 

> <Gold.Protein.RotatedAtoms>
  151.3421  133.3958  159.2671 H   0  0  0  0  0  0  0  0  0  0  0  0  # atno 6907 bound_to 6896
  150.9869  134.9213  159.7887 H   0  0  0  0  0  0  0  0  0  0  0  0  # atno 6908 bound_to 6896
  152.5235  134.3386  159.9261 H   0  0  0  0  0  0  0  0  0  0  0  0  # atno 6909 bound_to 6896
  145.3552  139.2430  143.3536 H   0  0  0  0  0  0  0  0  0  0  0  0  # atno 7974 bound_to 7965
  156.2860  140.2696  156.2090 H   0  0  0  0  0  0  0  0  0  0  0  0  # atno 8008 bound_to 7997
  155.0283  140.0386  157.2482 H   0  0  0  0  0  0  0  0  0  0  0  0  # atno 8009 bound_to 7997
  154.7376  140.2719  155.6406 H   0  0  0  0  0  0  0  0  0  0  0  0  # atno 8010 bound_to 7997
  140.6195  143.2414  151.5514 H   0  0  0  0  0  0  0  0  0  0  0  0  # atno 10167 bound_to 10162
  156.9797  131.0115  151.2884 H   0  0  0  0  0  0  0  0  0  0  0  0  # atno 10718 bound_to 10713
  153.5529  135.3536  155.2767 H   0  0  0  0  0  0  0  0  0  0  0  0  # atno 10763 bound_to 10752
  154.8704  135.4118  154.2917 H   0  0  0  0  0  0  0  0  0  0  0  0  # atno 10764 bound_to 10752
  153.3647  135.7061  153.6753 H   0  0  0  0  0  0  0  0  0  0  0  0  # atno 10765 bound_to 10752
  140.7407  133.8673  155.8965 H   0  0  0  0  0  0  0  0  0  0  0  0  # atno 11005 bound_to 11000
  146.2951  140.4175  142.8725 LP  0  0  0  0  0  0  0  0  0  0  0  0  # atno 17320 bound_to 7965
  144.8688  140.7243  143.6060 LP  0  0  0  0  0  0  0  0  0  0  0  0  # atno 17321 bound_to 7965
  139.5427  144.2605  152.1382 LP  0  0  0  0  0  0  0  0  0  0  0  0  # atno 17342 bound_to 10162
  140.1821  144.4834  150.6522 LP  0  0  0  0  0  0  0  0  0  0  0  0  # atno 17343 bound_to 10162
  157.5535  130.8198  149.8174 LP  0  0  0  0  0  0  0  0  0  0  0  0  # atno 17370 bound_to 10713
  156.0249  130.3783  150.1852 LP  0  0  0  0  0  0  0  0  0  0  0  0  # atno 17371 bound_to 10713
  140.9839  134.1368  157.4469 LP  0  0  0  0  0  0  0  0  0  0  0  0  # atno 17394 bound_to 11000
  139.8807  135.0019  156.6096 LP  0  0  0  0  0  0  0  0  0  0  0  0  # atno 17395 bound_to 11000

$$$$
