AV-unprocessed.smi:263|AV-procd|sdf|2005|dock9
  -GOLD-   2262021203D 1   1.00000     0.00000
 Structure written by MMmdl.
 57 61  0  0  0  0  0  0  0  0  1 V2000
  150.1989  142.2634  158.8787 O   0  0  0  0  0  0  0  0  0  0  0  0
  151.3717  142.5216  158.1262 C   0  0  0  0  0  0  0  0  0  0  0  0
  150.9457  142.8249  156.6678 C   0  0  0  0  0  0  0  0  0  0  0  0
  149.9640  141.8952  156.1304 N   0  0  0  0  0  0  0  0  0  0  0  0
  148.5971  141.9636  156.2791 C   0  0  0  0  0  0  0  0  0  0  0  0
  147.9258  141.0049  155.7022 N   0  0  0  0  0  0  0  0  0  0  0  0
  148.9024  140.2229  155.0963 C   0  0  0  0  0  0  0  0  0  0  0  0
  148.8755  139.0355  154.3116 C   0  0  0  0  0  0  0  0  0  0  0  0
  147.7212  138.4084  153.9710 N   0  0  0  0  0  0  0  0  0  0  0  0
  147.0624  137.7086  155.0719 C   0  0  0  0  0  0  0  0  0  0  0  0
  146.0328  136.6952  154.5429 C   0  0  0  0  0  0  0  0  0  0  0  0
  145.0270  137.3426  153.5615 C   0  0  2  0  0  0  0  0  0  0  0  0
  144.2305  138.2472  154.3061 O   0  0  0  0  0  0  0  0  0  0  0  0
  144.0439  136.3140  152.9541 C   0  0  0  0  0  0  0  0  0  0  0  0
  144.7018  135.3972  151.9098 C   0  0  0  0  0  0  0  0  0  0  0  0
  145.3874  136.2173  150.8086 C   0  0  0  0  0  0  0  0  0  0  0  0
  146.4112  137.1951  151.4027 C   0  0  0  0  0  0  0  0  0  0  0  0
  145.7712  138.1339  152.4498 C   0  0  2  0  0  0  0  0  0  0  0  0
  146.8183  139.0986  153.0478 C   0  0  0  0  0  0  0  0  0  0  0  0
  150.0699  138.5339  153.8964 N   0  0  0  0  0  0  0  0  0  0  0  0
  151.2101  139.1541  154.2138 C   0  0  0  0  0  0  0  0  0  0  0  0
  151.3836  140.2682  154.9270 N   0  0  0  0  0  0  0  0  0  0  0  0
  150.1907  140.7697  155.3576 C   0  0  0  0  0  0  0  0  0  0  0  0
  152.1185  143.7014  158.7858 C   0  0  0  0  0  0  0  0  0  0  0  0
  152.7177  143.3166  160.1502 C   0  0  0  0  0  0  0  0  0  0  0  0
  153.5606  142.1793  160.0121 O   0  0  0  0  0  0  0  0  0  0  0  0
  152.8543  141.0245  159.5753 C   0  0  0  0  0  0  0  0  0  0  0  0
  152.2668  141.2668  158.1736 C   0  0  0  0  0  0  0  0  0  0  0  0
  150.3856  142.4200  159.7918 H   0  0  0  0  0  0  0  0  0  0  0  0
  150.5224  143.8285  156.6061 H   0  0  0  0  0  0  0  0  0  0  0  0
  151.8154  142.8239  156.0090 H   0  0  0  0  0  0  0  0  0  0  0  0
  148.1105  142.7484  156.8399 H   0  0  0  0  0  0  0  0  0  0  0  0
  147.7821  137.1891  155.7032 H   0  0  0  0  0  0  0  0  0  0  0  0
  146.5702  138.4454  155.7079 H   0  0  0  0  0  0  0  0  0  0  0  0
  146.5723  135.8875  154.0487 H   0  0  0  0  0  0  0  0  0  0  0  0
  145.5058  136.2346  155.3794 H   0  0  0  0  0  0  0  0  0  0  0  0
  143.7409  138.7837  153.7017 H   0  0  0  0  0  0  0  0  0  0  0  0
  143.5918  135.7110  153.7428 H   0  0  0  0  0  0  0  0  0  0  0  0
  143.2205  136.8418  152.4699 H   0  0  0  0  0  0  0  0  0  0  0  0
  145.4282  134.7405  152.3885 H   0  0  0  0  0  0  0  0  0  0  0  0
  143.9482  134.7450  151.4676 H   0  0  0  0  0  0  0  0  0  0  0  0
  145.8796  135.5497  150.1008 H   0  0  0  0  0  0  0  0  0  0  0  0
  144.6374  136.7704  150.2418 H   0  0  0  0  0  0  0  0  0  0  0  0
  147.2293  136.6302  151.8506 H   0  0  0  0  0  0  0  0  0  0  0  0
  146.8554  137.7850  150.6004 H   0  0  0  0  0  0  0  0  0  0  0  0
  145.0381  138.7395  151.9146 H   0  0  0  0  0  0  0  0  0  0  0  0
  146.3142  139.9031  153.5853 H   0  0  0  0  0  0  0  0  0  0  0  0
  147.3864  139.5654  152.2418 H   0  0  0  0  0  0  0  0  0  0  0  0
  152.1124  138.6910  153.8429 H   0  0  0  0  0  0  0  0  0  0  0  0
  152.9270  144.0273  158.1302 H   0  0  0  0  0  0  0  0  0  0  0  0
  151.4573  144.5601  158.9091 H   0  0  0  0  0  0  0  0  0  0  0  0
  153.3084  144.1445  160.5429 H   0  0  0  0  0  0  0  0  0  0  0  0
  151.9328  143.1160  160.8809 H   0  0  0  0  0  0  0  0  0  0  0  0
  153.5450  140.1815  159.5479 H   0  0  0  0  0  0  0  0  0  0  0  0
  152.0728  140.7672  160.2919 H   0  0  0  0  0  0  0  0  0  0  0  0
  151.7132  140.3873  157.8425 H   0  0  0  0  0  0  0  0  0  0  0  0
  153.0937  141.3873  157.4723 H   0  0  0  0  0  0  0  0  0  0  0  0
  1  2  1  0  0  0  0
  1 29  1  0  0  0  0
  2 28  1  0  0  0  0
  2  3  1  0  0  0  0
  2 24  1  0  0  0  0
  3  4  1  0  0  0  0
  3 30  1  0  0  0  0
  3 31  1  0  0  0  0
  4 23  1  0  0  0  0
  4  5  1  0  0  0  0
  5  6  2  0  0  0  0
  5 32  1  0  0  0  0
  6  7  1  0  0  0  0
  7 23  2  0  0  0  0
  7  8  1  0  0  0  0
  8  9  1  0  0  0  0
  8 20  2  0  0  0  0
  9 19  1  0  0  0  0
  9 10  1  0  0  0  0
 10 11  1  0  0  0  0
 10 33  1  0  0  0  0
 10 34  1  0  0  0  0
 11 12  1  0  0  0  0
 11 35  1  0  0  0  0
 11 36  1  0  0  0  0
 12 18  1  0  0  0  0
 12 13  1  0  0  0  0
 12 14  1  0  0  0  0
 13 37  1  0  0  0  0
 14 15  1  0  0  0  0
 14 38  1  0  0  0  0
 14 39  1  0  0  0  0
 15 16  1  0  0  0  0
 15 40  1  0  0  0  0
 15 41  1  0  0  0  0
 16 17  1  0  0  0  0
 16 42  1  0  0  0  0
 16 43  1  0  0  0  0
 17 18  1  0  0  0  0
 17 44  1  0  0  0  0
 17 45  1  0  0  0  0
 18 19  1  0  0  0  0
 18 46  1  0  0  0  0
 19 47  1  0  0  0  0
 19 48  1  0  0  0  0
 20 21  1  0  0  0  0
 21 22  2  0  0  0  0
 21 49  1  0  0  0  0
 22 23  1  0  0  0  0
 24 25  1  0  0  0  0
 24 50  1  0  0  0  0
 24 51  1  0  0  0  0
 25 26  1  0  0  0  0
 25 52  1  0  0  0  0
 25 53  1  0  0  0  0
 26 27  1  0  0  0  0
 27 28  1  0  0  0  0
 27 54  1  0  0  0  0
 27 55  1  0  0  0  0
 28 56  1  0  0  0  0
 28 57  1  0  0  0  0
M  END
> <s_m_source_file>
AV-unprocessed.smi

> <i_m_source_file_index>
263

> <i_lp_mmshare_version>
43012

> <i_f3d_flags>
0

> <s_epik_input>
W0NIMl0xW0NIMl1PW0NIMl1bQ0gyXUMxKFtPSF0pW0NIMl1uKFtjSF1uMiljKGMyMyluW2NIXW5jM04oW0NIMl1bQ0gyXTQpW0NIMl1bQ0BASF0oW0NAXTQ1W09IXSlbQ0gyXVtDSDJdW0NIMl1bQ0gyXTU=

> <s_epik_cmdline>
J2VwaWtfcHl0aG9uJywgJy1waCcsICc3LjAnLCAnLXRuJywgJzgnLCAnLW1hJywgJzIwMCcsICctbWV0YWxfYmluZGluZycsICctaW1hZScsICc8aW5maWxlLm1hZT4nLCAnLW9tYWUnLCAnPG91dGZpbGUubWFlPic=

> <r_lp_tautomer_probability>
1

> <r_epik_Ionization_Penalty>
0.00747493

> <r_epik_Ionization_Penalty_Charging>
0

> <r_epik_Ionization_Penalty_Neutral>
0.00747493

> <r_epik_State_Penalty>
0.00549307

> <r_epik_Charging_Adjusted_Penalty>
0.00549307

> <i_epik_Tot_Q>
0

> <i_epik_Tot_abs_Q>
0

> <r_epik_Metal_State_Penalty>
-0

> <b_epik_Metal_Only>
0

> <s_lp_Force_Field>
OPLS_2005

> <r_lp_Energy>
40.0447

> <b_lp_Chiralities_Consistent>
1

> <s_lp_Variant>
AV-unprocessed.smi:263-3

> <Gold.Version>
5.8.1

> <Gold.Id.Protein>
6NUR|6NUR_protein|mol2

> <Gold.PLP.Fitness>
46.7612

> <Gold.PLP.PLP>
-41.3405

> <Gold.PLP.part.hbond>
-1.8398

> <Gold.PLP.part.metal>
0.0000

> <Gold.PLP.part.buried>
-0.0996

> <Gold.PLP.part.nonpolar>
-40.6828

> <Gold.PLP.part.repulsive>
0.6100

> <Gold.PLP.ligand.clash>
0.0000

> <Gold.PLP.ligand.torsion>
0.6805

> <Gold.PLP.Chemscore.Hbond>
1.2975

> <Gold.PLP.Chemscore.CHOScore>
0.8379

> <Gold.PLP.Chemscore.Metal>
0.0000

> <Gold.Chemscore.Hbonds>
donor molecule, donor type, donor heavy atom, donor atom, acceptor molecule, acceptor atom, score
      L1  H    13    37       P1 10175  0.90
      P1  H  7989  7998       L1    22  0.10
      L1  C     5    32       P1  8028  0.44

> <Gold.PLP.Chemscore.Internal.Correction>
0.3754

> <Gold.Rescore>
     Score         DG    S(hbond)    S(metal)    S(lipo)     H(rot)  DE(clash)    DE(int)     intcor
     10.47     -14.45       0.94        0.00     107.18       2.62       3.25       0.73       ----

> <Gold.Chemscore.Fitness>
10.4704

> <Gold.Chemscore.DG>
-14.4506

> <Gold.Chemscore.ZeroCoef>
-5.4800

> <Gold.Chemscore.Hbond>
0.9421

> <Gold.Chemscore.Metal>
0.0000

> <Gold.Chemscore.Lipo>
107.1764

> <Gold.Chemscore.Internal_Hbond>
0.0000

> <Gold.Chemscore.DEClash>
3.2516

> <Gold.Chemscore.DEInternal>
0.7287

> <Gold.Chemscore.Rot>
2.6232

> <Gold.Chemscore.Internal.Correction>
   9.000000E+99

> <Gold.Chemscore.Hbonds>
donor molecule, donor type, donor heavy atom, donor atom, acceptor molecule, acceptor atom, score
      L1  H    13    37       P1 10175  0.84

> <Gold.Chemscore.Hbond.Weighted>
-3.1465

> <Gold.Chemscore.Metal.Weighted>
-0.0000

> <Gold.Chemscore.Lipo.Weighted>
-12.5396

> <Gold.Chemscore.Internal_Hbond.Weighted>
0.0000

> <Gold.Chemscore.DEClash.Weighted>
3.2516

> <Gold.Chemscore.DEInternal.Weighted>
0.7287

> <Gold.Chemscore.Rot.Weighted>
6.7155

> <Gold.Chemscore.Internal.Correction.Weighted>
   9.000000E+99

> <Gold.Protein.RotatedTorsions>
[ 6907 6896 6895 6894 ] final   20.51 input  -60.11 | X-H torsion
[ 7974 7965 7964 7962 ] final  -80.38 input  175.53 | X-H torsion
[ 8008 7997 7996 7995 ] final  -63.85 input   59.86 | X-H torsion
[ 10167 10162 10161 10158 ] final  122.14 input  -65.29 | X-H torsion
[ 10718 10713 10712 10709 ] final   69.10 input   66.30 | X-H torsion
[ 10763 10752 10751 10750 ] final  166.73 input  -60.55 | X-H torsion
[ 11005 11000 10999 10996 ] final  164.59 input  -57.11 | X-H torsion

> <Gold.Protein.ActiveResidues>
 VAL166  LYS551  ARG553  GLY616  TRP617  ASP618  TYR619  PRO620  LYS621  CYS622 
 ASP623  PHE694  ASN695  SER759  ASP760  ASP761  ALA762  ILE779  LEU786  VAL792 
 PHE793  MET794  SER795  GLU796  ALA797  LYS798  CYS799  TRP800  GLU811  SER814 

> <Gold.Protein.RotatedAtoms>
  151.8975  135.0392  160.0503 H   0  0  0  0  0  0  0  0  0  0  0  0  # atno 6907 bound_to 6896
  152.2386  133.5112  159.5265 H   0  0  0  0  0  0  0  0  0  0  0  0  # atno 6908 bound_to 6896
  150.7046  134.1037  159.4017 H   0  0  0  0  0  0  0  0  0  0  0  0  # atno 6909 bound_to 6896
  145.5608  140.9482  143.1448 H   0  0  0  0  0  0  0  0  0  0  0  0  # atno 7974 bound_to 7965
  154.4578  140.0966  156.6806 H   0  0  0  0  0  0  0  0  0  0  0  0  # atno 8008 bound_to 7997
  155.5086  140.3475  155.4366 H   0  0  0  0  0  0  0  0  0  0  0  0  # atno 8009 bound_to 7997
  156.0811  140.1373  156.9700 H   0  0  0  0  0  0  0  0  0  0  0  0  # atno 8010 bound_to 7997
  139.5876  144.7013  151.3369 H   0  0  0  0  0  0  0  0  0  0  0  0  # atno 10167 bound_to 10162
  157.6327  130.9408  150.0468 H   0  0  0  0  0  0  0  0  0  0  0  0  # atno 10718 bound_to 10713
  154.3434  135.2754  155.2411 H   0  0  0  0  0  0  0  0  0  0  0  0  # atno 10763 bound_to 10752
  154.4671  135.5892  153.6299 H   0  0  0  0  0  0  0  0  0  0  0  0  # atno 10764 bound_to 10752
  152.9855  135.6079  154.3637 H   0  0  0  0  0  0  0  0  0  0  0  0  # atno 10765 bound_to 10752
  140.2475  134.8003  157.3470 H   0  0  0  0  0  0  0  0  0  0  0  0  # atno 11005 bound_to 11000
  144.7484  139.7259  143.7283 LP  0  0  0  0  0  0  0  0  0  0  0  0  # atno 17320 bound_to 7965
  146.1853  139.5065  142.9840 LP  0  0  0  0  0  0  0  0  0  0  0  0  # atno 17321 bound_to 7965
  140.7145  143.7302  150.7629 LP  0  0  0  0  0  0  0  0  0  0  0  0  # atno 17342 bound_to 10162
  140.0850  143.4932  152.2509 LP  0  0  0  0  0  0  0  0  0  0  0  0  # atno 17343 bound_to 10162
  156.1542  130.3643  149.9393 LP  0  0  0  0  0  0  0  0  0  0  0  0  # atno 17370 bound_to 10713
  156.7406  130.9078  151.3632 LP  0  0  0  0  0  0  0  0  0  0  0  0  # atno 17371 bound_to 10713
  140.1591  134.4751  155.7907 LP  0  0  0  0  0  0  0  0  0  0  0  0  # atno 17394 bound_to 11000
  141.2205  133.6894  156.7513 LP  0  0  0  0  0  0  0  0  0  0  0  0  # atno 17395 bound_to 11000

$$$$
