AV-unprocessed.smi:517|AV-procd|sdf|2789|dock6
  -GOLD-   2262023263D 1   1.00000     0.00000
 Structure written by MMmdl.
 35 36  0  0  0  0  0  0  0  0  1 V2000
  148.4495  141.5235  154.5156 C   0  0  0  0  0  0  0  0  0  0  0  0
  149.1805  140.1804  154.5730 C   0  0  0  0  0  0  0  0  0  0  0  0
  150.5385  140.4041  154.9124 O   0  0  0  0  0  0  0  0  0  0  0  0
  150.6958  140.9174  156.2250 C   0  0  0  0  0  0  0  0  0  0  0  0
  151.9550  140.3322  156.8795 C   0  0  0  0  0  0  0  0  0  0  0  0
  152.3030  141.0081  158.1231 N   0  0  0  0  0  0  0  0  0  0  0  0
  152.8656  140.5007  159.2537 C   0  0  0  0  0  0  0  0  0  0  0  0
  153.2603  139.0556  159.4071 C   0  0  1  0  0  0  0  0  0  0  0  0
  152.0515  138.1138  159.3122 C   0  0  0  0  0  0  0  0  0  0  0  0
  154.2107  138.6630  158.4387 O   0  0  0  0  0  0  0  0  0  0  0  0
  153.0271  141.3710  160.2536 N   0  0  0  0  0  0  0  0  0  0  0  0
  152.5617  142.5526  159.7148 C   0  0  0  0  0  0  0  0  0  0  0  0
  152.4808  143.8480  160.2744 C   0  0  0  0  0  0  0  0  0  0  0  0
  151.9625  144.9203  159.5194 C   0  0  0  0  0  0  0  0  0  0  0  0
  151.5171  144.7124  158.1979 C   0  0  0  0  0  0  0  0  0  0  0  0
  151.5862  143.4286  157.6232 C   0  0  0  0  0  0  0  0  0  0  0  0
  152.1053  142.3614  158.3811 C   0  0  0  0  0  0  0  0  0  0  0  0
  147.4078  141.3876  154.2246 H   0  0  0  0  0  0  0  0  0  0  0  0
  148.9151  142.1927  153.7918 H   0  0  0  0  0  0  0  0  0  0  0  0
  148.4612  142.0177  155.4872 H   0  0  0  0  0  0  0  0  0  0  0  0
  148.7073  139.5324  155.3120 H   0  0  0  0  0  0  0  0  0  0  0  0
  149.1154  139.6810  153.6054 H   0  0  0  0  0  0  0  0  0  0  0  0
  150.7670  142.0057  156.1899 H   0  0  0  0  0  0  0  0  0  0  0  0
  149.8231  140.6685  156.8304 H   0  0  0  0  0  0  0  0  0  0  0  0
  151.7899  139.2769  157.0992 H   0  0  0  0  0  0  0  0  0  0  0  0
  152.8005  140.3535  156.1936 H   0  0  0  0  0  0  0  0  0  0  0  0
  153.7211  138.8911  160.3780 H   0  0  0  0  0  0  0  0  0  0  0  0
  151.3015  138.3645  160.0612 H   0  0  0  0  0  0  0  0  0  0  0  0
  152.3462  137.0767  159.4745 H   0  0  0  0  0  0  0  0  0  0  0  0
  151.5728  138.1736  158.3339 H   0  0  0  0  0  0  0  0  0  0  0  0
  154.5901  137.8411  158.7092 H   0  0  0  0  0  0  0  0  0  0  0  0
  152.8198  144.0168  161.2858 H   0  0  0  0  0  0  0  0  0  0  0  0
  151.9069  145.9067  159.9561 H   0  0  0  0  0  0  0  0  0  0  0  0
  151.1219  145.5391  157.6261 H   0  0  0  0  0  0  0  0  0  0  0  0
  151.2461  143.2677  156.6113 H   0  0  0  0  0  0  0  0  0  0  0  0
  1  2  1  0  0  0  0
  1 18  1  0  0  0  0
  1 19  1  0  0  0  0
  1 20  1  0  0  0  0
  2  3  1  0  0  0  0
  2 21  1  0  0  0  0
  2 22  1  0  0  0  0
  3  4  1  0  0  0  0
  4  5  1  0  0  0  0
  4 23  1  0  0  0  0
  4 24  1  0  0  0  0
  5  6  1  0  0  0  0
  5 25  1  0  0  0  0
  5 26  1  0  0  0  0
  6 17  1  0  0  0  0
  6  7  1  0  0  0  0
  7  8  1  0  0  0  0
  7 11  2  0  0  0  0
  8  9  1  0  0  0  0
  8 10  1  0  0  0  0
  8 27  1  0  0  0  0
  9 28  1  0  0  0  0
  9 29  1  0  0  0  0
  9 30  1  0  0  0  0
 10 31  1  0  0  0  0
 11 12  1  0  0  0  0
 12 17  2  0  0  0  0
 12 13  1  0  0  0  0
 13 14  2  0  0  0  0
 13 32  1  0  0  0  0
 14 15  1  0  0  0  0
 14 33  1  0  0  0  0
 15 16  2  0  0  0  0
 15 34  1  0  0  0  0
 16 17  1  0  0  0  0
 16 35  1  0  0  0  0
M  END
> <s_m_source_file>
AV-unprocessed.smi

> <i_m_source_file_index>
517

> <i_lp_mmshare_version>
43012

> <i_f3d_flags>
0

> <s_epik_input>
W0NIM11bQ0gyXU9bQ0gyXVtDSDJdbihjKG4xKVtDQEhdKFtDSDNdKVtPSF0pYyhjMTIpW2NIXVtjSF1bY0hdW2NIXTI=

> <s_epik_cmdline>
J2VwaWtfcHl0aG9uJywgJy1waCcsICc3LjAnLCAnLXRuJywgJzgnLCAnLW1hJywgJzIwMCcsICctbWV0YWxfYmluZGluZycsICctaW1hZScsICc8aW5maWxlLm1hZT4nLCAnLW9tYWUnLCAnPG91dGZpbGUubWFlPic=

> <r_epik_Ionization_Penalty>
0.0517997

> <r_epik_Ionization_Penalty_Charging>
0

> <r_epik_Ionization_Penalty_Neutral>
0.0517997

> <r_epik_State_Penalty>
0.0443961

> <r_epik_Charging_Adjusted_Penalty>
0.0443961

> <i_epik_Tot_Q>
0

> <i_epik_Tot_abs_Q>
0

> <r_epik_Metal_State_Penalty>
4.60999e-05

> <b_epik_Metal_Only>
0

> <s_lp_Force_Field>
OPLS_2005

> <r_lp_Energy>
6.29619

> <b_lp_Chiralities_Consistent>
1

> <s_lp_Variant>
AV-unprocessed.smi:517-2

> <Gold.Version>
5.8.1

> <Gold.Id.Protein>
6NUR|6NUR_protein|mol2

> <Gold.PLP.Fitness>
45.9307

> <Gold.PLP.PLP>
-41.2235

> <Gold.PLP.part.hbond>
-2.0000

> <Gold.PLP.part.metal>
0.0000

> <Gold.PLP.part.buried>
-4.7211

> <Gold.PLP.part.nonpolar>
-33.2349

> <Gold.PLP.part.repulsive>
0.0865

> <Gold.PLP.ligand.clash>
0.0000

> <Gold.PLP.ligand.torsion>
0.6640

> <Gold.PLP.Chemscore.Hbond>
2.0000

> <Gold.PLP.Chemscore.CHOScore>
0.0000

> <Gold.PLP.Chemscore.Metal>
0.0000

> <Gold.Chemscore.Hbonds>
donor molecule, donor type, donor heavy atom, donor atom, acceptor molecule, acceptor atom, score
      P1  H  7989  7998       L1     3  1.00
      P1  H  7997  8010       L1    10  1.00

> <Gold.PLP.Chemscore.Internal.Correction>
0.0352

> <Gold.Rescore>
     Score         DG    S(hbond)    S(metal)    S(lipo)     H(rot)  DE(clash)    DE(int)     intcor
     18.41     -19.09       1.93        0.00     107.41       2.11       0.00       0.67       ----

> <Gold.Chemscore.Fitness>
18.4143

> <Gold.Chemscore.DG>
-19.0915

> <Gold.Chemscore.ZeroCoef>
-5.4800

> <Gold.Chemscore.Hbond>
1.9263

> <Gold.Chemscore.Metal>
0.0000

> <Gold.Chemscore.Lipo>
107.4106

> <Gold.Chemscore.Internal_Hbond>
0.0000

> <Gold.Chemscore.DEClash>
0.0029

> <Gold.Chemscore.DEInternal>
0.6743

> <Gold.Chemscore.Rot>
2.1052

> <Gold.Chemscore.Internal.Correction>
   9.000000E+99

> <Gold.Chemscore.Hbonds>
donor molecule, donor type, donor heavy atom, donor atom, acceptor molecule, acceptor atom, score
      P1  H  7989  7998       L1     3  0.88
      P1  H  7997  8010       L1    10  0.94

> <Gold.Chemscore.Hbond.Weighted>
-6.4339

> <Gold.Chemscore.Metal.Weighted>
-0.0000

> <Gold.Chemscore.Lipo.Weighted>
-12.5670

> <Gold.Chemscore.Internal_Hbond.Weighted>
0.0000

> <Gold.Chemscore.DEClash.Weighted>
0.0029

> <Gold.Chemscore.DEInternal.Weighted>
0.6743

> <Gold.Chemscore.Rot.Weighted>
5.3894

> <Gold.Chemscore.Internal.Correction.Weighted>
   9.000000E+99

> <Gold.Protein.RotatedTorsions>
[ 6907 6896 6895 6894 ] final  -75.74 input  -60.11 | X-H torsion
[ 7974 7965 7964 7962 ] final   55.00 input  175.53 | X-H torsion
[ 8008 7997 7996 7995 ] final   21.68 input   59.86 | X-H torsion
[ 10167 10162 10161 10158 ] final -106.49 input  -65.29 | X-H torsion
[ 10718 10713 10712 10709 ] final  -62.50 input   66.30 | X-H torsion
[ 10763 10752 10751 10750 ] final   83.79 input  -60.55 | X-H torsion
[ 11005 11000 10999 10996 ] final -111.62 input  -57.11 | X-H torsion

> <Gold.Protein.ActiveResidues>
 VAL166  LYS551  ARG553  GLY616  TRP617  ASP618  TYR619  PRO620  LYS621  CYS622 
 ASP623  PHE694  ASN695  SER759  ASP760  ASP761  ALA762  ILE779  LEU786  VAL792 
 PHE793  MET794  SER795  GLU796  ALA797  LYS798  CYS799  TRP800  GLU811  SER814 

> <Gold.Protein.RotatedAtoms>
  150.7049  134.4676  159.5409 H   0  0  0  0  0  0  0  0  0  0  0  0  # atno 6907 bound_to 6896
  152.2339  134.8292  160.0479 H   0  0  0  0  0  0  0  0  0  0  0  0  # atno 6908 bound_to 6896
  151.9098  133.3523  159.3896 H   0  0  0  0  0  0  0  0  0  0  0  0  # atno 6909 bound_to 6896
  145.9549  139.4006  143.0283 H   0  0  0  0  0  0  0  0  0  0  0  0  # atno 7974 bound_to 7965
  154.9542  140.3069  155.5060 H   0  0  0  0  0  0  0  0  0  0  0  0  # atno 8008 bound_to 7997
  156.2984  140.2313  156.4561 H   0  0  0  0  0  0  0  0  0  0  0  0  # atno 8009 bound_to 7997
  154.8025  140.0433  157.1272 H   0  0  0  0  0  0  0  0  0  0  0  0  # atno 8010 bound_to 7997
  140.1872  143.3920  152.1235 H   0  0  0  0  0  0  0  0  0  0  0  0  # atno 10167 bound_to 10162
  156.0851  130.4210  150.1144 H   0  0  0  0  0  0  0  0  0  0  0  0  # atno 10718 bound_to 10713
  153.1322  135.4678  154.9367 H   0  0  0  0  0  0  0  0  0  0  0  0  # atno 10763 bound_to 10752
  154.7675  135.3149  154.8260 H   0  0  0  0  0  0  0  0  0  0  0  0  # atno 10764 bound_to 10752
  153.8800  135.6895  153.4821 H   0  0  0  0  0  0  0  0  0  0  0  0  # atno 10765 bound_to 10752
  141.0724  133.9358  157.2459 H   0  0  0  0  0  0  0  0  0  0  0  0  # atno 11005 bound_to 11000
  145.8119  140.9721  143.0944 LP  0  0  0  0  0  0  0  0  0  0  0  0  # atno 17320 bound_to 7965
  144.6803  139.9932  143.7484 LP  0  0  0  0  0  0  0  0  0  0  0  0  # atno 17321 bound_to 7965
  139.5271  144.7115  151.5190 LP  0  0  0  0  0  0  0  0  0  0  0  0  # atno 17342 bound_to 10162
  140.6480  143.8755  150.6756 LP  0  0  0  0  0  0  0  0  0  0  0  0  # atno 17343 bound_to 10162
  156.9167  130.9669  151.3555 LP  0  0  0  0  0  0  0  0  0  0  0  0  # atno 17370 bound_to 10713
  157.5982  130.8493  149.8762 LP  0  0  0  0  0  0  0  0  0  0  0  0  # atno 17371 bound_to 10713
  139.9536  135.0170  156.9066 LP  0  0  0  0  0  0  0  0  0  0  0  0  # atno 17394 bound_to 11000
  140.5646  134.0502  155.7410 LP  0  0  0  0  0  0  0  0  0  0  0  0  # atno 17395 bound_to 11000

$$$$
