AV-unprocessed.smi:2837|AV-procd|sdf|10921|dock5
  -GOLD-   2272015373D 1   1.00000     0.00000
 Structure written by MMmdl.
 32 34  0  0  0  0  0  0  0  0  1 V2000
  154.9130  135.4224  163.0345 F   0  0  0  0  0  0  0  0  0  0  0  0
  154.3521  136.6369  162.8203 C   0  0  0  0  0  0  0  0  0  0  0  0
  154.1119  137.1960  164.0317 F   0  0  0  0  0  0  0  0  0  0  0  0
  155.2021  137.4144  162.0984 O   0  0  0  0  0  0  0  0  0  0  0  0
  154.7584  138.6239  161.6146 C   0  0  0  0  0  0  0  0  0  0  0  0
  153.7638  138.7534  160.6169 C   0  0  0  0  0  0  0  0  0  0  0  0
  153.3734  140.0415  160.2033 C   0  0  0  0  0  0  0  0  0  0  0  0
  153.9818  141.1630  160.8034 C   0  0  0  0  0  0  0  0  0  0  0  0
  153.5927  142.4423  160.3815 N   0  0  0  0  0  0  0  0  0  0  0  0
  152.1854  142.8279  160.3337 C   0  0  1  0  0  0  0  0  0  0  0  0
  151.8868  144.1003  161.1299 C   0  0  0  0  0  0  0  0  0  0  0  0
  151.1882  144.9741  160.0789 C   0  0  1  0  0  0  0  0  0  0  0  0
  152.1878  145.5350  159.0589 C   0  0  0  0  0  0  0  0  0  0  0  0
  152.5205  144.2926  158.2349 C   0  0  0  0  0  0  0  0  0  0  0  0
  151.6737  143.2131  158.9305 C   0  0  2  0  0  0  0  0  0  0  0  0
  150.5419  143.9865  159.2930 O   0  0  0  0  0  0  0  0  0  0  0  0
  154.9273  141.0460  161.7645 N   0  0  0  0  0  0  0  0  0  0  0  0
  155.2958  139.8083  162.1575 C   0  0  0  0  0  0  0  0  0  0  0  0
  153.4076  136.4802  162.2986 H   0  0  0  0  0  0  0  0  0  0  0  0
  153.2966  137.8877  160.1715 H   0  0  0  0  0  0  0  0  0  0  0  0
  152.6172  140.1617  159.4411 H   0  0  0  0  0  0  0  0  0  0  0  0
  154.2647  143.0284  159.9077 H   0  0  0  0  0  0  0  0  0  0  0  0
  151.5741  142.0183  160.7354 H   0  0  0  0  0  0  0  0  0  0  0  0
  151.2137  143.8760  161.9581 H   0  0  0  0  0  0  0  0  0  0  0  0
  152.7748  144.5844  161.5390 H   0  0  0  0  0  0  0  0  0  0  0  0
  150.5195  145.7245  160.5011 H   0  0  0  0  0  0  0  0  0  0  0  0
  151.7205  146.2954  158.4325 H   0  0  0  0  0  0  0  0  0  0  0  0
  153.0648  145.9746  159.5354 H   0  0  0  0  0  0  0  0  0  0  0  0
  152.1950  144.4260  157.2026 H   0  0  0  0  0  0  0  0  0  0  0  0
  153.5856  144.0608  158.2215 H   0  0  0  0  0  0  0  0  0  0  0  0
  151.4409  142.3592  158.2940 H   0  0  0  0  0  0  0  0  0  0  0  0
  156.0496  139.7609  162.9296 H   0  0  0  0  0  0  0  0  0  0  0  0
  1  2  1  0  0  0  0
  2  3  1  0  0  0  0
  2  4  1  0  0  0  0
  2 19  1  0  0  0  0
  4  5  1  0  0  0  0
  5 18  1  0  0  0  0
  5  6  2  0  0  0  0
  6  7  1  0  0  0  0
  6 20  1  0  0  0  0
  7  8  2  0  0  0  0
  7 21  1  0  0  0  0
  8  9  1  0  0  0  0
  8 17  1  0  0  0  0
  9 10  1  0  0  0  0
  9 22  1  0  0  0  0
 10 15  1  0  0  0  0
 10 11  1  0  0  0  0
 10 23  1  0  0  0  0
 11 12  1  0  0  0  0
 11 24  1  0  0  0  0
 11 25  1  0  0  0  0
 12 16  1  0  0  0  0
 12 13  1  0  0  0  0
 12 26  1  0  0  0  0
 13 14  1  0  0  0  0
 13 27  1  0  0  0  0
 13 28  1  0  0  0  0
 14 15  1  0  0  0  0
 14 29  1  0  0  0  0
 14 30  1  0  0  0  0
 15 16  1  0  0  0  0
 15 31  1  0  0  0  0
 17 18  2  0  0  0  0
 18 32  1  0  0  0  0
M  END
> <s_m_source_file>
AV-unprocessed.smi

> <i_m_source_file_index>
2837

> <i_lp_mmshare_version>
43012

> <i_f3d_flags>
0

> <s_epik_input>
RltDSF0oRilPYzFbY0hdW2NIXWMobltjSF0xKVtOSF1bQ0BIXShbQ0gyXVtDQEBIXTIzKVtDQEBIXShPMylbQ0gyXVtDSDJdMg==

> <s_epik_cmdline>
J2VwaWtfcHl0aG9uJywgJy1waCcsICc3LjAnLCAnLXRuJywgJzgnLCAnLW1hJywgJzIwMCcsICctbWV0YWxfYmluZGluZycsICctaW1hZScsICc8aW5maWxlLm1hZT4nLCAnLW9tYWUnLCAnPG91dGZpbGUubWFlPic=

> <r_lp_tautomer_probability>
1

> <r_epik_Ionization_Penalty>
0.0124072

> <r_epik_Ionization_Penalty_Charging>
0

> <r_epik_Ionization_Penalty_Neutral>
0.0124072

> <r_epik_State_Penalty>
0.00959565

> <r_epik_Charging_Adjusted_Penalty>
0.00959565

> <i_epik_Tot_Q>
0

> <i_epik_Tot_abs_Q>
0

> <r_epik_Metal_State_Penalty>
9.67369e-06

> <b_epik_Metal_Only>
0

> <s_lp_Force_Field>
OPLS_2005

> <r_lp_Energy>
39.9144

> <b_lp_Chiralities_Consistent>
1

> <s_lp_Variant>
AV-unprocessed.smi:2837-2

> <Gold.Version>
5.8.1

> <Gold.Id.Protein>
6NUR|6NUR_protein|mol2

> <Gold.PLP.Fitness>
42.2704

> <Gold.PLP.PLP>
-43.4016

> <Gold.PLP.part.hbond>
-1.0000

> <Gold.PLP.part.metal>
0.0000

> <Gold.PLP.part.buried>
-5.1610

> <Gold.PLP.part.nonpolar>
-36.6893

> <Gold.PLP.part.repulsive>
0.1488

> <Gold.PLP.ligand.clash>
0.0000

> <Gold.PLP.ligand.torsion>
0.5750

> <Gold.PLP.Chemscore.Hbond>
0.0000

> <Gold.PLP.Chemscore.CHOScore>
0.0000

> <Gold.PLP.Chemscore.Metal>
0.0000

> <Gold.PLP.Chemscore.Internal.Correction>
0.0189

> <Gold.Rescore>
     Score         DG    S(hbond)    S(metal)    S(lipo)     H(rot)  DE(clash)    DE(int)     intcor
     13.08     -14.01       0.00        0.00     101.84       1.32       0.11       0.82       ----

> <Gold.Chemscore.Fitness>
13.0789

> <Gold.Chemscore.DG>
-14.0123

> <Gold.Chemscore.ZeroCoef>
-5.4800

> <Gold.Chemscore.Hbond>
0.0000

> <Gold.Chemscore.Metal>
0.0000

> <Gold.Chemscore.Lipo>
101.8364

> <Gold.Chemscore.Internal_Hbond>
0.0000

> <Gold.Chemscore.DEClash>
0.1110

> <Gold.Chemscore.DEInternal>
0.8224

> <Gold.Chemscore.Rot>
1.3213

> <Gold.Chemscore.Internal.Correction>
   9.000000E+99

> <Gold.Chemscore.Hbond.Weighted>
-0.0000

> <Gold.Chemscore.Metal.Weighted>
-0.0000

> <Gold.Chemscore.Lipo.Weighted>
-11.9149

> <Gold.Chemscore.Internal_Hbond.Weighted>
0.0000

> <Gold.Chemscore.DEClash.Weighted>
0.1110

> <Gold.Chemscore.DEInternal.Weighted>
0.8224

> <Gold.Chemscore.Rot.Weighted>
3.3825

> <Gold.Chemscore.Internal.Correction.Weighted>
   9.000000E+99

> <Gold.Protein.RotatedTorsions>
[ 6907 6896 6895 6894 ] final  150.52 input  -60.11 | X-H torsion
[ 7974 7965 7964 7962 ] final  149.77 input  175.53 | X-H torsion
[ 8008 7997 7996 7995 ] final   66.50 input   59.86 | X-H torsion
[ 10167 10162 10161 10158 ] final  -84.45 input  -65.29 | X-H torsion
[ 10718 10713 10712 10709 ] final  -14.61 input   66.30 | X-H torsion
[ 10763 10752 10751 10750 ] final   11.13 input  -60.55 | X-H torsion
[ 11005 11000 10999 10996 ] final   59.12 input  -57.11 | X-H torsion

> <Gold.Protein.ActiveResidues>
 VAL166  LYS551  ARG553  GLY616  TRP617  ASP618  TYR619  PRO620  LYS621  CYS622 
 ASP623  PHE694  ASN695  SER759  ASP760  ASP761  ALA762  ILE779  LEU786  VAL792 
 PHE793  MET794  SER795  GLU796  ALA797  LYS798  CYS799  TRP800  GLU811  SER814 

> <Gold.Protein.RotatedAtoms>
  152.1133  133.4313  159.4640 H   0  0  0  0  0  0  0  0  0  0  0  0  # atno 6907 bound_to 6896
  150.6868  134.2622  159.4563 H   0  0  0  0  0  0  0  0  0  0  0  0  # atno 6908 bound_to 6896
  152.0493  134.9663  160.0625 H   0  0  0  0  0  0  0  0  0  0  0  0  # atno 6909 bound_to 6896
  144.8413  139.6323  143.6015 H   0  0  0  0  0  0  0  0  0  0  0  0  # atno 7974 bound_to 7965
  155.6784  140.3496  155.4845 H   0  0  0  0  0  0  0  0  0  0  0  0  # atno 8008 bound_to 7997
  155.9628  140.1140  157.0903 H   0  0  0  0  0  0  0  0  0  0  0  0  # atno 8009 bound_to 7997
  154.4147  140.1172  156.5188 H   0  0  0  0  0  0  0  0  0  0  0  0  # atno 8010 bound_to 7997
  140.4131  143.2614  151.8991 H   0  0  0  0  0  0  0  0  0  0  0  0  # atno 10167 bound_to 10162
  156.6135  130.4856  149.6192 H   0  0  0  0  0  0  0  0  0  0  0  0  # atno 10718 bound_to 10713
  153.1958  135.6849  153.8293 H   0  0  0  0  0  0  0  0  0  0  0  0  # atno 10763 bound_to 10752
  153.7577  135.3214  155.3333 H   0  0  0  0  0  0  0  0  0  0  0  0  # atno 10764 bound_to 10752
  154.8144  135.4696  154.0702 H   0  0  0  0  0  0  0  0  0  0  0  0  # atno 10765 bound_to 10752
  140.0327  134.5988  155.9485 H   0  0  0  0  0  0  0  0  0  0  0  0  # atno 11005 bound_to 11000
  146.2705  139.6623  142.9299 LP  0  0  0  0  0  0  0  0  0  0  0  0  # atno 17320 bound_to 7965
  145.4688  141.0435  143.2710 LP  0  0  0  0  0  0  0  0  0  0  0  0  # atno 17321 bound_to 7965
  139.4782  144.5516  151.8377 LP  0  0  0  0  0  0  0  0  0  0  0  0  # atno 17342 bound_to 10162
  140.4616  144.1714  150.5907 LP  0  0  0  0  0  0  0  0  0  0  0  0  # atno 17343 bound_to 10162
  156.2370  130.6828  151.1519 LP  0  0  0  0  0  0  0  0  0  0  0  0  # atno 17370 bound_to 10713
  157.7247  131.0658  150.5982 LP  0  0  0  0  0  0  0  0  0  0  0  0  # atno 17371 bound_to 10713
  141.1840  133.6552  156.5139 LP  0  0  0  0  0  0  0  0  0  0  0  0  # atno 17394 bound_to 11000
  140.4198  134.7197  157.4884 LP  0  0  0  0  0  0  0  0  0  0  0  0  # atno 17395 bound_to 11000

$$$$
