AV-unprocessed.smi:2718|AV-procd|sdf|10487|dock2
  -GOLD-   2272014533D 1   1.00000     0.00000
 Structure written by MMmdl.
 47 48  0  0  0  0  0  0  0  0  1 V2000
  145.2057  134.9232  151.8440 C   0  0  0  0  0  0  0  0  0  0  0  0
  146.3793  133.9654  151.7941 C   0  0  0  0  0  0  0  0  0  0  0  0
  146.5530  133.2465  150.4677 C   0  0  0  0  0  0  0  0  0  0  0  0
  147.1909  133.7865  152.8546 C   0  0  0  0  0  0  0  0  0  0  0  0
  148.3799  132.8884  152.9350 C   0  0  1  0  0  0  0  0  0  0  0  0
  149.5053  133.0387  153.9535 C   0  0  1  0  0  0  0  0  0  0  0  0
  149.4671  134.1535  154.9614 C   0  0  0  0  0  0  0  0  0  0  0  0
  149.5067  133.9904  156.1812 O   0  0  0  0  0  0  0  0  0  0  0  0
  149.3428  135.3688  154.4064 N   0  0  0  0  0  0  0  0  0  0  0  0
  149.1651  136.6105  155.1526 C   0  0  0  0  0  0  0  0  0  0  0  0
  150.2324  136.7834  156.2546 C   0  0  2  0  0  0  0  0  0  0  0  0
  149.7120  137.5532  157.4812 C   0  0  0  0  0  0  0  0  0  0  0  0
  151.4832  137.4106  155.7065 C   0  0  0  0  0  0  0  0  0  0  0  0
  152.6959  136.8474  155.7947 N   0  0  0  0  0  0  0  0  0  0  0  0
  153.5651  137.7325  155.1895 N   0  0  0  0  0  0  0  0  0  0  0  0
  152.7926  138.7448  154.7979 C   0  0  0  0  0  0  0  0  0  0  0  0
  151.4898  138.6109  155.0880 N   0  0  0  0  0  0  0  0  0  0  0  0
  150.4048  139.5295  154.8031 C   0  0  0  0  0  0  0  0  0  0  0  0
  148.5475  131.8529  154.0371 C   0  0  0  0  0  0  0  0  0  0  0  0
  147.5002  131.6904  155.1373 C   0  0  0  0  0  0  0  0  0  0  0  0
  149.1010  130.4835  153.6809 C   0  0  0  0  0  0  0  0  0  0  0  0
  144.2741  134.3910  151.6513 H   0  0  0  0  0  0  0  0  0  0  0  0
  145.3209  135.6997  151.0874 H   0  0  0  0  0  0  0  0  0  0  0  0
  145.1241  135.4085  152.8171 H   0  0  0  0  0  0  0  0  0  0  0  0
  146.7281  133.9696  149.6712 H   0  0  0  0  0  0  0  0  0  0  0  0
  145.6510  132.6848  150.2247 H   0  0  0  0  0  0  0  0  0  0  0  0
  147.3884  132.5472  150.4773 H   0  0  0  0  0  0  0  0  0  0  0  0
  146.9736  134.3373  153.7580 H   0  0  0  0  0  0  0  0  0  0  0  0
  148.6842  132.5777  151.9372 H   0  0  0  0  0  0  0  0  0  0  0  0
  150.5012  132.8149  153.5734 H   0  0  0  0  0  0  0  0  0  0  0  0
  149.3185  135.4323  153.3988 H   0  0  0  0  0  0  0  0  0  0  0  0
  149.1953  137.4559  154.4626 H   0  0  0  0  0  0  0  0  0  0  0  0
  148.1669  136.6097  155.5913 H   0  0  0  0  0  0  0  0  0  0  0  0
  150.4900  135.7862  156.6091 H   0  0  0  0  0  0  0  0  0  0  0  0
  150.4785  137.6173  158.2541 H   0  0  0  0  0  0  0  0  0  0  0  0
  148.8450  137.0630  157.9241 H   0  0  0  0  0  0  0  0  0  0  0  0
  149.4196  138.5700  157.2172 H   0  0  0  0  0  0  0  0  0  0  0  0
  153.1899  139.6097  154.2869 H   0  0  0  0  0  0  0  0  0  0  0  0
  150.7841  140.4090  154.2816 H   0  0  0  0  0  0  0  0  0  0  0  0
  149.9356  139.8454  155.7354 H   0  0  0  0  0  0  0  0  0  0  0  0
  149.6615  139.0391  154.1739 H   0  0  0  0  0  0  0  0  0  0  0  0
  147.9805  131.4046  156.0734 H   0  0  0  0  0  0  0  0  0  0  0  0
  146.7862  130.9117  154.8674 H   0  0  0  0  0  0  0  0  0  0  0  0
  146.9298  132.6009  155.3093 H   0  0  0  0  0  0  0  0  0  0  0  0
  149.5587  130.0196  154.5552 H   0  0  0  0  0  0  0  0  0  0  0  0
  149.8581  130.5614  152.9001 H   0  0  0  0  0  0  0  0  0  0  0  0
  148.3050  129.8337  153.3163 H   0  0  0  0  0  0  0  0  0  0  0  0
  1  2  1  0  0  0  0
  1 22  1  0  0  0  0
  1 23  1  0  0  0  0
  1 24  1  0  0  0  0
  2  3  1  0  0  0  0
  2  4  2  0  0  0  0
  3 25  1  0  0  0  0
  3 26  1  0  0  0  0
  3 27  1  0  0  0  0
  4  5  1  0  0  0  0
  4 28  1  0  0  0  0
  5 19  1  0  0  0  0
  5  6  1  0  0  0  0
  5 29  1  0  0  0  0
  6  7  1  0  0  0  0
  6 19  1  0  0  0  0
  6 30  1  0  0  0  0
  7  8  2  0  0  0  0
  7  9  1  0  0  0  0
  9 10  1  0  0  0  0
  9 31  1  0  0  0  0
 10 11  1  0  0  0  0
 10 32  1  0  0  0  0
 10 33  1  0  0  0  0
 11 12  1  0  0  0  0
 11 13  1  0  0  0  0
 11 34  1  0  0  0  0
 12 35  1  0  0  0  0
 12 36  1  0  0  0  0
 12 37  1  0  0  0  0
 13 17  1  0  0  0  0
 13 14  2  0  0  0  0
 14 15  1  0  0  0  0
 15 16  2  0  0  0  0
 16 17  1  0  0  0  0
 16 38  1  0  0  0  0
 17 18  1  0  0  0  0
 18 39  1  0  0  0  0
 18 40  1  0  0  0  0
 18 41  1  0  0  0  0
 19 20  1  0  0  0  0
 19 21  1  0  0  0  0
 20 42  1  0  0  0  0
 20 43  1  0  0  0  0
 20 44  1  0  0  0  0
 21 45  1  0  0  0  0
 21 46  1  0  0  0  0
 21 47  1  0  0  0  0
M  END
> <s_m_source_file>
AV-unprocessed.smi

> <i_m_source_file_index>
2718

> <i_lp_mmshare_version>
43012

> <i_f3d_flags>
0

> <s_epik_input>
W0NIM11DKFtDSDNdKT1bQ0hdW0NAQEhdKEMxKFtDSDNdKVtDSDNdKVtDQEhdMUMoPU8pW05IXVtDSDJdW0NASF0oW0NIM10pYzJubltjSF1uMltDSDNd

> <s_epik_cmdline>
J2VwaWtfcHl0aG9uJywgJy1waCcsICc3LjAnLCAnLXRuJywgJzgnLCAnLW1hJywgJzIwMCcsICctbWV0YWxfYmluZGluZycsICctaW1hZScsICc8aW5maWxlLm1hZT4nLCAnLW9tYWUnLCAnPG91dGZpbGUubWFlPic=

> <r_lp_tautomer_probability>
1

> <r_epik_Ionization_Penalty>
0.000449586

> <r_epik_Ionization_Penalty_Charging>
0

> <r_epik_Ionization_Penalty_Neutral>
0.000449586

> <r_epik_State_Penalty>
0.000243372

> <r_epik_Charging_Adjusted_Penalty>
0.000243372

> <i_epik_Tot_Q>
0

> <i_epik_Tot_abs_Q>
0

> <r_epik_Metal_State_Penalty>
-0

> <b_epik_Metal_Only>
0

> <s_lp_Force_Field>
OPLS_2005

> <r_lp_Energy>
16.2745

> <b_lp_Chiralities_Consistent>
1

> <s_lp_Variant>
AV-unprocessed.smi:2718-2

> <Gold.Version>
5.8.1

> <Gold.Id.Protein>
6NUR|6NUR_protein|mol2

> <Gold.PLP.Fitness>
40.9121

> <Gold.PLP.PLP>
-36.8147

> <Gold.PLP.part.hbond>
-2.9096

> <Gold.PLP.part.metal>
0.0000

> <Gold.PLP.part.buried>
-4.1978

> <Gold.PLP.part.nonpolar>
-29.3946

> <Gold.PLP.part.repulsive>
0.0606

> <Gold.PLP.ligand.clash>
0.0000

> <Gold.PLP.ligand.torsion>
0.7104

> <Gold.PLP.Chemscore.Hbond>
1.7360

> <Gold.PLP.Chemscore.CHOScore>
0.0000

> <Gold.PLP.Chemscore.Metal>
0.0000

> <Gold.Chemscore.Hbonds>
donor molecule, donor type, donor heavy atom, donor atom, acceptor molecule, acceptor atom, score
      L1  H     9    31       P1  7948  0.95
      P1  H 10752 10763       L1    14  0.68

> <Gold.PLP.Chemscore.Internal.Correction>
0.3102

> <Gold.Rescore>
     Score         DG    S(hbond)    S(metal)    S(lipo)     H(rot)  DE(clash)    DE(int)     intcor
      9.21     -11.32       1.32        0.00      54.92       1.95       0.03       2.08       ----

> <Gold.Chemscore.Fitness>
9.2148

> <Gold.Chemscore.DG>
-11.3198

> <Gold.Chemscore.ZeroCoef>
-5.4800

> <Gold.Chemscore.Hbond>
1.3217

> <Gold.Chemscore.Metal>
0.0000

> <Gold.Chemscore.Lipo>
54.9222

> <Gold.Chemscore.Internal_Hbond>
0.0000

> <Gold.Chemscore.DEClash>
0.0262

> <Gold.Chemscore.DEInternal>
2.0788

> <Gold.Chemscore.Rot>
1.9533

> <Gold.Chemscore.Internal.Correction>
   9.000000E+99

> <Gold.Chemscore.Hbonds>
donor molecule, donor type, donor heavy atom, donor atom, acceptor molecule, acceptor atom, score
      L1  H     9    31       P1  7948  0.21
      P1  H 10752 10763       L1    14  0.13

> <Gold.Chemscore.Hbond.Weighted>
-4.4145

> <Gold.Chemscore.Metal.Weighted>
-0.0000

> <Gold.Chemscore.Lipo.Weighted>
-6.4259

> <Gold.Chemscore.Internal_Hbond.Weighted>
0.0000

> <Gold.Chemscore.DEClash.Weighted>
0.0262

> <Gold.Chemscore.DEInternal.Weighted>
2.0788

> <Gold.Chemscore.Rot.Weighted>
5.0005

> <Gold.Chemscore.Internal.Correction.Weighted>
   9.000000E+99

> <Gold.Protein.RotatedTorsions>
[ 6907 6896 6895 6894 ] final -138.83 input  -60.11 | X-H torsion
[ 7974 7965 7964 7962 ] final  172.92 input  175.53 | X-H torsion
[ 8008 7997 7996 7995 ] final  142.50 input   59.86 | X-H torsion
[ 10167 10162 10161 10158 ] final -127.80 input  -65.29 | X-H torsion
[ 10718 10713 10712 10709 ] final  -58.77 input   66.30 | X-H torsion
[ 10763 10752 10751 10750 ] final   83.33 input  -60.55 | X-H torsion
[ 11005 11000 10999 10996 ] final -156.29 input  -57.11 | X-H torsion

> <Gold.Protein.ActiveResidues>
 VAL166  LYS551  ARG553  GLY616  TRP617  ASP618  TYR619  PRO620  LYS621  CYS622 
 ASP623  PHE694  ASN695  SER759  ASP760  ASP761  ALA762  ILE779  LEU786  VAL792 
 PHE793  MET794  SER795  GLU796  ALA797  LYS798  CYS799  TRP800  GLU811  SER814 

> <Gold.Protein.RotatedAtoms>
  151.0400  133.5714  159.2651 H   0  0  0  0  0  0  0  0  0  0  0  0  # atno 6907 bound_to 6896
  151.2764  135.0700  159.9163 H   0  0  0  0  0  0  0  0  0  0  0  0  # atno 6908 bound_to 6896
  152.5362  134.0122  159.7997 H   0  0  0  0  0  0  0  0  0  0  0  0  # atno 6909 bound_to 6896
  144.7256  139.9570  143.6433 H   0  0  0  0  0  0  0  0  0  0  0  0  # atno 7974 bound_to 7965
  156.2948  140.2287  156.4738 H   0  0  0  0  0  0  0  0  0  0  0  0  # atno 8008 bound_to 7997
  154.7912  140.0454  157.1223 H   0  0  0  0  0  0  0  0  0  0  0  0  # atno 8009 bound_to 7997
  154.9643  140.3058  155.5020 H   0  0  0  0  0  0  0  0  0  0  0  0  # atno 8010 bound_to 7997
  139.9570  143.5992  152.2457 H   0  0  0  0  0  0  0  0  0  0  0  0  # atno 10167 bound_to 10162
  156.1110  130.4175  150.0623 H   0  0  0  0  0  0  0  0  0  0  0  0  # atno 10718 bound_to 10713
  153.1281  135.4695  154.9305 H   0  0  0  0  0  0  0  0  0  0  0  0  # atno 10763 bound_to 10752
  154.7639  135.3139  154.8327 H   0  0  0  0  0  0  0  0  0  0  0  0  # atno 10764 bound_to 10752
  153.8876  135.6888  153.4816 H   0  0  0  0  0  0  0  0  0  0  0  0  # atno 10765 bound_to 10752
  140.6772  134.4184  157.5228 H   0  0  0  0  0  0  0  0  0  0  0  0  # atno 11005 bound_to 11000
  146.0667  139.3658  143.0548 LP  0  0  0  0  0  0  0  0  0  0  0  0  # atno 17320 bound_to 7965
  145.8022  140.9766  143.0993 LP  0  0  0  0  0  0  0  0  0  0  0  0  # atno 17321 bound_to 7965
  139.6583  144.7662  151.2012 LP  0  0  0  0  0  0  0  0  0  0  0  0  # atno 17342 bound_to 10162
  140.7565  143.6050  150.8662 LP  0  0  0  0  0  0  0  0  0  0  0  0  # atno 17343 bound_to 10162
  156.8587  130.9484  151.3620 LP  0  0  0  0  0  0  0  0  0  0  0  0  # atno 17370 bound_to 10713
  157.6291  130.8715  149.9242 LP  0  0  0  0  0  0  0  0  0  0  0  0  # atno 17371 bound_to 10713
  139.8963  134.8663  156.2094 LP  0  0  0  0  0  0  0  0  0  0  0  0  # atno 17394 bound_to 11000
  141.0346  133.6970  156.1490 LP  0  0  0  0  0  0  0  0  0  0  0  0  # atno 17395 bound_to 11000

$$$$
