AV-unprocessed.smi:1838|AV-procd|sdf|7482|dock3
  -GOLD-   22720 9183D 1   1.00000     0.00000
 Structure written by MMmdl.
 35 36  0  0  0  0  0  0  0  0  1 V2000
  151.7471  138.4696  154.6424 C   0  0  0  0  0  0  0  0  0  0  0  0
  150.4161  138.2902  154.1708 O   0  0  0  0  0  0  0  0  0  0  0  0
  149.5465  139.3629  154.2257 C   0  0  0  0  0  0  0  0  0  0  0  0
  150.0128  140.5483  154.6930 N   0  0  0  0  0  0  0  0  0  0  0  0
  149.1669  141.5977  154.7423 C   0  0  0  0  0  0  0  0  0  0  0  0
  147.8251  141.5257  154.3259 C   0  0  0  0  0  0  0  0  0  0  0  0
  147.3388  140.2974  153.8415 C   0  0  0  0  0  0  0  0  0  0  0  0
  148.2103  139.1821  153.7980 C   0  0  0  0  0  0  0  0  0  0  0  0
  147.8281  137.9024  153.3090 N   0  0  0  0  0  0  0  0  0  0  0  0
  146.6636  137.2541  153.4789 C   0  0  0  0  0  0  0  0  0  0  0  0
  145.7055  137.6693  154.1306 O   0  0  0  0  0  0  0  0  0  0  0  0
  146.6777  136.0658  152.8588 N   0  0  0  0  0  0  0  0  0  0  0  0
  145.5712  135.1115  152.8288 C   0  0  2  0  0  0  0  0  0  0  0  0
  146.0262  133.7582  152.2495 C   0  0  0  0  0  0  0  0  0  0  0  0
  144.8209  132.8388  152.0345 C   0  0  0  0  0  0  0  0  0  0  0  0
  143.7981  133.5037  151.0986 C   0  0  0  0  0  0  0  0  0  0  0  0
  143.5303  134.9026  151.4359 N   0  0  0  0  0  0  0  0  0  0  0  0
  144.3263  135.7147  152.1536 C   0  0  0  0  0  0  0  0  0  0  0  0
  144.0541  136.9045  152.3072 O   0  0  0  0  0  0  0  0  0  0  0  0
  152.2971  137.5350  154.5332 H   0  0  0  0  0  0  0  0  0  0  0  0
  151.7635  138.7408  155.6991 H   0  0  0  0  0  0  0  0  0  0  0  0
  152.2747  139.2326  154.0681 H   0  0  0  0  0  0  0  0  0  0  0  0
  149.5738  142.5245  155.1187 H   0  0  0  0  0  0  0  0  0  0  0  0
  147.1845  142.3940  154.3719 H   0  0  0  0  0  0  0  0  0  0  0  0
  146.3167  140.2409  153.5008 H   0  0  0  0  0  0  0  0  0  0  0  0
  148.5525  137.3940  152.8229 H   0  0  0  0  0  0  0  0  0  0  0  0
  147.5081  135.8072  152.3462 H   0  0  0  0  0  0  0  0  0  0  0  0
  145.2548  134.9332  153.8585 H   0  0  0  0  0  0  0  0  0  0  0  0
  146.5415  133.9112  151.2998 H   0  0  0  0  0  0  0  0  0  0  0  0
  146.7419  133.2804  152.9197 H   0  0  0  0  0  0  0  0  0  0  0  0
  145.1403  131.8806  151.6236 H   0  0  0  0  0  0  0  0  0  0  0  0
  144.3530  132.6243  152.9963 H   0  0  0  0  0  0  0  0  0  0  0  0
  144.1681  133.4756  150.0731 H   0  0  0  0  0  0  0  0  0  0  0  0
  142.8607  132.9469  151.1085 H   0  0  0  0  0  0  0  0  0  0  0  0
  142.6973  135.3089  151.0348 H   0  0  0  0  0  0  0  0  0  0  0  0
  1  2  1  0  0  0  0
  1 20  1  0  0  0  0
  1 21  1  0  0  0  0
  1 22  1  0  0  0  0
  2  3  1  0  0  0  0
  3  8  1  0  0  0  0
  3  4  2  0  0  0  0
  4  5  1  0  0  0  0
  5  6  2  0  0  0  0
  5 23  1  0  0  0  0
  6  7  1  0  0  0  0
  6 24  1  0  0  0  0
  7  8  2  0  0  0  0
  7 25  1  0  0  0  0
  8  9  1  0  0  0  0
  9 10  1  0  0  0  0
  9 26  1  0  0  0  0
 10 11  2  0  0  0  0
 10 12  1  0  0  0  0
 12 13  1  0  0  0  0
 12 27  1  0  0  0  0
 13 18  1  0  0  0  0
 13 14  1  0  0  0  0
 13 28  1  0  0  0  0
 14 15  1  0  0  0  0
 14 29  1  0  0  0  0
 14 30  1  0  0  0  0
 15 16  1  0  0  0  0
 15 31  1  0  0  0  0
 15 32  1  0  0  0  0
 16 17  1  0  0  0  0
 16 33  1  0  0  0  0
 16 34  1  0  0  0  0
 17 18  1  0  0  0  0
 17 35  1  0  0  0  0
 18 19  2  0  0  0  0
M  END
> <s_m_source_file>
AV-unprocessed.smi

> <i_m_source_file_index>
1838

> <i_lp_mmshare_version>
43012

> <i_f3d_flags>
0

> <s_epik_input>
W0NIM11PYzFuW2NIXVtjSF1bY0hdYzFbTkhdQyg9TylbTkhdW0NAQEhdMltDSDJdW0NIMl1bQ0gyXVtOSF1DMj1P

> <s_epik_cmdline>
J2VwaWtfcHl0aG9uJywgJy1waCcsICc3LjAnLCAnLXRuJywgJzgnLCAnLW1hJywgJzIwMCcsICctbWV0YWxfYmluZGluZycsICctaW1hZScsICc8aW5maWxlLm1hZT4nLCAnLW9tYWUnLCAnPG91dGZpbGUubWFlPic=

> <r_lp_tautomer_probability>
1

> <r_epik_Ionization_Penalty>
8.30645e-05

> <r_epik_Ionization_Penalty_Charging>
0

> <r_epik_Ionization_Penalty_Neutral>
8.30645e-05

> <r_epik_State_Penalty>
-0

> <r_epik_Charging_Adjusted_Penalty>
0

> <i_epik_Tot_Q>
0

> <i_epik_Tot_abs_Q>
0

> <r_epik_Metal_State_Penalty>
-0

> <b_epik_Metal_Only>
0

> <s_lp_Force_Field>
OPLS_2005

> <r_lp_Energy>
11.8898

> <b_lp_Chiralities_Consistent>
1

> <s_lp_Variant>
AV-unprocessed.smi:1838-1

> <Gold.Version>
5.8.1

> <Gold.Id.Protein>
6NUR|6NUR_protein|mol2

> <Gold.PLP.Fitness>
38.5147

> <Gold.PLP.PLP>
-27.5774

> <Gold.PLP.part.hbond>
-3.2200

> <Gold.PLP.part.metal>
0.0000

> <Gold.PLP.part.buried>
-2.7246

> <Gold.PLP.part.nonpolar>
-22.7027

> <Gold.PLP.part.repulsive>
1.5483

> <Gold.PLP.ligand.clash>
0.0000

> <Gold.PLP.ligand.torsion>
0.3429

> <Gold.PLP.Chemscore.Hbond>
2.8597

> <Gold.PLP.Chemscore.CHOScore>
1.0000

> <Gold.PLP.Chemscore.Metal>
0.0000

> <Gold.Chemscore.Hbonds>
donor molecule, donor type, donor heavy atom, donor atom, acceptor molecule, acceptor atom, score
      L1  H     9    26       P1  7948  0.99
      L1  H    12    27       P1  7948  0.98
      L1  H    17    35       P1 10186  0.01
      P1  H  7989  7998       L1     4  0.88
      L1  C     5    23       P1  8028  1.00

> <Gold.PLP.Chemscore.Internal.Correction>
0.0439

> <Gold.Rescore>
     Score         DG    S(hbond)    S(metal)    S(lipo)     H(rot)  DE(clash)    DE(int)     intcor
     12.53     -16.07       2.35        0.00      52.47       1.33       0.31       3.24       ----

> <Gold.Chemscore.Fitness>
12.5279

> <Gold.Chemscore.DG>
-16.0734

> <Gold.Chemscore.ZeroCoef>
-5.4800

> <Gold.Chemscore.Hbond>
2.3524

> <Gold.Chemscore.Metal>
0.0000

> <Gold.Chemscore.Lipo>
52.4700

> <Gold.Chemscore.Internal_Hbond>
0.0000

> <Gold.Chemscore.DEClash>
0.3089

> <Gold.Chemscore.DEInternal>
3.2366

> <Gold.Chemscore.Rot>
1.3292

> <Gold.Chemscore.Internal.Correction>
   9.000000E+99

> <Gold.Chemscore.Hbonds>
donor molecule, donor type, donor heavy atom, donor atom, acceptor molecule, acceptor atom, score
      L1  H     9    26       P1  7948  0.90
      L1  H    12    27       P1  7948  0.89
      P1  H  7989  7998       L1     4  0.24

> <Gold.Chemscore.Hbond.Weighted>
-7.8570

> <Gold.Chemscore.Metal.Weighted>
-0.0000

> <Gold.Chemscore.Lipo.Weighted>
-6.1390

> <Gold.Chemscore.Internal_Hbond.Weighted>
0.0000

> <Gold.Chemscore.DEClash.Weighted>
0.3089

> <Gold.Chemscore.DEInternal.Weighted>
3.2366

> <Gold.Chemscore.Rot.Weighted>
3.4027

> <Gold.Chemscore.Internal.Correction.Weighted>
   9.000000E+99

> <Gold.Protein.RotatedTorsions>
[ 6907 6896 6895 6894 ] final -155.47 input  -60.11 | X-H torsion
[ 7974 7965 7964 7962 ] final -117.57 input  175.53 | X-H torsion
[ 8008 7997 7996 7995 ] final   -4.65 input   59.86 | X-H torsion
[ 10167 10162 10161 10158 ] final -115.09 input  -65.29 | X-H torsion
[ 10718 10713 10712 10709 ] final  132.89 input   66.30 | X-H torsion
[ 10763 10752 10751 10750 ] final   25.51 input  -60.55 | X-H torsion
[ 11005 11000 10999 10996 ] final    2.84 input  -57.11 | X-H torsion

> <Gold.Protein.ActiveResidues>
 VAL166  LYS551  ARG553  GLY616  TRP617  ASP618  TYR619  PRO620  LYS621  CYS622 
 ASP623  PHE694  ASN695  SER759  ASP760  ASP761  ALA762  ILE779  LEU786  VAL792 
 PHE793  MET794  SER795  GLU796  ALA797  LYS798  CYS799  TRP800  GLU811  SER814 

> <Gold.Protein.RotatedAtoms>
  151.2730  133.4246  159.2622 H   0  0  0  0  0  0  0  0  0  0  0  0  # atno 6907 bound_to 6896
  151.0428  134.9619  159.8181 H   0  0  0  0  0  0  0  0  0  0  0  0  # atno 6908 bound_to 6896
  152.5368  134.2687  159.9016 H   0  0  0  0  0  0  0  0  0  0  0  0  # atno 6909 bound_to 6896
  145.0837  140.8443  143.4024 H   0  0  0  0  0  0  0  0  0  0  0  0  # atno 7974 bound_to 7965
  154.6121  140.2478  155.7656 H   0  0  0  0  0  0  0  0  0  0  0  0  # atno 8008 bound_to 7997
  156.2377  140.2944  156.0307 H   0  0  0  0  0  0  0  0  0  0  0  0  # atno 8009 bound_to 7997
  155.2035  140.0395  157.2912 H   0  0  0  0  0  0  0  0  0  0  0  0  # atno 8010 bound_to 7997
  140.0938  143.4675  152.1854 H   0  0  0  0  0  0  0  0  0  0  0  0  # atno 10167 bound_to 10162
  157.4827  131.1086  150.9661 H   0  0  0  0  0  0  0  0  0  0  0  0  # atno 10718 bound_to 10713
  153.0687  135.6581  154.0297 H   0  0  0  0  0  0  0  0  0  0  0  0  # atno 10763 bound_to 10752
  153.9947  135.2942  155.3410 H   0  0  0  0  0  0  0  0  0  0  0  0  # atno 10764 bound_to 10752
  154.7054  135.5227  153.8656 H   0  0  0  0  0  0  0  0  0  0  0  0  # atno 10765 bound_to 10752
  140.5998  133.9847  155.8126 H   0  0  0  0  0  0  0  0  0  0  0  0  # atno 11005 bound_to 11000
  145.1148  139.2733  143.5619 LP  0  0  0  0  0  0  0  0  0  0  0  0  # atno 17320 bound_to 7965
  146.3531  140.0755  142.8620 LP  0  0  0  0  0  0  0  0  0  0  0  0  # atno 17321 bound_to 7965
  139.5709  144.7462  151.3892 LP  0  0  0  0  0  0  0  0  0  0  0  0  # atno 17342 bound_to 10162
  140.7014  143.7621  150.7410 LP  0  0  0  0  0  0  0  0  0  0  0  0  # atno 17343 bound_to 10162
  157.0389  130.5741  149.5353 LP  0  0  0  0  0  0  0  0  0  0  0  0  # atno 17370 bound_to 10713
  156.0130  130.5223  150.8048 LP  0  0  0  0  0  0  0  0  0  0  0  0  # atno 17371 bound_to 10713
  141.0880  133.9961  157.3283 LP  0  0  0  0  0  0  0  0  0  0  0  0  # atno 17394 bound_to 11000
  139.9237  135.0201  156.8159 LP  0  0  0  0  0  0  0  0  0  0  0  0  # atno 17395 bound_to 11000

$$$$
