AV-unprocessed.smi:2501|AV-procd|sdf|9844|dock3
  -GOLD-   2272013473D 1   1.00000     0.00000
 Structure written by MMmdl.
 44 45  0  0  0  0  0  0  0  0  2 V2000
  151.4321  139.2201  155.4385 C   0  0  0  0  0  0  0  0  0  0  0  0
  150.2909  139.9367  154.7383 C   0  0  0  0  0  0  0  0  0  0  0  0
  150.3008  141.3472  154.6675 C   0  0  0  0  0  0  0  0  0  0  0  0
  149.2965  142.0043  154.0491 N   0  3  0  0  0  0  0  0  0  0  0  0
  148.2509  141.3699  153.4783 C   0  0  0  0  0  0  0  0  0  0  0  0
  148.1812  139.9632  153.5146 C   0  0  0  0  0  0  0  0  0  0  0  0
  149.2097  139.2300  154.1485 C   0  0  0  0  0  0  0  0  0  0  0  0
  149.1217  137.7116  154.1840 C   0  0  0  0  0  0  0  0  0  0  0  0
  147.7239  137.2192  154.5843 C   0  0  0  0  0  0  0  0  0  0  0  0
  146.9887  136.7602  153.4135 N   0  0  0  0  0  0  0  0  0  0  0  0
  145.6516  136.7856  153.2877 C   0  0  0  0  0  0  0  0  0  0  0  0
  144.9217  137.2261  154.1768 O   0  0  0  0  0  0  0  0  0  0  0  0
  145.1809  136.2915  152.1144 N   0  0  0  0  0  0  0  0  0  0  0  0
  145.9786  135.9453  150.9268 C   0  0  0  0  0  0  0  0  0  0  0  0
  146.0679  134.4110  150.8197 C   0  0  0  0  0  0  0  0  0  0  0  0
  144.6698  133.7392  150.7923 C   0  0  0  0  0  0  0  0  0  0  0  0
  144.0702  134.0444  149.5453 O   0  0  0  0  0  0  0  0  0  0  0  0
  144.7765  132.1977  150.8808 C   0  0  0  0  0  0  0  0  0  0  0  0
  143.5729  131.6444  150.7280 F   0  0  0  0  0  0  0  0  0  0  0  0
  145.5760  131.7242  149.9241 F   0  0  0  0  0  0  0  0  0  0  0  0
  145.2545  131.8292  152.0704 F   0  0  0  0  0  0  0  0  0  0  0  0
  143.7564  134.3141  151.9062 C   0  0  0  0  0  0  0  0  0  0  0  0
  143.7895  135.8542  151.9564 C   0  0  0  0  0  0  0  0  0  0  0  0
  152.1113  139.9294  155.9125 H   0  0  0  0  0  0  0  0  0  0  0  0
  152.0082  138.6315  154.7242 H   0  0  0  0  0  0  0  0  0  0  0  0
  151.0557  138.5536  156.2142 H   0  0  0  0  0  0  0  0  0  0  0  0
  151.0791  141.9693  155.0855 H   0  0  0  0  0  0  0  0  0  0  0  0
  147.5076  142.0015  153.0139 H   0  0  0  0  0  0  0  0  0  0  0  0
  147.3438  139.4534  153.0603 H   0  0  0  0  0  0  0  0  0  0  0  0
  149.3785  137.3222  153.1978 H   0  0  0  0  0  0  0  0  0  0  0  0
  149.8739  137.3102  154.8633 H   0  0  0  0  0  0  0  0  0  0  0  0
  147.8089  136.4105  155.3114 H   0  0  0  0  0  0  0  0  0  0  0  0
  147.1614  138.0220  155.0627 H   0  0  0  0  0  0  0  0  0  0  0  0
  147.5291  136.3903  152.6450 H   0  0  0  0  0  0  0  0  0  0  0  0
  145.4950  136.3555  150.0391 H   0  0  0  0  0  0  0  0  0  0  0  0
  146.9801  136.3750  150.9260 H   0  0  0  0  0  0  0  0  0  0  0  0
  146.6410  134.1341  149.9339 H   0  0  0  0  0  0  0  0  0  0  0  0
  146.6346  134.0383  151.6739 H   0  0  0  0  0  0  0  0  0  0  0  0
  143.1568  134.2384  149.6922 H   0  0  0  0  0  0  0  0  0  0  0  0
  142.7302  133.9701  151.7720 H   0  0  0  0  0  0  0  0  0  0  0  0
  144.0786  133.9298  152.8748 H   0  0  0  0  0  0  0  0  0  0  0  0
  143.1410  136.2125  152.7571 H   0  0  0  0  0  0  0  0  0  0  0  0
  143.3772  136.2737  151.0376 H   0  0  0  0  0  0  0  0  0  0  0  0
  149.3291  143.0235  154.0125 H   0  0  0  0  0  0  0  0  0  0  0  0
  1  2  1  0  0  0  0
  1 24  1  0  0  0  0
  1 25  1  0  0  0  0
  1 26  1  0  0  0  0
  2  7  1  0  0  0  0
  2  3  2  0  0  0  0
  3  4  1  0  0  0  0
  3 27  1  0  0  0  0
  4  5  2  0  0  0  0
  4 44  1  0  0  0  0
  5  6  1  0  0  0  0
  5 28  1  0  0  0  0
  6  7  2  0  0  0  0
  6 29  1  0  0  0  0
  7  8  1  0  0  0  0
  8  9  1  0  0  0  0
  8 30  1  0  0  0  0
  8 31  1  0  0  0  0
  9 10  1  0  0  0  0
  9 32  1  0  0  0  0
  9 33  1  0  0  0  0
 10 11  1  0  0  0  0
 10 34  1  0  0  0  0
 11 12  2  0  0  0  0
 11 13  1  0  0  0  0
 13 23  1  0  0  0  0
 13 14  1  0  0  0  0
 14 15  1  0  0  0  0
 14 35  1  0  0  0  0
 14 36  1  0  0  0  0
 15 16  1  0  0  0  0
 15 37  1  0  0  0  0
 15 38  1  0  0  0  0
 16 17  1  0  0  0  0
 16 18  1  0  0  0  0
 16 22  1  0  0  0  0
 17 39  1  0  0  0  0
 18 19  1  0  0  0  0
 18 20  1  0  0  0  0
 18 21  1  0  0  0  0
 22 23  1  0  0  0  0
 22 40  1  0  0  0  0
 22 41  1  0  0  0  0
 23 42  1  0  0  0  0
 23 43  1  0  0  0  0
M  CHG  1   4   1
M  END
> <s_m_source_file>
AV-unprocessed.smi

> <i_m_source_file_index>
2501

> <i_lp_mmshare_version>
43012

> <i_f3d_flags>
0

> <s_epik_input>
W0NIM11jMVtjSF1uW2NIXVtjSF1jMVtDSDJdW0NIMl1bTkhdQyg9TylOKFtDSDJdW0NIMl0yKVtDSDJdW0NIMl1DMihbT0hdKUMoRikoRilG

> <s_epik_cmdline>
J2VwaWtfcHl0aG9uJywgJy1waCcsICc3LjAnLCAnLXRuJywgJzgnLCAnLW1hJywgJzIwMCcsICctbWV0YWxfYmluZGluZycsICctaW1hZScsICc8aW5maWxlLm1hZT4nLCAnLW9tYWUnLCAnPG91dGZpbGUubWFlPic=

> <r_epik_Ionization_Penalty>
1.07295

> <r_epik_Ionization_Penalty_Charging>
1.07289

> <r_epik_Ionization_Penalty_Neutral>
5.75735e-05

> <r_epik_State_Penalty>
1.12763

> <r_epik_Charging_Adjusted_Penalty>
2.20053

> <i_epik_Tot_Q>
1

> <i_epik_Tot_abs_Q>
1

> <r_epik_Metal_State_Penalty>
1.21871

> <b_epik_Metal_Only>
0

> <s_lp_Force_Field>
OPLS_2005

> <r_lp_Energy>
44.1439

> <b_lp_Chiralities_Consistent>
1

> <s_lp_Variant>
AV-unprocessed.smi:2501-2

> <Gold.Version>
5.8.1

> <Gold.Id.Protein>
6NUR|6NUR_protein|mol2

> <Gold.PLP.Fitness>
53.2079

> <Gold.PLP.PLP>
-42.7754

> <Gold.PLP.part.hbond>
-4.0000

> <Gold.PLP.part.metal>
0.0000

> <Gold.PLP.part.buried>
-3.8301

> <Gold.PLP.part.nonpolar>
-35.5963

> <Gold.PLP.part.repulsive>
0.5813

> <Gold.PLP.ligand.clash>
0.0000

> <Gold.PLP.ligand.torsion>
0.8035

> <Gold.PLP.Chemscore.Hbond>
3.9913

> <Gold.PLP.Chemscore.CHOScore>
0.0000

> <Gold.PLP.Chemscore.Metal>
0.0000

> <Gold.Chemscore.Hbonds>
donor molecule, donor type, donor heavy atom, donor atom, acceptor molecule, acceptor atom, score
      L1  H     4    44       P1  8028  0.20
      L1  H    10    34       P1  7948  1.00
      L1  H    17    39       P1 10186  0.68

> <Gold.PLP.Chemscore.Internal.Correction>
0.0657

> <Gold.Rescore>
     Score         DG    S(hbond)    S(metal)    S(lipo)     H(rot)  DE(clash)    DE(int)     intcor
     17.69     -18.42       2.88        0.00      72.55       2.02       0.18       0.54       ----

> <Gold.Chemscore.Fitness>
17.6949

> <Gold.Chemscore.DG>
-18.4182

> <Gold.Chemscore.ZeroCoef>
-5.4800

> <Gold.Chemscore.Hbond>
2.8801

> <Gold.Chemscore.Metal>
0.0000

> <Gold.Chemscore.Lipo>
72.5541

> <Gold.Chemscore.Internal_Hbond>
0.0000

> <Gold.Chemscore.DEClash>
0.1791

> <Gold.Chemscore.DEInternal>
0.5442

> <Gold.Chemscore.Rot>
2.0196

> <Gold.Chemscore.Internal.Correction>
   9.000000E+99

> <Gold.Chemscore.Hbonds>
donor molecule, donor type, donor heavy atom, donor atom, acceptor molecule, acceptor atom, score
      L1  H     4    44       P1  8028  0.11
      L1  H    10    34       P1  7948  0.95
      L1  H    17    39       P1 10186  0.68

> <Gold.Chemscore.Hbond.Weighted>
-9.6196

> <Gold.Chemscore.Metal.Weighted>
-0.0000

> <Gold.Chemscore.Lipo.Weighted>
-8.4888

> <Gold.Chemscore.Internal_Hbond.Weighted>
0.0000

> <Gold.Chemscore.DEClash.Weighted>
0.1791

> <Gold.Chemscore.DEInternal.Weighted>
0.5442

> <Gold.Chemscore.Rot.Weighted>
5.1702

> <Gold.Chemscore.Internal.Correction.Weighted>
   9.000000E+99

> <Gold.Protein.RotatedTorsions>
[ 6907 6896 6895 6894 ] final -170.24 input  -60.11 | X-H torsion
[ 7974 7965 7964 7962 ] final  156.33 input  175.53 | X-H torsion
[ 8008 7997 7996 7995 ] final  -33.40 input   59.86 | X-H torsion
[ 10167 10162 10161 10158 ] final  -49.74 input  -65.29 | X-H torsion
[ 10718 10713 10712 10709 ] final   76.91 input   66.30 | X-H torsion
[ 10763 10752 10751 10750 ] final   35.34 input  -60.55 | X-H torsion
[ 11005 11000 10999 10996 ] final   17.85 input  -57.11 | X-H torsion

> <Gold.Protein.ActiveResidues>
 VAL166  LYS551  ARG553  GLY616  TRP617  ASP618  TYR619  PRO620  LYS621  CYS622 
 ASP623  PHE694  ASN695  SER759  ASP760  ASP761  ALA762  ILE779  LEU786  VAL792 
 PHE793  MET794  SER795  GLU796  ALA797  LYS798  CYS799  TRP800  GLU811  SER814 

> <Gold.Protein.RotatedAtoms>
  151.5046  133.3497  159.2874 H   0  0  0  0  0  0  0  0  0  0  0  0  # atno 6907 bound_to 6896
  150.8751  134.8135  159.7195 H   0  0  0  0  0  0  0  0  0  0  0  0  # atno 6908 bound_to 6896
  152.4725  134.4935  159.9754 H   0  0  0  0  0  0  0  0  0  0  0  0  # atno 6909 bound_to 6896
  144.7969  139.7189  143.6198 H   0  0  0  0  0  0  0  0  0  0  0  0  # atno 7974 bound_to 7965
  154.4150  140.1712  156.1881 H   0  0  0  0  0  0  0  0  0  0  0  0  # atno 8008 bound_to 7997
  155.9626  140.3392  155.6480 H   0  0  0  0  0  0  0  0  0  0  0  0  # atno 8009 bound_to 7997
  155.6729  140.0714  157.2504 H   0  0  0  0  0  0  0  0  0  0  0  0  # atno 8010 bound_to 7997
  140.6671  143.2685  151.4258 H   0  0  0  0  0  0  0  0  0  0  0  0  # atno 10167 bound_to 10162
  157.6691  130.9796  150.1564 H   0  0  0  0  0  0  0  0  0  0  0  0  # atno 10718 bound_to 10713
  153.0123  135.6336  154.1811 H   0  0  0  0  0  0  0  0  0  0  0  0  # atno 10763 bound_to 10752
  154.1553  135.2826  155.3126 H   0  0  0  0  0  0  0  0  0  0  0  0  # atno 10764 bound_to 10752
  154.6023  135.5583  153.7447 H   0  0  0  0  0  0  0  0  0  0  0  0  # atno 10765 bound_to 10752
  140.4314  134.1416  155.7681 H   0  0  0  0  0  0  0  0  0  0  0  0  # atno 11005 bound_to 11000
  146.2240  139.5689  142.9599 LP  0  0  0  0  0  0  0  0  0  0  0  0  # atno 17320 bound_to 7965
  145.5650  141.0400  143.2205 LP  0  0  0  0  0  0  0  0  0  0  0  0  # atno 17321 bound_to 7965
  139.5924  144.1471  152.2104 LP  0  0  0  0  0  0  0  0  0  0  0  0  # atno 17342 bound_to 10162
  140.0829  144.5685  150.7109 LP  0  0  0  0  0  0  0  0  0  0  0  0  # atno 17343 bound_to 10162
  156.2351  130.3685  149.8400 LP  0  0  0  0  0  0  0  0  0  0  0  0  # atno 17370 bound_to 10713
  156.6216  130.8628  151.3476 LP  0  0  0  0  0  0  0  0  0  0  0  0  # atno 17371 bound_to 10713
  141.1744  133.8544  157.1468 LP  0  0  0  0  0  0  0  0  0  0  0  0  # atno 17394 bound_to 11000
  140.0132  134.9979  157.0439 LP  0  0  0  0  0  0  0  0  0  0  0  0  # atno 17395 bound_to 11000

$$$$
