AV-unprocessed.smi:545|AV-procd|sdf|2882|dock3
  -GOLD-   2262023373D 1   1.00000     0.00000
 Structure written by MMmdl.
 35 36  0  0  0  0  0  0  0  0  2 V2000
  147.8106  141.4791  153.7444 C   0  0  0  0  0  0  0  0  0  0  0  0
  149.1511  141.7596  154.1036 O   0  0  0  0  0  0  0  0  0  0  0  0
  149.4448  141.3934  155.4422 C   0  0  0  0  0  0  0  0  0  0  0  0
  150.7899  142.0020  155.8622 C   0  0  0  0  0  0  0  0  0  0  0  0
  151.5024  141.1477  156.8135 N   0  0  0  0  0  0  0  0  0  0  0  0
  151.9301  141.4289  158.0802 C   0  0  0  0  0  0  0  0  0  0  0  0
  151.7676  142.6747  158.7006 N   0  0  0  0  0  0  0  0  0  0  0  0
  152.2326  142.9505  160.0535 C   0  0  0  0  0  0  0  0  0  0  0  0
  151.3364  143.9260  158.0908 C   0  0  0  0  0  0  0  0  0  0  0  0
  152.4904  140.3936  158.7110 N   0  0  0  0  0  0  0  0  0  0  0  0
  152.4324  139.3764  157.7741 C   0  0  0  0  0  0  0  0  0  0  0  0
  151.8329  139.7983  156.6297 C   0  0  0  0  0  0  0  0  0  0  0  0
  151.5860  138.9181  155.4634 C   0  0  0  0  0  0  0  0  0  0  0  0
  151.0042  139.3325  154.4629 O   0  0  0  0  0  0  0  0  0  0  0  0
  152.0670  137.6498  155.6596 N   0  5  0  0  0  0  0  0  0  0  0  0
  152.6905  137.1866  156.7976 C   0  0  0  0  0  0  0  0  0  0  0  0
  153.0955  136.0271  156.8912 O   0  0  0  0  0  0  0  0  0  0  0  0
  152.8721  138.0275  157.8634 N   0  0  0  0  0  0  0  0  0  0  0  0
  153.5231  137.5603  159.0908 C   0  0  0  0  0  0  0  0  0  0  0  0
  147.6409  141.7737  152.7088 H   0  0  0  0  0  0  0  0  0  0  0  0
  147.1109  142.0335  154.3711 H   0  0  0  0  0  0  0  0  0  0  0  0
  147.5928  140.4139  153.8324 H   0  0  0  0  0  0  0  0  0  0  0  0
  148.6537  141.7423  156.1079 H   0  0  0  0  0  0  0  0  0  0  0  0
  149.4875  140.3068  155.5292 H   0  0  0  0  0  0  0  0  0  0  0  0
  151.4180  142.1723  154.9900 H   0  0  0  0  0  0  0  0  0  0  0  0
  150.6373  142.9945  156.2690 H   0  0  0  0  0  0  0  0  0  0  0  0
  152.2915  142.0307  160.6362 H   0  0  0  0  0  0  0  0  0  0  0  0
  151.5536  143.6266  160.5751 H   0  0  0  0  0  0  0  0  0  0  0  0
  153.2248  143.4023  160.0309 H   0  0  0  0  0  0  0  0  0  0  0  0
  151.5368  143.9185  157.0192 H   0  0  0  0  0  0  0  0  0  0  0  0
  151.8667  144.7841  158.5066 H   0  0  0  0  0  0  0  0  0  0  0  0
  150.2690  144.0798  158.2507 H   0  0  0  0  0  0  0  0  0  0  0  0
  152.9874  136.7066  159.5089 H   0  0  0  0  0  0  0  0  0  0  0  0
  153.5635  138.3271  159.8638 H   0  0  0  0  0  0  0  0  0  0  0  0
  154.5486  137.2512  158.8831 H   0  0  0  0  0  0  0  0  0  0  0  0
  1  2  1  0  0  0  0
  1 20  1  0  0  0  0
  1 21  1  0  0  0  0
  1 22  1  0  0  0  0
  2  3  1  0  0  0  0
  3  4  1  0  0  0  0
  3 23  1  0  0  0  0
  3 24  1  0  0  0  0
  4  5  1  0  0  0  0
  4 25  1  0  0  0  0
  4 26  1  0  0  0  0
  5 12  1  0  0  0  0
  5  6  1  0  0  0  0
  6  7  1  0  0  0  0
  6 10  2  0  0  0  0
  7  8  1  0  0  0  0
  7  9  1  0  0  0  0
  8 27  1  0  0  0  0
  8 28  1  0  0  0  0
  8 29  1  0  0  0  0
  9 30  1  0  0  0  0
  9 31  1  0  0  0  0
  9 32  1  0  0  0  0
 10 11  1  0  0  0  0
 11 18  1  0  0  0  0
 11 12  2  0  0  0  0
 12 13  1  0  0  0  0
 13 14  2  0  0  0  0
 13 15  1  0  0  0  0
 15 16  1  0  0  0  0
 16 17  2  0  0  0  0
 16 18  1  0  0  0  0
 18 19  1  0  0  0  0
 19 33  1  0  0  0  0
 19 34  1  0  0  0  0
 19 35  1  0  0  0  0
M  CHG  1  15  -1
M  END
> <s_m_source_file>
AV-unprocessed.smi

> <i_m_source_file_index>
545

> <i_lp_mmshare_version>
43012

> <i_f3d_flags>
0

> <s_epik_input>
W0NIM11PW0NIMl1bQ0gyXW4oYyhuMSlOKFtDSDNdKVtDSDNdKWMoYzEyKWMoPU8pW25IXWMoPU8pbjJbQ0gzXQ==

> <s_epik_cmdline>
J2VwaWtfcHl0aG9uJywgJy1waCcsICc3LjAnLCAnLXRuJywgJzgnLCAnLW1hJywgJzIwMCcsICctbWV0YWxfYmluZGluZycsICctaW1hZScsICc8aW5maWxlLm1hZT4nLCAnLW9tYWUnLCAnPG91dGZpbGUubWFlPic=

> <r_lp_tautomer_probability>
1

> <r_epik_Ionization_Penalty>
6.28808

> <r_epik_Ionization_Penalty_Charging>
0.078064

> <r_epik_Ionization_Penalty_Neutral>
6.21001

> <r_epik_State_Penalty>
6.20933

> <r_epik_Charging_Adjusted_Penalty>
6.2874

> <i_epik_Tot_Q>
-1

> <i_epik_Tot_abs_Q>
1

> <r_epik_Metal_State_Penalty>
2.14897

> <b_epik_Metal_Only>
1

> <s_lp_Force_Field>
OPLS_2005

> <r_lp_Energy>
31.5619

> <b_lp_Chiralities_Consistent>
1

> <s_lp_Variant>
AV-unprocessed.smi:545-2

> <Gold.Version>
5.8.1

> <Gold.Id.Protein>
6NUR|6NUR_protein|mol2

> <Gold.PLP.Fitness>
40.0340

> <Gold.PLP.PLP>
-32.8882

> <Gold.PLP.part.hbond>
-3.8338

> <Gold.PLP.part.metal>
0.0000

> <Gold.PLP.part.buried>
-5.6687

> <Gold.PLP.part.nonpolar>
-23.5022

> <Gold.PLP.part.repulsive>
0.3391

> <Gold.PLP.ligand.clash>
0.1827

> <Gold.PLP.ligand.torsion>
0.2854

> <Gold.PLP.Chemscore.Hbond>
2.5551

> <Gold.PLP.Chemscore.CHOScore>
0.0000

> <Gold.PLP.Chemscore.Metal>
0.0000

> <Gold.Chemscore.Hbonds>
donor molecule, donor type, donor heavy atom, donor atom, acceptor molecule, acceptor atom, score
      P1  H  7989  7998       L1    14  1.00
      P1  H  8011  8017       L1     2  0.50
      P1  H 10752 10764       L1    17  1.00

> <Gold.PLP.Chemscore.Internal.Correction>
0.2340

> <Gold.Rescore>
     Score         DG    S(hbond)    S(metal)    S(lipo)     H(rot)  DE(clash)    DE(int)     intcor
     12.08     -14.79       2.09        0.00      53.75       1.55       0.01       2.70       ----

> <Gold.Chemscore.Fitness>
12.0799

> <Gold.Chemscore.DG>
-14.7918

> <Gold.Chemscore.ZeroCoef>
-5.4800

> <Gold.Chemscore.Hbond>
2.0926

> <Gold.Chemscore.Metal>
0.0000

> <Gold.Chemscore.Lipo>
53.7528

> <Gold.Chemscore.Internal_Hbond>
0.0000

> <Gold.Chemscore.DEClash>
0.0143

> <Gold.Chemscore.DEInternal>
2.6976

> <Gold.Chemscore.Rot>
1.5494

> <Gold.Chemscore.Internal.Correction>
   9.000000E+99

> <Gold.Chemscore.Hbonds>
donor molecule, donor type, donor heavy atom, donor atom, acceptor molecule, acceptor atom, score
      P1  H  7989  7998       L1    14  0.99
      P1  H  8011  8017       L1     2  0.11
      P1  H 10752 10764       L1    17  0.85

> <Gold.Chemscore.Hbond.Weighted>
-6.9893

> <Gold.Chemscore.Metal.Weighted>
-0.0000

> <Gold.Chemscore.Lipo.Weighted>
-6.2891

> <Gold.Chemscore.Internal_Hbond.Weighted>
0.0000

> <Gold.Chemscore.DEClash.Weighted>
0.0143

> <Gold.Chemscore.DEInternal.Weighted>
2.6976

> <Gold.Chemscore.Rot.Weighted>
3.9666

> <Gold.Chemscore.Internal.Correction.Weighted>
   9.000000E+99

> <Gold.Protein.RotatedTorsions>
[ 6907 6896 6895 6894 ] final  138.59 input  -60.11 | X-H torsion
[ 7974 7965 7964 7962 ] final   85.16 input  175.53 | X-H torsion
[ 8008 7997 7996 7995 ] final  176.39 input   59.86 | X-H torsion
[ 10167 10162 10161 10158 ] final   30.44 input  -65.29 | X-H torsion
[ 10718 10713 10712 10709 ] final  143.67 input   66.30 | X-H torsion
[ 10763 10752 10751 10750 ] final    3.11 input  -60.55 | X-H torsion
[ 11005 11000 10999 10996 ] final -177.13 input  -57.11 | X-H torsion

> <Gold.Protein.ActiveResidues>
 VAL166  LYS551  ARG553  GLY616  TRP617  ASP618  TYR619  PRO620  LYS621  CYS622 
 ASP623  PHE694  ASN695  SER759  ASP760  ASP761  ALA762  ILE779  LEU786  VAL792 
 PHE793  MET794  SER795  GLU796  ALA797  LYS798  CYS799  TRP800  GLU811  SER814 

> <Gold.Protein.RotatedAtoms>
  152.2648  133.5329  159.5402 H   0  0  0  0  0  0  0  0  0  0  0  0  # atno 6907 bound_to 6896
  150.7138  134.0780  159.3897 H   0  0  0  0  0  0  0  0  0  0  0  0  # atno 6908 bound_to 6896
  151.8696  135.0494  160.0529 H   0  0  0  0  0  0  0  0  0  0  0  0  # atno 6909 bound_to 6896
  145.5891  139.2335  143.2309 H   0  0  0  0  0  0  0  0  0  0  0  0  # atno 7974 bound_to 7965
  156.0770  140.1385  156.9759 H   0  0  0  0  0  0  0  0  0  0  0  0  # atno 8008 bound_to 7997
  154.4563  140.0960  156.6817 H   0  0  0  0  0  0  0  0  0  0  0  0  # atno 8009 bound_to 7997
  155.5137  140.3454  155.4395 H   0  0  0  0  0  0  0  0  0  0  0  0  # atno 8010 bound_to 7997
  140.4677  144.0810  150.6229 H   0  0  0  0  0  0  0  0  0  0  0  0  # atno 10167 bound_to 10162
  157.3663  131.0972  151.0870 H   0  0  0  0  0  0  0  0  0  0  0  0  # atno 10718 bound_to 10713
  153.2874  135.6945  153.7326 H   0  0  0  0  0  0  0  0  0  0  0  0  # atno 10763 bound_to 10752
  153.6290  135.3413  155.3036 H   0  0  0  0  0  0  0  0  0  0  0  0  # atno 10764 bound_to 10752
  154.8513  135.4404  154.1946 H   0  0  0  0  0  0  0  0  0  0  0  0  # atno 10765 bound_to 10752
  140.4443  134.6402  157.4772 H   0  0  0  0  0  0  0  0  0  0  0  0  # atno 11005 bound_to 11000
  146.1660  140.6718  142.9255 LP  0  0  0  0  0  0  0  0  0  0  0  0  # atno 17320 bound_to 7965
  144.7359  140.4807  143.6904 LP  0  0  0  0  0  0  0  0  0  0  0  0  # atno 17321 bound_to 7965
  140.4015  143.2701  151.9941 LP  0  0  0  0  0  0  0  0  0  0  0  0  # atno 17342 bound_to 10162
  139.4814  144.5993  151.7634 LP  0  0  0  0  0  0  0  0  0  0  0  0  # atno 17343 bound_to 10162
  157.1991  130.6386  149.5732 LP  0  0  0  0  0  0  0  0  0  0  0  0  # atno 17370 bound_to 10713
  155.9747  130.4697  150.6403 LP  0  0  0  0  0  0  0  0  0  0  0  0  # atno 17371 bound_to 10713
  140.0049  134.6780  155.9471 LP  0  0  0  0  0  0  0  0  0  0  0  0  # atno 17394 bound_to 11000
  141.1692  133.6537  156.4589 LP  0  0  0  0  0  0  0  0  0  0  0  0  # atno 17395 bound_to 11000

$$$$
