AV-unprocessed.smi:1794|AV-procd|sdf|7236|dock5
  -GOLD-   22720 8483D 1   1.00000     0.00000
 Structure written by MMmdl.
 55 57  0  0  0  0  0  0  0  0  4 V2000
  147.7724  134.3544  159.5370 C   0  0  0  0  0  0  0  0  0  0  0  0
  147.5087  135.6529  160.3546 C   0  0  0  0  0  0  0  0  0  0  0  0
  148.7976  135.9198  161.1959 C   0  0  0  0  0  0  0  0  0  0  0  0
  147.2459  136.8891  159.4194 C   0  0  0  0  0  0  0  0  0  0  0  0
  148.2730  137.0290  158.3844 N   0  5  0  0  0  0  0  0  0  0  0  0
  149.2916  137.9272  158.4241 C   0  0  0  0  0  0  0  0  0  0  0  0
  150.4222  137.7699  158.8989 O   0  0  0  0  0  0  0  0  0  0  0  0
  148.9415  139.1057  157.8817 N   0  0  0  0  0  0  0  0  0  0  0  0
  149.7046  140.3020  157.7805 C   0  0  0  0  0  0  0  0  0  0  0  0
  150.9637  140.4217  158.4215 C   0  0  0  0  0  0  0  0  0  0  0  0
  151.6925  141.6215  158.3198 C   0  0  0  0  0  0  0  0  0  0  0  0
  151.1536  142.6823  157.5723 C   0  0  0  0  0  0  0  0  0  0  0  0
  149.9638  142.5291  156.9550 N   0  3  0  0  0  0  0  0  0  0  0  0
  149.2212  141.3942  157.0028 C   0  0  0  0  0  0  0  0  0  0  0  0
  147.9979  141.3792  156.2932 N   0  0  0  0  0  0  0  0  0  0  0  0
  146.8599  142.1608  156.7620 C   0  0  0  0  0  0  0  0  0  0  0  0
  145.8710  142.1561  155.5995 C   0  0  0  0  0  0  0  0  0  0  0  0
  146.7928  142.1785  154.3837 C   0  0  0  0  0  0  0  0  0  0  0  0
  148.0072  141.3595  154.8337 C   0  0  0  0  0  0  0  0  0  0  0  0
  146.2866  135.4893  161.2399 N   0  3  0  0  0  0  0  0  0  0  0  0
  146.2790  134.2955  162.1429 C   0  0  0  0  0  0  0  0  0  0  0  0
  144.8992  134.1122  162.7911 C   0  0  0  0  0  0  0  0  0  0  0  0
  144.5824  135.2740  163.5430 O   0  0  0  0  0  0  0  0  0  0  0  0
  144.4992  136.4239  162.7144 C   0  0  0  0  0  0  0  0  0  0  0  0
  145.8483  136.6838  162.0195 C   0  0  0  0  0  0  0  0  0  0  0  0
  148.7119  134.4020  158.9830 H   0  0  0  0  0  0  0  0  0  0  0  0
  146.9915  134.1308  158.8077 H   0  0  0  0  0  0  0  0  0  0  0  0
  147.8532  133.4911  160.1984 H   0  0  0  0  0  0  0  0  0  0  0  0
  149.6858  136.0623  160.5767 H   0  0  0  0  0  0  0  0  0  0  0  0
  149.0411  135.0709  161.8353 H   0  0  0  0  0  0  0  0  0  0  0  0
  148.7125  136.7999  161.8367 H   0  0  0  0  0  0  0  0  0  0  0  0
  146.2560  136.7882  158.9734 H   0  0  0  0  0  0  0  0  0  0  0  0
  147.1878  137.7862  160.0372 H   0  0  0  0  0  0  0  0  0  0  0  0
  147.9713  139.1829  157.6148 H   0  0  0  0  0  0  0  0  0  0  0  0
  151.3832  139.6037  158.9880 H   0  0  0  0  0  0  0  0  0  0  0  0
  152.6497  141.7247  158.8099 H   0  0  0  0  0  0  0  0  0  0  0  0
  151.6378  143.6391  157.4415 H   0  0  0  0  0  0  0  0  0  0  0  0
  146.4253  141.7306  157.6650 H   0  0  0  0  0  0  0  0  0  0  0  0
  147.1665  143.1849  156.9797 H   0  0  0  0  0  0  0  0  0  0  0  0
  145.2890  141.2333  155.6079 H   0  0  0  0  0  0  0  0  0  0  0  0
  145.1766  142.9966  155.6275 H   0  0  0  0  0  0  0  0  0  0  0  0
  146.3227  141.7792  153.4845 H   0  0  0  0  0  0  0  0  0  0  0  0
  147.0991  143.2045  154.1755 H   0  0  0  0  0  0  0  0  0  0  0  0
  148.9327  141.7649  154.4223 H   0  0  0  0  0  0  0  0  0  0  0  0
  147.9064  140.3271  154.4964 H   0  0  0  0  0  0  0  0  0  0  0  0
  146.5323  133.3827  161.6044 H   0  0  0  0  0  0  0  0  0  0  0  0
  147.0235  134.4153  162.9309 H   0  0  0  0  0  0  0  0  0  0  0  0
  144.1329  133.9207  162.0382 H   0  0  0  0  0  0  0  0  0  0  0  0
  144.9109  133.2527  163.4614 H   0  0  0  0  0  0  0  0  0  0  0  0
  143.7036  136.2967  161.9784 H   0  0  0  0  0  0  0  0  0  0  0  0
  144.2249  137.2807  163.3301 H   0  0  0  0  0  0  0  0  0  0  0  0
  146.6107  136.9415  162.7561 H   0  0  0  0  0  0  0  0  0  0  0  0
  145.7020  137.5523  161.3797 H   0  0  0  0  0  0  0  0  0  0  0  0
  145.5365  135.3328  160.5815 H   0  0  0  0  0  0  0  0  0  0  0  0
  149.6038  143.3133  156.4113 H   0  0  0  0  0  0  0  0  0  0  0  0
  1  2  1  0  0  0  0
  1 26  1  0  0  0  0
  1 27  1  0  0  0  0
  1 28  1  0  0  0  0
  2  3  1  0  0  0  0
  2  4  1  0  0  0  0
  2 20  1  0  0  0  0
  3 29  1  0  0  0  0
  3 30  1  0  0  0  0
  3 31  1  0  0  0  0
  4  5  1  0  0  0  0
  4 32  1  0  0  0  0
  4 33  1  0  0  0  0
  5  6  1  0  0  0  0
  6  7  2  0  0  0  0
  6  8  1  0  0  0  0
  8  9  1  0  0  0  0
  8 34  1  0  0  0  0
  9 14  1  0  0  0  0
  9 10  2  0  0  0  0
 10 11  1  0  0  0  0
 10 35  1  0  0  0  0
 11 12  2  0  0  0  0
 11 36  1  0  0  0  0
 12 13  1  0  0  0  0
 12 37  1  0  0  0  0
 13 14  2  0  0  0  0
 13 55  1  0  0  0  0
 14 15  1  0  0  0  0
 15 19  1  0  0  0  0
 15 16  1  0  0  0  0
 16 17  1  0  0  0  0
 16 38  1  0  0  0  0
 16 39  1  0  0  0  0
 17 18  1  0  0  0  0
 17 40  1  0  0  0  0
 17 41  1  0  0  0  0
 18 19  1  0  0  0  0
 18 42  1  0  0  0  0
 18 43  1  0  0  0  0
 19 44  1  0  0  0  0
 19 45  1  0  0  0  0
 20 25  1  0  0  0  0
 20 21  1  0  0  0  0
 20 54  1  0  0  0  0
 21 22  1  0  0  0  0
 21 46  1  0  0  0  0
 21 47  1  0  0  0  0
 22 23  1  0  0  0  0
 22 48  1  0  0  0  0
 22 49  1  0  0  0  0
 23 24  1  0  0  0  0
 24 25  1  0  0  0  0
 24 50  1  0  0  0  0
 24 51  1  0  0  0  0
 25 52  1  0  0  0  0
 25 53  1  0  0  0  0
M  CHG  1   5  -1
M  CHG  1  13   1
M  CHG  1  20   1
M  END
> <s_m_source_file>
AV-unprocessed.smi

> <i_m_source_file_index>
1794

> <i_lp_mmshare_version>
43012

> <i_f3d_flags>
0

> <s_epik_input>
W0NIMl0xW0NIMl1PW0NIMl1bQ0gyXU4xQyhbQ0gzXSkoW0NIM10pW0NIMl1bTkhdQyg9TylbTkhdYzJbY0hdW2NIXVtjSF1uYzJOM1tDSDJdW0NIMl1bQ0gyXVtDSDJdMw==

> <s_epik_cmdline>
J2VwaWtfcHl0aG9uJywgJy1waCcsICc3LjAnLCAnLXRuJywgJzgnLCAnLW1hJywgJzIwMCcsICctbWV0YWxfYmluZGluZycsICctaW1hZScsICc8aW5maWxlLm1hZT4nLCAnLW9tYWUnLCAnPG91dGZpbGUubWFlPic=

> <r_lp_tautomer_probability>
0.999994

> <r_epik_Ionization_Penalty>
8.57565

> <r_epik_Ionization_Penalty_Charging>
8.57565

> <r_epik_Ionization_Penalty_Neutral>
3.55275e-06

> <r_epik_State_Penalty>
8.56988

> <r_epik_Charging_Adjusted_Penalty>
17.1455

> <i_epik_Tot_Q>
1

> <i_epik_Tot_abs_Q>
3

> <r_epik_Metal_State_Penalty>
4.56715

> <b_epik_Metal_Only>
1

> <s_lp_Force_Field>
OPLS_2005

> <r_lp_Energy>
59.2957

> <b_lp_Chiralities_Consistent>
1

> <s_lp_Variant>
AV-unprocessed.smi:1794-5

> <Gold.Version>
5.8.1

> <Gold.Id.Protein>
6NUR|6NUR_protein|mol2

> <Gold.PLP.Fitness>
38.5976

> <Gold.PLP.PLP>
-34.4524

> <Gold.PLP.part.hbond>
-1.8694

> <Gold.PLP.part.metal>
0.0000

> <Gold.PLP.part.buried>
-6.7396

> <Gold.PLP.part.nonpolar>
-26.0584

> <Gold.PLP.part.repulsive>
0.3584

> <Gold.PLP.ligand.clash>
0.0608

> <Gold.PLP.ligand.torsion>
1.2057

> <Gold.PLP.Chemscore.Hbond>
2.0000

> <Gold.PLP.Chemscore.CHOScore>
0.0000

> <Gold.PLP.Chemscore.Metal>
0.0000

> <Gold.Chemscore.Hbonds>
donor molecule, donor type, donor heavy atom, donor atom, acceptor molecule, acceptor atom, score
      L1  H    13    55       P1  8028  2.00

> <Gold.PLP.Chemscore.Internal.Correction>
0.6174

> <Gold.Rescore>
     Score         DG    S(hbond)    S(metal)    S(lipo)     H(rot)  DE(clash)    DE(int)     intcor
     12.09     -14.71       1.00        0.00      85.45       1.60       0.00       2.62       ----

> <Gold.Chemscore.Fitness>
12.0870

> <Gold.Chemscore.DG>
-14.7093

> <Gold.Chemscore.ZeroCoef>
-5.4800

> <Gold.Chemscore.Hbond>
0.9998

> <Gold.Chemscore.Metal>
0.0000

> <Gold.Chemscore.Lipo>
85.4467

> <Gold.Chemscore.Internal_Hbond>
0.0000

> <Gold.Chemscore.DEClash>
0.0024

> <Gold.Chemscore.DEInternal>
2.6199

> <Gold.Chemscore.Rot>
1.6044

> <Gold.Chemscore.Internal.Correction>
   9.000000E+99

> <Gold.Chemscore.Hbonds>
donor molecule, donor type, donor heavy atom, donor atom, acceptor molecule, acceptor atom, score
      L1  H    13    55       P1  8028  1.00

> <Gold.Chemscore.Hbond.Weighted>
-3.3392

> <Gold.Chemscore.Metal.Weighted>
-0.0000

> <Gold.Chemscore.Lipo.Weighted>
-9.9973

> <Gold.Chemscore.Internal_Hbond.Weighted>
0.0000

> <Gold.Chemscore.DEClash.Weighted>
0.0024

> <Gold.Chemscore.DEInternal.Weighted>
2.6199

> <Gold.Chemscore.Rot.Weighted>
4.1072

> <Gold.Chemscore.Internal.Correction.Weighted>
   9.000000E+99

> <Gold.Protein.RotatedTorsions>
[ 6907 6896 6895 6894 ] final  175.37 input  -60.11 | X-H torsion
[ 7974 7965 7964 7962 ] final -178.82 input  175.53 | X-H torsion
[ 8008 7997 7996 7995 ] final   32.59 input   59.86 | X-H torsion
[ 10167 10162 10161 10158 ] final    1.12 input  -65.29 | X-H torsion
[ 10718 10713 10712 10709 ] final -163.94 input   66.30 | X-H torsion
[ 10763 10752 10751 10750 ] final  -46.59 input  -60.55 | X-H torsion
[ 11005 11000 10999 10996 ] final  107.57 input  -57.11 | X-H torsion

> <Gold.Protein.ActiveResidues>
 VAL166  LYS551  ARG553  GLY616  TRP617  ASP618  TYR619  PRO620  LYS621  CYS622 
 ASP623  PHE694  ASN695  SER759  ASP760  ASP761  ALA762  ILE779  LEU786  VAL792 
 PHE793  MET794  SER795  GLU796  ALA797  LYS798  CYS799  TRP800  GLU811  SER814 

> <Gold.Protein.RotatedAtoms>
  151.7373  133.3320  159.3356 H   0  0  0  0  0  0  0  0  0  0  0  0  # atno 6907 bound_to 6896
  150.7588  134.6309  159.6195 H   0  0  0  0  0  0  0  0  0  0  0  0  # atno 6908 bound_to 6896
  152.3553  134.6951  160.0275 H   0  0  0  0  0  0  0  0  0  0  0  0  # atno 6909 bound_to 6896
  144.7133  140.0810  143.6425 H   0  0  0  0  0  0  0  0  0  0  0  0  # atno 7974 bound_to 7965
  155.1249  140.3252  155.4488 H   0  0  0  0  0  0  0  0  0  0  0  0  # atno 8008 bound_to 7997
  156.2652  140.2020  156.6318 H   0  0  0  0  0  0  0  0  0  0  0  0  # atno 8009 bound_to 7997
  154.6656  140.0542  157.0097 H   0  0  0  0  0  0  0  0  0  0  0  0  # atno 8010 bound_to 7997
  140.6697  143.7082  150.7898 H   0  0  0  0  0  0  0  0  0  0  0  0  # atno 10167 bound_to 10162
  156.6319  130.8933  151.2979 H   0  0  0  0  0  0  0  0  0  0  0  0  # atno 10718 bound_to 10713
  154.0474  135.6636  153.4796 H   0  0  0  0  0  0  0  0  0  0  0  0  # atno 10763 bound_to 10752
  153.0477  135.5104  154.7783 H   0  0  0  0  0  0  0  0  0  0  0  0  # atno 10764 bound_to 10752
  154.6779  135.3040  154.9619 H   0  0  0  0  0  0  0  0  0  0  0  0  # atno 10765 bound_to 10752
  139.8830  134.9404  156.5839 H   0  0  0  0  0  0  0  0  0  0  0  0  # atno 11005 bound_to 11000
  145.9702  139.2864  143.1103 LP  0  0  0  0  0  0  0  0  0  0  0  0  # atno 17320 bound_to 7965
  145.9125  140.9170  143.0446 LP  0  0  0  0  0  0  0  0  0  0  0  0  # atno 17321 bound_to 7965
  140.0765  143.5010  152.2552 LP  0  0  0  0  0  0  0  0  0  0  0  0  # atno 17342 bound_to 10162
  139.5960  144.7567  151.3285 LP  0  0  0  0  0  0  0  0  0  0  0  0  # atno 17343 bound_to 10162
  157.7197  130.9543  150.1391 LP  0  0  0  0  0  0  0  0  0  0  0  0  # atno 17370 bound_to 10713
  156.2228  130.3675  149.8536 LP  0  0  0  0  0  0  0  0  0  0  0  0  # atno 17371 bound_to 10713
  140.8006  133.8508  155.8723 LP  0  0  0  0  0  0  0  0  0  0  0  0  # atno 17394 bound_to 11000
  140.9596  134.1673  157.4665 LP  0  0  0  0  0  0  0  0  0  0  0  0  # atno 17395 bound_to 11000

$$$$
