AV-unprocessed.smi:2513|AV-procd|sdf|9892|dock7
  -GOLD-   2272013533D 1   1.00000     0.00000
 Structure written by MMmdl.
 35 36  0  0  0  0  0  0  0  0  1 V2000
  145.8367  143.1525  153.5931 C   0  0  0  0  0  0  0  0  0  0  0  0
  147.0385  142.7473  154.2319 O   0  0  0  0  0  0  0  0  0  0  0  0
  147.4794  141.4531  154.0349 C   0  0  0  0  0  0  0  0  0  0  0  0
  146.8590  140.5405  153.1437 C   0  0  0  0  0  0  0  0  0  0  0  0
  147.3824  139.2430  153.0093 C   0  0  0  0  0  0  0  0  0  0  0  0
  148.5101  138.9000  153.7727 C   0  0  0  0  0  0  0  0  0  0  0  0
  149.1086  139.7562  154.6236 N   0  0  0  0  0  0  0  0  0  0  0  0
  148.6152  141.0121  154.7631 C   0  0  0  0  0  0  0  0  0  0  0  0
  149.1901  141.9746  155.6388 N   0  0  0  0  0  0  0  0  0  0  0  0
  150.2548  141.8390  156.4485 C   0  0  0  0  0  0  0  0  0  0  0  0
  150.9340  140.8191  156.5694 O   0  0  0  0  0  0  0  0  0  0  0  0
  150.4945  142.9710  157.1260 N   0  0  0  0  0  0  0  0  0  0  0  0
  151.5755  143.1628  158.0881 C   0  0  1  0  0  0  0  0  0  0  0  0
  151.3432  144.4583  158.8797 C   0  0  0  0  0  0  0  0  0  0  0  0
  152.3975  144.5941  159.9839 C   0  0  0  0  0  0  0  0  0  0  0  0
  152.4397  143.3222  160.8453 C   0  0  0  0  0  0  0  0  0  0  0  0
  152.6907  142.1886  160.0215 O   0  0  0  0  0  0  0  0  0  0  0  0
  151.6694  141.9634  159.0548 C   0  0  0  0  0  0  0  0  0  0  0  0
  145.6267  144.1912  153.8486 H   0  0  0  0  0  0  0  0  0  0  0  0
  144.9873  142.5539  153.9249 H   0  0  0  0  0  0  0  0  0  0  0  0
  145.9214  143.0908  152.5073 H   0  0  0  0  0  0  0  0  0  0  0  0
  145.9923  140.8090  152.5594 H   0  0  0  0  0  0  0  0  0  0  0  0
  146.9304  138.5287  152.3371 H   0  0  0  0  0  0  0  0  0  0  0  0
  148.9438  137.9136  153.6986 H   0  0  0  0  0  0  0  0  0  0  0  0
  148.7319  142.8739  155.6467 H   0  0  0  0  0  0  0  0  0  0  0  0
  149.8856  143.7598  156.9649 H   0  0  0  0  0  0  0  0  0  0  0  0
  152.5212  143.2562  157.5507 H   0  0  0  0  0  0  0  0  0  0  0  0
  151.3784  145.3238  158.2167 H   0  0  0  0  0  0  0  0  0  0  0  0
  150.3491  144.4470  159.3294 H   0  0  0  0  0  0  0  0  0  0  0  0
  153.3776  144.7626  159.5360 H   0  0  0  0  0  0  0  0  0  0  0  0
  152.1830  145.4642  160.6051 H   0  0  0  0  0  0  0  0  0  0  0  0
  153.2326  143.3996  161.5893 H   0  0  0  0  0  0  0  0  0  0  0  0
  151.5037  143.1895  161.3901 H   0  0  0  0  0  0  0  0  0  0  0  0
  150.7164  141.7892  159.5573 H   0  0  0  0  0  0  0  0  0  0  0  0
  151.9101  141.0513  158.5080 H   0  0  0  0  0  0  0  0  0  0  0  0
  1  2  1  0  0  0  0
  1 19  1  0  0  0  0
  1 20  1  0  0  0  0
  1 21  1  0  0  0  0
  2  3  1  0  0  0  0
  3  8  1  0  0  0  0
  3  4  2  0  0  0  0
  4  5  1  0  0  0  0
  4 22  1  0  0  0  0
  5  6  2  0  0  0  0
  5 23  1  0  0  0  0
  6  7  1  0  0  0  0
  6 24  1  0  0  0  0
  7  8  2  0  0  0  0
  8  9  1  0  0  0  0
  9 10  1  0  0  0  0
  9 25  1  0  0  0  0
 10 11  2  0  0  0  0
 10 12  1  0  0  0  0
 12 13  1  0  0  0  0
 12 26  1  0  0  0  0
 13 18  1  0  0  0  0
 13 14  1  0  0  0  0
 13 27  1  0  0  0  0
 14 15  1  0  0  0  0
 14 28  1  0  0  0  0
 14 29  1  0  0  0  0
 15 16  1  0  0  0  0
 15 30  1  0  0  0  0
 15 31  1  0  0  0  0
 16 17  1  0  0  0  0
 16 32  1  0  0  0  0
 16 33  1  0  0  0  0
 17 18  1  0  0  0  0
 18 34  1  0  0  0  0
 18 35  1  0  0  0  0
M  END
> <s_m_source_file>
AV-unprocessed.smi

> <i_m_source_file_index>
2513

> <i_lp_mmshare_version>
43012

> <i_f3d_flags>
0

> <s_epik_input>
W0NIM11PYzFbY0hdW2NIXVtjSF1uYzFbTkhdQyg9TylbTkhdW0NAQEhdMltDSDJdW0NIMl1bQ0gyXU9bQ0gyXTI=

> <s_epik_cmdline>
J2VwaWtfcHl0aG9uJywgJy1waCcsICc3LjAnLCAnLXRuJywgJzgnLCAnLW1hJywgJzIwMCcsICctbWV0YWxfYmluZGluZycsICctaW1hZScsICc8aW5maWxlLm1hZT4nLCAnLW9tYWUnLCAnPG91dGZpbGUubWFlPic=

> <r_lp_tautomer_probability>
1

> <r_epik_Ionization_Penalty>
3.98976e-05

> <r_epik_Ionization_Penalty_Charging>
0

> <r_epik_Ionization_Penalty_Neutral>
3.98976e-05

> <r_epik_State_Penalty>
-0

> <r_epik_Charging_Adjusted_Penalty>
0

> <i_epik_Tot_Q>
0

> <i_epik_Tot_abs_Q>
0

> <r_epik_Metal_State_Penalty>
-0

> <b_epik_Metal_Only>
0

> <s_lp_Force_Field>
OPLS_2005

> <r_lp_Energy>
12.9865

> <b_lp_Chiralities_Consistent>
1

> <s_lp_Variant>
AV-unprocessed.smi:2513-2

> <Gold.Version>
5.8.1

> <Gold.Id.Protein>
6NUR|6NUR_protein|mol2

> <Gold.PLP.Fitness>
43.9738

> <Gold.PLP.PLP>
-35.4140

> <Gold.PLP.part.hbond>
-2.2433

> <Gold.PLP.part.metal>
0.0000

> <Gold.PLP.part.buried>
-4.3596

> <Gold.PLP.part.nonpolar>
-29.7906

> <Gold.PLP.part.repulsive>
1.3536

> <Gold.PLP.ligand.clash>
0.0000

> <Gold.PLP.ligand.torsion>
0.1858

> <Gold.PLP.Chemscore.Hbond>
1.9760

> <Gold.PLP.Chemscore.CHOScore>
1.0000

> <Gold.PLP.Chemscore.Metal>
0.0000

> <Gold.Chemscore.Hbonds>
donor molecule, donor type, donor heavy atom, donor atom, acceptor molecule, acceptor atom, score
      L1  H     9    25       P1  8028  0.98
      L1  H    12    26       P1  8028  0.93
      L1  C     6    24       P1  7948  1.00

> <Gold.PLP.Chemscore.Internal.Correction>
0.0035

> <Gold.Rescore>
     Score         DG    S(hbond)    S(metal)    S(lipo)     H(rot)  DE(clash)    DE(int)     intcor
     16.08     -19.09       1.91        0.00      89.33       1.25       0.09       2.92       ----

> <Gold.Chemscore.Fitness>
16.0752

> <Gold.Chemscore.DG>
-19.0883

> <Gold.Chemscore.ZeroCoef>
-5.4800

> <Gold.Chemscore.Hbond>
1.9064

> <Gold.Chemscore.Metal>
0.0000

> <Gold.Chemscore.Lipo>
89.3289

> <Gold.Chemscore.Internal_Hbond>
0.0000

> <Gold.Chemscore.DEClash>
0.0898

> <Gold.Chemscore.DEInternal>
2.9234

> <Gold.Chemscore.Rot>
1.2542

> <Gold.Chemscore.Internal.Correction>
   9.000000E+99

> <Gold.Chemscore.Hbonds>
donor molecule, donor type, donor heavy atom, donor atom, acceptor molecule, acceptor atom, score
      L1  H     9    25       P1  8028  0.93
      L1  H    12    26       P1  8028  0.87

> <Gold.Chemscore.Hbond.Weighted>
-6.3675

> <Gold.Chemscore.Metal.Weighted>
-0.0000

> <Gold.Chemscore.Lipo.Weighted>
-10.4515

> <Gold.Chemscore.Internal_Hbond.Weighted>
0.0000

> <Gold.Chemscore.DEClash.Weighted>
0.0898

> <Gold.Chemscore.DEInternal.Weighted>
2.9234

> <Gold.Chemscore.Rot.Weighted>
3.2107

> <Gold.Chemscore.Internal.Correction.Weighted>
   9.000000E+99

> <Gold.Protein.RotatedTorsions>
[ 6907 6896 6895 6894 ] final  137.14 input  -60.11 | X-H torsion
[ 7974 7965 7964 7962 ] final  -79.27 input  175.53 | X-H torsion
[ 8008 7997 7996 7995 ] final -115.89 input   59.86 | X-H torsion
[ 10167 10162 10161 10158 ] final  -84.95 input  -65.29 | X-H torsion
[ 10718 10713 10712 10709 ] final  113.37 input   66.30 | X-H torsion
[ 10763 10752 10751 10750 ] final  159.20 input  -60.55 | X-H torsion
[ 11005 11000 10999 10996 ] final -117.06 input  -57.11 | X-H torsion

> <Gold.Protein.ActiveResidues>
 VAL166  LYS551  ARG553  GLY616  TRP617  ASP618  TYR619  PRO620  LYS621  CYS622 
 ASP623  PHE694  ASN695  SER759  ASP760  ASP761  ALA762  ILE779  LEU786  VAL792 
 PHE793  MET794  SER795  GLU796  ALA797  LYS798  CYS799  TRP800  GLU811  SER814 

> <Gold.Protein.RotatedAtoms>
  152.2815  133.5475  159.5500 H   0  0  0  0  0  0  0  0  0  0  0  0  # atno 6907 bound_to 6896
  150.7198  134.0557  159.3823 H   0  0  0  0  0  0  0  0  0  0  0  0  # atno 6908 bound_to 6896
  151.8468  135.0571  160.0505 H   0  0  0  0  0  0  0  0  0  0  0  0  # atno 6909 bound_to 6896
  145.5754  140.9458  143.1373 H   0  0  0  0  0  0  0  0  0  0  0  0  # atno 7974 bound_to 7965
  155.0592  140.0393  157.2571 H   0  0  0  0  0  0  0  0  0  0  0  0  # atno 8008 bound_to 7997
  154.7073  140.2685  155.6638 H   0  0  0  0  0  0  0  0  0  0  0  0  # atno 8009 bound_to 7997
  156.2779  140.2728  156.1704 H   0  0  0  0  0  0  0  0  0  0  0  0  # atno 8010 bound_to 7997
  140.4084  143.2633  151.9051 H   0  0  0  0  0  0  0  0  0  0  0  0  # atno 10167 bound_to 10162
  157.6342  131.0982  150.7030 H   0  0  0  0  0  0  0  0  0  0  0  0  # atno 10718 bound_to 10713
  154.2281  135.2779  155.2900 H   0  0  0  0  0  0  0  0  0  0  0  0  # atno 10763 bound_to 10752
  154.5647  135.5636  153.7043 H   0  0  0  0  0  0  0  0  0  0  0  0  # atno 10764 bound_to 10752
  153.0026  135.6306  154.2422 H   0  0  0  0  0  0  0  0  0  0  0  0  # atno 10765 bound_to 10752
  141.0380  133.9879  157.3040 H   0  0  0  0  0  0  0  0  0  0  0  0  # atno 11005 bound_to 11000
  144.7418  139.7427  143.7308 LP  0  0  0  0  0  0  0  0  0  0  0  0  # atno 17320 bound_to 7965
  146.1754  139.4923  142.9900 LP  0  0  0  0  0  0  0  0  0  0  0  0  # atno 17321 bound_to 7965
  139.4783  144.5562  151.8309 LP  0  0  0  0  0  0  0  0  0  0  0  0  # atno 17342 bound_to 10162
  140.4665  144.1648  150.5912 LP  0  0  0  0  0  0  0  0  0  0  0  0  # atno 17343 bound_to 10162
  156.7364  130.4725  149.5487 LP  0  0  0  0  0  0  0  0  0  0  0  0  # atno 17370 bound_to 10713
  156.1568  130.6347  151.0667 LP  0  0  0  0  0  0  0  0  0  0  0  0  # atno 17371 bound_to 10713
  139.9255  135.0201  156.8218 LP  0  0  0  0  0  0  0  0  0  0  0  0  # atno 17394 bound_to 11000
  140.6286  133.9927  155.7651 LP  0  0  0  0  0  0  0  0  0  0  0  0  # atno 17395 bound_to 11000

$$$$
