AV-unprocessed.smi:2649|AV-procd|sdf|10290|dock4
  -GOLD-   2272014303D 1   1.00000     0.00000
 Structure written by MMmdl.
 34 35  0  0  0  0  0  0  0  0  1 V2000
  151.1640  145.5872  160.0594 C   0  0  0  0  0  0  0  0  0  0  0  0
  152.4764  144.7981  159.0875 S   0  0  0  0  0  0  0  0  0  0  0  0
  152.8678  143.3617  160.1319 C   0  0  0  0  0  0  0  0  0  0  0  0
  152.5646  142.0609  159.4054 C   0  0  0  0  0  0  0  0  0  0  0  0
  151.7338  142.1697  158.3448 N   0  0  0  0  0  0  0  0  0  0  0  0
  151.3980  141.0621  157.6395 C   0  0  0  0  0  0  0  0  0  0  0  0
  150.5288  141.0790  156.5173 N   0  0  0  0  0  0  0  0  0  0  0  0
  150.5121  140.2452  155.4591 C   0  0  0  0  0  0  0  0  0  0  0  0
  151.3144  139.3258  155.2898 O   0  0  0  0  0  0  0  0  0  0  0  0
  149.4267  140.5143  154.4050 C   0  0  1  0  0  0  0  0  0  0  0  0
  148.4962  139.2987  154.1854 C   0  0  0  0  0  0  0  0  0  0  0  0
  147.4978  139.6340  153.2304 O   0  0  0  0  0  0  0  0  0  0  0  0
  146.7145  140.7368  153.6641 C   0  0  0  0  0  0  0  0  0  0  0  0
  147.6347  141.9511  153.8664 C   0  0  0  0  0  0  0  0  0  0  0  0
  148.6307  141.6212  154.8250 O   0  0  0  0  0  0  0  0  0  0  0  0
  151.9087  139.7921  157.9852 C   0  0  0  0  0  0  0  0  0  0  0  0
  152.7793  139.6730  159.0851 C   0  0  0  0  0  0  0  0  0  0  0  0
  153.1188  140.8268  159.8152 C   0  0  0  0  0  0  0  0  0  0  0  0
  154.1876  140.7035  161.1677 Cl  0  0  0  0  0  0  0  0  0  0  0  0
  150.7480  146.4310  159.5089 H   0  0  0  0  0  0  0  0  0  0  0  0
  151.5538  145.9580  161.0073 H   0  0  0  0  0  0  0  0  0  0  0  0
  150.3617  144.8781  160.2644 H   0  0  0  0  0  0  0  0  0  0  0  0
  153.9193  143.4047  160.4196 H   0  0  0  0  0  0  0  0  0  0  0  0
  152.2885  143.4165  161.0538 H   0  0  0  0  0  0  0  0  0  0  0  0
  149.8264  141.8043  156.5196 H   0  0  0  0  0  0  0  0  0  0  0  0
  149.9306  140.7669  153.4704 H   0  0  0  0  0  0  0  0  0  0  0  0
  149.0578  138.4448  153.8055 H   0  0  0  0  0  0  0  0  0  0  0  0
  148.0278  138.9854  155.1202 H   0  0  0  0  0  0  0  0  0  0  0  0
  145.9580  140.9552  152.9102 H   0  0  0  0  0  0  0  0  0  0  0  0
  146.1880  140.4878  154.5868 H   0  0  0  0  0  0  0  0  0  0  0  0
  148.0997  142.2492  152.9256 H   0  0  0  0  0  0  0  0  0  0  0  0
  147.0618  142.8052  154.2275 H   0  0  0  0  0  0  0  0  0  0  0  0
  151.6385  138.9142  157.4165 H   0  0  0  0  0  0  0  0  0  0  0  0
  153.1794  138.7093  159.3632 H   0  0  0  0  0  0  0  0  0  0  0  0
  1  2  1  0  0  0  0
  1 20  1  0  0  0  0
  1 21  1  0  0  0  0
  1 22  1  0  0  0  0
  2  3  1  0  0  0  0
  3  4  1  0  0  0  0
  3 23  1  0  0  0  0
  3 24  1  0  0  0  0
  4 18  1  0  0  0  0
  4  5  2  0  0  0  0
  5  6  1  0  0  0  0
  6  7  1  0  0  0  0
  6 16  2  0  0  0  0
  7  8  1  0  0  0  0
  7 25  1  0  0  0  0
  8  9  2  0  0  0  0
  8 10  1  0  0  0  0
 10 15  1  0  0  0  0
 10 11  1  0  0  0  0
 10 26  1  0  0  0  0
 11 12  1  0  0  0  0
 11 27  1  0  0  0  0
 11 28  1  0  0  0  0
 12 13  1  0  0  0  0
 13 14  1  0  0  0  0
 13 29  1  0  0  0  0
 13 30  1  0  0  0  0
 14 15  1  0  0  0  0
 14 31  1  0  0  0  0
 14 32  1  0  0  0  0
 16 17  1  0  0  0  0
 16 33  1  0  0  0  0
 17 18  2  0  0  0  0
 17 34  1  0  0  0  0
 18 19  1  0  0  0  0
M  END
> <s_m_source_file>
AV-unprocessed.smi

> <i_m_source_file_index>
2649

> <i_lp_mmshare_version>
43012

> <i_f3d_flags>
0

> <s_epik_input>
W0NIM11TW0NIMl1jMW5jKFtjSF1bY0hdYzFDbClbTkhdQyg9TylbQ0BASF0yW0NIMl1PW0NIMl1bQ0gyXU8y

> <s_epik_cmdline>
J2VwaWtfcHl0aG9uJywgJy1waCcsICc3LjAnLCAnLXRuJywgJzgnLCAnLW1hJywgJzIwMCcsICctbWV0YWxfYmluZGluZycsICctaW1hZScsICc8aW5maWxlLm1hZT4nLCAnLW9tYWUnLCAnPG91dGZpbGUubWFlPic=

> <r_lp_tautomer_probability>
1

> <r_epik_Ionization_Penalty>
9.71596e-06

> <r_epik_Ionization_Penalty_Charging>
0

> <r_epik_Ionization_Penalty_Neutral>
9.71596e-06

> <r_epik_State_Penalty>
-0

> <r_epik_Charging_Adjusted_Penalty>
0

> <i_epik_Tot_Q>
0

> <i_epik_Tot_abs_Q>
0

> <r_epik_Metal_State_Penalty>
-0

> <b_epik_Metal_Only>
0

> <s_lp_Force_Field>
OPLS_2005

> <r_lp_Energy>
11.632

> <b_lp_Chiralities_Consistent>
1

> <s_lp_Variant>
AV-unprocessed.smi:2649-2

> <Gold.Version>
5.8.1

> <Gold.Id.Protein>
6NUR|6NUR_protein|mol2

> <Gold.PLP.Fitness>
37.8645

> <Gold.PLP.PLP>
-39.4387

> <Gold.PLP.part.hbond>
0.0000

> <Gold.PLP.part.metal>
0.0000

> <Gold.PLP.part.buried>
-4.9978

> <Gold.PLP.part.nonpolar>
-34.5139

> <Gold.PLP.part.repulsive>
1.3805

> <Gold.PLP.ligand.clash>
0.0000

> <Gold.PLP.ligand.torsion>
0.7976

> <Gold.PLP.Chemscore.Hbond>
0.0000

> <Gold.PLP.Chemscore.CHOScore>
0.0000

> <Gold.PLP.Chemscore.Metal>
0.0000

> <Gold.PLP.Chemscore.Internal.Correction>
0.0210

> <Gold.Rescore>
     Score         DG    S(hbond)    S(metal)    S(lipo)     H(rot)  DE(clash)    DE(int)     intcor
     12.36     -14.40       0.00        0.00     105.62       1.34       0.03       2.01       ----

> <Gold.Chemscore.Fitness>
12.3560

> <Gold.Chemscore.DG>
-14.4042

> <Gold.Chemscore.ZeroCoef>
-5.4800

> <Gold.Chemscore.Hbond>
0.0000

> <Gold.Chemscore.Metal>
0.0000

> <Gold.Chemscore.Lipo>
105.6179

> <Gold.Chemscore.Internal_Hbond>
0.0000

> <Gold.Chemscore.DEClash>
0.0344

> <Gold.Chemscore.DEInternal>
2.0138

> <Gold.Chemscore.Rot>
1.3410

> <Gold.Chemscore.Internal.Correction>
   9.000000E+99

> <Gold.Chemscore.Hbond.Weighted>
-0.0000

> <Gold.Chemscore.Metal.Weighted>
-0.0000

> <Gold.Chemscore.Lipo.Weighted>
-12.3573

> <Gold.Chemscore.Internal_Hbond.Weighted>
0.0000

> <Gold.Chemscore.DEClash.Weighted>
0.0344

> <Gold.Chemscore.DEInternal.Weighted>
2.0138

> <Gold.Chemscore.Rot.Weighted>
3.4331

> <Gold.Chemscore.Internal.Correction.Weighted>
   9.000000E+99

> <Gold.Protein.RotatedTorsions>
[ 6907 6896 6895 6894 ] final  -83.37 input  -60.11 | X-H torsion
[ 7974 7965 7964 7962 ] final -106.03 input  175.53 | X-H torsion
[ 8008 7997 7996 7995 ] final  -43.59 input   59.86 | X-H torsion
[ 10167 10162 10161 10158 ] final -118.14 input  -65.29 | X-H torsion
[ 10718 10713 10712 10709 ] final   85.95 input   66.30 | X-H torsion
[ 10763 10752 10751 10750 ] final  -45.36 input  -60.55 | X-H torsion
[ 11005 11000 10999 10996 ] final   92.30 input  -57.11 | X-H torsion

> <Gold.Protein.ActiveResidues>
 VAL166  LYS551  ARG553  GLY616  TRP617  ASP618  TYR619  PRO620  LYS621  CYS622 
 ASP623  PHE694  ASN695  SER759  ASP760  ASP761  ALA762  ILE779  LEU786  VAL792 
 PHE793  MET794  SER795  GLU796  ALA797  LYS798  CYS799  TRP800  GLU811  SER814 

> <Gold.Protein.RotatedAtoms>
  150.6886  134.3523  159.4914 H   0  0  0  0  0  0  0  0  0  0  0  0  # atno 6907 bound_to 6896
  152.1362  134.9094  160.0565 H   0  0  0  0  0  0  0  0  0  0  0  0  # atno 6908 bound_to 6896
  152.0245  133.3877  159.4309 H   0  0  0  0  0  0  0  0  0  0  0  0  # atno 6909 bound_to 6896
  145.2229  140.9141  143.3249 H   0  0  0  0  0  0  0  0  0  0  0  0  # atno 7974 bound_to 7965
  154.3997  140.1444  156.3544 H   0  0  0  0  0  0  0  0  0  0  0  0  # atno 8008 bound_to 7997
  155.8239  140.3468  155.5510 H   0  0  0  0  0  0  0  0  0  0  0  0  # atno 8009 bound_to 7997
  155.8259  140.0905  157.1812 H   0  0  0  0  0  0  0  0  0  0  0  0  # atno 8010 bound_to 7997
  140.0608  143.4970  152.2033 H   0  0  0  0  0  0  0  0  0  0  0  0  # atno 10167 bound_to 10162
  157.6922  131.0195  150.2899 H   0  0  0  0  0  0  0  0  0  0  0  0  # atno 10718 bound_to 10713
  154.0272  135.6661  153.4777 H   0  0  0  0  0  0  0  0  0  0  0  0  # atno 10763 bound_to 10752
  153.0555  135.5058  154.7967 H   0  0  0  0  0  0  0  0  0  0  0  0  # atno 10764 bound_to 10752
  154.6900  135.3060  154.9457 H   0  0  0  0  0  0  0  0  0  0  0  0  # atno 10765 bound_to 10752
  139.8825  134.8725  156.3553 H   0  0  0  0  0  0  0  0  0  0  0  0  # atno 11005 bound_to 11000
  144.9748  139.3843  143.6291 LP  0  0  0  0  0  0  0  0  0  0  0  0  # atno 17320 bound_to 7965
  146.3371  139.8862  142.8816 LP  0  0  0  0  0  0  0  0  0  0  0  0  # atno 17321 bound_to 7965
  139.5895  144.7544  151.3436 LP  0  0  0  0  0  0  0  0  0  0  0  0  # atno 17342 bound_to 10162
  140.7173  143.7232  150.7680 LP  0  0  0  0  0  0  0  0  0  0  0  0  # atno 17343 bound_to 10162
  156.3431  130.3818  149.7392 LP  0  0  0  0  0  0  0  0  0  0  0  0  # atno 17370 bound_to 10713
  156.4894  130.8078  151.3088 LP  0  0  0  0  0  0  0  0  0  0  0  0  # atno 17371 bound_to 10713
  140.9566  133.7415  156.0344 LP  0  0  0  0  0  0  0  0  0  0  0  0  # atno 17394 bound_to 11000
  140.8040  134.3476  157.5431 LP  0  0  0  0  0  0  0  0  0  0  0  0  # atno 17395 bound_to 11000

$$$$
