AV-unprocessed.smi:1776|AV-procd|sdf|7173|dock1
  -GOLD-   22720 8413D 1   1.00000     0.00000
 Structure written by MMmdl.
 31 32  0  0  0  0  0  0  0  0  1 V2000
  148.8961  134.3218  158.5239 O   0  0  0  0  0  0  0  0  0  0  0  0
  147.7175  134.5505  158.7950 C   0  0  0  0  0  0  0  0  0  0  0  0
  146.6599  134.1361  158.0679 N   0  0  0  0  0  0  0  0  0  0  0  0
  146.6112  133.3876  156.8786 C   0  0  0  0  0  0  0  0  0  0  0  0
  147.6867  133.0342  156.1259 C   0  0  0  0  0  0  0  0  0  0  0  0
  147.5524  132.2632  154.9012 C   0  0  0  0  0  0  0  0  0  0  0  0
  148.7704  131.8134  154.1091 C   0  0  0  0  0  0  0  0  0  0  0  0
  148.8634  130.4834  154.0731 F   0  0  0  0  0  0  0  0  0  0  0  0
  148.6845  132.2581  152.8562 F   0  0  0  0  0  0  0  0  0  0  0  0
  149.8918  132.2969  154.6440 F   0  0  0  0  0  0  0  0  0  0  0  0
  146.3037  131.9025  154.5522 C   0  0  0  0  0  0  0  0  0  0  0  0
  145.1919  132.2743  155.3105 N   0  0  0  0  0  0  0  0  0  0  0  0
  145.2573  132.9945  156.4525 C   0  0  0  0  0  0  0  0  0  0  0  0
  144.2286  133.2810  157.0643 O   0  0  0  0  0  0  0  0  0  0  0  0
  147.3650  135.3763  160.0415 C   0  0  2  0  0  0  0  0  0  0  0  0
  148.5557  136.1994  160.5864 C   0  0  0  0  0  0  0  0  0  0  0  0
  148.1492  136.8964  161.7573 O   0  0  0  0  0  0  0  0  0  0  0  0
  147.7143  135.9990  162.7693 C   0  0  0  0  0  0  0  0  0  0  0  0
  146.5226  135.1876  162.2357 C   0  0  0  0  0  0  0  0  0  0  0  0
  146.9251  134.4880  161.0660 O   0  0  0  0  0  0  0  0  0  0  0  0
  144.2872  131.9763  154.9749 H   0  0  0  0  0  0  0  0  0  0  0  0
  145.7531  134.3811  158.4400 H   0  0  0  0  0  0  0  0  0  0  0  0
  148.6859  133.3248  156.4022 H   0  0  0  0  0  0  0  0  0  0  0  0
  146.0613  131.3079  153.6838 H   0  0  0  0  0  0  0  0  0  0  0  0
  146.5478  136.0477  159.7717 H   0  0  0  0  0  0  0  0  0  0  0  0
  149.4105  135.5591  160.8128 H   0  0  0  0  0  0  0  0  0  0  0  0
  148.8878  136.9317  159.8495 H   0  0  0  0  0  0  0  0  0  0  0  0
  148.5317  135.3408  163.0684 H   0  0  0  0  0  0  0  0  0  0  0  0
  147.4212  136.5694  163.6508 H   0  0  0  0  0  0  0  0  0  0  0  0
  146.1891  134.4679  162.9834 H   0  0  0  0  0  0  0  0  0  0  0  0
  145.6753  135.8385  162.0140 H   0  0  0  0  0  0  0  0  0  0  0  0
  1  2  2  0  0  0  0
  2  3  1  0  0  0  0
  2 15  1  0  0  0  0
  3  4  1  0  0  0  0
  3 22  1  0  0  0  0
  4 13  1  0  0  0  0
  4  5  2  0  0  0  0
  5  6  1  0  0  0  0
  5 23  1  0  0  0  0
  6  7  1  0  0  0  0
  6 11  2  0  0  0  0
  7  8  1  0  0  0  0
  7  9  1  0  0  0  0
  7 10  1  0  0  0  0
 11 12  1  0  0  0  0
 11 24  1  0  0  0  0
 12 21  1  0  0  0  0
 12 13  1  0  0  0  0
 13 14  2  0  0  0  0
 15 20  1  0  0  0  0
 15 16  1  0  0  0  0
 15 25  1  0  0  0  0
 16 17  1  0  0  0  0
 16 26  1  0  0  0  0
 16 27  1  0  0  0  0
 17 18  1  0  0  0  0
 18 19  1  0  0  0  0
 18 28  1  0  0  0  0
 18 29  1  0  0  0  0
 19 20  1  0  0  0  0
 19 30  1  0  0  0  0
 19 31  1  0  0  0  0
M  END
> <s_m_source_file>
AV-unprocessed.smi

> <i_m_source_file_index>
1776

> <i_lp_mmshare_version>
43012

> <i_f3d_flags>
0

> <s_epik_input>
TzFbQ0gyXVtDSDJdT1tDSDJdW0NASF0xQyg9TylbTkhdYzJbY0hdYyhDKEYpKEYpRilbY0hdW25IXWMyPU8=

> <s_epik_cmdline>
J2VwaWtfcHl0aG9uJywgJy1waCcsICc3LjAnLCAnLXRuJywgJzgnLCAnLW1hJywgJzIwMCcsICctbWV0YWxfYmluZGluZycsICctaW1hZScsICc8aW5maWxlLm1hZT4nLCAnLW9tYWUnLCAnPG91dGZpbGUubWFlPic=

> <r_lp_tautomer_probability>
0.999

> <r_epik_Ionization_Penalty>
0.0100875

> <r_epik_Ionization_Penalty_Charging>
0.0100873

> <r_epik_Ionization_Penalty_Neutral>
1.79075e-07

> <r_epik_State_Penalty>
0.00769562

> <r_epik_Charging_Adjusted_Penalty>
0.017783

> <i_epik_Tot_Q>
0

> <i_epik_Tot_abs_Q>
0

> <r_epik_Metal_State_Penalty>
0.325451

> <b_epik_Metal_Only>
0

> <s_lp_Force_Field>
OPLS_2005

> <r_lp_Energy>
23.697

> <b_lp_Chiralities_Consistent>
1

> <s_lp_Variant>
AV-unprocessed.smi:1776-1

> <Gold.Version>
5.8.1

> <Gold.Id.Protein>
6NUR|6NUR_protein|mol2

> <Gold.PLP.Fitness>
35.9847

> <Gold.PLP.PLP>
-28.0280

> <Gold.PLP.part.hbond>
-3.8933

> <Gold.PLP.part.metal>
0.0000

> <Gold.PLP.part.buried>
-2.3119

> <Gold.PLP.part.nonpolar>
-21.9769

> <Gold.PLP.part.repulsive>
0.1141

> <Gold.PLP.ligand.clash>
0.0000

> <Gold.PLP.ligand.torsion>
0.5171

> <Gold.PLP.Chemscore.Hbond>
2.9869

> <Gold.PLP.Chemscore.CHOScore>
0.0000

> <Gold.PLP.Chemscore.Metal>
0.0000

> <Gold.Chemscore.Hbonds>
donor molecule, donor type, donor heavy atom, donor atom, acceptor molecule, acceptor atom, score
      L1  H    12    21       P1 10957  1.00
      P1  H  6896  6907       L1     1  1.00
      P1  H  6931  6943       L1    17  1.00

> <Gold.PLP.Chemscore.Internal.Correction>
0.0303

> <Gold.Rescore>
     Score         DG    S(hbond)    S(metal)    S(lipo)     H(rot)  DE(clash)    DE(int)     intcor
     15.62     -17.47       2.83        0.00      43.52       1.00       0.30       1.55       ----

> <Gold.Chemscore.Fitness>
15.6171

> <Gold.Chemscore.DG>
-17.4698

> <Gold.Chemscore.ZeroCoef>
-5.4800

> <Gold.Chemscore.Hbond>
2.8318

> <Gold.Chemscore.Metal>
0.0000

> <Gold.Chemscore.Lipo>
43.5183

> <Gold.Chemscore.Internal_Hbond>
0.0000

> <Gold.Chemscore.DEClash>
0.3027

> <Gold.Chemscore.DEInternal>
1.5500

> <Gold.Chemscore.Rot>
1.0000

> <Gold.Chemscore.Internal.Correction>
   9.000000E+99

> <Gold.Chemscore.Hbonds>
donor molecule, donor type, donor heavy atom, donor atom, acceptor molecule, acceptor atom, score
      L1  H    12    21       P1 10957  0.49
      P1  H  6896  6907       L1     1  0.99
      P1  H  6931  6943       L1    17  0.69
      P1  H  6934  6947       L1    17  0.01

> <Gold.Chemscore.Hbond.Weighted>
-9.4582

> <Gold.Chemscore.Metal.Weighted>
-0.0000

> <Gold.Chemscore.Lipo.Weighted>
-5.0916

> <Gold.Chemscore.Internal_Hbond.Weighted>
0.0000

> <Gold.Chemscore.DEClash.Weighted>
0.3027

> <Gold.Chemscore.DEInternal.Weighted>
1.5500

> <Gold.Chemscore.Rot.Weighted>
2.5600

> <Gold.Chemscore.Internal.Correction.Weighted>
   9.000000E+99

> <Gold.Protein.RotatedTorsions>
[ 6907 6896 6895 6894 ] final  -91.98 input  -60.11 | X-H torsion
[ 7974 7965 7964 7962 ] final  -13.36 input  175.53 | X-H torsion
[ 8008 7997 7996 7995 ] final  -75.79 input   59.86 | X-H torsion
[ 10167 10162 10161 10158 ] final  -68.19 input  -65.29 | X-H torsion
[ 10718 10713 10712 10709 ] final -131.66 input   66.30 | X-H torsion
[ 10763 10752 10751 10750 ] final -151.37 input  -60.55 | X-H torsion
[ 11005 11000 10999 10996 ] final  -13.21 input  -57.11 | X-H torsion

> <Gold.Protein.ActiveResidues>
 VAL166  LYS551  ARG553  GLY616  TRP617  ASP618  TYR619  PRO620  LYS621  CYS622 
 ASP623  PHE694  ASN695  SER759  ASP760  ASP761  ALA762  ILE779  LEU786  VAL792 
 PHE793  MET794  SER795  GLU796  ALA797  LYS798  CYS799  TRP800  GLU811  SER814 

> <Gold.Protein.RotatedAtoms>
  150.6899  134.2193  159.4390 H   0  0  0  0  0  0  0  0  0  0  0  0  # atno 6907 bound_to 6896
  152.0150  134.9852  160.0578 H   0  0  0  0  0  0  0  0  0  0  0  0  # atno 6908 bound_to 6896
  152.1452  133.4453  159.4823 H   0  0  0  0  0  0  0  0  0  0  0  0  # atno 6909 bound_to 6896
  146.2117  140.3192  142.8389 H   0  0  0  0  0  0  0  0  0  0  0  0  # atno 7974 bound_to 7965
  154.5448  140.0738  156.8570 H   0  0  0  0  0  0  0  0  0  0  0  0  # atno 8008 bound_to 7997
  155.3109  140.3390  155.4226 H   0  0  0  0  0  0  0  0  0  0  0  0  # atno 8009 bound_to 7997
  156.1908  140.1685  156.8082 H   0  0  0  0  0  0  0  0  0  0  0  0  # atno 8010 bound_to 7997
  140.5526  143.2312  151.6882 H   0  0  0  0  0  0  0  0  0  0  0  0  # atno 10167 bound_to 10162
  156.2266  130.7012  151.0814 H   0  0  0  0  0  0  0  0  0  0  0  0  # atno 10718 bound_to 10713
  154.8062  135.3261  154.7425 H   0  0  0  0  0  0  0  0  0  0  0  0  # atno 10763 bound_to 10752
  153.8083  135.6898  153.4849 H   0  0  0  0  0  0  0  0  0  0  0  0  # atno 10764 bound_to 10752
  153.1809  135.4587  154.9971 H   0  0  0  0  0  0  0  0  0  0  0  0  # atno 10765 bound_to 10752
  140.7738  133.8417  155.9230 H   0  0  0  0  0  0  0  0  0  0  0  0  # atno 11005 bound_to 11000
  144.8932  140.7550  143.5913 LP  0  0  0  0  0  0  0  0  0  0  0  0  # atno 17320 bound_to 7965
  145.3116  139.1817  143.4636 LP  0  0  0  0  0  0  0  0  0  0  0  0  # atno 17321 bound_to 7965
  139.5034  144.3793  152.0392 LP  0  0  0  0  0  0  0  0  0  0  0  0  # atno 17342 bound_to 10162
  140.2911  144.3752  150.6088 LP  0  0  0  0  0  0  0  0  0  0  0  0  # atno 17343 bound_to 10162
  157.7113  131.0732  150.6489 LP  0  0  0  0  0  0  0  0  0  0  0  0  # atno 17370 bound_to 10713
  156.6554  130.4497  149.5705 LP  0  0  0  0  0  0  0  0  0  0  0  0  # atno 17371 bound_to 10713
  140.9548  134.1732  157.4700 LP  0  0  0  0  0  0  0  0  0  0  0  0  # atno 17394 bound_to 11000
  139.8752  134.9923  156.5589 LP  0  0  0  0  0  0  0  0  0  0  0  0  # atno 17395 bound_to 11000

$$$$
