AV-unprocessed.smi:3076|AV-procd|sdf|11727|dock5
  -GOLD-   2272017123D 1   1.00000     0.00000
 Structure written by MMmdl.
 20 20  0  0  0  0  0  0  0  0  1 V2000
  147.9287  138.7685  152.9419 N   0  0  0  0  0  0  0  0  0  0  0  0
  148.0301  139.3333  154.2963 C   0  0  0  0  0  0  0  0  0  0  0  0
  149.1922  140.3310  154.4421 C   0  0  2  0  0  0  0  0  0  0  0  0
  149.2676  141.1037  153.2602 O   0  0  0  0  0  0  0  0  0  0  0  0
  150.5008  139.6045  154.7090 C   0  0  0  0  0  0  0  0  0  0  0  0
  150.8067  138.3826  154.0706 C   0  0  0  0  0  0  0  0  0  0  0  0
  152.0284  137.7475  154.3654 C   0  0  0  0  0  0  0  0  0  0  0  0
  152.8965  138.3600  155.2905 C   0  0  0  0  0  0  0  0  0  0  0  0
  152.6155  139.5263  155.9102 N   0  0  0  0  0  0  0  0  0  0  0  0
  151.4416  140.1288  155.6219 C   0  0  0  0  0  0  0  0  0  0  0  0
  148.3968  139.3728  152.2681 H   0  0  0  0  0  0  0  0  0  0  0  0
  148.3881  137.8600  152.8994 H   0  0  0  0  0  0  0  0  0  0  0  0
  147.0970  139.8518  154.5190 H   0  0  0  0  0  0  0  0  0  0  0  0
  148.1168  138.5372  155.0366 H   0  0  0  0  0  0  0  0  0  0  0  0
  148.9939  141.0076  155.2748 H   0  0  0  0  0  0  0  0  0  0  0  0
  149.1215  140.5349  152.5199 H   0  0  0  0  0  0  0  0  0  0  0  0
  150.1172  137.9366  153.3688 H   0  0  0  0  0  0  0  0  0  0  0  0
  152.2928  136.8120  153.8952 H   0  0  0  0  0  0  0  0  0  0  0  0
  153.8408  137.8998  155.5410 H   0  0  0  0  0  0  0  0  0  0  0  0
  151.2488  141.0572  156.1393 H   0  0  0  0  0  0  0  0  0  0  0  0
  1  2  1  0  0  0  0
  1 11  1  0  0  0  0
  1 12  1  0  0  0  0
  2  3  1  0  0  0  0
  2 13  1  0  0  0  0
  2 14  1  0  0  0  0
  3  4  1  0  0  0  0
  3  5  1  0  0  0  0
  3 15  1  0  0  0  0
  4 16  1  0  0  0  0
  5 10  1  0  0  0  0
  5  6  2  0  0  0  0
  6  7  1  0  0  0  0
  6 17  1  0  0  0  0
  7  8  2  0  0  0  0
  7 18  1  0  0  0  0
  8  9  1  0  0  0  0
  8 19  1  0  0  0  0
  9 10  2  0  0  0  0
 10 20  1  0  0  0  0
M  END
> <s_m_source_file>
AV-unprocessed.smi

> <i_m_source_file_index>
3076

> <i_lp_mmshare_version>
43012

> <i_f3d_flags>
0

> <s_epik_input>
W05IMl1bQ0gyXVtDQEhdKFtPSF0pYzFbY0hdW2NIXVtjSF1uW2NIXTE=

> <s_epik_cmdline>
J2VwaWtfcHl0aG9uJywgJy1waCcsICc3LjAnLCAnLXRuJywgJzgnLCAnLW1hJywgJzIwMCcsICctbWV0YWxfYmluZGluZycsICctaW1hZScsICc8aW5maWxlLm1hZT4nLCAnLW9tYWUnLCAnPG91dGZpbGUubWFlPic=

> <r_epik_Ionization_Penalty>
2.22627

> <r_epik_Ionization_Penalty_Charging>
0

> <r_epik_Ionization_Penalty_Neutral>
2.22627

> <r_epik_State_Penalty>
2.36938

> <r_epik_Charging_Adjusted_Penalty>
2.36938

> <i_epik_Tot_Q>
0

> <i_epik_Tot_abs_Q>
0

> <r_epik_Metal_State_Penalty>
2.36785

> <b_epik_Metal_Only>
0

> <s_lp_Force_Field>
OPLS_2005

> <r_lp_Energy>
11.5599

> <b_lp_Chiralities_Consistent>
1

> <s_lp_Variant>
AV-unprocessed.smi:3076-3

> <Gold.Version>
5.8.1

> <Gold.Id.Protein>
6NUR|6NUR_protein|mol2

> <Gold.PLP.Fitness>
36.9060

> <Gold.PLP.PLP>
-24.4964

> <Gold.PLP.part.hbond>
-5.4714

> <Gold.PLP.part.metal>
0.0000

> <Gold.PLP.part.buried>
-0.7346

> <Gold.PLP.part.nonpolar>
-17.6799

> <Gold.PLP.part.repulsive>
0.0000

> <Gold.PLP.ligand.clash>
0.0000

> <Gold.PLP.ligand.torsion>
0.8379

> <Gold.PLP.Chemscore.Hbond>
4.6942

> <Gold.PLP.Chemscore.CHOScore>
0.0000

> <Gold.PLP.Chemscore.Metal>
0.0000

> <Gold.Chemscore.Hbonds>
donor molecule, donor type, donor heavy atom, donor atom, acceptor molecule, acceptor atom, score
      L1  H     1    11       P1  7957  1.00
      L1  H     1    12       P1  7948  0.99
      L1  H     4    16       P1  7957  0.92
      P1  H  7989  7998       L1     4  0.01
      P1  H  7997  8010       L1     9  0.95
      P1  H  8011  8017       L1     4  0.70

> <Gold.PLP.Chemscore.Internal.Correction>
0.0028

> <Gold.Rescore>
     Score         DG    S(hbond)    S(metal)    S(lipo)     H(rot)  DE(clash)    DE(int)     intcor
     17.68     -18.97       3.57        0.00      53.71       1.85       0.60       0.69       ----

> <Gold.Chemscore.Fitness>
17.6824

> <Gold.Chemscore.DG>
-18.9673

> <Gold.Chemscore.ZeroCoef>
-5.4800

> <Gold.Chemscore.Hbond>
3.5711

> <Gold.Chemscore.Metal>
0.0000

> <Gold.Chemscore.Lipo>
53.7136

> <Gold.Chemscore.Internal_Hbond>
0.0000

> <Gold.Chemscore.DEClash>
0.5958

> <Gold.Chemscore.DEInternal>
0.6891

> <Gold.Chemscore.Rot>
1.8455

> <Gold.Chemscore.Internal.Correction>
   9.000000E+99

> <Gold.Chemscore.Hbonds>
donor molecule, donor type, donor heavy atom, donor atom, acceptor molecule, acceptor atom, score
      L1  H     1    11       P1  7957  1.00
      L1  H     1    12       P1  7948  0.91
      L1  H     4    16       P1  7957  0.84
      P1  H  7997  8010       L1     9  0.22
      P1  H  8011  8017       L1     4  0.07

> <Gold.Chemscore.Hbond.Weighted>
-11.9273

> <Gold.Chemscore.Metal.Weighted>
-0.0000

> <Gold.Chemscore.Lipo.Weighted>
-6.2845

> <Gold.Chemscore.Internal_Hbond.Weighted>
0.0000

> <Gold.Chemscore.DEClash.Weighted>
0.5958

> <Gold.Chemscore.DEInternal.Weighted>
0.6891

> <Gold.Chemscore.Rot.Weighted>
4.7245

> <Gold.Chemscore.Internal.Correction.Weighted>
   9.000000E+99

> <Gold.Protein.RotatedTorsions>
[ 6907 6896 6895 6894 ] final   26.23 input  -60.11 | X-H torsion
[ 7974 7965 7964 7962 ] final   17.31 input  175.53 | X-H torsion
[ 8008 7997 7996 7995 ] final   85.14 input   59.86 | X-H torsion
[ 10167 10162 10161 10158 ] final  137.88 input  -65.29 | X-H torsion
[ 10718 10713 10712 10709 ] final -141.69 input   66.30 | X-H torsion
[ 10763 10752 10751 10750 ] final   53.99 input  -60.55 | X-H torsion
[ 11005 11000 10999 10996 ] final   10.18 input  -57.11 | X-H torsion

> <Gold.Protein.ActiveResidues>
 VAL166  LYS551  ARG553  GLY616  TRP617  ASP618  TYR619  PRO620  LYS621  CYS622 
 ASP623  PHE694  ASN695  SER759  ASP760  ASP761  ALA762  ILE779  LEU786  VAL792 
 PHE793  MET794  SER795  GLU796  ALA797  LYS798  CYS799  TRP800  GLU811  SER814 

> <Gold.Protein.RotatedAtoms>
  151.9844  135.0012  160.0558 H   0  0  0  0  0  0  0  0  0  0  0  0  # atno 6907 bound_to 6896
  152.1667  133.4612  159.4896 H   0  0  0  0  0  0  0  0  0  0  0  0  # atno 6908 bound_to 6896
  150.6895  134.1922  159.4332 H   0  0  0  0  0  0  0  0  0  0  0  0  # atno 6909 bound_to 6896
  146.2222  139.8621  142.8603 H   0  0  0  0  0  0  0  0  0  0  0  0  # atno 7974 bound_to 7965
  155.9462  140.3404  155.6369 H   0  0  0  0  0  0  0  0  0  0  0  0  # atno 8008 bound_to 7997
  155.6978  140.0756  157.2441 H   0  0  0  0  0  0  0  0  0  0  0  0  # atno 8009 bound_to 7997
  154.4112  140.1645  156.2144 H   0  0  0  0  0  0  0  0  0  0  0  0  # atno 8010 bound_to 7997
  139.5129  144.6385  151.5633 H   0  0  0  0  0  0  0  0  0  0  0  0  # atno 10167 bound_to 10162
  156.3370  130.7617  151.1746 H   0  0  0  0  0  0  0  0  0  0  0  0  # atno 10718 bound_to 10713
  152.9800  135.5760  154.4832 H   0  0  0  0  0  0  0  0  0  0  0  0  # atno 10763 bound_to 10752
  154.4377  135.2775  155.1871 H   0  0  0  0  0  0  0  0  0  0  0  0  # atno 10764 bound_to 10752
  154.3552  135.6200  153.5716 H   0  0  0  0  0  0  0  0  0  0  0  0  # atno 10765 bound_to 10752
  140.5173  134.0593  155.7835 H   0  0  0  0  0  0  0  0  0  0  0  0  # atno 11005 bound_to 11000
  145.2694  141.0103  143.3781 LP  0  0  0  0  0  0  0  0  0  0  0  0  # atno 17320 bound_to 7965
  144.9236  139.4382  143.6529 LP  0  0  0  0  0  0  0  0  0  0  0  0  # atno 17321 bound_to 7965
  140.6143  143.9378  150.6476 LP  0  0  0  0  0  0  0  0  0  0  0  0  # atno 17342 bound_to 10162
  140.2631  143.3509  152.1305 LP  0  0  0  0  0  0  0  0  0  0  0  0  # atno 17343 bound_to 10162
  157.7440  131.0465  150.4898 LP  0  0  0  0  0  0  0  0  0  0  0  0  # atno 17370 bound_to 10713
  156.5072  130.4131  149.6320 LP  0  0  0  0  0  0  0  0  0  0  0  0  # atno 17371 bound_to 10713
  141.1353  133.9232  157.2447 LP  0  0  0  0  0  0  0  0  0  0  0  0  # atno 17394 bound_to 11000
  139.9625  135.0150  156.9299 LP  0  0  0  0  0  0  0  0  0  0  0  0  # atno 17395 bound_to 11000

$$$$
