AV-unprocessed.smi:618|AV-procd|sdf|3077|dock6
  -GOLD-   22720 0 03D 1   1.00000     0.00000
 Structure written by MMmdl.
 41 43  0  0  0  0  0  0  0  0  2 V2000
  150.8604  140.6224  156.1028 O   0  0  0  0  0  0  0  0  0  0  0  0
  150.2374  141.6820  156.0534 C   0  0  0  0  0  0  0  0  0  0  0  0
  149.3087  141.9477  155.1239 N   0  0  0  0  0  0  0  0  0  0  0  0
  148.9140  141.0449  154.0453 C   0  0  0  0  0  0  0  0  0  0  0  0
  147.4502  140.5718  154.1570 C   0  0  1  0  0  0  0  0  0  0  0  0
  147.1209  139.3588  153.2664 C   0  0  0  0  0  0  0  0  0  0  0  0
  145.7034  138.9434  153.4172 N   0  3  1  0  0  0  0  0  0  0  0  0
  145.4424  137.6170  152.8153 C   0  0  0  0  0  0  0  0  0  0  0  0
  145.5129  136.5911  153.9616 C   0  0  0  0  0  0  0  0  0  0  0  0
  145.7038  137.4116  155.2426 C   0  0  0  0  0  0  0  0  0  0  0  0
  145.2823  138.8219  154.8302 C   0  0  1  0  0  0  0  0  0  0  0  0
  145.7936  139.9709  155.7229 C   0  0  0  0  0  0  0  0  0  0  0  0
  147.1746  140.2202  155.5066 O   0  0  0  0  0  0  0  0  0  0  0  0
  150.3756  142.7120  156.9060 N   0  0  0  0  0  0  0  0  0  0  0  0
  151.2451  142.8408  158.0240 C   0  0  0  0  0  0  0  0  0  0  0  0
  151.7492  141.7563  158.7833 C   0  0  0  0  0  0  0  0  0  0  0  0
  152.6138  142.0253  159.8619 C   0  0  0  0  0  0  0  0  0  0  0  0
  152.9484  143.3646  160.1394 C   0  0  0  0  0  0  0  0  0  0  0  0
  152.4853  144.4068  159.4184 N   0  0  0  0  0  0  0  0  0  0  0  0
  151.6568  144.1415  158.3861 C   0  0  0  0  0  0  0  0  0  0  0  0
  148.8386  142.8402  155.1651 H   0  0  0  0  0  0  0  0  0  0  0  0
  149.0875  141.5107  153.0737 H   0  0  0  0  0  0  0  0  0  0  0  0
  149.5758  140.1796  154.0863 H   0  0  0  0  0  0  0  0  0  0  0  0
  146.8125  141.4114  153.8736 H   0  0  0  0  0  0  0  0  0  0  0  0
  147.3133  139.5948  152.2193 H   0  0  0  0  0  0  0  0  0  0  0  0
  147.7704  138.5213  153.5258 H   0  0  0  0  0  0  0  0  0  0  0  0
  144.4369  137.6250  152.3930 H   0  0  0  0  0  0  0  0  0  0  0  0
  146.1312  137.3831  152.0019 H   0  0  0  0  0  0  0  0  0  0  0  0
  144.5896  136.0123  154.0055 H   0  0  0  0  0  0  0  0  0  0  0  0
  146.3350  135.8880  153.8237 H   0  0  0  0  0  0  0  0  0  0  0  0
  145.1203  137.0272  156.0797 H   0  0  0  0  0  0  0  0  0  0  0  0
  146.7544  137.4019  155.5370 H   0  0  0  0  0  0  0  0  0  0  0  0
  144.1911  138.8488  154.8407 H   0  0  0  0  0  0  0  0  0  0  0  0
  145.2289  140.8829  155.5231 H   0  0  0  0  0  0  0  0  0  0  0  0
  145.6342  139.7326  156.7747 H   0  0  0  0  0  0  0  0  0  0  0  0
  149.7466  143.4884  156.7634 H   0  0  0  0  0  0  0  0  0  0  0  0
  151.5056  140.7298  158.5610 H   0  0  0  0  0  0  0  0  0  0  0  0
  153.0141  141.2212  160.4614 H   0  0  0  0  0  0  0  0  0  0  0  0
  153.6093  143.6051  160.9590 H   0  0  0  0  0  0  0  0  0  0  0  0
  151.3087  145.0005  157.8310 H   0  0  0  0  0  0  0  0  0  0  0  0
  145.1314  139.6411  152.9628 H   0  0  0  0  0  0  0  0  0  0  0  0
  1  2  2  0  0  0  0
  2  3  1  0  0  0  0
  2 14  1  0  0  0  0
  3  4  1  0  0  0  0
  3 21  1  0  0  0  0
  4  5  1  0  0  0  0
  4 22  1  0  0  0  0
  4 23  1  0  0  0  0
  5 13  1  0  0  0  0
  5  6  1  0  0  0  0
  5 24  1  0  0  0  0
  6  7  1  0  0  0  0
  6 25  1  0  0  0  0
  6 26  1  0  0  0  0
  7 11  1  0  0  0  0
  7  8  1  0  0  0  0
  7 41  1  0  0  0  0
  8  9  1  0  0  0  0
  8 27  1  0  0  0  0
  8 28  1  0  0  0  0
  9 10  1  0  0  0  0
  9 29  1  0  0  0  0
  9 30  1  0  0  0  0
 10 11  1  0  0  0  0
 10 31  1  0  0  0  0
 10 32  1  0  0  0  0
 11 12  1  0  0  0  0
 11 33  1  0  0  0  0
 12 13  1  0  0  0  0
 12 34  1  0  0  0  0
 12 35  1  0  0  0  0
 14 15  1  0  0  0  0
 14 36  1  0  0  0  0
 15 20  1  0  0  0  0
 15 16  2  0  0  0  0
 16 17  1  0  0  0  0
 16 37  1  0  0  0  0
 17 18  2  0  0  0  0
 17 38  1  0  0  0  0
 18 19  1  0  0  0  0
 18 39  1  0  0  0  0
 19 20  2  0  0  0  0
 20 40  1  0  0  0  0
M  CHG  1   7   1
M  END
> <s_m_source_file>
AV-unprocessed.smi

> <i_m_source_file_index>
618

> <i_lp_mmshare_version>
43012

> <i_f3d_flags>
0

> <s_epik_input>
W2NIXTFuW2NIXVtjSF1bY0hdYzFbTkhdQyg9TylbTkhdW0NIMl1bQ0BIXShbQ0gyXTIpT1tDSDJdW0NAQEhdKE4yMylbQ0gyXVtDSDJdW0NIMl0z

> <s_epik_cmdline>
J2VwaWtfcHl0aG9uJywgJy1waCcsICc3LjAnLCAnLXRuJywgJzgnLCAnLW1hJywgJzIwMCcsICctbWV0YWxfYmluZGluZycsICctaW1hZScsICc8aW5maWxlLm1hZT4nLCAnLW9tYWUnLCAnPG91dGZpbGUubWFlPic=

> <r_epik_Ionization_Penalty>
0.111044

> <r_epik_Ionization_Penalty_Charging>
0.10673

> <r_epik_Ionization_Penalty_Neutral>
0.00431361

> <r_epik_State_Penalty>
0.0978747

> <r_epik_Charging_Adjusted_Penalty>
0.204605

> <i_epik_Tot_Q>
1

> <i_epik_Tot_abs_Q>
1

> <r_epik_Metal_State_Penalty>
0.0947591

> <b_epik_Metal_Only>
0

> <s_lp_Force_Field>
OPLS_2005

> <r_lp_Energy>
41.8914

> <b_lp_Chiralities_Consistent>
1

> <s_lp_Variant>
AV-unprocessed.smi:618-4

> <Gold.Version>
5.8.1

> <Gold.Id.Protein>
6NUR|6NUR_protein|mol2

> <Gold.PLP.Fitness>
43.8134

> <Gold.PLP.PLP>
-32.4618

> <Gold.PLP.part.hbond>
-3.0000

> <Gold.PLP.part.metal>
0.0000

> <Gold.PLP.part.buried>
-5.2757

> <Gold.PLP.part.nonpolar>
-25.4821

> <Gold.PLP.part.repulsive>
0.2788

> <Gold.PLP.ligand.clash>
0.0000

> <Gold.PLP.ligand.torsion>
0.2885

> <Gold.PLP.Chemscore.Hbond>
3.9760

> <Gold.PLP.Chemscore.CHOScore>
0.0000

> <Gold.PLP.Chemscore.Metal>
0.0000

> <Gold.Chemscore.Hbonds>
donor molecule, donor type, donor heavy atom, donor atom, acceptor molecule, acceptor atom, score
      L1  H     3    21       P1  8028  0.99
      L1  H     7    41       P1 10175  2.00
      L1  H    14    36       P1  8028  1.00

> <Gold.PLP.Chemscore.Internal.Correction>
0.0007

> <Gold.Rescore>
     Score         DG    S(hbond)    S(metal)    S(lipo)     H(rot)  DE(clash)    DE(int)     intcor
     21.36     -21.73       2.90        0.00      83.77       1.27       0.03       0.35       ----

> <Gold.Chemscore.Fitness>
21.3603

> <Gold.Chemscore.DG>
-21.7342

> <Gold.Chemscore.ZeroCoef>
-5.4800

> <Gold.Chemscore.Hbond>
2.9021

> <Gold.Chemscore.Metal>
0.0000

> <Gold.Chemscore.Lipo>
83.7685

> <Gold.Chemscore.Internal_Hbond>
0.0000

> <Gold.Chemscore.DEClash>
0.0261

> <Gold.Chemscore.DEInternal>
0.3477

> <Gold.Chemscore.Rot>
1.2656

> <Gold.Chemscore.Internal.Correction>
   9.000000E+99

> <Gold.Chemscore.Hbonds>
donor molecule, donor type, donor heavy atom, donor atom, acceptor molecule, acceptor atom, score
      L1  H     3    21       P1  8028  0.94
      L1  H     7    41       P1 10175  0.99
      L1  H    14    36       P1  8028  0.96

> <Gold.Chemscore.Hbond.Weighted>
-9.6931

> <Gold.Chemscore.Metal.Weighted>
-0.0000

> <Gold.Chemscore.Lipo.Weighted>
-9.8009

> <Gold.Chemscore.Internal_Hbond.Weighted>
0.0000

> <Gold.Chemscore.DEClash.Weighted>
0.0261

> <Gold.Chemscore.DEInternal.Weighted>
0.3477

> <Gold.Chemscore.Rot.Weighted>
3.2399

> <Gold.Chemscore.Internal.Correction.Weighted>
   9.000000E+99

> <Gold.Protein.RotatedTorsions>
[ 6907 6896 6895 6894 ] final   35.30 input  -60.11 | X-H torsion
[ 7974 7965 7964 7962 ] final   87.19 input  175.53 | X-H torsion
[ 8008 7997 7996 7995 ] final -168.22 input   59.86 | X-H torsion
[ 10167 10162 10161 10158 ] final  -34.45 input  -65.29 | X-H torsion
[ 10718 10713 10712 10709 ] final  165.75 input   66.30 | X-H torsion
[ 10763 10752 10751 10750 ] final   68.54 input  -60.55 | X-H torsion
[ 11005 11000 10999 10996 ] final -123.63 input  -57.11 | X-H torsion

> <Gold.Protein.ActiveResidues>
 VAL166  LYS551  ARG553  GLY616  TRP617  ASP618  TYR619  PRO620  LYS621  CYS622 
 ASP623  PHE694  ASN695  SER759  ASP760  ASP761  ALA762  ILE779  LEU786  VAL792 
 PHE793  MET794  SER795  GLU796  ALA797  LYS798  CYS799  TRP800  GLU811  SER814 

> <Gold.Protein.RotatedAtoms>
  152.1143  134.9252  160.0565 H   0  0  0  0  0  0  0  0  0  0  0  0  # atno 6907 bound_to 6896
  152.0417  133.3975  159.4348 H   0  0  0  0  0  0  0  0  0  0  0  0  # atno 6908 bound_to 6896
  150.6845  134.3328  159.4878 H   0  0  0  0  0  0  0  0  0  0  0  0  # atno 6909 bound_to 6896
  145.5622  139.2305  143.2453 H   0  0  0  0  0  0  0  0  0  0  0  0  # atno 7974 bound_to 7965
  155.8884  140.1020  157.1436 H   0  0  0  0  0  0  0  0  0  0  0  0  # atno 8008 bound_to 7997
  154.4012  140.1315  156.4348 H   0  0  0  0  0  0  0  0  0  0  0  0  # atno 8009 bound_to 7997
  155.7562  140.3464  155.5177 H   0  0  0  0  0  0  0  0  0  0  0  0  # atno 8010 bound_to 7997
  140.7185  143.3547  151.2083 H   0  0  0  0  0  0  0  0  0  0  0  0  # atno 10167 bound_to 10162
  157.0756  131.0378  151.2595 H   0  0  0  0  0  0  0  0  0  0  0  0  # atno 10718 bound_to 10713
  153.0240  135.5243  154.7150 H   0  0  0  0  0  0  0  0  0  0  0  0  # atno 10763 bound_to 10752
  154.6222  135.2890  155.0316 H   0  0  0  0  0  0  0  0  0  0  0  0  # atno 10764 bound_to 10752
  154.1298  135.6594  153.4972 H   0  0  0  0  0  0  0  0  0  0  0  0  # atno 10765 bound_to 10752
  140.9904  134.0547  157.3661 H   0  0  0  0  0  0  0  0  0  0  0  0  # atno 11005 bound_to 11000
  146.1843  140.6447  142.9175 LP  0  0  0  0  0  0  0  0  0  0  0  0  # atno 17320 bound_to 7965
  144.7477  140.5111  143.6824 LP  0  0  0  0  0  0  0  0  0  0  0  0  # atno 17321 bound_to 7965
  139.7086  143.9414  152.2937 LP  0  0  0  0  0  0  0  0  0  0  0  0  # atno 17342 bound_to 10162
  139.9131  144.6844  150.8541 LP  0  0  0  0  0  0  0  0  0  0  0  0  # atno 17343 bound_to 10162
  157.4842  130.7783  149.7443 LP  0  0  0  0  0  0  0  0  0  0  0  0  # atno 17370 bound_to 10713
  155.9938  130.3922  150.2886 LP  0  0  0  0  0  0  0  0  0  0  0  0  # atno 17371 bound_to 10713
  139.8990  135.0157  156.7173 LP  0  0  0  0  0  0  0  0  0  0  0  0  # atno 17394 bound_to 11000
  140.7049  133.9274  155.8047 LP  0  0  0  0  0  0  0  0  0  0  0  0  # atno 17395 bound_to 11000

$$$$
