AV-unprocessed.smi:3132|AV-procd|sdf|11932|dock6
  -GOLD-   2272017323D 1   1.00000     0.00000
 Structure written by MMmdl.
 34 35  0  0  0  0  0  0  0  0  2 V2000
  147.9789  141.6431  157.0438 C   0  0  0  0  0  0  0  0  0  0  0  0
  149.4320  141.5598  156.5577 C   0  0  1  0  0  0  0  0  0  0  0  0
  149.5154  141.6561  155.0186 C   0  0  0  0  0  0  0  0  0  0  0  0
  148.8281  140.5542  154.3365 N   0  0  0  0  0  0  0  0  0  0  0  0
  147.5847  140.5799  153.7577 C   0  0  0  0  0  0  0  0  0  0  0  0
  147.3736  139.3324  153.2297 C   0  0  0  0  0  0  0  0  0  0  0  0
  148.4930  138.5968  153.5138 N   0  3  0  0  0  0  0  0  0  0  0  0
  149.3750  139.3406  154.1894 C   0  0  0  0  0  0  0  0  0  0  0  0
  150.2073  142.6268  157.1896 N   0  0  0  0  0  0  0  0  0  0  0  0
  151.3291  142.4597  157.9085 C   0  0  0  0  0  0  0  0  0  0  0  0
  151.8257  141.3563  158.1396 O   0  0  0  0  0  0  0  0  0  0  0  0
  152.0115  143.7408  158.3992 C   0  0  1  0  0  0  0  0  0  0  0  0
  151.1417  145.0074  158.2904 C   0  0  0  0  0  0  0  0  0  0  0  0
  150.7511  145.2926  159.7266 C   0  0  0  0  0  0  0  0  0  0  0  0
  151.9642  144.7701  160.4829 C   0  0  0  0  0  0  0  0  0  0  0  0
  152.2936  143.5762  159.7887 O   0  0  0  0  0  0  0  0  0  0  0  0
  147.3752  140.8424  156.6155 H   0  0  0  0  0  0  0  0  0  0  0  0
  147.5188  142.5916  156.7644 H   0  0  0  0  0  0  0  0  0  0  0  0
  147.9216  141.5516  158.1292 H   0  0  0  0  0  0  0  0  0  0  0  0
  149.8190  140.5884  156.8709 H   0  0  0  0  0  0  0  0  0  0  0  0
  149.0658  142.5871  154.6696 H   0  0  0  0  0  0  0  0  0  0  0  0
  150.5547  141.6640  154.6867 H   0  0  0  0  0  0  0  0  0  0  0  0
  146.9633  141.4639  153.7554 H   0  0  0  0  0  0  0  0  0  0  0  0
  146.5339  138.9245  152.6861 H   0  0  0  0  0  0  0  0  0  0  0  0
  150.3431  139.0263  154.5366 H   0  0  0  0  0  0  0  0  0  0  0  0
  149.8788  143.5715  157.0483 H   0  0  0  0  0  0  0  0  0  0  0  0
  152.9467  143.8920  157.8572 H   0  0  0  0  0  0  0  0  0  0  0  0
  151.7417  145.8304  157.8995 H   0  0  0  0  0  0  0  0  0  0  0  0
  150.2732  144.9031  157.6384 H   0  0  0  0  0  0  0  0  0  0  0  0
  150.5500  146.3475  159.9159 H   0  0  0  0  0  0  0  0  0  0  0  0
  149.8635  144.7187  159.9974 H   0  0  0  0  0  0  0  0  0  0  0  0
  152.7966  145.4724  160.4145 H   0  0  0  0  0  0  0  0  0  0  0  0
  151.7572  144.5792  161.5362 H   0  0  0  0  0  0  0  0  0  0  0  0
  148.6367  137.6305  153.2485 H   0  0  0  0  0  0  0  0  0  0  0  0
  1  2  1  0  0  0  0
  1 17  1  0  0  0  0
  1 18  1  0  0  0  0
  1 19  1  0  0  0  0
  2  3  1  0  0  0  0
  2  9  1  0  0  0  0
  2 20  1  0  0  0  0
  3  4  1  0  0  0  0
  3 21  1  0  0  0  0
  3 22  1  0  0  0  0
  4  8  1  0  0  0  0
  4  5  1  0  0  0  0
  5  6  2  0  0  0  0
  5 23  1  0  0  0  0
  6  7  1  0  0  0  0
  6 24  1  0  0  0  0
  7  8  2  0  0  0  0
  7 34  1  0  0  0  0
  8 25  1  0  0  0  0
  9 10  1  0  0  0  0
  9 26  1  0  0  0  0
 10 11  2  0  0  0  0
 10 12  1  0  0  0  0
 12 16  1  0  0  0  0
 12 13  1  0  0  0  0
 12 27  1  0  0  0  0
 13 14  1  0  0  0  0
 13 28  1  0  0  0  0
 13 29  1  0  0  0  0
 14 15  1  0  0  0  0
 14 30  1  0  0  0  0
 14 31  1  0  0  0  0
 15 16  1  0  0  0  0
 15 32  1  0  0  0  0
 15 33  1  0  0  0  0
M  CHG  1   7   1
M  END
> <s_m_source_file>
AV-unprocessed.smi

> <i_m_source_file_index>
3132

> <i_lp_mmshare_version>
43012

> <i_f3d_flags>
0

> <s_epik_input>
W2NIXTFuW2NIXVtjSF1uMVtDSDJdW0NAQEhdKFtDSDNdKVtOSF1DKD1PKVtDQEBIXTJbQ0gyXVtDSDJdW0NIMl1PMg==

> <s_epik_cmdline>
J2VwaWtfcHl0aG9uJywgJy1waCcsICc3LjAnLCAnLXRuJywgJzgnLCAnLW1hJywgJzIwMCcsICctbWV0YWxfYmluZGluZycsICctaW1hZScsICc8aW5maWxlLm1hZT4nLCAnLW9tYWUnLCAnPG91dGZpbGUubWFlPic=

> <r_lp_tautomer_probability>
1

> <r_epik_Ionization_Penalty>
0.250802

> <r_epik_Ionization_Penalty_Charging>
0

> <r_epik_Ionization_Penalty_Neutral>
0.250802

> <r_epik_State_Penalty>
0.242139

> <r_epik_Charging_Adjusted_Penalty>
0.242139

> <i_epik_Tot_Q>
1

> <i_epik_Tot_abs_Q>
1

> <r_epik_Metal_State_Penalty>
0.533361

> <b_epik_Metal_Only>
0

> <s_lp_Force_Field>
OPLS_2005

> <r_lp_Energy>
20.1872

> <b_lp_Chiralities_Consistent>
1

> <s_lp_Variant>
AV-unprocessed.smi:3132-4

> <Gold.Version>
5.8.1

> <Gold.Id.Protein>
6NUR|6NUR_protein|mol2

> <Gold.PLP.Fitness>
42.7272

> <Gold.PLP.PLP>
-35.4170

> <Gold.PLP.part.hbond>
-3.0000

> <Gold.PLP.part.metal>
0.0000

> <Gold.PLP.part.buried>
-3.3964

> <Gold.PLP.part.nonpolar>
-29.7157

> <Gold.PLP.part.repulsive>
0.0605

> <Gold.PLP.ligand.clash>
0.0000

> <Gold.PLP.ligand.torsion>
0.5687

> <Gold.PLP.Chemscore.Hbond>
2.8089

> <Gold.PLP.Chemscore.CHOScore>
0.0000

> <Gold.PLP.Chemscore.Metal>
0.0000

> <Gold.Chemscore.Hbonds>
donor molecule, donor type, donor heavy atom, donor atom, acceptor molecule, acceptor atom, score
      L1  H     7    34       P1  7948  2.00
      L1  H     9    26       P1  8028  0.80

> <Gold.PLP.Chemscore.Internal.Correction>
0.0210

> <Gold.Rescore>
     Score         DG    S(hbond)    S(metal)    S(lipo)     H(rot)  DE(clash)    DE(int)     intcor
     14.83     -15.44       1.83        0.00      75.15       1.93       0.10       0.51       ----

> <Gold.Chemscore.Fitness>
14.8259

> <Gold.Chemscore.DG>
-15.4368

> <Gold.Chemscore.ZeroCoef>
-5.4800

> <Gold.Chemscore.Hbond>
1.8284

> <Gold.Chemscore.Metal>
0.0000

> <Gold.Chemscore.Lipo>
75.1532

> <Gold.Chemscore.Internal_Hbond>
0.0000

> <Gold.Chemscore.DEClash>
0.0980

> <Gold.Chemscore.DEInternal>
0.5129

> <Gold.Chemscore.Rot>
1.9308

> <Gold.Chemscore.Internal.Correction>
   9.000000E+99

> <Gold.Chemscore.Hbonds>
donor molecule, donor type, donor heavy atom, donor atom, acceptor molecule, acceptor atom, score
      L1  H     7    34       P1  7948  0.92
      L1  H     9    26       P1  8028  0.74

> <Gold.Chemscore.Hbond.Weighted>
-6.1068

> <Gold.Chemscore.Metal.Weighted>
-0.0000

> <Gold.Chemscore.Lipo.Weighted>
-8.7929

> <Gold.Chemscore.Internal_Hbond.Weighted>
0.0000

> <Gold.Chemscore.DEClash.Weighted>
0.0980

> <Gold.Chemscore.DEInternal.Weighted>
0.5129

> <Gold.Chemscore.Rot.Weighted>
4.9429

> <Gold.Chemscore.Internal.Correction.Weighted>
   9.000000E+99

> <Gold.Protein.RotatedTorsions>
[ 6907 6896 6895 6894 ] final   48.59 input  -60.11 | X-H torsion
[ 7974 7965 7964 7962 ] final   53.58 input  175.53 | X-H torsion
[ 8008 7997 7996 7995 ] final  -70.74 input   59.86 | X-H torsion
[ 10167 10162 10161 10158 ] final  145.37 input  -65.29 | X-H torsion
[ 10718 10713 10712 10709 ] final  177.84 input   66.30 | X-H torsion
[ 10763 10752 10751 10750 ] final   74.75 input  -60.55 | X-H torsion
[ 11005 11000 10999 10996 ] final -175.47 input  -57.11 | X-H torsion

> <Gold.Protein.ActiveResidues>
 VAL166  LYS551  ARG553  GLY616  TRP617  ASP618  TYR619  PRO620  LYS621  CYS622 
 ASP623  PHE694  ASN695  SER759  ASP760  ASP761  ALA762  ILE779  LEU786  VAL792 
 PHE793  MET794  SER795  GLU796  ALA797  LYS798  CYS799  TRP800  GLU811  SER814 

> <Gold.Protein.RotatedAtoms>
  152.2812  134.7826  160.0395 H   0  0  0  0  0  0  0  0  0  0  0  0  # atno 6907 bound_to 6896
  151.8405  133.3417  159.3649 H   0  0  0  0  0  0  0  0  0  0  0  0  # atno 6908 bound_to 6896
  150.7190  134.5325  159.5751 H   0  0  0  0  0  0  0  0  0  0  0  0  # atno 6909 bound_to 6896
  145.9697  139.4137  143.0198 H   0  0  0  0  0  0  0  0  0  0  0  0  # atno 7974 bound_to 7965
  154.5034  140.0829  156.7845 H   0  0  0  0  0  0  0  0  0  0  0  0  # atno 8008 bound_to 7997
  155.3949  140.3434  155.4235 H   0  0  0  0  0  0  0  0  0  0  0  0  # atno 8009 bound_to 7997
  156.1485  140.1551  156.8795 H   0  0  0  0  0  0  0  0  0  0  0  0  # atno 8010 bound_to 7997
  139.4927  144.5907  151.6687 H   0  0  0  0  0  0  0  0  0  0  0  0  # atno 10167 bound_to 10162
  156.8995  130.9874  151.3038 H   0  0  0  0  0  0  0  0  0  0  0  0  # atno 10718 bound_to 10713
  153.0608  135.5014  154.8089 H   0  0  0  0  0  0  0  0  0  0  0  0  # atno 10763 bound_to 10752
  154.6879  135.2979  154.9523 H   0  0  0  0  0  0  0  0  0  0  0  0  # atno 10764 bound_to 10752
  154.0287  135.6732  153.4831 H   0  0  0  0  0  0  0  0  0  0  0  0  # atno 10765 bound_to 10752
  140.4629  134.6238  157.4850 H   0  0  0  0  0  0  0  0  0  0  0  0  # atno 11005 bound_to 11000
  145.7924  140.9808  143.1042 LP  0  0  0  0  0  0  0  0  0  0  0  0  # atno 17320 bound_to 7965
  144.6834  139.9699  143.7482 LP  0  0  0  0  0  0  0  0  0  0  0  0  # atno 17321 bound_to 7965
  140.5533  144.0390  150.6136 LP  0  0  0  0  0  0  0  0  0  0  0  0  # atno 17342 bound_to 10162
  140.3451  143.2996  152.0547 LP  0  0  0  0  0  0  0  0  0  0  0  0  # atno 17343 bound_to 10162
  157.6035  130.8530  149.8839 LP  0  0  0  0  0  0  0  0  0  0  0  0  # atno 17370 bound_to 10713
  156.0589  130.3703  150.1027 LP  0  0  0  0  0  0  0  0  0  0  0  0  # atno 17371 bound_to 10713
  139.9934  134.6950  155.9651 LP  0  0  0  0  0  0  0  0  0  0  0  0  # atno 17394 bound_to 11000
  141.1613  133.6539  156.4328 LP  0  0  0  0  0  0  0  0  0  0  0  0  # atno 17395 bound_to 11000

$$$$
