AV-unprocessed.smi:2078|AV-procd|sdf|8474|dock5
  -GOLD-   2272011173D 1   1.00000     0.00000
 Structure written by MMmdl.
 41 42  0  0  0  0  0  0  0  0  3 V2000
  155.2191  135.8944  164.2639 C   0  0  0  0  0  0  0  0  0  0  0  0
  154.8126  136.2694  162.8802 C   0  0  0  0  0  0  0  0  0  0  0  0
  154.3221  137.4221  162.3346 C   0  0  0  0  0  0  0  0  0  0  0  0
  154.1553  137.0840  160.9652 C   0  0  0  0  0  0  0  0  0  0  0  0
  153.6475  138.0345  160.0408 N   0  0  0  0  0  0  0  0  0  0  0  0
  153.0750  137.8189  158.8428 C   0  0  0  0  0  0  0  0  0  0  0  0
  152.9742  136.6700  158.3955 O   0  0  0  0  0  0  0  0  0  0  0  0
  152.6467  138.9718  158.2570 N   0  5  0  0  0  0  0  0  0  0  0  0
  152.0592  140.1121  158.9678 C   0  0  0  0  0  0  0  0  0  0  0  0
  152.0102  141.3570  158.0559 C   0  0  0  0  0  0  0  0  0  0  0  0
  151.6624  142.5891  158.8135 N   0  3  2  0  0  0  0  0  0  0  0  0
  151.7089  143.8327  158.0000 C   0  0  0  0  0  0  0  0  0  0  0  0
  151.1393  145.0200  158.7916 C   0  0  0  0  0  0  0  0  0  0  0  0
  151.8855  145.2015  160.1204 C   0  0  0  0  0  0  0  0  0  0  0  0
  151.8597  143.8944  160.9322 C   0  0  2  0  0  0  0  0  0  0  0  0
  152.6204  144.0395  162.2573 C   0  0  0  0  0  0  0  0  0  0  0  0
  152.4130  142.7293  160.0874 C   0  0  0  0  0  0  0  0  0  0  0  0
  154.5082  135.8346  160.7008 N   0  0  0  0  0  0  0  0  0  0  0  0
  154.9325  135.3070  161.9260 O   0  0  0  0  0  0  0  0  0  0  0  0
  155.0361  136.7135  164.9593 H   0  0  0  0  0  0  0  0  0  0  0  0
  156.2807  135.6495  164.3012 H   0  0  0  0  0  0  0  0  0  0  0  0
  154.6581  135.0258  164.6093 H   0  0  0  0  0  0  0  0  0  0  0  0
  154.1179  138.3566  162.8355 H   0  0  0  0  0  0  0  0  0  0  0  0
  153.7132  138.9998  160.3282 H   0  0  0  0  0  0  0  0  0  0  0  0
  151.0436  139.8828  159.2893 H   0  0  0  0  0  0  0  0  0  0  0  0
  152.6003  140.3579  159.8824 H   0  0  0  0  0  0  0  0  0  0  0  0
  152.9800  141.4685  157.5682 H   0  0  0  0  0  0  0  0  0  0  0  0
  151.2932  141.2027  157.2482 H   0  0  0  0  0  0  0  0  0  0  0  0
  152.7380  144.0360  157.7001 H   0  0  0  0  0  0  0  0  0  0  0  0
  151.1310  143.7007  157.0845 H   0  0  0  0  0  0  0  0  0  0  0  0
  151.2064  145.9321  158.1979 H   0  0  0  0  0  0  0  0  0  0  0  0
  150.0786  144.8534  158.9860 H   0  0  0  0  0  0  0  0  0  0  0  0
  152.9169  145.4980  159.9237 H   0  0  0  0  0  0  0  0  0  0  0  0
  151.4316  146.0114  160.6923 H   0  0  0  0  0  0  0  0  0  0  0  0
  150.8194  143.6679  161.1738 H   0  0  0  0  0  0  0  0  0  0  0  0
  153.6743  144.2626  162.0877 H   0  0  0  0  0  0  0  0  0  0  0  0
  152.5643  143.1220  162.8440 H   0  0  0  0  0  0  0  0  0  0  0  0
  152.2027  144.8436  162.8638 H   0  0  0  0  0  0  0  0  0  0  0  0
  152.3275  141.8033  160.6580 H   0  0  0  0  0  0  0  0  0  0  0  0
  153.4725  142.8765  159.8723 H   0  0  0  0  0  0  0  0  0  0  0  0
  150.6962  142.4579  159.0824 H   0  0  0  0  0  0  0  0  0  0  0  0
  1  2  1  0  0  0  0
  1 20  1  0  0  0  0
  1 21  1  0  0  0  0
  1 22  1  0  0  0  0
  2 19  1  0  0  0  0
  2  3  2  0  0  0  0
  3  4  1  0  0  0  0
  3 23  1  0  0  0  0
  4  5  1  0  0  0  0
  4 18  2  0  0  0  0
  5  6  1  0  0  0  0
  5 24  1  0  0  0  0
  6  7  2  0  0  0  0
  6  8  1  0  0  0  0
  8  9  1  0  0  0  0
  9 10  1  0  0  0  0
  9 25  1  0  0  0  0
  9 26  1  0  0  0  0
 10 11  1  0  0  0  0
 10 27  1  0  0  0  0
 10 28  1  0  0  0  0
 11 17  1  0  0  0  0
 11 12  1  0  0  0  0
 11 41  1  0  0  0  0
 12 13  1  0  0  0  0
 12 29  1  0  0  0  0
 12 30  1  0  0  0  0
 13 14  1  0  0  0  0
 13 31  1  0  0  0  0
 13 32  1  0  0  0  0
 14 15  1  0  0  0  0
 14 33  1  0  0  0  0
 14 34  1  0  0  0  0
 15 16  1  0  0  0  0
 15 17  1  0  0  0  0
 15 35  1  0  0  0  0
 16 36  1  0  0  0  0
 16 37  1  0  0  0  0
 16 38  1  0  0  0  0
 17 39  1  0  0  0  0
 17 40  1  0  0  0  0
 18 19  1  0  0  0  0
M  CHG  1   8  -1
M  CHG  1  11   1
M  END
> <s_m_source_file>
AV-unprocessed.smi

> <i_m_source_file_index>
2078

> <i_lp_mmshare_version>
43012

> <i_f3d_flags>
0

> <s_epik_input>
W0NIM11jMVtjSF1jKG5vMSlbTkhdQyg9TylbTkhdW0NIMl1bQ0gyXU4yW0NIMl1bQ0gyXVtDSDJdW0NAQEhdKFtDSDNdKVtDSDJdMg==

> <s_epik_cmdline>
J2VwaWtfcHl0aG9uJywgJy1waCcsICc3LjAnLCAnLXRuJywgJzgnLCAnLW1hJywgJzIwMCcsICctbWV0YWxfYmluZGluZycsICctaW1hZScsICc8aW5maWxlLm1hZT4nLCAnLW9tYWUnLCAnPG91dGZpbGUubWFlPic=

> <r_epik_Ionization_Penalty>
6.76934

> <r_epik_Ionization_Penalty_Charging>
6.76934

> <r_epik_Ionization_Penalty_Neutral>
5.77849e-06

> <r_epik_State_Penalty>
6.79457

> <r_epik_Charging_Adjusted_Penalty>
13.5639

> <i_epik_Tot_Q>
0

> <i_epik_Tot_abs_Q>
2

> <r_epik_Metal_State_Penalty>
2.72837

> <b_epik_Metal_Only>
1

> <s_lp_Force_Field>
OPLS_2005

> <r_lp_Energy>
9.58201

> <b_lp_Chiralities_Consistent>
1

> <s_lp_Variant>
AV-unprocessed.smi:2078-12

> <Gold.Version>
5.8.1

> <Gold.Id.Protein>
6NUR|6NUR_protein|mol2

> <Gold.PLP.Fitness>
42.0168

> <Gold.PLP.PLP>
-40.0454

> <Gold.PLP.part.hbond>
-1.6623

> <Gold.PLP.part.metal>
0.0000

> <Gold.PLP.part.buried>
-5.9085

> <Gold.PLP.part.nonpolar>
-33.2616

> <Gold.PLP.part.repulsive>
0.1325

> <Gold.PLP.ligand.clash>
0.0000

> <Gold.PLP.ligand.torsion>
0.5323

> <Gold.PLP.Chemscore.Hbond>
0.9913

> <Gold.PLP.Chemscore.CHOScore>
0.0000

> <Gold.PLP.Chemscore.Metal>
0.0000

> <Gold.PLP.Chemscore.Internal.Correction>
0.0623

> <Gold.Rescore>
     Score         DG    S(hbond)    S(metal)    S(lipo)     H(rot)  DE(clash)    DE(int)     intcor
     15.21     -17.35       0.92        0.00     108.82       1.54       0.25       1.89       ----

> <Gold.Chemscore.Fitness>
15.2138

> <Gold.Chemscore.DG>
-17.3457

> <Gold.Chemscore.ZeroCoef>
-5.4800

> <Gold.Chemscore.Hbond>
0.9217

> <Gold.Chemscore.Metal>
0.0000

> <Gold.Chemscore.Lipo>
108.8182

> <Gold.Chemscore.Internal_Hbond>
0.0000

> <Gold.Chemscore.DEClash>
0.2455

> <Gold.Chemscore.DEInternal>
1.8864

> <Gold.Chemscore.Rot>
1.5409

> <Gold.Chemscore.Internal.Correction>
   9.000000E+99

> <Gold.Chemscore.Hbonds>
donor molecule, donor type, donor heavy atom, donor atom, acceptor molecule, acceptor atom, score
      P1  H  6896  6908       L1    18  0.02

> <Gold.Chemscore.Hbond.Weighted>
-3.0786

> <Gold.Chemscore.Metal.Weighted>
-0.0000

> <Gold.Chemscore.Lipo.Weighted>
-12.7317

> <Gold.Chemscore.Internal_Hbond.Weighted>
0.0000

> <Gold.Chemscore.DEClash.Weighted>
0.2455

> <Gold.Chemscore.DEInternal.Weighted>
1.8864

> <Gold.Chemscore.Rot.Weighted>
3.9446

> <Gold.Chemscore.Internal.Correction.Weighted>
   9.000000E+99

> <Gold.Protein.RotatedTorsions>
[ 6907 6896 6895 6894 ] final  -61.93 input  -60.11 | X-H torsion
[ 7974 7965 7964 7962 ] final  -60.98 input  175.53 | X-H torsion
[ 8008 7997 7996 7995 ] final  134.53 input   59.86 | X-H torsion
[ 10167 10162 10161 10158 ] final -176.34 input  -65.29 | X-H torsion
[ 10718 10713 10712 10709 ] final -143.07 input   66.30 | X-H torsion
[ 10763 10752 10751 10750 ] final  -55.04 input  -60.55 | X-H torsion
[ 11005 11000 10999 10996 ] final   47.37 input  -57.11 | X-H torsion

> <Gold.Protein.ActiveResidues>
 VAL166  LYS551  ARG553  GLY616  TRP617  ASP618  TYR619  PRO620  LYS621  CYS622 
 ASP623  PHE694  ASN695  SER759  ASP760  ASP761  ALA762  ILE779  LEU786  VAL792 
 PHE793  MET794  SER795  GLU796  ALA797  LYS798  CYS799  TRP800  GLU811  SER814 

> <Gold.Protein.RotatedAtoms>
  150.7750  134.6638  159.6353 H   0  0  0  0  0  0  0  0  0  0  0  0  # atno 6907 bound_to 6896
  152.3817  134.6577  160.0149 H   0  0  0  0  0  0  0  0  0  0  0  0  # atno 6908 bound_to 6896
  151.6905  133.3274  159.3278 H   0  0  0  0  0  0  0  0  0  0  0  0  # atno 6909 bound_to 6896
  145.8090  140.8610  143.0192 H   0  0  0  0  0  0  0  0  0  0  0  0  # atno 7974 bound_to 7965
  156.2999  140.2493  156.3433 H   0  0  0  0  0  0  0  0  0  0  0  0  # atno 8008 bound_to 7997
  154.9034  140.0405  157.1925 H   0  0  0  0  0  0  0  0  0  0  0  0  # atno 8009 bound_to 7997
  154.8477  140.2901  155.5622 H   0  0  0  0  0  0  0  0  0  0  0  0  # atno 8010 bound_to 7997
  139.5535  144.2049  152.1118 H   0  0  0  0  0  0  0  0  0  0  0  0  # atno 10167 bound_to 10162
  156.3535  130.7700  151.1857 H   0  0  0  0  0  0  0  0  0  0  0  0  # atno 10718 bound_to 10713
  154.1845  135.6437  153.5043 H   0  0  0  0  0  0  0  0  0  0  0  0  # atno 10763 bound_to 10752
  153.0050  135.5414  154.6479 H   0  0  0  0  0  0  0  0  0  0  0  0  # atno 10764 bound_to 10752
  154.5852  135.2929  155.0665 H   0  0  0  0  0  0  0  0  0  0  0  0  # atno 10765 bound_to 10752
  140.1285  134.4737  155.8540 H   0  0  0  0  0  0  0  0  0  0  0  0  # atno 11005 bound_to 11000
  144.6759  140.0367  143.7481 LP  0  0  0  0  0  0  0  0  0  0  0  0  # atno 17320 bound_to 7965
  145.9798  139.2932  143.1049 LP  0  0  0  0  0  0  0  0  0  0  0  0  # atno 17321 bound_to 7965
  140.1549  144.5080  150.6666 LP  0  0  0  0  0  0  0  0  0  0  0  0  # atno 17342 bound_to 10162
  140.6802  143.2323  151.5402 LP  0  0  0  0  0  0  0  0  0  0  0  0  # atno 17343 bound_to 10162
  157.7464  131.0421  150.4677 LP  0  0  0  0  0  0  0  0  0  0  0  0  # atno 17370 bound_to 10713
  156.4875  130.4088  149.6425 LP  0  0  0  0  0  0  0  0  0  0  0  0  # atno 17371 bound_to 10713
  141.2166  133.6787  156.7024 LP  0  0  0  0  0  0  0  0  0  0  0  0  # atno 17394 bound_to 11000
  140.2873  134.8269  157.3986 LP  0  0  0  0  0  0  0  0  0  0  0  0  # atno 17395 bound_to 11000

$$$$
