AV-unprocessed.smi:38|AV-procd|sdf|340|dock8
  -GOLD-   2262016173D 1   1.00000     0.00000
 Structure written by MMmdl.
 28 29  0  0  0  0  0  0  0  0  1 V2000
  153.1387  138.8628  156.8019 O   0  0  0  0  0  0  0  0  0  0  0  0
  152.1927  139.4660  156.2991 C   0  0  0  0  0  0  0  0  0  0  0  0
  151.6372  140.5701  156.9509 N   0  0  0  0  0  0  0  0  0  0  0  0
  150.5633  141.3304  156.4854 C   0  0  0  0  0  0  0  0  0  0  0  0
  150.1683  142.2976  157.1350 O   0  0  0  0  0  0  0  0  0  0  0  0
  149.9744  140.9411  155.2614 N   0  0  0  0  0  0  0  0  0  0  0  0
  148.8166  141.7614  154.7282 C   0  0  2  0  0  0  0  0  0  0  0  0
  147.5416  141.5333  155.5543 C   0  0  0  0  0  0  0  0  0  0  0  0
  146.4807  141.5123  154.4760 C   0  0  2  0  0  0  0  0  0  0  0  0
  145.2980  140.8661  154.9021 O   0  0  0  0  0  0  0  0  0  0  0  0
  147.2037  140.8247  153.3116 C   0  0  2  0  0  0  0  0  0  0  0  0
  147.2833  139.2847  153.4091 C   0  0  0  0  0  0  0  0  0  0  0  0
  147.6232  138.7426  152.1509 O   0  0  0  0  0  0  0  0  0  0  0  0
  148.5197  141.3725  153.4142 O   0  0  0  0  0  0  0  0  0  0  0  0
  150.5140  139.8647  154.5645 C   0  0  0  0  0  0  0  0  0  0  0  0
  151.5598  139.1381  155.0252 C   0  0  0  0  0  0  0  0  0  0  0  0
  152.0240  138.1084  154.2972 F   0  0  0  0  0  0  0  0  0  0  0  0
  152.0507  140.8435  157.8304 H   0  0  0  0  0  0  0  0  0  0  0  0
  149.1642  142.7962  154.7291 H   0  0  0  0  0  0  0  0  0  0  0  0
  146.2372  142.5376  154.1935 H   0  0  0  0  0  0  0  0  0  0  0  0
  146.7438  141.1121  152.3651 H   0  0  0  0  0  0  0  0  0  0  0  0
  147.5968  140.5701  156.0647 H   0  0  0  0  0  0  0  0  0  0  0  0
  147.3978  142.3220  156.2934 H   0  0  0  0  0  0  0  0  0  0  0  0
  144.6567  140.9245  154.2102 H   0  0  0  0  0  0  0  0  0  0  0  0
  147.9933  138.9550  154.1670 H   0  0  0  0  0  0  0  0  0  0  0  0
  146.3144  138.8642  153.6775 H   0  0  0  0  0  0  0  0  0  0  0  0
  148.2592  138.0561  152.2811 H   0  0  0  0  0  0  0  0  0  0  0  0
  150.1034  139.5721  153.6100 H   0  0  0  0  0  0  0  0  0  0  0  0
  1  2  2  0  0  0  0
  2 16  1  0  0  0  0
  2  3  1  0  0  0  0
  3 18  1  0  0  0  0
  3  4  1  0  0  0  0
  4  5  2  0  0  0  0
  4  6  1  0  0  0  0
  6  7  1  0  0  0  0
  6 15  1  0  0  0  0
  7 19  1  0  0  0  0
  7 14  1  0  0  0  0
  7  8  1  0  0  0  0
  8  9  1  0  0  0  0
  8 22  1  0  0  0  0
  8 23  1  0  0  0  0
  9 20  1  0  0  0  0
  9 10  1  0  0  0  0
  9 11  1  0  0  0  0
 10 24  1  0  0  0  0
 11 21  1  0  0  0  0
 11 12  1  0  0  0  0
 11 14  1  0  0  0  0
 12 13  1  0  0  0  0
 12 25  1  0  0  0  0
 12 26  1  0  0  0  0
 13 27  1  0  0  0  0
 15 16  2  0  0  0  0
 15 28  1  0  0  0  0
 16 17  1  0  0  0  0
M  END
> <s_m_source_file>
AV-unprocessed.smi

> <i_m_source_file_index>
38

> <i_lp_mmshare_version>
43012

> <i_f3d_flags>
0

> <s_epik_input>
Tz1jMVtuSF1jKD1PKW4oW2NIXWMxRilbQ0BIXTJbQ0gyXVtDQEhdKFtPSF0pW0NASF0oTzIpW0NIMl1bT0hd

> <s_epik_cmdline>
J2VwaWtfcHl0aG9uJywgJy1waCcsICc3LjAnLCAnLXRuJywgJzgnLCAnLW1hJywgJzIwMCcsICctbWV0YWxfYmluZGluZycsICctaW1hZScsICc8aW5maWxlLm1hZT4nLCAnLW9tYWUnLCAnPG91dGZpbGUubWFlPic=

> <r_lp_tautomer_probability>
0.999537

> <r_epik_Ionization_Penalty>
0.0357432

> <r_epik_Ionization_Penalty_Charging>
0.0357431

> <r_epik_Ionization_Penalty_Neutral>
1.19946e-07

> <r_epik_State_Penalty>
0.0298169

> <r_epik_Charging_Adjusted_Penalty>
0.06556

> <i_epik_Tot_Q>
0

> <i_epik_Tot_abs_Q>
0

> <r_epik_Metal_State_Penalty>
2.348

> <b_epik_Metal_Only>
0

> <s_epik_Chemistry_Notes>
This compound contains an acetal/aminal-like group ( X-CH(R)-Y where X, Y are N, S, or O) that may be acid/base labile, releasing an aldehyde.

> <s_lp_Force_Field>
OPLS_2005

> <r_lp_Energy>
30.3129

> <b_lp_Chiralities_Consistent>
1

> <s_lp_Variant>
AV-unprocessed.smi:38-6

> <Gold.Version>
5.8.1

> <Gold.Id.Protein>
6NUR|6NUR_protein|mol2

> <Gold.PLP.Fitness>
44.0359

> <Gold.PLP.PLP>
-30.3138

> <Gold.PLP.part.hbond>
-5.0000

> <Gold.PLP.part.metal>
0.0000

> <Gold.PLP.part.buried>
0.2475

> <Gold.PLP.part.nonpolar>
-26.6682

> <Gold.PLP.part.repulsive>
2.4209

> <Gold.PLP.ligand.clash>
0.0000

> <Gold.PLP.ligand.torsion>
0.3522

> <Gold.PLP.Chemscore.Hbond>
3.8160

> <Gold.PLP.Chemscore.CHOScore>
0.9852

> <Gold.PLP.Chemscore.Metal>
0.0000

> <Gold.Chemscore.Hbonds>
donor molecule, donor type, donor heavy atom, donor atom, acceptor molecule, acceptor atom, score
      L1  H    10    24       P1 10175  1.00
      L1  H    13    27       P1  7948  1.00
      P1  H  7997  8010       L1     1  1.00
      P1  H  8011  8017       L1    14  0.82
      L1  C    15    28       P1  7957  0.99

> <Gold.PLP.Chemscore.Internal.Correction>
0.0229

> <Gold.Rescore>
     Score         DG    S(hbond)    S(metal)    S(lipo)     H(rot)  DE(clash)    DE(int)     intcor
     10.53     -12.20       2.94        0.00      37.27       2.91       1.41       0.27       ----

> <Gold.Chemscore.Fitness>
10.5294

> <Gold.Chemscore.DG>
-12.2046

> <Gold.Chemscore.ZeroCoef>
-5.4800

> <Gold.Chemscore.Hbond>
2.9413

> <Gold.Chemscore.Metal>
0.0000

> <Gold.Chemscore.Lipo>
37.2716

> <Gold.Chemscore.Internal_Hbond>
0.0000

> <Gold.Chemscore.DEClash>
1.4081

> <Gold.Chemscore.DEInternal>
0.2670

> <Gold.Chemscore.Rot>
2.9141

> <Gold.Chemscore.Internal.Correction>
   9.000000E+99

> <Gold.Chemscore.Hbonds>
donor molecule, donor type, donor heavy atom, donor atom, acceptor molecule, acceptor atom, score
      L1  H    10    24       P1 10175  0.89
      L1  H    13    27       P1  7948  0.93
      P1  H  7997  8010       L1     1  0.26
      P1  H  8011  8017       L1    14  0.36

> <Gold.Chemscore.Hbond.Weighted>
-9.8239

> <Gold.Chemscore.Metal.Weighted>
-0.0000

> <Gold.Chemscore.Lipo.Weighted>
-4.3608

> <Gold.Chemscore.Internal_Hbond.Weighted>
0.0000

> <Gold.Chemscore.DEClash.Weighted>
1.4081

> <Gold.Chemscore.DEInternal.Weighted>
0.2670

> <Gold.Chemscore.Rot.Weighted>
7.4601

> <Gold.Chemscore.Internal.Correction.Weighted>
   9.000000E+99

> <Gold.Protein.RotatedTorsions>
[ 6907 6896 6895 6894 ] final  -76.99 input  -60.11 | X-H torsion
[ 7974 7965 7964 7962 ] final  144.59 input  175.53 | X-H torsion
[ 8008 7997 7996 7995 ] final   61.27 input   59.86 | X-H torsion
[ 10167 10162 10161 10158 ] final -113.10 input  -65.29 | X-H torsion
[ 10718 10713 10712 10709 ] final -151.67 input   66.30 | X-H torsion
[ 10763 10752 10751 10750 ] final  -73.21 input  -60.55 | X-H torsion
[ 11005 11000 10999 10996 ] final   -5.08 input  -57.11 | X-H torsion

> <Gold.Protein.ActiveResidues>
 VAL166  LYS551  ARG553  GLY616  TRP617  ASP618  TYR619  PRO620  LYS621  CYS622 
 ASP623  PHE694  ASN695  SER759  ASP760  ASP761  ALA762  ILE779  LEU786  VAL792 
 PHE793  MET794  SER795  GLU796  ALA797  LYS798  CYS799  TRP800  GLU811  SER814 

> <Gold.Protein.RotatedAtoms>
  150.7011  134.4490  159.5326 H   0  0  0  0  0  0  0  0  0  0  0  0  # atno 6907 bound_to 6896
  152.2186  134.8432  160.0498 H   0  0  0  0  0  0  0  0  0  0  0  0  # atno 6908 bound_to 6896
  151.9291  133.3571  159.3961 H   0  0  0  0  0  0  0  0  0  0  0  0  # atno 6909 bound_to 6896
  144.8823  139.5681  143.5837 H   0  0  0  0  0  0  0  0  0  0  0  0  # atno 7974 bound_to 7965
  155.5956  140.3493  155.4579 H   0  0  0  0  0  0  0  0  0  0  0  0  # atno 8008 bound_to 7997
  156.0268  140.1265  157.0325 H   0  0  0  0  0  0  0  0  0  0  0  0  # atno 8009 bound_to 7997
  154.4336  140.1051  156.6028 H   0  0  0  0  0  0  0  0  0  0  0  0  # atno 8010 bound_to 7997
  140.1155  143.4490  152.1725 H   0  0  0  0  0  0  0  0  0  0  0  0  # atno 10167 bound_to 10162
  156.4624  130.8219  151.2450 H   0  0  0  0  0  0  0  0  0  0  0  0  # atno 10718 bound_to 10713
  154.4563  135.5905  153.6226 H   0  0  0  0  0  0  0  0  0  0  0  0  # atno 10763 bound_to 10752
  152.9818  135.6033  154.3541 H   0  0  0  0  0  0  0  0  0  0  0  0  # atno 10764 bound_to 10752
  154.3408  135.2841  155.2402 H   0  0  0  0  0  0  0  0  0  0  0  0  # atno 10765 bound_to 10752
  140.6872  133.9102  155.8594 H   0  0  0  0  0  0  0  0  0  0  0  0  # atno 11005 bound_to 11000
  146.3002  139.7403  142.9097 LP  0  0  0  0  0  0  0  0  0  0  0  0  # atno 17320 bound_to 7965
  145.3932  141.0375  143.3112 LP  0  0  0  0  0  0  0  0  0  0  0  0  # atno 17321 bound_to 7965
  139.5596  144.7397  151.4192 LP  0  0  0  0  0  0  0  0  0  0  0  0  # atno 17342 bound_to 10162
  140.6902  143.7880  150.7244 LP  0  0  0  0  0  0  0  0  0  0  0  0  # atno 17343 bound_to 10162
  157.7497  131.0103  150.3300 LP  0  0  0  0  0  0  0  0  0  0  0  0  # atno 17370 bound_to 10713
  156.3703  130.3862  149.7181 LP  0  0  0  0  0  0  0  0  0  0  0  0  # atno 17371 bound_to 10713
  141.0270  134.0809  157.4057 LP  0  0  0  0  0  0  0  0  0  0  0  0  # atno 17394 bound_to 11000
  139.8934  135.0130  156.6896 LP  0  0  0  0  0  0  0  0  0  0  0  0  # atno 17395 bound_to 11000

$$$$
