AV-unprocessed.smi:77|AV-procd|sdf|771|dock10
  -GOLD-   2262017123D 1   1.00000     0.00000
 Structure written by MMmdl.
 57 61  0  0  0  0  0  0  0  0  1 V2000
  151.0052  141.6977  156.7695 O   0  0  0  0  0  0  0  0  0  0  0  0
  150.0737  142.2638  157.3434 C   0  0  0  0  0  0  0  0  0  0  0  0
  148.6626  141.6612  157.3291 C   0  0  0  0  0  0  0  0  0  0  0  0
  148.5866  140.3964  156.5897 N   0  0  0  0  0  0  0  0  0  0  0  0
  147.9603  139.3937  157.2466 C   0  0  0  0  0  0  0  0  0  0  0  0
  146.6129  139.2508  157.1402 N   0  0  0  0  0  0  0  0  0  0  0  0
  145.9953  138.2624  157.7949 C   0  0  0  0  0  0  0  0  0  0  0  0
  146.5231  137.3295  158.5915 N   0  0  0  0  0  0  0  0  0  0  0  0
  147.8758  137.4737  158.6942 C   0  0  0  0  0  0  0  0  0  0  0  0
  148.6676  138.4669  158.0554 C   0  0  0  0  0  0  0  0  0  0  0  0
  150.0062  138.2980  158.3851 N   0  0  0  0  0  0  0  0  0  0  0  0
  150.0055  137.2672  159.1858 C   0  0  0  0  0  0  0  0  0  0  0  0
  148.7673  136.7171  159.4331 N   0  0  0  0  0  0  0  0  0  0  0  0
  148.4724  135.5783  160.2834 C   0  0  0  0  0  0  0  0  0  0  0  0
  147.0527  135.6111  160.9103 C   0  0  2  0  0  0  0  0  0  0  0  0
  146.8570  136.8127  161.8707 C   0  0  0  0  0  0  0  0  0  0  0  0
  147.9444  136.9626  162.7604 O   0  0  0  0  0  0  0  0  0  0  0  0
  146.7472  134.2697  161.6268 C   0  0  2  0  0  0  0  0  0  0  0  0
  146.7529  133.0454  160.7259 C   0  0  0  0  0  0  0  0  0  0  0  0
  145.9867  132.0269  161.5601 C   0  0  0  0  0  0  0  0  0  0  0  0
  145.0081  132.7793  162.2656 O   0  0  0  0  0  0  0  0  0  0  0  0
  145.3366  134.1648  162.2235 C   0  0  0  0  0  0  0  0  0  0  0  0
  148.1828  140.4883  155.1935 C   0  0  0  0  0  0  0  0  0  0  0  0
  148.4685  141.7576  154.4238 C   0  0  0  0  0  0  0  0  0  0  0  0
  147.0523  141.4206  154.8324 C   0  0  0  0  0  0  0  0  0  0  0  0
  150.2064  143.4313  157.9894 N   0  0  0  0  0  0  0  0  0  0  0  0
  151.4216  144.1659  158.1326 C   0  0  0  0  0  0  0  0  0  0  0  0
  152.1419  144.0759  159.4606 C   0  0  0  0  0  0  0  0  0  0  0  0
  151.4256  145.3432  159.0833 C   0  0  0  0  0  0  0  0  0  0  0  0
  148.2983  141.5332  158.3502 H   0  0  0  0  0  0  0  0  0  0  0  0
  148.0001  142.3896  156.8594 H   0  0  0  0  0  0  0  0  0  0  0  0
  144.9242  138.2138  157.6652 H   0  0  0  0  0  0  0  0  0  0  0  0
  150.9134  136.8835  159.6277 H   0  0  0  0  0  0  0  0  0  0  0  0
  148.6050  134.6841  159.6742 H   0  0  0  0  0  0  0  0  0  0  0  0
  149.2270  135.5304  161.0696 H   0  0  0  0  0  0  0  0  0  0  0  0
  146.3284  135.7108  160.1000 H   0  0  0  0  0  0  0  0  0  0  0  0
  146.7831  137.7504  161.3224 H   0  0  0  0  0  0  0  0  0  0  0  0
  145.9314  136.7093  162.4376 H   0  0  0  0  0  0  0  0  0  0  0  0
  147.8801  136.2995  163.4307 H   0  0  0  0  0  0  0  0  0  0  0  0
  147.4753  134.1106  162.4243 H   0  0  0  0  0  0  0  0  0  0  0  0
  146.2152  133.2502  159.7988 H   0  0  0  0  0  0  0  0  0  0  0  0
  147.7548  132.6985  160.4718 H   0  0  0  0  0  0  0  0  0  0  0  0
  145.5304  131.2449  160.9527 H   0  0  0  0  0  0  0  0  0  0  0  0
  146.6504  131.5522  162.2839 H   0  0  0  0  0  0  0  0  0  0  0  0
  145.2711  134.6035  163.2192 H   0  0  0  0  0  0  0  0  0  0  0  0
  144.6071  134.6668  161.5865 H   0  0  0  0  0  0  0  0  0  0  0  0
  148.2364  139.5624  154.6235 H   0  0  0  0  0  0  0  0  0  0  0  0
  148.9585  142.5755  154.9486 H   0  0  0  0  0  0  0  0  0  0  0  0
  148.7273  141.6576  153.3719 H   0  0  0  0  0  0  0  0  0  0  0  0
  146.3661  141.0977  154.0523 H   0  0  0  0  0  0  0  0  0  0  0  0
  146.6066  142.0100  155.6316 H   0  0  0  0  0  0  0  0  0  0  0  0
  149.3840  143.8261  158.4223 H   0  0  0  0  0  0  0  0  0  0  0  0
  152.0577  144.2573  157.2531 H   0  0  0  0  0  0  0  0  0  0  0  0
  151.6972  143.4614  160.2413 H   0  0  0  0  0  0  0  0  0  0  0  0
  153.2299  144.0900  159.4432 H   0  0  0  0  0  0  0  0  0  0  0  0
  152.0348  146.2035  158.8131 H   0  0  0  0  0  0  0  0  0  0  0  0
  150.5021  145.5745  159.6108 H   0  0  0  0  0  0  0  0  0  0  0  0
  1  2  2  0  0  0  0
  2  3  1  0  0  0  0
  2 26  1  0  0  0  0
  3  4  1  0  0  0  0
  3 30  1  0  0  0  0
  3 31  1  0  0  0  0
  4  5  1  0  0  0  0
  4 23  1  0  0  0  0
  5 10  1  0  0  0  0
  5  6  2  0  0  0  0
  6  7  1  0  0  0  0
  7  8  2  0  0  0  0
  7 32  1  0  0  0  0
  8  9  1  0  0  0  0
  9 13  1  0  0  0  0
  9 10  2  0  0  0  0
 10 11  1  0  0  0  0
 11 12  2  0  0  0  0
 12 13  1  0  0  0  0
 12 33  1  0  0  0  0
 13 14  1  0  0  0  0
 14 15  1  0  0  0  0
 14 34  1  0  0  0  0
 14 35  1  0  0  0  0
 15 16  1  0  0  0  0
 15 18  1  0  0  0  0
 15 36  1  0  0  0  0
 16 17  1  0  0  0  0
 16 37  1  0  0  0  0
 16 38  1  0  0  0  0
 17 39  1  0  0  0  0
 18 22  1  0  0  0  0
 18 19  1  0  0  0  0
 18 40  1  0  0  0  0
 19 20  1  0  0  0  0
 19 41  1  0  0  0  0
 19 42  1  0  0  0  0
 20 21  1  0  0  0  0
 20 43  1  0  0  0  0
 20 44  1  0  0  0  0
 21 22  1  0  0  0  0
 22 45  1  0  0  0  0
 22 46  1  0  0  0  0
 23 25  1  0  0  0  0
 23 24  1  0  0  0  0
 23 47  1  0  0  0  0
 24 25  1  0  0  0  0
 24 48  1  0  0  0  0
 24 49  1  0  0  0  0
 25 50  1  0  0  0  0
 25 51  1  0  0  0  0
 26 27  1  0  0  0  0
 26 52  1  0  0  0  0
 27 29  1  0  0  0  0
 27 28  1  0  0  0  0
 27 53  1  0  0  0  0
 28 29  1  0  0  0  0
 28 54  1  0  0  0  0
 28 55  1  0  0  0  0
 29 56  1  0  0  0  0
 29 57  1  0  0  0  0
M  END
> <s_m_source_file>
AV-unprocessed.smi

> <i_m_source_file_index>
77

> <i_lp_mmshare_version>
43012

> <i_f3d_flags>
0

> <s_epik_input>
W0NIMl0xW0NIMl1bQ0hdMVtOSF1DKD1PKVtDSDJdTihbQ0hdMltDSDJdW0NIMl0yKWMobltjSF1uMyljKGMzNCluW2NIXW40W0NIMl1bQ0BIXShbQ0gyXVtPSF0pW0NAQEhdNVtDSDJdW0NIMl1PW0NIMl01

> <s_epik_cmdline>
J2VwaWtfcHl0aG9uJywgJy1waCcsICc3LjAnLCAnLXRuJywgJzgnLCAnLW1hJywgJzIwMCcsICctbWV0YWxfYmluZGluZycsICctaW1hZScsICc8aW5maWxlLm1hZT4nLCAnLW9tYWUnLCAnPG91dGZpbGUubWFlPic=

> <r_lp_tautomer_probability>
1

> <r_epik_Ionization_Penalty>
0.000703847

> <r_epik_Ionization_Penalty_Charging>
0

> <r_epik_Ionization_Penalty_Neutral>
0.000703847

> <r_epik_State_Penalty>
0.00034025

> <r_epik_Charging_Adjusted_Penalty>
0.00034025

> <i_epik_Tot_Q>
0

> <i_epik_Tot_abs_Q>
0

> <r_epik_Metal_State_Penalty>
-0

> <b_epik_Metal_Only>
0

> <s_lp_Force_Field>
OPLS_2005

> <r_lp_Energy>
55.2708

> <b_lp_Chiralities_Consistent>
1

> <s_lp_Variant>
AV-unprocessed.smi:77-1

> <Gold.Version>
5.8.1

> <Gold.Id.Protein>
6NUR|6NUR_protein|mol2

> <Gold.PLP.Fitness>
45.8936

> <Gold.PLP.PLP>
-45.9448

> <Gold.PLP.part.hbond>
-1.9014

> <Gold.PLP.part.metal>
0.0000

> <Gold.PLP.part.buried>
-5.3067

> <Gold.PLP.part.nonpolar>
-38.6634

> <Gold.PLP.part.repulsive>
0.1899

> <Gold.PLP.ligand.clash>
0.0000

> <Gold.PLP.ligand.torsion>
2.3501

> <Gold.PLP.Chemscore.Hbond>
0.8640

> <Gold.PLP.Chemscore.CHOScore>
0.0000

> <Gold.PLP.Chemscore.Metal>
0.0000

> <Gold.Chemscore.Hbonds>
donor molecule, donor type, donor heavy atom, donor atom, acceptor molecule, acceptor atom, score
      P1  H  6931  6943       L1    17  0.90

> <Gold.PLP.Chemscore.Internal.Correction>
2.0571

> <Gold.Rescore>
     Score         DG    S(hbond)    S(metal)    S(lipo)     H(rot)  DE(clash)    DE(int)     intcor
      7.35     -11.01       0.75        0.00     108.34       3.77       0.07       3.59       ----

> <Gold.Chemscore.Fitness>
7.3462

> <Gold.Chemscore.DG>
-11.0080

> <Gold.Chemscore.ZeroCoef>
-5.4800

> <Gold.Chemscore.Hbond>
0.7506

> <Gold.Chemscore.Metal>
0.0000

> <Gold.Chemscore.Lipo>
108.3397

> <Gold.Chemscore.Internal_Hbond>
0.0000

> <Gold.Chemscore.DEClash>
0.0699

> <Gold.Chemscore.DEInternal>
3.5919

> <Gold.Chemscore.Rot>
3.7714

> <Gold.Chemscore.Internal.Correction>
   9.000000E+99

> <Gold.Chemscore.Hbonds>
donor molecule, donor type, donor heavy atom, donor atom, acceptor molecule, acceptor atom, score
      P1  H  6931  6943       L1    17  0.44

> <Gold.Chemscore.Hbond.Weighted>
-2.5071

> <Gold.Chemscore.Metal.Weighted>
-0.0000

> <Gold.Chemscore.Lipo.Weighted>
-12.6758

> <Gold.Chemscore.Internal_Hbond.Weighted>
0.0000

> <Gold.Chemscore.DEClash.Weighted>
0.0699

> <Gold.Chemscore.DEInternal.Weighted>
3.5919

> <Gold.Chemscore.Rot.Weighted>
9.6548

> <Gold.Chemscore.Internal.Correction.Weighted>
   9.000000E+99

> <Gold.Protein.RotatedTorsions>
[ 6907 6896 6895 6894 ] final   46.76 input  -60.11 | X-H torsion
[ 7974 7965 7964 7962 ] final    8.72 input  175.53 | X-H torsion
[ 8008 7997 7996 7995 ] final   45.66 input   59.86 | X-H torsion
[ 10167 10162 10161 10158 ] final  115.68 input  -65.29 | X-H torsion
[ 10718 10713 10712 10709 ] final  -92.95 input   66.30 | X-H torsion
[ 10763 10752 10751 10750 ] final -110.75 input  -60.55 | X-H torsion
[ 11005 11000 10999 10996 ] final  -93.64 input  -57.11 | X-H torsion

> <Gold.Protein.ActiveResidues>
 VAL166  LYS551  ARG553  GLY616  TRP617  ASP618  TYR619  PRO620  LYS621  CYS622 
 ASP623  PHE694  ASN695  SER759  ASP760  ASP761  ALA762  ILE779  LEU786  VAL792 
 PHE793  MET794  SER795  GLU796  ALA797  LYS798  CYS799  TRP800  GLU811  SER814 

> <Gold.Protein.RotatedAtoms>
  152.2601  134.8043  160.0431 H   0  0  0  0  0  0  0  0  0  0  0  0  # atno 6907 bound_to 6896
  151.8692  133.3467  159.3737 H   0  0  0  0  0  0  0  0  0  0  0  0  # atno 6908 bound_to 6896
  150.7114  134.5057  159.5627 H   0  0  0  0  0  0  0  0  0  0  0  0  # atno 6909 bound_to 6896
  146.2413  139.9891  142.8428 H   0  0  0  0  0  0  0  0  0  0  0  0  # atno 7974 bound_to 7965
  155.3395  140.3407  155.4239 H   0  0  0  0  0  0  0  0  0  0  0  0  # atno 8008 bound_to 7997
  156.1820  140.1667  156.8291 H   0  0  0  0  0  0  0  0  0  0  0  0  # atno 8009 bound_to 7997
  154.5345  140.0738  156.8385 H   0  0  0  0  0  0  0  0  0  0  0  0  # atno 8010 bound_to 7997
  139.6300  144.7113  151.2453 H   0  0  0  0  0  0  0  0  0  0  0  0  # atno 10167 bound_to 10162
  156.0008  130.5007  150.5703 H   0  0  0  0  0  0  0  0  0  0  0  0  # atno 10718 bound_to 10713
  154.8264  135.4553  154.0932 H   0  0  0  0  0  0  0  0  0  0  0  0  # atno 10763 bound_to 10752
  153.2243  135.6898  153.7970 H   0  0  0  0  0  0  0  0  0  0  0  0  # atno 10764 bound_to 10752
  153.7376  135.3317  155.3274 H   0  0  0  0  0  0  0  0  0  0  0  0  # atno 10765 bound_to 10752
  141.1492  133.7902  157.0188 H   0  0  0  0  0  0  0  0  0  0  0  0  # atno 11005 bound_to 11000
  145.1520  140.9628  143.4427 LP  0  0  0  0  0  0  0  0  0  0  0  0  # atno 17320 bound_to 7965
  145.0196  139.3436  143.6079 LP  0  0  0  0  0  0  0  0  0  0  0  0  # atno 17321 bound_to 7965
  140.7433  143.6498  150.8259 LP  0  0  0  0  0  0  0  0  0  0  0  0  # atno 17342 bound_to 10162
  140.0121  143.5631  152.2834 LP  0  0  0  0  0  0  0  0  0  0  0  0  # atno 17343 bound_to 10162
  157.3599  131.0748  151.1645 LP  0  0  0  0  0  0  0  0  0  0  0  0  # atno 17370 bound_to 10713
  157.2433  130.6580  149.5899 LP  0  0  0  0  0  0  0  0  0  0  0  0  # atno 17371 bound_to 10713
  140.0829  134.9637  157.1654 LP  0  0  0  0  0  0  0  0  0  0  0  0  # atno 17394 bound_to 11000
  140.3551  134.2555  155.7193 LP  0  0  0  0  0  0  0  0  0  0  0  0  # atno 17395 bound_to 11000

$$$$
