AV-unprocessed.smi:244|AV-procd|sdf|1872|dock10
  -GOLD-   2262020513D 1   1.00000     0.00000
 Structure written by MMmdl.
 56 60  0  0  0  0  0  0  0  0  1 V2000
  154.0624  142.6977  163.6786 C   0  0  0  0  0  0  0  0  0  0  0  0
  153.0552  142.6968  162.6270 N   0  0  0  0  0  0  0  0  0  0  0  0
  152.8401  144.0697  162.1651 C   0  0  0  0  0  0  0  0  0  0  0  0
  151.7582  144.1052  161.0716 C   0  0  0  0  0  0  0  0  0  0  0  0
  152.1647  143.2027  159.9029 C   0  0  2  0  0  0  0  0  0  0  0  0
  151.1418  143.1827  158.9146 O   0  0  0  0  0  0  0  0  0  0  0  0
  151.5331  142.4127  157.7831 C   0  0  0  0  0  0  0  0  0  0  0  0
  151.7920  140.9595  158.2132 C   0  0  0  0  0  0  0  0  0  0  0  0
  152.7649  140.9022  159.3019 N   0  0  0  0  0  0  0  0  0  0  0  0
  153.0953  139.6155  159.5701 C   0  0  0  0  0  0  0  0  0  0  0  0
  152.1505  138.7308  159.9874 N   0  0  0  0  0  0  0  0  0  0  0  0
  152.4820  137.4578  160.2243 C   0  0  0  0  0  0  0  0  0  0  0  0
  153.6732  136.8681  160.1000 N   0  0  0  0  0  0  0  0  0  0  0  0
  154.6198  137.7507  159.6693 C   0  0  0  0  0  0  0  0  0  0  0  0
  154.4165  139.1291  159.3818 C   0  0  0  0  0  0  0  0  0  0  0  0
  155.6067  139.7109  158.9647 N   0  0  0  0  0  0  0  0  0  0  0  0
  156.4673  138.7303  159.0026 C   0  0  0  0  0  0  0  0  0  0  0  0
  155.9612  137.5192  159.4194 N   0  0  0  0  0  0  0  0  0  0  0  0
  156.6939  136.2695  159.5514 C   0  0  0  0  0  0  0  0  0  0  0  0
  156.5185  135.3090  158.3495 C   0  0  0  0  0  0  0  0  0  0  0  0
  157.3123  134.1608  158.5971 O   0  0  0  0  0  0  0  0  0  0  0  0
  155.0536  134.8592  158.1567 C   0  0  0  0  0  0  0  0  0  0  0  0
  154.8569  134.0757  156.8468 C   0  0  0  0  0  0  0  0  0  0  0  0
  155.3151  134.8458  155.7421 O   0  0  0  0  0  0  0  0  0  0  0  0
  156.7083  135.1253  155.8063 C   0  0  0  0  0  0  0  0  0  0  0  0
  157.0184  135.9749  157.0516 C   0  0  0  0  0  0  0  0  0  0  0  0
  152.4128  141.7741  160.4279 C   0  0  1  0  0  0  0  0  0  0  0  0
  153.5032  141.8405  161.5259 C   0  0  0  0  0  0  0  0  0  0  0  0
  153.7429  143.3198  164.5152 H   0  0  0  0  0  0  0  0  0  0  0  0
  155.0177  143.0788  163.3142 H   0  0  0  0  0  0  0  0  0  0  0  0
  154.2202  141.6880  164.0588 H   0  0  0  0  0  0  0  0  0  0  0  0
  152.5294  144.6931  163.0045 H   0  0  0  0  0  0  0  0  0  0  0  0
  153.7734  144.4871  161.7836 H   0  0  0  0  0  0  0  0  0  0  0  0
  150.8020  143.7783  161.4826 H   0  0  0  0  0  0  0  0  0  0  0  0
  151.6153  145.1278  160.7219 H   0  0  0  0  0  0  0  0  0  0  0  0
  153.0794  143.6016  159.4587 H   0  0  0  0  0  0  0  0  0  0  0  0
  150.7389  142.4477  157.0374 H   0  0  0  0  0  0  0  0  0  0  0  0
  152.4221  142.8455  157.3212 H   0  0  0  0  0  0  0  0  0  0  0  0
  150.8584  140.5012  158.5429 H   0  0  0  0  0  0  0  0  0  0  0  0
  152.1442  140.3847  157.3556 H   0  0  0  0  0  0  0  0  0  0  0  0
  151.6766  136.8204  160.5582 H   0  0  0  0  0  0  0  0  0  0  0  0
  157.5039  138.8642  158.7292 H   0  0  0  0  0  0  0  0  0  0  0  0
  157.7492  136.5093  159.6871 H   0  0  0  0  0  0  0  0  0  0  0  0
  156.3737  135.7838  160.4744 H   0  0  0  0  0  0  0  0  0  0  0  0
  156.9103  133.4199  158.1697 H   0  0  0  0  0  0  0  0  0  0  0  0
  154.7169  134.2539  158.9991 H   0  0  0  0  0  0  0  0  0  0  0  0
  154.4085  135.7384  158.1341 H   0  0  0  0  0  0  0  0  0  0  0  0
  155.3793  133.1181  156.8788 H   0  0  0  0  0  0  0  0  0  0  0  0
  153.7997  133.8518  156.7031 H   0  0  0  0  0  0  0  0  0  0  0  0
  157.2786  134.1952  155.8112 H   0  0  0  0  0  0  0  0  0  0  0  0
  156.9978  135.6671  154.9058 H   0  0  0  0  0  0  0  0  0  0  0  0
  156.5335  136.9450  156.9347 H   0  0  0  0  0  0  0  0  0  0  0  0
  158.0893  136.1747  157.1107 H   0  0  0  0  0  0  0  0  0  0  0  0
  151.4874  141.3993  160.8694 H   0  0  0  0  0  0  0  0  0  0  0  0
  154.4402  142.2164  161.1110 H   0  0  0  0  0  0  0  0  0  0  0  0
  153.7081  140.8471  161.9245 H   0  0  0  0  0  0  0  0  0  0  0  0
  1  2  1  0  0  0  0
  1 29  1  0  0  0  0
  1 30  1  0  0  0  0
  1 31  1  0  0  0  0
  2 28  1  0  0  0  0
  2  3  1  0  0  0  0
  3  4  1  0  0  0  0
  3 32  1  0  0  0  0
  3 33  1  0  0  0  0
  4  5  1  0  0  0  0
  4 34  1  0  0  0  0
  4 35  1  0  0  0  0
  5 27  1  0  0  0  0
  5  6  1  0  0  0  0
  5 36  1  0  0  0  0
  6  7  1  0  0  0  0
  7  8  1  0  0  0  0
  7 37  1  0  0  0  0
  7 38  1  0  0  0  0
  8  9  1  0  0  0  0
  8 39  1  0  0  0  0
  8 40  1  0  0  0  0
  9 10  1  0  0  0  0
  9 27  1  0  0  0  0
 10 15  1  0  0  0  0
 10 11  2  0  0  0  0
 11 12  1  0  0  0  0
 12 13  2  0  0  0  0
 12 41  1  0  0  0  0
 13 14  1  0  0  0  0
 14 18  1  0  0  0  0
 14 15  2  0  0  0  0
 15 16  1  0  0  0  0
 16 17  2  0  0  0  0
 17 18  1  0  0  0  0
 17 42  1  0  0  0  0
 18 19  1  0  0  0  0
 19 20  1  0  0  0  0
 19 43  1  0  0  0  0
 19 44  1  0  0  0  0
 20 26  1  0  0  0  0
 20 21  1  0  0  0  0
 20 22  1  0  0  0  0
 21 45  1  0  0  0  0
 22 23  1  0  0  0  0
 22 46  1  0  0  0  0
 22 47  1  0  0  0  0
 23 24  1  0  0  0  0
 23 48  1  0  0  0  0
 23 49  1  0  0  0  0
 24 25  1  0  0  0  0
 25 26  1  0  0  0  0
 25 50  1  0  0  0  0
 25 51  1  0  0  0  0
 26 52  1  0  0  0  0
 26 53  1  0  0  0  0
 27 28  1  0  0  0  0
 27 54  1  0  0  0  0
 28 55  1  0  0  0  0
 28 56  1  0  0  0  0
M  END
> <s_m_source_file>
AV-unprocessed.smi

> <i_m_source_file_index>
244

> <i_lp_mmshare_version>
43012

> <i_f3d_flags>
0

> <s_epik_input>
W0NIMl0xW0NIMl1OKFtDSDNdKVtDSDJdW0NAQEhdKFtDQEhdMTIpTihbQ0gyXVtDSDJdTzIpYyhuW2NIXW4zKWMoYzM0KW5bY0hdbjRbQ0gyXUM1KFtPSF0pW0NIMl1bQ0gyXU9bQ0gyXVtDSDJdNQ==

> <s_epik_cmdline>
J2VwaWtfcHl0aG9uJywgJy1waCcsICc3LjAnLCAnLXRuJywgJzgnLCAnLW1hJywgJzIwMCcsICctbWV0YWxfYmluZGluZycsICctaW1hZScsICc8aW5maWxlLm1hZT4nLCAnLW9tYWUnLCAnPG91dGZpbGUubWFlPic=

> <r_lp_tautomer_probability>
1

> <r_epik_Ionization_Penalty>
2.27765

> <r_epik_Ionization_Penalty_Charging>
0

> <r_epik_Ionization_Penalty_Neutral>
2.27765

> <r_epik_State_Penalty>
2.4114

> <r_epik_Charging_Adjusted_Penalty>
2.4114

> <i_epik_Tot_Q>
0

> <i_epik_Tot_abs_Q>
0

> <r_epik_Metal_State_Penalty>
2.39769

> <b_epik_Metal_Only>
0

> <s_lp_Force_Field>
OPLS_2005

> <r_lp_Energy>
38.8348

> <b_lp_Chiralities_Consistent>
1

> <s_lp_Variant>
AV-unprocessed.smi:244-9

> <Gold.Version>
5.8.1

> <Gold.Id.Protein>
6NUR|6NUR_protein|mol2

> <Gold.PLP.Fitness>
40.4846

> <Gold.PLP.PLP>
-35.1172

> <Gold.PLP.part.hbond>
-2.0000

> <Gold.PLP.part.metal>
0.0000

> <Gold.PLP.part.buried>
-5.6835

> <Gold.PLP.part.nonpolar>
-26.6713

> <Gold.PLP.part.repulsive>
0.1588

> <Gold.PLP.ligand.clash>
0.0000

> <Gold.PLP.ligand.torsion>
0.3912

> <Gold.PLP.Chemscore.Hbond>
2.0000

> <Gold.PLP.Chemscore.CHOScore>
0.0000

> <Gold.PLP.Chemscore.Metal>
0.0000

> <Gold.Chemscore.Hbonds>
donor molecule, donor type, donor heavy atom, donor atom, acceptor molecule, acceptor atom, score
      P1  H  7997  8010       L1    16  0.76

> <Gold.PLP.Chemscore.Internal.Correction>
0.1497

> <Gold.Rescore>
     Score         DG    S(hbond)    S(metal)    S(lipo)     H(rot)  DE(clash)    DE(int)     intcor
     15.08     -15.52       1.30        0.00      93.85       2.06       0.03       0.42       ----

> <Gold.Chemscore.Fitness>
15.0766

> <Gold.Chemscore.DG>
-15.5201

> <Gold.Chemscore.ZeroCoef>
-5.4800

> <Gold.Chemscore.Hbond>
1.2982

> <Gold.Chemscore.Metal>
0.0000

> <Gold.Chemscore.Lipo>
93.8527

> <Gold.Chemscore.Internal_Hbond>
0.0000

> <Gold.Chemscore.DEClash>
0.0274

> <Gold.Chemscore.DEInternal>
0.4161

> <Gold.Chemscore.Rot>
2.0611

> <Gold.Chemscore.Internal.Correction>
   9.000000E+99

> <Gold.Chemscore.Hbonds>
donor molecule, donor type, donor heavy atom, donor atom, acceptor molecule, acceptor atom, score
      P1  H  7997  8010       L1    16  0.12

> <Gold.Chemscore.Hbond.Weighted>
-4.3359

> <Gold.Chemscore.Metal.Weighted>
-0.0000

> <Gold.Chemscore.Lipo.Weighted>
-10.9808

> <Gold.Chemscore.Internal_Hbond.Weighted>
0.0000

> <Gold.Chemscore.DEClash.Weighted>
0.0274

> <Gold.Chemscore.DEInternal.Weighted>
0.4161

> <Gold.Chemscore.Rot.Weighted>
5.2765

> <Gold.Chemscore.Internal.Correction.Weighted>
   9.000000E+99

> <Gold.Protein.RotatedTorsions>
[ 6907 6896 6895 6894 ] final  130.97 input  -60.11 | X-H torsion
[ 7974 7965 7964 7962 ] final  143.31 input  175.53 | X-H torsion
[ 8008 7997 7996 7995 ] final  -39.51 input   59.86 | X-H torsion
[ 10167 10162 10161 10158 ] final -113.96 input  -65.29 | X-H torsion
[ 10718 10713 10712 10709 ] final  -15.58 input   66.30 | X-H torsion
[ 10763 10752 10751 10750 ] final   71.68 input  -60.55 | X-H torsion
[ 11005 11000 10999 10996 ] final  -66.97 input  -57.11 | X-H torsion

> <Gold.Protein.ActiveResidues>
 VAL166  LYS551  ARG553  GLY616  TRP617  ASP618  TYR619  PRO620  LYS621  CYS622 
 ASP623  PHE694  ASN695  SER759  ASP760  ASP761  ALA762  ILE779  LEU786  VAL792 
 PHE793  MET794  SER795  GLU796  ALA797  LYS798  CYS799  TRP800  GLU811  SER814 

> <Gold.Protein.RotatedAtoms>
  152.3473  133.6138  159.5919 H   0  0  0  0  0  0  0  0  0  0  0  0  # atno 6907 bound_to 6896
  150.7515  133.9629  159.3530 H   0  0  0  0  0  0  0  0  0  0  0  0  # atno 6908 bound_to 6896
  151.7485  135.0839  160.0378 H   0  0  0  0  0  0  0  0  0  0  0  0  # atno 6909 bound_to 6896
  144.8932  139.5529  143.5789 H   0  0  0  0  0  0  0  0  0  0  0  0  # atno 7974 bound_to 7965
  154.4022  140.1549  156.2876 H   0  0  0  0  0  0  0  0  0  0  0  0  # atno 8008 bound_to 7997
  155.8814  140.3443  155.5868 H   0  0  0  0  0  0  0  0  0  0  0  0  # atno 8009 bound_to 7997
  155.7663  140.0824  157.2121 H   0  0  0  0  0  0  0  0  0  0  0  0  # atno 8010 bound_to 7997
  140.1061  143.4569  152.1782 H   0  0  0  0  0  0  0  0  0  0  0  0  # atno 10167 bound_to 10162
  156.5998  130.4821  149.6244 H   0  0  0  0  0  0  0  0  0  0  0  0  # atno 10718 bound_to 10713
  153.0413  135.5128  154.7629 H   0  0  0  0  0  0  0  0  0  0  0  0  # atno 10763 bound_to 10752
  154.6564  135.2932  154.9924 H   0  0  0  0  0  0  0  0  0  0  0  0  # atno 10764 bound_to 10752
  154.0790  135.6667  153.4887 H   0  0  0  0  0  0  0  0  0  0  0  0  # atno 10765 bound_to 10752
  141.1496  133.6710  156.6222 H   0  0  0  0  0  0  0  0  0  0  0  0  # atno 11005 bound_to 11000
  146.3066  139.7600  142.9052 LP  0  0  0  0  0  0  0  0  0  0  0  0  # atno 17320 bound_to 7965
  145.3747  141.0348  143.3211 LP  0  0  0  0  0  0  0  0  0  0  0  0  # atno 17321 bound_to 7965
  139.5644  144.7426  151.4063 LP  0  0  0  0  0  0  0  0  0  0  0  0  # atno 17342 bound_to 10162
  140.6951  143.7768  150.7314 LP  0  0  0  0  0  0  0  0  0  0  0  0  # atno 17343 bound_to 10162
  156.2479  130.6890  151.1617 LP  0  0  0  0  0  0  0  0  0  0  0  0  # atno 17370 bound_to 10713
  157.7282  131.0633  150.5829 LP  0  0  0  0  0  0  0  0  0  0  0  0  # atno 17371 bound_to 10713
  140.3532  134.7751  157.4481 LP  0  0  0  0  0  0  0  0  0  0  0  0  # atno 17394 bound_to 11000
  140.0844  134.5687  155.8507 LP  0  0  0  0  0  0  0  0  0  0  0  0  # atno 17395 bound_to 11000

$$$$
