AV-unprocessed.smi:2984|AV-procd|sdf|11378|dock2
  -GOLD-   2272016293D 1   1.00000     0.00000
 Structure written by MMmdl.
 38 39  0  0  0  0  0  0  0  0  1 V2000
  149.6600  139.7803  154.9690 O   0  0  0  0  0  0  0  0  0  0  0  0
  149.2136  140.9198  154.8266 C   0  0  0  0  0  0  0  0  0  0  0  0
  148.0630  141.1530  153.8377 C   0  0  0  0  0  0  0  0  0  0  0  0
  146.9949  141.9903  154.4055 N   0  0  0  0  0  0  0  0  0  0  0  0
  146.5424  142.9824  153.5523 N   0  0  0  0  0  0  0  0  0  0  0  0
  145.6240  143.7930  153.9518 C   0  0  0  0  0  0  0  0  0  0  0  0
  145.0366  143.7018  155.2698 C   0  0  0  0  0  0  0  0  0  0  0  0
  143.8099  144.8205  155.7510 Cl  0  0  0  0  0  0  0  0  0  0  0  0
  145.4785  142.7190  156.0942 C   0  0  0  0  0  0  0  0  0  0  0  0
  144.8211  142.5455  157.6854 Cl  0  0  0  0  0  0  0  0  0  0  0  0
  146.5230  141.7753  155.6723 C   0  0  0  0  0  0  0  0  0  0  0  0
  146.9483  140.8693  156.3898 O   0  0  0  0  0  0  0  0  0  0  0  0
  149.6619  142.0155  155.4749 N   0  0  0  0  0  0  0  0  0  0  0  0
  150.6306  142.0824  156.4070 C   0  0  0  0  0  0  0  0  0  0  0  0
  151.4358  141.1877  156.6735 O   0  0  0  0  0  0  0  0  0  0  0  0
  150.6095  143.2678  157.0344 N   0  0  0  0  0  0  0  0  0  0  0  0
  151.5573  143.6981  158.0582 C   0  0  0  0  0  0  0  0  0  0  0  0
  151.7613  142.5866  159.1090 C   0  0  0  0  0  0  0  0  0  0  0  0
  152.6940  143.0466  160.2412 C   0  0  0  0  0  0  0  0  0  0  0  0
  152.1805  144.3375  160.8976 C   0  0  0  0  0  0  0  0  0  0  0  0
  151.9827  145.4486  159.8547 C   0  0  0  0  0  0  0  0  0  0  0  0
  151.0482  144.9913  158.7228 C   0  0  0  0  0  0  0  0  0  0  0  0
  148.4737  141.6147  152.9379 H   0  0  0  0  0  0  0  0  0  0  0  0
  147.6577  140.1930  153.5124 H   0  0  0  0  0  0  0  0  0  0  0  0
  145.2410  144.5920  153.3169 H   0  0  0  0  0  0  0  0  0  0  0  0
  149.2031  142.8842  155.2440 H   0  0  0  0  0  0  0  0  0  0  0  0
  149.8767  143.9192  156.7947 H   0  0  0  0  0  0  0  0  0  0  0  0
  152.5167  143.9170  157.5853 H   0  0  0  0  0  0  0  0  0  0  0  0
  150.7981  142.2957  159.5309 H   0  0  0  0  0  0  0  0  0  0  0  0
  152.1737  141.6931  158.6386 H   0  0  0  0  0  0  0  0  0  0  0  0
  152.7852  142.2597  160.9904 H   0  0  0  0  0  0  0  0  0  0  0  0
  153.6964  143.2125  159.8442 H   0  0  0  0  0  0  0  0  0  0  0  0
  151.2352  144.1389  161.4042 H   0  0  0  0  0  0  0  0  0  0  0  0
  152.8799  144.6680  161.6659 H   0  0  0  0  0  0  0  0  0  0  0  0
  151.5775  146.3402  160.3340 H   0  0  0  0  0  0  0  0  0  0  0  0
  152.9491  145.7341  159.4373 H   0  0  0  0  0  0  0  0  0  0  0  0
  150.9592  145.7841  157.9789 H   0  0  0  0  0  0  0  0  0  0  0  0
  150.0470  144.8316  159.1256 H   0  0  0  0  0  0  0  0  0  0  0  0
  1  2  2  0  0  0  0
  2  3  1  0  0  0  0
  2 13  1  0  0  0  0
  3  4  1  0  0  0  0
  3 23  1  0  0  0  0
  3 24  1  0  0  0  0
  4 11  1  0  0  0  0
  4  5  1  0  0  0  0
  5  6  2  0  0  0  0
  6  7  1  0  0  0  0
  6 25  1  0  0  0  0
  7  8  1  0  0  0  0
  7  9  2  0  0  0  0
  9 10  1  0  0  0  0
  9 11  1  0  0  0  0
 11 12  2  0  0  0  0
 13 14  1  0  0  0  0
 13 26  1  0  0  0  0
 14 15  2  0  0  0  0
 14 16  1  0  0  0  0
 16 17  1  0  0  0  0
 16 27  1  0  0  0  0
 17 22  1  0  0  0  0
 17 18  1  0  0  0  0
 17 28  1  0  0  0  0
 18 19  1  0  0  0  0
 18 29  1  0  0  0  0
 18 30  1  0  0  0  0
 19 20  1  0  0  0  0
 19 31  1  0  0  0  0
 19 32  1  0  0  0  0
 20 21  1  0  0  0  0
 20 33  1  0  0  0  0
 20 34  1  0  0  0  0
 21 22  1  0  0  0  0
 21 35  1  0  0  0  0
 21 36  1  0  0  0  0
 22 37  1  0  0  0  0
 22 38  1  0  0  0  0
M  END
> <s_m_source_file>
AV-unprocessed.smi

> <i_m_source_file_index>
2984

> <i_lp_mmshare_version>
43012

> <i_f3d_flags>
0

> <s_epik_input>
Tz1jMWMoQ2wpYyhDbClbY0hdbm4xW0NIMl1DKD1PKVtOSF1DKD1PKVtOSF1bQ0hdMltDSDJdW0NIMl1bQ0gyXVtDSDJdW0NIMl0y

> <s_epik_cmdline>
J2VwaWtfcHl0aG9uJywgJy1waCcsICc3LjAnLCAnLXRuJywgJzgnLCAnLW1hJywgJzIwMCcsICctbWV0YWxfYmluZGluZycsICctaW1hZScsICc8aW5maWxlLm1hZT4nLCAnLW9tYWUnLCAnPG91dGZpbGUubWFlPic=

> <r_lp_tautomer_probability>
1

> <r_epik_Ionization_Penalty>
3.27035e-05

> <r_epik_Ionization_Penalty_Charging>
2.24292e-11

> <r_epik_Ionization_Penalty_Neutral>
3.27035e-05

> <r_epik_State_Penalty>
-0

> <r_epik_Charging_Adjusted_Penalty>
2.24292e-11

> <i_epik_Tot_Q>
0

> <i_epik_Tot_abs_Q>
0

> <r_epik_Metal_State_Penalty>
-0

> <b_epik_Metal_Only>
0

> <s_lp_Force_Field>
OPLS_2005

> <r_lp_Energy>
25.082

> <b_lp_Chiralities_Consistent>
1

> <s_lp_Variant>
AV-unprocessed.smi:2984-1

> <Gold.Version>
5.8.1

> <Gold.Id.Protein>
6NUR|6NUR_protein|mol2

> <Gold.PLP.Fitness>
49.9019

> <Gold.PLP.PLP>
-44.9045

> <Gold.PLP.part.hbond>
-2.4308

> <Gold.PLP.part.metal>
0.0000

> <Gold.PLP.part.buried>
-5.4015

> <Gold.PLP.part.nonpolar>
-38.2606

> <Gold.PLP.part.repulsive>
0.5199

> <Gold.PLP.ligand.clash>
0.0000

> <Gold.PLP.ligand.torsion>
0.5174

> <Gold.PLP.Chemscore.Hbond>
1.9920

> <Gold.PLP.Chemscore.CHOScore>
0.0000

> <Gold.PLP.Chemscore.Metal>
0.0000

> <Gold.Chemscore.Hbonds>
donor molecule, donor type, donor heavy atom, donor atom, acceptor molecule, acceptor atom, score
      L1  H    13    26       P1  8028  0.99
      L1  H    16    27       P1  8028  1.00

> <Gold.PLP.Chemscore.Internal.Correction>
0.0561

> <Gold.Rescore>
     Score         DG    S(hbond)    S(metal)    S(lipo)     H(rot)  DE(clash)    DE(int)     intcor
     13.91     -18.69       1.85        0.00      95.76       1.63       0.06       4.72       ----

> <Gold.Chemscore.Fitness>
13.9117

> <Gold.Chemscore.DG>
-18.6917

> <Gold.Chemscore.ZeroCoef>
-5.4800

> <Gold.Chemscore.Hbond>
1.8492

> <Gold.Chemscore.Metal>
0.0000

> <Gold.Chemscore.Lipo>
95.7569

> <Gold.Chemscore.Internal_Hbond>
0.0000

> <Gold.Chemscore.DEClash>
0.0607

> <Gold.Chemscore.DEInternal>
4.7193

> <Gold.Chemscore.Rot>
1.6283

> <Gold.Chemscore.Internal.Correction>
   9.000000E+99

> <Gold.Chemscore.Hbonds>
donor molecule, donor type, donor heavy atom, donor atom, acceptor molecule, acceptor atom, score
      L1  H    13    26       P1  8028  0.94
      L1  H    16    27       P1  8028  0.95

> <Gold.Chemscore.Hbond.Weighted>
-6.1765

> <Gold.Chemscore.Metal.Weighted>
-0.0000

> <Gold.Chemscore.Lipo.Weighted>
-11.2036

> <Gold.Chemscore.Internal_Hbond.Weighted>
0.0000

> <Gold.Chemscore.DEClash.Weighted>
0.0607

> <Gold.Chemscore.DEInternal.Weighted>
4.7193

> <Gold.Chemscore.Rot.Weighted>
4.1684

> <Gold.Chemscore.Internal.Correction.Weighted>
   9.000000E+99

> <Gold.Protein.RotatedTorsions>
[ 6907 6896 6895 6894 ] final  -32.25 input  -60.11 | X-H torsion
[ 7974 7965 7964 7962 ] final  143.89 input  175.53 | X-H torsion
[ 8008 7997 7996 7995 ] final -117.60 input   59.86 | X-H torsion
[ 10167 10162 10161 10158 ] final -160.62 input  -65.29 | X-H torsion
[ 10718 10713 10712 10709 ] final  -99.70 input   66.30 | X-H torsion
[ 10763 10752 10751 10750 ] final -163.11 input  -60.55 | X-H torsion
[ 11005 11000 10999 10996 ] final  132.90 input  -57.11 | X-H torsion

> <Gold.Protein.ActiveResidues>
 VAL166  LYS551  ARG553  GLY616  TRP617  ASP618  TYR619  PRO620  LYS621  CYS622 
 ASP623  PHE694  ASN695  SER759  ASP760  ASP761  ALA762  ILE779  LEU786  VAL792 
 PHE793  MET794  SER795  GLU796  ALA797  LYS798  CYS799  TRP800  GLU811  SER814 

> <Gold.Protein.RotatedAtoms>
  151.0812  134.9859  159.8356 H   0  0  0  0  0  0  0  0  0  0  0  0  # atno 6907 bound_to 6896
  152.5420  134.2179  159.8786 H   0  0  0  0  0  0  0  0  0  0  0  0  # atno 6908 bound_to 6896
  151.2210  133.4459  159.2634 H   0  0  0  0  0  0  0  0  0  0  0  0  # atno 6909 bound_to 6896
  144.8882  139.5597  143.5811 H   0  0  0  0  0  0  0  0  0  0  0  0  # atno 7974 bound_to 7965
  155.0864  140.0394  157.2655 H   0  0  0  0  0  0  0  0  0  0  0  0  # atno 8008 bound_to 7997
  154.6866  140.2644  155.6829 H   0  0  0  0  0  0  0  0  0  0  0  0  # atno 8009 bound_to 7997
  156.2714  140.2768  156.1430 H   0  0  0  0  0  0  0  0  0  0  0  0  # atno 8010 bound_to 7997
  139.6526  144.0057  152.2172 H   0  0  0  0  0  0  0  0  0  0  0  0  # atno 10167 bound_to 10162
  156.0141  130.5294  150.6708 H   0  0  0  0  0  0  0  0  0  0  0  0  # atno 10718 bound_to 10713
  154.7152  135.3014  154.9134 H   0  0  0  0  0  0  0  0  0  0  0  0  # atno 10763 bound_to 10752
  154.0023  135.6705  153.4764 H   0  0  0  0  0  0  0  0  0  0  0  0  # atno 10764 bound_to 10752
  153.0788  135.5020  154.8375 H   0  0  0  0  0  0  0  0  0  0  0  0  # atno 10765 bound_to 10752
  139.9818  134.9545  156.9648 H   0  0  0  0  0  0  0  0  0  0  0  0  # atno 11005 bound_to 11000
  146.3038  139.7511  142.9072 LP  0  0  0  0  0  0  0  0  0  0  0  0  # atno 17320 bound_to 7965
  145.3830  141.0361  143.3167 LP  0  0  0  0  0  0  0  0  0  0  0  0  # atno 17321 bound_to 7965
  139.9775  144.6451  150.7932 LP  0  0  0  0  0  0  0  0  0  0  0  0  # atno 17342 bound_to 10162
  140.7544  143.3027  151.3039 LP  0  0  0  0  0  0  0  0  0  0  0  0  # atno 17343 bound_to 10162
  157.4431  131.0863  151.0923 LP  0  0  0  0  0  0  0  0  0  0  0  0  # atno 17370 bound_to 10713
  157.1461  130.6164  149.5569 LP  0  0  0  0  0  0  0  0  0  0  0  0  # atno 17371 bound_to 10713
  140.5081  134.1030  155.7264 LP  0  0  0  0  0  0  0  0  0  0  0  0  # atno 17394 bound_to 11000
  141.1489  133.9005  157.2147 LP  0  0  0  0  0  0  0  0  0  0  0  0  # atno 17395 bound_to 11000

$$$$
