AV-unprocessed.smi:2374|AV-procd|sdf|9441|dock2
  -GOLD-   2272013 73D 1   1.00000     0.00000
 Structure written by MMmdl.
 38 39  0  0  0  0  0  0  0  0  1 V2000
  151.2471  134.6785  156.1120 C   0  0  0  0  0  0  0  0  0  0  0  0
  151.0017  133.2310  155.7952 C   0  0  0  0  0  0  0  0  0  0  0  0
  151.3778  132.3032  156.6591 N   0  0  0  0  0  0  0  0  0  0  0  0
  151.0284  131.0782  156.0827 O   0  0  0  0  0  0  0  0  0  0  0  0
  150.4516  131.3196  154.8780 C   0  0  0  0  0  0  0  0  0  0  0  0
  150.0106  130.1309  154.0929 C   0  0  0  0  0  0  0  0  0  0  0  0
  150.4015  132.6641  154.6334 C   0  0  0  0  0  0  0  0  0  0  0  0
  149.8531  133.3755  153.4236 C   0  0  0  0  0  0  0  0  0  0  0  0
  148.3665  133.0551  153.2780 C   0  0  0  0  0  0  0  0  0  0  0  0
  147.8788  132.1078  153.8930 O   0  0  0  0  0  0  0  0  0  0  0  0
  147.6678  133.8449  152.4456 N   0  0  0  0  0  0  0  0  0  0  0  0
  146.2543  133.7186  152.0875 C   0  0  0  0  0  0  0  0  0  0  0  0
  145.3854  134.0145  153.2445 C   0  0  0  0  0  0  0  0  0  0  0  0
  144.7052  134.2476  154.1513 N   0  0  0  0  0  0  0  0  0  0  0  0
  145.9778  134.7422  150.9629 C   0  0  0  0  0  0  0  0  0  0  0  0
  144.5547  134.6180  150.3921 C   0  0  0  0  0  0  0  0  0  0  0  0
  144.2901  133.1953  149.8798 C   0  0  0  0  0  0  0  0  0  0  0  0
  144.5546  132.1524  150.9749 C   0  0  0  0  0  0  0  0  0  0  0  0
  145.9762  132.2937  151.5453 C   0  0  0  0  0  0  0  0  0  0  0  0
  152.1550  135.0342  155.6244 H   0  0  0  0  0  0  0  0  0  0  0  0
  151.3598  134.8420  157.1844 H   0  0  0  0  0  0  0  0  0  0  0  0
  150.4204  135.3014  155.7701 H   0  0  0  0  0  0  0  0  0  0  0  0
  150.3723  129.2055  154.5417 H   0  0  0  0  0  0  0  0  0  0  0  0
  150.3904  130.1815  153.0722 H   0  0  0  0  0  0  0  0  0  0  0  0
  148.9226  130.0826  154.0466 H   0  0  0  0  0  0  0  0  0  0  0  0
  149.9739  134.4562  153.5091 H   0  0  0  0  0  0  0  0  0  0  0  0
  150.3810  133.0854  152.5145 H   0  0  0  0  0  0  0  0  0  0  0  0
  148.1706  134.5968  151.9975 H   0  0  0  0  0  0  0  0  0  0  0  0
  146.1318  135.7562  151.3349 H   0  0  0  0  0  0  0  0  0  0  0  0
  146.6957  134.6037  150.1524 H   0  0  0  0  0  0  0  0  0  0  0  0
  143.8223  134.8756  151.1579 H   0  0  0  0  0  0  0  0  0  0  0  0
  144.4166  135.3347  149.5821 H   0  0  0  0  0  0  0  0  0  0  0  0
  143.2620  133.1116  149.5262 H   0  0  0  0  0  0  0  0  0  0  0  0
  144.9304  132.9917  149.0206 H   0  0  0  0  0  0  0  0  0  0  0  0
  143.8218  132.2658  151.7747 H   0  0  0  0  0  0  0  0  0  0  0  0
  144.4156  131.1490  150.5717 H   0  0  0  0  0  0  0  0  0  0  0  0
  146.6981  132.0497  150.7643 H   0  0  0  0  0  0  0  0  0  0  0  0
  146.1179  131.5513  152.3313 H   0  0  0  0  0  0  0  0  0  0  0  0
  1  2  1  0  0  0  0
  1 20  1  0  0  0  0
  1 21  1  0  0  0  0
  1 22  1  0  0  0  0
  2  7  1  0  0  0  0
  2  3  2  0  0  0  0
  3  4  1  0  0  0  0
  4  5  1  0  0  0  0
  5  6  1  0  0  0  0
  5  7  2  0  0  0  0
  6 23  1  0  0  0  0
  6 24  1  0  0  0  0
  6 25  1  0  0  0  0
  7  8  1  0  0  0  0
  8  9  1  0  0  0  0
  8 26  1  0  0  0  0
  8 27  1  0  0  0  0
  9 10  2  0  0  0  0
  9 11  1  0  0  0  0
 11 12  1  0  0  0  0
 11 28  1  0  0  0  0
 12 19  1  0  0  0  0
 12 13  1  0  0  0  0
 12 15  1  0  0  0  0
 13 14  3  0  0  0  0
 15 16  1  0  0  0  0
 15 29  1  0  0  0  0
 15 30  1  0  0  0  0
 16 17  1  0  0  0  0
 16 31  1  0  0  0  0
 16 32  1  0  0  0  0
 17 18  1  0  0  0  0
 17 33  1  0  0  0  0
 17 34  1  0  0  0  0
 18 19  1  0  0  0  0
 18 35  1  0  0  0  0
 18 36  1  0  0  0  0
 19 37  1  0  0  0  0
 19 38  1  0  0  0  0
M  END
> <s_m_source_file>
AV-unprocessed.smi

> <i_m_source_file_index>
2374

> <i_lp_mmshare_version>
43012

> <i_f3d_flags>
0

> <s_epik_input>
W0NIM11jMW5vYyhbQ0gzXSljMVtDSDJdQyg9TylbTkhdQzIoQyNOKVtDSDJdW0NIMl1bQ0gyXVtDSDJdW0NIMl0y

> <s_epik_cmdline>
J2VwaWtfcHl0aG9uJywgJy1waCcsICc3LjAnLCAnLXRuJywgJzgnLCAnLW1hJywgJzIwMCcsICctbWV0YWxfYmluZGluZycsICctaW1hZScsICc8aW5maWxlLm1hZT4nLCAnLW9tYWUnLCAnPG91dGZpbGUubWFlPic=

> <r_lp_tautomer_probability>
1

> <r_epik_Ionization_Penalty>
5.32351e-07

> <r_epik_Ionization_Penalty_Charging>
0

> <r_epik_Ionization_Penalty_Neutral>
5.32351e-07

> <r_epik_State_Penalty>
-0

> <r_epik_Charging_Adjusted_Penalty>
0

> <i_epik_Tot_Q>
0

> <i_epik_Tot_abs_Q>
0

> <r_epik_Metal_State_Penalty>
-0

> <b_epik_Metal_Only>
0

> <s_lp_Force_Field>
OPLS_2005

> <r_lp_Energy>
1.24433

> <b_lp_Chiralities_Consistent>
1

> <s_lp_Variant>
AV-unprocessed.smi:2374-1

> <Gold.Version>
5.8.1

> <Gold.Id.Protein>
6NUR|6NUR_protein|mol2

> <Gold.PLP.Fitness>
37.1878

> <Gold.PLP.PLP>
-31.7635

> <Gold.PLP.part.hbond>
-2.0000

> <Gold.PLP.part.metal>
0.0000

> <Gold.PLP.part.buried>
-4.8052

> <Gold.PLP.part.nonpolar>
-24.6401

> <Gold.PLP.part.repulsive>
0.1312

> <Gold.PLP.ligand.clash>
0.0000

> <Gold.PLP.ligand.torsion>
0.2655

> <Gold.PLP.Chemscore.Hbond>
1.9833

> <Gold.PLP.Chemscore.CHOScore>
0.0000

> <Gold.PLP.Chemscore.Metal>
0.0000

> <Gold.Chemscore.Hbonds>
donor molecule, donor type, donor heavy atom, donor atom, acceptor molecule, acceptor atom, score
      L1  H    11    28       P1  7948  0.75

> <Gold.PLP.Chemscore.Internal.Correction>
0.0053

> <Gold.Rescore>
     Score         DG    S(hbond)    S(metal)    S(lipo)     H(rot)  DE(clash)    DE(int)     intcor
     12.47     -15.91       1.74        0.00      70.13       1.40       0.78       2.66       ----

> <Gold.Chemscore.Fitness>
12.4669

> <Gold.Chemscore.DG>
-15.9051

> <Gold.Chemscore.ZeroCoef>
-5.4800

> <Gold.Chemscore.Hbond>
1.7384

> <Gold.Chemscore.Metal>
0.0000

> <Gold.Chemscore.Lipo>
70.1297

> <Gold.Chemscore.Internal_Hbond>
0.0000

> <Gold.Chemscore.DEClash>
0.7760

> <Gold.Chemscore.DEInternal>
2.6622

> <Gold.Chemscore.Rot>
1.4009

> <Gold.Chemscore.Internal.Correction>
   9.000000E+99

> <Gold.Chemscore.Hbonds>
donor molecule, donor type, donor heavy atom, donor atom, acceptor molecule, acceptor atom, score
      L1  H    11    28       P1  7948  0.09

> <Gold.Chemscore.Hbond.Weighted>
-5.8062

> <Gold.Chemscore.Metal.Weighted>
-0.0000

> <Gold.Chemscore.Lipo.Weighted>
-8.2052

> <Gold.Chemscore.Internal_Hbond.Weighted>
0.0000

> <Gold.Chemscore.DEClash.Weighted>
0.7760

> <Gold.Chemscore.DEInternal.Weighted>
2.6622

> <Gold.Chemscore.Rot.Weighted>
3.5863

> <Gold.Chemscore.Internal.Correction.Weighted>
   9.000000E+99

> <Gold.Protein.RotatedTorsions>
[ 6907 6896 6895 6894 ] final -152.79 input  -60.11 | X-H torsion
[ 7974 7965 7964 7962 ] final   93.03 input  175.53 | X-H torsion
[ 8008 7997 7996 7995 ] final  -42.89 input   59.86 | X-H torsion
[ 10167 10162 10161 10158 ] final  -78.82 input  -65.29 | X-H torsion
[ 10718 10713 10712 10709 ] final -153.16 input   66.30 | X-H torsion
[ 10763 10752 10751 10750 ] final  -47.60 input  -60.55 | X-H torsion
[ 11005 11000 10999 10996 ] final   24.15 input  -57.11 | X-H torsion

> <Gold.Protein.ActiveResidues>
 VAL166  LYS551  ARG553  GLY616  TRP617  ASP618  TYR619  PRO620  LYS621  CYS622 
 ASP623  PHE694  ASN695  SER759  ASP760  ASP761  ALA762  ILE779  LEU786  VAL792 
 PHE793  MET794  SER795  GLU796  ALA797  LYS798  CYS799  TRP800  GLU811  SER814 

> <Gold.Protein.RotatedAtoms>
  151.2330  133.4440  159.2604 H   0  0  0  0  0  0  0  0  0  0  0  0  # atno 6907 bound_to 6896
  151.0776  134.9838  159.8350 H   0  0  0  0  0  0  0  0  0  0  0  0  # atno 6908 bound_to 6896
  152.5420  134.2272  159.8863 H   0  0  0  0  0  0  0  0  0  0  0  0  # atno 6909 bound_to 6896
  145.4843  139.2278  143.2865 H   0  0  0  0  0  0  0  0  0  0  0  0  # atno 7974 bound_to 7965
  154.3997  140.1462  156.3430 H   0  0  0  0  0  0  0  0  0  0  0  0  # atno 8008 bound_to 7997
  155.8339  140.3464  155.5568 H   0  0  0  0  0  0  0  0  0  0  0  0  # atno 8009 bound_to 7997
  155.8159  140.0891  157.1868 H   0  0  0  0  0  0  0  0  0  0  0  0  # atno 8010 bound_to 7997
  140.4649  143.2443  151.8294 H   0  0  0  0  0  0  0  0  0  0  0  0  # atno 10167 bound_to 10162
  156.4822  130.8308  151.2535 H   0  0  0  0  0  0  0  0  0  0  0  0  # atno 10718 bound_to 10713
  154.0640  135.6614  153.4815 H   0  0  0  0  0  0  0  0  0  0  0  0  # atno 10763 bound_to 10752
  153.0416  135.5141  154.7631 H   0  0  0  0  0  0  0  0  0  0  0  0  # atno 10764 bound_to 10752
  154.6676  135.3024  154.9751 H   0  0  0  0  0  0  0  0  0  0  0  0  # atno 10765 bound_to 10752
  140.3618  134.2117  155.7672 H   0  0  0  0  0  0  0  0  0  0  0  0  # atno 11005 bound_to 11000
  146.2322  140.5632  142.8970 LP  0  0  0  0  0  0  0  0  0  0  0  0  # atno 17320 bound_to 7965
  144.7870  140.5957  143.6567 LP  0  0  0  0  0  0  0  0  0  0  0  0  # atno 17321 bound_to 7965
  139.4811  144.4963  151.9119 LP  0  0  0  0  0  0  0  0  0  0  0  0  # atno 17342 bound_to 10162
  140.4049  144.2445  150.5891 LP  0  0  0  0  0  0  0  0  0  0  0  0  # atno 17343 bound_to 10162
  157.7482  131.0041  150.3064 LP  0  0  0  0  0  0  0  0  0  0  0  0  # atno 17370 bound_to 10713
  156.3510  130.3831  149.7329 LP  0  0  0  0  0  0  0  0  0  0  0  0  # atno 17371 bound_to 10713
  141.1981  133.8042  157.0595 LP  0  0  0  0  0  0  0  0  0  0  0  0  # atno 17394 bound_to 11000
  140.0620  134.9749  157.1321 LP  0  0  0  0  0  0  0  0  0  0  0  0  # atno 17395 bound_to 11000

$$$$
