AV-unprocessed.smi:142|AV-procd|sdf|1191|dock10
  -GOLD-   2262018353D 1   1.00000     0.00000
 Structure written by MMmdl.
 52 55  0  0  0  0  0  0  0  0  1 V2000
  152.0143  138.5861  156.1565 C   0  0  0  0  0  0  0  0  0  0  0  0
  151.5456  138.7112  157.6124 C   0  0  2  0  0  0  0  0  0  0  0  0
  150.2569  138.0380  157.7625 N   0  0  0  0  0  0  0  0  0  0  0  0
  149.9510  137.1591  158.7288 C   0  0  0  0  0  0  0  0  0  0  0  0
  150.7603  136.7813  159.5774 O   0  0  0  0  0  0  0  0  0  0  0  0
  148.5068  136.6374  158.7273 C   0  0  0  0  0  0  0  0  0  0  0  0
  148.3156  135.4597  159.6012 N   0  0  0  0  0  0  0  0  0  0  0  0
  148.2328  135.6668  161.0010 C   0  0  0  0  0  0  0  0  0  0  0  0
  148.2951  136.7988  161.4834 O   0  0  0  0  0  0  0  0  0  0  0  0
  148.0854  134.4610  161.8079 C   0  0  0  0  0  0  0  0  0  0  0  0
  148.0135  134.5598  163.1463 F   0  0  0  0  0  0  0  0  0  0  0  0
  148.0251  133.2431  161.2311 C   0  0  0  0  0  0  0  0  0  0  0  0
  148.0863  133.0561  159.8642 N   0  0  0  0  0  0  0  0  0  0  0  0
  148.0665  131.6502  159.3098 C   0  0  1  0  0  0  0  0  0  0  0  0
  149.1694  130.7424  159.8868 C   0  0  0  0  0  0  0  0  0  0  0  0
  148.3803  129.6000  160.5060 C   0  0  0  0  0  0  0  0  0  0  0  0
  147.0451  129.6748  159.7739 C   0  0  0  0  0  0  0  0  0  0  0  0
  146.8362  131.0694  159.6150 O   0  0  0  0  0  0  0  0  0  0  0  0
  148.2661  134.1722  159.0146 C   0  0  0  0  0  0  0  0  0  0  0  0
  148.3855  134.0301  157.7968 O   0  0  0  0  0  0  0  0  0  0  0  0
  151.5173  140.1735  158.0515 C   0  0  0  0  0  0  0  0  0  0  0  0
  150.7763  141.1073  157.2961 C   0  0  0  0  0  0  0  0  0  0  0  0
  150.7261  142.4608  157.6818 C   0  0  0  0  0  0  0  0  0  0  0  0
  151.4171  142.8944  158.8312 C   0  0  0  0  0  0  0  0  0  0  0  0
  151.3716  144.2483  159.2233 C   0  0  0  0  0  0  0  0  0  0  0  0
  152.0646  144.6731  160.3736 C   0  0  0  0  0  0  0  0  0  0  0  0
  152.8048  143.7474  161.1344 C   0  0  0  0  0  0  0  0  0  0  0  0
  152.8540  142.3942  160.7472 C   0  0  0  0  0  0  0  0  0  0  0  0
  152.1607  141.9632  159.5973 C   0  0  0  0  0  0  0  0  0  0  0  0
  152.2044  140.6094  159.2082 C   0  0  0  0  0  0  0  0  0  0  0  0
  153.0077  139.0162  156.0263 H   0  0  0  0  0  0  0  0  0  0  0  0
  151.3367  139.1034  155.4761 H   0  0  0  0  0  0  0  0  0  0  0  0
  152.0661  137.5418  155.8470 H   0  0  0  0  0  0  0  0  0  0  0  0
  152.2706  138.1878  158.2390 H   0  0  0  0  0  0  0  0  0  0  0  0
  149.5340  138.2874  157.1034 H   0  0  0  0  0  0  0  0  0  0  0  0
  147.8351  137.4438  159.0275 H   0  0  0  0  0  0  0  0  0  0  0  0
  148.2211  136.4263  157.6959 H   0  0  0  0  0  0  0  0  0  0  0  0
  147.9228  132.3811  161.8744 H   0  0  0  0  0  0  0  0  0  0  0  0
  148.1553  131.7521  158.2271 H   0  0  0  0  0  0  0  0  0  0  0  0
  149.7921  130.3882  159.0647 H   0  0  0  0  0  0  0  0  0  0  0  0
  149.8073  131.2596  160.6040 H   0  0  0  0  0  0  0  0  0  0  0  0
  148.8712  128.6333  160.3934 H   0  0  0  0  0  0  0  0  0  0  0  0
  148.2306  129.7787  161.5711 H   0  0  0  0  0  0  0  0  0  0  0  0
  147.1119  129.2016  158.7930 H   0  0  0  0  0  0  0  0  0  0  0  0
  146.2318  129.2068  160.3292 H   0  0  0  0  0  0  0  0  0  0  0  0
  150.2418  140.7865  156.4139 H   0  0  0  0  0  0  0  0  0  0  0  0
  150.1552  143.1629  157.0916 H   0  0  0  0  0  0  0  0  0  0  0  0
  150.8071  144.9657  158.6453 H   0  0  0  0  0  0  0  0  0  0  0  0
  152.0292  145.7102  160.6725 H   0  0  0  0  0  0  0  0  0  0  0  0
  153.3361  144.0755  162.0157 H   0  0  0  0  0  0  0  0  0  0  0  0
  153.4261  141.6911  161.3353 H   0  0  0  0  0  0  0  0  0  0  0  0
  152.7694  139.9065  159.8033 H   0  0  0  0  0  0  0  0  0  0  0  0
  1  2  1  0  0  0  0
  1 31  1  0  0  0  0
  1 32  1  0  0  0  0
  1 33  1  0  0  0  0
  2  3  1  0  0  0  0
  2 21  1  0  0  0  0
  2 34  1  0  0  0  0
  3  4  1  0  0  0  0
  3 35  1  0  0  0  0
  4  5  2  0  0  0  0
  4  6  1  0  0  0  0
  6  7  1  0  0  0  0
  6 36  1  0  0  0  0
  6 37  1  0  0  0  0
  7 19  1  0  0  0  0
  7  8  1  0  0  0  0
  8  9  2  0  0  0  0
  8 10  1  0  0  0  0
 10 11  1  0  0  0  0
 10 12  2  0  0  0  0
 12 13  1  0  0  0  0
 12 38  1  0  0  0  0
 13 14  1  0  0  0  0
 13 19  1  0  0  0  0
 14 18  1  0  0  0  0
 14 15  1  0  0  0  0
 14 39  1  0  0  0  0
 15 16  1  0  0  0  0
 15 40  1  0  0  0  0
 15 41  1  0  0  0  0
 16 17  1  0  0  0  0
 16 42  1  0  0  0  0
 16 43  1  0  0  0  0
 17 18  1  0  0  0  0
 17 44  1  0  0  0  0
 17 45  1  0  0  0  0
 19 20  2  0  0  0  0
 21 30  1  0  0  0  0
 21 22  2  0  0  0  0
 22 23  1  0  0  0  0
 22 46  1  0  0  0  0
 23 24  2  0  0  0  0
 23 47  1  0  0  0  0
 24 29  1  0  0  0  0
 24 25  1  0  0  0  0
 25 26  2  0  0  0  0
 25 48  1  0  0  0  0
 26 27  1  0  0  0  0
 26 49  1  0  0  0  0
 27 28  2  0  0  0  0
 27 50  1  0  0  0  0
 28 29  1  0  0  0  0
 28 51  1  0  0  0  0
 29 30  2  0  0  0  0
 30 52  1  0  0  0  0
M  END
> <s_m_source_file>
AV-unprocessed.smi

> <i_m_source_file_index>
142

> <i_lp_mmshare_version>
43012

> <i_f3d_flags>
0

> <s_epik_input>
W2NIXTFbY0hdW2NIXVtjSF1jKGMxMilbY0hdYyhbY0hdW2NIXTIpW0NASF0oW0NIM10pW05IXUMoPU8pW0NIMl1uM2MoPU8pYyhGKVtjSF1uKGMzPU8pW0NAQEhdNFtDSDJdW0NIMl1bQ0gyXU80

> <s_epik_cmdline>
J2VwaWtfcHl0aG9uJywgJy1waCcsICc3LjAnLCAnLXRuJywgJzgnLCAnLW1hJywgJzIwMCcsICctbWV0YWxfYmluZGluZycsICctaW1hZScsICc8aW5maWxlLm1hZT4nLCAnLW9tYWUnLCAnPG91dGZpbGUubWFlPic=

> <r_lp_tautomer_probability>
1

> <r_epik_Ionization_Penalty>
3.35688e-08

> <r_epik_Ionization_Penalty_Charging>
3.59856e-09

> <r_epik_Ionization_Penalty_Neutral>
2.99702e-08

> <r_epik_State_Penalty>
-0

> <r_epik_Charging_Adjusted_Penalty>
3.59856e-09

> <i_epik_Tot_Q>
0

> <i_epik_Tot_abs_Q>
0

> <r_epik_Metal_State_Penalty>
-0

> <b_epik_Metal_Only>
0

> <s_epik_Chemistry_Notes>
This compound contains an acetal/aminal-like group ( X-CH(R)-Y where X, Y are N, S, or O) that may be acid/base labile, releasing an aldehyde.

> <s_lp_Force_Field>
OPLS_2005

> <r_lp_Energy>
25.6775

> <b_lp_Chiralities_Consistent>
1

> <s_lp_Variant>
AV-unprocessed.smi:142-3

> <Gold.Version>
5.8.1

> <Gold.Id.Protein>
6NUR|6NUR_protein|mol2

> <Gold.PLP.Fitness>
63.3526

> <Gold.PLP.PLP>
-56.5962

> <Gold.PLP.part.hbond>
-3.0000

> <Gold.PLP.part.metal>
0.0000

> <Gold.PLP.part.buried>
-6.1408

> <Gold.PLP.part.nonpolar>
-47.5662

> <Gold.PLP.part.repulsive>
0.0357

> <Gold.PLP.ligand.clash>
0.0000

> <Gold.PLP.ligand.torsion>
0.6819

> <Gold.PLP.Chemscore.Hbond>
2.6800

> <Gold.PLP.Chemscore.CHOScore>
0.0000

> <Gold.PLP.Chemscore.Metal>
0.0000

> <Gold.Chemscore.Hbonds>
donor molecule, donor type, donor heavy atom, donor atom, acceptor molecule, acceptor atom, score
      P1  H  6896  6908       L1     5  1.00
      P1  H  6931  6943       L1     9  1.00

> <Gold.PLP.Chemscore.Internal.Correction>
0.0802

> <Gold.Rescore>
     Score         DG    S(hbond)    S(metal)    S(lipo)     H(rot)  DE(clash)    DE(int)     intcor
     24.28     -24.66       2.69        0.00     131.37       2.02       0.01       0.36       ----

> <Gold.Chemscore.Fitness>
24.2845

> <Gold.Chemscore.DG>
-24.6551

> <Gold.Chemscore.ZeroCoef>
-5.4800

> <Gold.Chemscore.Hbond>
2.6855

> <Gold.Chemscore.Metal>
0.0000

> <Gold.Chemscore.Lipo>
131.3709

> <Gold.Chemscore.Internal_Hbond>
0.0000

> <Gold.Chemscore.DEClash>
0.0084

> <Gold.Chemscore.DEInternal>
0.3622

> <Gold.Chemscore.Rot>
2.0175

> <Gold.Chemscore.Internal.Correction>
   9.000000E+99

> <Gold.Chemscore.Hbonds>
donor molecule, donor type, donor heavy atom, donor atom, acceptor molecule, acceptor atom, score
      P1  H  6896  6908       L1     5  0.90
      P1  H  6931  6943       L1     9  1.00

> <Gold.Chemscore.Hbond.Weighted>
-8.9696

> <Gold.Chemscore.Metal.Weighted>
-0.0000

> <Gold.Chemscore.Lipo.Weighted>
-15.3704

> <Gold.Chemscore.Internal_Hbond.Weighted>
0.0000

> <Gold.Chemscore.DEClash.Weighted>
0.0084

> <Gold.Chemscore.DEInternal.Weighted>
0.3622

> <Gold.Chemscore.Rot.Weighted>
5.1648

> <Gold.Chemscore.Internal.Correction.Weighted>
   9.000000E+99

> <Gold.Protein.RotatedTorsions>
[ 6907 6896 6895 6894 ] final -161.61 input  -60.11 | X-H torsion
[ 7974 7965 7964 7962 ] final  158.19 input  175.53 | X-H torsion
[ 8008 7997 7996 7995 ] final  -86.63 input   59.86 | X-H torsion
[ 10167 10162 10161 10158 ] final   60.62 input  -65.29 | X-H torsion
[ 10718 10713 10712 10709 ] final  103.43 input   66.30 | X-H torsion
[ 10763 10752 10751 10750 ] final -131.06 input  -60.55 | X-H torsion
[ 11005 11000 10999 10996 ] final -140.36 input  -57.11 | X-H torsion

> <Gold.Protein.ActiveResidues>
 VAL166  LYS551  ARG553  GLY616  TRP617  ASP618  TYR619  PRO620  LYS621  CYS622 
 ASP623  PHE694  ASN695  SER759  ASP760  ASP761  ALA762  ILE779  LEU786  VAL792 
 PHE793  MET794  SER795  GLU796  ALA797  LYS798  CYS799  TRP800  GLU811  SER814 

> <Gold.Protein.RotatedAtoms>
  151.3674  133.3867  159.2695 H   0  0  0  0  0  0  0  0  0  0  0  0  # atno 6907 bound_to 6896
  150.9678  134.9057  159.7780 H   0  0  0  0  0  0  0  0  0  0  0  0  # atno 6908 bound_to 6896
  152.5173  134.3635  159.9345 H   0  0  0  0  0  0  0  0  0  0  0  0  # atno 6909 bound_to 6896
  144.7860  139.7445  143.6241 H   0  0  0  0  0  0  0  0  0  0  0  0  # atno 7974 bound_to 7965
  154.6541  140.0576  156.9988 H   0  0  0  0  0  0  0  0  0  0  0  0  # atno 8008 bound_to 7997
  155.1327  140.3258  155.4452 H   0  0  0  0  0  0  0  0  0  0  0  0  # atno 8009 bound_to 7997
  156.2589  140.1978  156.6446 H   0  0  0  0  0  0  0  0  0  0  0  0  # atno 8010 bound_to 7997
  140.1636  144.4346  150.6697 H   0  0  0  0  0  0  0  0  0  0  0  0  # atno 10167 bound_to 10162
  157.6773  131.0778  150.5553 H   0  0  0  0  0  0  0  0  0  0  0  0  # atno 10718 bound_to 10713
  154.8753  135.3842  154.4184 H   0  0  0  0  0  0  0  0  0  0  0  0  # atno 10763 bound_to 10752
  153.4891  135.7030  153.5900 H   0  0  0  0  0  0  0  0  0  0  0  0  # atno 10764 bound_to 10752
  153.4281  135.3885  155.2121 H   0  0  0  0  0  0  0  0  0  0  0  0  # atno 10765 bound_to 10752
  140.8430  134.2378  157.4800 H   0  0  0  0  0  0  0  0  0  0  0  0  # atno 11005 bound_to 11000
  146.2091  139.5435  142.9693 LP  0  0  0  0  0  0  0  0  0  0  0  0  # atno 17320 bound_to 7965
  145.5922  141.0368  143.2064 LP  0  0  0  0  0  0  0  0  0  0  0  0  # atno 17321 bound_to 7965
  140.6627  143.2257  151.5817 LP  0  0  0  0  0  0  0  0  0  0  0  0  # atno 17342 bound_to 10162
  139.5370  144.2754  152.1272 LP  0  0  0  0  0  0  0  0  0  0  0  0  # atno 17343 bound_to 10162
  156.5857  130.4316  149.5958 LP  0  0  0  0  0  0  0  0  0  0  0  0  # atno 17370 bound_to 10713
  156.2624  130.6970  151.1743 LP  0  0  0  0  0  0  0  0  0  0  0  0  # atno 17371 bound_to 10713
  139.8703  134.9645  156.4498 LP  0  0  0  0  0  0  0  0  0  0  0  0  # atno 17394 bound_to 11000
  140.8874  133.7873  155.9533 LP  0  0  0  0  0  0  0  0  0  0  0  0  # atno 17395 bound_to 11000

$$$$
