AV-unprocessed.smi:3143|AV-procd|sdf|11977|dock2
  -GOLD-   2272017373D 1   1.00000     0.00000
 Structure written by MMmdl.
 37 38  0  0  0  0  0  0  0  0  1 V2000
  152.7624  138.7344  159.5217 C   0  0  0  0  0  0  0  0  0  0  0  0
  153.2005  139.7549  158.4600 C   0  0  1  0  0  0  0  0  0  0  0  0
  153.0842  139.1532  157.1185 N   0  0  0  0  0  0  0  0  0  0  0  0
  151.7164  138.7951  156.7590 C   0  0  0  0  0  0  0  0  0  0  0  0
  151.5697  138.8176  155.2307 C   0  0  0  0  0  0  0  0  0  0  0  0
  150.4256  139.6058  154.8157 N   0  0  0  0  0  0  0  0  0  0  0  0
  149.3240  139.2022  154.0908 C   0  0  0  0  0  0  0  0  0  0  0  0
  148.5142  140.2915  153.9424 C   0  0  0  0  0  0  0  0  0  0  0  0
  149.2150  141.3284  154.6199 C   0  0  0  0  0  0  0  0  0  0  0  0
  150.3584  140.9145  155.1420 N   0  0  0  0  0  0  0  0  0  0  0  0
  152.3859  141.0589  158.6214 C   0  0  0  0  0  0  0  0  0  0  0  0
  151.5899  141.3726  157.7346 O   0  0  0  0  0  0  0  0  0  0  0  0
  152.5615  141.8245  159.7208 N   0  0  0  0  0  0  0  0  0  0  0  0
  151.8546  143.0865  159.9350 C   0  0  0  0  0  0  0  0  0  0  0  0
  152.5222  143.7384  161.1455 C   0  0  0  0  0  0  0  0  0  0  0  0
  153.0962  142.5654  161.9265 C   0  0  0  0  0  0  0  0  0  0  0  0
  153.4434  141.5350  160.8516 C   0  0  0  0  0  0  0  0  0  0  0  0
  152.8747  139.1371  160.5293 H   0  0  0  0  0  0  0  0  0  0  0  0
  153.3652  137.8276  159.4655 H   0  0  0  0  0  0  0  0  0  0  0  0
  151.7182  138.4457  159.3940 H   0  0  0  0  0  0  0  0  0  0  0  0
  154.2596  139.9509  158.6207 H   0  0  0  0  0  0  0  0  0  0  0  0
  153.4655  139.7627  156.4095 H   0  0  0  0  0  0  0  0  0  0  0  0
  151.4598  137.8047  157.1365 H   0  0  0  0  0  0  0  0  0  0  0  0
  151.0218  139.5064  157.2083 H   0  0  0  0  0  0  0  0  0  0  0  0
  152.4638  139.2367  154.7666 H   0  0  0  0  0  0  0  0  0  0  0  0
  151.4547  137.8049  154.8406 H   0  0  0  0  0  0  0  0  0  0  0  0
  149.2097  138.1856  153.7443 H   0  0  0  0  0  0  0  0  0  0  0  0
  147.5659  140.3404  153.4283 H   0  0  0  0  0  0  0  0  0  0  0  0
  148.9286  142.3618  154.7480 H   0  0  0  0  0  0  0  0  0  0  0  0
  151.9001  143.7374  159.0602 H   0  0  0  0  0  0  0  0  0  0  0  0
  150.8054  142.8735  160.1449 H   0  0  0  0  0  0  0  0  0  0  0  0
  153.3338  144.3859  160.8109 H   0  0  0  0  0  0  0  0  0  0  0  0
  151.8325  144.3436  161.7345 H   0  0  0  0  0  0  0  0  0  0  0  0
  153.9540  142.8436  162.5394 H   0  0  0  0  0  0  0  0  0  0  0  0
  152.3304  142.1595  162.5888 H   0  0  0  0  0  0  0  0  0  0  0  0
  153.3112  140.5199  161.2288 H   0  0  0  0  0  0  0  0  0  0  0  0
  154.4806  141.6528  160.5343 H   0  0  0  0  0  0  0  0  0  0  0  0
  1  2  1  0  0  0  0
  1 18  1  0  0  0  0
  1 19  1  0  0  0  0
  1 20  1  0  0  0  0
  2  3  1  0  0  0  0
  2 11  1  0  0  0  0
  2 21  1  0  0  0  0
  3  4  1  0  0  0  0
  3 22  1  0  0  0  0
  4  5  1  0  0  0  0
  4 23  1  0  0  0  0
  4 24  1  0  0  0  0
  5  6  1  0  0  0  0
  5 25  1  0  0  0  0
  5 26  1  0  0  0  0
  6 10  1  0  0  0  0
  6  7  1  0  0  0  0
  7  8  2  0  0  0  0
  7 27  1  0  0  0  0
  8  9  1  0  0  0  0
  8 28  1  0  0  0  0
  9 10  2  0  0  0  0
  9 29  1  0  0  0  0
 11 12  2  0  0  0  0
 11 13  1  0  0  0  0
 13 17  1  0  0  0  0
 13 14  1  0  0  0  0
 14 15  1  0  0  0  0
 14 30  1  0  0  0  0
 14 31  1  0  0  0  0
 15 16  1  0  0  0  0
 15 32  1  0  0  0  0
 15 33  1  0  0  0  0
 16 17  1  0  0  0  0
 16 34  1  0  0  0  0
 16 35  1  0  0  0  0
 17 36  1  0  0  0  0
 17 37  1  0  0  0  0
M  END
> <s_m_source_file>
AV-unprocessed.smi

> <i_m_source_file_index>
3143

> <i_lp_mmshare_version>
43012

> <i_f3d_flags>
0

> <s_epik_input>
W0NIMl0xW0NIMl1bQ0gyXVtDSDJdTjFDKD1PKVtDQEhdKFtDSDNdKVtOSF1bQ0gyXVtDSDJdbjJbY0hdW2NIXVtjSF1uMg==

> <s_epik_cmdline>
J2VwaWtfcHl0aG9uJywgJy1waCcsICc3LjAnLCAnLXRuJywgJzgnLCAnLW1hJywgJzIwMCcsICctbWV0YWxfYmluZGluZycsICctaW1hZScsICc8aW5maWxlLm1hZT4nLCAnLW9tYWUnLCAnPG91dGZpbGUubWFlPic=

> <r_lp_tautomer_probability>
1

> <r_epik_Ionization_Penalty>
0.733724

> <r_epik_Ionization_Penalty_Charging>
0

> <r_epik_Ionization_Penalty_Neutral>
0.733724

> <r_epik_State_Penalty>
0.75825

> <r_epik_Charging_Adjusted_Penalty>
0.75825

> <i_epik_Tot_Q>
0

> <i_epik_Tot_abs_Q>
0

> <r_epik_Metal_State_Penalty>
0.757598

> <b_epik_Metal_Only>
0

> <s_lp_Force_Field>
OPLS_2005

> <r_lp_Energy>
31.5048

> <b_lp_Chiralities_Consistent>
1

> <s_lp_Variant>
AV-unprocessed.smi:3143-4

> <Gold.Version>
5.8.1

> <Gold.Id.Protein>
6NUR|6NUR_protein|mol2

> <Gold.PLP.Fitness>
40.6614

> <Gold.PLP.PLP>
-37.0705

> <Gold.PLP.part.hbond>
-2.0000

> <Gold.PLP.part.metal>
0.0000

> <Gold.PLP.part.buried>
0.7210

> <Gold.PLP.part.nonpolar>
-34.2704

> <Gold.PLP.part.repulsive>
0.0983

> <Gold.PLP.ligand.clash>
0.0000

> <Gold.PLP.ligand.torsion>
0.6553

> <Gold.PLP.Chemscore.Hbond>
0.0000

> <Gold.PLP.Chemscore.CHOScore>
1.6079

> <Gold.PLP.Chemscore.Metal>
0.0000

> <Gold.Chemscore.Hbonds>
donor molecule, donor type, donor heavy atom, donor atom, acceptor molecule, acceptor atom, score
      L1  C     7    27       P1  7948  0.58
      L1  C     9    29       P1  8028  1.00

> <Gold.PLP.Chemscore.Internal.Correction>
0.0778

> <Gold.Rescore>
     Score         DG    S(hbond)    S(metal)    S(lipo)     H(rot)  DE(clash)    DE(int)     intcor
      9.28     -11.33       0.00        0.00      88.63       1.77       0.06       1.98       ----

> <Gold.Chemscore.Fitness>
9.2843

> <Gold.Chemscore.DG>
-11.3254

> <Gold.Chemscore.ZeroCoef>
-5.4800

> <Gold.Chemscore.Hbond>
0.0042

> <Gold.Chemscore.Metal>
0.0000

> <Gold.Chemscore.Lipo>
88.6261

> <Gold.Chemscore.Internal_Hbond>
0.0000

> <Gold.Chemscore.DEClash>
0.0582

> <Gold.Chemscore.DEInternal>
1.9829

> <Gold.Chemscore.Rot>
1.7726

> <Gold.Chemscore.Internal.Correction>
   9.000000E+99

> <Gold.Chemscore.Hbond.Weighted>
-0.0140

> <Gold.Chemscore.Metal.Weighted>
-0.0000

> <Gold.Chemscore.Lipo.Weighted>
-10.3693

> <Gold.Chemscore.Internal_Hbond.Weighted>
0.0000

> <Gold.Chemscore.DEClash.Weighted>
0.0582

> <Gold.Chemscore.DEInternal.Weighted>
1.9829

> <Gold.Chemscore.Rot.Weighted>
4.5378

> <Gold.Chemscore.Internal.Correction.Weighted>
   9.000000E+99

> <Gold.Protein.RotatedTorsions>
[ 6907 6896 6895 6894 ] final  129.79 input  -60.11 | X-H torsion
[ 7974 7965 7964 7962 ] final  168.56 input  175.53 | X-H torsion
[ 8008 7997 7996 7995 ] final  150.51 input   59.86 | X-H torsion
[ 10167 10162 10161 10158 ] final   63.21 input  -65.29 | X-H torsion
[ 10718 10713 10712 10709 ] final  159.67 input   66.30 | X-H torsion
[ 10763 10752 10751 10750 ] final    5.87 input  -60.55 | X-H torsion
[ 11005 11000 10999 10996 ] final  178.18 input  -57.11 | X-H torsion

> <Gold.Protein.ActiveResidues>
 VAL166  LYS551  ARG553  GLY616  TRP617  ASP618  TYR619  PRO620  LYS621  CYS622 
 ASP623  PHE694  ASN695  SER759  ASP760  ASP761  ALA762  ILE779  LEU786  VAL792 
 PHE793  MET794  SER795  GLU796  ALA797  LYS798  CYS799  TRP800  GLU811  SER814 

> <Gold.Protein.RotatedAtoms>
  152.3589  133.6272  159.6000 H   0  0  0  0  0  0  0  0  0  0  0  0  # atno 6907 bound_to 6896
  150.7588  133.9455  159.3478 H   0  0  0  0  0  0  0  0  0  0  0  0  # atno 6908 bound_to 6896
  151.7296  135.0878  160.0349 H   0  0  0  0  0  0  0  0  0  0  0  0  # atno 6909 bound_to 6896
  144.7384  139.8925  143.6404 H   0  0  0  0  0  0  0  0  0  0  0  0  # atno 7974 bound_to 7965
  156.2713  140.2073  156.6028 H   0  0  0  0  0  0  0  0  0  0  0  0  # atno 8008 bound_to 7997
  154.6893  140.0532  157.0370 H   0  0  0  0  0  0  0  0  0  0  0  0  # atno 8009 bound_to 7997
  155.0889  140.3194  155.4582 H   0  0  0  0  0  0  0  0  0  0  0  0  # atno 8010 bound_to 7997
  140.1355  144.4603  150.6840 H   0  0  0  0  0  0  0  0  0  0  0  0  # atno 10167 bound_to 10162
  157.1610  131.0587  151.2232 H   0  0  0  0  0  0  0  0  0  0  0  0  # atno 10718 bound_to 10713
  153.2543  135.6917  153.7646 H   0  0  0  0  0  0  0  0  0  0  0  0  # atno 10763 bound_to 10752
  153.6729  135.3341  155.3159 H   0  0  0  0  0  0  0  0  0  0  0  0  # atno 10764 bound_to 10752
  154.8406  135.4504  154.1511 H   0  0  0  0  0  0  0  0  0  0  0  0  # atno 10765 bound_to 10752
  140.3922  134.6852  157.4514 H   0  0  0  0  0  0  0  0  0  0  0  0  # atno 11005 bound_to 11000
  146.1132  139.4139  143.0275 LP  0  0  0  0  0  0  0  0  0  0  0  0  # atno 17320 bound_to 7965
  145.7413  141.0007  143.1299 LP  0  0  0  0  0  0  0  0  0  0  0  0  # atno 17321 bound_to 7965
  140.6792  143.2319  151.5429 LP  0  0  0  0  0  0  0  0  0  0  0  0  # atno 17342 bound_to 10162
  139.5498  144.2425  152.1510 LP  0  0  0  0  0  0  0  0  0  0  0  0  # atno 17343 bound_to 10162
  157.4132  130.7396  149.6855 LP  0  0  0  0  0  0  0  0  0  0  0  0  # atno 17370 bound_to 10713
  155.9754  130.4090  150.3854 LP  0  0  0  0  0  0  0  0  0  0  0  0  # atno 17371 bound_to 10713
  140.0398  134.6284  155.8996 LP  0  0  0  0  0  0  0  0  0  0  0  0  # atno 17394 bound_to 11000
  141.1886  133.6563  156.5334 LP  0  0  0  0  0  0  0  0  0  0  0  0  # atno 17395 bound_to 11000

$$$$
