AV-unprocessed.smi:3185|AV-procd|sdf|12165|dock9
  -GOLD-   2272018 03D 1   1.00000     0.00000
 Structure written by MMmdl.
 38 39  0  0  0  0  0  0  0  0  2 V2000
  149.2233  141.6532  153.8650 N   0  0  0  0  0  0  0  0  0  0  0  0
  149.5067  140.8888  154.6853 C   0  0  0  0  0  0  0  0  0  0  0  0
  149.8675  139.9176  155.7289 C   0  0  0  0  0  0  0  0  0  0  0  0
  150.2810  140.5901  157.0428 C   0  0  0  0  0  0  0  0  0  0  0  0
  151.3679  141.6507  156.8346 C   0  0  0  0  0  0  0  0  0  0  0  0
  152.1695  141.8356  158.0609 N   0  3  0  0  0  0  0  0  0  0  0  0
  151.6223  142.8207  159.0215 C   0  0  2  0  0  0  0  0  0  0  0  0
  150.9483  143.9712  158.2497 C   0  0  0  0  0  0  0  0  0  0  0  0
  150.4065  145.0505  159.1994 C   0  0  0  0  0  0  0  0  0  0  0  0
  151.5168  145.5932  160.1109 C   0  0  0  0  0  0  0  0  0  0  0  0
  152.1925  144.4573  160.8935 C   0  0  0  0  0  0  0  0  0  0  0  0
  152.7394  143.3667  159.9481 C   0  0  1  0  0  0  0  0  0  0  0  0
  153.3942  142.3073  160.7052 N   0  0  0  0  0  0  0  0  0  0  0  0
  153.5277  142.1975  162.0740 C   0  0  0  0  0  0  0  0  0  0  0  0
  154.2128  141.0438  162.3267 C   0  0  0  0  0  0  0  0  0  0  0  0
  154.4527  140.5023  161.0335 C   0  0  0  0  0  0  0  0  0  0  0  0
  153.9621  141.2595  160.0660 N   0  0  0  0  0  0  0  0  0  0  0  0
  149.0094  139.2640  155.8877 H   0  0  0  0  0  0  0  0  0  0  0  0
  150.6794  139.3005  155.3436 H   0  0  0  0  0  0  0  0  0  0  0  0
  149.4053  141.0499  157.5031 H   0  0  0  0  0  0  0  0  0  0  0  0
  150.6361  139.8308  157.7408 H   0  0  0  0  0  0  0  0  0  0  0  0
  152.0266  141.3564  156.0165 H   0  0  0  0  0  0  0  0  0  0  0  0
  150.9072  142.5986  156.5550 H   0  0  0  0  0  0  0  0  0  0  0  0
  152.2444  140.9450  158.5312 H   0  0  0  0  0  0  0  0  0  0  0  0
  150.8559  142.3424  159.6351 H   0  0  0  0  0  0  0  0  0  0  0  0
  151.6627  144.4237  157.5603 H   0  0  0  0  0  0  0  0  0  0  0  0
  150.1336  143.5824  157.6375 H   0  0  0  0  0  0  0  0  0  0  0  0
  149.9673  145.8657  158.6237 H   0  0  0  0  0  0  0  0  0  0  0  0
  149.6030  144.6338  159.8081 H   0  0  0  0  0  0  0  0  0  0  0  0
  152.2610  146.1181  159.5106 H   0  0  0  0  0  0  0  0  0  0  0  0
  151.1044  146.3277  160.8034 H   0  0  0  0  0  0  0  0  0  0  0  0
  153.0015  144.8635  161.5019 H   0  0  0  0  0  0  0  0  0  0  0  0
  151.4723  144.0246  161.5893 H   0  0  0  0  0  0  0  0  0  0  0  0
  153.5038  143.8282  159.3202 H   0  0  0  0  0  0  0  0  0  0  0  0
  153.1298  142.9420  162.7481 H   0  0  0  0  0  0  0  0  0  0  0  0
  154.4960  140.6448  163.2897 H   0  0  0  0  0  0  0  0  0  0  0  0
  154.9650  139.5885  160.7708 H   0  0  0  0  0  0  0  0  0  0  0  0
  153.0958  142.1349  157.7921 H   0  0  0  0  0  0  0  0  0  0  0  0
  1  2  3  0  0  0  0
  2  3  1  0  0  0  0
  3  4  1  0  0  0  0
  3 18  1  0  0  0  0
  3 19  1  0  0  0  0
  4  5  1  0  0  0  0
  4 20  1  0  0  0  0
  4 21  1  0  0  0  0
  5  6  1  0  0  0  0
  5 22  1  0  0  0  0
  5 23  1  0  0  0  0
  6  7  1  0  0  0  0
  6 24  1  0  0  0  0
  6 38  1  0  0  0  0
  7 12  1  0  0  0  0
  7  8  1  0  0  0  0
  7 25  1  0  0  0  0
  8  9  1  0  0  0  0
  8 26  1  0  0  0  0
  8 27  1  0  0  0  0
  9 10  1  0  0  0  0
  9 28  1  0  0  0  0
  9 29  1  0  0  0  0
 10 11  1  0  0  0  0
 10 30  1  0  0  0  0
 10 31  1  0  0  0  0
 11 12  1  0  0  0  0
 11 32  1  0  0  0  0
 11 33  1  0  0  0  0
 12 13  1  0  0  0  0
 12 34  1  0  0  0  0
 13 17  1  0  0  0  0
 13 14  1  0  0  0  0
 14 15  2  0  0  0  0
 14 35  1  0  0  0  0
 15 16  1  0  0  0  0
 15 36  1  0  0  0  0
 16 17  2  0  0  0  0
 16 37  1  0  0  0  0
M  CHG  1   6   1
M  END
> <s_m_source_file>
AV-unprocessed.smi

> <i_m_source_file_index>
3185

> <i_lp_mmshare_version>
43012

> <i_f3d_flags>
0

> <s_epik_input>
TiNDW0NIMl1bQ0gyXVtDSDJdW05IXVtDQEBIXTFbQ0gyXVtDSDJdW0NIMl1bQ0gyXVtDQEhdMW4yW2NIXVtjSF1bY0hdbjI=

> <s_epik_cmdline>
J2VwaWtfcHl0aG9uJywgJy1waCcsICc3LjAnLCAnLXRuJywgJzgnLCAnLW1hJywgJzIwMCcsICctbWV0YWxfYmluZGluZycsICctaW1hZScsICc8aW5maWxlLm1hZT4nLCAnLW9tYWUnLCAnPG91dGZpbGUubWFlPic=

> <r_lp_tautomer_probability>
1

> <r_epik_Ionization_Penalty>
0.0143465

> <r_epik_Ionization_Penalty_Charging>
0.0143338

> <r_epik_Ionization_Penalty_Neutral>
1.27047e-05

> <r_epik_State_Penalty>
0.0112058

> <r_epik_Charging_Adjusted_Penalty>
0.0255397

> <i_epik_Tot_Q>
1

> <i_epik_Tot_abs_Q>
1

> <r_epik_Metal_State_Penalty>
0.0112253

> <b_epik_Metal_Only>
0

> <s_lp_Force_Field>
OPLS_2005

> <r_lp_Energy>
16.2212

> <b_lp_Chiralities_Consistent>
1

> <s_lp_Variant>
AV-unprocessed.smi:3185-1

> <Gold.Version>
5.8.1

> <Gold.Id.Protein>
6NUR|6NUR_protein|mol2

> <Gold.PLP.Fitness>
42.1284

> <Gold.PLP.PLP>
-41.2960

> <Gold.PLP.part.hbond>
-2.0000

> <Gold.PLP.part.metal>
0.0000

> <Gold.PLP.part.buried>
-3.2718

> <Gold.PLP.part.nonpolar>
-34.6813

> <Gold.PLP.part.repulsive>
0.2837

> <Gold.PLP.ligand.clash>
0.0000

> <Gold.PLP.ligand.torsion>
0.5971

> <Gold.PLP.Chemscore.Hbond>
0.6560

> <Gold.PLP.Chemscore.CHOScore>
0.0000

> <Gold.PLP.Chemscore.Metal>
0.0000

> <Gold.Chemscore.Hbonds>
donor molecule, donor type, donor heavy atom, donor atom, acceptor molecule, acceptor atom, score
      P1  H  8011  8017       L1     1  0.64

> <Gold.PLP.Chemscore.Internal.Correction>
0.0586

> <Gold.Rescore>
     Score         DG    S(hbond)    S(metal)    S(lipo)     H(rot)  DE(clash)    DE(int)     intcor
     14.12     -16.27       0.77        0.00     111.43       1.88       0.16       2.00       ----

> <Gold.Chemscore.Fitness>
14.1170

> <Gold.Chemscore.DG>
-16.2720

> <Gold.Chemscore.ZeroCoef>
-5.4800

> <Gold.Chemscore.Hbond>
0.7662

> <Gold.Chemscore.Metal>
0.0000

> <Gold.Chemscore.Lipo>
111.4346

> <Gold.Chemscore.Internal_Hbond>
0.0000

> <Gold.Chemscore.DEClash>
0.1550

> <Gold.Chemscore.DEInternal>
2.0000

> <Gold.Chemscore.Rot>
1.8769

> <Gold.Chemscore.Internal.Correction>
   9.000000E+99

> <Gold.Chemscore.Hbonds>
donor molecule, donor type, donor heavy atom, donor atom, acceptor molecule, acceptor atom, score
      P1  H  8011  8017       L1     1  0.64

> <Gold.Chemscore.Hbond.Weighted>
-2.5591

> <Gold.Chemscore.Metal.Weighted>
-0.0000

> <Gold.Chemscore.Lipo.Weighted>
-13.0378

> <Gold.Chemscore.Internal_Hbond.Weighted>
0.0000

> <Gold.Chemscore.DEClash.Weighted>
0.1550

> <Gold.Chemscore.DEInternal.Weighted>
2.0000

> <Gold.Chemscore.Rot.Weighted>
4.8049

> <Gold.Chemscore.Internal.Correction.Weighted>
   9.000000E+99

> <Gold.Protein.RotatedTorsions>
[ 6907 6896 6895 6894 ] final   85.77 input  -60.11 | X-H torsion
[ 7974 7965 7964 7962 ] final   -2.97 input  175.53 | X-H torsion
[ 8008 7997 7996 7995 ] final  -80.35 input   59.86 | X-H torsion
[ 10167 10162 10161 10158 ] final  -24.06 input  -65.29 | X-H torsion
[ 10718 10713 10712 10709 ] final   23.45 input   66.30 | X-H torsion
[ 10763 10752 10751 10750 ] final  -71.76 input  -60.55 | X-H torsion
[ 11005 11000 10999 10996 ] final -135.56 input  -57.11 | X-H torsion

> <Gold.Protein.ActiveResidues>
 VAL166  LYS551  ARG553  GLY616  TRP617  ASP618  TYR619  PRO620  LYS621  CYS622 
 ASP623  PHE694  ASN695  SER759  ASP760  ASP761  ALA762  ILE779  LEU786  VAL792 
 PHE793  MET794  SER795  GLU796  ALA797  LYS798  CYS799  TRP800  GLU811  SER814 

> <Gold.Protein.RotatedAtoms>
  152.5381  134.2534  159.8907 H   0  0  0  0  0  0  0  0  0  0  0  0  # atno 6907 bound_to 6896
  151.2497  133.4350  159.2618 H   0  0  0  0  0  0  0  0  0  0  0  0  # atno 6908 bound_to 6896
  151.0551  134.9713  159.8288 H   0  0  0  0  0  0  0  0  0  0  0  0  # atno 6909 bound_to 6896
  146.2397  140.1651  142.8332 H   0  0  0  0  0  0  0  0  0  0  0  0  # atno 7974 bound_to 7965
  154.5874  140.0664  156.9190 H   0  0  0  0  0  0  0  0  0  0  0  0  # atno 8008 bound_to 7997
  155.2355  140.3341  155.4280 H   0  0  0  0  0  0  0  0  0  0  0  0  # atno 8009 bound_to 7997
  156.2232  140.1808  156.7411 H   0  0  0  0  0  0  0  0  0  0  0  0  # atno 8010 bound_to 7997
  140.7288  143.4387  151.0690 H   0  0  0  0  0  0  0  0  0  0  0  0  # atno 10167 bound_to 10162
  157.1663  130.6739  149.6062 H   0  0  0  0  0  0  0  0  0  0  0  0  # atno 10718 bound_to 10713
  154.4362  135.5952  153.6100 H   0  0  0  0  0  0  0  0  0  0  0  0  # atno 10763 bound_to 10752
  152.9802  135.5987  154.3778 H   0  0  0  0  0  0  0  0  0  0  0  0  # atno 10764 bound_to 10752
  154.3622  135.2841  155.2292 H   0  0  0  0  0  0  0  0  0  0  0  0  # atno 10765 bound_to 10752
  140.8887  134.1840  157.4542 H   0  0  0  0  0  0  0  0  0  0  0  0  # atno 11005 bound_to 11000
  145.0058  140.8671  143.5254 LP  0  0  0  0  0  0  0  0  0  0  0  0  # atno 17320 bound_to 7965
  145.1677  139.2422  143.5358 LP  0  0  0  0  0  0  0  0  0  0  0  0  # atno 17321 bound_to 7965
  139.8052  143.8028  152.3166 LP  0  0  0  0  0  0  0  0  0  0  0  0  # atno 17342 bound_to 10162
  139.8058  144.7356  150.9763 LP  0  0  0  0  0  0  0  0  0  0  0  0  # atno 17343 bound_to 10162
  155.9745  130.4694  150.6395 LP  0  0  0  0  0  0  0  0  0  0  0  0  # atno 17370 bound_to 10713
  157.4085  131.0820  151.1243 LP  0  0  0  0  0  0  0  0  0  0  0  0  # atno 17371 bound_to 10713
  139.8727  134.9849  156.5258 LP  0  0  0  0  0  0  0  0  0  0  0  0  # atno 17394 bound_to 11000
  140.8374  133.8232  155.9041 LP  0  0  0  0  0  0  0  0  0  0  0  0  # atno 17395 bound_to 11000

$$$$
