AV-unprocessed.smi:88|AV-procd|sdf|824|dock2
  -GOLD-   2262017233D 1   1.00000     0.00000
 Structure written by MMmdl.
 56 60  0  0  0  0  0  0  0  0  1 V2000
  146.1746  131.4798  148.9070 C   0  0  0  0  0  0  0  0  0  0  0  0
  145.2372  132.1263  149.8282 N   0  0  0  0  0  0  0  0  0  0  0  0
  143.9800  132.4771  149.5116 C   0  0  0  0  0  0  0  0  0  0  0  0
  143.4282  132.3268  148.4230 O   0  0  0  0  0  0  0  0  0  0  0  0
  143.4115  133.0227  150.5854 N   0  0  0  0  0  0  0  0  0  0  0  0
  144.2818  133.0710  151.7370 C   0  0  0  0  0  0  0  0  0  0  0  0
  145.5932  132.4427  151.2178 C   0  0  0  0  0  0  0  0  0  0  0  0
  145.9724  131.1674  152.0121 C   0  0  0  0  0  0  0  0  0  0  0  0
  146.4124  131.4995  153.4492 C   0  0  0  0  0  0  0  0  0  0  0  0
  147.4917  132.4830  153.4460 N   0  0  0  0  0  0  0  0  0  0  0  0
  148.0459  132.6762  154.6609 C   0  0  0  0  0  0  0  0  0  0  0  0
  149.3032  133.1806  154.6953 N   0  0  0  0  0  0  0  0  0  0  0  0
  149.9039  133.3944  155.8700 C   0  0  0  0  0  0  0  0  0  0  0  0
  149.4338  133.1784  157.1011 N   0  0  0  0  0  0  0  0  0  0  0  0
  148.1681  132.6698  157.0667 C   0  0  0  0  0  0  0  0  0  0  0  0
  147.4047  132.3896  155.8989 C   0  0  0  0  0  0  0  0  0  0  0  0
  146.1612  131.8813  156.2550 N   0  0  0  0  0  0  0  0  0  0  0  0
  146.1886  131.8610  157.5599 C   0  0  0  0  0  0  0  0  0  0  0  0
  147.3574  132.3129  158.1301 N   0  0  0  0  0  0  0  0  0  0  0  0
  147.6577  132.3975  159.5511 C   0  0  0  0  0  0  0  0  0  0  0  0
  147.3018  133.7643  160.1862 C   0  0  0  0  0  0  0  0  0  0  0  0
  145.8962  133.9253  160.0965 O   0  0  0  0  0  0  0  0  0  0  0  0
  147.7113  133.8554  161.6728 C   0  0  0  0  0  0  0  0  0  0  0  0
  147.5446  135.2788  162.2342 C   0  0  0  0  0  0  0  0  0  0  0  0
  148.2628  136.2103  161.4343 O   0  0  0  0  0  0  0  0  0  0  0  0
  147.7822  136.2730  160.0971 C   0  0  0  0  0  0  0  0  0  0  0  0
  147.9740  134.9115  159.4058 C   0  0  0  0  0  0  0  0  0  0  0  0
  147.1954  133.7270  152.7415 C   0  0  0  0  0  0  0  0  0  0  0  0
  146.7736  133.4440  151.2885 C   0  0  0  0  0  0  0  0  0  0  0  0
  145.7541  131.3596  147.9079 H   0  0  0  0  0  0  0  0  0  0  0  0
  146.4448  130.4862  149.2628 H   0  0  0  0  0  0  0  0  0  0  0  0
  147.0865  132.0656  148.8004 H   0  0  0  0  0  0  0  0  0  0  0  0
  142.4632  133.3690  150.6061 H   0  0  0  0  0  0  0  0  0  0  0  0
  144.4010  134.1053  152.0608 H   0  0  0  0  0  0  0  0  0  0  0  0
  143.8328  132.5078  152.5557 H   0  0  0  0  0  0  0  0  0  0  0  0
  145.1389  130.4642  152.0301 H   0  0  0  0  0  0  0  0  0  0  0  0
  146.7970  130.6513  151.5200 H   0  0  0  0  0  0  0  0  0  0  0  0
  145.5667  131.8806  154.0220 H   0  0  0  0  0  0  0  0  0  0  0  0
  146.7483  130.5900  153.9493 H   0  0  0  0  0  0  0  0  0  0  0  0
  150.9049  133.7964  155.8154 H   0  0  0  0  0  0  0  0  0  0  0  0
  145.3531  131.5090  158.1475 H   0  0  0  0  0  0  0  0  0  0  0  0
  147.1160  131.5981  160.0582 H   0  0  0  0  0  0  0  0  0  0  0  0
  148.7176  132.1787  159.6894 H   0  0  0  0  0  0  0  0  0  0  0  0
  145.6601  133.9993  159.1842 H   0  0  0  0  0  0  0  0  0  0  0  0
  147.1374  133.1541  162.2798 H   0  0  0  0  0  0  0  0  0  0  0  0
  148.7573  133.5635  161.7746 H   0  0  0  0  0  0  0  0  0  0  0  0
  146.4919  135.5615  162.2839 H   0  0  0  0  0  0  0  0  0  0  0  0
  147.9301  135.3228  163.2529 H   0  0  0  0  0  0  0  0  0  0  0  0
  146.7345  136.5770  160.0870 H   0  0  0  0  0  0  0  0  0  0  0  0
  148.3377  137.0431  159.5617 H   0  0  0  0  0  0  0  0  0  0  0  0
  149.0441  134.7151  159.3273 H   0  0  0  0  0  0  0  0  0  0  0  0
  147.5961  134.9535  158.3834 H   0  0  0  0  0  0  0  0  0  0  0  0
  146.4060  134.2675  153.2642 H   0  0  0  0  0  0  0  0  0  0  0  0
  148.0763  134.3704  152.7485 H   0  0  0  0  0  0  0  0  0  0  0  0
  147.6391  133.0420  150.7617 H   0  0  0  0  0  0  0  0  0  0  0  0
  146.5164  134.3769  150.7854 H   0  0  0  0  0  0  0  0  0  0  0  0
  1  2  1  0  0  0  0
  1 30  1  0  0  0  0
  1 31  1  0  0  0  0
  1 32  1  0  0  0  0
  2  7  1  0  0  0  0
  2  3  1  0  0  0  0
  3  4  2  0  0  0  0
  3  5  1  0  0  0  0
  5  6  1  0  0  0  0
  5 33  1  0  0  0  0
  6  7  1  0  0  0  0
  6 34  1  0  0  0  0
  6 35  1  0  0  0  0
  7 29  1  0  0  0  0
  7  8  1  0  0  0  0
  8  9  1  0  0  0  0
  8 36  1  0  0  0  0
  8 37  1  0  0  0  0
  9 10  1  0  0  0  0
  9 38  1  0  0  0  0
  9 39  1  0  0  0  0
 10 11  1  0  0  0  0
 10 28  1  0  0  0  0
 11 16  1  0  0  0  0
 11 12  2  0  0  0  0
 12 13  1  0  0  0  0
 13 14  2  0  0  0  0
 13 40  1  0  0  0  0
 14 15  1  0  0  0  0
 15 19  1  0  0  0  0
 15 16  2  0  0  0  0
 16 17  1  0  0  0  0
 17 18  2  0  0  0  0
 18 19  1  0  0  0  0
 18 41  1  0  0  0  0
 19 20  1  0  0  0  0
 20 21  1  0  0  0  0
 20 42  1  0  0  0  0
 20 43  1  0  0  0  0
 21 27  1  0  0  0  0
 21 22  1  0  0  0  0
 21 23  1  0  0  0  0
 22 44  1  0  0  0  0
 23 24  1  0  0  0  0
 23 45  1  0  0  0  0
 23 46  1  0  0  0  0
 24 25  1  0  0  0  0
 24 47  1  0  0  0  0
 24 48  1  0  0  0  0
 25 26  1  0  0  0  0
 26 27  1  0  0  0  0
 26 49  1  0  0  0  0
 26 50  1  0  0  0  0
 27 51  1  0  0  0  0
 27 52  1  0  0  0  0
 28 29  1  0  0  0  0
 28 53  1  0  0  0  0
 28 54  1  0  0  0  0
 29 55  1  0  0  0  0
 29 56  1  0  0  0  0
M  END
> <s_m_source_file>
AV-unprocessed.smi

> <i_m_source_file_index>
88

> <i_lp_mmshare_version>
43012

> <i_f3d_flags>
0

> <s_epik_input>
W0NIMl0xW05IXUMoPU8pTihbQ0gzXSlDMTJbQ0gyXVtDSDJdTihbQ0gyXVtDSDJdMiljKG5bY0hdbjMpYyhjMzQpbltjSF1uNFtDSDJdQzUoW09IXSlbQ0gyXVtDSDJdT1tDSDJdW0NIMl01

> <s_epik_cmdline>
J2VwaWtfcHl0aG9uJywgJy1waCcsICc3LjAnLCAnLXRuJywgJzgnLCAnLW1hJywgJzIwMCcsICctbWV0YWxfYmluZGluZycsICctaW1hZScsICc8aW5maWxlLm1hZT4nLCAnLW9tYWUnLCAnPG91dGZpbGUubWFlPic=

> <r_lp_tautomer_probability>
1

> <r_epik_Ionization_Penalty>
0.00363326

> <r_epik_Ionization_Penalty_Charging>
0

> <r_epik_Ionization_Penalty_Neutral>
0.00363326

> <r_epik_State_Penalty>
0.00246926

> <r_epik_Charging_Adjusted_Penalty>
0.00246926

> <i_epik_Tot_Q>
0

> <i_epik_Tot_abs_Q>
0

> <r_epik_Metal_State_Penalty>
-0

> <b_epik_Metal_Only>
0

> <s_lp_Force_Field>
OPLS_2005

> <r_lp_Energy>
63.3868

> <b_lp_Chiralities_Consistent>
1

> <s_lp_Variant>
AV-unprocessed.smi:88-1

> <Gold.Version>
5.8.1

> <Gold.Id.Protein>
6NUR|6NUR_protein|mol2

> <Gold.PLP.Fitness>
46.4882

> <Gold.PLP.PLP>
-41.0351

> <Gold.PLP.part.hbond>
-3.0000

> <Gold.PLP.part.metal>
0.0000

> <Gold.PLP.part.buried>
-7.3538

> <Gold.PLP.part.nonpolar>
-31.7011

> <Gold.PLP.part.repulsive>
0.6253

> <Gold.PLP.ligand.clash>
0.0000

> <Gold.PLP.ligand.torsion>
0.7746

> <Gold.PLP.Chemscore.Hbond>
2.2692

> <Gold.PLP.Chemscore.CHOScore>
0.0000

> <Gold.PLP.Chemscore.Metal>
0.0000

> <Gold.Chemscore.Hbonds>
donor molecule, donor type, donor heavy atom, donor atom, acceptor molecule, acceptor atom, score
      L1  H     5    33       P1 10186  0.80
      P1  H  6931  6943       L1    25  0.50
      P1  H 10785 10796       L1     4  0.26

> <Gold.PLP.Chemscore.Internal.Correction>
0.1947

> <Gold.Rescore>
     Score         DG    S(hbond)    S(metal)    S(lipo)     H(rot)  DE(clash)    DE(int)     intcor
     14.94     -18.81       2.77        0.00      82.68       2.18       1.71       2.16       ----

> <Gold.Chemscore.Fitness>
14.9424

> <Gold.Chemscore.DG>
-18.8146

> <Gold.Chemscore.ZeroCoef>
-5.4800

> <Gold.Chemscore.Hbond>
2.7700

> <Gold.Chemscore.Metal>
0.0000

> <Gold.Chemscore.Lipo>
82.6784

> <Gold.Chemscore.Internal_Hbond>
0.0000

> <Gold.Chemscore.DEClash>
1.7088

> <Gold.Chemscore.DEInternal>
2.1635

> <Gold.Chemscore.Rot>
2.1838

> <Gold.Chemscore.Internal.Correction>
   9.000000E+99

> <Gold.Chemscore.Hbonds>
donor molecule, donor type, donor heavy atom, donor atom, acceptor molecule, acceptor atom, score
      L1  H     5    33       P1 10186  0.76
      P1  H  6931  6943       L1    25  0.29
      P1  H 10785 10796       L1     4  0.02

> <Gold.Chemscore.Hbond.Weighted>
-9.2517

> <Gold.Chemscore.Metal.Weighted>
-0.0000

> <Gold.Chemscore.Lipo.Weighted>
-9.6734

> <Gold.Chemscore.Internal_Hbond.Weighted>
0.0000

> <Gold.Chemscore.DEClash.Weighted>
1.7088

> <Gold.Chemscore.DEInternal.Weighted>
2.1635

> <Gold.Chemscore.Rot.Weighted>
5.5905

> <Gold.Chemscore.Internal.Correction.Weighted>
   9.000000E+99

> <Gold.Protein.RotatedTorsions>
[ 6907 6896 6895 6894 ] final  115.51 input  -60.11 | X-H torsion
[ 7974 7965 7964 7962 ] final    9.45 input  175.53 | X-H torsion
[ 8008 7997 7996 7995 ] final  -47.35 input   59.86 | X-H torsion
[ 10167 10162 10161 10158 ] final   93.00 input  -65.29 | X-H torsion
[ 10718 10713 10712 10709 ] final   -1.44 input   66.30 | X-H torsion
[ 10763 10752 10751 10750 ] final   44.42 input  -60.55 | X-H torsion
[ 11005 11000 10999 10996 ] final  167.40 input  -57.11 | X-H torsion

> <Gold.Protein.ActiveResidues>
 VAL166  LYS551  ARG553  GLY616  TRP617  ASP618  TYR619  PRO620  LYS621  CYS622 
 ASP623  PHE694  ASN695  SER759  ASP760  ASP761  ALA762  ILE779  LEU786  VAL792 
 PHE793  MET794  SER795  GLU796  ALA797  LYS798  CYS799  TRP800  GLU811  SER814 

> <Gold.Protein.RotatedAtoms>
  152.4737  133.8088  159.6992 H   0  0  0  0  0  0  0  0  0  0  0  0  # atno 6907 bound_to 6896
  150.8741  133.7454  159.2958 H   0  0  0  0  0  0  0  0  0  0  0  0  # atno 6908 bound_to 6896
  151.4980  135.1064  159.9873 H   0  0  0  0  0  0  0  0  0  0  0  0  # atno 6909 bound_to 6896
  146.2403  139.9782  142.8439 H   0  0  0  0  0  0  0  0  0  0  0  0  # atno 7974 bound_to 7965
  154.4016  140.1348  156.4161 H   0  0  0  0  0  0  0  0  0  0  0  0  # atno 8008 bound_to 7997
  155.7687  140.3484  155.5215 H   0  0  0  0  0  0  0  0  0  0  0  0  # atno 8009 bound_to 7997
  155.8788  140.0984  157.1490 H   0  0  0  0  0  0  0  0  0  0  0  0  # atno 8010 bound_to 7997
  139.8222  144.6726  150.9505 H   0  0  0  0  0  0  0  0  0  0  0  0  # atno 10167 bound_to 10162
  156.8056  130.5407  149.5715 H   0  0  0  0  0  0  0  0  0  0  0  0  # atno 10718 bound_to 10713
  152.9841  135.6071  154.3271 H   0  0  0  0  0  0  0  0  0  0  0  0  # atno 10763 bound_to 10752
  154.2976  135.2773  155.2627 H   0  0  0  0  0  0  0  0  0  0  0  0  # atno 10764 bound_to 10752
  154.4894  135.5896  153.6504 H   0  0  0  0  0  0  0  0  0  0  0  0  # atno 10765 bound_to 10752
  140.2764  134.7785  157.3720 H   0  0  0  0  0  0  0  0  0  0  0  0  # atno 11005 bound_to 11000
  145.1617  140.9676  143.4373 LP  0  0  0  0  0  0  0  0  0  0  0  0  # atno 17320 bound_to 7965
  145.0110  139.3510  143.6120 LP  0  0  0  0  0  0  0  0  0  0  0  0  # atno 17321 bound_to 7965
  140.7812  143.4081  151.1038 LP  0  0  0  0  0  0  0  0  0  0  0  0  # atno 17342 bound_to 10162
  139.7740  143.8452  152.3126 LP  0  0  0  0  0  0  0  0  0  0  0  0  # atno 17343 bound_to 10162
  156.1075  130.6015  150.9994 LP  0  0  0  0  0  0  0  0  0  0  0  0  # atno 17370 bound_to 10713
  157.6532  131.0893  150.8005 LP  0  0  0  0  0  0  0  0  0  0  0  0  # atno 17371 bound_to 10713
  140.1324  134.5078  155.8095 LP  0  0  0  0  0  0  0  0  0  0  0  0  # atno 17394 bound_to 11000
  141.2169  133.6795  156.7063 LP  0  0  0  0  0  0  0  0  0  0  0  0  # atno 17395 bound_to 11000

$$$$
