AV-unprocessed.smi:2758|AV-procd|sdf|10622|dock3
  -GOLD-   2272015 63D 1   1.00000     0.00000
 Structure written by MMmdl.
 32 33  0  0  0  0  0  0  0  0  1 V2000
  151.6820  138.7896  155.0115 C   0  0  0  0  0  0  0  0  0  0  0  0
  151.6993  140.2054  155.0661 O   0  0  0  0  0  0  0  0  0  0  0  0
  150.5363  140.7392  155.6776 C   0  0  0  0  0  0  0  0  0  0  0  0
  150.7097  140.7114  157.2041 C   0  0  1  0  0  0  0  0  0  0  0  0
  150.1444  139.5114  157.6940 O   0  0  0  0  0  0  0  0  0  0  0  0
  152.1950  140.7745  157.6137 C   0  0  0  0  0  0  0  0  0  0  0  0
  152.4094  141.5397  158.8351 N   0  0  0  0  0  0  0  0  0  0  0  0
  153.0074  141.1410  159.9854 C   0  0  0  0  0  0  0  0  0  0  0  0
  153.5638  139.7629  160.1536 C   0  0  0  0  0  0  0  0  0  0  0  0
  153.0719  142.0544  160.9544 N   0  0  0  0  0  0  0  0  0  0  0  0
  152.4609  143.1511  160.3779 C   0  0  0  0  0  0  0  0  0  0  0  0
  152.2171  144.4439  160.8945 C   0  0  0  0  0  0  0  0  0  0  0  0
  151.5699  145.4174  160.1055 C   0  0  0  0  0  0  0  0  0  0  0  0
  151.1568  145.1128  158.7921 C   0  0  0  0  0  0  0  0  0  0  0  0
  151.3890  143.8305  158.2584 C   0  0  0  0  0  0  0  0  0  0  0  0
  152.0361  142.8627  159.0498 C   0  0  0  0  0  0  0  0  0  0  0  0
  150.1815  141.5568  157.6473 H   0  0  0  0  0  0  0  0  0  0  0  0
  152.5992  138.4295  154.5460 H   0  0  0  0  0  0  0  0  0  0  0  0
  150.8403  138.4293  154.4187 H   0  0  0  0  0  0  0  0  0  0  0  0
  151.6187  138.3554  156.0099 H   0  0  0  0  0  0  0  0  0  0  0  0
  150.3272  141.7507  155.3242 H   0  0  0  0  0  0  0  0  0  0  0  0
  149.6867  140.1161  155.3932 H   0  0  0  0  0  0  0  0  0  0  0  0
  149.2076  139.5542  157.5758 H   0  0  0  0  0  0  0  0  0  0  0  0
  152.6010  139.7699  157.7328 H   0  0  0  0  0  0  0  0  0  0  0  0
  152.7788  141.2433  156.8205 H   0  0  0  0  0  0  0  0  0  0  0  0
  153.9363  139.6218  161.1688 H   0  0  0  0  0  0  0  0  0  0  0  0
  154.3901  139.6041  159.4604 H   0  0  0  0  0  0  0  0  0  0  0  0
  152.7935  139.0154  159.9649 H   0  0  0  0  0  0  0  0  0  0  0  0
  152.5307  144.6869  161.8989 H   0  0  0  0  0  0  0  0  0  0  0  0
  151.3899  146.4028  160.5101 H   0  0  0  0  0  0  0  0  0  0  0  0
  150.6622  145.8645  158.1945 H   0  0  0  0  0  0  0  0  0  0  0  0
  151.0744  143.5935  157.2529 H   0  0  0  0  0  0  0  0  0  0  0  0
  1  2  1  0  0  0  0
  1 18  1  0  0  0  0
  1 19  1  0  0  0  0
  1 20  1  0  0  0  0
  2  3  1  0  0  0  0
  3  4  1  0  0  0  0
  3 21  1  0  0  0  0
  3 22  1  0  0  0  0
  4 17  1  0  0  0  0
  4  5  1  0  0  0  0
  4  6  1  0  0  0  0
  5 23  1  0  0  0  0
  6  7  1  0  0  0  0
  6 24  1  0  0  0  0
  6 25  1  0  0  0  0
  7 16  1  0  0  0  0
  7  8  1  0  0  0  0
  8  9  1  0  0  0  0
  8 10  2  0  0  0  0
  9 26  1  0  0  0  0
  9 27  1  0  0  0  0
  9 28  1  0  0  0  0
 10 11  1  0  0  0  0
 11 16  2  0  0  0  0
 11 12  1  0  0  0  0
 12 13  2  0  0  0  0
 12 29  1  0  0  0  0
 13 14  1  0  0  0  0
 13 30  1  0  0  0  0
 14 15  2  0  0  0  0
 14 31  1  0  0  0  0
 15 16  1  0  0  0  0
 15 32  1  0  0  0  0
M  END
> <s_m_source_file>
AV-unprocessed.smi

> <i_m_source_file_index>
2758

> <i_lp_mmshare_version>
43012

> <i_f3d_flags>
0

> <s_epik_input>
W0NIM11PW0NIMl1bQ0BASF0oW09IXSlbQ0gyXW4oYyhuMSlbQ0gzXSljKGMxMilbY0hdW2NIXVtjSF1bY0hdMg==

> <s_epik_cmdline>
J2VwaWtfcHl0aG9uJywgJy1waCcsICc3LjAnLCAnLXRuJywgJzgnLCAnLW1hJywgJzIwMCcsICctbWV0YWxfYmluZGluZycsICctaW1hZScsICc8aW5maWxlLm1hZT4nLCAnLW9tYWUnLCAnPG91dGZpbGUubWFlPic=

> <r_epik_Ionization_Penalty>
0.126985

> <r_epik_Ionization_Penalty_Charging>
0

> <r_epik_Ionization_Penalty_Neutral>
0.126985

> <r_epik_State_Penalty>
0.116428

> <r_epik_Charging_Adjusted_Penalty>
0.116428

> <i_epik_Tot_Q>
0

> <i_epik_Tot_abs_Q>
0

> <r_epik_Metal_State_Penalty>
0.000128642

> <b_epik_Metal_Only>
0

> <s_lp_Force_Field>
OPLS_2005

> <r_lp_Energy>
8.80871

> <b_lp_Chiralities_Consistent>
1

> <s_lp_Variant>
AV-unprocessed.smi:2758-1

> <Gold.Version>
5.8.1

> <Gold.Id.Protein>
6NUR|6NUR_protein|mol2

> <Gold.PLP.Fitness>
40.8243

> <Gold.PLP.PLP>
-40.1415

> <Gold.PLP.part.hbond>
-1.0000

> <Gold.PLP.part.metal>
0.0000

> <Gold.PLP.part.buried>
-6.1679

> <Gold.PLP.part.nonpolar>
-32.8471

> <Gold.PLP.part.repulsive>
0.0518

> <Gold.PLP.ligand.clash>
0.0000

> <Gold.PLP.ligand.torsion>
1.0531

> <Gold.PLP.Chemscore.Hbond>
0.9280

> <Gold.PLP.Chemscore.CHOScore>
0.0000

> <Gold.PLP.Chemscore.Metal>
0.0000

> <Gold.Chemscore.Hbonds>
donor molecule, donor type, donor heavy atom, donor atom, acceptor molecule, acceptor atom, score
      P1  H  7989  7998       L1     2  0.93

> <Gold.PLP.Chemscore.Internal.Correction>
0.0050

> <Gold.Rescore>
     Score         DG    S(hbond)    S(metal)    S(lipo)     H(rot)  DE(clash)    DE(int)     intcor
     13.96     -14.98       0.87        0.00     101.21       2.05       0.01       1.00       ----

> <Gold.Chemscore.Fitness>
13.9587

> <Gold.Chemscore.DG>
-14.9776

> <Gold.Chemscore.ZeroCoef>
-5.4800

> <Gold.Chemscore.Hbond>
0.8707

> <Gold.Chemscore.Metal>
0.0000

> <Gold.Chemscore.Lipo>
101.2050

> <Gold.Chemscore.Internal_Hbond>
0.0000

> <Gold.Chemscore.DEClash>
0.0149

> <Gold.Chemscore.DEInternal>
1.0041

> <Gold.Chemscore.Rot>
2.0513

> <Gold.Chemscore.Internal.Correction>
   9.000000E+99

> <Gold.Chemscore.Hbonds>
donor molecule, donor type, donor heavy atom, donor atom, acceptor molecule, acceptor atom, score
      P1  H  7989  7998       L1     2  0.28

> <Gold.Chemscore.Hbond.Weighted>
-2.9080

> <Gold.Chemscore.Metal.Weighted>
-0.0000

> <Gold.Chemscore.Lipo.Weighted>
-11.8410

> <Gold.Chemscore.Internal_Hbond.Weighted>
0.0000

> <Gold.Chemscore.DEClash.Weighted>
0.0149

> <Gold.Chemscore.DEInternal.Weighted>
1.0041

> <Gold.Chemscore.Rot.Weighted>
5.2514

> <Gold.Chemscore.Internal.Correction.Weighted>
   9.000000E+99

> <Gold.Protein.RotatedTorsions>
[ 6907 6896 6895 6894 ] final -173.41 input  -60.11 | X-H torsion
[ 7974 7965 7964 7962 ] final   28.49 input  175.53 | X-H torsion
[ 8008 7997 7996 7995 ] final -164.82 input   59.86 | X-H torsion
[ 10167 10162 10161 10158 ] final  -43.01 input  -65.29 | X-H torsion
[ 10718 10713 10712 10709 ] final  159.51 input   66.30 | X-H torsion
[ 10763 10752 10751 10750 ] final   -6.26 input  -60.55 | X-H torsion
[ 11005 11000 10999 10996 ] final -131.04 input  -57.11 | X-H torsion

> <Gold.Protein.ActiveResidues>
 VAL166  LYS551  ARG553  GLY616  TRP617  ASP618  TYR619  PRO620  LYS621  CYS622 
 ASP623  PHE694  ASN695  SER759  ASP760  ASP761  ALA762  ILE779  LEU786  VAL792 
 PHE793  MET794  SER795  GLU796  ALA797  LYS798  CYS799  TRP800  GLU811  SER814 

> <Gold.Protein.RotatedAtoms>
  151.5558  133.3410  159.2961 H   0  0  0  0  0  0  0  0  0  0  0  0  # atno 6907 bound_to 6896
  150.8452  134.7761  159.6975 H   0  0  0  0  0  0  0  0  0  0  0  0  # atno 6908 bound_to 6896
  152.4511  134.5399  159.9887 H   0  0  0  0  0  0  0  0  0  0  0  0  # atno 6909 bound_to 6896
  146.1726  139.7048  142.8957 H   0  0  0  0  0  0  0  0  0  0  0  0  # atno 7974 bound_to 7965
  155.8410  140.0948  157.1734 H   0  0  0  0  0  0  0  0  0  0  0  0  # atno 8008 bound_to 7997
  154.3982  140.1401  156.3790 H   0  0  0  0  0  0  0  0  0  0  0  0  # atno 8009 bound_to 7997
  155.8064  140.3451  155.5435 H   0  0  0  0  0  0  0  0  0  0  0  0  # atno 8010 bound_to 7997
  140.6949  143.3006  151.3291 H   0  0  0  0  0  0  0  0  0  0  0  0  # atno 10167 bound_to 10162
  157.1631  131.0592  151.2222 H   0  0  0  0  0  0  0  0  0  0  0  0  # atno 10718 bound_to 10713
  153.4099  135.7007  153.6366 H   0  0  0  0  0  0  0  0  0  0  0  0  # atno 10763 bound_to 10752
  153.4864  135.3682  155.2469 H   0  0  0  0  0  0  0  0  0  0  0  0  # atno 10764 bound_to 10752
  154.8716  135.4078  154.3450 H   0  0  0  0  0  0  0  0  0  0  0  0  # atno 10765 bound_to 10752
  140.9293  134.1341  157.4248 H   0  0  0  0  0  0  0  0  0  0  0  0  # atno 11005 bound_to 11000
  145.4300  141.0414  143.2916 LP  0  0  0  0  0  0  0  0  0  0  0  0  # atno 17320 bound_to 7965
  144.8186  139.5833  143.6997 LP  0  0  0  0  0  0  0  0  0  0  0  0  # atno 17321 bound_to 7965
  139.6392  144.0571  152.2541 LP  0  0  0  0  0  0  0  0  0  0  0  0  # atno 17342 bound_to 10162
  140.0071  144.6251  150.7679 LP  0  0  0  0  0  0  0  0  0  0  0  0  # atno 17343 bound_to 10162
  157.4113  130.7387  149.6841 LP  0  0  0  0  0  0  0  0  0  0  0  0  # atno 17370 bound_to 10713
  155.9750  130.4094  150.3879 LP  0  0  0  0  0  0  0  0  0  0  0  0  # atno 17371 bound_to 10713
  139.8792  134.9999  156.5982 LP  0  0  0  0  0  0  0  0  0  0  0  0  # atno 17394 bound_to 11000
  140.7884  133.8602  155.8625 LP  0  0  0  0  0  0  0  0  0  0  0  0  # atno 17395 bound_to 11000

$$$$
