AV-unprocessed.smi:1965|AV-procd|sdf|7936|dock4
  -GOLD-   2272010103D 1   1.00000     0.00000
 Structure written by MMmdl.
 37 39  0  0  0  0  0  0  0  0  2 V2000
  144.6733  136.8617  152.2060 O   0  0  0  0  0  0  0  0  0  0  0  0
  145.8714  136.5900  152.1570 C   0  0  0  0  0  0  0  0  0  0  0  0
  146.3020  135.4215  151.6369 N   0  0  0  0  0  0  0  0  0  0  0  0
  145.5867  134.3251  151.0738 C   0  0  0  0  0  0  0  0  0  0  0  0
  144.2576  134.2736  150.9142 N   0  0  0  0  0  0  0  0  0  0  0  0
  143.8446  133.0828  150.3110 C   0  0  0  0  0  0  0  0  0  0  0  0
  144.8797  132.2348  150.0063 C   0  0  0  0  0  0  0  0  0  0  0  0
  146.4227  132.9031  150.4659 S   0  0  0  0  0  0  0  0  0  0  0  0
  146.8245  137.4209  152.6114 N   0  0  0  0  0  0  0  0  0  0  0  0
  146.5969  138.7100  153.2602 C   0  0  2  0  0  0  0  0  0  0  0  0
  146.5407  139.8815  152.2603 C   0  0  0  0  0  0  0  0  0  0  0  0
  147.3372  141.0050  152.9318 C   0  0  0  0  0  0  0  0  0  0  0  0
  148.3629  140.2749  153.6853 N   0  3  1  0  0  0  0  0  0  0  0  0
  149.1807  141.0168  154.6661 C   0  0  0  0  0  0  0  0  0  0  0  0
  150.2932  140.0793  155.1829 C   0  0  0  0  0  0  0  0  0  0  0  0
  149.7326  138.7366  155.7042 C   0  0  0  0  0  0  0  0  0  0  0  0
  148.7833  138.0758  154.6816 C   0  0  0  0  0  0  0  0  0  0  0  0
  147.7046  139.0938  154.2691 C   0  0  2  0  0  0  0  0  0  0  0  0
  147.3063  135.3382  151.5705 H   0  0  0  0  0  0  0  0  0  0  0  0
  142.7915  132.9213  150.1334 H   0  0  0  0  0  0  0  0  0  0  0  0
  144.8282  131.2627  149.5383 H   0  0  0  0  0  0  0  0  0  0  0  0
  147.7841  137.1169  152.5253 H   0  0  0  0  0  0  0  0  0  0  0  0
  145.6444  138.6798  153.7928 H   0  0  0  0  0  0  0  0  0  0  0  0
  147.0289  139.6056  151.3243 H   0  0  0  0  0  0  0  0  0  0  0  0
  145.5200  140.1814  152.0214 H   0  0  0  0  0  0  0  0  0  0  0  0
  147.7744  141.7000  152.2142 H   0  0  0  0  0  0  0  0  0  0  0  0
  146.7039  141.5671  153.6196 H   0  0  0  0  0  0  0  0  0  0  0  0
  149.6194  141.8949  154.1911 H   0  0  0  0  0  0  0  0  0  0  0  0
  148.5553  141.3698  155.4875 H   0  0  0  0  0  0  0  0  0  0  0  0
  150.9947  139.8784  154.3718 H   0  0  0  0  0  0  0  0  0  0  0  0
  150.8667  140.5753  155.9668 H   0  0  0  0  0  0  0  0  0  0  0  0
  150.5512  138.0587  155.9480 H   0  0  0  0  0  0  0  0  0  0  0  0
  149.1919  138.9117  156.6350 H   0  0  0  0  0  0  0  0  0  0  0  0
  149.3472  137.7434  153.8088 H   0  0  0  0  0  0  0  0  0  0  0  0
  148.3257  137.1894  155.1217 H   0  0  0  0  0  0  0  0  0  0  0  0
  147.1906  139.4209  155.1758 H   0  0  0  0  0  0  0  0  0  0  0  0
  149.0033  139.9202  152.9894 H   0  0  0  0  0  0  0  0  0  0  0  0
  1  2  2  0  0  0  0
  2  3  1  0  0  0  0
  2  9  1  0  0  0  0
  3  4  1  0  0  0  0
  3 19  1  0  0  0  0
  4  8  1  0  0  0  0
  4  5  2  0  0  0  0
  5  6  1  0  0  0  0
  6  7  2  0  0  0  0
  6 20  1  0  0  0  0
  7  8  1  0  0  0  0
  7 21  1  0  0  0  0
  9 10  1  0  0  0  0
  9 22  1  0  0  0  0
 10 18  1  0  0  0  0
 10 11  1  0  0  0  0
 10 23  1  0  0  0  0
 11 12  1  0  0  0  0
 11 24  1  0  0  0  0
 11 25  1  0  0  0  0
 12 13  1  0  0  0  0
 12 26  1  0  0  0  0
 12 27  1  0  0  0  0
 13 18  1  0  0  0  0
 13 14  1  0  0  0  0
 13 37  1  0  0  0  0
 14 15  1  0  0  0  0
 14 28  1  0  0  0  0
 14 29  1  0  0  0  0
 15 16  1  0  0  0  0
 15 30  1  0  0  0  0
 15 31  1  0  0  0  0
 16 17  1  0  0  0  0
 16 32  1  0  0  0  0
 16 33  1  0  0  0  0
 17 18  1  0  0  0  0
 17 34  1  0  0  0  0
 17 35  1  0  0  0  0
 18 36  1  0  0  0  0
M  CHG  1  13   1
M  END
> <s_m_source_file>
AV-unprocessed.smi

> <i_m_source_file_index>
1965

> <i_lp_mmshare_version>
43012

> <i_f3d_flags>
0

> <s_epik_input>
czFbY0hdW2NIXW5jMVtOSF1DKD1PKVtOSF1bQ0BIXShbQ0gyXVtDSDJdMilbQ0BASF0oTjIzKVtDSDJdW0NIMl1bQ0gyXVtDSDJdMw==

> <s_epik_cmdline>
J2VwaWtfcHl0aG9uJywgJy1waCcsICc3LjAnLCAnLXRuJywgJzgnLCAnLW1hJywgJzIwMCcsICctbWV0YWxfYmluZGluZycsICctaW1hZScsICc8aW5maWxlLm1hZT4nLCAnLW9tYWUnLCAnPG91dGZpbGUubWFlPic=

> <r_lp_tautomer_probability>
1

> <r_epik_Ionization_Penalty>
0.00125962

> <r_epik_Ionization_Penalty_Charging>
0.00107044

> <r_epik_Ionization_Penalty_Neutral>
0.000189176

> <r_epik_State_Penalty>
-0

> <r_epik_Charging_Adjusted_Penalty>
0.00107044

> <i_epik_Tot_Q>
1

> <i_epik_Tot_abs_Q>
1

> <r_epik_Metal_State_Penalty>
0.0179285

> <b_epik_Metal_Only>
0

> <s_lp_Force_Field>
OPLS_2005

> <r_lp_Energy>
42.3256

> <b_lp_Chiralities_Consistent>
1

> <s_lp_Variant>
AV-unprocessed.smi:1965-5

> <Gold.Version>
5.8.1

> <Gold.Id.Protein>
6NUR|6NUR_protein|mol2

> <Gold.PLP.Fitness>
38.2375

> <Gold.PLP.PLP>
-27.2710

> <Gold.PLP.part.hbond>
-2.9972

> <Gold.PLP.part.metal>
0.0000

> <Gold.PLP.part.buried>
0.4691

> <Gold.PLP.part.nonpolar>
-25.4827

> <Gold.PLP.part.repulsive>
0.5928

> <Gold.PLP.ligand.clash>
0.0000

> <Gold.PLP.ligand.torsion>
0.3751

> <Gold.PLP.Chemscore.Hbond>
2.9200

> <Gold.PLP.Chemscore.CHOScore>
0.9851

> <Gold.PLP.Chemscore.Metal>
0.0000

> <Gold.Chemscore.Hbonds>
donor molecule, donor type, donor heavy atom, donor atom, acceptor molecule, acceptor atom, score
      L1  H     3    19       P1  7948  0.93
      L1  H     9    22       P1  7948  1.00
      L1  H    13    37       P1  7957  0.91
      L1  C     6    20       P1 10186  1.00

> <Gold.PLP.Chemscore.Internal.Correction>
0.0013

> <Gold.Rescore>
     Score         DG    S(hbond)    S(metal)    S(lipo)     H(rot)  DE(clash)    DE(int)     intcor
     18.17     -21.38       2.85        0.00      76.48       1.00       1.61       1.60       ----

> <Gold.Chemscore.Fitness>
18.1736

> <Gold.Chemscore.DG>
-21.3770

> <Gold.Chemscore.ZeroCoef>
-5.4800

> <Gold.Chemscore.Hbond>
2.8468

> <Gold.Chemscore.Metal>
0.0000

> <Gold.Chemscore.Lipo>
76.4848

> <Gold.Chemscore.Internal_Hbond>
0.0000

> <Gold.Chemscore.DEClash>
1.6061

> <Gold.Chemscore.DEInternal>
1.5973

> <Gold.Chemscore.Rot>
1.0000

> <Gold.Chemscore.Internal.Correction>
   9.000000E+99

> <Gold.Chemscore.Hbonds>
donor molecule, donor type, donor heavy atom, donor atom, acceptor molecule, acceptor atom, score
      L1  H     3    19       P1  7948  0.85
      L1  H     9    22       P1  7948  0.96
      L1  H    13    37       P1  7957  0.89

> <Gold.Chemscore.Hbond.Weighted>
-9.5083

> <Gold.Chemscore.Metal.Weighted>
-0.0000

> <Gold.Chemscore.Lipo.Weighted>
-8.9487

> <Gold.Chemscore.Internal_Hbond.Weighted>
0.0000

> <Gold.Chemscore.DEClash.Weighted>
1.6061

> <Gold.Chemscore.DEInternal.Weighted>
1.5973

> <Gold.Chemscore.Rot.Weighted>
2.5600

> <Gold.Chemscore.Internal.Correction.Weighted>
   9.000000E+99

> <Gold.Protein.RotatedTorsions>
[ 6907 6896 6895 6894 ] final    1.19 input  -60.11 | X-H torsion
[ 7974 7965 7964 7962 ] final   91.24 input  175.53 | X-H torsion
[ 8008 7997 7996 7995 ] final   23.32 input   59.86 | X-H torsion
[ 10167 10162 10161 10158 ] final  -71.01 input  -65.29 | X-H torsion
[ 10718 10713 10712 10709 ] final  -29.17 input   66.30 | X-H torsion
[ 10763 10752 10751 10750 ] final   64.13 input  -60.55 | X-H torsion
[ 11005 11000 10999 10996 ] final  -89.84 input  -57.11 | X-H torsion

> <Gold.Protein.ActiveResidues>
 VAL166  LYS551  ARG553  GLY616  TRP617  ASP618  TYR619  PRO620  LYS621  CYS622 
 ASP623  PHE694  ASN695  SER759  ASP760  ASP761  ALA762  ILE779  LEU786  VAL792 
 PHE793  MET794  SER795  GLU796  ALA797  LYS798  CYS799  TRP800  GLU811  SER814 

> <Gold.Protein.RotatedAtoms>
  151.5886  135.1054  160.0033 H   0  0  0  0  0  0  0  0  0  0  0  0  # atno 6907 bound_to 6896
  152.4318  133.7286  159.6585 H   0  0  0  0  0  0  0  0  0  0  0  0  # atno 6908 bound_to 6896
  150.8211  133.8181  159.3161 H   0  0  0  0  0  0  0  0  0  0  0  0  # atno 6909 bound_to 6896
  145.5083  139.2276  143.2739 H   0  0  0  0  0  0  0  0  0  0  0  0  # atno 7974 bound_to 7965
  154.9791  140.3100  155.4954 H   0  0  0  0  0  0  0  0  0  0  0  0  # atno 8008 bound_to 7997
  156.2956  140.2270  156.4828 H   0  0  0  0  0  0  0  0  0  0  0  0  # atno 8009 bound_to 7997
  154.7806  140.0446  157.1112 H   0  0  0  0  0  0  0  0  0  0  0  0  # atno 8010 bound_to 7997
  140.5307  143.2322  151.7266 H   0  0  0  0  0  0  0  0  0  0  0  0  # atno 10167 bound_to 10162
  156.4159  130.4417  149.7218 H   0  0  0  0  0  0  0  0  0  0  0  0  # atno 10718 bound_to 10713
  153.0044  135.5404  154.6461 H   0  0  0  0  0  0  0  0  0  0  0  0  # atno 10763 bound_to 10752
  154.5705  135.2841  155.0834 H   0  0  0  0  0  0  0  0  0  0  0  0  # atno 10764 bound_to 10752
  154.2002  135.6485  153.5137 H   0  0  0  0  0  0  0  0  0  0  0  0  # atno 10765 bound_to 10752
  141.1577  133.7655  156.9652 H   0  0  0  0  0  0  0  0  0  0  0  0  # atno 11005 bound_to 11000
  146.2183  140.5888  142.9029 LP  0  0  0  0  0  0  0  0  0  0  0  0  # atno 17320 bound_to 7965
  144.7741  140.5702  143.6650 LP  0  0  0  0  0  0  0  0  0  0  0  0  # atno 17321 bound_to 7965
  139.4953  144.4118  152.0073 LP  0  0  0  0  0  0  0  0  0  0  0  0  # atno 17342 bound_to 10162
  140.3220  144.3417  150.6007 LP  0  0  0  0  0  0  0  0  0  0  0  0  # atno 17343 bound_to 10162
  156.4179  130.7754  151.2770 LP  0  0  0  0  0  0  0  0  0  0  0  0  # atno 17370 bound_to 10713
  157.7508  131.0192  150.3656 LP  0  0  0  0  0  0  0  0  0  0  0  0  # atno 17371 bound_to 10713
  140.1166  134.9443  157.2143 LP  0  0  0  0  0  0  0  0  0  0  0  0  # atno 17394 bound_to 11000
  140.3125  134.3008  155.7263 LP  0  0  0  0  0  0  0  0  0  0  0  0  # atno 17395 bound_to 11000

$$$$
