AV-unprocessed.smi:1333|AV-procd|sdf|5490|dock6
  -GOLD-   22720 5 63D 1   1.00000     0.00000
 Structure written by MMmdl.
 33 34  0  0  0  0  0  0  0  0  1 V2000
  149.8707  140.1209  154.5941 O   0  0  0  0  0  0  0  0  0  0  0  0
  149.2972  141.1994  154.7703 C   0  0  0  0  0  0  0  0  0  0  0  0
  148.0613  141.5625  153.9358 C   0  0  0  0  0  0  0  0  0  0  0  0
  147.3621  140.3995  153.4157 N   0  0  0  0  0  0  0  0  0  0  0  0
  147.1189  140.0932  152.0826 C   0  0  0  0  0  0  0  0  0  0  0  0
  146.4235  138.9053  152.0727 C   0  0  0  0  0  0  0  0  0  0  0  0
  146.2295  138.4644  153.3797 N   0  0  0  0  0  0  0  0  0  0  0  0
  146.8108  139.4002  154.1192 C   0  0  0  0  0  0  0  0  0  0  0  0
  149.6612  142.1448  155.6673 N   0  0  0  0  0  0  0  0  0  0  0  0
  150.6790  142.1813  156.5603 C   0  0  0  0  0  0  0  0  0  0  0  0
  151.3581  141.1785  156.7754 O   0  0  0  0  0  0  0  0  0  0  0  0
  150.9021  143.3497  157.1910 N   0  0  0  0  0  0  0  0  0  0  0  0
  151.9972  143.6178  158.1190 C   0  0  0  0  0  0  0  0  0  0  0  0
  151.8555  142.7938  159.4147 C   0  0  0  0  0  0  0  0  0  0  0  0
  151.4479  143.7878  160.5024 C   0  0  0  0  0  0  0  0  0  0  0  0
  152.1065  145.0958  160.0765 C   0  0  0  0  0  0  0  0  0  0  0  0
  151.9949  145.0972  158.5506 C   0  0  0  0  0  0  0  0  0  0  0  0
  147.3671  142.1424  154.5457 H   0  0  0  0  0  0  0  0  0  0  0  0
  148.3614  142.1940  153.0985 H   0  0  0  0  0  0  0  0  0  0  0  0
  147.4483  140.7297  151.2744 H   0  0  0  0  0  0  0  0  0  0  0  0
  146.0498  138.3394  151.2322 H   0  0  0  0  0  0  0  0  0  0  0  0
  146.8344  139.3588  155.1984 H   0  0  0  0  0  0  0  0  0  0  0  0
  149.0750  142.9667  155.6738 H   0  0  0  0  0  0  0  0  0  0  0  0
  150.2618  144.1104  157.0119 H   0  0  0  0  0  0  0  0  0  0  0  0
  152.9477  143.3807  157.6374 H   0  0  0  0  0  0  0  0  0  0  0  0
  151.1486  141.9670  159.3329 H   0  0  0  0  0  0  0  0  0  0  0  0
  152.8234  142.3604  159.6694 H   0  0  0  0  0  0  0  0  0  0  0  0
  150.3635  143.9059  160.5056 H   0  0  0  0  0  0  0  0  0  0  0  0
  151.7526  143.4677  161.4993 H   0  0  0  0  0  0  0  0  0  0  0  0
  151.6405  145.9695  160.5328 H   0  0  0  0  0  0  0  0  0  0  0  0
  153.1575  145.0881  160.3686 H   0  0  0  0  0  0  0  0  0  0  0  0
  152.8028  145.6630  158.0850 H   0  0  0  0  0  0  0  0  0  0  0  0
  151.0589  145.5804  158.2648 H   0  0  0  0  0  0  0  0  0  0  0  0
  1  2  2  0  0  0  0
  2  3  1  0  0  0  0
  2  9  1  0  0  0  0
  3  4  1  0  0  0  0
  3 18  1  0  0  0  0
  3 19  1  0  0  0  0
  4  8  1  0  0  0  0
  4  5  1  0  0  0  0
  5  6  2  0  0  0  0
  5 20  1  0  0  0  0
  6  7  1  0  0  0  0
  6 21  1  0  0  0  0
  7  8  2  0  0  0  0
  8 22  1  0  0  0  0
  9 10  1  0  0  0  0
  9 23  1  0  0  0  0
 10 11  2  0  0  0  0
 10 12  1  0  0  0  0
 12 13  1  0  0  0  0
 12 24  1  0  0  0  0
 13 17  1  0  0  0  0
 13 14  1  0  0  0  0
 13 25  1  0  0  0  0
 14 15  1  0  0  0  0
 14 26  1  0  0  0  0
 14 27  1  0  0  0  0
 15 16  1  0  0  0  0
 15 28  1  0  0  0  0
 15 29  1  0  0  0  0
 16 17  1  0  0  0  0
 16 30  1  0  0  0  0
 16 31  1  0  0  0  0
 17 32  1  0  0  0  0
 17 33  1  0  0  0  0
M  END
> <s_m_source_file>
AV-unprocessed.smi

> <i_m_source_file_index>
1333

> <i_lp_mmshare_version>
43012

> <i_f3d_flags>
0

> <s_epik_input>
W2NIXTFuW2NIXVtjSF1uMVtDSDJdQyg9TylbTkhdQyg9TylbTkhdW0NIXTJbQ0gyXVtDSDJdW0NIMl1bQ0gyXTI=

> <s_epik_cmdline>
J2VwaWtfcHl0aG9uJywgJy1waCcsICc3LjAnLCAnLXRuJywgJzgnLCAnLW1hJywgJzIwMCcsICctbWV0YWxfYmluZGluZycsICctaW1hZScsICc8aW5maWxlLm1hZT4nLCAnLW9tYWUnLCAnPG91dGZpbGUubWFlPic=

> <r_lp_tautomer_probability>
1

> <r_epik_Ionization_Penalty>
0.171964

> <r_epik_Ionization_Penalty_Charging>
0.171937

> <r_epik_Ionization_Penalty_Neutral>
2.73302e-05

> <r_epik_State_Penalty>
0.161333

> <r_epik_Charging_Adjusted_Penalty>
0.33327

> <i_epik_Tot_Q>
0

> <i_epik_Tot_abs_Q>
0

> <r_epik_Metal_State_Penalty>
0.124658

> <b_epik_Metal_Only>
0

> <s_lp_Force_Field>
OPLS_2005

> <r_lp_Energy>
24.334

> <b_lp_Chiralities_Consistent>
1

> <s_lp_Variant>
AV-unprocessed.smi:1333-1

> <Gold.Version>
5.8.1

> <Gold.Id.Protein>
6NUR|6NUR_protein|mol2

> <Gold.PLP.Fitness>
48.1727

> <Gold.PLP.PLP>
-37.3486

> <Gold.PLP.part.hbond>
-3.0000

> <Gold.PLP.part.metal>
0.0000

> <Gold.PLP.part.buried>
1.1415

> <Gold.PLP.part.nonpolar>
-34.9652

> <Gold.PLP.part.repulsive>
0.5307

> <Gold.PLP.ligand.clash>
0.0000

> <Gold.PLP.ligand.torsion>
0.4002

> <Gold.PLP.Chemscore.Hbond>
2.7680

> <Gold.PLP.Chemscore.CHOScore>
1.1038

> <Gold.PLP.Chemscore.Metal>
0.0000

> <Gold.Chemscore.Hbonds>
donor molecule, donor type, donor heavy atom, donor atom, acceptor molecule, acceptor atom, score
      L1  H     9    23       P1  8028  1.00
      L1  H    12    24       P1  8028  0.85
      P1  H  7989  7998       L1     1  0.53
      L1  C     5    20       P1  7957  0.40
      L1  C     6    21       P1 10171  0.82

> <Gold.PLP.Chemscore.Internal.Correction>
0.0091

> <Gold.Rescore>
     Score         DG    S(hbond)    S(metal)    S(lipo)     H(rot)  DE(clash)    DE(int)     intcor
     15.45     -18.97       2.20        0.00      90.14       1.73       1.79       1.73       ----

> <Gold.Chemscore.Fitness>
15.4459

> <Gold.Chemscore.DG>
-18.9660

> <Gold.Chemscore.ZeroCoef>
-5.4800

> <Gold.Chemscore.Hbond>
2.2032

> <Gold.Chemscore.Metal>
0.0000

> <Gold.Chemscore.Lipo>
90.1415

> <Gold.Chemscore.Internal_Hbond>
0.0000

> <Gold.Chemscore.DEClash>
1.7917

> <Gold.Chemscore.DEInternal>
1.7284

> <Gold.Chemscore.Rot>
1.7263

> <Gold.Chemscore.Internal.Correction>
   9.000000E+99

> <Gold.Chemscore.Hbonds>
donor molecule, donor type, donor heavy atom, donor atom, acceptor molecule, acceptor atom, score
      L1  H     9    23       P1  8028  0.95
      L1  H    12    24       P1  8028  0.75
      P1  H  7989  7998       L1     1  0.10

> <Gold.Chemscore.Hbond.Weighted>
-7.3588

> <Gold.Chemscore.Metal.Weighted>
-0.0000

> <Gold.Chemscore.Lipo.Weighted>
-10.5466

> <Gold.Chemscore.Internal_Hbond.Weighted>
0.0000

> <Gold.Chemscore.DEClash.Weighted>
1.7917

> <Gold.Chemscore.DEInternal.Weighted>
1.7284

> <Gold.Chemscore.Rot.Weighted>
4.4193

> <Gold.Chemscore.Internal.Correction.Weighted>
   9.000000E+99

> <Gold.Protein.RotatedTorsions>
[ 6907 6896 6895 6894 ] final  -50.98 input  -60.11 | X-H torsion
[ 7974 7965 7964 7962 ] final  -53.97 input  175.53 | X-H torsion
[ 8008 7997 7996 7995 ] final  -39.80 input   59.86 | X-H torsion
[ 10167 10162 10161 10158 ] final  154.72 input  -65.29 | X-H torsion
[ 10718 10713 10712 10709 ] final -145.75 input   66.30 | X-H torsion
[ 10763 10752 10751 10750 ] final  -43.87 input  -60.55 | X-H torsion
[ 11005 11000 10999 10996 ] final  171.12 input  -57.11 | X-H torsion

> <Gold.Protein.ActiveResidues>
 VAL166  LYS551  ARG553  GLY616  TRP617  ASP618  TYR619  PRO620  LYS621  CYS622 
 ASP623  PHE694  ASN695  SER759  ASP760  ASP761  ALA762  ILE779  LEU786  VAL792 
 PHE793  MET794  SER795  GLU796  ALA797  LYS798  CYS799  TRP800  GLU811  SER814 

> <Gold.Protein.RotatedAtoms>
  150.8655  134.8017  159.7114 H   0  0  0  0  0  0  0  0  0  0  0  0  # atno 6907 bound_to 6896
  152.4678  134.5031  159.9741 H   0  0  0  0  0  0  0  0  0  0  0  0  # atno 6908 bound_to 6896
  151.5128  133.3443  159.2923 H   0  0  0  0  0  0  0  0  0  0  0  0  # atno 6909 bound_to 6896
  145.8909  140.8071  142.9792 H   0  0  0  0  0  0  0  0  0  0  0  0  # atno 7974 bound_to 7965
  154.4019  140.1542  156.2923 H   0  0  0  0  0  0  0  0  0  0  0  0  # atno 8008 bound_to 7997
  155.8774  140.3445  155.5842 H   0  0  0  0  0  0  0  0  0  0  0  0  # atno 8009 bound_to 7997
  155.7706  140.0830  157.2100 H   0  0  0  0  0  0  0  0  0  0  0  0  # atno 8010 bound_to 7997
  139.4822  144.5162  151.7948 H   0  0  0  0  0  0  0  0  0  0  0  0  # atno 10167 bound_to 10162
  156.3863  130.7863  151.2061 H   0  0  0  0  0  0  0  0  0  0  0  0  # atno 10718 bound_to 10713
  154.0028  135.6691  153.4760 H   0  0  0  0  0  0  0  0  0  0  0  0  # atno 10763 bound_to 10752
  153.0655  135.5003  154.8186 H   0  0  0  0  0  0  0  0  0  0  0  0  # atno 10764 bound_to 10752
  154.7043  135.3085  154.9258 H   0  0  0  0  0  0  0  0  0  0  0  0  # atno 10765 bound_to 10752
  140.3156  134.7480  157.4025 H   0  0  0  0  0  0  0  0  0  0  0  0  # atno 11005 bound_to 11000
  144.6730  140.1527  143.7428 LP  0  0  0  0  0  0  0  0  0  0  0  0  # atno 17320 bound_to 7965
  145.8910  139.2376  143.1549 LP  0  0  0  0  0  0  0  0  0  0  0  0  # atno 17321 bound_to 7965
  140.4671  144.1640  150.5913 LP  0  0  0  0  0  0  0  0  0  0  0  0  # atno 17342 bound_to 10162
  140.4423  143.2521  151.9457 LP  0  0  0  0  0  0  0  0  0  0  0  0  # atno 17343 bound_to 10162
  157.7496  131.0329  150.4246 LP  0  0  0  0  0  0  0  0  0  0  0  0  # atno 17370 bound_to 10713
  156.4500  130.4009  149.6642 LP  0  0  0  0  0  0  0  0  0  0  0  0  # atno 17371 bound_to 10713
  140.0986  134.5503  155.8374 LP  0  0  0  0  0  0  0  0  0  0  0  0  # atno 17394 bound_to 11000
  141.2098  133.6688  156.6467 LP  0  0  0  0  0  0  0  0  0  0  0  0  # atno 17395 bound_to 11000

$$$$
