AV-unprocessed.smi:1273|AV-procd|sdf|5339|dock1
  -GOLD-   22720 4473D 1   1.00000     0.00000
 Structure written by MMmdl.
 40 41  0  0  0  0  0  0  0  0  1 V2000
  147.3707  142.2356  154.1286 C   0  0  0  0  0  0  0  0  0  0  0  0
  147.1760  140.8336  154.7289 C   0  0  1  0  0  0  0  0  0  0  0  0
  146.8234  139.7983  153.6520 C   0  0  0  0  0  0  0  0  0  0  0  0
  146.8592  140.1130  152.4625 O   0  0  0  0  0  0  0  0  0  0  0  0
  146.5045  138.5703  154.1021 N   0  0  0  0  0  0  0  0  0  0  0  0
  146.1220  137.4310  153.3460 C   0  0  0  0  0  0  0  0  0  0  0  0
  146.3087  136.1575  153.9170 C   0  0  0  0  0  0  0  0  0  0  0  0
  145.9130  135.0154  153.1954 C   0  0  0  0  0  0  0  0  0  0  0  0
  145.3270  135.1752  151.9174 C   0  0  0  0  0  0  0  0  0  0  0  0
  144.9213  134.0452  151.1744 N   0  0  0  0  0  0  0  0  0  0  0  0
  143.6355  133.4656  151.5558 C   0  0  0  0  0  0  0  0  0  0  0  0
  143.1685  132.4515  150.4971 C   0  0  0  0  0  0  0  0  0  0  0  0
  144.1786  131.4703  150.2882 O   0  0  0  0  0  0  0  0  0  0  0  0
  145.3865  132.0493  149.8064 C   0  0  0  0  0  0  0  0  0  0  0  0
  145.9335  133.0429  150.8450 C   0  0  0  0  0  0  0  0  0  0  0  0
  145.1276  136.4034  151.3790 N   0  0  0  0  0  0  0  0  0  0  0  0
  145.5122  137.4957  152.0715 C   0  0  0  0  0  0  0  0  0  0  0  0
  148.7091  140.3172  155.6356 S   0  0  0  0  0  0  0  0  0  0  0  0
  148.9055  141.6327  156.9105 C   0  0  0  0  0  0  0  0  0  0  0  0
  148.4507  139.0458  156.3292 O   0  0  0  0  0  0  0  0  0  0  0  0
  149.8421  140.4109  154.7022 O   0  0  0  0  0  0  0  0  0  0  0  0
  146.4995  142.5447  153.5498 H   0  0  0  0  0  0  0  0  0  0  0  0
  148.2407  142.2731  153.4718 H   0  0  0  0  0  0  0  0  0  0  0  0
  147.5211  142.9761  154.9143 H   0  0  0  0  0  0  0  0  0  0  0  0
  146.3695  140.8803  155.4617 H   0  0  0  0  0  0  0  0  0  0  0  0
  146.6071  138.4182  155.0949 H   0  0  0  0  0  0  0  0  0  0  0  0
  146.7513  136.0523  154.8969 H   0  0  0  0  0  0  0  0  0  0  0  0
  146.0470  134.0383  153.6351 H   0  0  0  0  0  0  0  0  0  0  0  0
  143.7461  132.9712  152.5217 H   0  0  0  0  0  0  0  0  0  0  0  0
  142.8681  134.2288  151.6767 H   0  0  0  0  0  0  0  0  0  0  0  0
  142.2565  131.9558  150.8298 H   0  0  0  0  0  0  0  0  0  0  0  0
  142.9333  132.9523  149.5565 H   0  0  0  0  0  0  0  0  0  0  0  0
  146.1133  131.2573  149.6260 H   0  0  0  0  0  0  0  0  0  0  0  0
  145.2098  132.5439  148.8498 H   0  0  0  0  0  0  0  0  0  0  0  0
  146.8276  133.5247  150.4469 H   0  0  0  0  0  0  0  0  0  0  0  0
  146.2247  132.5115  151.7521 H   0  0  0  0  0  0  0  0  0  0  0  0
  145.2964  138.4366  151.5896 H   0  0  0  0  0  0  0  0  0  0  0  0
  149.8403  141.4734  157.4477 H   0  0  0  0  0  0  0  0  0  0  0  0
  148.0787  141.5916  157.6189 H   0  0  0  0  0  0  0  0  0  0  0  0
  148.9292  142.6100  156.4293 H   0  0  0  0  0  0  0  0  0  0  0  0
  1  2  1  0  0  0  0
  1 22  1  0  0  0  0
  1 23  1  0  0  0  0
  1 24  1  0  0  0  0
  2  3  1  0  0  0  0
  2 18  1  0  0  0  0
  2 25  1  0  0  0  0
  3  4  2  0  0  0  0
  3  5  1  0  0  0  0
  5  6  1  0  0  0  0
  5 26  1  0  0  0  0
  6 17  1  0  0  0  0
  6  7  2  0  0  0  0
  7  8  1  0  0  0  0
  7 27  1  0  0  0  0
  8  9  2  0  0  0  0
  8 28  1  0  0  0  0
  9 10  1  0  0  0  0
  9 16  1  0  0  0  0
 10 15  1  0  0  0  0
 10 11  1  0  0  0  0
 11 12  1  0  0  0  0
 11 29  1  0  0  0  0
 11 30  1  0  0  0  0
 12 13  1  0  0  0  0
 12 31  1  0  0  0  0
 12 32  1  0  0  0  0
 13 14  1  0  0  0  0
 14 15  1  0  0  0  0
 14 33  1  0  0  0  0
 14 34  1  0  0  0  0
 15 35  1  0  0  0  0
 15 36  1  0  0  0  0
 16 17  2  0  0  0  0
 17 37  1  0  0  0  0
 18 19  1  0  0  0  0
 18 20  2  0  0  0  0
 18 21  2  0  0  0  0
 19 38  1  0  0  0  0
 19 39  1  0  0  0  0
 19 40  1  0  0  0  0
M  END
> <s_m_source_file>
AV-unprocessed.smi

> <i_m_source_file_index>
1273

> <i_lp_mmshare_version>
43012

> <i_f3d_flags>
0

> <s_epik_input>
W0NIM11TKD1PKSg9TylbQ0BIXShbQ0gzXSlDKD1PKVtOSF1jMVtjSF1bY0hdYyhuW2NIXTEpTjJbQ0gyXVtDSDJdT1tDSDJdW0NIMl0y

> <s_epik_cmdline>
J2VwaWtfcHl0aG9uJywgJy1waCcsICc3LjAnLCAnLXRuJywgJzgnLCAnLW1hJywgJzIwMCcsICctbWV0YWxfYmluZGluZycsICctaW1hZScsICc8aW5maWxlLm1hZT4nLCAnLW9tYWUnLCAnPG91dGZpbGUubWFlPic=

> <r_lp_tautomer_probability>
1

> <r_epik_Ionization_Penalty>
0.000253983

> <r_epik_Ionization_Penalty_Charging>
0

> <r_epik_Ionization_Penalty_Neutral>
0.000253983

> <r_epik_State_Penalty>
-0

> <r_epik_Charging_Adjusted_Penalty>
0

> <i_epik_Tot_Q>
0

> <i_epik_Tot_abs_Q>
0

> <r_epik_Metal_State_Penalty>
-0

> <b_epik_Metal_Only>
0

> <s_lp_Force_Field>
OPLS_2005

> <r_lp_Energy>
19.0029

> <b_lp_Chiralities_Consistent>
1

> <s_lp_Variant>
AV-unprocessed.smi:1273-2

> <Gold.Version>
5.8.1

> <Gold.Id.Protein>
6NUR|6NUR_protein|mol2

> <Gold.PLP.Fitness>
33.6974

> <Gold.PLP.PLP>
-26.2607

> <Gold.PLP.part.hbond>
-2.0000

> <Gold.PLP.part.metal>
0.0000

> <Gold.PLP.part.buried>
-3.3774

> <Gold.PLP.part.nonpolar>
-23.7896

> <Gold.PLP.part.repulsive>
2.1852

> <Gold.PLP.ligand.clash>
0.0000

> <Gold.PLP.ligand.torsion>
0.5529

> <Gold.PLP.Chemscore.Hbond>
1.0981

> <Gold.PLP.Chemscore.CHOScore>
1.5607

> <Gold.PLP.Chemscore.Metal>
0.0000

> <Gold.Chemscore.Hbonds>
donor molecule, donor type, donor heavy atom, donor atom, acceptor molecule, acceptor atom, score
      P1  H  7989  7998       L1    21  0.53
      P1  H 10785 10796       L1    13  0.28
      L1  C    17    37       P1 10171  0.86
      L1  C    17    37       P1 10175  0.52

> <Gold.PLP.Chemscore.Internal.Correction>
0.5660

> <Gold.Rescore>
     Score         DG    S(hbond)    S(metal)    S(lipo)     H(rot)  DE(clash)    DE(int)     intcor
      9.27     -12.74       1.18        0.00      62.65       1.56       0.20       3.27       ----

> <Gold.Chemscore.Fitness>
9.2651

> <Gold.Chemscore.DG>
-12.7423

> <Gold.Chemscore.ZeroCoef>
-5.4800

> <Gold.Chemscore.Hbond>
1.1773

> <Gold.Chemscore.Metal>
0.0000

> <Gold.Chemscore.Lipo>
62.6468

> <Gold.Chemscore.Internal_Hbond>
0.0000

> <Gold.Chemscore.DEClash>
0.2043

> <Gold.Chemscore.DEInternal>
3.2729

> <Gold.Chemscore.Rot>
1.5624

> <Gold.Chemscore.Internal.Correction>
   9.000000E+99

> <Gold.Chemscore.Hbonds>
donor molecule, donor type, donor heavy atom, donor atom, acceptor molecule, acceptor atom, score
      P1  H  7989  7998       L1    21  0.51
      P1  H 10785 10796       L1    13  0.08

> <Gold.Chemscore.Hbond.Weighted>
-3.9322

> <Gold.Chemscore.Metal.Weighted>
-0.0000

> <Gold.Chemscore.Lipo.Weighted>
-7.3297

> <Gold.Chemscore.Internal_Hbond.Weighted>
0.0000

> <Gold.Chemscore.DEClash.Weighted>
0.2043

> <Gold.Chemscore.DEInternal.Weighted>
3.2729

> <Gold.Chemscore.Rot.Weighted>
3.9996

> <Gold.Chemscore.Internal.Correction.Weighted>
   9.000000E+99

> <Gold.Protein.RotatedTorsions>
[ 6907 6896 6895 6894 ] final    3.75 input  -60.11 | X-H torsion
[ 7974 7965 7964 7962 ] final  128.51 input  175.53 | X-H torsion
[ 8008 7997 7996 7995 ] final  -95.15 input   59.86 | X-H torsion
[ 10167 10162 10161 10158 ] final   74.30 input  -65.29 | X-H torsion
[ 10718 10713 10712 10709 ] final  -68.45 input   66.30 | X-H torsion
[ 10763 10752 10751 10750 ] final  106.70 input  -60.55 | X-H torsion
[ 11005 11000 10999 10996 ] final   71.24 input  -57.11 | X-H torsion

> <Gold.Protein.ActiveResidues>
 VAL166  LYS551  ARG553  GLY616  TRP617  ASP618  TYR619  PRO620  LYS621  CYS622 
 ASP623  PHE694  ASN695  SER759  ASP760  ASP761  ALA762  ILE779  LEU786  VAL792 
 PHE793  MET794  SER795  GLU796  ALA797  LYS798  CYS799  TRP800  GLU811  SER814 

> <Gold.Protein.RotatedAtoms>
  151.6302  135.1023  160.0119 H   0  0  0  0  0  0  0  0  0  0  0  0  # atno 6907 bound_to 6896
  152.4111  133.6960  159.6407 H   0  0  0  0  0  0  0  0  0  0  0  0  # atno 6908 bound_to 6896
  150.8001  133.8540  159.3254 H   0  0  0  0  0  0  0  0  0  0  0  0  # atno 6909 bound_to 6896
  145.0388  139.3981  143.5112 H   0  0  0  0  0  0  0  0  0  0  0  0  # atno 7974 bound_to 7965
  154.7576  140.0482  157.0946 H   0  0  0  0  0  0  0  0  0  0  0  0  # atno 8008 bound_to 7997
  154.9978  140.3121  155.4860 H   0  0  0  0  0  0  0  0  0  0  0  0  # atno 8009 bound_to 7997
  156.2898  140.2207  156.5086 H   0  0  0  0  0  0  0  0  0  0  0  0  # atno 8010 bound_to 7997
  140.0152  144.5583  150.7626 H   0  0  0  0  0  0  0  0  0  0  0  0  # atno 10167 bound_to 10162
  156.0505  130.4295  150.2002 H   0  0  0  0  0  0  0  0  0  0  0  0  # atno 10718 bound_to 10713
  153.3966  135.3868  155.1959 H   0  0  0  0  0  0  0  0  0  0  0  0  # atno 10763 bound_to 10752
  154.8725  135.3761  154.4671 H   0  0  0  0  0  0  0  0  0  0  0  0  # atno 10764 bound_to 10752
  153.5163  135.7087  153.5816 H   0  0  0  0  0  0  0  0  0  0  0  0  # atno 10765 bound_to 10752
  139.9554  134.7153  156.0765 H   0  0  0  0  0  0  0  0  0  0  0  0  # atno 11005 bound_to 11000
  146.3507  139.9978  142.8679 LP  0  0  0  0  0  0  0  0  0  0  0  0  # atno 17320 bound_to 7965
  145.1674  140.9704  143.4341 LP  0  0  0  0  0  0  0  0  0  0  0  0  # atno 17321 bound_to 7965
  140.7365  143.2754  151.3759 LP  0  0  0  0  0  0  0  0  0  0  0  0  # atno 17342 bound_to 10162
  139.6177  144.0969  152.2362 LP  0  0  0  0  0  0  0  0  0  0  0  0  # atno 17343 bound_to 10162
  157.0086  130.9944  151.3372 LP  0  0  0  0  0  0  0  0  0  0  0  0  # atno 17370 bound_to 10713
  157.5425  130.8129  149.8046 LP  0  0  0  0  0  0  0  0  0  0  0  0  # atno 17371 bound_to 10713
  141.1225  133.6609  156.3251 LP  0  0  0  0  0  0  0  0  0  0  0  0  # atno 17394 bound_to 11000
  140.5621  134.5924  157.5436 LP  0  0  0  0  0  0  0  0  0  0  0  0  # atno 17395 bound_to 11000

$$$$
