AV-unprocessed.smi:3252|AV-procd|sdf|12441|dock5
  -GOLD-   2272018333D 1   1.00000     0.00000
 Structure written by MMmdl.
 37 38  0  0  0  0  0  0  0  0  2 V2000
  146.2728  137.2485  153.9261 C   0  0  0  0  0  0  0  0  0  0  0  0
  147.4995  137.8832  154.5958 C   0  0  0  0  0  0  0  0  0  0  0  0
  148.3499  138.6288  153.6302 N   0  3  1  0  0  0  0  0  0  0  0  0
  147.6149  139.6756  152.8799 C   0  0  0  0  0  0  0  0  0  0  0  0
  147.4085  140.9332  153.7414 C   0  0  0  0  0  0  0  0  0  0  0  0
  148.6725  141.4043  154.1889 O   0  0  0  0  0  0  0  0  0  0  0  0
  149.3466  140.4669  155.0228 C   0  0  2  0  0  0  0  0  0  0  0  0
  150.6653  141.0912  155.5124 C   0  0  0  0  0  0  0  0  0  0  0  0
  150.4529  142.1624  156.4796 N   0  0  0  0  0  0  0  0  0  0  0  0
  151.1269  142.1929  157.7093 C   0  0  0  0  0  0  0  0  0  0  0  0
  151.4637  143.4472  158.2607 C   0  0  0  0  0  0  0  0  0  0  0  0
  152.1405  143.4882  159.4956 C   0  0  0  0  0  0  0  0  0  0  0  0
  152.4567  142.2739  160.1360 C   0  0  0  0  0  0  0  0  0  0  0  0
  153.1555  142.2626  161.4096 C   0  0  0  0  0  0  0  0  0  0  0  0
  153.7118  142.2536  162.4240 N   0  0  0  0  0  0  0  0  0  0  0  0
  152.0773  141.0697  159.5098 C   0  0  0  0  0  0  0  0  0  0  0  0
  151.4272  141.0253  158.3268 N   0  0  0  0  0  0  0  0  0  0  0  0
  149.6048  139.1839  154.2010 C   0  0  0  0  0  0  0  0  0  0  0  0
  145.6205  136.7959  154.6734 H   0  0  0  0  0  0  0  0  0  0  0  0
  146.5494  136.4641  153.2225 H   0  0  0  0  0  0  0  0  0  0  0  0
  145.6879  137.9947  153.3875 H   0  0  0  0  0  0  0  0  0  0  0  0
  147.1363  138.5758  155.3559 H   0  0  0  0  0  0  0  0  0  0  0  0
  148.0784  137.1269  155.1254 H   0  0  0  0  0  0  0  0  0  0  0  0
  148.1987  139.9380  151.9967 H   0  0  0  0  0  0  0  0  0  0  0  0
  146.6614  139.2937  152.5133 H   0  0  0  0  0  0  0  0  0  0  0  0
  146.9311  141.7164  153.1522 H   0  0  0  0  0  0  0  0  0  0  0  0
  146.7544  140.7329  154.5913 H   0  0  0  0  0  0  0  0  0  0  0  0
  148.7268  140.2350  155.8904 H   0  0  0  0  0  0  0  0  0  0  0  0
  151.2544  140.3265  156.0192 H   0  0  0  0  0  0  0  0  0  0  0  0
  151.2733  141.4295  154.6729 H   0  0  0  0  0  0  0  0  0  0  0  0
  149.9140  142.9674  156.1943 H   0  0  0  0  0  0  0  0  0  0  0  0
  151.2109  144.3649  157.7497 H   0  0  0  0  0  0  0  0  0  0  0  0
  152.4098  144.4368  159.9376 H   0  0  0  0  0  0  0  0  0  0  0  0
  152.2985  140.1144  159.9640 H   0  0  0  0  0  0  0  0  0  0  0  0
  150.1230  138.4384  154.8029 H   0  0  0  0  0  0  0  0  0  0  0  0
  150.2742  139.4182  153.3718 H   0  0  0  0  0  0  0  0  0  0  0  0
  148.6262  137.9428  152.9423 H   0  0  0  0  0  0  0  0  0  0  0  0
  1  2  1  0  0  0  0
  1 19  1  0  0  0  0
  1 20  1  0  0  0  0
  1 21  1  0  0  0  0
  2  3  1  0  0  0  0
  2 22  1  0  0  0  0
  2 23  1  0  0  0  0
  3 18  1  0  0  0  0
  3  4  1  0  0  0  0
  3 37  1  0  0  0  0
  4  5  1  0  0  0  0
  4 24  1  0  0  0  0
  4 25  1  0  0  0  0
  5  6  1  0  0  0  0
  5 26  1  0  0  0  0
  5 27  1  0  0  0  0
  6  7  1  0  0  0  0
  7  8  1  0  0  0  0
  7 18  1  0  0  0  0
  7 28  1  0  0  0  0
  8  9  1  0  0  0  0
  8 29  1  0  0  0  0
  8 30  1  0  0  0  0
  9 10  1  0  0  0  0
  9 31  1  0  0  0  0
 10 17  1  0  0  0  0
 10 11  2  0  0  0  0
 11 12  1  0  0  0  0
 11 32  1  0  0  0  0
 12 13  2  0  0  0  0
 12 33  1  0  0  0  0
 13 14  1  0  0  0  0
 13 16  1  0  0  0  0
 14 15  3  0  0  0  0
 16 17  2  0  0  0  0
 16 34  1  0  0  0  0
 18 35  1  0  0  0  0
 18 36  1  0  0  0  0
M  CHG  1   3   1
M  END
> <s_m_source_file>
AV-unprocessed.smi

> <i_m_source_file_index>
3252

> <i_lp_mmshare_version>
43012

> <i_f3d_flags>
0

> <s_epik_input>
W0NIM11bQ0gyXU4xW0NIMl1bQ0gyXU9bQ0BIXShbQ0gyXTEpW0NIMl1bTkhdYzJbY0hdW2NIXWMoQyNOKVtjSF1uMg==

> <s_epik_cmdline>
J2VwaWtfcHl0aG9uJywgJy1waCcsICc3LjAnLCAnLXRuJywgJzgnLCAnLW1hJywgJzIwMCcsICctbWV0YWxfYmluZGluZycsICctaW1hZScsICc8aW5maWxlLm1hZT4nLCAnLW9tYWUnLCAnPG91dGZpbGUubWFlPic=

> <r_epik_Ionization_Penalty>
0.178512

> <r_epik_Ionization_Penalty_Charging>
0.178504

> <r_epik_Ionization_Penalty_Neutral>
8.15545e-06

> <r_epik_State_Penalty>
0.167974

> <r_epik_Charging_Adjusted_Penalty>
0.346478

> <i_epik_Tot_Q>
1

> <i_epik_Tot_abs_Q>
1

> <r_epik_Metal_State_Penalty>
0.167974

> <b_epik_Metal_Only>
0

> <s_lp_Force_Field>
OPLS_2005

> <r_lp_Energy>
19.5584

> <b_lp_Chiralities_Consistent>
1

> <s_lp_Variant>
AV-unprocessed.smi:3252-3

> <Gold.Version>
5.8.1

> <Gold.Id.Protein>
6NUR|6NUR_protein|mol2

> <Gold.PLP.Fitness>
43.3347

> <Gold.PLP.PLP>
-33.2505

> <Gold.PLP.part.hbond>
-4.0000

> <Gold.PLP.part.metal>
0.0000

> <Gold.PLP.part.buried>
2.6724

> <Gold.PLP.part.nonpolar>
-31.0637

> <Gold.PLP.part.repulsive>
0.3663

> <Gold.PLP.ligand.clash>
0.0000

> <Gold.PLP.ligand.torsion>
0.3294

> <Gold.PLP.Chemscore.Hbond>
3.5702

> <Gold.PLP.Chemscore.CHOScore>
0.0000

> <Gold.PLP.Chemscore.Metal>
0.0000

> <Gold.Chemscore.Hbonds>
donor molecule, donor type, donor heavy atom, donor atom, acceptor molecule, acceptor atom, score
      L1  H     3    37       P1  7948  2.00
      L1  H     9    31       P1  8028  0.83
      P1  H  8011  8017       L1     6  0.07

> <Gold.PLP.Chemscore.Internal.Correction>
0.0324

> <Gold.Rescore>
     Score         DG    S(hbond)    S(metal)    S(lipo)     H(rot)  DE(clash)    DE(int)     intcor
     16.52     -19.63       2.40        0.00      84.51       1.47       2.80       0.30       ----

> <Gold.Chemscore.Fitness>
16.5228

> <Gold.Chemscore.DG>
-19.6278

> <Gold.Chemscore.ZeroCoef>
-5.4800

> <Gold.Chemscore.Hbond>
2.4008

> <Gold.Chemscore.Metal>
0.0000

> <Gold.Chemscore.Lipo>
84.5080

> <Gold.Chemscore.Internal_Hbond>
0.0000

> <Gold.Chemscore.DEClash>
2.8025

> <Gold.Chemscore.DEInternal>
0.3026

> <Gold.Chemscore.Rot>
1.4681

> <Gold.Chemscore.Internal.Correction>
   9.000000E+99

> <Gold.Chemscore.Hbonds>
donor molecule, donor type, donor heavy atom, donor atom, acceptor molecule, acceptor atom, score
      L1  H     3    37       P1  7948  0.93
      L1  H     9    31       P1  8028  0.80
      P1  H  8011  8017       L1     6  0.05

> <Gold.Chemscore.Hbond.Weighted>
-8.0188

> <Gold.Chemscore.Metal.Weighted>
-0.0000

> <Gold.Chemscore.Lipo.Weighted>
-9.8874

> <Gold.Chemscore.Internal_Hbond.Weighted>
0.0000

> <Gold.Chemscore.DEClash.Weighted>
2.8025

> <Gold.Chemscore.DEInternal.Weighted>
0.3026

> <Gold.Chemscore.Rot.Weighted>
3.7584

> <Gold.Chemscore.Internal.Correction.Weighted>
   9.000000E+99

> <Gold.Protein.RotatedTorsions>
[ 6907 6896 6895 6894 ] final   74.50 input  -60.11 | X-H torsion
[ 7974 7965 7964 7962 ] final   83.25 input  175.53 | X-H torsion
[ 8008 7997 7996 7995 ] final -124.54 input   59.86 | X-H torsion
[ 10167 10162 10161 10158 ] final  129.02 input  -65.29 | X-H torsion
[ 10718 10713 10712 10709 ] final  166.88 input   66.30 | X-H torsion
[ 10763 10752 10751 10750 ] final  -65.81 input  -60.55 | X-H torsion
[ 11005 11000 10999 10996 ] final -110.39 input  -57.11 | X-H torsion

> <Gold.Protein.ActiveResidues>
 VAL166  LYS551  ARG553  GLY616  TRP617  ASP618  TYR619  PRO620  LYS621  CYS622 
 ASP623  PHE694  ASN695  SER759  ASP760  ASP761  ALA762  ILE779  LEU786  VAL792 
 PHE793  MET794  SER795  GLU796  ALA797  LYS798  CYS799  TRP800  GLU811  SER814 

> <Gold.Protein.RotatedAtoms>
  152.4979  134.4262  159.9496 H   0  0  0  0  0  0  0  0  0  0  0  0  # atno 6907 bound_to 6896
  151.4237  133.3684  159.2767 H   0  0  0  0  0  0  0  0  0  0  0  0  # atno 6908 bound_to 6896
  150.9204  134.8644  159.7544 H   0  0  0  0  0  0  0  0  0  0  0  0  # atno 6909 bound_to 6896
  145.6143  139.2374  143.2174 H   0  0  0  0  0  0  0  0  0  0  0  0  # atno 7974 bound_to 7965
  155.1985  140.0415  157.2913 H   0  0  0  0  0  0  0  0  0  0  0  0  # atno 8008 bound_to 7997
  154.6090  140.2472  155.7664 H   0  0  0  0  0  0  0  0  0  0  0  0  # atno 8009 bound_to 7997
  156.2368  140.2918  156.0343 H   0  0  0  0  0  0  0  0  0  0  0  0  # atno 8010 bound_to 7997
  139.5498  144.6804  151.4359 H   0  0  0  0  0  0  0  0  0  0  0  0  # atno 10167 bound_to 10162
  157.0595  131.0336  151.2652 H   0  0  0  0  0  0  0  0  0  0  0  0  # atno 10718 bound_to 10713
  154.3505  135.6137  153.5640 H   0  0  0  0  0  0  0  0  0  0  0  0  # atno 10763 bound_to 10752
  152.9798  135.5791  154.4748 H   0  0  0  0  0  0  0  0  0  0  0  0  # atno 10764 bound_to 10752
  154.4469  135.2851  155.1786 H   0  0  0  0  0  0  0  0  0  0  0  0  # atno 10765 bound_to 10752
  141.0795  133.9245  157.2320 H   0  0  0  0  0  0  0  0  0  0  0  0  # atno 11005 bound_to 11000
  146.1480  140.6965  142.9335 LP  0  0  0  0  0  0  0  0  0  0  0  0  # atno 17320 bound_to 7965
  144.7257  140.4516  143.6975 LP  0  0  0  0  0  0  0  0  0  0  0  0  # atno 17321 bound_to 7965
  140.6757  143.8194  150.7056 LP  0  0  0  0  0  0  0  0  0  0  0  0  # atno 17342 bound_to 10162
  140.1632  143.4257  152.2052 LP  0  0  0  0  0  0  0  0  0  0  0  0  # atno 17343 bound_to 10162
  157.4966  130.7854  149.7561 LP  0  0  0  0  0  0  0  0  0  0  0  0  # atno 17370 bound_to 10713
  155.9983  130.3895  150.2708 LP  0  0  0  0  0  0  0  0  0  0  0  0  # atno 17371 bound_to 10713
  139.9608  135.0154  156.9255 LP  0  0  0  0  0  0  0  0  0  0  0  0  # atno 17394 bound_to 11000
  140.5501  134.0636  155.7366 LP  0  0  0  0  0  0  0  0  0  0  0  0  # atno 17395 bound_to 11000

$$$$
