AV-unprocessed.smi:2216|AV-procd|sdf|8966|dock10
  -GOLD-   2272012183D 1   1.00000     0.00000
 Structure written by MMmdl.
 40 41  0  0  0  0  0  0  0  0  2 V2000
  156.1005  142.7718  168.0223 C   0  0  0  0  0  0  0  0  0  0  0  0
  156.1736  141.8394  166.8248 C   0  0  0  0  0  0  0  0  0  0  0  0
  155.7511  142.2251  165.5946 C   0  0  0  0  0  0  0  0  0  0  0  0
  155.8172  141.3330  164.4371 C   0  0  0  0  0  0  0  0  0  0  0  0
  155.4122  141.6152  163.1259 N   0  0  0  0  0  0  0  0  0  0  0  0
  155.0701  140.7580  162.1477 C   0  0  0  0  0  0  0  0  0  0  0  0
  155.0478  139.5308  162.2366 O   0  0  0  0  0  0  0  0  0  0  0  0
  154.7472  141.4183  161.0265 N   0  0  0  0  0  0  0  0  0  0  0  0
  154.3324  140.7950  159.7749 C   0  0  0  0  0  0  0  0  0  0  0  0
  152.9022  141.2058  159.3840 C   0  0  0  0  0  0  0  0  0  0  0  0
  152.7544  142.7198  159.1648 C   0  0  2  0  0  0  0  0  0  0  0  0
  152.4048  143.4593  160.4713 C   0  0  0  0  0  0  0  0  0  0  0  0
  152.1879  144.9532  160.2050 C   0  0  0  0  0  0  0  0  0  0  0  0
  151.1572  145.1338  159.0853 C   0  0  0  0  0  0  0  0  0  0  0  0
  151.5590  144.3100  157.8516 C   0  0  0  0  0  0  0  0  0  0  0  0
  151.7154  142.9410  158.2124 O   0  0  0  0  0  0  0  0  0  0  0  0
  156.3452  140.0969  164.7509 C   0  0  0  0  0  0  0  0  0  0  0  0
  156.7860  139.6413  165.9434 N   0  5  0  0  0  0  0  0  0  0  0  0
  156.7192  140.4804  167.0166 C   0  0  0  0  0  0  0  0  0  0  0  0
  157.0999  140.1338  168.1341 O   0  0  0  0  0  0  0  0  0  0  0  0
  155.6770  143.7386  167.7490 H   0  0  0  0  0  0  0  0  0  0  0  0
  157.0961  142.9441  168.4325 H   0  0  0  0  0  0  0  0  0  0  0  0
  155.4755  142.3394  168.8042 H   0  0  0  0  0  0  0  0  0  0  0  0
  155.3572  143.2230  165.4939 H   0  0  0  0  0  0  0  0  0  0  0  0
  155.3775  142.5977  162.8966 H   0  0  0  0  0  0  0  0  0  0  0  0
  154.7934  142.4265  161.0400 H   0  0  0  0  0  0  0  0  0  0  0  0
  155.0352  141.0481  158.9792 H   0  0  0  0  0  0  0  0  0  0  0  0
  154.3888  139.7141  159.9049 H   0  0  0  0  0  0  0  0  0  0  0  0
  152.5980  140.6733  158.4818 H   0  0  0  0  0  0  0  0  0  0  0  0
  152.2138  140.8937  160.1707 H   0  0  0  0  0  0  0  0  0  0  0  0
  153.6938  143.1107  158.7695 H   0  0  0  0  0  0  0  0  0  0  0  0
  151.5001  143.0318  160.9058 H   0  0  0  0  0  0  0  0  0  0  0  0
  153.1985  143.3252  161.2072 H   0  0  0  0  0  0  0  0  0  0  0  0
  151.8569  145.4579  161.1129 H   0  0  0  0  0  0  0  0  0  0  0  0
  153.1320  145.4158  159.9146 H   0  0  0  0  0  0  0  0  0  0  0  0
  150.1760  144.8102  159.4349 H   0  0  0  0  0  0  0  0  0  0  0  0
  151.0649  146.1880  158.8231 H   0  0  0  0  0  0  0  0  0  0  0  0
  150.7891  144.3857  157.0834 H   0  0  0  0  0  0  0  0  0  0  0  0
  152.4833  144.6893  157.4133 H   0  0  0  0  0  0  0  0  0  0  0  0
  156.4245  139.3639  163.9190 H   0  0  0  0  0  0  0  0  0  0  0  0
  1  2  1  0  0  0  0
  1 21  1  0  0  0  0
  1 22  1  0  0  0  0
  1 23  1  0  0  0  0
  2 19  1  0  0  0  0
  2  3  2  0  0  0  0
  3  4  1  0  0  0  0
  3 24  1  0  0  0  0
  4  5  1  0  0  0  0
  4 17  2  0  0  0  0
  5  6  1  0  0  0  0
  5 25  1  0  0  0  0
  6  7  2  0  0  0  0
  6  8  1  0  0  0  0
  8  9  1  0  0  0  0
  8 26  1  0  0  0  0
  9 10  1  0  0  0  0
  9 27  1  0  0  0  0
  9 28  1  0  0  0  0
 10 11  1  0  0  0  0
 10 29  1  0  0  0  0
 10 30  1  0  0  0  0
 11 16  1  0  0  0  0
 11 12  1  0  0  0  0
 11 31  1  0  0  0  0
 12 13  1  0  0  0  0
 12 32  1  0  0  0  0
 12 33  1  0  0  0  0
 13 14  1  0  0  0  0
 13 34  1  0  0  0  0
 13 35  1  0  0  0  0
 14 15  1  0  0  0  0
 14 36  1  0  0  0  0
 14 37  1  0  0  0  0
 15 16  1  0  0  0  0
 15 38  1  0  0  0  0
 15 39  1  0  0  0  0
 17 18  1  0  0  0  0
 17 40  1  0  0  0  0
 18 19  1  0  0  0  0
 19 20  2  0  0  0  0
M  CHG  1  18  -1
M  END
> <s_m_source_file>
AV-unprocessed.smi

> <i_m_source_file_index>
2216

> <i_lp_mmshare_version>
43012

> <i_f3d_flags>
0

> <s_epik_input>
Tz1jMVtuSF1bY0hdYyhbY0hdYzFbQ0gzXSlbTkhdQyg9TylbTkhdW0NIMl1bQ0gyXVtDQEBIXTJbQ0gyXVtDSDJdW0NIMl1bQ0gyXU8y

> <s_epik_cmdline>
J2VwaWtfcHl0aG9uJywgJy1waCcsICc3LjAnLCAnLXRuJywgJzgnLCAnLW1hJywgJzIwMCcsICctbWV0YWxfYmluZGluZycsICctaW1hZScsICc8aW5maWxlLm1hZT4nLCAnLW9tYWUnLCAnPG91dGZpbGUubWFlPic=

> <r_lp_tautomer_probability>
1

> <r_epik_Ionization_Penalty>
7.55627

> <r_epik_Ionization_Penalty_Charging>
1.50531

> <r_epik_Ionization_Penalty_Neutral>
6.05097

> <r_epik_State_Penalty>
6.05091

> <r_epik_Charging_Adjusted_Penalty>
7.55622

> <i_epik_Tot_Q>
-1

> <i_epik_Tot_abs_Q>
1

> <r_epik_Metal_State_Penalty>
2.00009

> <b_epik_Metal_Only>
1

> <s_lp_Force_Field>
OPLS_2005

> <r_lp_Energy>
21.198

> <b_lp_Chiralities_Consistent>
1

> <s_lp_Variant>
AV-unprocessed.smi:2216-3

> <Gold.Version>
5.8.1

> <Gold.Id.Protein>
6NUR|6NUR_protein|mol2

> <Gold.PLP.Fitness>
44.5695

> <Gold.PLP.PLP>
-45.4940

> <Gold.PLP.part.hbond>
-3.0000

> <Gold.PLP.part.metal>
0.0000

> <Gold.PLP.part.buried>
-5.0861

> <Gold.PLP.part.nonpolar>
-36.3469

> <Gold.PLP.part.repulsive>
0.1865

> <Gold.PLP.ligand.clash>
0.0000

> <Gold.PLP.ligand.torsion>
0.4641

> <Gold.PLP.Chemscore.Hbond>
0.0000

> <Gold.PLP.Chemscore.CHOScore>
0.0000

> <Gold.PLP.Chemscore.Metal>
0.0000

> <Gold.PLP.Chemscore.Internal.Correction>
0.0038

> <Gold.Rescore>
     Score         DG    S(hbond)    S(metal)    S(lipo)     H(rot)  DE(clash)    DE(int)     intcor
     11.37     -14.60       0.00        0.00     110.11       1.47       1.51       1.71       ----

> <Gold.Chemscore.Fitness>
11.3742

> <Gold.Chemscore.DG>
-14.5970

> <Gold.Chemscore.ZeroCoef>
-5.4800

> <Gold.Chemscore.Hbond>
0.0000

> <Gold.Chemscore.Metal>
0.0000

> <Gold.Chemscore.Lipo>
110.1060

> <Gold.Chemscore.Internal_Hbond>
0.0000

> <Gold.Chemscore.DEClash>
1.5147

> <Gold.Chemscore.DEInternal>
1.7080

> <Gold.Chemscore.Rot>
1.4709

> <Gold.Chemscore.Internal.Correction>
   9.000000E+99

> <Gold.Chemscore.Hbond.Weighted>
-0.0000

> <Gold.Chemscore.Metal.Weighted>
-0.0000

> <Gold.Chemscore.Lipo.Weighted>
-12.8824

> <Gold.Chemscore.Internal_Hbond.Weighted>
0.0000

> <Gold.Chemscore.DEClash.Weighted>
1.5147

> <Gold.Chemscore.DEInternal.Weighted>
1.7080

> <Gold.Chemscore.Rot.Weighted>
3.7654

> <Gold.Chemscore.Internal.Correction.Weighted>
   9.000000E+99

> <Gold.Protein.RotatedTorsions>
[ 6907 6896 6895 6894 ] final  173.46 input  -60.11 | X-H torsion
[ 7974 7965 7964 7962 ] final -116.01 input  175.53 | X-H torsion
[ 8008 7997 7996 7995 ] final  -82.20 input   59.86 | X-H torsion
[ 10167 10162 10161 10158 ] final   40.21 input  -65.29 | X-H torsion
[ 10718 10713 10712 10709 ] final -167.87 input   66.30 | X-H torsion
[ 10763 10752 10751 10750 ] final  -70.53 input  -60.55 | X-H torsion
[ 11005 11000 10999 10996 ] final   20.43 input  -57.11 | X-H torsion

> <Gold.Protein.ActiveResidues>
 VAL166  LYS551  ARG553  GLY616  TRP617  ASP618  TYR619  PRO620  LYS621  CYS622 
 ASP623  PHE694  ASN695  SER759  ASP760  ASP761  ALA762  ILE779  LEU786  VAL792 
 PHE793  MET794  SER795  GLU796  ALA797  LYS798  CYS799  TRP800  GLU811  SER814 

> <Gold.Protein.RotatedAtoms>
  151.7680  133.3339  159.3436 H   0  0  0  0  0  0  0  0  0  0  0  0  # atno 6907 bound_to 6896
  150.7472  134.6045  159.6063 H   0  0  0  0  0  0  0  0  0  0  0  0  # atno 6908 bound_to 6896
  152.3361  134.7198  160.0328 H   0  0  0  0  0  0  0  0  0  0  0  0  # atno 6909 bound_to 6896
  145.1017  140.8556  143.3922 H   0  0  0  0  0  0  0  0  0  0  0  0  # atno 7974 bound_to 7965
  154.6061  140.0636  156.9433 H   0  0  0  0  0  0  0  0  0  0  0  0  # atno 8008 bound_to 7997
  155.2050  140.3318  155.4319 H   0  0  0  0  0  0  0  0  0  0  0  0  # atno 8009 bound_to 7997
  156.2348  140.1858  156.7130 H   0  0  0  0  0  0  0  0  0  0  0  0  # atno 8010 bound_to 7997
  140.3764  144.2037  150.6131 H   0  0  0  0  0  0  0  0  0  0  0  0  # atno 10167 bound_to 10162
  156.6887  130.9150  151.3066 H   0  0  0  0  0  0  0  0  0  0  0  0  # atno 10718 bound_to 10713
  154.4190  135.5991  153.5998 H   0  0  0  0  0  0  0  0  0  0  0  0  # atno 10763 bound_to 10752
  152.9793  135.5947  154.3978 H   0  0  0  0  0  0  0  0  0  0  0  0  # atno 10764 bound_to 10752
  154.3801  135.2841  155.2194 H   0  0  0  0  0  0  0  0  0  0  0  0  # atno 10765 bound_to 10752
  140.4027  134.1701  155.7664 H   0  0  0  0  0  0  0  0  0  0  0  0  # atno 11005 bound_to 11000
  145.0947  139.2865  143.5717 LP  0  0  0  0  0  0  0  0  0  0  0  0  # atno 17320 bound_to 7965
  146.3529  140.0496  142.8637 LP  0  0  0  0  0  0  0  0  0  0  0  0  # atno 17321 bound_to 7965
  140.4981  143.2326  151.8719 LP  0  0  0  0  0  0  0  0  0  0  0  0  # atno 17342 bound_to 10162
  139.4799  144.5090  151.8958 LP  0  0  0  0  0  0  0  0  0  0  0  0  # atno 17343 bound_to 10162
  157.7017  130.9340  150.0805 LP  0  0  0  0  0  0  0  0  0  0  0  0  # atno 17370 bound_to 10713
  156.1814  130.3650  149.9031 LP  0  0  0  0  0  0  0  0  0  0  0  0  # atno 17371 bound_to 10713
  141.1850  133.8331  157.1118 LP  0  0  0  0  0  0  0  0  0  0  0  0  # atno 17394 bound_to 11000
  140.0324  134.9894  157.0806 LP  0  0  0  0  0  0  0  0  0  0  0  0  # atno 17395 bound_to 11000

$$$$
