AV-unprocessed.smi:2608|AV-procd|sdf|10204|dock4
  -GOLD-   2272014213D 1   1.00000     0.00000
 Structure written by MMmdl.
 40 41  0  0  0  0  0  0  0  0  1 V2000
  152.5027  143.3137  160.1608 C   0  0  0  0  0  0  0  0  0  0  0  0
  151.9736  144.2647  159.0766 C   0  0  0  0  0  0  0  0  0  0  0  0
  151.9296  145.7092  159.6075 C   0  0  0  0  0  0  0  0  0  0  0  0
  150.6110  143.7693  158.5393 C   0  0  0  0  0  0  0  0  0  0  0  0
  150.6698  142.3801  157.8958 C   0  0  0  0  0  0  0  0  0  0  0  0
  151.1106  141.4280  158.5389 O   0  0  0  0  0  0  0  0  0  0  0  0
  150.2224  142.3077  156.6294 N   0  0  0  0  0  0  0  0  0  0  0  0
  150.1333  141.1675  155.7815 C   0  0  0  0  0  0  0  0  0  0  0  0
  151.0826  140.1170  155.7998 C   0  0  0  0  0  0  0  0  0  0  0  0
  150.9284  139.0387  154.9093 C   0  0  0  0  0  0  0  0  0  0  0  0
  149.8358  139.0527  154.0238 C   0  0  0  0  0  0  0  0  0  0  0  0
  148.9319  140.0527  153.9822 N   0  0  0  0  0  0  0  0  0  0  0  0
  149.0765  141.0927  154.8386 C   0  0  0  0  0  0  0  0  0  0  0  0
  148.1199  142.1198  154.7728 N   0  0  0  0  0  0  0  0  0  0  0  0
  147.5053  142.2722  153.4604 C   0  0  0  0  0  0  0  0  0  0  0  0
  146.5923  143.5102  153.4521 C   0  0  0  0  0  0  0  0  0  0  0  0
  145.6270  143.3982  154.4942 O   0  0  0  0  0  0  0  0  0  0  0  0
  146.2338  143.3205  155.7815 C   0  0  0  0  0  0  0  0  0  0  0  0
  147.1404  142.0796  155.8512 C   0  0  0  0  0  0  0  0  0  0  0  0
  151.8363  143.2870  161.0235 H   0  0  0  0  0  0  0  0  0  0  0  0
  153.4881  143.6236  160.5101 H   0  0  0  0  0  0  0  0  0  0  0  0
  152.5964  142.2959  159.7811 H   0  0  0  0  0  0  0  0  0  0  0  0
  152.6899  144.2390  158.2538 H   0  0  0  0  0  0  0  0  0  0  0  0
  151.1862  145.8177  160.3977 H   0  0  0  0  0  0  0  0  0  0  0  0
  151.6878  146.4233  158.8208 H   0  0  0  0  0  0  0  0  0  0  0  0
  152.8952  146.0049  160.0184 H   0  0  0  0  0  0  0  0  0  0  0  0
  149.8824  143.7451  159.3514 H   0  0  0  0  0  0  0  0  0  0  0  0
  150.2181  144.4771  157.8082 H   0  0  0  0  0  0  0  0  0  0  0  0
  149.8112  143.1523  156.2586 H   0  0  0  0  0  0  0  0  0  0  0  0
  151.9311  140.1257  156.4663 H   0  0  0  0  0  0  0  0  0  0  0  0
  151.6351  138.2225  154.9021 H   0  0  0  0  0  0  0  0  0  0  0  0
  149.6871  138.2430  153.3249 H   0  0  0  0  0  0  0  0  0  0  0  0
  148.2792  142.3707  152.6983 H   0  0  0  0  0  0  0  0  0  0  0  0
  146.9233  141.3817  153.2189 H   0  0  0  0  0  0  0  0  0  0  0  0
  147.1751  144.4243  153.5789 H   0  0  0  0  0  0  0  0  0  0  0  0
  146.0760  143.5912  152.4954 H   0  0  0  0  0  0  0  0  0  0  0  0
  146.8027  144.2297  155.9820 H   0  0  0  0  0  0  0  0  0  0  0  0
  145.4531  143.2593  156.5398 H   0  0  0  0  0  0  0  0  0  0  0  0
  146.5361  141.1751  155.7677 H   0  0  0  0  0  0  0  0  0  0  0  0
  147.6510  142.0406  156.8144 H   0  0  0  0  0  0  0  0  0  0  0  0
  1  2  1  0  0  0  0
  1 20  1  0  0  0  0
  1 21  1  0  0  0  0
  1 22  1  0  0  0  0
  2  3  1  0  0  0  0
  2  4  1  0  0  0  0
  2 23  1  0  0  0  0
  3 24  1  0  0  0  0
  3 25  1  0  0  0  0
  3 26  1  0  0  0  0
  4  5  1  0  0  0  0
  4 27  1  0  0  0  0
  4 28  1  0  0  0  0
  5  6  2  0  0  0  0
  5  7  1  0  0  0  0
  7  8  1  0  0  0  0
  7 29  1  0  0  0  0
  8 13  1  0  0  0  0
  8  9  2  0  0  0  0
  9 10  1  0  0  0  0
  9 30  1  0  0  0  0
 10 11  2  0  0  0  0
 10 31  1  0  0  0  0
 11 12  1  0  0  0  0
 11 32  1  0  0  0  0
 12 13  2  0  0  0  0
 13 14  1  0  0  0  0
 14 19  1  0  0  0  0
 14 15  1  0  0  0  0
 15 16  1  0  0  0  0
 15 33  1  0  0  0  0
 15 34  1  0  0  0  0
 16 17  1  0  0  0  0
 16 35  1  0  0  0  0
 16 36  1  0  0  0  0
 17 18  1  0  0  0  0
 18 19  1  0  0  0  0
 18 37  1  0  0  0  0
 18 38  1  0  0  0  0
 19 39  1  0  0  0  0
 19 40  1  0  0  0  0
M  END
> <s_m_source_file>
AV-unprocessed.smi

> <i_m_source_file_index>
2608

> <i_lp_mmshare_version>
43012

> <i_f3d_flags>
0

> <s_epik_input>
W0NIM11bQ0hdKFtDSDNdKVtDSDJdQyg9TylbTkhdYzFbY0hdW2NIXVtjSF1uYzFOMltDSDJdW0NIMl1PW0NIMl1bQ0gyXTI=

> <s_epik_cmdline>
J2VwaWtfcHl0aG9uJywgJy1waCcsICc3LjAnLCAnLXRuJywgJzgnLCAnLW1hJywgJzIwMCcsICctbWV0YWxfYmluZGluZycsICctaW1hZScsICc8aW5maWxlLm1hZT4nLCAnLW9tYWUnLCAnPG91dGZpbGUubWFlPic=

> <r_lp_tautomer_probability>
1

> <r_epik_Ionization_Penalty>
0.0006373

> <r_epik_Ionization_Penalty_Charging>
0

> <r_epik_Ionization_Penalty_Neutral>
0.0006373

> <r_epik_State_Penalty>
0.000394234

> <r_epik_Charging_Adjusted_Penalty>
0.000394234

> <i_epik_Tot_Q>
0

> <i_epik_Tot_abs_Q>
0

> <r_epik_Metal_State_Penalty>
-0

> <b_epik_Metal_Only>
0

> <s_lp_Force_Field>
OPLS_2005

> <r_lp_Energy>
24.3939

> <b_lp_Chiralities_Consistent>
1

> <s_lp_Variant>
AV-unprocessed.smi:2608-1

> <Gold.Version>
5.8.1

> <Gold.Id.Protein>
6NUR|6NUR_protein|mol2

> <Gold.PLP.Fitness>
45.2065

> <Gold.PLP.PLP>
-40.1369

> <Gold.PLP.part.hbond>
-1.0000

> <Gold.PLP.part.metal>
0.0000

> <Gold.PLP.part.buried>
-3.7293

> <Gold.PLP.part.nonpolar>
-36.7460

> <Gold.PLP.part.repulsive>
1.2592

> <Gold.PLP.ligand.clash>
0.0000

> <Gold.PLP.ligand.torsion>
0.8412

> <Gold.PLP.Chemscore.Hbond>
1.0000

> <Gold.PLP.Chemscore.CHOScore>
1.2053

> <Gold.PLP.Chemscore.Metal>
0.0000

> <Gold.Chemscore.Hbonds>
donor molecule, donor type, donor heavy atom, donor atom, acceptor molecule, acceptor atom, score
      L1  H     7    29       P1  8028  1.00
      L1  C    11    32       P1  7948  0.94
      L1  C    11    32       P1  7957  0.08

> <Gold.PLP.Chemscore.Internal.Correction>
0.1363

> <Gold.Rescore>
     Score         DG    S(hbond)    S(metal)    S(lipo)     H(rot)  DE(clash)    DE(int)     intcor
     13.59     -15.76       0.98        0.00      88.71       1.31       0.16       2.02       ----

> <Gold.Chemscore.Fitness>
13.5855

> <Gold.Chemscore.DG>
-15.7566

> <Gold.Chemscore.ZeroCoef>
-5.4800

> <Gold.Chemscore.Hbond>
0.9752

> <Gold.Chemscore.Metal>
0.0000

> <Gold.Chemscore.Lipo>
88.7074

> <Gold.Chemscore.Internal_Hbond>
0.0000

> <Gold.Chemscore.DEClash>
0.1561

> <Gold.Chemscore.DEInternal>
2.0151

> <Gold.Chemscore.Rot>
1.3122

> <Gold.Chemscore.Internal.Correction>
   9.000000E+99

> <Gold.Chemscore.Hbonds>
donor molecule, donor type, donor heavy atom, donor atom, acceptor molecule, acceptor atom, score
      L1  H     7    29       P1  8028  1.00

> <Gold.Chemscore.Hbond.Weighted>
-3.2571

> <Gold.Chemscore.Metal.Weighted>
-0.0000

> <Gold.Chemscore.Lipo.Weighted>
-10.3788

> <Gold.Chemscore.Internal_Hbond.Weighted>
0.0000

> <Gold.Chemscore.DEClash.Weighted>
0.1561

> <Gold.Chemscore.DEInternal.Weighted>
2.0151

> <Gold.Chemscore.Rot.Weighted>
3.3592

> <Gold.Chemscore.Internal.Correction.Weighted>
   9.000000E+99

> <Gold.Protein.RotatedTorsions>
[ 6907 6896 6895 6894 ] final   26.94 input  -60.11 | X-H torsion
[ 7974 7965 7964 7962 ] final   81.68 input  175.53 | X-H torsion
[ 8008 7997 7996 7995 ] final   65.79 input   59.86 | X-H torsion
[ 10167 10162 10161 10158 ] final   73.36 input  -65.29 | X-H torsion
[ 10718 10713 10712 10709 ] final   -9.96 input   66.30 | X-H torsion
[ 10763 10752 10751 10750 ] final -127.27 input  -60.55 | X-H torsion
[ 11005 11000 10999 10996 ] final  174.80 input  -57.11 | X-H torsion

> <Gold.Protein.ActiveResidues>
 VAL166  LYS551  ARG553  GLY616  TRP617  ASP618  TYR619  PRO620  LYS621  CYS622 
 ASP623  PHE694  ASN695  SER759  ASP760  ASP761  ALA762  ILE779  LEU786  VAL792 
 PHE793  MET794  SER795  GLU796  ALA797  LYS798  CYS799  TRP800  GLU811  SER814 

> <Gold.Protein.RotatedAtoms>
  151.9949  134.9959  160.0562 H   0  0  0  0  0  0  0  0  0  0  0  0  # atno 6907 bound_to 6896
  152.1573  133.4555  159.4852 H   0  0  0  0  0  0  0  0  0  0  0  0  # atno 6908 bound_to 6896
  150.6883  134.2033  159.4373 H   0  0  0  0  0  0  0  0  0  0  0  0  # atno 6909 bound_to 6896
  145.6349  139.2413  143.2063 H   0  0  0  0  0  0  0  0  0  0  0  0  # atno 7974 bound_to 7965
  155.6672  140.3497  155.4804 H   0  0  0  0  0  0  0  0  0  0  0  0  # atno 8008 bound_to 7997
  155.9719  140.1157  157.0827 H   0  0  0  0  0  0  0  0  0  0  0  0  # atno 8009 bound_to 7997
  154.4168  140.1155  156.5304 H   0  0  0  0  0  0  0  0  0  0  0  0  # atno 8010 bound_to 7997
  140.0253  144.5508  150.7549 H   0  0  0  0  0  0  0  0  0  0  0  0  # atno 10167 bound_to 10162
  156.6805  130.5035  149.5973 H   0  0  0  0  0  0  0  0  0  0  0  0  # atno 10718 bound_to 10713
  154.8751  135.3967  154.3566 H   0  0  0  0  0  0  0  0  0  0  0  0  # atno 10763 bound_to 10752
  153.4344  135.7025  153.6214 H   0  0  0  0  0  0  0  0  0  0  0  0  # atno 10764 bound_to 10752
  153.4822  135.3766  155.2417 H   0  0  0  0  0  0  0  0  0  0  0  0  # atno 10765 bound_to 10752
  140.3552  134.7160  157.4295 H   0  0  0  0  0  0  0  0  0  0  0  0  # atno 11005 bound_to 11000
  146.1327  140.7164  142.9404 LP  0  0  0  0  0  0  0  0  0  0  0  0  # atno 17320 bound_to 7965
  144.7179  140.4274  143.7030 LP  0  0  0  0  0  0  0  0  0  0  0  0  # atno 17321 bound_to 7965
  140.7325  143.2706  151.3900 LP  0  0  0  0  0  0  0  0  0  0  0  0  # atno 17342 bound_to 10162
  139.6112  144.1095  152.2300 LP  0  0  0  0  0  0  0  0  0  0  0  0  # atno 17343 bound_to 10162
  156.1871  130.6536  151.1019 LP  0  0  0  0  0  0  0  0  0  0  0  0  # atno 17370 bound_to 10713
  157.7045  131.0762  150.6711 LP  0  0  0  0  0  0  0  0  0  0  0  0  # atno 17371 bound_to 10713
  140.0671  134.5915  155.8683 LP  0  0  0  0  0  0  0  0  0  0  0  0  # atno 17394 bound_to 11000
  141.2000  133.6610  156.5875 LP  0  0  0  0  0  0  0  0  0  0  0  0  # atno 17395 bound_to 11000

$$$$
