AV-unprocessed.smi:1754|AV-procd|sdf|7065|dock8
  -GOLD-   22720 8283D 1   1.00000     0.00000
 Structure written by MMmdl.
 45 46  0  0  0  0  0  0  0  0  2 V2000
  152.6537  142.4734  160.1883 C   0  0  0  0  0  0  0  0  0  0  0  0
  152.9517  142.6340  158.6916 C   0  0  0  0  0  0  0  0  0  0  0  0
  151.7540  142.9683  157.9222 N   0  0  0  0  0  0  0  0  0  0  0  0
  151.1503  144.2879  158.0894 C   0  0  0  0  0  0  0  0  0  0  0  0
  151.9413  145.1667  159.0674 C   0  0  0  0  0  0  0  0  0  0  0  0
  151.2182  142.0470  156.9923 C   0  0  0  0  0  0  0  0  0  0  0  0
  151.8766  140.8510  156.6129 C   0  0  0  0  0  0  0  0  0  0  0  0
  151.2777  139.9794  155.6802 C   0  0  0  0  0  0  0  0  0  0  0  0
  150.0122  140.3028  155.1337 C   0  0  0  0  0  0  0  0  0  0  0  0
  149.3319  139.5055  154.1747 N   0  0  0  0  0  0  0  0  0  0  0  0
  148.0061  139.3045  154.0381 C   0  0  0  0  0  0  0  0  0  0  0  0
  147.1437  139.8529  154.7206 O   0  0  0  0  0  0  0  0  0  0  0  0
  147.6730  138.4608  153.0448 N   0  0  0  0  0  0  0  0  0  0  0  0
  146.3373  138.0290  152.6300 C   0  0  1  0  0  0  0  0  0  0  0  0
  146.4201  137.0269  151.4633 C   0  0  0  0  0  0  0  0  0  0  0  0
  145.0570  136.3417  151.3025 C   0  0  0  0  0  0  0  0  0  0  0  0
  144.3074  136.2977  152.9751 S   0  0  0  0  0  0  0  0  0  0  0  0
  143.0283  137.0229  152.9418 O   0  0  0  0  0  0  0  0  0  0  0  0
  144.3925  134.9348  153.5213 O   0  0  0  0  0  0  0  0  0  0  0  0
  145.5762  137.3469  153.7783 C   0  0  0  0  0  0  0  0  0  0  0  0
  149.4059  141.5111  155.5302 C   0  0  0  0  0  0  0  0  0  0  0  0
  150.0161  142.3162  156.4261 N   0  3  0  0  0  0  0  0  0  0  0  0
  153.5581  142.2061  160.7351 H   0  0  0  0  0  0  0  0  0  0  0  0
  151.9174  141.6889  160.3642 H   0  0  0  0  0  0  0  0  0  0  0  0
  152.2676  143.3978  160.6186 H   0  0  0  0  0  0  0  0  0  0  0  0
  153.7329  143.3783  158.5359 H   0  0  0  0  0  0  0  0  0  0  0  0
  153.3595  141.6984  158.3074 H   0  0  0  0  0  0  0  0  0  0  0  0
  151.1206  144.7805  157.1169 H   0  0  0  0  0  0  0  0  0  0  0  0
  150.1094  144.2025  158.4009 H   0  0  0  0  0  0  0  0  0  0  0  0
  151.4774  146.1483  159.1651 H   0  0  0  0  0  0  0  0  0  0  0  0
  152.9654  145.3172  158.7248 H   0  0  0  0  0  0  0  0  0  0  0  0
  151.9837  144.7205  160.0611 H   0  0  0  0  0  0  0  0  0  0  0  0
  152.8445  140.5877  157.0115 H   0  0  0  0  0  0  0  0  0  0  0  0
  151.8112  139.0871  155.3921 H   0  0  0  0  0  0  0  0  0  0  0  0
  149.9185  139.0679  153.4792 H   0  0  0  0  0  0  0  0  0  0  0  0
  148.4370  138.1071  152.4867 H   0  0  0  0  0  0  0  0  0  0  0  0
  145.7568  138.8852  152.2807 H   0  0  0  0  0  0  0  0  0  0  0  0
  146.7370  137.5070  150.5368 H   0  0  0  0  0  0  0  0  0  0  0  0
  147.1657  136.2651  151.6969 H   0  0  0  0  0  0  0  0  0  0  0  0
  144.4026  136.9277  150.6566 H   0  0  0  0  0  0  0  0  0  0  0  0
  145.1337  135.3329  150.8964 H   0  0  0  0  0  0  0  0  0  0  0  0
  146.2330  136.6922  154.3527 H   0  0  0  0  0  0  0  0  0  0  0  0
  145.1011  138.0503  154.4621 H   0  0  0  0  0  0  0  0  0  0  0  0
  148.4499  141.8571  155.1645 H   0  0  0  0  0  0  0  0  0  0  0  0
  149.5424  143.1790  156.6946 H   0  0  0  0  0  0  0  0  0  0  0  0
  1  2  1  0  0  0  0
  1 23  1  0  0  0  0
  1 24  1  0  0  0  0
  1 25  1  0  0  0  0
  2  3  1  0  0  0  0
  2 26  1  0  0  0  0
  2 27  1  0  0  0  0
  3  4  1  0  0  0  0
  3  6  1  0  0  0  0
  4  5  1  0  0  0  0
  4 28  1  0  0  0  0
  4 29  1  0  0  0  0
  5 30  1  0  0  0  0
  5 31  1  0  0  0  0
  5 32  1  0  0  0  0
  6 22  1  0  0  0  0
  6  7  2  0  0  0  0
  7  8  1  0  0  0  0
  7 33  1  0  0  0  0
  8  9  2  0  0  0  0
  8 34  1  0  0  0  0
  9 10  1  0  0  0  0
  9 21  1  0  0  0  0
 10 11  1  0  0  0  0
 10 35  1  0  0  0  0
 11 12  2  0  0  0  0
 11 13  1  0  0  0  0
 13 14  1  0  0  0  0
 13 36  1  0  0  0  0
 14 20  1  0  0  0  0
 14 15  1  0  0  0  0
 14 37  1  0  0  0  0
 15 16  1  0  0  0  0
 15 38  1  0  0  0  0
 15 39  1  0  0  0  0
 16 17  1  0  0  0  0
 16 40  1  0  0  0  0
 16 41  1  0  0  0  0
 17 18  2  0  0  0  0
 17 19  2  0  0  0  0
 17 20  1  0  0  0  0
 20 42  1  0  0  0  0
 20 43  1  0  0  0  0
 21 22  2  0  0  0  0
 21 44  1  0  0  0  0
 22 45  1  0  0  0  0
M  CHG  1  22   1
M  END
> <s_m_source_file>
AV-unprocessed.smi

> <i_m_source_file_index>
1754

> <i_lp_mmshare_version>
43012

> <i_f3d_flags>
0

> <s_epik_input>
W0NIM11bQ0gyXU4oW0NIMl1bQ0gzXSljMVtjSF1bY0hdYyhbY0hdbjEpW05IXUMoPU8pW05IXVtDQEBIXShbQ0gyXTIpW0NIMl1bQ0gyXVMyKD1PKT1P

> <s_epik_cmdline>
J2VwaWtfcHl0aG9uJywgJy1waCcsICc3LjAnLCAnLXRuJywgJzgnLCAnLW1hJywgJzIwMCcsICctbWV0YWxfYmluZGluZycsICctaW1hZScsICc8aW5maWxlLm1hZT4nLCAnLW9tYWUnLCAnPG91dGZpbGUubWFlPic=

> <r_lp_tautomer_probability>
0.999994

> <r_epik_Ionization_Penalty>
0.271106

> <r_epik_Ionization_Penalty_Charging>
0.271085

> <r_epik_Ionization_Penalty_Neutral>
2.10634e-05

> <r_epik_State_Penalty>
0.017795

> <r_epik_Charging_Adjusted_Penalty>
0.28888

> <i_epik_Tot_Q>
1

> <i_epik_Tot_abs_Q>
1

> <r_epik_Metal_State_Penalty>
0.0544868

> <b_epik_Metal_Only>
0

> <s_lp_Force_Field>
OPLS_2005

> <r_lp_Energy>
29.9971

> <b_lp_Chiralities_Consistent>
1

> <s_lp_Variant>
AV-unprocessed.smi:1754-2

> <Gold.Version>
5.8.1

> <Gold.Id.Protein>
6NUR|6NUR_protein|mol2

> <Gold.PLP.Fitness>
45.0253

> <Gold.PLP.PLP>
-37.1124

> <Gold.PLP.part.hbond>
-2.6263

> <Gold.PLP.part.metal>
0.0000

> <Gold.PLP.part.buried>
-0.6435

> <Gold.PLP.part.nonpolar>
-36.0451

> <Gold.PLP.part.repulsive>
1.3243

> <Gold.PLP.ligand.clash>
0.0000

> <Gold.PLP.ligand.torsion>
0.3797

> <Gold.PLP.Chemscore.Hbond>
2.8800

> <Gold.PLP.Chemscore.CHOScore>
0.0000

> <Gold.PLP.Chemscore.Metal>
0.0000

> <Gold.Chemscore.Hbonds>
donor molecule, donor type, donor heavy atom, donor atom, acceptor molecule, acceptor atom, score
      L1  H    13    36       P1  7948  0.69
      L1  H    22    45       P1  8028  1.34

> <Gold.PLP.Chemscore.Internal.Correction>
0.0324

> <Gold.Rescore>
     Score         DG    S(hbond)    S(metal)    S(lipo)     H(rot)  DE(clash)    DE(int)     intcor
     16.02     -19.20       1.93        0.00      92.91       1.41       1.50       1.68       ----

> <Gold.Chemscore.Fitness>
16.0171

> <Gold.Chemscore.DG>
-19.1966

> <Gold.Chemscore.ZeroCoef>
-5.4800

> <Gold.Chemscore.Hbond>
1.9306

> <Gold.Chemscore.Metal>
0.0000

> <Gold.Chemscore.Lipo>
92.9102

> <Gold.Chemscore.Internal_Hbond>
0.0000

> <Gold.Chemscore.DEClash>
1.5005

> <Gold.Chemscore.DEInternal>
1.6791

> <Gold.Chemscore.Rot>
1.4070

> <Gold.Chemscore.Internal.Correction>
   9.000000E+99

> <Gold.Chemscore.Hbonds>
donor molecule, donor type, donor heavy atom, donor atom, acceptor molecule, acceptor atom, score
      L1  H    13    36       P1  7948  0.64
      L1  H    22    45       P1  8028  0.65

> <Gold.Chemscore.Hbond.Weighted>
-6.4481

> <Gold.Chemscore.Metal.Weighted>
-0.0000

> <Gold.Chemscore.Lipo.Weighted>
-10.8705

> <Gold.Chemscore.Internal_Hbond.Weighted>
0.0000

> <Gold.Chemscore.DEClash.Weighted>
1.5005

> <Gold.Chemscore.DEInternal.Weighted>
1.6791

> <Gold.Chemscore.Rot.Weighted>
3.6020

> <Gold.Chemscore.Internal.Correction.Weighted>
   9.000000E+99

> <Gold.Protein.RotatedTorsions>
[ 6907 6896 6895 6894 ] final -170.09 input  -60.11 | X-H torsion
[ 7974 7965 7964 7962 ] final   23.61 input  175.53 | X-H torsion
[ 8008 7997 7996 7995 ] final -135.44 input   59.86 | X-H torsion
[ 10167 10162 10161 10158 ] final  171.04 input  -65.29 | X-H torsion
[ 10718 10713 10712 10709 ] final -112.01 input   66.30 | X-H torsion
[ 10763 10752 10751 10750 ] final  -99.04 input  -60.55 | X-H torsion
[ 11005 11000 10999 10996 ] final  116.49 input  -57.11 | X-H torsion

> <Gold.Protein.ActiveResidues>
 VAL166  LYS551  ARG553  GLY616  TRP617  ASP618  TYR619  PRO620  LYS621  CYS622 
 ASP623  PHE694  ASN695  SER759  ASP760  ASP761  ALA762  ILE779  LEU786  VAL792 
 PHE793  MET794  SER795  GLU796  ALA797  LYS798  CYS799  TRP800  GLU811  SER814 

> <Gold.Protein.RotatedAtoms>
  151.5021  133.3502  159.2870 H   0  0  0  0  0  0  0  0  0  0  0  0  # atno 6907 bound_to 6896
  150.8766  134.8152  159.7205 H   0  0  0  0  0  0  0  0  0  0  0  0  # atno 6908 bound_to 6896
  152.4735  134.4913  159.9748 H   0  0  0  0  0  0  0  0  0  0  0  0  # atno 6909 bound_to 6896
  146.1976  139.7720  142.8785 H   0  0  0  0  0  0  0  0  0  0  0  0  # atno 7974 bound_to 7965
  155.3787  140.0492  157.3044 H   0  0  0  0  0  0  0  0  0  0  0  0  # atno 8008 bound_to 7997
  154.5093  140.2186  155.9150 H   0  0  0  0  0  0  0  0  0  0  0  0  # atno 8009 bound_to 7997
  156.1564  140.3125  155.8738 H   0  0  0  0  0  0  0  0  0  0  0  0  # atno 8010 bound_to 7997
  139.5035  144.3529  151.9904 H   0  0  0  0  0  0  0  0  0  0  0  0  # atno 10167 bound_to 10162
  156.0680  130.5897  150.8450 H   0  0  0  0  0  0  0  0  0  0  0  0  # atno 10718 bound_to 10713
  154.7465  135.4987  153.9213 H   0  0  0  0  0  0  0  0  0  0  0  0  # atno 10763 bound_to 10752
  153.1097  135.6706  153.9530 H   0  0  0  0  0  0  0  0  0  0  0  0  # atno 10764 bound_to 10752
  153.9293  135.3079  155.3425 H   0  0  0  0  0  0  0  0  0  0  0  0  # atno 10765 bound_to 10752
  139.9043  134.9598  156.7207 H   0  0  0  0  0  0  0  0  0  0  0  0  # atno 11005 bound_to 11000
  145.3591  141.0322  143.3295 LP  0  0  0  0  0  0  0  0  0  0  0  0  # atno 17320 bound_to 7965
  144.8614  139.5172  143.6810 LP  0  0  0  0  0  0  0  0  0  0  0  0  # atno 17321 bound_to 7965
  140.2966  144.3694  150.6072 LP  0  0  0  0  0  0  0  0  0  0  0  0  # atno 17342 bound_to 10162
  140.5906  143.2168  151.7260 LP  0  0  0  0  0  0  0  0  0  0  0  0  # atno 17343 bound_to 10162
  157.5734  131.0946  150.9383 LP  0  0  0  0  0  0  0  0  0  0  0  0  # atno 17370 bound_to 10713
  156.9594  130.5449  149.5285 LP  0  0  0  0  0  0  0  0  0  0  0  0  # atno 17371 bound_to 10713
  140.7003  133.9312  155.8020 LP  0  0  0  0  0  0  0  0  0  0  0  0  # atno 17394 bound_to 11000
  141.0376  134.0667  157.3940 LP  0  0  0  0  0  0  0  0  0  0  0  0  # atno 17395 bound_to 11000

$$$$
