AV-unprocessed.smi:210|AV-procd|sdf|1611|dock9
  -GOLD-   2262019533D 1   1.00000     0.00000
 Structure written by MMmdl.
 57 61  0  0  0  0  0  0  0  0  1 V2000
  148.3399  136.4960  160.0073 C   0  0  0  0  0  0  0  0  0  0  0  0
  147.2457  137.3484  159.7137 O   0  0  0  0  0  0  0  0  0  0  0  0
  146.0567  136.6304  159.4128 C   0  0  2  0  0  0  0  0  0  0  0  0
  146.0649  136.1769  157.9476 C   0  0  0  0  0  0  0  0  0  0  0  0
  145.3814  137.5080  157.5937 C   0  0  1  0  0  0  0  0  0  0  0  0
  144.3456  137.4069  156.5645 N   0  0  0  0  0  0  0  0  0  0  0  0
  143.5263  138.5958  156.3601 C   0  0  0  0  0  0  0  0  0  0  0  0
  144.7986  136.9153  155.3900 C   0  0  0  0  0  0  0  0  0  0  0  0
  146.0897  137.1227  155.0195 N   0  0  0  0  0  0  0  0  0  0  0  0
  146.5354  136.6303  153.8596 C   0  0  0  0  0  0  0  0  0  0  0  0
  145.8730  135.9174  152.9451 N   0  0  0  0  0  0  0  0  0  0  0  0
  144.5774  135.7074  153.3192 C   0  0  0  0  0  0  0  0  0  0  0  0
  143.9646  136.1708  154.5166 C   0  0  0  0  0  0  0  0  0  0  0  0
  142.6360  135.7706  154.5619 N   0  0  0  0  0  0  0  0  0  0  0  0
  142.4703  135.1081  153.4497 C   0  0  0  0  0  0  0  0  0  0  0  0
  143.5852  135.0153  152.6450 N   0  0  0  0  0  0  0  0  0  0  0  0
  143.6735  134.3578  151.3719 C   0  0  0  0  0  0  0  0  0  0  0  0
  143.6031  132.8337  151.2740 C   0  0  0  0  0  0  0  0  0  0  0  0
  144.5639  132.8735  150.0644 C   0  0  0  0  0  0  0  0  0  0  0  0
  145.6485  131.7834  150.0567 C   0  0  0  0  0  0  0  0  0  0  0  0
  146.4051  131.8043  151.2501 O   0  0  0  0  0  0  0  0  0  0  0  0
  143.8767  132.9139  148.6845 C   0  0  0  0  0  0  0  0  0  0  0  0
  143.4388  134.2186  148.3621 O   0  0  0  0  0  0  0  0  0  0  0  0
  145.0034  134.2473  150.6231 C   0  0  0  0  0  0  0  0  0  0  0  0
  144.8583  137.5335  159.0457 C   0  0  0  0  0  0  0  0  0  0  0  0
  144.5698  138.8451  159.7915 C   0  0  0  0  0  0  0  0  0  0  0  0
  143.4878  138.0994  160.5787 C   0  0  0  0  0  0  0  0  0  0  0  0
  143.4446  137.0684  159.4461 C   0  0  0  0  0  0  0  0  0  0  0  0
  149.2067  137.0947  160.2867 H   0  0  0  0  0  0  0  0  0  0  0  0
  148.6117  135.8984  159.1362 H   0  0  0  0  0  0  0  0  0  0  0  0
  148.1154  135.8199  160.8326 H   0  0  0  0  0  0  0  0  0  0  0  0
  145.8326  135.8157  160.1040 H   0  0  0  0  0  0  0  0  0  0  0  0
  147.0550  136.0437  157.5105 H   0  0  0  0  0  0  0  0  0  0  0  0
  145.4324  135.3027  157.7819 H   0  0  0  0  0  0  0  0  0  0  0  0
  146.1093  138.3016  157.4141 H   0  0  0  0  0  0  0  0  0  0  0  0
  142.8147  138.4461  155.5468 H   0  0  0  0  0  0  0  0  0  0  0  0
  144.1479  139.4588  156.1179 H   0  0  0  0  0  0  0  0  0  0  0  0
  142.9548  138.8339  157.2559 H   0  0  0  0  0  0  0  0  0  0  0  0
  147.5708  136.8366  153.6322 H   0  0  0  0  0  0  0  0  0  0  0  0
  141.5205  134.6672  153.1840 H   0  0  0  0  0  0  0  0  0  0  0  0
  142.9203  134.8122  150.7265 H   0  0  0  0  0  0  0  0  0  0  0  0
  144.0359  132.3363  152.1440 H   0  0  0  0  0  0  0  0  0  0  0  0
  142.6092  132.4415  151.0564 H   0  0  0  0  0  0  0  0  0  0  0  0
  145.2203  130.7894  149.9255 H   0  0  0  0  0  0  0  0  0  0  0  0
  146.3379  131.9301  149.2248 H   0  0  0  0  0  0  0  0  0  0  0  0
  147.3120  131.6502  151.0327 H   0  0  0  0  0  0  0  0  0  0  0  0
  144.5433  132.5634  147.8965 H   0  0  0  0  0  0  0  0  0  0  0  0
  143.0078  132.2560  148.6581 H   0  0  0  0  0  0  0  0  0  0  0  0
  144.1913  134.7360  148.1186 H   0  0  0  0  0  0  0  0  0  0  0  0
  145.1600  135.0231  149.8729 H   0  0  0  0  0  0  0  0  0  0  0  0
  145.8630  134.1789  151.2916 H   0  0  0  0  0  0  0  0  0  0  0  0
  145.3893  139.2364  160.3928 H   0  0  0  0  0  0  0  0  0  0  0  0
  144.1560  139.6168  159.1413 H   0  0  0  0  0  0  0  0  0  0  0  0
  143.8616  137.6815  161.5148 H   0  0  0  0  0  0  0  0  0  0  0  0
  142.5628  138.6578  160.7244 H   0  0  0  0  0  0  0  0  0  0  0  0
  142.6736  137.2961  158.7102 H   0  0  0  0  0  0  0  0  0  0  0  0
  143.3789  136.0325  159.7803 H   0  0  0  0  0  0  0  0  0  0  0  0
  1  2  1  0  0  0  0
  1 29  1  0  0  0  0
  1 30  1  0  0  0  0
  1 31  1  0  0  0  0
  2  3  1  0  0  0  0
  3 25  1  0  0  0  0
  3  4  1  0  0  0  0
  3 32  1  0  0  0  0
  4  5  1  0  0  0  0
  4 33  1  0  0  0  0
  4 34  1  0  0  0  0
  5  6  1  0  0  0  0
  5 25  1  0  0  0  0
  5 35  1  0  0  0  0
  6  7  1  0  0  0  0
  6  8  1  0  0  0  0
  7 36  1  0  0  0  0
  7 37  1  0  0  0  0
  7 38  1  0  0  0  0
  8 13  1  0  0  0  0
  8  9  2  0  0  0  0
  9 10  1  0  0  0  0
 10 11  2  0  0  0  0
 10 39  1  0  0  0  0
 11 12  1  0  0  0  0
 12 16  1  0  0  0  0
 12 13  2  0  0  0  0
 13 14  1  0  0  0  0
 14 15  2  0  0  0  0
 15 16  1  0  0  0  0
 15 40  1  0  0  0  0
 16 17  1  0  0  0  0
 17 24  1  0  0  0  0
 17 18  1  0  0  0  0
 17 41  1  0  0  0  0
 18 19  1  0  0  0  0
 18 42  1  0  0  0  0
 18 43  1  0  0  0  0
 19 20  1  0  0  0  0
 19 22  1  0  0  0  0
 19 24  1  0  0  0  0
 20 21  1  0  0  0  0
 20 44  1  0  0  0  0
 20 45  1  0  0  0  0
 21 46  1  0  0  0  0
 22 23  1  0  0  0  0
 22 47  1  0  0  0  0
 22 48  1  0  0  0  0
 23 49  1  0  0  0  0
 24 50  1  0  0  0  0
 24 51  1  0  0  0  0
 25 28  1  0  0  0  0
 25 26  1  0  0  0  0
 26 27  1  0  0  0  0
 26 52  1  0  0  0  0
 26 53  1  0  0  0  0
 27 28  1  0  0  0  0
 27 54  1  0  0  0  0
 27 55  1  0  0  0  0
 28 56  1  0  0  0  0
 28 57  1  0  0  0  0
M  END
> <s_m_source_file>
AV-unprocessed.smi

> <i_m_source_file_index>
210

> <i_lp_mmshare_version>
43012

> <i_f3d_flags>
0

> <s_epik_input>
W0NIMl0xW0NIMl1bQ0gyXUMxMltDQEhdKE9bQ0gzXSlbQ0gyXVtDQEhdMk4oW0NIM10pYyhuW2NIXW4zKWMoYzM0KW5bY0hdbjRbQ0hdKFtDSDJdNSlbQ0gyXUM1KFtDSDJdW09IXSlbQ0gyXVtPSF0=

> <s_epik_cmdline>
J2VwaWtfcHl0aG9uJywgJy1waCcsICc3LjAnLCAnLXRuJywgJzgnLCAnLW1hJywgJzIwMCcsICctbWV0YWxfYmluZGluZycsICctaW1hZScsICc8aW5maWxlLm1hZT4nLCAnLW9tYWUnLCAnPG91dGZpbGUubWFlPic=

> <r_lp_tautomer_probability>
1

> <r_epik_Ionization_Penalty>
0.00313676

> <r_epik_Ionization_Penalty_Charging>
0

> <r_epik_Ionization_Penalty_Neutral>
0.00313676

> <r_epik_State_Penalty>
0.00199132

> <r_epik_Charging_Adjusted_Penalty>
0.00199132

> <i_epik_Tot_Q>
0

> <i_epik_Tot_abs_Q>
0

> <r_epik_Metal_State_Penalty>
-0

> <b_epik_Metal_Only>
0

> <s_lp_Force_Field>
OPLS_2005

> <r_lp_Energy>
59.5036

> <b_lp_Chiralities_Consistent>
1

> <s_lp_Variant>
AV-unprocessed.smi:210-1

> <Gold.Version>
5.8.1

> <Gold.Id.Protein>
6NUR|6NUR_protein|mol2

> <Gold.PLP.Fitness>
44.7612

> <Gold.PLP.PLP>
-32.6901

> <Gold.PLP.part.hbond>
-4.7533

> <Gold.PLP.part.metal>
0.0000

> <Gold.PLP.part.buried>
-5.1052

> <Gold.PLP.part.nonpolar>
-22.4458

> <Gold.PLP.part.repulsive>
0.1976

> <Gold.PLP.ligand.clash>
0.0118

> <Gold.PLP.ligand.torsion>
1.6776

> <Gold.PLP.Chemscore.Hbond>
3.7805

> <Gold.PLP.Chemscore.CHOScore>
1.0000

> <Gold.PLP.Chemscore.Metal>
0.0000

> <Gold.Chemscore.Hbonds>
donor molecule, donor type, donor heavy atom, donor atom, acceptor molecule, acceptor atom, score
      L1  H    21    46       P1 10747  1.00
      L1  H    23    49       P1  7921  0.98
      P1  H  6934  6947       L1     2  0.86
      P1  H 10192 10197       L1    23  0.76
      L1  C    10    39       P1  7948  1.00

> <Gold.PLP.Chemscore.Internal.Correction>
1.0966

> <Gold.Rescore>
     Score         DG    S(hbond)    S(metal)    S(lipo)     H(rot)  DE(clash)    DE(int)     intcor
      9.76     -13.41       2.94        0.00      62.13       3.57       0.11       3.55       ----

> <Gold.Chemscore.Fitness>
9.7576

> <Gold.Chemscore.DG>
-13.4136

> <Gold.Chemscore.ZeroCoef>
-5.4800

> <Gold.Chemscore.Hbond>
2.9361

> <Gold.Chemscore.Metal>
0.0000

> <Gold.Chemscore.Lipo>
62.1304

> <Gold.Chemscore.Internal_Hbond>
0.0000

> <Gold.Chemscore.DEClash>
0.1084

> <Gold.Chemscore.DEInternal>
3.5476

> <Gold.Chemscore.Rot>
3.5712

> <Gold.Chemscore.Internal.Correction>
   9.000000E+99

> <Gold.Chemscore.Hbonds>
donor molecule, donor type, donor heavy atom, donor atom, acceptor molecule, acceptor atom, score
      L1  H    21    46       P1 10747  0.97
      L1  H    23    49       P1  7921  0.91
      P1  H  6934  6947       L1     2  0.68
      P1  H 10192 10197       L1    23  0.15

> <Gold.Chemscore.Hbond.Weighted>
-9.8067

> <Gold.Chemscore.Metal.Weighted>
-0.0000

> <Gold.Chemscore.Lipo.Weighted>
-7.2693

> <Gold.Chemscore.Internal_Hbond.Weighted>
0.0000

> <Gold.Chemscore.DEClash.Weighted>
0.1084

> <Gold.Chemscore.DEInternal.Weighted>
3.5476

> <Gold.Chemscore.Rot.Weighted>
9.1423

> <Gold.Chemscore.Internal.Correction.Weighted>
   9.000000E+99

> <Gold.Protein.RotatedTorsions>
[ 6907 6896 6895 6894 ] final   68.05 input  -60.11 | X-H torsion
[ 7974 7965 7964 7962 ] final   29.54 input  175.53 | X-H torsion
[ 8008 7997 7996 7995 ] final  141.24 input   59.86 | X-H torsion
[ 10167 10162 10161 10158 ] final -180.00 input  -65.29 | X-H torsion
[ 10718 10713 10712 10709 ] final  -67.91 input   66.30 | X-H torsion
[ 10763 10752 10751 10750 ] final   10.19 input  -60.55 | X-H torsion
[ 11005 11000 10999 10996 ] final   44.00 input  -57.11 | X-H torsion

> <Gold.Protein.ActiveResidues>
 VAL166  LYS551  ARG553  GLY616  TRP617  ASP618  TYR619  PRO620  LYS621  CYS622 
 ASP623  PHE694  ASN695  SER759  ASP760  ASP761  ALA762  ILE779  LEU786  VAL792 
 PHE793  MET794  SER795  GLU796  ALA797  LYS798  CYS799  TRP800  GLU811  SER814 

> <Gold.Protein.RotatedAtoms>
  152.4594  134.5219  159.9784 H   0  0  0  0  0  0  0  0  0  0  0  0  # atno 6907 bound_to 6896
  151.5272  133.3450  159.2919 H   0  0  0  0  0  0  0  0  0  0  0  0  # atno 6908 bound_to 6896
  150.8550  134.7916  159.7101 H   0  0  0  0  0  0  0  0  0  0  0  0  # atno 6909 bound_to 6896
  146.1665  139.6908  142.8997 H   0  0  0  0  0  0  0  0  0  0  0  0  # atno 7974 bound_to 7965
  156.2968  140.2320  156.4532 H   0  0  0  0  0  0  0  0  0  0  0  0  # atno 8008 bound_to 7997
  154.8083  140.0444  157.1345 H   0  0  0  0  0  0  0  0  0  0  0  0  # atno 8009 bound_to 7997
  154.9453  140.3035  155.5104 H   0  0  0  0  0  0  0  0  0  0  0  0  # atno 8010 bound_to 7997
  139.5361  144.2493  152.0797 H   0  0  0  0  0  0  0  0  0  0  0  0  # atno 10167 bound_to 10162
  156.0533  130.4286  150.1923 H   0  0  0  0  0  0  0  0  0  0  0  0  # atno 10718 bound_to 10713
  153.2059  135.6862  153.8173 H   0  0  0  0  0  0  0  0  0  0  0  0  # atno 10763 bound_to 10752
  153.7423  135.3236  155.3307 H   0  0  0  0  0  0  0  0  0  0  0  0  # atno 10764 bound_to 10752
  154.8196  135.4661  154.0846 H   0  0  0  0  0  0  0  0  0  0  0  0  # atno 10765 bound_to 10752
  140.1592  134.4363  155.8329 H   0  0  0  0  0  0  0  0  0  0  0  0  # atno 11005 bound_to 11000
  145.4452  141.0425  143.2835 LP  0  0  0  0  0  0  0  0  0  0  0  0  # atno 17320 bound_to 7965
  144.8101  139.5979  143.7033 LP  0  0  0  0  0  0  0  0  0  0  0  0  # atno 17321 bound_to 7965
  140.1964  144.4701  150.6453 LP  0  0  0  0  0  0  0  0  0  0  0  0  # atno 17342 bound_to 10162
  140.6568  143.2240  151.5950 LP  0  0  0  0  0  0  0  0  0  0  0  0  # atno 17343 bound_to 10162
  157.0003  130.9920  151.3392 LP  0  0  0  0  0  0  0  0  0  0  0  0  # atno 17370 bound_to 10713
  157.5480  130.8163  149.8109 LP  0  0  0  0  0  0  0  0  0  0  0  0  # atno 17371 bound_to 10713
  141.2207  133.6906  156.7563 LP  0  0  0  0  0  0  0  0  0  0  0  0  # atno 17394 bound_to 11000
  140.2510  134.8540  157.3667 LP  0  0  0  0  0  0  0  0  0  0  0  0  # atno 17395 bound_to 11000

$$$$
