AV-unprocessed.smi:607|AV-procd|sdf|3042|dock5
  -GOLD-   2262023563D 1   1.00000     0.00000
 Structure written by MMmdl.
 42 43  0  0  0  0  0  0  0  0  1 V2000
  151.4226  144.6377  160.2682 C   0  0  0  0  0  0  0  0  0  0  0  0
  152.2689  143.5634  160.8893 C   0  0  0  0  0  0  0  0  0  0  0  0
  152.6631  143.6970  162.1439 N   0  0  0  0  0  0  0  0  0  0  0  0
  153.3911  142.5920  162.3948 N   0  0  0  0  0  0  0  0  0  0  0  0
  153.9879  142.4204  163.7052 C   0  0  0  0  0  0  0  0  0  0  0  0
  153.4529  141.7538  161.2983 C   0  0  0  0  0  0  0  0  0  0  0  0
  154.2093  140.4627  161.3372 C   0  0  0  0  0  0  0  0  0  0  0  0
  152.7411  142.3577  160.2908 C   0  0  0  0  0  0  0  0  0  0  0  0
  152.4868  141.9020  158.8669 C   0  0  2  0  0  0  0  0  0  0  0  0
  151.0925  142.3357  158.3776 C   0  0  0  0  0  0  0  0  0  0  0  0
  152.7323  140.3890  158.7407 C   0  0  0  0  0  0  0  0  0  0  0  0
  153.8744  139.9399  158.6400 O   0  0  0  0  0  0  0  0  0  0  0  0
  151.6380  139.6099  158.7376 N   0  0  0  0  0  0  0  0  0  0  0  0
  151.6152  138.1617  158.5398 C   0  0  0  0  0  0  0  0  0  0  0  0
  152.4595  137.4618  159.5277 C   0  0  0  0  0  0  0  0  0  0  0  0
  153.1223  136.9145  160.3024 N   0  0  0  0  0  0  0  0  0  0  0  0
  150.1792  137.6027  158.5417 C   0  0  0  0  0  0  0  0  0  0  0  0
  150.1713  136.4042  157.5818 C   0  0  0  0  0  0  0  0  0  0  0  0
  151.4891  136.4648  156.8016 C   0  0  0  0  0  0  0  0  0  0  0  0
  152.0927  137.8334  157.1193 C   0  0  0  0  0  0  0  0  0  0  0  0
  151.9653  145.1486  159.4727 H   0  0  0  0  0  0  0  0  0  0  0  0
  151.1200  145.3889  160.9986 H   0  0  0  0  0  0  0  0  0  0  0  0
  150.5155  144.2162  159.8348 H   0  0  0  0  0  0  0  0  0  0  0  0
  155.0345  142.1341  163.5991 H   0  0  0  0  0  0  0  0  0  0  0  0
  153.4570  141.6388  164.2491 H   0  0  0  0  0  0  0  0  0  0  0  0
  153.9360  143.3484  164.2767 H   0  0  0  0  0  0  0  0  0  0  0  0
  153.8921  139.7894  160.5424 H   0  0  0  0  0  0  0  0  0  0  0  0
  154.0560  139.9445  162.2836 H   0  0  0  0  0  0  0  0  0  0  0  0
  155.2780  140.6405  161.2171 H   0  0  0  0  0  0  0  0  0  0  0  0
  153.2092  142.3694  158.1970 H   0  0  0  0  0  0  0  0  0  0  0  0
  150.2953  141.9194  158.9934 H   0  0  0  0  0  0  0  0  0  0  0  0
  150.9168  142.0211  157.3481 H   0  0  0  0  0  0  0  0  0  0  0  0
  150.9950  143.4212  158.4055 H   0  0  0  0  0  0  0  0  0  0  0  0
  150.7417  140.0660  158.8266 H   0  0  0  0  0  0  0  0  0  0  0  0
  149.8416  137.3284  159.5420 H   0  0  0  0  0  0  0  0  0  0  0  0
  149.4829  138.3544  158.1658 H   0  0  0  0  0  0  0  0  0  0  0  0
  150.0986  135.4643  158.1301 H   0  0  0  0  0  0  0  0  0  0  0  0
  149.3128  136.4572  156.9116 H   0  0  0  0  0  0  0  0  0  0  0  0
  152.1584  135.6802  157.1562 H   0  0  0  0  0  0  0  0  0  0  0  0
  151.3470  136.3157  155.7310 H   0  0  0  0  0  0  0  0  0  0  0  0
  151.7008  138.5651  156.4106 H   0  0  0  0  0  0  0  0  0  0  0  0
  153.1795  137.8403  157.0268 H   0  0  0  0  0  0  0  0  0  0  0  0
  1  2  1  0  0  0  0
  1 21  1  0  0  0  0
  1 22  1  0  0  0  0
  1 23  1  0  0  0  0
  2  8  1  0  0  0  0
  2  3  2  0  0  0  0
  3  4  1  0  0  0  0
  4  5  1  0  0  0  0
  4  6  1  0  0  0  0
  5 24  1  0  0  0  0
  5 25  1  0  0  0  0
  5 26  1  0  0  0  0
  6  7  1  0  0  0  0
  6  8  2  0  0  0  0
  7 27  1  0  0  0  0
  7 28  1  0  0  0  0
  7 29  1  0  0  0  0
  8  9  1  0  0  0  0
  9 10  1  0  0  0  0
  9 11  1  0  0  0  0
  9 30  1  0  0  0  0
 10 31  1  0  0  0  0
 10 32  1  0  0  0  0
 10 33  1  0  0  0  0
 11 12  2  0  0  0  0
 11 13  1  0  0  0  0
 13 14  1  0  0  0  0
 13 34  1  0  0  0  0
 14 20  1  0  0  0  0
 14 15  1  0  0  0  0
 14 17  1  0  0  0  0
 15 16  3  0  0  0  0
 17 18  1  0  0  0  0
 17 35  1  0  0  0  0
 17 36  1  0  0  0  0
 18 19  1  0  0  0  0
 18 37  1  0  0  0  0
 18 38  1  0  0  0  0
 19 20  1  0  0  0  0
 19 39  1  0  0  0  0
 19 40  1  0  0  0  0
 20 41  1  0  0  0  0
 20 42  1  0  0  0  0
M  END
> <s_m_source_file>
AV-unprocessed.smi

> <i_m_source_file_index>
607

> <i_lp_mmshare_version>
43012

> <i_f3d_flags>
0

> <s_epik_input>
W0NIM11jMW5uKFtDSDNdKWMoW0NIM10pYzFbQ0BIXShbQ0gzXSlDKD1PKVtOSF1DMihDI04pW0NIMl1bQ0gyXVtDSDJdW0NIMl0y

> <s_epik_cmdline>
J2VwaWtfcHl0aG9uJywgJy1waCcsICc3LjAnLCAnLXRuJywgJzgnLCAnLW1hJywgJzIwMCcsICctbWV0YWxfYmluZGluZycsICctaW1hZScsICc8aW5maWxlLm1hZT4nLCAnLW9tYWUnLCAnPG91dGZpbGUubWFlPic=

> <r_lp_tautomer_probability>
1

> <r_epik_Ionization_Penalty>
0.00342632

> <r_epik_Ionization_Penalty_Charging>
0

> <r_epik_Ionization_Penalty_Neutral>
0.00342632

> <r_epik_State_Penalty>
0.00242724

> <r_epik_Charging_Adjusted_Penalty>
0.00242724

> <i_epik_Tot_Q>
0

> <i_epik_Tot_abs_Q>
0

> <r_epik_Metal_State_Penalty>
-0

> <b_epik_Metal_Only>
0

> <s_lp_Force_Field>
OPLS_2005

> <r_lp_Energy>
13.4407

> <b_lp_Chiralities_Consistent>
1

> <s_lp_Variant>
AV-unprocessed.smi:607-1

> <Gold.Version>
5.8.1

> <Gold.Id.Protein>
6NUR|6NUR_protein|mol2

> <Gold.PLP.Fitness>
41.7367

> <Gold.PLP.PLP>
-40.0168

> <Gold.PLP.part.hbond>
-1.6667

> <Gold.PLP.part.metal>
0.0000

> <Gold.PLP.part.buried>
-3.9817

> <Gold.PLP.part.nonpolar>
-33.2695

> <Gold.PLP.part.repulsive>
0.2922

> <Gold.PLP.ligand.clash>
0.4932

> <Gold.PLP.ligand.torsion>
1.2669

> <Gold.PLP.Chemscore.Hbond>
1.5460

> <Gold.PLP.Chemscore.CHOScore>
0.0000

> <Gold.PLP.Chemscore.Metal>
0.0000

> <Gold.Chemscore.Hbonds>
donor molecule, donor type, donor heavy atom, donor atom, acceptor molecule, acceptor atom, score
      P1  H  6896  6909       L1    16  0.42
      P1  H  7997  8010       L1    12  1.00

> <Gold.PLP.Chemscore.Internal.Correction>
0.1089

> <Gold.Rescore>
     Score         DG    S(hbond)    S(metal)    S(lipo)     H(rot)  DE(clash)    DE(int)     intcor
     15.04     -20.16       1.96        0.00      99.41       1.37       0.76       4.36       ----

> <Gold.Chemscore.Fitness>
15.0377

> <Gold.Chemscore.DG>
-20.1573

> <Gold.Chemscore.ZeroCoef>
-5.4800

> <Gold.Chemscore.Hbond>
1.9638

> <Gold.Chemscore.Metal>
0.0000

> <Gold.Chemscore.Lipo>
99.4062

> <Gold.Chemscore.Internal_Hbond>
0.0000

> <Gold.Chemscore.DEClash>
0.7589

> <Gold.Chemscore.DEInternal>
4.3606

> <Gold.Chemscore.Rot>
1.3720

> <Gold.Chemscore.Internal.Correction>
   9.000000E+99

> <Gold.Chemscore.Hbonds>
donor molecule, donor type, donor heavy atom, donor atom, acceptor molecule, acceptor atom, score
      P1  H  6896  6909       L1    16  0.04
      P1  H  7997  8010       L1    12  0.97

> <Gold.Chemscore.Hbond.Weighted>
-6.5590

> <Gold.Chemscore.Metal.Weighted>
-0.0000

> <Gold.Chemscore.Lipo.Weighted>
-11.6305

> <Gold.Chemscore.Internal_Hbond.Weighted>
0.0000

> <Gold.Chemscore.DEClash.Weighted>
0.7589

> <Gold.Chemscore.DEInternal.Weighted>
4.3606

> <Gold.Chemscore.Rot.Weighted>
3.5123

> <Gold.Chemscore.Internal.Correction.Weighted>
   9.000000E+99

> <Gold.Protein.RotatedTorsions>
[ 6907 6896 6895 6894 ] final  147.10 input  -60.11 | X-H torsion
[ 7974 7965 7964 7962 ] final   79.26 input  175.53 | X-H torsion
[ 8008 7997 7996 7995 ] final   20.39 input   59.86 | X-H torsion
[ 10167 10162 10161 10158 ] final -171.42 input  -65.29 | X-H torsion
[ 10718 10713 10712 10709 ] final  166.29 input   66.30 | X-H torsion
[ 10763 10752 10751 10750 ] final   41.23 input  -60.55 | X-H torsion
[ 11005 11000 10999 10996 ] final  103.26 input  -57.11 | X-H torsion

> <Gold.Protein.ActiveResidues>
 VAL166  LYS551  ARG553  GLY616  TRP617  ASP618  TYR619  PRO620  LYS621  CYS622 
 ASP623  PHE694  ASN695  SER759  ASP760  ASP761  ALA762  ILE779  LEU786  VAL792 
 PHE793  MET794  SER795  GLU796  ALA797  LYS798  CYS799  TRP800  GLU811  SER814 

> <Gold.Protein.RotatedAtoms>
  152.1593  133.4571  159.4852 H   0  0  0  0  0  0  0  0  0  0  0  0  # atno 6907 bound_to 6896
  150.6905  134.2092  159.4361 H   0  0  0  0  0  0  0  0  0  0  0  0  # atno 6908 bound_to 6896
  151.9993  134.9937  160.0615 H   0  0  0  0  0  0  0  0  0  0  0  0  # atno 6909 bound_to 6896
  145.6664  139.2485  143.1893 H   0  0  0  0  0  0  0  0  0  0  0  0  # atno 7974 bound_to 7965
  154.9349  140.3045  155.5149 H   0  0  0  0  0  0  0  0  0  0  0  0  # atno 8008 bound_to 7997
  156.3000  140.2347  156.4349 H   0  0  0  0  0  0  0  0  0  0  0  0  # atno 8009 bound_to 7997
  154.8202  140.0424  157.1393 H   0  0  0  0  0  0  0  0  0  0  0  0  # atno 8010 bound_to 7997
  139.5803  144.1438  152.1506 H   0  0  0  0  0  0  0  0  0  0  0  0  # atno 10167 bound_to 10162
  157.0680  131.0358  151.2622 H   0  0  0  0  0  0  0  0  0  0  0  0  # atno 10718 bound_to 10713
  152.9914  135.6168  154.2753 H   0  0  0  0  0  0  0  0  0  0  0  0  # atno 10763 bound_to 10752
  154.2485  135.2786  155.2828 H   0  0  0  0  0  0  0  0  0  0  0  0  # atno 10764 bound_to 10752
  154.5309  135.5788  153.6815 H   0  0  0  0  0  0  0  0  0  0  0  0  # atno 10765 bound_to 10752
  139.8782  134.9256  156.5182 H   0  0  0  0  0  0  0  0  0  0  0  0  # atno 11005 bound_to 11000
  146.1082  140.7461  142.9516 LP  0  0  0  0  0  0  0  0  0  0  0  0  # atno 17320 bound_to 7965
  144.7071  140.3896  143.7109 LP  0  0  0  0  0  0  0  0  0  0  0  0  # atno 17321 bound_to 7965
  140.0989  144.5556  150.7002 LP  0  0  0  0  0  0  0  0  0  0  0  0  # atno 17342 bound_to 10162
  140.7082  143.2484  151.4662 LP  0  0  0  0  0  0  0  0  0  0  0  0  # atno 17343 bound_to 10162
  157.4901  130.7817  149.7499 LP  0  0  0  0  0  0  0  0  0  0  0  0  # atno 17370 bound_to 10713
  155.9959  130.3909  150.2801 LP  0  0  0  0  0  0  0  0  0  0  0  0  # atno 17371 bound_to 10713
  140.8470  133.8161  155.9131 LP  0  0  0  0  0  0  0  0  0  0  0  0  # atno 17394 bound_to 11000
  140.9181  134.2176  157.4943 LP  0  0  0  0  0  0  0  0  0  0  0  0  # atno 17395 bound_to 11000

$$$$
