AV-unprocessed.smi:1898|AV-procd|sdf|7700|dock3
  -GOLD-   22720 9433D 1   1.00000     0.00000
 Structure written by MMmdl.
 46 47  0  0  0  0  0  0  0  0  1 V2000
  145.7817  135.4228  152.6119 C   0  0  0  0  0  0  0  0  0  0  0  0
  146.4035  136.7008  152.3025 N   0  0  0  0  0  0  0  0  0  0  0  0
  145.8717  137.8928  152.6099 C   0  0  0  0  0  0  0  0  0  0  0  0
  144.8004  138.0235  153.2014 O   0  0  0  0  0  0  0  0  0  0  0  0
  146.6728  139.1310  152.1899 C   0  0  0  0  0  0  0  0  0  0  0  0
  147.3557  139.8374  153.2997 N   0  0  0  0  0  0  0  0  0  0  0  0
  147.8624  141.1241  152.8102 C   0  0  0  0  0  0  0  0  0  0  0  0
  148.4742  141.9441  153.9601 C   0  0  0  0  0  0  0  0  0  0  0  0
  149.6089  141.1725  154.6479 C   0  0  0  0  0  0  0  0  0  0  0  0
  150.0951  141.9228  155.8023 N   0  0  0  0  0  0  0  0  0  0  0  0
  150.8713  141.4251  156.7755 C   0  0  0  0  0  0  0  0  0  0  0  0
  151.2679  140.2601  156.7979 O   0  0  0  0  0  0  0  0  0  0  0  0
  151.1304  142.3540  157.7112 N   0  0  0  0  0  0  0  0  0  0  0  0
  151.8851  142.2224  158.9098 C   0  0  0  0  0  0  0  0  0  0  0  0
  152.4829  141.0107  159.3340 C   0  0  0  0  0  0  0  0  0  0  0  0
  153.2239  140.9965  160.5301 C   0  0  0  0  0  0  0  0  0  0  0  0
  153.3487  142.1953  161.2553 C   0  0  0  0  0  0  0  0  0  0  0  0
  152.7978  143.3601  160.8570 N   0  0  0  0  0  0  0  0  0  0  0  0
  152.0824  143.3763  159.7041 C   0  0  0  0  0  0  0  0  0  0  0  0
  151.5226  144.5720  159.2952 O   0  0  0  0  0  0  0  0  0  0  0  0
  151.7228  145.7276  160.1018 C   0  0  0  0  0  0  0  0  0  0  0  0
  149.0838  139.7906  155.0701 C   0  0  0  0  0  0  0  0  0  0  0  0
  148.4511  139.0469  153.8811 C   0  0  0  0  0  0  0  0  0  0  0  0
  146.4088  134.6067  152.2536 H   0  0  0  0  0  0  0  0  0  0  0  0
  144.8070  135.3401  152.1298 H   0  0  0  0  0  0  0  0  0  0  0  0
  145.6491  135.3049  153.6881 H   0  0  0  0  0  0  0  0  0  0  0  0
  147.2870  136.6823  151.8133 H   0  0  0  0  0  0  0  0  0  0  0  0
  147.4054  138.8376  151.4355 H   0  0  0  0  0  0  0  0  0  0  0  0
  145.9785  139.8136  151.6977 H   0  0  0  0  0  0  0  0  0  0  0  0
  148.6033  140.9668  152.0240 H   0  0  0  0  0  0  0  0  0  0  0  0
  147.0467  141.6964  152.3662 H   0  0  0  0  0  0  0  0  0  0  0  0
  148.8488  142.8935  153.5754 H   0  0  0  0  0  0  0  0  0  0  0  0
  147.6956  142.1894  154.6840 H   0  0  0  0  0  0  0  0  0  0  0  0
  150.4234  141.0445  153.9322 H   0  0  0  0  0  0  0  0  0  0  0  0
  149.8131  142.8899  155.8670 H   0  0  0  0  0  0  0  0  0  0  0  0
  150.6698  143.2445  157.5912 H   0  0  0  0  0  0  0  0  0  0  0  0
  152.4018  140.0989  158.7633 H   0  0  0  0  0  0  0  0  0  0  0  0
  153.6905  140.0876  160.8801 H   0  0  0  0  0  0  0  0  0  0  0  0
  153.9115  142.2210  162.1766 H   0  0  0  0  0  0  0  0  0  0  0  0
  151.2293  146.5809  159.6371 H   0  0  0  0  0  0  0  0  0  0  0  0
  152.7822  145.9704  160.1960 H   0  0  0  0  0  0  0  0  0  0  0  0
  151.2942  145.5989  161.0967 H   0  0  0  0  0  0  0  0  0  0  0  0
  149.8939  139.1903  155.4855 H   0  0  0  0  0  0  0  0  0  0  0  0
  148.3430  139.8995  155.8638 H   0  0  0  0  0  0  0  0  0  0  0  0
  148.0898  138.0844  154.2430 H   0  0  0  0  0  0  0  0  0  0  0  0
  149.2060  138.8346  153.1219 H   0  0  0  0  0  0  0  0  0  0  0  0
  1  2  1  0  0  0  0
  1 24  1  0  0  0  0
  1 25  1  0  0  0  0
  1 26  1  0  0  0  0
  2  3  1  0  0  0  0
  2 27  1  0  0  0  0
  3  4  2  0  0  0  0
  3  5  1  0  0  0  0
  5  6  1  0  0  0  0
  5 28  1  0  0  0  0
  5 29  1  0  0  0  0
  6 23  1  0  0  0  0
  6  7  1  0  0  0  0
  7  8  1  0  0  0  0
  7 30  1  0  0  0  0
  7 31  1  0  0  0  0
  8  9  1  0  0  0  0
  8 32  1  0  0  0  0
  8 33  1  0  0  0  0
  9 10  1  0  0  0  0
  9 22  1  0  0  0  0
  9 34  1  0  0  0  0
 10 11  1  0  0  0  0
 10 35  1  0  0  0  0
 11 12  2  0  0  0  0
 11 13  1  0  0  0  0
 13 14  1  0  0  0  0
 13 36  1  0  0  0  0
 14 19  1  0  0  0  0
 14 15  2  0  0  0  0
 15 16  1  0  0  0  0
 15 37  1  0  0  0  0
 16 17  2  0  0  0  0
 16 38  1  0  0  0  0
 17 18  1  0  0  0  0
 17 39  1  0  0  0  0
 18 19  2  0  0  0  0
 19 20  1  0  0  0  0
 20 21  1  0  0  0  0
 21 40  1  0  0  0  0
 21 41  1  0  0  0  0
 21 42  1  0  0  0  0
 22 23  1  0  0  0  0
 22 43  1  0  0  0  0
 22 44  1  0  0  0  0
 23 45  1  0  0  0  0
 23 46  1  0  0  0  0
M  END
> <s_m_source_file>
AV-unprocessed.smi

> <i_m_source_file_index>
1898

> <i_lp_mmshare_version>
43012

> <i_f3d_flags>
0

> <s_epik_input>
W0NIM11bTkhdQyg9TylbQ0gyXU4xW0NIMl1bQ0gyXVtDSF0oW0NIMl1bQ0gyXTEpW05IXUMoPU8pW05IXWMyW2NIXVtjSF1bY0hdbmMyT1tDSDNd

> <s_epik_cmdline>
J2VwaWtfcHl0aG9uJywgJy1waCcsICc3LjAnLCAnLXRuJywgJzgnLCAnLW1hJywgJzIwMCcsICctbWV0YWxfYmluZGluZycsICctaW1hZScsICc8aW5maWxlLm1hZT4nLCAnLW9tYWUnLCAnPG91dGZpbGUubWFlPic=

> <r_lp_tautomer_probability>
1

> <r_epik_Ionization_Penalty>
0.16483

> <r_epik_Ionization_Penalty_Charging>
0

> <r_epik_Ionization_Penalty_Neutral>
0.16483

> <r_epik_State_Penalty>
0.154069

> <r_epik_Charging_Adjusted_Penalty>
0.154069

> <i_epik_Tot_Q>
0

> <i_epik_Tot_abs_Q>
0

> <r_epik_Metal_State_Penalty>
0.158584

> <b_epik_Metal_Only>
0

> <s_lp_Force_Field>
OPLS_2005

> <r_lp_Energy>
15.9116

> <b_lp_Chiralities_Consistent>
1

> <s_lp_Variant>
AV-unprocessed.smi:1898-1

> <Gold.Version>
5.8.1

> <Gold.Id.Protein>
6NUR|6NUR_protein|mol2

> <Gold.PLP.Fitness>
44.8281

> <Gold.PLP.PLP>
-40.0385

> <Gold.PLP.part.hbond>
-1.8369

> <Gold.PLP.part.metal>
0.0000

> <Gold.PLP.part.buried>
-4.0521

> <Gold.PLP.part.nonpolar>
-35.5802

> <Gold.PLP.part.repulsive>
0.6787

> <Gold.PLP.ligand.clash>
0.0000

> <Gold.PLP.ligand.torsion>
0.4015

> <Gold.PLP.Chemscore.Hbond>
1.8613

> <Gold.PLP.Chemscore.CHOScore>
0.0000

> <Gold.PLP.Chemscore.Metal>
0.0000

> <Gold.Chemscore.Hbonds>
donor molecule, donor type, donor heavy atom, donor atom, acceptor molecule, acceptor atom, score
      L1  H     2    27       P1  7948  0.96
      L1  H    10    35       P1  8028  0.93

> <Gold.PLP.Chemscore.Internal.Correction>
0.0089

> <Gold.Rescore>
     Score         DG    S(hbond)    S(metal)    S(lipo)     H(rot)  DE(clash)    DE(int)     intcor
     13.63     -17.21       1.81        0.00      91.49       1.96       0.50       3.08       ----

> <Gold.Chemscore.Fitness>
13.6255

> <Gold.Chemscore.DG>
-17.2109

> <Gold.Chemscore.ZeroCoef>
-5.4800

> <Gold.Chemscore.Hbond>
1.8130

> <Gold.Chemscore.Metal>
0.0000

> <Gold.Chemscore.Lipo>
91.4916

> <Gold.Chemscore.Internal_Hbond>
0.0000

> <Gold.Chemscore.DEClash>
0.5013

> <Gold.Chemscore.DEInternal>
3.0841

> <Gold.Chemscore.Rot>
1.9645

> <Gold.Chemscore.Internal.Correction>
   9.000000E+99

> <Gold.Chemscore.Hbonds>
donor molecule, donor type, donor heavy atom, donor atom, acceptor molecule, acceptor atom, score
      L1  H     2    27       P1  7948  0.92
      L1  H    10    35       P1  8028  0.89

> <Gold.Chemscore.Hbond.Weighted>
-6.0554

> <Gold.Chemscore.Metal.Weighted>
-0.0000

> <Gold.Chemscore.Lipo.Weighted>
-10.7045

> <Gold.Chemscore.Internal_Hbond.Weighted>
0.0000

> <Gold.Chemscore.DEClash.Weighted>
0.5013

> <Gold.Chemscore.DEInternal.Weighted>
3.0841

> <Gold.Chemscore.Rot.Weighted>
5.0290

> <Gold.Chemscore.Internal.Correction.Weighted>
   9.000000E+99

> <Gold.Protein.RotatedTorsions>
[ 6907 6896 6895 6894 ] final -113.71 input  -60.11 | X-H torsion
[ 7974 7965 7964 7962 ] final   69.63 input  175.53 | X-H torsion
[ 8008 7997 7996 7995 ] final -175.70 input   59.86 | X-H torsion
[ 10167 10162 10161 10158 ] final  107.91 input  -65.29 | X-H torsion
[ 10718 10713 10712 10709 ] final   98.78 input   66.30 | X-H torsion
[ 10763 10752 10751 10750 ] final  -23.94 input  -60.55 | X-H torsion
[ 11005 11000 10999 10996 ] final   70.82 input  -57.11 | X-H torsion

> <Gold.Protein.ActiveResidues>
 VAL166  LYS551  ARG553  GLY616  TRP617  ASP618  TYR619  PRO620  LYS621  CYS622 
 ASP623  PHE694  ASN695  SER759  ASP760  ASP761  ALA762  ILE779  LEU786  VAL792 
 PHE793  MET794  SER795  GLU796  ALA797  LYS798  CYS799  TRP800  GLU811  SER814 

> <Gold.Protein.RotatedAtoms>
  150.7849  133.8906  159.3311 H   0  0  0  0  0  0  0  0  0  0  0  0  # atno 6907 bound_to 6896
  151.6759  135.0967  160.0216 H   0  0  0  0  0  0  0  0  0  0  0  0  # atno 6908 bound_to 6896
  152.3910  133.6640  159.6273 H   0  0  0  0  0  0  0  0  0  0  0  0  # atno 6909 bound_to 6896
  145.7881  139.2920  143.1226 H   0  0  0  0  0  0  0  0  0  0  0  0  # atno 7974 bound_to 7965
  155.9858  140.1191  157.0684 H   0  0  0  0  0  0  0  0  0  0  0  0  # atno 8008 bound_to 7997
  154.4196  140.1135  156.5566 H   0  0  0  0  0  0  0  0  0  0  0  0  # atno 8009 bound_to 7997
  155.6409  140.3473  155.4717 H   0  0  0  0  0  0  0  0  0  0  0  0  # atno 8010 bound_to 7997
  139.6888  144.7110  151.1384 H   0  0  0  0  0  0  0  0  0  0  0  0  # atno 10167 bound_to 10162
  157.6889  131.0650  150.4848 H   0  0  0  0  0  0  0  0  0  0  0  0  # atno 10718 bound_to 10713
  153.6758  135.6969  153.5133 H   0  0  0  0  0  0  0  0  0  0  0  0  # atno 10763 bound_to 10752
  153.2522  135.4271  155.0809 H   0  0  0  0  0  0  0  0  0  0  0  0  # atno 10764 bound_to 10752
  154.8414  135.3534  154.6302 H   0  0  0  0  0  0  0  0  0  0  0  0  # atno 10765 bound_to 10752
  139.9577  134.7115  156.0716 H   0  0  0  0  0  0  0  0  0  0  0  0  # atno 11005 bound_to 11000
  146.0005  140.8524  143.0021 LP  0  0  0  0  0  0  0  0  0  0  0  0  # atno 17320 bound_to 7965
  144.6786  140.2345  143.7351 LP  0  0  0  0  0  0  0  0  0  0  0  0  # atno 17321 bound_to 7965
  140.7676  143.5589  150.9121 LP  0  0  0  0  0  0  0  0  0  0  0  0  # atno 17342 bound_to 10162
  139.9266  143.6543  152.3085 LP  0  0  0  0  0  0  0  0  0  0  0  0  # atno 17343 bound_to 10162
  156.5178  130.4154  149.6266 LP  0  0  0  0  0  0  0  0  0  0  0  0  # atno 17370 bound_to 10713
  156.3182  130.7266  151.2172 LP  0  0  0  0  0  0  0  0  0  0  0  0  # atno 17371 bound_to 10713
  141.1250  133.6602  156.3314 LP  0  0  0  0  0  0  0  0  0  0  0  0  # atno 17394 bound_to 11000
  140.5572  134.5970  157.5424 LP  0  0  0  0  0  0  0  0  0  0  0  0  # atno 17395 bound_to 11000

$$$$
