AV-unprocessed.smi:70|AV-procd|sdf|659|dock3
  -GOLD-   2262016563D 1   1.00000     0.00000
 Structure written by MMmdl.
 25 26  0  0  0  0  0  0  0  0  2 V2000
  149.5130  141.0078  153.3041 O   0  0  0  0  0  0  0  0  0  0  0  0
  148.5100  140.4066  154.1052 C   0  0  1  0  0  0  0  0  0  0  0  0
  149.1284  139.2227  154.8859 C   0  0  0  0  0  0  0  0  0  0  0  0
  150.5787  139.1639  154.7972 N   0  0  0  0  0  0  0  0  0  0  0  0
  151.3640  138.1983  154.2011 C   0  0  0  0  0  0  0  0  0  0  0  0
  152.6362  138.6448  154.4172 C   0  0  0  0  0  0  0  0  0  0  0  0
  152.5742  139.8419  155.1274 N   0  0  0  0  0  0  0  0  0  0  0  0
  151.3341  140.1408  155.3544 N   0  0  0  0  0  0  0  0  0  0  0  0
  147.8954  141.4794  155.0074 C   0  0  0  0  0  0  0  0  0  0  0  0
  146.8949  142.2014  154.1001 C   0  0  0  0  0  0  0  0  0  0  0  0
  146.4883  141.2267  153.0684 N   0  3  0  0  0  0  0  0  0  0  0  0
  147.3335  140.0225  153.1942 C   0  0  0  0  0  0  0  0  0  0  0  0
  149.7930  140.3851  152.6501 H   0  0  0  0  0  0  0  0  0  0  0  0
  148.8404  139.2630  155.9378 H   0  0  0  0  0  0  0  0  0  0  0  0
  148.7377  138.2802  154.5004 H   0  0  0  0  0  0  0  0  0  0  0  0
  150.9709  137.3248  153.7022 H   0  0  0  0  0  0  0  0  0  0  0  0
  153.5807  138.2089  154.1257 H   0  0  0  0  0  0  0  0  0  0  0  0
  147.3528  141.0074  155.8280 H   0  0  0  0  0  0  0  0  0  0  0  0
  148.6329  142.1520  155.4475 H   0  0  0  0  0  0  0  0  0  0  0  0
  146.0345  142.5811  154.6513 H   0  0  0  0  0  0  0  0  0  0  0  0
  147.3753  143.0453  153.6040 H   0  0  0  0  0  0  0  0  0  0  0  0
  145.5168  140.9753  153.1824 H   0  0  0  0  0  0  0  0  0  0  0  0
  147.6453  139.6415  152.2205 H   0  0  0  0  0  0  0  0  0  0  0  0
  146.7289  139.2498  153.6706 H   0  0  0  0  0  0  0  0  0  0  0  0
  146.6271  141.6413  152.1577 H   0  0  0  0  0  0  0  0  0  0  0  0
  1  2  1  0  0  0  0
  1 13  1  0  0  0  0
  2 12  1  0  0  0  0
  2  3  1  0  0  0  0
  2  9  1  0  0  0  0
  3  4  1  0  0  0  0
  3 14  1  0  0  0  0
  3 15  1  0  0  0  0
  4  8  1  0  0  0  0
  4  5  1  0  0  0  0
  5  6  2  0  0  0  0
  5 16  1  0  0  0  0
  6  7  1  0  0  0  0
  6 17  1  0  0  0  0
  7  8  2  0  0  0  0
  9 10  1  0  0  0  0
  9 18  1  0  0  0  0
  9 19  1  0  0  0  0
 10 11  1  0  0  0  0
 10 20  1  0  0  0  0
 10 21  1  0  0  0  0
 11 12  1  0  0  0  0
 11 22  1  0  0  0  0
 11 25  1  0  0  0  0
 12 23  1  0  0  0  0
 12 24  1  0  0  0  0
M  CHG  1  11   1
M  END
> <s_m_source_file>
AV-unprocessed.smi

> <i_m_source_file_index>
70

> <i_lp_mmshare_version>
43012

> <i_f3d_flags>
0

> <s_epik_input>
W0NIMl0xW05IXVtDSDJdW0NIMl1bQ0BAXTEoW09IXSlbQ0gyXW4yW2NIXVtjSF1ubjI=

> <s_epik_cmdline>
J2VwaWtfcHl0aG9uJywgJy1waCcsICc3LjAnLCAnLXRuJywgJzgnLCAnLW1hJywgJzIwMCcsICctbWV0YWxfYmluZGluZycsICctaW1hZScsICc8aW5maWxlLm1hZT4nLCAnLW9tYWUnLCAnPG91dGZpbGUubWFlPic=

> <r_lp_tautomer_probability>
1

> <r_epik_Ionization_Penalty>
0.00649776

> <r_epik_Ionization_Penalty_Charging>
0.00648305

> <r_epik_Ionization_Penalty_Neutral>
1.4704e-05

> <r_epik_State_Penalty>
0.00479756

> <r_epik_Charging_Adjusted_Penalty>
0.0112806

> <i_epik_Tot_Q>
1

> <i_epik_Tot_abs_Q>
1

> <r_epik_Metal_State_Penalty>
-0

> <b_epik_Metal_Only>
0

> <s_lp_Force_Field>
OPLS_2005

> <r_lp_Energy>
25.0563

> <b_lp_Chiralities_Consistent>
1

> <s_lp_Variant>
AV-unprocessed.smi:70-1

> <Gold.Version>
5.8.1

> <Gold.Id.Protein>
6NUR|6NUR_protein|mol2

> <Gold.PLP.Fitness>
41.9115

> <Gold.PLP.PLP>
-27.8661

> <Gold.PLP.part.hbond>
-6.3436

> <Gold.PLP.part.metal>
0.0000

> <Gold.PLP.part.buried>
-1.2852

> <Gold.PLP.part.nonpolar>
-18.0180

> <Gold.PLP.part.repulsive>
0.0855

> <Gold.PLP.ligand.clash>
0.0000

> <Gold.PLP.ligand.torsion>
1.0830

> <Gold.PLP.Chemscore.Hbond>
4.4918

> <Gold.PLP.Chemscore.CHOScore>
0.9113

> <Gold.PLP.Chemscore.Metal>
0.0000

> <Gold.Chemscore.Hbonds>
donor molecule, donor type, donor heavy atom, donor atom, acceptor molecule, acceptor atom, score
      L1  H     1    13       P1  7957  0.83
      L1  H    11    22       P1 10175  2.00
      P1  H  7997  8010       L1     7  0.89
      P1  H  8011  8017       L1     1  0.75
      L1  C     5    16       P1  7948  0.04
      L1  C     5    16       P1  7949  0.85

> <Gold.PLP.Chemscore.Internal.Correction>
0.0024

> <Gold.Rescore>
     Score         DG    S(hbond)    S(metal)    S(lipo)     H(rot)  DE(clash)    DE(int)     intcor
     13.28     -15.70       2.77        0.00      49.23       1.87       0.05       2.37       ----

> <Gold.Chemscore.Fitness>
13.2830

> <Gold.Chemscore.DG>
-15.7049

> <Gold.Chemscore.ZeroCoef>
-5.4800

> <Gold.Chemscore.Hbond>
2.7677

> <Gold.Chemscore.Metal>
0.0000

> <Gold.Chemscore.Lipo>
49.2290

> <Gold.Chemscore.Internal_Hbond>
0.0000

> <Gold.Chemscore.DEClash>
0.0546

> <Gold.Chemscore.DEInternal>
2.3672

> <Gold.Chemscore.Rot>
1.8669

> <Gold.Chemscore.Internal.Correction>
   9.000000E+99

> <Gold.Chemscore.Hbonds>
donor molecule, donor type, donor heavy atom, donor atom, acceptor molecule, acceptor atom, score
      L1  H     1    13       P1  7957  0.76
      L1  H    11    22       P1 10175  0.41
      P1  H  7997  8010       L1     7  0.64
      P1  H  8011  8017       L1     1  0.09

> <Gold.Chemscore.Hbond.Weighted>
-9.2442

> <Gold.Chemscore.Metal.Weighted>
-0.0000

> <Gold.Chemscore.Lipo.Weighted>
-5.7598

> <Gold.Chemscore.Internal_Hbond.Weighted>
0.0000

> <Gold.Chemscore.DEClash.Weighted>
0.0546

> <Gold.Chemscore.DEInternal.Weighted>
2.3672

> <Gold.Chemscore.Rot.Weighted>
4.7791

> <Gold.Chemscore.Internal.Correction.Weighted>
   9.000000E+99

> <Gold.Protein.RotatedTorsions>
[ 6907 6896 6895 6894 ] final   45.39 input  -60.11 | X-H torsion
[ 7974 7965 7964 7962 ] final -159.81 input  175.53 | X-H torsion
[ 8008 7997 7996 7995 ] final   87.88 input   59.86 | X-H torsion
[ 10167 10162 10161 10158 ] final  -75.56 input  -65.29 | X-H torsion
[ 10718 10713 10712 10709 ] final   78.99 input   66.30 | X-H torsion
[ 10763 10752 10751 10750 ] final  -86.96 input  -60.55 | X-H torsion
[ 11005 11000 10999 10996 ] final  -36.74 input  -57.11 | X-H torsion

> <Gold.Protein.ActiveResidues>
 VAL166  LYS551  ARG553  GLY616  TRP617  ASP618  TYR619  PRO620  LYS621  CYS622 
 ASP623  PHE694  ASN695  SER759  ASP760  ASP761  ALA762  ILE779  LEU786  VAL792 
 PHE793  MET794  SER795  GLU796  ALA797  LYS798  CYS799  TRP800  GLU811  SER814 

> <Gold.Protein.RotatedAtoms>
  152.2439  134.8200  160.0455 H   0  0  0  0  0  0  0  0  0  0  0  0  # atno 6907 bound_to 6896
  151.8905  133.3510  159.3805 H   0  0  0  0  0  0  0  0  0  0  0  0  # atno 6908 bound_to 6896
  150.7062  134.4855  159.5535 H   0  0  0  0  0  0  0  0  0  0  0  0  # atno 6909 bound_to 6896
  144.7451  140.3631  143.6092 H   0  0  0  0  0  0  0  0  0  0  0  0  # atno 7974 bound_to 7965
  155.9809  140.3377  155.6662 H   0  0  0  0  0  0  0  0  0  0  0  0  # atno 8008 bound_to 7997
  155.6550  140.0710  157.2592 H   0  0  0  0  0  0  0  0  0  0  0  0  # atno 8009 bound_to 7997
  154.4191  140.1719  156.1703 H   0  0  0  0  0  0  0  0  0  0  0  0  # atno 8010 bound_to 7997
  140.4932  143.2376  151.7874 H   0  0  0  0  0  0  0  0  0  0  0  0  # atno 10167 bound_to 10162
  157.6762  130.9893  150.1867 H   0  0  0  0  0  0  0  0  0  0  0  0  # atno 10718 bound_to 10713
  154.6283  135.5430  153.7652 H   0  0  0  0  0  0  0  0  0  0  0  0  # atno 10763 bound_to 10752
  153.0272  135.6429  154.1338 H   0  0  0  0  0  0  0  0  0  0  0  0  # atno 10764 bound_to 10752
  154.1270  135.2916  155.3174 H   0  0  0  0  0  0  0  0  0  0  0  0  # atno 10765 bound_to 10752
  140.9898  133.7011  156.1830 H   0  0  0  0  0  0  0  0  0  0  0  0  # atno 11005 bound_to 11000
  145.7156  139.1696  143.2514 LP  0  0  0  0  0  0  0  0  0  0  0  0  # atno 17320 bound_to 7965
  146.1315  140.7179  142.9410 LP  0  0  0  0  0  0  0  0  0  0  0  0  # atno 17321 bound_to 7965
  139.4855  144.4622  151.9527 LP  0  0  0  0  0  0  0  0  0  0  0  0  # atno 17342 bound_to 10162
  140.3709  144.2856  150.5920 LP  0  0  0  0  0  0  0  0  0  0  0  0  # atno 17343 bound_to 10162
  156.2587  130.3708  149.8153 LP  0  0  0  0  0  0  0  0  0  0  0  0  # atno 17370 bound_to 10713
  156.5905  130.8504  151.3407 LP  0  0  0  0  0  0  0  0  0  0  0  0  # atno 17371 bound_to 10713
  140.7057  134.4516  157.5584 LP  0  0  0  0  0  0  0  0  0  0  0  0  # atno 17394 bound_to 11000
  139.8987  134.8607  156.1990 LP  0  0  0  0  0  0  0  0  0  0  0  0  # atno 17395 bound_to 11000

$$$$
