AV-unprocessed.smi:3237|AV-procd|sdf|12370|dock1
  -GOLD-   2272018233D 1   1.00000     0.00000
 Structure written by MMmdl.
 36 38  0  0  0  0  0  0  0  0  3 V2000
  146.5435  136.0618  162.4487 C   0  0  0  0  0  0  0  0  0  0  0  0
  147.3718  135.8152  161.2343 C   0  0  0  0  0  0  0  0  0  0  0  0
  147.6273  134.6938  160.4972 C   0  0  0  0  0  0  0  0  0  0  0  0
  148.5038  135.1652  159.4820 C   0  0  0  0  0  0  0  0  0  0  0  0
  149.0331  134.4295  158.4922 N   0  5  0  0  0  0  0  0  0  0  0  0
  148.9841  134.8715  157.2152 C   0  0  0  0  0  0  0  0  0  0  0  0
  149.0730  136.0428  156.8401 O   0  0  0  0  0  0  0  0  0  0  0  0
  148.8226  133.8934  156.3135 N   0  0  0  0  0  0  0  0  0  0  0  0
  148.7323  134.0802  154.8700 C   0  0  1  0  0  0  0  0  0  0  0  0
  148.8538  132.7895  154.0550 C   0  0  0  0  0  0  0  0  0  0  0  0
  147.9979  133.0413  152.8022 C   0  0  0  0  0  0  0  0  0  0  0  0
  147.2990  134.3305  153.0134 N   0  3  1  0  0  0  0  0  0  0  0  0
  145.9353  134.3854  152.4464 C   0  0  0  0  0  0  0  0  0  0  0  0
  145.9059  134.3161  150.9383 C   0  0  0  0  0  0  0  0  0  0  0  0
  145.6655  135.6345  151.6419 C   0  0  0  0  0  0  0  0  0  0  0  0
  147.3643  134.6111  154.4575 C   0  0  0  0  0  0  0  0  0  0  0  0
  148.7457  136.4614  159.5842 N   0  0  0  0  0  0  0  0  0  0  0  0
  148.0289  136.8845  160.7100 O   0  0  0  0  0  0  0  0  0  0  0  0
  145.5976  135.5235  162.3866 H   0  0  0  0  0  0  0  0  0  0  0  0
  146.3205  137.1228  162.5634 H   0  0  0  0  0  0  0  0  0  0  0  0
  147.0658  135.7268  163.3449 H   0  0  0  0  0  0  0  0  0  0  0  0
  147.2513  133.6949  160.6597 H   0  0  0  0  0  0  0  0  0  0  0  0
  148.7527  132.9488  156.6632 H   0  0  0  0  0  0  0  0  0  0  0  0
  149.4947  134.7899  154.5417 H   0  0  0  0  0  0  0  0  0  0  0  0
  149.8902  132.5536  153.8119 H   0  0  0  0  0  0  0  0  0  0  0  0
  148.4449  131.9457  154.6131 H   0  0  0  0  0  0  0  0  0  0  0  0
  148.6094  133.1034  151.9016 H   0  0  0  0  0  0  0  0  0  0  0  0
  147.2873  132.2246  152.6655 H   0  0  0  0  0  0  0  0  0  0  0  0
  145.1441  133.9259  153.0366 H   0  0  0  0  0  0  0  0  0  0  0  0
  146.8499  134.1927  150.4100 H   0  0  0  0  0  0  0  0  0  0  0  0
  145.0472  133.8355  150.4741 H   0  0  0  0  0  0  0  0  0  0  0  0
  144.6485  136.0214  151.6410 H   0  0  0  0  0  0  0  0  0  0  0  0
  146.4494  136.3876  151.5808 H   0  0  0  0  0  0  0  0  0  0  0  0
  146.5695  134.0700  154.9751 H   0  0  0  0  0  0  0  0  0  0  0  0
  147.2469  135.6749  154.6670 H   0  0  0  0  0  0  0  0  0  0  0  0
  147.8564  135.0397  152.5589 H   0  0  0  0  0  0  0  0  0  0  0  0
  1  2  1  0  0  0  0
  1 19  1  0  0  0  0
  1 20  1  0  0  0  0
  1 21  1  0  0  0  0
  2 18  1  0  0  0  0
  2  3  2  0  0  0  0
  3  4  1  0  0  0  0
  3 22  1  0  0  0  0
  4  5  1  0  0  0  0
  4 17  2  0  0  0  0
  5  6  1  0  0  0  0
  6  7  2  0  0  0  0
  6  8  1  0  0  0  0
  8  9  1  0  0  0  0
  8 23  1  0  0  0  0
  9 16  1  0  0  0  0
  9 10  1  0  0  0  0
  9 24  1  0  0  0  0
 10 11  1  0  0  0  0
 10 25  1  0  0  0  0
 10 26  1  0  0  0  0
 11 12  1  0  0  0  0
 11 27  1  0  0  0  0
 11 28  1  0  0  0  0
 12 13  1  0  0  0  0
 12 16  1  0  0  0  0
 12 36  1  0  0  0  0
 13 15  1  0  0  0  0
 13 14  1  0  0  0  0
 13 29  1  0  0  0  0
 14 15  1  0  0  0  0
 14 30  1  0  0  0  0
 14 31  1  0  0  0  0
 15 32  1  0  0  0  0
 15 33  1  0  0  0  0
 16 34  1  0  0  0  0
 16 35  1  0  0  0  0
 17 18  1  0  0  0  0
M  CHG  1   5  -1
M  CHG  1  12   1
M  END
> <s_m_source_file>
AV-unprocessed.smi

> <i_m_source_file_index>
3237

> <i_lp_mmshare_version>
43012

> <i_f3d_flags>
0

> <s_epik_input>
W0NIM11jMVtjSF1jKG5vMSlbTkhdQyg9TylbTkhdW0NAQEhdMltDSDJdW0NIMl1OKFtDSDJdMilbQ0hdM1tDSDJdW0NIMl0z

> <s_epik_cmdline>
J2VwaWtfcHl0aG9uJywgJy1waCcsICc3LjAnLCAnLXRuJywgJzgnLCAnLW1hJywgJzIwMCcsICctbWV0YWxfYmluZGluZycsICctaW1hZScsICc8aW5maWxlLm1hZT4nLCAnLW9tYWUnLCAnPG91dGZpbGUubWFlPic=

> <r_epik_Ionization_Penalty>
6.08472

> <r_epik_Ionization_Penalty_Charging>
6.08464

> <r_epik_Ionization_Penalty_Neutral>
8.41751e-05

> <r_epik_State_Penalty>
6.08438

> <r_epik_Charging_Adjusted_Penalty>
12.169

> <i_epik_Tot_Q>
0

> <i_epik_Tot_abs_Q>
2

> <r_epik_Metal_State_Penalty>
2.0369

> <b_epik_Metal_Only>
1

> <s_lp_Force_Field>
OPLS_2005

> <r_lp_Energy>
23.7623

> <b_lp_Chiralities_Consistent>
1

> <s_lp_Variant>
AV-unprocessed.smi:3237-8

> <Gold.Version>
5.8.1

> <Gold.Id.Protein>
6NUR|6NUR_protein|mol2

> <Gold.PLP.Fitness>
43.3816

> <Gold.PLP.PLP>
-27.9243

> <Gold.PLP.part.hbond>
-4.0000

> <Gold.PLP.part.metal>
0.0000

> <Gold.PLP.part.buried>
-3.2607

> <Gold.PLP.part.nonpolar>
-20.7296

> <Gold.PLP.part.repulsive>
0.0468

> <Gold.PLP.ligand.clash>
0.0000

> <Gold.PLP.ligand.torsion>
1.5218

> <Gold.PLP.Chemscore.Hbond>
5.6960

> <Gold.PLP.Chemscore.CHOScore>
0.0000

> <Gold.PLP.Chemscore.Metal>
0.0000

> <Gold.Chemscore.Hbonds>
donor molecule, donor type, donor heavy atom, donor atom, acceptor molecule, acceptor atom, score
      L1  H    12    36       P1  7948  2.00
      P1  H  6896  6908       L1     5  1.00
      P1  H  6931  6943       L1    18  0.86
      P1  H  6934  6947       L1    18  0.25

> <Gold.PLP.Chemscore.Internal.Correction>
1.4129

> <Gold.Rescore>
     Score         DG    S(hbond)    S(metal)    S(lipo)     H(rot)  DE(clash)    DE(int)     intcor
     14.74     -17.78       2.70        0.00      55.27       1.25       0.11       2.93       ----

> <Gold.Chemscore.Fitness>
14.7398

> <Gold.Chemscore.DG>
-17.7771

> <Gold.Chemscore.ZeroCoef>
-5.4800

> <Gold.Chemscore.Hbond>
2.7011

> <Gold.Chemscore.Metal>
0.0000

> <Gold.Chemscore.Lipo>
55.2670

> <Gold.Chemscore.Internal_Hbond>
0.0000

> <Gold.Chemscore.DEClash>
0.1103

> <Gold.Chemscore.DEInternal>
2.9270

> <Gold.Chemscore.Rot>
1.2464

> <Gold.Chemscore.Internal.Correction>
   9.000000E+99

> <Gold.Chemscore.Hbonds>
donor molecule, donor type, donor heavy atom, donor atom, acceptor molecule, acceptor atom, score
      L1  H    12    36       P1  7948  0.96
      P1  H  6896  6908       L1     5  0.02
      P1  H  6931  6943       L1    18  0.70
      P1  H  6934  6947       L1    18  0.24

> <Gold.Chemscore.Hbond.Weighted>
-9.0217

> <Gold.Chemscore.Metal.Weighted>
-0.0000

> <Gold.Chemscore.Lipo.Weighted>
-6.4662

> <Gold.Chemscore.Internal_Hbond.Weighted>
0.0000

> <Gold.Chemscore.DEClash.Weighted>
0.1103

> <Gold.Chemscore.DEInternal.Weighted>
2.9270

> <Gold.Chemscore.Rot.Weighted>
3.1909

> <Gold.Chemscore.Internal.Correction.Weighted>
   9.000000E+99

> <Gold.Protein.RotatedTorsions>
[ 6907 6896 6895 6894 ] final  153.55 input  -60.11 | X-H torsion
[ 7974 7965 7964 7962 ] final  132.70 input  175.53 | X-H torsion
[ 8008 7997 7996 7995 ] final  151.83 input   59.86 | X-H torsion
[ 10167 10162 10161 10158 ] final  -14.16 input  -65.29 | X-H torsion
[ 10718 10713 10712 10709 ] final   32.73 input   66.30 | X-H torsion
[ 10763 10752 10751 10750 ] final   12.60 input  -60.55 | X-H torsion
[ 11005 11000 10999 10996 ] final -138.94 input  -57.11 | X-H torsion

> <Gold.Protein.ActiveResidues>
 VAL166  LYS551  ARG553  GLY616  TRP617  ASP618  TYR619  PRO620  LYS621  CYS622 
 ASP623  PHE694  ASN695  SER759  ASP760  ASP761  ALA762  ILE779  LEU786  VAL792 
 PHE793  MET794  SER795  GLU796  ALA797  LYS798  CYS799  TRP800  GLU811  SER814 

> <Gold.Protein.RotatedAtoms>
  152.0710  133.4107  159.4459 H   0  0  0  0  0  0  0  0  0  0  0  0  # atno 6907 bound_to 6896
  150.6863  134.3091  159.4748 H   0  0  0  0  0  0  0  0  0  0  0  0  # atno 6908 bound_to 6896
  152.0923  134.9398  160.0622 H   0  0  0  0  0  0  0  0  0  0  0  0  # atno 6909 bound_to 6896
  144.9941  139.4377  143.5324 H   0  0  0  0  0  0  0  0  0  0  0  0  # atno 7974 bound_to 7965
  156.2657  140.2037  156.6237 H   0  0  0  0  0  0  0  0  0  0  0  0  # atno 8008 bound_to 7997
  154.6737  140.0547  157.0217 H   0  0  0  0  0  0  0  0  0  0  0  0  # atno 8009 bound_to 7997
  155.1100  140.3214  155.4527 H   0  0  0  0  0  0  0  0  0  0  0  0  # atno 8010 bound_to 7997
  140.7196  143.5350  150.9475 H   0  0  0  0  0  0  0  0  0  0  0  0  # atno 10167 bound_to 10162
  157.2889  130.7293  149.6599 H   0  0  0  0  0  0  0  0  0  0  0  0  # atno 10718 bound_to 10713
  153.1806  135.6827  153.8484 H   0  0  0  0  0  0  0  0  0  0  0  0  # atno 10763 bound_to 10752
  153.7817  135.3181  155.3368 H   0  0  0  0  0  0  0  0  0  0  0  0  # atno 10764 bound_to 10752
  154.8057  135.4750  154.0481 H   0  0  0  0  0  0  0  0  0  0  0  0  # atno 10765 bound_to 10752
  140.8567  134.2219  157.4730 H   0  0  0  0  0  0  0  0  0  0  0  0  # atno 11005 bound_to 11000
  146.3438  139.9291  142.8756 LP  0  0  0  0  0  0  0  0  0  0  0  0  # atno 17320 bound_to 7965
  145.2244  140.9948  143.4027 LP  0  0  0  0  0  0  0  0  0  0  0  0  # atno 17321 bound_to 7965
  139.9071  143.6765  152.3121 LP  0  0  0  0  0  0  0  0  0  0  0  0  # atno 17342 bound_to 10162
  139.7135  144.7616  151.1073 LP  0  0  0  0  0  0  0  0  0  0  0  0  # atno 17343 bound_to 10162
  155.9666  130.4315  150.4922 LP  0  0  0  0  0  0  0  0  0  0  0  0  # atno 17370 bound_to 10713
  157.2881  131.0620  151.2153 LP  0  0  0  0  0  0  0  0  0  0  0  0  # atno 17371 bound_to 10713
  139.8705  134.9710  156.4720 LP  0  0  0  0  0  0  0  0  0  0  0  0  # atno 17394 bound_to 11000
  140.8729  133.7975  155.9383 LP  0  0  0  0  0  0  0  0  0  0  0  0  # atno 17395 bound_to 11000

$$$$
