AV-unprocessed.smi:1289|AV-procd|sdf|5387|dock6
  -GOLD-   22720 4533D 1   1.00000     0.00000
 Structure written by MMmdl.
 38 40  0  0  0  0  0  0  0  0  2 V2000
  147.3822  131.2684  153.7487 N   0  0  0  0  0  0  0  0  0  0  0  0
  147.8630  132.2666  154.0820 C   0  0  0  0  0  0  0  0  0  0  0  0
  148.4671  133.5204  154.5005 C   0  0  0  0  0  0  0  0  0  0  0  0
  147.6536  134.6100  154.8687 C   0  0  0  0  0  0  0  0  0  0  0  0
  148.2425  135.8226  155.2763 C   0  0  0  0  0  0  0  0  0  0  0  0
  149.6444  135.9659  155.3226 C   0  0  0  0  0  0  0  0  0  0  0  0
  150.1337  137.1866  155.7342 O   0  0  0  0  0  0  0  0  0  0  0  0
  151.5342  137.4187  155.6436 C   0  0  0  0  0  0  0  0  0  0  0  0
  151.8317  138.9146  155.8390 C   0  0  2  0  0  0  0  0  0  0  0  0
  153.2253  139.1290  155.7417 O   0  0  0  0  0  0  0  0  0  0  0  0
  151.2534  139.4934  157.1462 C   0  0  0  0  0  0  0  0  0  0  0  0
  151.0750  140.9512  157.0930 N   0  0  0  0  0  0  0  0  0  0  0  0
  150.3102  141.7015  156.2543 C   0  0  0  0  0  0  0  0  0  0  0  0
  150.4728  143.0071  156.6057 N   0  3  0  0  0  0  0  0  0  0  0  0
  151.3532  143.0931  157.6862 C   0  0  0  0  0  0  0  0  0  0  0  0
  151.8251  144.1964  158.3909 C   0  0  0  0  0  0  0  0  0  0  0  0
  152.7219  143.9362  159.4477 C   0  0  0  0  0  0  0  0  0  0  0  0
  153.1175  142.6213  159.7686 C   0  0  0  0  0  0  0  0  0  0  0  0
  152.6328  141.5102  159.0476 C   0  0  0  0  0  0  0  0  0  0  0  0
  151.7449  141.7754  158.0052 C   0  0  0  0  0  0  0  0  0  0  0  0
  150.4565  134.8653  154.9487 C   0  0  0  0  0  0  0  0  0  0  0  0
  149.8693  133.6515  154.5407 C   0  0  0  0  0  0  0  0  0  0  0  0
  146.5768  134.5231  154.8415 H   0  0  0  0  0  0  0  0  0  0  0  0
  147.6108  136.6525  155.5574 H   0  0  0  0  0  0  0  0  0  0  0  0
  152.0802  136.8241  156.3781 H   0  0  0  0  0  0  0  0  0  0  0  0
  151.8796  137.1205  154.6523 H   0  0  0  0  0  0  0  0  0  0  0  0
  151.3873  139.4508  154.9995 H   0  0  0  0  0  0  0  0  0  0  0  0
  153.6123  138.3892  155.2992 H   0  0  0  0  0  0  0  0  0  0  0  0
  150.2725  139.0578  157.3398 H   0  0  0  0  0  0  0  0  0  0  0  0
  151.8732  139.2416  158.0069 H   0  0  0  0  0  0  0  0  0  0  0  0
  149.6854  141.3285  155.4553 H   0  0  0  0  0  0  0  0  0  0  0  0
  151.5242  145.2046  158.1467 H   0  0  0  0  0  0  0  0  0  0  0  0
  153.1148  144.7618  160.0235 H   0  0  0  0  0  0  0  0  0  0  0  0
  153.8078  142.4611  160.5840 H   0  0  0  0  0  0  0  0  0  0  0  0
  152.9465  140.5077  159.2993 H   0  0  0  0  0  0  0  0  0  0  0  0
  151.5339  134.9255  154.9662 H   0  0  0  0  0  0  0  0  0  0  0  0
  150.5033  132.8228  154.2596 H   0  0  0  0  0  0  0  0  0  0  0  0
  150.0142  143.7806  156.1411 H   0  0  0  0  0  0  0  0  0  0  0  0
  1  2  3  0  0  0  0
  2  3  1  0  0  0  0
  3 22  1  0  0  0  0
  3  4  2  0  0  0  0
  4  5  1  0  0  0  0
  4 23  1  0  0  0  0
  5  6  2  0  0  0  0
  5 24  1  0  0  0  0
  6  7  1  0  0  0  0
  6 21  1  0  0  0  0
  7  8  1  0  0  0  0
  8  9  1  0  0  0  0
  8 25  1  0  0  0  0
  8 26  1  0  0  0  0
  9 10  1  0  0  0  0
  9 11  1  0  0  0  0
  9 27  1  0  0  0  0
 10 28  1  0  0  0  0
 11 12  1  0  0  0  0
 11 29  1  0  0  0  0
 11 30  1  0  0  0  0
 12 20  1  0  0  0  0
 12 13  1  0  0  0  0
 13 14  2  0  0  0  0
 13 31  1  0  0  0  0
 14 15  1  0  0  0  0
 14 38  1  0  0  0  0
 15 20  2  0  0  0  0
 15 16  1  0  0  0  0
 16 17  2  0  0  0  0
 16 32  1  0  0  0  0
 17 18  1  0  0  0  0
 17 33  1  0  0  0  0
 18 19  2  0  0  0  0
 18 34  1  0  0  0  0
 19 20  1  0  0  0  0
 19 35  1  0  0  0  0
 21 22  2  0  0  0  0
 21 36  1  0  0  0  0
 22 37  1  0  0  0  0
M  CHG  1  14   1
M  END
> <s_m_source_file>
AV-unprocessed.smi

> <i_m_source_file_index>
1289

> <i_lp_mmshare_version>
43012

> <i_f3d_flags>
0

> <s_epik_input>
TiNDYzFbY0hdW2NIXWMoW2NIXVtjSF0xKU9bQ0gyXVtDQEhdKFtPSF0pW0NIMl1uKFtjSF1uMiljKGMyMylbY0hdW2NIXVtjSF1bY0hdMw==

> <s_epik_cmdline>
J2VwaWtfcHl0aG9uJywgJy1waCcsICc3LjAnLCAnLXRuJywgJzgnLCAnLW1hJywgJzIwMCcsICctbWV0YWxfYmluZGluZycsICctaW1hZScsICc8aW5maWxlLm1hZT4nLCAnLW9tYWUnLCAnPG91dGZpbGUubWFlPic=

> <r_epik_Ionization_Penalty>
1.39523

> <r_epik_Ionization_Penalty_Charging>
1.39523

> <r_epik_Ionization_Penalty_Neutral>
2.3993e-06

> <r_epik_State_Penalty>
1.47691

> <r_epik_Charging_Adjusted_Penalty>
2.87215

> <i_epik_Tot_Q>
1

> <i_epik_Tot_abs_Q>
1

> <r_epik_Metal_State_Penalty>
5.51858

> <b_epik_Metal_Only>
0

> <s_lp_Force_Field>
OPLS_2005

> <r_lp_Energy>
21.3748

> <b_lp_Chiralities_Consistent>
1

> <s_lp_Variant>
AV-unprocessed.smi:1289-3

> <Gold.Version>
5.8.1

> <Gold.Id.Protein>
6NUR|6NUR_protein|mol2

> <Gold.PLP.Fitness>
50.2445

> <Gold.PLP.PLP>
-41.7169

> <Gold.PLP.part.hbond>
-1.8928

> <Gold.PLP.part.metal>
0.0000

> <Gold.PLP.part.buried>
-5.8607

> <Gold.PLP.part.nonpolar>
-35.1395

> <Gold.PLP.part.repulsive>
0.2289

> <Gold.PLP.ligand.clash>
0.0000

> <Gold.PLP.ligand.torsion>
0.2904

> <Gold.PLP.Chemscore.Hbond>
3.0000

> <Gold.PLP.Chemscore.CHOScore>
0.0000

> <Gold.PLP.Chemscore.Metal>
0.0000

> <Gold.Chemscore.Hbonds>
donor molecule, donor type, donor heavy atom, donor atom, acceptor molecule, acceptor atom, score
      L1  H    14    38       P1  8028  2.00
      P1  H  7997  8008       L1    10  1.00

> <Gold.PLP.Chemscore.Internal.Correction>
0.1083

> <Gold.Rescore>
     Score         DG    S(hbond)    S(metal)    S(lipo)     H(rot)  DE(clash)    DE(int)     intcor
     17.70     -18.09       1.93        0.00     109.15       2.58       0.07       0.33       ----

> <Gold.Chemscore.Fitness>
17.7004

> <Gold.Chemscore.DG>
-18.0938

> <Gold.Chemscore.ZeroCoef>
-5.4800

> <Gold.Chemscore.Hbond>
1.9304

> <Gold.Chemscore.Metal>
0.0000

> <Gold.Chemscore.Lipo>
109.1503

> <Gold.Chemscore.Internal_Hbond>
0.0000

> <Gold.Chemscore.DEClash>
0.0668

> <Gold.Chemscore.DEInternal>
0.3266

> <Gold.Chemscore.Rot>
2.5798

> <Gold.Chemscore.Internal.Correction>
   9.000000E+99

> <Gold.Chemscore.Hbonds>
donor molecule, donor type, donor heavy atom, donor atom, acceptor molecule, acceptor atom, score
      L1  H    14    38       P1  8028  0.93
      P1  H  7997  8008       L1    10  0.63

> <Gold.Chemscore.Hbond.Weighted>
-6.4475

> <Gold.Chemscore.Metal.Weighted>
-0.0000

> <Gold.Chemscore.Lipo.Weighted>
-12.7706

> <Gold.Chemscore.Internal_Hbond.Weighted>
0.0000

> <Gold.Chemscore.DEClash.Weighted>
0.0668

> <Gold.Chemscore.DEInternal.Weighted>
0.3266

> <Gold.Chemscore.Rot.Weighted>
6.6043

> <Gold.Chemscore.Internal.Correction.Weighted>
   9.000000E+99

> <Gold.Protein.RotatedTorsions>
[ 6907 6896 6895 6894 ] final  -36.13 input  -60.11 | X-H torsion
[ 7974 7965 7964 7962 ] final -113.54 input  175.53 | X-H torsion
[ 8008 7997 7996 7995 ] final  -30.73 input   59.86 | X-H torsion
[ 10167 10162 10161 10158 ] final   85.08 input  -65.29 | X-H torsion
[ 10718 10713 10712 10709 ] final   42.19 input   66.30 | X-H torsion
[ 10763 10752 10751 10750 ] final   64.97 input  -60.55 | X-H torsion
[ 11005 11000 10999 10996 ] final -122.08 input  -57.11 | X-H torsion

> <Gold.Protein.ActiveResidues>
 VAL166  LYS551  ARG553  GLY616  TRP617  ASP618  TYR619  PRO620  LYS621  CYS622 
 ASP623  PHE694  ASN695  SER759  ASP760  ASP761  ALA762  ILE779  LEU786  VAL792 
 PHE793  MET794  SER795  GLU796  ALA797  LYS798  CYS799  TRP800  GLU811  SER814 

> <Gold.Protein.RotatedAtoms>
  151.0310  134.9539  159.8110 H   0  0  0  0  0  0  0  0  0  0  0  0  # atno 6907 bound_to 6896
  152.5345  134.2780  159.9007 H   0  0  0  0  0  0  0  0  0  0  0  0  # atno 6908 bound_to 6896
  151.2790  133.4176  159.2660 H   0  0  0  0  0  0  0  0  0  0  0  0  # atno 6909 bound_to 6896
  145.1308  140.8723  143.3759 H   0  0  0  0  0  0  0  0  0  0  0  0  # atno 7974 bound_to 7965
  154.4239  140.1783  156.1454 H   0  0  0  0  0  0  0  0  0  0  0  0  # atno 8008 bound_to 7997
  155.9958  140.3364  155.6772 H   0  0  0  0  0  0  0  0  0  0  0  0  # atno 8009 bound_to 7997
  155.6311  140.0670  157.2639 H   0  0  0  0  0  0  0  0  0  0  0  0  # atno 8010 bound_to 7997
  139.9014  144.6327  150.8633 H   0  0  0  0  0  0  0  0  0  0  0  0  # atno 10167 bound_to 10162
  157.4020  130.7865  149.7356 H   0  0  0  0  0  0  0  0  0  0  0  0  # atno 10718 bound_to 10713
  153.0077  135.5374  154.6594 H   0  0  0  0  0  0  0  0  0  0  0  0  # atno 10763 bound_to 10752
  154.5806  135.2849  155.0738 H   0  0  0  0  0  0  0  0  0  0  0  0  # atno 10764 bound_to 10752
  154.1869  135.6507  153.5102 H   0  0  0  0  0  0  0  0  0  0  0  0  # atno 10765 bound_to 10752
  141.0022  134.0386  157.3523 H   0  0  0  0  0  0  0  0  0  0  0  0  # atno 11005 bound_to 11000
  145.0637  139.3085  143.5867 LP  0  0  0  0  0  0  0  0  0  0  0  0  # atno 17320 bound_to 7965
  146.3514  140.0088  142.8669 LP  0  0  0  0  0  0  0  0  0  0  0  0  # atno 17321 bound_to 7965
  140.7706  143.3434  151.2161 LP  0  0  0  0  0  0  0  0  0  0  0  0  # atno 17342 bound_to 10162
  139.7022  143.9514  152.2910 LP  0  0  0  0  0  0  0  0  0  0  0  0  # atno 17343 bound_to 10162
  155.9826  130.4008  150.3409 LP  0  0  0  0  0  0  0  0  0  0  0  0  # atno 17370 bound_to 10713
  157.1537  131.0327  151.2873 LP  0  0  0  0  0  0  0  0  0  0  0  0  # atno 17371 bound_to 10713
  139.9045  135.0175  156.7421 LP  0  0  0  0  0  0  0  0  0  0  0  0  # atno 17394 bound_to 11000
  140.6870  133.9423  155.7944 LP  0  0  0  0  0  0  0  0  0  0  0  0  # atno 17395 bound_to 11000

$$$$
