AV-unprocessed.smi:102|AV-procd|sdf|960|dock2
  -GOLD-   2262017503D 1   1.00000     0.00000
 Structure written by MMmdl.
 44 45  0  0  0  0  0  0  0  0  1 V2000
  151.6918  140.7984  159.4103 C   0  0  0  0  0  0  0  0  0  0  0  0
  152.5690  139.7917  158.6780 C   0  0  0  0  0  0  0  0  0  0  0  0
  153.7174  139.5497  159.0504 O   0  0  0  0  0  0  0  0  0  0  0  0
  151.9429  139.2370  157.6240 O   0  0  0  0  0  0  0  0  0  0  0  0
  152.5856  138.2306  156.8539 C   0  0  0  0  0  0  0  0  0  0  0  0
  151.6567  137.7099  155.7401 C   0  0  1  0  0  0  0  0  0  0  0  0
  151.9407  136.3420  155.4634 O   0  0  0  0  0  0  0  0  0  0  0  0
  151.1984  135.5153  156.3075 C   0  0  2  0  0  0  0  0  0  0  0  0
  150.6659  134.3566  155.4927 N   0  0  0  0  0  0  0  0  0  0  0  0
  149.8316  134.5705  154.4036 C   0  0  0  0  0  0  0  0  0  0  0  0
  149.3171  133.5622  153.6612 C   0  0  0  0  0  0  0  0  0  0  0  0
  148.5136  133.8463  152.6221 F   0  0  0  0  0  0  0  0  0  0  0  0
  149.6220  132.1710  153.9824 C   0  0  0  0  0  0  0  0  0  0  0  0
  149.2074  131.1905  153.3677 O   0  0  0  0  0  0  0  0  0  0  0  0
  150.4550  132.0038  155.0928 N   0  0  0  0  0  0  0  0  0  0  0  0
  150.9875  133.0339  155.8698 C   0  0  0  0  0  0  0  0  0  0  0  0
  151.6925  132.7687  156.8424 O   0  0  0  0  0  0  0  0  0  0  0  0
  150.0775  136.3670  156.9375 C   0  0  2  0  0  0  0  0  0  0  0  0
  148.7886  135.7654  156.8364 O   0  0  0  0  0  0  0  0  0  0  0  0
  148.4684  134.7182  157.6115 C   0  0  0  0  0  0  0  0  0  0  0  0
  147.1103  134.1291  157.2555 C   0  0  0  0  0  0  0  0  0  0  0  0
  149.1539  134.2543  158.5223 O   0  0  0  0  0  0  0  0  0  0  0  0
  150.1880  137.6850  156.1760 C   0  0  2  0  0  0  0  0  0  0  0  0
  149.3497  137.6812  155.0233 O   0  0  0  0  0  0  0  0  0  0  0  0
  149.2702  138.7633  154.2317 C   0  0  0  0  0  0  0  0  0  0  0  0
  147.9837  138.7903  153.4178 C   0  0  0  0  0  0  0  0  0  0  0  0
  150.1137  139.6545  154.1345 O   0  0  0  0  0  0  0  0  0  0  0  0
  150.6857  131.0575  155.3582 H   0  0  0  0  0  0  0  0  0  0  0  0
  150.7190  140.3617  159.6365 H   0  0  0  0  0  0  0  0  0  0  0  0
  151.5399  141.6850  158.7948 H   0  0  0  0  0  0  0  0  0  0  0  0
  152.1593  141.1037  160.3467 H   0  0  0  0  0  0  0  0  0  0  0  0
  153.5401  138.5765  156.4542 H   0  0  0  0  0  0  0  0  0  0  0  0
  152.8179  137.4106  157.5338 H   0  0  0  0  0  0  0  0  0  0  0  0
  151.7966  138.3157  154.8438 H   0  0  0  0  0  0  0  0  0  0  0  0
  151.8789  135.0989  157.0519 H   0  0  0  0  0  0  0  0  0  0  0  0
  149.5686  135.5807  154.1273 H   0  0  0  0  0  0  0  0  0  0  0  0
  150.3508  136.5219  157.9825 H   0  0  0  0  0  0  0  0  0  0  0  0
  147.0019  134.0470  156.1738 H   0  0  0  0  0  0  0  0  0  0  0  0
  146.3120  134.7658  157.6371 H   0  0  0  0  0  0  0  0  0  0  0  0
  146.9988  133.1354  157.6900 H   0  0  0  0  0  0  0  0  0  0  0  0
  149.9339  138.5247  156.8250 H   0  0  0  0  0  0  0  0  0  0  0  0
  147.1177  138.8072  154.0797 H   0  0  0  0  0  0  0  0  0  0  0  0
  147.9184  137.9063  152.7832 H   0  0  0  0  0  0  0  0  0  0  0  0
  147.9506  139.6755  152.7822 H   0  0  0  0  0  0  0  0  0  0  0  0
  1  2  1  0  0  0  0
  1 29  1  0  0  0  0
  1 30  1  0  0  0  0
  1 31  1  0  0  0  0
  2  3  2  0  0  0  0
  2  4  1  0  0  0  0
  4  5  1  0  0  0  0
  5  6  1  0  0  0  0
  5 32  1  0  0  0  0
  5 33  1  0  0  0  0
  6 23  1  0  0  0  0
  6  7  1  0  0  0  0
  6 34  1  0  0  0  0
  7  8  1  0  0  0  0
  8  9  1  0  0  0  0
  8 18  1  0  0  0  0
  8 35  1  0  0  0  0
  9 16  1  0  0  0  0
  9 10  1  0  0  0  0
 10 11  2  0  0  0  0
 10 36  1  0  0  0  0
 11 12  1  0  0  0  0
 11 13  1  0  0  0  0
 13 14  2  0  0  0  0
 13 15  1  0  0  0  0
 15 28  1  0  0  0  0
 15 16  1  0  0  0  0
 16 17  2  0  0  0  0
 18 19  1  0  0  0  0
 18 23  1  0  0  0  0
 18 37  1  0  0  0  0
 19 20  1  0  0  0  0
 20 21  1  0  0  0  0
 20 22  2  0  0  0  0
 21 38  1  0  0  0  0
 21 39  1  0  0  0  0
 21 40  1  0  0  0  0
 23 24  1  0  0  0  0
 23 41  1  0  0  0  0
 24 25  1  0  0  0  0
 25 26  1  0  0  0  0
 25 27  2  0  0  0  0
 26 42  1  0  0  0  0
 26 43  1  0  0  0  0
 26 44  1  0  0  0  0
M  END
> <s_m_source_file>
AV-unprocessed.smi

> <i_m_source_file_index>
102

> <i_lp_mmshare_version>
43012

> <i_f3d_flags>
0

> <s_epik_input>
W0NIM11DKD1PKU9bQ0gyXVtDQEBIXTFPW0NASF0oW0NAQEhdKE9DKD1PKVtDSDNdKVtDQEhdMU9DKD1PKVtDSDNdKW4yW2NIXWMoRiljKD1PKVtuSF1jMj1P

> <s_epik_cmdline>
J2VwaWtfcHl0aG9uJywgJy1waCcsICc3LjAnLCAnLXRuJywgJzgnLCAnLW1hJywgJzIwMCcsICctbWV0YWxfYmluZGluZycsICctaW1hZScsICc8aW5maWxlLm1hZT4nLCAnLW9tYWUnLCAnPG91dGZpbGUubWFlPic=

> <r_lp_tautomer_probability>
0.999537

> <r_epik_Ionization_Penalty>
0.058267

> <r_epik_Ionization_Penalty_Charging>
0.058267

> <r_epik_Ionization_Penalty_Neutral>
6.57791e-16

> <r_epik_State_Penalty>
0.0503774

> <r_epik_Charging_Adjusted_Penalty>
0.108644

> <i_epik_Tot_Q>
0

> <i_epik_Tot_abs_Q>
0

> <r_epik_Metal_State_Penalty>
2.6644

> <b_epik_Metal_Only>
0

> <s_epik_Chemistry_Notes>
This compound has an ester and may undergo hydrolysis at high or low pH. This compound contains an acetal/aminal-like group ( X-CH(R)-Y where X, Y are N, S, or O) that may be acid/base labile, releasing an aldehyde.

> <s_lp_Force_Field>
OPLS_2005

> <r_lp_Energy>
13.3238

> <b_lp_Chiralities_Consistent>
1

> <s_lp_Variant>
AV-unprocessed.smi:102-16

> <Gold.Version>
5.8.1

> <Gold.Id.Protein>
6NUR|6NUR_protein|mol2

> <Gold.PLP.Fitness>
40.6130

> <Gold.PLP.PLP>
-27.6786

> <Gold.PLP.part.hbond>
-4.9715

> <Gold.PLP.part.metal>
0.0000

> <Gold.PLP.part.buried>
-1.2418

> <Gold.PLP.part.nonpolar>
-21.6208

> <Gold.PLP.part.repulsive>
1.2399

> <Gold.PLP.ligand.clash>
0.0000

> <Gold.PLP.ligand.torsion>
0.8021

> <Gold.PLP.Chemscore.Hbond>
3.9913

> <Gold.PLP.Chemscore.CHOScore>
0.7459

> <Gold.PLP.Chemscore.Metal>
0.0000

> <Gold.Chemscore.Hbonds>
donor molecule, donor type, donor heavy atom, donor atom, acceptor molecule, acceptor atom, score
      P1  H  6896  6909       L1    22  1.00
      P1  H  7989  7998       L1    27  0.99
      P1  H  7997  8008       L1     3  0.54
      P1  H 10752 10764       L1     7  0.98
      L1  C    10    36       P1  7948  0.85

> <Gold.PLP.Chemscore.Internal.Correction>
0.3272

> <Gold.Rescore>
     Score         DG    S(hbond)    S(metal)    S(lipo)     H(rot)  DE(clash)    DE(int)     intcor
      8.29     -11.43       3.43        0.00      41.68       4.05       1.04       2.10       ----

> <Gold.Chemscore.Fitness>
8.2870

> <Gold.Chemscore.DG>
-11.4262

> <Gold.Chemscore.ZeroCoef>
-5.4800

> <Gold.Chemscore.Hbond>
3.4259

> <Gold.Chemscore.Metal>
0.0000

> <Gold.Chemscore.Lipo>
41.6832

> <Gold.Chemscore.Internal_Hbond>
0.0000

> <Gold.Chemscore.DEClash>
1.0429

> <Gold.Chemscore.DEInternal>
2.0963

> <Gold.Chemscore.Rot>
4.0520

> <Gold.Chemscore.Internal.Correction>
   9.000000E+99

> <Gold.Chemscore.Hbonds>
donor molecule, donor type, donor heavy atom, donor atom, acceptor molecule, acceptor atom, score
      P1  H  6896  6909       L1    22  1.00
      P1  H  7989  7998       L1    27  0.90
      P1  H  7997  8008       L1     3  0.27
      P1  H 10752 10764       L1     7  0.45

> <Gold.Chemscore.Hbond.Weighted>
-11.4425

> <Gold.Chemscore.Metal.Weighted>
-0.0000

> <Gold.Chemscore.Lipo.Weighted>
-4.8769

> <Gold.Chemscore.Internal_Hbond.Weighted>
0.0000

> <Gold.Chemscore.DEClash.Weighted>
1.0429

> <Gold.Chemscore.DEInternal.Weighted>
2.0963

> <Gold.Chemscore.Rot.Weighted>
10.3732

> <Gold.Chemscore.Internal.Correction.Weighted>
   9.000000E+99

> <Gold.Protein.RotatedTorsions>
[ 6907 6896 6895 6894 ] final   14.65 input  -60.11 | X-H torsion
[ 7974 7965 7964 7962 ] final  129.15 input  175.53 | X-H torsion
[ 8008 7997 7996 7995 ] final -114.46 input   59.86 | X-H torsion
[ 10167 10162 10161 10158 ] final  178.72 input  -65.29 | X-H torsion
[ 10718 10713 10712 10709 ] final -143.93 input   66.30 | X-H torsion
[ 10763 10752 10751 10750 ] final  -31.50 input  -60.55 | X-H torsion
[ 11005 11000 10999 10996 ] final  -41.23 input  -57.11 | X-H torsion

> <Gold.Protein.ActiveResidues>
 VAL166  LYS551  ARG553  GLY616  TRP617  ASP618  TYR619  PRO620  LYS621  CYS622 
 ASP623  PHE694  ASN695  SER759  ASP760  ASP761  ALA762  ILE779  LEU786  VAL792 
 PHE793  MET794  SER795  GLU796  ALA797  LYS798  CYS799  TRP800  GLU811  SER814 

> <Gold.Protein.RotatedAtoms>
  151.8056  135.0696  160.0405 H   0  0  0  0  0  0  0  0  0  0  0  0  # atno 6907 bound_to 6896
  152.3057  133.5696  159.5656 H   0  0  0  0  0  0  0  0  0  0  0  0  # atno 6908 bound_to 6896
  150.7295  134.0142  159.3722 H   0  0  0  0  0  0  0  0  0  0  0  0  # atno 6909 bound_to 6896
  145.0317  139.4040  143.5146 H   0  0  0  0  0  0  0  0  0  0  0  0  # atno 7974 bound_to 7965
  155.0367  140.0392  157.2494 H   0  0  0  0  0  0  0  0  0  0  0  0  # atno 8008 bound_to 7997
  154.7251  140.2719  155.6483 H   0  0  0  0  0  0  0  0  0  0  0  0  # atno 8009 bound_to 7997
  156.2827  140.2695  156.1934 H   0  0  0  0  0  0  0  0  0  0  0  0  # atno 8010 bound_to 7997
  139.5306  144.2647  152.0678 H   0  0  0  0  0  0  0  0  0  0  0  0  # atno 10167 bound_to 10162
  156.3639  130.7752  151.1924 H   0  0  0  0  0  0  0  0  0  0  0  0  # atno 10718 bound_to 10713
  153.7984  135.6892  153.4860 H   0  0  0  0  0  0  0  0  0  0  0  0  # atno 10763 bound_to 10752
  153.1704  135.4545  154.9893 H   0  0  0  0  0  0  0  0  0  0  0  0  # atno 10764 bound_to 10752
  154.8016  135.3340  154.7474 H   0  0  0  0  0  0  0  0  0  0  0  0  # atno 10765 bound_to 10752
  141.0231  133.6853  156.2429 H   0  0  0  0  0  0  0  0  0  0  0  0  # atno 11005 bound_to 11000
  146.3499  139.9871  142.8689 LP  0  0  0  0  0  0  0  0  0  0  0  0  # atno 17320 bound_to 7965
  145.1761  140.9745  143.4293 LP  0  0  0  0  0  0  0  0  0  0  0  0  # atno 17321 bound_to 7965
  140.2109  144.4563  150.6386 LP  0  0  0  0  0  0  0  0  0  0  0  0  # atno 17342 bound_to 10162
  140.6481  143.2218  151.6141 LP  0  0  0  0  0  0  0  0  0  0  0  0  # atno 17343 bound_to 10162
  157.7476  131.0392  150.4539 LP  0  0  0  0  0  0  0  0  0  0  0  0  # atno 17370 bound_to 10713
  156.4754  130.4062  149.6493 LP  0  0  0  0  0  0  0  0  0  0  0  0  # atno 17371 bound_to 10713
  140.6538  134.5039  157.5579 LP  0  0  0  0  0  0  0  0  0  0  0  0  # atno 17394 bound_to 11000
  139.9159  134.8248  156.1370 LP  0  0  0  0  0  0  0  0  0  0  0  0  # atno 17395 bound_to 11000

$$$$
