AV-unprocessed.smi:2118|AV-procd|sdf|8629|dock9
  -GOLD-   2272011373D 1   1.00000     0.00000
 Structure written by MMmdl.
 39 40  0  0  0  0  0  0  0  0  2 V2000
  149.8640  133.7483  155.2531 C   0  0  0  0  0  0  0  0  0  0  0  0
  150.7676  134.9887  155.2074 C   0  0  0  0  0  0  0  0  0  0  0  0
  151.2512  135.3946  156.6051 C   0  0  0  0  0  0  0  0  0  0  0  0
  152.1586  136.6355  156.5517 C   0  0  0  0  0  0  0  0  0  0  0  0
  151.5002  137.7698  155.8710 N   0  0  0  0  0  0  0  0  0  0  0  0
  152.2450  139.3313  156.0600 S   0  0  0  0  0  0  0  0  0  0  0  0
  152.8696  139.3401  157.3931 O   0  0  0  0  0  0  0  0  0  0  0  0
  153.1233  139.5000  154.8905 O   0  0  0  0  0  0  0  0  0  0  0  0
  150.8934  140.2250  156.0010 N   0  5  0  0  0  0  0  0  0  0  0  0
  150.9642  141.6275  156.3688 C   0  0  0  0  0  0  0  0  0  0  0  0
  150.0967  141.8852  157.6174 C   0  0  0  0  0  0  0  0  0  0  0  0
  150.7919  142.7189  158.6863 C   0  0  0  0  0  0  0  0  0  0  0  0
  151.9284  142.2276  159.3650 C   0  0  0  0  0  0  0  0  0  0  0  0
  152.5448  143.0386  160.3373 C   0  0  0  0  0  0  0  0  0  0  0  0
  152.0005  144.3133  160.5901 C   0  0  0  0  0  0  0  0  0  0  0  0
  150.9190  144.7995  159.9444 N   0  0  0  0  0  0  0  0  0  0  0  0
  150.3334  144.0154  159.0134 C   0  0  0  0  0  0  0  0  0  0  0  0
  150.9701  137.4271  154.5309 C   0  0  0  0  0  0  0  0  0  0  0  0
  150.0552  136.1923  154.5769 C   0  0  0  0  0  0  0  0  0  0  0  0
  148.9673  133.9317  155.8463 H   0  0  0  0  0  0  0  0  0  0  0  0
  150.3866  132.8984  155.6930 H   0  0  0  0  0  0  0  0  0  0  0  0
  149.5468  133.4571  154.2514 H   0  0  0  0  0  0  0  0  0  0  0  0
  151.6395  134.7454  154.5979 H   0  0  0  0  0  0  0  0  0  0  0  0
  150.3946  135.6001  157.2489 H   0  0  0  0  0  0  0  0  0  0  0  0
  151.7927  134.5684  157.0671 H   0  0  0  0  0  0  0  0  0  0  0  0
  152.4265  136.9194  157.5690 H   0  0  0  0  0  0  0  0  0  0  0  0
  153.0897  136.4047  156.0327 H   0  0  0  0  0  0  0  0  0  0  0  0
  151.9884  141.9365  156.5816 H   0  0  0  0  0  0  0  0  0  0  0  0
  150.6200  142.2688  155.5566 H   0  0  0  0  0  0  0  0  0  0  0  0
  149.1739  142.3910  157.3295 H   0  0  0  0  0  0  0  0  0  0  0  0
  149.7955  140.9353  158.0616 H   0  0  0  0  0  0  0  0  0  0  0  0
  152.3204  141.2450  159.1457 H   0  0  0  0  0  0  0  0  0  0  0  0
  153.4138  142.6917  160.8764 H   0  0  0  0  0  0  0  0  0  0  0  0
  152.4476  144.9611  161.3296 H   0  0  0  0  0  0  0  0  0  0  0  0
  149.4713  144.4343  158.5152 H   0  0  0  0  0  0  0  0  0  0  0  0
  150.4125  138.2665  154.1171 H   0  0  0  0  0  0  0  0  0  0  0  0
  151.8086  137.2492  153.8564 H   0  0  0  0  0  0  0  0  0  0  0  0
  149.7284  135.9455  153.5663 H   0  0  0  0  0  0  0  0  0  0  0  0
  149.1534  136.4298  155.1433 H   0  0  0  0  0  0  0  0  0  0  0  0
  1  2  1  0  0  0  0
  1 20  1  0  0  0  0
  1 21  1  0  0  0  0
  1 22  1  0  0  0  0
  2 19  1  0  0  0  0
  2  3  1  0  0  0  0
  2 23  1  0  0  0  0
  3  4  1  0  0  0  0
  3 24  1  0  0  0  0
  3 25  1  0  0  0  0
  4  5  1  0  0  0  0
  4 26  1  0  0  0  0
  4 27  1  0  0  0  0
  5  6  1  0  0  0  0
  5 18  1  0  0  0  0
  6  7  2  0  0  0  0
  6  8  2  0  0  0  0
  6  9  1  0  0  0  0
  9 10  1  0  0  0  0
 10 11  1  0  0  0  0
 10 28  1  0  0  0  0
 10 29  1  0  0  0  0
 11 12  1  0  0  0  0
 11 30  1  0  0  0  0
 11 31  1  0  0  0  0
 12 17  1  0  0  0  0
 12 13  2  0  0  0  0
 13 14  1  0  0  0  0
 13 32  1  0  0  0  0
 14 15  2  0  0  0  0
 14 33  1  0  0  0  0
 15 16  1  0  0  0  0
 15 34  1  0  0  0  0
 16 17  2  0  0  0  0
 17 35  1  0  0  0  0
 18 19  1  0  0  0  0
 18 36  1  0  0  0  0
 18 37  1  0  0  0  0
 19 38  1  0  0  0  0
 19 39  1  0  0  0  0
M  CHG  1   9  -1
M  END
> <s_m_source_file>
AV-unprocessed.smi

> <i_m_source_file_index>
2118

> <i_lp_mmshare_version>
43012

> <i_f3d_flags>
0

> <s_epik_input>
W0NIM11bQ0hdMVtDSDJdW0NIMl1OKFtDSDJdW0NIMl0xKVMoPU8pKD1PKVtOSF1bQ0gyXVtDSDJdYzJbY0hdW2NIXVtjSF1uW2NIXTI=

> <s_epik_cmdline>
J2VwaWtfcHl0aG9uJywgJy1waCcsICc3LjAnLCAnLXRuJywgJzgnLCAnLW1hJywgJzIwMCcsICctbWV0YWxfYmluZGluZycsICctaW1hZScsICc8aW5maWxlLm1hZT4nLCAnLW9tYWUnLCAnPG91dGZpbGUubWFlPic=

> <r_epik_Ionization_Penalty>
1.98317

> <r_epik_Ionization_Penalty_Charging>
1.95606

> <r_epik_Ionization_Penalty_Neutral>
0.0271171

> <r_epik_State_Penalty>
2.28376

> <r_epik_Charging_Adjusted_Penalty>
4.23982

> <i_epik_Tot_Q>
-1

> <i_epik_Tot_abs_Q>
1

> <r_epik_Metal_State_Penalty>
0.598332

> <b_epik_Metal_Only>
0

> <s_lp_Force_Field>
OPLS_2005

> <r_lp_Energy>
6.66289

> <b_lp_Chiralities_Consistent>
1

> <s_lp_Variant>
AV-unprocessed.smi:2118-2

> <Gold.Version>
5.8.1

> <Gold.Id.Protein>
6NUR|6NUR_protein|mol2

> <Gold.PLP.Fitness>
40.4222

> <Gold.PLP.PLP>
-34.3425

> <Gold.PLP.part.hbond>
-3.0000

> <Gold.PLP.part.metal>
0.0000

> <Gold.PLP.part.buried>
-3.8247

> <Gold.PLP.part.nonpolar>
-27.4202

> <Gold.PLP.part.repulsive>
0.1852

> <Gold.PLP.ligand.clash>
0.0000

> <Gold.PLP.ligand.torsion>
1.7627

> <Gold.PLP.Chemscore.Hbond>
1.5667

> <Gold.PLP.Chemscore.CHOScore>
1.1260

> <Gold.PLP.Chemscore.Metal>
0.0000

> <Gold.Chemscore.Hbonds>
donor molecule, donor type, donor heavy atom, donor atom, acceptor molecule, acceptor atom, score
      P1  H  7989  7998       L1     8  0.01
      P1  H  7997  8008       L1     7  0.46
      P1  H  7997  8009       L1     8  0.86
      L1  C    17    35       P1  8028  0.03
      L1  C    17    35       P1  8029  1.00

> <Gold.PLP.Chemscore.Internal.Correction>
1.5268

> <Gold.Rescore>
     Score         DG    S(hbond)    S(metal)    S(lipo)     H(rot)  DE(clash)    DE(int)     intcor
     14.35     -16.18       0.86        0.00      98.11       1.42       0.04       1.79       ----

> <Gold.Chemscore.Fitness>
14.3525

> <Gold.Chemscore.DG>
-16.1809

> <Gold.Chemscore.ZeroCoef>
-5.4800

> <Gold.Chemscore.Hbond>
0.8567

> <Gold.Chemscore.Metal>
0.0000

> <Gold.Chemscore.Lipo>
98.1088

> <Gold.Chemscore.Internal_Hbond>
0.0000

> <Gold.Chemscore.DEClash>
0.0413

> <Gold.Chemscore.DEInternal>
1.7872

> <Gold.Chemscore.Rot>
1.4216

> <Gold.Chemscore.Internal.Correction>
   9.000000E+99

> <Gold.Chemscore.Hbonds>
donor molecule, donor type, donor heavy atom, donor atom, acceptor molecule, acceptor atom, score
      P1  H  7989  7998       L1     8  0.01
      P1  H  7997  8008       L1     7  0.32
      P1  H  7997  8009       L1     8  0.51

> <Gold.Chemscore.Hbond.Weighted>
-2.8614

> <Gold.Chemscore.Metal.Weighted>
-0.0000

> <Gold.Chemscore.Lipo.Weighted>
-11.4787

> <Gold.Chemscore.Internal_Hbond.Weighted>
0.0000

> <Gold.Chemscore.DEClash.Weighted>
0.0413

> <Gold.Chemscore.DEInternal.Weighted>
1.7872

> <Gold.Chemscore.Rot.Weighted>
3.6392

> <Gold.Chemscore.Internal.Correction.Weighted>
   9.000000E+99

> <Gold.Protein.RotatedTorsions>
[ 6907 6896 6895 6894 ] final  -84.97 input  -60.11 | X-H torsion
[ 7974 7965 7964 7962 ] final  128.17 input  175.53 | X-H torsion
[ 8008 7997 7996 7995 ] final -106.39 input   59.86 | X-H torsion
[ 10167 10162 10161 10158 ] final   12.40 input  -65.29 | X-H torsion
[ 10718 10713 10712 10709 ] final  -63.15 input   66.30 | X-H torsion
[ 10763 10752 10751 10750 ] final   19.98 input  -60.55 | X-H torsion
[ 11005 11000 10999 10996 ] final  137.78 input  -57.11 | X-H torsion

> <Gold.Protein.ActiveResidues>
 VAL166  LYS551  ARG553  GLY616  TRP617  ASP618  TYR619  PRO620  LYS621  CYS622 
 ASP623  PHE694  ASN695  SER759  ASP760  ASP761  ALA762  ILE779  LEU786  VAL792 
 PHE793  MET794  SER795  GLU796  ALA797  LYS798  CYS799  TRP800  GLU811  SER814 

> <Gold.Protein.RotatedAtoms>
  150.6873  134.3276  159.4812 H   0  0  0  0  0  0  0  0  0  0  0  0  # atno 6907 bound_to 6896
  152.1144  134.9248  160.0574 H   0  0  0  0  0  0  0  0  0  0  0  0  # atno 6908 bound_to 6896
  152.0478  133.3971  159.4401 H   0  0  0  0  0  0  0  0  0  0  0  0  # atno 6909 bound_to 6896
  145.0425  139.3951  143.5095 H   0  0  0  0  0  0  0  0  0  0  0  0  # atno 7974 bound_to 7965
  154.9138  140.0409  157.1961 H   0  0  0  0  0  0  0  0  0  0  0  0  # atno 8008 bound_to 7997
  154.8321  140.2901  155.5694 H   0  0  0  0  0  0  0  0  0  0  0  0  # atno 8009 bound_to 7997
  156.2987  140.2499  156.3248 H   0  0  0  0  0  0  0  0  0  0  0  0  # atno 8010 bound_to 7997
  140.6070  143.8487  150.7024 H   0  0  0  0  0  0  0  0  0  0  0  0  # atno 10167 bound_to 10162
  156.0809  130.4217  150.1237 H   0  0  0  0  0  0  0  0  0  0  0  0  # atno 10718 bound_to 10713
  153.1116  135.6698  153.9490 H   0  0  0  0  0  0  0  0  0  0  0  0  # atno 10763 bound_to 10752
  153.9032  135.3033  155.3450 H   0  0  0  0  0  0  0  0  0  0  0  0  # atno 10764 bound_to 10752
  154.7535  135.5023  153.9410 H   0  0  0  0  0  0  0  0  0  0  0  0  # atno 10765 bound_to 10752
  140.0138  134.9427  157.0333 H   0  0  0  0  0  0  0  0  0  0  0  0  # atno 11005 bound_to 11000
  146.3511  140.0033  142.8674 LP  0  0  0  0  0  0  0  0  0  0  0  0  # atno 17320 bound_to 7965
  145.1629  140.9682  143.4366 LP  0  0  0  0  0  0  0  0  0  0  0  0  # atno 17321 bound_to 7965
  140.2046  143.3932  152.1765 LP  0  0  0  0  0  0  0  0  0  0  0  0  # atno 17342 bound_to 10162
  139.5332  144.7182  151.4982 LP  0  0  0  0  0  0  0  0  0  0  0  0  # atno 17343 bound_to 10162
  156.9268  130.9701  151.3539 LP  0  0  0  0  0  0  0  0  0  0  0  0  # atno 17370 bound_to 10713
  157.5925  130.8454  149.8680 LP  0  0  0  0  0  0  0  0  0  0  0  0  # atno 17371 bound_to 10713
  140.4507  134.1585  155.7181 LP  0  0  0  0  0  0  0  0  0  0  0  0  # atno 17394 bound_to 11000
  141.1729  133.8573  157.1514 LP  0  0  0  0  0  0  0  0  0  0  0  0  # atno 17395 bound_to 11000

$$$$
