AV-unprocessed.smi:213|AV-procd|sdf|1635|dock4
  -GOLD-   2262019593D 1   1.00000     0.00000
 Structure written by MMmdl.
 59 62  0  0  0  0  0  0  0  0  2 V2000
  145.5746  135.4858  154.1671 C   0  0  0  0  0  0  0  0  0  0  0  0
  145.1721  136.9362  153.8551 C   0  0  2  0  0  0  0  0  0  0  0  0
  144.2835  137.0150  152.5901 C   0  0  0  0  0  0  0  0  0  0  0  0
  142.8939  136.5487  152.8281 N   0  3  0  0  0  0  0  0  0  0  0  0
  142.8031  135.0926  153.0802 C   0  0  0  0  0  0  0  0  0  0  0  0
  141.3303  134.6711  153.2196 C   0  0  0  0  0  0  0  0  0  0  0  0
  140.7144  135.4184  154.2617 O   0  0  0  0  0  0  0  0  0  0  0  0
  140.7264  136.8158  153.9961 C   0  0  0  0  0  0  0  0  0  0  0  0
  142.1796  137.3052  153.8854 C   0  0  0  0  0  0  0  0  0  0  0  0
  146.3481  137.8158  153.7750 N   0  0  0  0  0  0  0  0  0  0  0  0
  146.5685  138.6197  152.5730 C   0  0  0  0  0  0  0  0  0  0  0  0
  146.8034  138.3296  154.9483 C   0  0  0  0  0  0  0  0  0  0  0  0
  146.8656  137.5291  156.0469 N   0  0  0  0  0  0  0  0  0  0  0  0
  147.3477  137.9997  157.2006 C   0  0  0  0  0  0  0  0  0  0  0  0
  147.8193  139.2176  157.4711 N   0  0  0  0  0  0  0  0  0  0  0  0
  147.7513  140.0292  156.3779 C   0  0  0  0  0  0  0  0  0  0  0  0
  147.2610  139.6706  155.0903 C   0  0  0  0  0  0  0  0  0  0  0  0
  147.3438  140.7627  154.2341 N   0  0  0  0  0  0  0  0  0  0  0  0
  147.8561  141.7102  154.9710 C   0  0  0  0  0  0  0  0  0  0  0  0
  148.1298  141.3557  156.2720 N   0  0  0  0  0  0  0  0  0  0  0  0
  148.6915  142.2115  157.3021 C   0  0  0  0  0  0  0  0  0  0  0  0
  150.2350  142.1926  157.2985 C   0  0  1  0  0  0  0  0  0  0  0  0
  150.7352  142.7605  156.1042 O   0  0  0  0  0  0  0  0  0  0  0  0
  150.8858  142.9112  158.4989 C   0  0  2  0  0  0  0  0  0  0  0  0
  150.6290  144.4186  158.5482 C   0  0  0  0  0  0  0  0  0  0  0  0
  151.8021  144.9579  159.3529 C   0  0  0  0  0  0  0  0  0  0  0  0
  152.7992  143.7964  159.3894 C   0  0  0  0  0  0  0  0  0  0  0  0
  152.3036  142.8528  158.4506 O   0  0  0  0  0  0  0  0  0  0  0  0
  144.6928  134.8687  154.3416 H   0  0  0  0  0  0  0  0  0  0  0  0
  146.1906  135.4356  155.0657 H   0  0  0  0  0  0  0  0  0  0  0  0
  146.1329  135.0293  153.3501 H   0  0  0  0  0  0  0  0  0  0  0  0
  144.5570  137.2474  154.6967 H   0  0  0  0  0  0  0  0  0  0  0  0
  144.2602  138.0499  152.2454 H   0  0  0  0  0  0  0  0  0  0  0  0
  144.7238  136.4373  151.7759 H   0  0  0  0  0  0  0  0  0  0  0  0
  143.2636  134.5439  152.2577 H   0  0  0  0  0  0  0  0  0  0  0  0
  143.3562  134.8408  153.9864 H   0  0  0  0  0  0  0  0  0  0  0  0
  140.7921  134.8215  152.2821 H   0  0  0  0  0  0  0  0  0  0  0  0
  141.2642  133.6095  153.4587 H   0  0  0  0  0  0  0  0  0  0  0  0
  140.1721  137.0305  153.0811 H   0  0  0  0  0  0  0  0  0  0  0  0
  140.2153  137.3353  154.8066 H   0  0  0  0  0  0  0  0  0  0  0  0
  142.6920  137.1760  154.8400 H   0  0  0  0  0  0  0  0  0  0  0  0
  142.1819  138.3718  153.6634 H   0  0  0  0  0  0  0  0  0  0  0  0
  147.5785  139.0315  152.5626 H   0  0  0  0  0  0  0  0  0  0  0  0
  145.8608  139.4475  152.5220 H   0  0  0  0  0  0  0  0  0  0  0  0
  146.4556  138.0208  151.6705 H   0  0  0  0  0  0  0  0  0  0  0  0
  147.3622  137.2997  158.0231 H   0  0  0  0  0  0  0  0  0  0  0  0
  148.0457  142.7015  154.5854 H   0  0  0  0  0  0  0  0  0  0  0  0
  148.3172  143.2253  157.1552 H   0  0  0  0  0  0  0  0  0  0  0  0
  148.3060  141.8759  158.2648 H   0  0  0  0  0  0  0  0  0  0  0  0
  150.5749  141.1561  157.3011 H   0  0  0  0  0  0  0  0  0  0  0  0
  150.0527  143.2817  155.7099 H   0  0  0  0  0  0  0  0  0  0  0  0
  150.5422  142.4698  159.4371 H   0  0  0  0  0  0  0  0  0  0  0  0
  150.6512  144.8485  157.5467 H   0  0  0  0  0  0  0  0  0  0  0  0
  149.6637  144.6629  158.9929 H   0  0  0  0  0  0  0  0  0  0  0  0
  152.2290  145.8387  158.8725 H   0  0  0  0  0  0  0  0  0  0  0  0
  151.5018  145.2392  160.3629 H   0  0  0  0  0  0  0  0  0  0  0  0
  153.8136  144.1062  159.1375 H   0  0  0  0  0  0  0  0  0  0  0  0
  152.8192  143.3399  160.3800 H   0  0  0  0  0  0  0  0  0  0  0  0
  142.3935  136.7108  151.9651 H   0  0  0  0  0  0  0  0  0  0  0  0
  1  2  1  0  0  0  0
  1 29  1  0  0  0  0
  1 30  1  0  0  0  0
  1 31  1  0  0  0  0
  2  3  1  0  0  0  0
  2 10  1  0  0  0  0
  2 32  1  0  0  0  0
  3  4  1  0  0  0  0
  3 33  1  0  0  0  0
  3 34  1  0  0  0  0
  4  9  1  0  0  0  0
  4  5  1  0  0  0  0
  4 59  1  0  0  0  0
  5  6  1  0  0  0  0
  5 35  1  0  0  0  0
  5 36  1  0  0  0  0
  6  7  1  0  0  0  0
  6 37  1  0  0  0  0
  6 38  1  0  0  0  0
  7  8  1  0  0  0  0
  8  9  1  0  0  0  0
  8 39  1  0  0  0  0
  8 40  1  0  0  0  0
  9 41  1  0  0  0  0
  9 42  1  0  0  0  0
 10 11  1  0  0  0  0
 10 12  1  0  0  0  0
 11 43  1  0  0  0  0
 11 44  1  0  0  0  0
 11 45  1  0  0  0  0
 12 17  1  0  0  0  0
 12 13  2  0  0  0  0
 13 14  1  0  0  0  0
 14 15  2  0  0  0  0
 14 46  1  0  0  0  0
 15 16  1  0  0  0  0
 16 20  1  0  0  0  0
 16 17  2  0  0  0  0
 17 18  1  0  0  0  0
 18 19  2  0  0  0  0
 19 20  1  0  0  0  0
 19 47  1  0  0  0  0
 20 21  1  0  0  0  0
 21 22  1  0  0  0  0
 21 48  1  0  0  0  0
 21 49  1  0  0  0  0
 22 23  1  0  0  0  0
 22 24  1  0  0  0  0
 22 50  1  0  0  0  0
 23 51  1  0  0  0  0
 24 28  1  0  0  0  0
 24 25  1  0  0  0  0
 24 52  1  0  0  0  0
 25 26  1  0  0  0  0
 25 53  1  0  0  0  0
 25 54  1  0  0  0  0
 26 27  1  0  0  0  0
 26 55  1  0  0  0  0
 26 56  1  0  0  0  0
 27 28  1  0  0  0  0
 27 57  1  0  0  0  0
 27 58  1  0  0  0  0
M  CHG  1   4   1
M  END
> <s_m_source_file>
AV-unprocessed.smi

> <i_m_source_file_index>
213

> <i_lp_mmshare_version>
43012

> <i_f3d_flags>
0

> <s_epik_input>
W0NIMl0xW0NIMl1PW0NIMl1bQ0gyXU4xW0NIMl1bQ0BASF0oW0NIM10pTihbQ0gzXSljKG5bY0hdbjIpYyhjMjMpbltjSF1uM1tDSDJdW0NASF0oW09IXSlbQ0BASF00W0NIMl1bQ0gyXVtDSDJdTzQ=

> <s_epik_cmdline>
J2VwaWtfcHl0aG9uJywgJy1waCcsICc3LjAnLCAnLXRuJywgJzgnLCAnLW1hJywgJzIwMCcsICctbWV0YWxfYmluZGluZycsICctaW1hZScsICc8aW5maWxlLm1hZT4nLCAnLW9tYWUnLCAnPG91dGZpbGUubWFlPic=

> <r_lp_tautomer_probability>
1

> <r_epik_Ionization_Penalty>
0.399679

> <r_epik_Ionization_Penalty_Charging>
0.399433

> <r_epik_Ionization_Penalty_Neutral>
0.000246213

> <r_epik_State_Penalty>
0.286032

> <r_epik_Charging_Adjusted_Penalty>
0.685465

> <i_epik_Tot_Q>
1

> <i_epik_Tot_abs_Q>
1

> <r_epik_Metal_State_Penalty>
0.286072

> <b_epik_Metal_Only>
0

> <s_lp_Force_Field>
OPLS_2005

> <r_lp_Energy>
46.8913

> <b_lp_Chiralities_Consistent>
1

> <s_lp_Variant>
AV-unprocessed.smi:213-3

> <Gold.Version>
5.8.1

> <Gold.Id.Protein>
6NUR|6NUR_protein|mol2

> <Gold.PLP.Fitness>
46.7836

> <Gold.PLP.PLP>
-39.1986

> <Gold.PLP.part.hbond>
-2.2822

> <Gold.PLP.part.metal>
0.0000

> <Gold.PLP.part.buried>
-7.4794

> <Gold.PLP.part.nonpolar>
-29.7022

> <Gold.PLP.part.repulsive>
0.2891

> <Gold.PLP.ligand.clash>
0.0000

> <Gold.PLP.ligand.torsion>
1.3157

> <Gold.PLP.Chemscore.Hbond>
2.0000

> <Gold.PLP.Chemscore.CHOScore>
1.0000

> <Gold.PLP.Chemscore.Metal>
0.0000

> <Gold.Chemscore.Hbonds>
donor molecule, donor type, donor heavy atom, donor atom, acceptor molecule, acceptor atom, score
      L1  H    23    51       P1  8028  1.00
      P1  H 11000 11005       L1     7  1.00
      L1  C    19    47       P1  8028  1.00

> <Gold.PLP.Chemscore.Internal.Correction>
1.2165

> <Gold.Rescore>
     Score         DG    S(hbond)    S(metal)    S(lipo)     H(rot)  DE(clash)    DE(int)     intcor
     11.82     -15.53       1.96        0.00      91.72       2.83       0.07       3.64       ----

> <Gold.Chemscore.Fitness>
11.8215

> <Gold.Chemscore.DG>
-15.5286

> <Gold.Chemscore.ZeroCoef>
-5.4800

> <Gold.Chemscore.Hbond>
1.9612

> <Gold.Chemscore.Metal>
0.0000

> <Gold.Chemscore.Lipo>
91.7180

> <Gold.Chemscore.Internal_Hbond>
0.0000

> <Gold.Chemscore.DEClash>
0.0668

> <Gold.Chemscore.DEInternal>
3.6403

> <Gold.Chemscore.Rot>
2.8254

> <Gold.Chemscore.Internal.Correction>
   9.000000E+99

> <Gold.Chemscore.Hbonds>
donor molecule, donor type, donor heavy atom, donor atom, acceptor molecule, acceptor atom, score
      L1  H    23    51       P1  8028  0.97
      P1  H 11000 11005       L1     7  0.85

> <Gold.Chemscore.Hbond.Weighted>
-6.5506

> <Gold.Chemscore.Metal.Weighted>
-0.0000

> <Gold.Chemscore.Lipo.Weighted>
-10.7310

> <Gold.Chemscore.Internal_Hbond.Weighted>
0.0000

> <Gold.Chemscore.DEClash.Weighted>
0.0668

> <Gold.Chemscore.DEInternal.Weighted>
3.6403

> <Gold.Chemscore.Rot.Weighted>
7.2330

> <Gold.Chemscore.Internal.Correction.Weighted>
   9.000000E+99

> <Gold.Protein.RotatedTorsions>
[ 6907 6896 6895 6894 ] final -121.27 input  -60.11 | X-H torsion
[ 7974 7965 7964 7962 ] final  -35.15 input  175.53 | X-H torsion
[ 8008 7997 7996 7995 ] final  110.87 input   59.86 | X-H torsion
[ 10167 10162 10161 10158 ] final  -58.35 input  -65.29 | X-H torsion
[ 10718 10713 10712 10709 ] final   16.92 input   66.30 | X-H torsion
[ 10763 10752 10751 10750 ] final  -58.68 input  -60.55 | X-H torsion
[ 11005 11000 10999 10996 ] final   37.12 input  -57.11 | X-H torsion

> <Gold.Protein.ActiveResidues>
 VAL166  LYS551  ARG553  GLY616  TRP617  ASP618  TYR619  PRO620  LYS621  CYS622 
 ASP623  PHE694  ASN695  SER759  ASP760  ASP761  ALA762  ILE779  LEU786  VAL792 
 PHE793  MET794  SER795  GLU796  ALA797  LYS798  CYS799  TRP800  GLU811  SER814 

> <Gold.Protein.RotatedAtoms>
  150.8468  133.7848  159.3039 H   0  0  0  0  0  0  0  0  0  0  0  0  # atno 6907 bound_to 6896
  151.5533  135.1065  159.9964 H   0  0  0  0  0  0  0  0  0  0  0  0  # atno 6908 bound_to 6896
  152.4520  133.7605  159.6800 H   0  0  0  0  0  0  0  0  0  0  0  0  # atno 6909 bound_to 6896
  146.0770  140.6125  142.8926 H   0  0  0  0  0  0  0  0  0  0  0  0  # atno 7974 bound_to 7965
  156.2084  140.3030  155.9677 H   0  0  0  0  0  0  0  0  0  0  0  0  # atno 8008 bound_to 7997
  155.2785  140.0437  157.3030 H   0  0  0  0  0  0  0  0  0  0  0  0  # atno 8009 bound_to 7997
  154.5665  140.2335  155.8264 H   0  0  0  0  0  0  0  0  0  0  0  0  # atno 8010 bound_to 7997
  140.6202  143.2417  151.5498 H   0  0  0  0  0  0  0  0  0  0  0  0  # atno 10167 bound_to 10162
  157.0747  130.6363  149.5813 H   0  0  0  0  0  0  0  0  0  0  0  0  # atno 10718 bound_to 10713
  154.2418  135.6342  153.5210 H   0  0  0  0  0  0  0  0  0  0  0  0  # atno 10763 bound_to 10752
  152.9928  135.5544  154.5902 H   0  0  0  0  0  0  0  0  0  0  0  0  # atno 10764 bound_to 10752
  154.5409  135.2894  155.1071 H   0  0  0  0  0  0  0  0  0  0  0  0  # atno 10765 bound_to 10752
  140.2257  134.3587  155.7985 H   0  0  0  0  0  0  0  0  0  0  0  0  # atno 11005 bound_to 11000
  144.7268  140.4549  143.6967 LP  0  0  0  0  0  0  0  0  0  0  0  0  # atno 17320 bound_to 7965
  145.6288  139.1533  143.2981 LP  0  0  0  0  0  0  0  0  0  0  0  0  # atno 17321 bound_to 7965
  139.5432  144.2590  152.1392 LP  0  0  0  0  0  0  0  0  0  0  0  0  # atno 17342 bound_to 10162
  140.1808  144.4846  150.6529 LP  0  0  0  0  0  0  0  0  0  0  0  0  # atno 17343 bound_to 10162
  155.9940  130.5003  150.7404 LP  0  0  0  0  0  0  0  0  0  0  0  0  # atno 17370 bound_to 10713
  157.4849  131.0906  151.0494 LP  0  0  0  0  0  0  0  0  0  0  0  0  # atno 17371 bound_to 10713
  141.2221  133.7218  156.8649 LP  0  0  0  0  0  0  0  0  0  0  0  0  # atno 17394 bound_to 11000
  140.1803  134.9038  157.2940 LP  0  0  0  0  0  0  0  0  0  0  0  0  # atno 17395 bound_to 11000

$$$$
