AV-unprocessed.smi:1719|AV-procd|sdf|6930|dock1
  -GOLD-   22720 8143D 1   1.00000     0.00000
 Structure written by MMmdl.
 40 41  0  0  0  0  0  0  0  0  1 V2000
  153.5531  133.5086  165.3791 C   0  0  0  0  0  0  0  0  0  0  0  0
  154.8037  132.9583  165.0044 O   0  0  0  0  0  0  0  0  0  0  0  0
  155.4138  133.6715  163.9417 C   0  0  0  0  0  0  0  0  0  0  0  0
  154.5559  133.5306  162.6808 C   0  0  0  0  0  0  0  0  0  0  0  0
  155.1227  134.3269  161.6444 O   0  0  0  0  0  0  0  0  0  0  0  0
  154.8373  135.6766  161.6204 C   0  0  0  0  0  0  0  0  0  0  0  0
  154.4353  136.3020  162.8174 C   0  0  0  0  0  0  0  0  0  0  0  0
  154.1337  137.6774  162.8000 C   0  0  0  0  0  0  0  0  0  0  0  0
  154.2363  138.3845  161.5783 C   0  0  0  0  0  0  0  0  0  0  0  0
  153.9728  139.7732  161.4325 N   0  0  0  0  0  0  0  0  0  0  0  0
  153.9723  140.5132  160.3082 C   0  0  0  0  0  0  0  0  0  0  0  0
  154.2123  140.0734  159.1836 O   0  0  0  0  0  0  0  0  0  0  0  0
  153.6701  142.0068  160.4928 C   0  0  0  0  0  0  0  0  0  0  0  0
  152.8551  142.2628  161.7731 C   0  0  0  0  0  0  0  0  0  0  0  0
  152.4871  143.7513  161.8880 C   0  0  0  0  0  0  0  0  0  0  0  0
  151.7673  144.1667  160.7318 O   0  0  0  0  0  0  0  0  0  0  0  0
  152.5246  144.0459  159.5320 C   0  0  0  0  0  0  0  0  0  0  0  0
  152.8944  142.5733  159.2899 C   0  0  0  0  0  0  0  0  0  0  0  0
  154.6651  137.6701  160.4407 C   0  0  0  0  0  0  0  0  0  0  0  0
  154.9541  136.3518  160.4501 N   0  0  0  0  0  0  0  0  0  0  0  0
  153.1318  132.9332  166.2033 H   0  0  0  0  0  0  0  0  0  0  0  0
  152.8438  133.4769  164.5508 H   0  0  0  0  0  0  0  0  0  0  0  0
  153.6598  134.5425  165.7101 H   0  0  0  0  0  0  0  0  0  0  0  0
  155.4865  134.7259  164.2131 H   0  0  0  0  0  0  0  0  0  0  0  0
  156.4268  133.3100  163.7576 H   0  0  0  0  0  0  0  0  0  0  0  0
  154.4886  132.4822  162.3848 H   0  0  0  0  0  0  0  0  0  0  0  0
  153.5462  133.8835  162.8971 H   0  0  0  0  0  0  0  0  0  0  0  0
  154.3620  135.7368  163.7348 H   0  0  0  0  0  0  0  0  0  0  0  0
  153.8433  138.1603  163.7198 H   0  0  0  0  0  0  0  0  0  0  0  0
  153.8382  140.2810  162.2948 H   0  0  0  0  0  0  0  0  0  0  0  0
  154.6148  142.5479  160.5759 H   0  0  0  0  0  0  0  0  0  0  0  0
  151.9397  141.6689  161.7675 H   0  0  0  0  0  0  0  0  0  0  0  0
  153.4228  141.9534  162.6516 H   0  0  0  0  0  0  0  0  0  0  0  0
  151.8646  143.9160  162.7677 H   0  0  0  0  0  0  0  0  0  0  0  0
  153.3811  144.3645  162.0117 H   0  0  0  0  0  0  0  0  0  0  0  0
  151.9292  144.4241  158.7008 H   0  0  0  0  0  0  0  0  0  0  0  0
  153.4196  144.6673  159.5906 H   0  0  0  0  0  0  0  0  0  0  0  0
  153.4902  142.4873  158.3803 H   0  0  0  0  0  0  0  0  0  0  0  0
  151.9814  141.9999  159.1209 H   0  0  0  0  0  0  0  0  0  0  0  0
  154.7720  138.1688  159.4885 H   0  0  0  0  0  0  0  0  0  0  0  0
  1  2  1  0  0  0  0
  1 21  1  0  0  0  0
  1 22  1  0  0  0  0
  1 23  1  0  0  0  0
  2  3  1  0  0  0  0
  3  4  1  0  0  0  0
  3 24  1  0  0  0  0
  3 25  1  0  0  0  0
  4  5  1  0  0  0  0
  4 26  1  0  0  0  0
  4 27  1  0  0  0  0
  5  6  1  0  0  0  0
  6 20  1  0  0  0  0
  6  7  2  0  0  0  0
  7  8  1  0  0  0  0
  7 28  1  0  0  0  0
  8  9  2  0  0  0  0
  8 29  1  0  0  0  0
  9 10  1  0  0  0  0
  9 19  1  0  0  0  0
 10 11  1  0  0  0  0
 10 30  1  0  0  0  0
 11 12  2  0  0  0  0
 11 13  1  0  0  0  0
 13 18  1  0  0  0  0
 13 14  1  0  0  0  0
 13 31  1  0  0  0  0
 14 15  1  0  0  0  0
 14 32  1  0  0  0  0
 14 33  1  0  0  0  0
 15 16  1  0  0  0  0
 15 34  1  0  0  0  0
 15 35  1  0  0  0  0
 16 17  1  0  0  0  0
 17 18  1  0  0  0  0
 17 36  1  0  0  0  0
 17 37  1  0  0  0  0
 18 38  1  0  0  0  0
 18 39  1  0  0  0  0
 19 20  2  0  0  0  0
 19 40  1  0  0  0  0
M  END
> <s_m_source_file>
AV-unprocessed.smi

> <i_m_source_file_index>
1719

> <i_lp_mmshare_version>
43012

> <i_f3d_flags>
0

> <s_epik_input>
W0NIM11PW0NIMl1bQ0gyXU9jMVtjSF1bY0hdYyhbY0hdbjEpW05IXUMoPU8pW0NIXTJbQ0gyXVtDSDJdT1tDSDJdW0NIMl0y

> <s_epik_cmdline>
J2VwaWtfcHl0aG9uJywgJy1waCcsICc3LjAnLCAnLXRuJywgJzgnLCAnLW1hJywgJzIwMCcsICctbWV0YWxfYmluZGluZycsICctaW1hZScsICc8aW5maWxlLm1hZT4nLCAnLW9tYWUnLCAnPG91dGZpbGUubWFlPic=

> <r_lp_tautomer_probability>
1

> <r_epik_Ionization_Penalty>
2.13501e-05

> <r_epik_Ionization_Penalty_Charging>
0

> <r_epik_Ionization_Penalty_Neutral>
2.13501e-05

> <r_epik_State_Penalty>
-0

> <r_epik_Charging_Adjusted_Penalty>
0

> <i_epik_Tot_Q>
0

> <i_epik_Tot_abs_Q>
0

> <r_epik_Metal_State_Penalty>
-0

> <b_epik_Metal_Only>
0

> <s_lp_Force_Field>
OPLS_2005

> <r_lp_Energy>
15.3527

> <b_lp_Chiralities_Consistent>
1

> <s_lp_Variant>
AV-unprocessed.smi:1719-1

> <Gold.Version>
5.8.1

> <Gold.Id.Protein>
6NUR|6NUR_protein|mol2

> <Gold.PLP.Fitness>
40.9576

> <Gold.PLP.PLP>
-40.0443

> <Gold.PLP.part.hbond>
-1.0000

> <Gold.PLP.part.metal>
0.0000

> <Gold.PLP.part.buried>
-4.5374

> <Gold.PLP.part.nonpolar>
-34.1200

> <Gold.PLP.part.repulsive>
0.1985

> <Gold.PLP.ligand.clash>
0.0067

> <Gold.PLP.ligand.torsion>
1.1470

> <Gold.PLP.Chemscore.Hbond>
1.0000

> <Gold.PLP.Chemscore.CHOScore>
0.0000

> <Gold.PLP.Chemscore.Metal>
0.0000

> <Gold.Chemscore.Hbonds>
donor molecule, donor type, donor heavy atom, donor atom, acceptor molecule, acceptor atom, score
      P1  H  7997  8009       L1    12  1.00

> <Gold.PLP.Chemscore.Internal.Correction>
0.2140

> <Gold.Rescore>
     Score         DG    S(hbond)    S(metal)    S(lipo)     H(rot)  DE(clash)    DE(int)     intcor
     13.65     -16.32       0.99        0.00     103.48       1.79       0.01       2.65       ----

> <Gold.Chemscore.Fitness>
13.6469

> <Gold.Chemscore.DG>
-16.3152

> <Gold.Chemscore.ZeroCoef>
-5.4800

> <Gold.Chemscore.Hbond>
0.9907

> <Gold.Chemscore.Metal>
0.0000

> <Gold.Chemscore.Lipo>
103.4809

> <Gold.Chemscore.Internal_Hbond>
0.0000

> <Gold.Chemscore.DEClash>
0.0135

> <Gold.Chemscore.DEInternal>
2.6547

> <Gold.Chemscore.Rot>
1.7895

> <Gold.Chemscore.Internal.Correction>
   9.000000E+99

> <Gold.Chemscore.Hbonds>
donor molecule, donor type, donor heavy atom, donor atom, acceptor molecule, acceptor atom, score
      P1  H  7997  8009       L1    12  0.88

> <Gold.Chemscore.Hbond.Weighted>
-3.3090

> <Gold.Chemscore.Metal.Weighted>
-0.0000

> <Gold.Chemscore.Lipo.Weighted>
-12.1073

> <Gold.Chemscore.Internal_Hbond.Weighted>
0.0000

> <Gold.Chemscore.DEClash.Weighted>
0.0135

> <Gold.Chemscore.DEInternal.Weighted>
2.6547

> <Gold.Chemscore.Rot.Weighted>
4.5810

> <Gold.Chemscore.Internal.Correction.Weighted>
   9.000000E+99

> <Gold.Protein.RotatedTorsions>
[ 6907 6896 6895 6894 ] final  -55.58 input  -60.11 | X-H torsion
[ 7974 7965 7964 7962 ] final   48.57 input  175.53 | X-H torsion
[ 8008 7997 7996 7995 ] final  127.79 input   59.86 | X-H torsion
[ 10167 10162 10161 10158 ] final -162.83 input  -65.29 | X-H torsion
[ 10718 10713 10712 10709 ] final -128.51 input   66.30 | X-H torsion
[ 10763 10752 10751 10750 ] final  -54.13 input  -60.55 | X-H torsion
[ 11005 11000 10999 10996 ] final  153.92 input  -57.11 | X-H torsion

> <Gold.Protein.ActiveResidues>
 VAL166  LYS551  ARG553  GLY616  TRP617  ASP618  TYR619  PRO620  LYS621  CYS622 
 ASP623  PHE694  ASN695  SER759  ASP760  ASP761  ALA762  ILE779  LEU786  VAL792 
 PHE793  MET794  SER795  GLU796  ALA797  LYS798  CYS799  TRP800  GLU811  SER814 

> <Gold.Protein.RotatedAtoms>
  150.8240  134.7461  159.6796 H   0  0  0  0  0  0  0  0  0  0  0  0  # atno 6907 bound_to 6896
  152.4352  134.5696  159.9927 H   0  0  0  0  0  0  0  0  0  0  0  0  # atno 6908 bound_to 6896
  151.5873  133.3333  159.3056 H   0  0  0  0  0  0  0  0  0  0  0  0  # atno 6909 bound_to 6896
  146.0191  139.4631  142.9908 H   0  0  0  0  0  0  0  0  0  0  0  0  # atno 7974 bound_to 7965
  156.2899  140.2660  156.2330 H   0  0  0  0  0  0  0  0  0  0  0  0  # atno 8008 bound_to 7997
  155.0054  140.0387  157.2395 H   0  0  0  0  0  0  0  0  0  0  0  0  # atno 8009 bound_to 7997
  154.7565  140.2753  155.6254 H   0  0  0  0  0  0  0  0  0  0  0  0  # atno 8010 bound_to 7997
  139.6364  144.0342  152.2057 H   0  0  0  0  0  0  0  0  0  0  0  0  # atno 10167 bound_to 10162
  156.1958  130.6825  151.0479 H   0  0  0  0  0  0  0  0  0  0  0  0  # atno 10718 bound_to 10713
  154.1699  135.6461  153.5007 H   0  0  0  0  0  0  0  0  0  0  0  0  # atno 10763 bound_to 10752
  153.0087  135.5381  154.6623 H   0  0  0  0  0  0  0  0  0  0  0  0  # atno 10764 bound_to 10752
  154.5960  135.2939  155.0558 H   0  0  0  0  0  0  0  0  0  0  0  0  # atno 10765 bound_to 10752
  140.1442  134.8718  157.2371 H   0  0  0  0  0  0  0  0  0  0  0  0  # atno 11005 bound_to 11000
  145.7221  141.0071  143.1397 LP  0  0  0  0  0  0  0  0  0  0  0  0  # atno 17320 bound_to 7965
  144.6983  139.8883  143.7451 LP  0  0  0  0  0  0  0  0  0  0  0  0  # atno 17321 bound_to 7965
  140.0021  144.6286  150.7721 LP  0  0  0  0  0  0  0  0  0  0  0  0  # atno 17342 bound_to 10162
  140.7467  143.2895  151.3369 LP  0  0  0  0  0  0  0  0  0  0  0  0  # atno 17343 bound_to 10162
  157.6956  131.0795  150.6977 LP  0  0  0  0  0  0  0  0  0  0  0  0  # atno 17370 bound_to 10713
  156.7034  130.4630  149.5566 LP  0  0  0  0  0  0  0  0  0  0  0  0  # atno 17371 bound_to 10713
  140.2684  134.3488  155.7382 LP  0  0  0  0  0  0  0  0  0  0  0  0  # atno 17394 bound_to 11000
  141.2190  133.7409  156.9186 LP  0  0  0  0  0  0  0  0  0  0  0  0  # atno 17395 bound_to 11000

$$$$
