AV-unprocessed.smi:516|AV-procd|sdf|2784|dock1
  -GOLD-   2262023253D 1   1.00000     0.00000
 Structure written by MMmdl.
 44 46  0  0  0  0  0  0  0  0  1 V2000
  147.6266  140.7723  157.0449 C   0  0  0  0  0  0  0  0  0  0  0  0
  147.4479  139.7628  158.0226 O   0  0  0  0  0  0  0  0  0  0  0  0
  147.1371  138.5034  157.4523 C   0  0  0  0  0  0  0  0  0  0  0  0
  148.4231  137.8849  156.8916 C   0  0  0  0  0  0  0  0  0  0  0  0
  149.4115  137.6551  157.9376 N   0  0  0  0  0  0  0  0  0  0  0  0
  149.2894  136.8679  159.0378 C   0  0  0  0  0  0  0  0  0  0  0  0
  148.0466  136.0889  159.3485 C   0  0  0  0  0  0  0  0  0  0  0  0
  148.0320  135.5059  160.6888 N   0  0  0  0  0  0  0  0  0  0  0  0
  147.4960  136.4206  161.6945 C   0  0  0  0  0  0  0  0  0  0  0  0
  147.4706  135.7802  163.0936 C   0  0  0  0  0  0  0  0  0  0  0  0
  146.7254  134.5675  163.0526 O   0  0  0  0  0  0  0  0  0  0  0  0
  147.2477  133.6322  162.1145 C   0  0  0  0  0  0  0  0  0  0  0  0
  147.2664  134.2657  160.7130 C   0  0  0  0  0  0  0  0  0  0  0  0
  150.3694  136.8532  159.8266 N   0  0  0  0  0  0  0  0  0  0  0  0
  151.2477  137.7045  159.1724 C   0  0  0  0  0  0  0  0  0  0  0  0
  150.6889  138.2014  158.0415 C   0  0  0  0  0  0  0  0  0  0  0  0
  151.3903  139.1437  157.1621 C   0  0  0  0  0  0  0  0  0  0  0  0
  150.8949  139.6138  156.1402 O   0  0  0  0  0  0  0  0  0  0  0  0
  152.6378  139.4450  157.5982 N   0  0  0  0  0  0  0  0  0  0  0  0
  153.2631  138.9769  158.7223 C   0  0  0  0  0  0  0  0  0  0  0  0
  154.4076  139.3476  158.9816 O   0  0  0  0  0  0  0  0  0  0  0  0
  152.5687  138.1008  159.5201 N   0  0  0  0  0  0  0  0  0  0  0  0
  153.1462  137.5407  160.7435 C   0  0  0  0  0  0  0  0  0  0  0  0
  153.1663  140.0902  157.0295 H   0  0  0  0  0  0  0  0  0  0  0  0
  147.8633  141.7175  157.5333 H   0  0  0  0  0  0  0  0  0  0  0  0
  146.7198  140.9155  156.4559 H   0  0  0  0  0  0  0  0  0  0  0  0
  148.4477  140.5268  156.3703 H   0  0  0  0  0  0  0  0  0  0  0  0
  146.7009  137.8481  158.2079 H   0  0  0  0  0  0  0  0  0  0  0  0
  146.4008  138.6260  156.6564 H   0  0  0  0  0  0  0  0  0  0  0  0
  148.1971  136.9438  156.3914 H   0  0  0  0  0  0  0  0  0  0  0  0
  148.8568  138.5277  156.1260 H   0  0  0  0  0  0  0  0  0  0  0  0
  147.1797  136.7375  159.2129 H   0  0  0  0  0  0  0  0  0  0  0  0
  147.9532  135.2993  158.6021 H   0  0  0  0  0  0  0  0  0  0  0  0
  148.0938  137.3315  161.7346 H   0  0  0  0  0  0  0  0  0  0  0  0
  146.4848  136.7230  161.4180 H   0  0  0  0  0  0  0  0  0  0  0  0
  148.4841  135.5800  163.4446 H   0  0  0  0  0  0  0  0  0  0  0  0
  147.0098  136.4576  163.8127 H   0  0  0  0  0  0  0  0  0  0  0  0
  148.2517  133.3272  162.4138 H   0  0  0  0  0  0  0  0  0  0  0  0
  146.6255  132.7372  162.1184 H   0  0  0  0  0  0  0  0  0  0  0  0
  146.2419  134.4567  160.3894 H   0  0  0  0  0  0  0  0  0  0  0  0
  147.6906  133.5550  160.0028 H   0  0  0  0  0  0  0  0  0  0  0  0
  154.1595  137.8838  160.9549 H   0  0  0  0  0  0  0  0  0  0  0  0
  153.1786  136.4529  160.6744 H   0  0  0  0  0  0  0  0  0  0  0  0
  152.5269  137.8041  161.6015 H   0  0  0  0  0  0  0  0  0  0  0  0
  1  2  1  0  0  0  0
  1 25  1  0  0  0  0
  1 26  1  0  0  0  0
  1 27  1  0  0  0  0
  2  3  1  0  0  0  0
  3  4  1  0  0  0  0
  3 28  1  0  0  0  0
  3 29  1  0  0  0  0
  4  5  1  0  0  0  0
  4 30  1  0  0  0  0
  4 31  1  0  0  0  0
  5 16  1  0  0  0  0
  5  6  1  0  0  0  0
  6  7  1  0  0  0  0
  6 14  2  0  0  0  0
  7  8  1  0  0  0  0
  7 32  1  0  0  0  0
  7 33  1  0  0  0  0
  8 13  1  0  0  0  0
  8  9  1  0  0  0  0
  9 10  1  0  0  0  0
  9 34  1  0  0  0  0
  9 35  1  0  0  0  0
 10 11  1  0  0  0  0
 10 36  1  0  0  0  0
 10 37  1  0  0  0  0
 11 12  1  0  0  0  0
 12 13  1  0  0  0  0
 12 38  1  0  0  0  0
 12 39  1  0  0  0  0
 13 40  1  0  0  0  0
 13 41  1  0  0  0  0
 14 15  1  0  0  0  0
 15 22  1  0  0  0  0
 15 16  2  0  0  0  0
 16 17  1  0  0  0  0
 17 18  2  0  0  0  0
 17 19  1  0  0  0  0
 19 24  1  0  0  0  0
 19 20  1  0  0  0  0
 20 21  2  0  0  0  0
 20 22  1  0  0  0  0
 22 23  1  0  0  0  0
 23 42  1  0  0  0  0
 23 43  1  0  0  0  0
 23 44  1  0  0  0  0
M  END
> <s_m_source_file>
AV-unprocessed.smi

> <i_m_source_file_index>
516

> <i_lp_mmshare_version>
43012

> <i_f3d_flags>
0

> <s_epik_input>
W0NIM11uMWMoPU8pW25IXWMoPU8pYyhjMTIpbihbQ0gyXVtDSDJdT1tDSDNdKWMobjIpW0NIMl1OM1tDSDJdW0NIMl1PW0NIMl1bQ0gyXTM=

> <s_epik_cmdline>
J2VwaWtfcHl0aG9uJywgJy1waCcsICc3LjAnLCAnLXRuJywgJzgnLCAnLW1hJywgJzIwMCcsICctbWV0YWxfYmluZGluZycsICctaW1hZScsICc8aW5maWxlLm1hZT4nLCAnLW9tYWUnLCAnPG91dGZpbGUubWFlPic=

> <r_epik_Ionization_Penalty>
0.0972048

> <r_epik_Ionization_Penalty_Charging>
0.000199653

> <r_epik_Ionization_Penalty_Neutral>
0.0970052

> <r_epik_State_Penalty>
0.0871068

> <r_epik_Charging_Adjusted_Penalty>
0.0873064

> <i_epik_Tot_Q>
0

> <i_epik_Tot_abs_Q>
0

> <r_epik_Metal_State_Penalty>
0.236525

> <b_epik_Metal_Only>
0

> <s_lp_Force_Field>
OPLS_2005

> <r_lp_Energy>
41.4517

> <b_lp_Chiralities_Consistent>
1

> <s_lp_Variant>
AV-unprocessed.smi:516-1

> <Gold.Version>
5.8.1

> <Gold.Id.Protein>
6NUR|6NUR_protein|mol2

> <Gold.PLP.Fitness>
38.7330

> <Gold.PLP.PLP>
-33.7368

> <Gold.PLP.part.hbond>
-4.2204

> <Gold.PLP.part.metal>
0.0000

> <Gold.PLP.part.buried>
-6.8574

> <Gold.PLP.part.nonpolar>
-23.9905

> <Gold.PLP.part.repulsive>
0.3639

> <Gold.PLP.ligand.clash>
0.0000

> <Gold.PLP.ligand.torsion>
0.5269

> <Gold.PLP.Chemscore.Hbond>
2.0000

> <Gold.PLP.Chemscore.CHOScore>
0.0000

> <Gold.PLP.Chemscore.Metal>
0.0000

> <Gold.Chemscore.Hbonds>
donor molecule, donor type, donor heavy atom, donor atom, acceptor molecule, acceptor atom, score
      P1  H  6896  6909       L1    14  1.00
      P1  H  7997  8009       L1    21  1.00

> <Gold.PLP.Chemscore.Internal.Correction>
0.0500

> <Gold.Rescore>
     Score         DG    S(hbond)    S(metal)    S(lipo)     H(rot)  DE(clash)    DE(int)     intcor
     10.90     -11.75       1.79        0.00      47.28       2.04       0.05       0.80       ----

> <Gold.Chemscore.Fitness>
10.8970

> <Gold.Chemscore.DG>
-11.7465

> <Gold.Chemscore.ZeroCoef>
-5.4800

> <Gold.Chemscore.Hbond>
1.7864

> <Gold.Chemscore.Metal>
0.0000

> <Gold.Chemscore.Lipo>
47.2812

> <Gold.Chemscore.Internal_Hbond>
0.0000

> <Gold.Chemscore.DEClash>
0.0509

> <Gold.Chemscore.DEInternal>
0.7986

> <Gold.Chemscore.Rot>
2.0437

> <Gold.Chemscore.Internal.Correction>
   9.000000E+99

> <Gold.Chemscore.Hbonds>
donor molecule, donor type, donor heavy atom, donor atom, acceptor molecule, acceptor atom, score
      P1  H  6896  6909       L1    14  0.48
      P1  H  7997  8009       L1    21  0.50

> <Gold.Chemscore.Hbond.Weighted>
-5.9665

> <Gold.Chemscore.Metal.Weighted>
-0.0000

> <Gold.Chemscore.Lipo.Weighted>
-5.5319

> <Gold.Chemscore.Internal_Hbond.Weighted>
0.0000

> <Gold.Chemscore.DEClash.Weighted>
0.0509

> <Gold.Chemscore.DEInternal.Weighted>
0.7986

> <Gold.Chemscore.Rot.Weighted>
5.2319

> <Gold.Chemscore.Internal.Correction.Weighted>
   9.000000E+99

> <Gold.Protein.RotatedTorsions>
[ 6907 6896 6895 6894 ] final  101.83 input  -60.11 | X-H torsion
[ 7974 7965 7964 7962 ] final   90.16 input  175.53 | X-H torsion
[ 8008 7997 7996 7995 ] final  120.28 input   59.86 | X-H torsion
[ 10167 10162 10161 10158 ] final  -73.05 input  -65.29 | X-H torsion
[ 10718 10713 10712 10709 ] final -120.42 input   66.30 | X-H torsion
[ 10763 10752 10751 10750 ] final  140.10 input  -60.55 | X-H torsion
[ 11005 11000 10999 10996 ] final  169.10 input  -57.11 | X-H torsion

> <Gold.Protein.ActiveResidues>
 VAL166  LYS551  ARG553  GLY616  TRP617  ASP618  TYR619  PRO620  LYS621  CYS622 
 ASP623  PHE694  ASN695  SER759  ASP760  ASP761  ALA762  ILE779  LEU786  VAL792 
 PHE793  MET794  SER795  GLU796  ALA797  LYS798  CYS799  TRP800  GLU811  SER814 

> <Gold.Protein.RotatedAtoms>
  152.5339  134.0067  159.7919 H   0  0  0  0  0  0  0  0  0  0  0  0  # atno 6907 bound_to 6896
  151.0276  133.5811  159.2671 H   0  0  0  0  0  0  0  0  0  0  0  0  # atno 6908 bound_to 6896
  151.2828  135.0726  159.9229 H   0  0  0  0  0  0  0  0  0  0  0  0  # atno 6909 bound_to 6896
  145.5227  139.2280  143.2662 H   0  0  0  0  0  0  0  0  0  0  0  0  # atno 7974 bound_to 7965
  156.2635  140.2834  156.1125 H   0  0  0  0  0  0  0  0  0  0  0  0  # atno 8008 bound_to 7997
  155.1242  140.0392  157.2775 H   0  0  0  0  0  0  0  0  0  0  0  0  # atno 8009 bound_to 7997
  154.6648  140.2574  155.7076 H   0  0  0  0  0  0  0  0  0  0  0  0  # atno 8010 bound_to 7997
  140.5142  143.2340  151.7542 H   0  0  0  0  0  0  0  0  0  0  0  0  # atno 10167 bound_to 10162
  156.1257  130.6357  150.9538 H   0  0  0  0  0  0  0  0  0  0  0  0  # atno 10718 bound_to 10713
  153.9171  135.3005  155.3448 H   0  0  0  0  0  0  0  0  0  0  0  0  # atno 10763 bound_to 10752
  154.7594  135.4941  153.9439 H   0  0  0  0  0  0  0  0  0  0  0  0  # atno 10764 bound_to 10752
  153.1162  135.6771  153.9517 H   0  0  0  0  0  0  0  0  0  0  0  0  # atno 10765 bound_to 10752
  140.2942  134.7649  157.3863 H   0  0  0  0  0  0  0  0  0  0  0  0  # atno 11005 bound_to 11000
  146.2095  140.6040  142.9066 LP  0  0  0  0  0  0  0  0  0  0  0  0  # atno 17320 bound_to 7965
  144.7667  140.5547  143.6698 LP  0  0  0  0  0  0  0  0  0  0  0  0  # atno 17321 bound_to 7965
  139.4904  144.4348  151.9832 LP  0  0  0  0  0  0  0  0  0  0  0  0  # atno 17342 bound_to 10162
  140.3441  144.3168  150.5961 LP  0  0  0  0  0  0  0  0  0  0  0  0  # atno 17343 bound_to 10162
  157.6438  131.0906  150.8195 LP  0  0  0  0  0  0  0  0  0  0  0  0  # atno 17370 bound_to 10713
  156.8286  130.5008  149.5334 LP  0  0  0  0  0  0  0  0  0  0  0  0  # atno 17371 bound_to 10713
  140.1168  134.5272  155.8218 LP  0  0  0  0  0  0  0  0  0  0  0  0  # atno 17394 bound_to 11000
  141.2140  133.6743  156.6792 LP  0  0  0  0  0  0  0  0  0  0  0  0  # atno 17395 bound_to 11000

$$$$
