AV-unprocessed.smi:271|AV-procd|sdf|2051|dock6
  -GOLD-   2262021283D 1   1.00000     0.00000
 Structure written by MMmdl.
 58 60  0  0  0  0  0  0  0  0  1 V2000
  151.6552  144.3715  157.9974 C   0  0  0  0  0  0  0  0  0  0  0  0
  151.0318  143.5740  159.1529 C   0  0  0  0  0  0  0  0  0  0  0  0
  150.7148  144.5073  160.3340 C   0  0  0  0  0  0  0  0  0  0  0  0
  151.9488  142.4071  159.5670 C   0  0  0  0  0  0  0  0  0  0  0  0
  152.3167  141.4626  158.4010 C   0  0  0  0  0  0  0  0  0  0  0  0
  152.2095  140.0411  158.7352 N   0  0  0  0  0  0  0  0  0  0  0  0
  153.1784  139.5661  159.7200 C   0  0  0  0  0  0  0  0  0  0  0  0
  152.9895  138.0880  160.0963 C   0  0  0  0  0  0  0  0  0  0  0  0
  153.6887  137.7345  161.3402 C   0  0  0  0  0  0  0  0  0  0  0  0
  154.2392  137.4560  162.3190 N   0  0  0  0  0  0  0  0  0  0  0  0
  152.1237  139.2333  157.6535 C   0  0  0  0  0  0  0  0  0  0  0  0
  152.8896  139.5501  156.5806 N   0  0  0  0  0  0  0  0  0  0  0  0
  152.8913  138.7572  155.5048 C   0  0  0  0  0  0  0  0  0  0  0  0
  152.2251  137.6177  155.3060 N   0  0  0  0  0  0  0  0  0  0  0  0
  151.4491  137.3025  156.3825 C   0  0  0  0  0  0  0  0  0  0  0  0
  151.3243  138.0577  157.5813 C   0  0  0  0  0  0  0  0  0  0  0  0
  150.4294  137.4360  158.4438 N   0  0  0  0  0  0  0  0  0  0  0  0
  150.0647  136.3601  157.8020 C   0  0  0  0  0  0  0  0  0  0  0  0
  150.6573  136.1838  156.5717 N   0  0  0  0  0  0  0  0  0  0  0  0
  150.4666  135.0635  155.6694 C   0  0  0  0  0  0  0  0  0  0  0  0
  150.9897  133.7067  156.2138 C   0  0  2  0  0  0  0  0  0  0  0  0
  152.5088  133.8184  156.4805 C   0  0  0  0  0  0  0  0  0  0  0  0
  152.9247  132.9470  157.5129 O   0  0  0  0  0  0  0  0  0  0  0  0
  150.6213  132.4693  155.3401 C   0  0  1  0  0  0  0  0  0  0  0  0
  151.0138  132.5857  153.8749 C   0  0  0  0  0  0  0  0  0  0  0  0
  150.9685  131.1371  153.4124 C   0  0  0  0  0  0  0  0  0  0  0  0
  151.4978  130.4056  154.5064 O   0  0  0  0  0  0  0  0  0  0  0  0
  151.3230  131.1492  155.7089 C   0  0  0  0  0  0  0  0  0  0  0  0
  152.6054  144.8183  158.2918 H   0  0  0  0  0  0  0  0  0  0  0  0
  150.9952  145.1770  157.6739 H   0  0  0  0  0  0  0  0  0  0  0  0
  151.8405  143.7338  157.1326 H   0  0  0  0  0  0  0  0  0  0  0  0
  150.0922  143.1565  158.7886 H   0  0  0  0  0  0  0  0  0  0  0  0
  151.6252  144.9301  160.7604 H   0  0  0  0  0  0  0  0  0  0  0  0
  150.1853  143.9861  161.1308 H   0  0  0  0  0  0  0  0  0  0  0  0
  150.0819  145.3370  160.0183 H   0  0  0  0  0  0  0  0  0  0  0  0
  152.8738  142.8060  159.9855 H   0  0  0  0  0  0  0  0  0  0  0  0
  151.4642  141.8581  160.3755 H   0  0  0  0  0  0  0  0  0  0  0  0
  151.7026  141.6729  157.5266 H   0  0  0  0  0  0  0  0  0  0  0  0
  153.3453  141.6641  158.0998 H   0  0  0  0  0  0  0  0  0  0  0  0
  154.1904  139.7287  159.3466 H   0  0  0  0  0  0  0  0  0  0  0  0
  153.0812  140.1744  160.6200 H   0  0  0  0  0  0  0  0  0  0  0  0
  151.9317  137.8621  160.2338 H   0  0  0  0  0  0  0  0  0  0  0  0
  153.3657  137.4296  159.3134 H   0  0  0  0  0  0  0  0  0  0  0  0
  153.5266  139.0752  154.6914 H   0  0  0  0  0  0  0  0  0  0  0  0
  149.3712  135.6474  158.2241 H   0  0  0  0  0  0  0  0  0  0  0  0
  149.4038  134.9901  155.4361 H   0  0  0  0  0  0  0  0  0  0  0  0
  150.9697  135.3097  154.7336 H   0  0  0  0  0  0  0  0  0  0  0  0
  150.5331  133.5523  157.1919 H   0  0  0  0  0  0  0  0  0  0  0  0
  153.0709  133.5799  155.5771 H   0  0  0  0  0  0  0  0  0  0  0  0
  152.7879  134.8376  156.7472 H   0  0  0  0  0  0  0  0  0  0  0  0
  153.2517  132.1513  157.1216 H   0  0  0  0  0  0  0  0  0  0  0  0
  149.5426  132.3097  155.3833 H   0  0  0  0  0  0  0  0  0  0  0  0
  150.3442  133.2252  153.2988 H   0  0  0  0  0  0  0  0  0  0  0  0
  152.0287  132.9748  153.7786 H   0  0  0  0  0  0  0  0  0  0  0  0
  149.9388  130.8219  153.2380 H   0  0  0  0  0  0  0  0  0  0  0  0
  151.5395  130.9651  152.5000 H   0  0  0  0  0  0  0  0  0  0  0  0
  152.3099  131.3274  156.1371 H   0  0  0  0  0  0  0  0  0  0  0  0
  150.7458  130.5628  156.4223 H   0  0  0  0  0  0  0  0  0  0  0  0
  1  2  1  0  0  0  0
  1 29  1  0  0  0  0
  1 30  1  0  0  0  0
  1 31  1  0  0  0  0
  2  3  1  0  0  0  0
  2  4  1  0  0  0  0
  2 32  1  0  0  0  0
  3 33  1  0  0  0  0
  3 34  1  0  0  0  0
  3 35  1  0  0  0  0
  4  5  1  0  0  0  0
  4 36  1  0  0  0  0
  4 37  1  0  0  0  0
  5  6  1  0  0  0  0
  5 38  1  0  0  0  0
  5 39  1  0  0  0  0
  6  7  1  0  0  0  0
  6 11  1  0  0  0  0
  7  8  1  0  0  0  0
  7 40  1  0  0  0  0
  7 41  1  0  0  0  0
  8  9  1  0  0  0  0
  8 42  1  0  0  0  0
  8 43  1  0  0  0  0
  9 10  3  0  0  0  0
 11 16  1  0  0  0  0
 11 12  2  0  0  0  0
 12 13  1  0  0  0  0
 13 14  2  0  0  0  0
 13 44  1  0  0  0  0
 14 15  1  0  0  0  0
 15 19  1  0  0  0  0
 15 16  2  0  0  0  0
 16 17  1  0  0  0  0
 17 18  2  0  0  0  0
 18 19  1  0  0  0  0
 18 45  1  0  0  0  0
 19 20  1  0  0  0  0
 20 21  1  0  0  0  0
 20 46  1  0  0  0  0
 20 47  1  0  0  0  0
 21 22  1  0  0  0  0
 21 24  1  0  0  0  0
 21 48  1  0  0  0  0
 22 23  1  0  0  0  0
 22 49  1  0  0  0  0
 22 50  1  0  0  0  0
 23 51  1  0  0  0  0
 24 28  1  0  0  0  0
 24 25  1  0  0  0  0
 24 52  1  0  0  0  0
 25 26  1  0  0  0  0
 25 53  1  0  0  0  0
 25 54  1  0  0  0  0
 26 27  1  0  0  0  0
 26 55  1  0  0  0  0
 26 56  1  0  0  0  0
 27 28  1  0  0  0  0
 28 57  1  0  0  0  0
 28 58  1  0  0  0  0
M  END
> <s_m_source_file>
AV-unprocessed.smi

> <i_m_source_file_index>
271

> <i_lp_mmshare_version>
43012

> <i_f3d_flags>
0

> <s_epik_input>
W0NIM11bQ0hdKFtDSDNdKVtDSDJdW0NIMl1OKFtDSDJdW0NIMl1DI04pYyhuW2NIXW4xKWMoYzEyKW5bY0hdbjJbQ0gyXVtDQEhdKFtDSDJdW09IXSlbQ0BASF0zW0NIMl1bQ0gyXU9bQ0gyXTM=

> <s_epik_cmdline>
J2VwaWtfcHl0aG9uJywgJy1waCcsICc3LjAnLCAnLXRuJywgJzgnLCAnLW1hJywgJzIwMCcsICctbWV0YWxfYmluZGluZycsICctaW1hZScsICc8aW5maWxlLm1hZT4nLCAnLW9tYWUnLCAnPG91dGZpbGUubWFlPic=

> <r_lp_tautomer_probability>
1

> <r_epik_Ionization_Penalty>
0.000825874

> <r_epik_Ionization_Penalty_Charging>
0

> <r_epik_Ionization_Penalty_Neutral>
0.000825874

> <r_epik_State_Penalty>
0.000396768

> <r_epik_Charging_Adjusted_Penalty>
0.000396768

> <i_epik_Tot_Q>
0

> <i_epik_Tot_abs_Q>
0

> <r_epik_Metal_State_Penalty>
-0

> <b_epik_Metal_Only>
0

> <s_lp_Force_Field>
OPLS_2005

> <r_lp_Energy>
35.9661

> <b_lp_Chiralities_Consistent>
1

> <s_lp_Variant>
AV-unprocessed.smi:271-3

> <Gold.Version>
5.8.1

> <Gold.Id.Protein>
6NUR|6NUR_protein|mol2

> <Gold.PLP.Fitness>
49.2844

> <Gold.PLP.PLP>
-46.2891

> <Gold.PLP.part.hbond>
-2.0000

> <Gold.PLP.part.metal>
0.0000

> <Gold.PLP.part.buried>
-7.8909

> <Gold.PLP.part.nonpolar>
-37.0455

> <Gold.PLP.part.repulsive>
0.0836

> <Gold.PLP.ligand.clash>
0.0000

> <Gold.PLP.ligand.torsion>
1.6234

> <Gold.PLP.Chemscore.Hbond>
1.8000

> <Gold.PLP.Chemscore.CHOScore>
0.0000

> <Gold.PLP.Chemscore.Metal>
0.0000

> <Gold.Chemscore.Hbonds>
donor molecule, donor type, donor heavy atom, donor atom, acceptor molecule, acceptor atom, score
      P1  H  6896  6909       L1    23  0.24
      P1  H  7997  8008       L1    12  0.90
      P1  H 10752 10764       L1    14  0.30

> <Gold.PLP.Chemscore.Internal.Correction>
0.8422

> <Gold.Rescore>
     Score         DG    S(hbond)    S(metal)    S(lipo)     H(rot)  DE(clash)    DE(int)     intcor
     11.40     -13.36       1.74        0.00     100.15       3.77       0.09       1.88       ----

> <Gold.Chemscore.Fitness>
11.3980

> <Gold.Chemscore.DG>
-13.3648

> <Gold.Chemscore.ZeroCoef>
-5.4800

> <Gold.Chemscore.Hbond>
1.7406

> <Gold.Chemscore.Metal>
0.0000

> <Gold.Chemscore.Lipo>
100.1522

> <Gold.Chemscore.Internal_Hbond>
0.0000

> <Gold.Chemscore.DEClash>
0.0901

> <Gold.Chemscore.DEInternal>
1.8767

> <Gold.Chemscore.Rot>
3.7683

> <Gold.Chemscore.Internal.Correction>
   9.000000E+99

> <Gold.Chemscore.Hbonds>
donor molecule, donor type, donor heavy atom, donor atom, acceptor molecule, acceptor atom, score
      P1  H  6896  6909       L1    23  0.12
      P1  H  7997  8008       L1    12  0.17
      P1  H 10752 10764       L1    14  0.08

> <Gold.Chemscore.Hbond.Weighted>
-5.8137

> <Gold.Chemscore.Metal.Weighted>
-0.0000

> <Gold.Chemscore.Lipo.Weighted>
-11.7178

> <Gold.Chemscore.Internal_Hbond.Weighted>
0.0000

> <Gold.Chemscore.DEClash.Weighted>
0.0901

> <Gold.Chemscore.DEInternal.Weighted>
1.8767

> <Gold.Chemscore.Rot.Weighted>
9.6468

> <Gold.Chemscore.Internal.Correction.Weighted>
   9.000000E+99

> <Gold.Protein.RotatedTorsions>
[ 6907 6896 6895 6894 ] final  -48.87 input  -60.11 | X-H torsion
[ 7974 7965 7964 7962 ] final -171.81 input  175.53 | X-H torsion
[ 8008 7997 7996 7995 ] final  -49.50 input   59.86 | X-H torsion
[ 10167 10162 10161 10158 ] final  -45.14 input  -65.29 | X-H torsion
[ 10718 10713 10712 10709 ] final  -10.21 input   66.30 | X-H torsion
[ 10763 10752 10751 10750 ] final  -45.70 input  -60.55 | X-H torsion
[ 11005 11000 10999 10996 ] final  -47.10 input  -57.11 | X-H torsion

> <Gold.Protein.ActiveResidues>
 VAL166  LYS551  ARG553  GLY616  TRP617  ASP618  TYR619  PRO620  LYS621  CYS622 
 ASP623  PHE694  ASN695  SER759  ASP760  ASP761  ALA762  ILE779  LEU786  VAL792 
 PHE793  MET794  SER795  GLU796  ALA797  LYS798  CYS799  TRP800  GLU811  SER814 

> <Gold.Protein.RotatedAtoms>
  150.8862  134.8260  159.7260 H   0  0  0  0  0  0  0  0  0  0  0  0  # atno 6907 bound_to 6896
  152.4809  134.4719  159.9648 H   0  0  0  0  0  0  0  0  0  0  0  0  # atno 6908 bound_to 6896
  151.4788  133.3512  159.2870 H   0  0  0  0  0  0  0  0  0  0  0  0  # atno 6909 bound_to 6896
  144.7153  140.1866  143.6353 H   0  0  0  0  0  0  0  0  0  0  0  0  # atno 7974 bound_to 7965
  154.4045  140.1295  156.4513 H   0  0  0  0  0  0  0  0  0  0  0  0  # atno 8008 bound_to 7997
  155.7363  140.3490  155.5063 H   0  0  0  0  0  0  0  0  0  0  0  0  # atno 8009 bound_to 7997
  155.9081  140.1031  157.1290 H   0  0  0  0  0  0  0  0  0  0  0  0  # atno 8010 bound_to 7997
  140.6870  143.2894  151.3596 H   0  0  0  0  0  0  0  0  0  0  0  0  # atno 10167 bound_to 10162
  156.6768  130.5025  149.5983 H   0  0  0  0  0  0  0  0  0  0  0  0  # atno 10718 bound_to 10713
  154.0329  135.6654  153.4782 H   0  0  0  0  0  0  0  0  0  0  0  0  # atno 10763 bound_to 10752
  153.0533  135.5071  154.7916 H   0  0  0  0  0  0  0  0  0  0  0  0  # atno 10764 bound_to 10752
  154.6867  135.3054  154.9503 H   0  0  0  0  0  0  0  0  0  0  0  0  # atno 10765 bound_to 10752
  141.0620  133.6706  156.3249 H   0  0  0  0  0  0  0  0  0  0  0  0  # atno 11005 bound_to 11000
  145.8807  139.2321  143.1607 LP  0  0  0  0  0  0  0  0  0  0  0  0  # atno 17320 bound_to 7965
  145.9998  140.8530  143.0024 LP  0  0  0  0  0  0  0  0  0  0  0  0  # atno 17321 bound_to 7965
  139.6236  144.0857  152.2414 LP  0  0  0  0  0  0  0  0  0  0  0  0  # atno 17342 bound_to 10162
  140.0310  144.6081  150.7488 LP  0  0  0  0  0  0  0  0  0  0  0  0  # atno 17343 bound_to 10162
  156.1897  130.6552  151.1047 LP  0  0  0  0  0  0  0  0  0  0  0  0  # atno 17370 bound_to 10713
  157.7058  131.0757  150.6672 LP  0  0  0  0  0  0  0  0  0  0  0  0  # atno 17371 bound_to 10713
  140.5850  134.5708  157.5487 LP  0  0  0  0  0  0  0  0  0  0  0  0  # atno 17394 bound_to 11000
  139.9441  134.7733  156.0605 LP  0  0  0  0  0  0  0  0  0  0  0  0  # atno 17395 bound_to 11000

$$$$
