AV-unprocessed.smi:2994|AV-procd|sdf|11404|dock10
  -GOLD-   2272016323D 1   1.00000     0.00000
 Structure written by MMmdl.
 47 49  0  0  0  0  0  0  0  0  1 V2000
  147.8398  132.8142  152.5977 C   0  0  0  0  0  0  0  0  0  0  0  0
  148.7295  133.0269  153.8337 C   0  0  2  0  0  0  0  0  0  0  0  0
  149.2369  134.3961  153.8529 N   0  0  0  0  0  0  0  0  0  0  0  0
  149.8972  134.9692  154.8698 C   0  0  0  0  0  0  0  0  0  0  0  0
  150.1479  134.3904  155.9265 O   0  0  0  0  0  0  0  0  0  0  0  0
  150.2226  136.2408  154.5786 N   0  0  0  0  0  0  0  0  0  0  0  0
  150.8888  137.2033  155.3862 C   0  0  0  0  0  0  0  0  0  0  0  0
  151.4024  138.4350  154.9139 C   0  0  0  0  0  0  0  0  0  0  0  0
  152.0367  139.3017  155.8241 C   0  0  0  0  0  0  0  0  0  0  0  0
  152.1392  138.9130  157.1786 C   0  0  0  0  0  0  0  0  0  0  0  0
  152.7903  139.8197  158.1818 C   0  0  0  0  0  0  0  0  0  0  0  0
  153.9578  139.5980  158.5065 O   0  0  0  0  0  0  0  0  0  0  0  0
  152.0570  140.8369  158.7008 N   0  0  0  0  0  0  0  0  0  0  0  0
  150.7922  141.3522  158.1517 C   0  0  0  0  0  0  0  0  0  0  0  0
  151.0504  142.7246  157.5018 C   0  0  0  0  0  0  0  0  0  0  0  0
  151.6874  143.7038  158.5049 C   0  0  0  0  0  0  0  0  0  0  0  0
  152.9121  143.0821  159.2000 C   0  0  0  0  0  0  0  0  0  0  0  0
  152.5696  141.6965  159.7765 C   0  0  0  0  0  0  0  0  0  0  0  0
  151.6279  137.7504  157.6407 N   0  0  0  0  0  0  0  0  0  0  0  0
  151.0229  136.9235  156.7622 C   0  0  0  0  0  0  0  0  0  0  0  0
  149.8420  131.9964  153.8781 C   0  0  0  0  0  0  0  0  0  0  0  0
  149.5624  130.5668  154.2755 C   0  0  0  0  0  0  0  0  0  0  0  0
  150.3646  131.4643  155.1909 C   0  0  0  0  0  0  0  0  0  0  0  0
  147.4266  131.8053  152.5822 H   0  0  0  0  0  0  0  0  0  0  0  0
  148.4019  132.9571  151.6743 H   0  0  0  0  0  0  0  0  0  0  0  0
  146.9989  133.5082  152.5865 H   0  0  0  0  0  0  0  0  0  0  0  0
  148.1133  132.8763  154.7224 H   0  0  0  0  0  0  0  0  0  0  0  0
  149.0734  134.9487  153.0242 H   0  0  0  0  0  0  0  0  0  0  0  0
  149.9020  136.5816  153.6841 H   0  0  0  0  0  0  0  0  0  0  0  0
  151.3166  138.7420  153.8839 H   0  0  0  0  0  0  0  0  0  0  0  0
  152.4349  140.2475  155.4862 H   0  0  0  0  0  0  0  0  0  0  0  0
  150.3304  140.6980  157.4146 H   0  0  0  0  0  0  0  0  0  0  0  0
  150.0642  141.4495  158.9582 H   0  0  0  0  0  0  0  0  0  0  0  0
  151.7114  142.6000  156.6429 H   0  0  0  0  0  0  0  0  0  0  0  0
  150.1185  143.1392  157.1167 H   0  0  0  0  0  0  0  0  0  0  0  0
  151.9673  144.6308  158.0034 H   0  0  0  0  0  0  0  0  0  0  0  0
  150.9472  143.9731  159.2594 H   0  0  0  0  0  0  0  0  0  0  0  0
  153.7308  142.9870  158.4852 H   0  0  0  0  0  0  0  0  0  0  0  0
  153.2669  143.7416  159.9926 H   0  0  0  0  0  0  0  0  0  0  0  0
  151.8082  141.7917  160.5520 H   0  0  0  0  0  0  0  0  0  0  0  0
  153.4434  141.2720  160.2731 H   0  0  0  0  0  0  0  0  0  0  0  0
  150.6351  136.0031  157.1742 H   0  0  0  0  0  0  0  0  0  0  0  0
  150.5832  132.1243  153.0909 H   0  0  0  0  0  0  0  0  0  0  0  0
  148.5497  130.3136  154.5833 H   0  0  0  0  0  0  0  0  0  0  0  0
  150.0971  129.7842  153.7410 H   0  0  0  0  0  0  0  0  0  0  0  0
  151.4338  131.2776  155.2675 H   0  0  0  0  0  0  0  0  0  0  0  0
  149.8840  131.8071  156.1050 H   0  0  0  0  0  0  0  0  0  0  0  0
  1  2  1  0  0  0  0
  1 24  1  0  0  0  0
  1 25  1  0  0  0  0
  1 26  1  0  0  0  0
  2  3  1  0  0  0  0
  2 21  1  0  0  0  0
  2 27  1  0  0  0  0
  3  4  1  0  0  0  0
  3 28  1  0  0  0  0
  4  5  2  0  0  0  0
  4  6  1  0  0  0  0
  6  7  1  0  0  0  0
  6 29  1  0  0  0  0
  7 20  1  0  0  0  0
  7  8  2  0  0  0  0
  8  9  1  0  0  0  0
  8 30  1  0  0  0  0
  9 10  2  0  0  0  0
  9 31  1  0  0  0  0
 10 11  1  0  0  0  0
 10 19  1  0  0  0  0
 11 12  2  0  0  0  0
 11 13  1  0  0  0  0
 13 18  1  0  0  0  0
 13 14  1  0  0  0  0
 14 15  1  0  0  0  0
 14 32  1  0  0  0  0
 14 33  1  0  0  0  0
 15 16  1  0  0  0  0
 15 34  1  0  0  0  0
 15 35  1  0  0  0  0
 16 17  1  0  0  0  0
 16 36  1  0  0  0  0
 16 37  1  0  0  0  0
 17 18  1  0  0  0  0
 17 38  1  0  0  0  0
 17 39  1  0  0  0  0
 18 40  1  0  0  0  0
 18 41  1  0  0  0  0
 19 20  2  0  0  0  0
 20 42  1  0  0  0  0
 21 23  1  0  0  0  0
 21 22  1  0  0  0  0
 21 43  1  0  0  0  0
 22 23  1  0  0  0  0
 22 44  1  0  0  0  0
 22 45  1  0  0  0  0
 23 46  1  0  0  0  0
 23 47  1  0  0  0  0
M  END
> <s_m_source_file>
AV-unprocessed.smi

> <i_m_source_file_index>
2994

> <i_lp_mmshare_version>
43012

> <i_f3d_flags>
0

> <s_epik_input>
W0NIMl0xW0NIMl1bQ0hdMVtDQEhdKFtDSDNdKVtOSF1DKD1PKVtOSF1jMltjSF1bY0hdYyhuW2NIXTIpQyg9TylOM1tDSDJdW0NIMl1bQ0gyXVtDSDJdW0NIMl0z

> <s_epik_cmdline>
J2VwaWtfcHl0aG9uJywgJy1waCcsICc3LjAnLCAnLXRuJywgJzgnLCAnLW1hJywgJzIwMCcsICctbWV0YWxfYmluZGluZycsICctaW1hZScsICc8aW5maWxlLm1hZT4nLCAnLW9tYWUnLCAnPG91dGZpbGUubWFlPic=

> <r_lp_tautomer_probability>
1

> <r_epik_Ionization_Penalty>
4.52104e-05

> <r_epik_Ionization_Penalty_Charging>
0

> <r_epik_Ionization_Penalty_Neutral>
4.52104e-05

> <r_epik_State_Penalty>
-0

> <r_epik_Charging_Adjusted_Penalty>
0

> <i_epik_Tot_Q>
0

> <i_epik_Tot_abs_Q>
0

> <r_epik_Metal_State_Penalty>
-0

> <b_epik_Metal_Only>
0

> <s_lp_Force_Field>
OPLS_2005

> <r_lp_Energy>
45.7479

> <b_lp_Chiralities_Consistent>
1

> <s_lp_Variant>
AV-unprocessed.smi:2994-1

> <Gold.Version>
5.8.1

> <Gold.Id.Protein>
6NUR|6NUR_protein|mol2

> <Gold.PLP.Fitness>
49.3938

> <Gold.PLP.PLP>
-42.7855

> <Gold.PLP.part.hbond>
-3.0289

> <Gold.PLP.part.metal>
0.0000

> <Gold.PLP.part.buried>
-3.3470

> <Gold.PLP.part.nonpolar>
-37.0897

> <Gold.PLP.part.repulsive>
0.0804

> <Gold.PLP.ligand.clash>
0.0000

> <Gold.PLP.ligand.torsion>
2.1600

> <Gold.PLP.Chemscore.Hbond>
2.9833

> <Gold.PLP.Chemscore.CHOScore>
0.0000

> <Gold.PLP.Chemscore.Metal>
0.0000

> <Gold.Chemscore.Hbonds>
donor molecule, donor type, donor heavy atom, donor atom, acceptor molecule, acceptor atom, score
      L1  H     3    28       P1  7948  0.70
      L1  H     6    29       P1  7948  0.95
      P1  H  7997  8008       L1    12  1.00

> <Gold.PLP.Chemscore.Internal.Correction>
1.9785

> <Gold.Rescore>
     Score         DG    S(hbond)    S(metal)    S(lipo)     H(rot)  DE(clash)    DE(int)     intcor
     18.69     -22.40       2.53        0.00      97.38       1.14       0.05       3.65       ----

> <Gold.Chemscore.Fitness>
18.6928

> <Gold.Chemscore.DG>
-22.3978

> <Gold.Chemscore.ZeroCoef>
-5.4800

> <Gold.Chemscore.Hbond>
2.5276

> <Gold.Chemscore.Metal>
0.0000

> <Gold.Chemscore.Lipo>
97.3807

> <Gold.Chemscore.Internal_Hbond>
0.0000

> <Gold.Chemscore.DEClash>
0.0504

> <Gold.Chemscore.DEInternal>
3.6545

> <Gold.Chemscore.Rot>
1.1399

> <Gold.Chemscore.Internal.Correction>
   9.000000E+99

> <Gold.Chemscore.Hbonds>
donor molecule, donor type, donor heavy atom, donor atom, acceptor molecule, acceptor atom, score
      L1  H     3    28       P1  7948  0.07
      L1  H     6    29       P1  7948  0.26
      P1  H  7997  8008       L1    12  0.55

> <Gold.Chemscore.Hbond.Weighted>
-8.4423

> <Gold.Chemscore.Metal.Weighted>
-0.0000

> <Gold.Chemscore.Lipo.Weighted>
-11.3935

> <Gold.Chemscore.Internal_Hbond.Weighted>
0.0000

> <Gold.Chemscore.DEClash.Weighted>
0.0504

> <Gold.Chemscore.DEInternal.Weighted>
3.6545

> <Gold.Chemscore.Rot.Weighted>
2.9180

> <Gold.Chemscore.Internal.Correction.Weighted>
   9.000000E+99

> <Gold.Protein.RotatedTorsions>
[ 6907 6896 6895 6894 ] final -172.81 input  -60.11 | X-H torsion
[ 7974 7965 7964 7962 ] final  -49.65 input  175.53 | X-H torsion
[ 8008 7997 7996 7995 ] final -106.15 input   59.86 | X-H torsion
[ 10167 10162 10161 10158 ] final   35.30 input  -65.29 | X-H torsion
[ 10718 10713 10712 10709 ] final -177.43 input   66.30 | X-H torsion
[ 10763 10752 10751 10750 ] final  106.39 input  -60.55 | X-H torsion
[ 11005 11000 10999 10996 ] final  -18.17 input  -57.11 | X-H torsion

> <Gold.Protein.ActiveResidues>
 VAL166  LYS551  ARG553  GLY616  TRP617  ASP618  TYR619  PRO620  LYS621  CYS622 
 ASP623  PHE694  ASN695  SER759  ASP760  ASP761  ALA762  ILE779  LEU786  VAL792 
 PHE793  MET794  SER795  GLU796  ALA797  LYS798  CYS799  TRP800  GLU811  SER814 

> <Gold.Protein.RotatedAtoms>
  151.5460  133.3425  159.2943 H   0  0  0  0  0  0  0  0  0  0  0  0  # atno 6907 bound_to 6896
  150.8507  134.7833  159.7017 H   0  0  0  0  0  0  0  0  0  0  0  0  # atno 6908 bound_to 6896
  152.4554  134.5312  159.9863 H   0  0  0  0  0  0  0  0  0  0  0  0  # atno 6909 bound_to 6896
  145.9383  140.7685  142.9565 H   0  0  0  0  0  0  0  0  0  0  0  0  # atno 7974 bound_to 7965
  154.9102  140.0410  157.1942 H   0  0  0  0  0  0  0  0  0  0  0  0  # atno 8008 bound_to 7997
  154.8355  140.2906  155.5672 H   0  0  0  0  0  0  0  0  0  0  0  0  # atno 8009 bound_to 7997
  156.2989  140.2492  156.3288 H   0  0  0  0  0  0  0  0  0  0  0  0  # atno 8010 bound_to 7997
  140.4235  144.1426  150.6150 H   0  0  0  0  0  0  0  0  0  0  0  0  # atno 10167 bound_to 10162
  156.8294  130.9648  151.3107 H   0  0  0  0  0  0  0  0  0  0  0  0  # atno 10718 bound_to 10713
  153.3924  135.3878  155.1932 H   0  0  0  0  0  0  0  0  0  0  0  0  # atno 10763 bound_to 10752
  154.8720  135.3751  154.4721 H   0  0  0  0  0  0  0  0  0  0  0  0  # atno 10764 bound_to 10752
  153.5209  135.7087  153.5793 H   0  0  0  0  0  0  0  0  0  0  0  0  # atno 10765 bound_to 10752
  140.8241  133.8046  155.9690 H   0  0  0  0  0  0  0  0  0  0  0  0  # atno 11005 bound_to 11000
  144.6775  140.2239  143.7363 LP  0  0  0  0  0  0  0  0  0  0  0  0  # atno 17320 bound_to 7965
  145.8333  139.2096  143.1870 LP  0  0  0  0  0  0  0  0  0  0  0  0  # atno 17321 bound_to 7965
  140.4507  143.2488  151.9351 LP  0  0  0  0  0  0  0  0  0  0  0  0  # atno 17342 bound_to 10162
  139.4783  144.5564  151.8306 LP  0  0  0  0  0  0  0  0  0  0  0  0  # atno 17343 bound_to 10162
  157.6415  130.8809  149.9457 LP  0  0  0  0  0  0  0  0  0  0  0  0  # atno 17370 bound_to 10713
  156.0943  130.3660  150.0336 LP  0  0  0  0  0  0  0  0  0  0  0  0  # atno 17371 bound_to 10713
  140.9068  134.2311  157.5010 LP  0  0  0  0  0  0  0  0  0  0  0  0  # atno 17394 bound_to 11000
  139.8707  134.9732  156.4799 LP  0  0  0  0  0  0  0  0  0  0  0  0  # atno 17395 bound_to 11000

$$$$
