AV-unprocessed.smi:22|AV-procd|sdf|172|dock9
  -GOLD-   2262015423D 1   1.00000     0.00000
 Structure written by MMmdl.
 56 59  0  0  0  0  0  0  0  0  2 V2000
  146.0335  131.7505  149.7141 C   0  0  0  0  0  0  0  0  0  0  0  0
  145.6569  133.0079  150.4123 N   0  3  1  0  0  0  0  0  0  0  0  0
  144.2334  133.3870  150.1638 C   0  0  0  0  0  0  0  0  0  0  0  0
  143.7192  133.0235  148.7572 C   0  0  0  0  0  0  0  0  0  0  0  0
  143.5913  134.1869  147.9668 O   0  0  0  0  0  0  0  0  0  0  0  0
  146.0806  132.9789  151.8509 C   0  0  0  0  0  0  0  0  0  0  0  0
  145.6572  134.2138  152.6873 C   0  0  0  0  0  0  0  0  0  0  0  0
  146.1622  134.1196  154.1364 C   0  0  0  0  0  0  0  0  0  0  0  0
  147.6094  133.9253  154.1761 N   0  0  0  0  0  0  0  0  0  0  0  0
  148.1782  134.1603  155.3870 C   0  0  0  0  0  0  0  0  0  0  0  0
  149.4951  134.4928  155.4643 N   0  0  0  0  0  0  0  0  0  0  0  0
  150.0683  134.7141  156.6508 C   0  0  0  0  0  0  0  0  0  0  0  0
  149.5190  134.6606  157.8651 N   0  0  0  0  0  0  0  0  0  0  0  0
  148.1958  134.3390  157.7960 C   0  0  0  0  0  0  0  0  0  0  0  0
  147.4538  134.0729  156.6102 C   0  0  0  0  0  0  0  0  0  0  0  0
  146.1333  133.7855  156.9353 N   0  0  0  0  0  0  0  0  0  0  0  0
  146.1001  133.8653  158.2377 C   0  0  0  0  0  0  0  0  0  0  0  0
  147.2929  134.2027  158.8364 N   0  0  0  0  0  0  0  0  0  0  0  0
  147.5440  134.3650  160.2610 C   0  0  0  0  0  0  0  0  0  0  0  0
  147.8481  135.8246  160.6786 C   0  0  2  0  0  0  0  0  0  0  0  0
  149.1022  136.2064  160.1434 O   0  0  0  0  0  0  0  0  0  0  0  0
  147.8818  136.0019  162.1986 C   0  0  0  0  0  0  0  0  0  0  0  0
  146.6219  136.8056  162.4970 C   0  0  0  0  0  0  0  0  0  0  0  0
  146.5101  137.6418  161.3596 O   0  0  0  0  0  0  0  0  0  0  0  0
  146.7755  136.8337  160.2223 C   0  0  0  0  0  0  0  0  0  0  0  0
  148.0896  132.7727  153.4148 C   0  0  0  0  0  0  0  0  0  0  0  0
  147.6178  132.8421  151.9540 C   0  0  0  0  0  0  0  0  0  0  0  0
  145.3624  130.9369  149.9924 H   0  0  0  0  0  0  0  0  0  0  0  0
  147.0481  131.4361  149.9524 H   0  0  0  0  0  0  0  0  0  0  0  0
  146.0012  131.8695  148.6319 H   0  0  0  0  0  0  0  0  0  0  0  0
  143.6002  132.9190  150.9190 H   0  0  0  0  0  0  0  0  0  0  0  0
  144.1067  134.4642  150.2649 H   0  0  0  0  0  0  0  0  0  0  0  0
  144.3536  132.2940  148.2550 H   0  0  0  0  0  0  0  0  0  0  0  0
  142.7344  132.5626  148.8399 H   0  0  0  0  0  0  0  0  0  0  0  0
  144.3772  134.2895  147.4507 H   0  0  0  0  0  0  0  0  0  0  0  0
  145.6164  132.1073  152.3168 H   0  0  0  0  0  0  0  0  0  0  0  0
  146.0467  135.1263  152.2334 H   0  0  0  0  0  0  0  0  0  0  0  0
  144.5719  134.3098  152.7209 H   0  0  0  0  0  0  0  0  0  0  0  0
  145.8655  135.0182  154.6762 H   0  0  0  0  0  0  0  0  0  0  0  0
  145.6829  133.2812  154.6435 H   0  0  0  0  0  0  0  0  0  0  0  0
  151.1168  134.9717  156.6231 H   0  0  0  0  0  0  0  0  0  0  0  0
  145.1958  133.6813  158.7995 H   0  0  0  0  0  0  0  0  0  0  0  0
  146.6747  133.9923  160.8044 H   0  0  0  0  0  0  0  0  0  0  0  0
  148.3753  133.7146  160.5365 H   0  0  0  0  0  0  0  0  0  0  0  0
  149.7819  135.8964  160.7223 H   0  0  0  0  0  0  0  0  0  0  0  0
  147.9101  135.0593  162.7464 H   0  0  0  0  0  0  0  0  0  0  0  0
  148.7531  136.5828  162.5063 H   0  0  0  0  0  0  0  0  0  0  0  0
  145.7483  136.1552  162.5656 H   0  0  0  0  0  0  0  0  0  0  0  0
  146.6980  137.3832  163.4184 H   0  0  0  0  0  0  0  0  0  0  0  0
  147.0757  137.4355  159.3634 H   0  0  0  0  0  0  0  0  0  0  0  0
  145.8463  136.3270  159.9601 H   0  0  0  0  0  0  0  0  0  0  0  0
  149.1798  132.7380  153.4393 H   0  0  0  0  0  0  0  0  0  0  0  0
  147.7265  131.8546  153.8792 H   0  0  0  0  0  0  0  0  0  0  0  0
  147.9761  131.9542  151.4350 H   0  0  0  0  0  0  0  0  0  0  0  0
  148.0933  133.6925  151.4628 H   0  0  0  0  0  0  0  0  0  0  0  0
  146.2005  133.7459  149.9869 H   0  0  0  0  0  0  0  0  0  0  0  0
  1  2  1  0  0  0  0
  1 28  1  0  0  0  0
  1 29  1  0  0  0  0
  1 30  1  0  0  0  0
  2  3  1  0  0  0  0
  2  6  1  0  0  0  0
  2 56  1  0  0  0  0
  3  4  1  0  0  0  0
  3 31  1  0  0  0  0
  3 32  1  0  0  0  0
  4  5  1  0  0  0  0
  4 33  1  0  0  0  0
  4 34  1  0  0  0  0
  5 35  1  0  0  0  0
  6 27  1  0  0  0  0
  6  7  1  0  0  0  0
  6 36  1  0  0  0  0
  7  8  1  0  0  0  0
  7 37  1  0  0  0  0
  7 38  1  0  0  0  0
  8  9  1  0  0  0  0
  8 39  1  0  0  0  0
  8 40  1  0  0  0  0
  9 10  1  0  0  0  0
  9 26  1  0  0  0  0
 10 15  1  0  0  0  0
 10 11  2  0  0  0  0
 11 12  1  0  0  0  0
 12 13  2  0  0  0  0
 12 41  1  0  0  0  0
 13 14  1  0  0  0  0
 14 18  1  0  0  0  0
 14 15  2  0  0  0  0
 15 16  1  0  0  0  0
 16 17  2  0  0  0  0
 17 18  1  0  0  0  0
 17 42  1  0  0  0  0
 18 19  1  0  0  0  0
 19 20  1  0  0  0  0
 19 43  1  0  0  0  0
 19 44  1  0  0  0  0
 20 25  1  0  0  0  0
 20 21  1  0  0  0  0
 20 22  1  0  0  0  0
 21 45  1  0  0  0  0
 22 23  1  0  0  0  0
 22 46  1  0  0  0  0
 22 47  1  0  0  0  0
 23 24  1  0  0  0  0
 23 48  1  0  0  0  0
 23 49  1  0  0  0  0
 24 25  1  0  0  0  0
 25 50  1  0  0  0  0
 25 51  1  0  0  0  0
 26 27  1  0  0  0  0
 26 52  1  0  0  0  0
 26 53  1  0  0  0  0
 27 54  1  0  0  0  0
 27 55  1  0  0  0  0
M  CHG  1   2   1
M  END
> <s_m_source_file>
AV-unprocessed.smi

> <i_m_source_file_index>
22

> <i_lp_mmshare_version>
43012

> <i_f3d_flags>
0

> <s_epik_input>
W09IXVtDSDJdW0NIMl1OKFtDSDNdKVtDSF0xW0NIMl1bQ0gyXU4oW0NIMl1bQ0gyXTEpYyhuW2NIXW4yKWMoYzIzKW5bY0hdbjNbQ0gyXVtDQEBdNChbT0hdKVtDSDJdW0NIMl1PW0NIMl00

> <s_epik_cmdline>
J2VwaWtfcHl0aG9uJywgJy1waCcsICc3LjAnLCAnLXRuJywgJzgnLCAnLW1hJywgJzIwMCcsICctbWV0YWxfYmluZGluZycsICctaW1hZScsICc8aW5maWxlLm1hZT4nLCAnLW9tYWUnLCAnPG91dGZpbGUubWFlPic=

> <r_lp_tautomer_probability>
1

> <r_epik_Ionization_Penalty>
0.00317524

> <r_epik_Ionization_Penalty_Charging>
0.00191487

> <r_epik_Ionization_Penalty_Neutral>
0.00126037

> <r_epik_State_Penalty>
-0

> <r_epik_Charging_Adjusted_Penalty>
0.00191487

> <i_epik_Tot_Q>
1

> <i_epik_Tot_abs_Q>
1

> <r_epik_Metal_State_Penalty>
-0

> <b_epik_Metal_Only>
0

> <s_lp_Force_Field>
OPLS_2005

> <r_lp_Energy>
50.3895

> <b_lp_Chiralities_Consistent>
1

> <s_lp_Variant>
AV-unprocessed.smi:22-4

> <Gold.Version>
5.8.1

> <Gold.Id.Protein>
6NUR|6NUR_protein|mol2

> <Gold.PLP.Fitness>
48.4153

> <Gold.PLP.PLP>
-38.5125

> <Gold.PLP.part.hbond>
-6.0425

> <Gold.PLP.part.metal>
0.0000

> <Gold.PLP.part.buried>
-3.3952

> <Gold.PLP.part.nonpolar>
-30.1177

> <Gold.PLP.part.repulsive>
0.2927

> <Gold.PLP.ligand.clash>
0.0000

> <Gold.PLP.ligand.torsion>
1.1002

> <Gold.PLP.Chemscore.Hbond>
3.8640

> <Gold.PLP.Chemscore.CHOScore>
0.0000

> <Gold.PLP.Chemscore.Metal>
0.0000

> <Gold.Chemscore.Hbonds>
donor molecule, donor type, donor heavy atom, donor atom, acceptor molecule, acceptor atom, score
      L1  H     5    35       P1  7921  0.85
      P1  H  6896  6909       L1    13  1.00
      P1  H  6934  6947       L1    24  1.00
      P1  H 10192 10197       L1     5  1.00

> <Gold.PLP.Chemscore.Internal.Correction>
0.5111

> <Gold.Rescore>
     Score         DG    S(hbond)    S(metal)    S(lipo)     H(rot)  DE(clash)    DE(int)     intcor
     15.22     -19.20       3.75        0.00      92.50       3.76       1.51       2.46       ----

> <Gold.Chemscore.Fitness>
15.2228

> <Gold.Chemscore.DG>
-19.1960

> <Gold.Chemscore.ZeroCoef>
-5.4800

> <Gold.Chemscore.Hbond>
3.7468

> <Gold.Chemscore.Metal>
0.0000

> <Gold.Chemscore.Lipo>
92.5037

> <Gold.Chemscore.Internal_Hbond>
0.0000

> <Gold.Chemscore.DEClash>
1.5136

> <Gold.Chemscore.DEInternal>
2.4597

> <Gold.Chemscore.Rot>
3.7583

> <Gold.Chemscore.Internal.Correction>
   9.000000E+99

> <Gold.Chemscore.Hbonds>
donor molecule, donor type, donor heavy atom, donor atom, acceptor molecule, acceptor atom, score
      L1  H     5    35       P1  7921  0.83
      P1  H  6896  6909       L1    13  0.94
      P1  H  6934  6947       L1    24  0.34
      P1  H 10192 10197       L1     5  0.78

> <Gold.Chemscore.Hbond.Weighted>
-12.5144

> <Gold.Chemscore.Metal.Weighted>
-0.0000

> <Gold.Chemscore.Lipo.Weighted>
-10.8229

> <Gold.Chemscore.Internal_Hbond.Weighted>
0.0000

> <Gold.Chemscore.DEClash.Weighted>
1.5136

> <Gold.Chemscore.DEInternal.Weighted>
2.4597

> <Gold.Chemscore.Rot.Weighted>
9.6213

> <Gold.Chemscore.Internal.Correction.Weighted>
   9.000000E+99

> <Gold.Protein.RotatedTorsions>
[ 6907 6896 6895 6894 ] final   28.35 input  -60.11 | X-H torsion
[ 7974 7965 7964 7962 ] final -164.00 input  175.53 | X-H torsion
[ 8008 7997 7996 7995 ] final  164.75 input   59.86 | X-H torsion
[ 10167 10162 10161 10158 ] final  111.99 input  -65.29 | X-H torsion
[ 10718 10713 10712 10709 ] final -159.45 input   66.30 | X-H torsion
[ 10763 10752 10751 10750 ] final   50.70 input  -60.55 | X-H torsion
[ 11005 11000 10999 10996 ] final -179.87 input  -57.11 | X-H torsion

> <Gold.Protein.ActiveResidues>
 VAL166  LYS551  ARG553  GLY616  TRP617  ASP618  TYR619  PRO620  LYS621  CYS622 
 ASP623  PHE694  ASN695  SER759  ASP760  ASP761  ALA762  ILE779  LEU786  VAL792 
 PHE793  MET794  SER795  GLU796  ALA797  LYS798  CYS799  TRP800  GLU811  SER814 

> <Gold.Protein.RotatedAtoms>
  152.0156  134.9851  160.0569 H   0  0  0  0  0  0  0  0  0  0  0  0  # atno 6907 bound_to 6896
  152.1386  133.4446  159.4764 H   0  0  0  0  0  0  0  0  0  0  0  0  # atno 6908 bound_to 6896
  150.6863  134.2251  159.4455 H   0  0  0  0  0  0  0  0  0  0  0  0  # atno 6909 bound_to 6896
  144.7309  140.3025  143.6202 H   0  0  0  0  0  0  0  0  0  0  0  0  # atno 7974 bound_to 7965
  156.1856  140.1688  156.8192 H   0  0  0  0  0  0  0  0  0  0  0  0  # atno 8008 bound_to 7997
  154.5410  140.0737  156.8542 H   0  0  0  0  0  0  0  0  0  0  0  0  # atno 8009 bound_to 7997
  155.3215  140.3373  155.4243 H   0  0  0  0  0  0  0  0  0  0  0  0  # atno 8010 bound_to 7997
  139.6569  144.7129  151.1940 H   0  0  0  0  0  0  0  0  0  0  0  0  # atno 10167 bound_to 10162
  156.5683  130.8677  151.2830 H   0  0  0  0  0  0  0  0  0  0  0  0  # atno 10718 bound_to 10713
  152.9784  135.5870  154.4296 H   0  0  0  0  0  0  0  0  0  0  0  0  # atno 10763 bound_to 10752
  154.3910  135.2768  155.2156 H   0  0  0  0  0  0  0  0  0  0  0  0  # atno 10764 bound_to 10752
  154.4028  135.6099  153.5961 H   0  0  0  0  0  0  0  0  0  0  0  0  # atno 10765 bound_to 10752
  140.4138  134.6667  157.4628 H   0  0  0  0  0  0  0  0  0  0  0  0  # atno 11005 bound_to 11000
  145.7746  139.1869  143.2192 LP  0  0  0  0  0  0  0  0  0  0  0  0  # atno 17320 bound_to 7965
  146.0883  140.7685  142.9608 LP  0  0  0  0  0  0  0  0  0  0  0  0  # atno 17321 bound_to 7965
  140.7563  143.6058  150.8655 LP  0  0  0  0  0  0  0  0  0  0  0  0  # atno 17342 bound_to 10162
  139.9711  143.6055  152.2973 LP  0  0  0  0  0  0  0  0  0  0  0  0  # atno 17343 bound_to 10162
  157.7354  130.9761  150.2078 LP  0  0  0  0  0  0  0  0  0  0  0  0  # atno 17370 bound_to 10713
  156.2737  130.3725  149.8005 LP  0  0  0  0  0  0  0  0  0  0  0  0  # atno 17371 bound_to 10713
  140.0248  134.6493  155.9188 LP  0  0  0  0  0  0  0  0  0  0  0  0  # atno 17394 bound_to 11000
  141.1811  133.6547  156.5023 LP  0  0  0  0  0  0  0  0  0  0  0  0  # atno 17395 bound_to 11000

$$$$
