AV-unprocessed.smi:3162|AV-procd|sdf|12069|dock1
  -GOLD-   2272017503D 1   1.00000     0.00000
 Structure written by MMmdl.
 36 36  0  0  0  0  0  0  0  0  1 V2000
  147.0265  142.4666  154.1645 C   0  0  0  0  0  0  0  0  0  0  0  0
  147.5268  141.0872  153.7065 C   0  0  0  0  0  0  0  0  0  0  0  0
  148.4408  140.3689  154.7242 C   0  0  2  0  0  0  0  0  0  0  0  0
  149.7199  141.0972  154.8283 N   0  0  0  0  0  0  0  0  0  0  0  0
  150.2218  141.3194  156.1833 C   0  0  1  0  0  0  0  0  0  0  0  0
  150.9471  140.0532  156.6775 C   0  0  0  0  0  0  0  0  0  0  0  0
  151.1454  142.5541  156.1398 C   0  0  0  0  0  0  0  0  0  0  0  0
  151.4690  143.0640  157.4603 N   0  0  0  0  0  0  0  0  0  0  0  0
  151.2501  144.3259  157.9708 C   0  0  0  0  0  0  0  0  0  0  0  0
  151.7150  144.3361  159.2556 C   0  0  0  0  0  0  0  0  0  0  0  0
  151.7173  145.4649  160.2456 C   0  0  0  0  0  0  0  0  0  0  0  0
  152.2037  143.0115  159.4408 C   0  0  0  0  0  0  0  0  0  0  0  0
  152.0531  142.2526  158.3676 N   0  0  0  0  0  0  0  0  0  0  0  0
  148.6266  138.8802  154.3757 C   0  0  0  0  0  0  0  0  0  0  0  0
  149.1944  138.5935  153.2013 N   0  0  0  0  0  0  0  0  0  0  0  0
  148.2459  138.0029  155.1487 O   0  0  0  0  0  0  0  0  0  0  0  0
  146.4528  142.9502  153.3737 H   0  0  0  0  0  0  0  0  0  0  0  0
  147.8592  143.1231  154.4179 H   0  0  0  0  0  0  0  0  0  0  0  0
  146.3785  142.3921  155.0379 H   0  0  0  0  0  0  0  0  0  0  0  0
  146.6718  140.4568  153.4578 H   0  0  0  0  0  0  0  0  0  0  0  0
  148.0760  141.2219  152.7737 H   0  0  0  0  0  0  0  0  0  0  0  0
  147.9509  140.4306  155.6980 H   0  0  0  0  0  0  0  0  0  0  0  0
  150.4390  140.6883  154.2485 H   0  0  0  0  0  0  0  0  0  0  0  0
  149.3967  141.5475  156.8598 H   0  0  0  0  0  0  0  0  0  0  0  0
  151.3025  140.1749  157.7009 H   0  0  0  0  0  0  0  0  0  0  0  0
  151.8108  139.8223  156.0532 H   0  0  0  0  0  0  0  0  0  0  0  0
  150.2925  139.1822  156.6711 H   0  0  0  0  0  0  0  0  0  0  0  0
  152.0784  142.3137  155.6277 H   0  0  0  0  0  0  0  0  0  0  0  0
  150.6771  143.3589  155.5705 H   0  0  0  0  0  0  0  0  0  0  0  0
  150.7883  145.1053  157.3825 H   0  0  0  0  0  0  0  0  0  0  0  0
  151.6108  145.1048  161.2691 H   0  0  0  0  0  0  0  0  0  0  0  0
  150.8998  146.1634  160.0656 H   0  0  0  0  0  0  0  0  0  0  0  0
  152.6446  146.0362  160.2003 H   0  0  0  0  0  0  0  0  0  0  0  0
  152.6596  142.5809  160.3202 H   0  0  0  0  0  0  0  0  0  0  0  0
  149.3387  137.6307  152.9333 H   0  0  0  0  0  0  0  0  0  0  0  0
  149.4803  139.3419  152.5869 H   0  0  0  0  0  0  0  0  0  0  0  0
  1  2  1  0  0  0  0
  1 17  1  0  0  0  0
  1 18  1  0  0  0  0
  1 19  1  0  0  0  0
  2  3  1  0  0  0  0
  2 20  1  0  0  0  0
  2 21  1  0  0  0  0
  3  4  1  0  0  0  0
  3 14  1  0  0  0  0
  3 22  1  0  0  0  0
  4  5  1  0  0  0  0
  4 23  1  0  0  0  0
  5  6  1  0  0  0  0
  5  7  1  0  0  0  0
  5 24  1  0  0  0  0
  6 25  1  0  0  0  0
  6 26  1  0  0  0  0
  6 27  1  0  0  0  0
  7  8  1  0  0  0  0
  7 28  1  0  0  0  0
  7 29  1  0  0  0  0
  8 13  1  0  0  0  0
  8  9  1  0  0  0  0
  9 10  2  0  0  0  0
  9 30  1  0  0  0  0
 10 11  1  0  0  0  0
 10 12  1  0  0  0  0
 11 31  1  0  0  0  0
 11 32  1  0  0  0  0
 11 33  1  0  0  0  0
 12 13  2  0  0  0  0
 12 34  1  0  0  0  0
 14 15  1  0  0  0  0
 14 16  2  0  0  0  0
 15 35  1  0  0  0  0
 15 36  1  0  0  0  0
M  END
> <s_m_source_file>
AV-unprocessed.smi

> <i_m_source_file_index>
3162

> <i_lp_mmshare_version>
43012

> <i_f3d_flags>
0

> <s_epik_input>
W0NIM11bQ0gyXVtDQEBIXShDKD1PKVtOSDJdKVtOSF1bQ0BIXShbQ0gzXSlbQ0gyXW4xW2NIXWMoW0NIM10pW2NIXW4x

> <s_epik_cmdline>
J2VwaWtfcHl0aG9uJywgJy1waCcsICc3LjAnLCAnLXRuJywgJzgnLCAnLW1hJywgJzIwMCcsICctbWV0YWxfYmluZGluZycsICctaW1hZScsICc8aW5maWxlLm1hZT4nLCAnLW9tYWUnLCAnPG91dGZpbGUubWFlPic=

> <r_lp_tautomer_probability>
1

> <r_epik_Ionization_Penalty>
1.04167

> <r_epik_Ionization_Penalty_Charging>
0

> <r_epik_Ionization_Penalty_Neutral>
1.04167

> <r_epik_State_Penalty>
1.09367

> <r_epik_Charging_Adjusted_Penalty>
1.09367

> <i_epik_Tot_Q>
0

> <i_epik_Tot_abs_Q>
0

> <r_epik_Metal_State_Penalty>
1.09362

> <b_epik_Metal_Only>
0

> <s_lp_Force_Field>
OPLS_2005

> <r_lp_Energy>
3.23366

> <b_lp_Chiralities_Consistent>
1

> <s_lp_Variant>
AV-unprocessed.smi:3162-7

> <Gold.Version>
5.8.1

> <Gold.Id.Protein>
6NUR|6NUR_protein|mol2

> <Gold.PLP.Fitness>
40.6687

> <Gold.PLP.PLP>
-33.9617

> <Gold.PLP.part.hbond>
-2.9006

> <Gold.PLP.part.metal>
0.0000

> <Gold.PLP.part.buried>
-4.9455

> <Gold.PLP.part.nonpolar>
-27.4423

> <Gold.PLP.part.repulsive>
0.1804

> <Gold.PLP.ligand.clash>
0.0000

> <Gold.PLP.ligand.torsion>
1.0060

> <Gold.PLP.Chemscore.Hbond>
1.9600

> <Gold.PLP.Chemscore.CHOScore>
0.9019

> <Gold.PLP.Chemscore.Metal>
0.0000

> <Gold.Chemscore.Hbonds>
donor molecule, donor type, donor heavy atom, donor atom, acceptor molecule, acceptor atom, score
      L1  H    15    35       P1  7948  1.00
      L1  H    15    36       P1  7957  1.00
      L1  C     9    30       P1  8028  0.89

> <Gold.PLP.Chemscore.Internal.Correction>
0.1332

> <Gold.Rescore>
     Score         DG    S(hbond)    S(metal)    S(lipo)     H(rot)  DE(clash)    DE(int)     intcor
     14.40     -15.79       1.97        0.00      85.09       2.43       0.17       1.22       ----

> <Gold.Chemscore.Fitness>
14.3965

> <Gold.Chemscore.DG>
-15.7851

> <Gold.Chemscore.ZeroCoef>
-5.4800

> <Gold.Chemscore.Hbond>
1.9694

> <Gold.Chemscore.Metal>
0.0000

> <Gold.Chemscore.Lipo>
85.0865

> <Gold.Chemscore.Internal_Hbond>
0.0000

> <Gold.Chemscore.DEClash>
0.1724

> <Gold.Chemscore.DEInternal>
1.2161

> <Gold.Chemscore.Rot>
2.4328

> <Gold.Chemscore.Internal.Correction>
   9.000000E+99

> <Gold.Chemscore.Hbonds>
donor molecule, donor type, donor heavy atom, donor atom, acceptor molecule, acceptor atom, score
      L1  H    15    35       P1  7948  0.89
      L1  H    15    36       P1  7957  0.94

> <Gold.Chemscore.Hbond.Weighted>
-6.5779

> <Gold.Chemscore.Metal.Weighted>
-0.0000

> <Gold.Chemscore.Lipo.Weighted>
-9.9551

> <Gold.Chemscore.Internal_Hbond.Weighted>
0.0000

> <Gold.Chemscore.DEClash.Weighted>
0.1724

> <Gold.Chemscore.DEInternal.Weighted>
1.2161

> <Gold.Chemscore.Rot.Weighted>
6.2279

> <Gold.Chemscore.Internal.Correction.Weighted>
   9.000000E+99

> <Gold.Protein.RotatedTorsions>
[ 6907 6896 6895 6894 ] final   58.79 input  -60.11 | X-H torsion
[ 7974 7965 7964 7962 ] final -100.23 input  175.53 | X-H torsion
[ 8008 7997 7996 7995 ] final  -46.31 input   59.86 | X-H torsion
[ 10167 10162 10161 10158 ] final  -68.73 input  -65.29 | X-H torsion
[ 10718 10713 10712 10709 ] final  -96.49 input   66.30 | X-H torsion
[ 10763 10752 10751 10750 ] final  123.86 input  -60.55 | X-H torsion
[ 11005 11000 10999 10996 ] final  -69.38 input  -57.11 | X-H torsion

> <Gold.Protein.ActiveResidues>
 VAL166  LYS551  ARG553  GLY616  TRP617  ASP618  TYR619  PRO620  LYS621  CYS622 
 ASP623  PHE694  ASN695  SER759  ASP760  ASP761  ALA762  ILE779  LEU786  VAL792 
 PHE793  MET794  SER795  GLU796  ALA797  LYS798  CYS799  TRP800  GLU811  SER814 

> <Gold.Protein.RotatedAtoms>
  152.3856  134.6523  160.0126 H   0  0  0  0  0  0  0  0  0  0  0  0  # atno 6907 bound_to 6896
  151.6772  133.3307  159.3219 H   0  0  0  0  0  0  0  0  0  0  0  0  # atno 6908 bound_to 6896
  150.7783  134.6748  159.6456 H   0  0  0  0  0  0  0  0  0  0  0  0  # atno 6909 bound_to 6896
  145.2972  140.9368  143.2844 H   0  0  0  0  0  0  0  0  0  0  0  0  # atno 7974 bound_to 7965
  154.4006  140.1375  156.3990 H   0  0  0  0  0  0  0  0  0  0  0  0  # atno 8008 bound_to 7997
  155.7842  140.3480  155.5293 H   0  0  0  0  0  0  0  0  0  0  0  0  # atno 8009 bound_to 7997
  155.8643  140.0961  157.1583 H   0  0  0  0  0  0  0  0  0  0  0  0  # atno 8010 bound_to 7997
  140.5485  143.2312  151.6957 H   0  0  0  0  0  0  0  0  0  0  0  0  # atno 10167 bound_to 10162
  156.0063  130.5153  150.6233 H   0  0  0  0  0  0  0  0  0  0  0  0  # atno 10718 bound_to 10713
  153.6522  135.3361  155.3103 H   0  0  0  0  0  0  0  0  0  0  0  0  # atno 10763 bound_to 10752
  154.8535  135.4344  154.1892 H   0  0  0  0  0  0  0  0  0  0  0  0  # atno 10764 bound_to 10752
  153.2837  135.7011  153.7435 H   0  0  0  0  0  0  0  0  0  0  0  0  # atno 10765 bound_to 10752
  141.1553  133.6763  156.6591 H   0  0  0  0  0  0  0  0  0  0  0  0  # atno 11005 bound_to 11000
  144.9123  139.4513  143.6581 LP  0  0  0  0  0  0  0  0  0  0  0  0  # atno 17320 bound_to 7965
  146.3164  139.7939  142.8980 LP  0  0  0  0  0  0  0  0  0  0  0  0  # atno 17321 bound_to 7965
  139.5017  144.3857  152.0331 LP  0  0  0  0  0  0  0  0  0  0  0  0  # atno 17342 bound_to 10162
  140.2971  144.3688  150.6071 LP  0  0  0  0  0  0  0  0  0  0  0  0  # atno 17343 bound_to 10162
  157.4045  131.0815  151.1278 LP  0  0  0  0  0  0  0  0  0  0  0  0  # atno 17370 bound_to 10713
  157.1929  130.6360  149.5711 LP  0  0  0  0  0  0  0  0  0  0  0  0  # atno 17371 bound_to 10713
  140.3261  134.7967  157.4290 LP  0  0  0  0  0  0  0  0  0  0  0  0  # atno 17394 bound_to 11000
  140.1055  134.5415  155.8313 LP  0  0  0  0  0  0  0  0  0  0  0  0  # atno 17395 bound_to 11000

$$$$
