AV-unprocessed.smi:2521|AV-procd|sdf|9917|dock3
  -GOLD-   2272013553D 1   1.00000     0.00000
 Structure written by MMmdl.
 35 36  0  0  0  0  0  0  0  0  2 V2000
  145.2567  133.2370  162.4498 C   0  0  0  0  0  0  0  0  0  0  0  0
  145.3431  134.7286  162.8048 C   0  0  0  0  0  0  0  0  0  0  0  0
  143.9935  135.4534  162.6971 C   0  0  0  0  0  0  0  0  0  0  0  0
  146.4227  135.4300  162.0410 C   0  0  0  0  0  0  0  0  0  0  0  0
  146.6470  136.7429  162.1307 N   0  0  0  0  0  0  0  0  0  0  0  0
  147.7036  137.1483  161.3310 N   0  0  0  0  0  0  0  0  0  0  0  0
  148.2733  136.1442  160.6389 C   0  0  0  0  0  0  0  0  0  0  0  0
  149.3195  136.2482  159.7887 N   0  5  0  0  0  0  0  0  0  0  0  0
  149.6649  137.3648  159.0977 C   0  0  0  0  0  0  0  0  0  0  0  0
  148.9181  138.2546  158.6857 O   0  0  0  0  0  0  0  0  0  0  0  0
  150.9816  137.4557  158.8665 N   0  0  0  0  0  0  0  0  0  0  0  0
  151.6370  138.5436  158.1509 C   0  0  0  0  0  0  0  0  0  0  0  0
  151.0667  138.6910  156.7311 C   0  0  2  0  0  0  0  0  0  0  0  0
  151.4988  137.6106  155.7592 C   0  0  0  0  0  0  0  0  0  0  0  0
  151.2109  138.2653  154.4114 C   0  0  0  0  0  0  0  0  0  0  0  0
  151.3812  139.6661  154.6112 O   0  0  0  0  0  0  0  0  0  0  0  0
  151.5374  139.9469  155.9991 C   0  0  0  0  0  0  0  0  0  0  0  0
  147.5065  134.5867  160.9478 S   0  0  0  0  0  0  0  0  0  0  0  0
  146.2111  132.7383  162.6209 H   0  0  0  0  0  0  0  0  0  0  0  0
  144.9882  133.0930  161.4027 H   0  0  0  0  0  0  0  0  0  0  0  0
  144.5058  132.7318  163.0576 H   0  0  0  0  0  0  0  0  0  0  0  0
  145.6319  134.7761  163.8554 H   0  0  0  0  0  0  0  0  0  0  0  0
  144.0756  136.4858  163.0380 H   0  0  0  0  0  0  0  0  0  0  0  0
  143.2346  134.9630  163.3075 H   0  0  0  0  0  0  0  0  0  0  0  0
  143.6326  135.4696  161.6683 H   0  0  0  0  0  0  0  0  0  0  0  0
  151.5701  136.7132  159.2149 H   0  0  0  0  0  0  0  0  0  0  0  0
  151.4959  139.4728  158.7050 H   0  0  0  0  0  0  0  0  0  0  0  0
  152.7110  138.3543  158.1097 H   0  0  0  0  0  0  0  0  0  0  0  0
  149.9762  138.7051  156.7767 H   0  0  0  0  0  0  0  0  0  0  0  0
  152.5673  137.4140  155.8590 H   0  0  0  0  0  0  0  0  0  0  0  0
  150.9647  136.6699  155.8956 H   0  0  0  0  0  0  0  0  0  0  0  0
  151.8636  137.8930  153.6215 H   0  0  0  0  0  0  0  0  0  0  0  0
  150.1784  138.0818  154.1119 H   0  0  0  0  0  0  0  0  0  0  0  0
  150.9765  140.8351  156.2910 H   0  0  0  0  0  0  0  0  0  0  0  0
  152.5940  140.1362  156.1937 H   0  0  0  0  0  0  0  0  0  0  0  0
  1  2  1  0  0  0  0
  1 19  1  0  0  0  0
  1 20  1  0  0  0  0
  1 21  1  0  0  0  0
  2  3  1  0  0  0  0
  2  4  1  0  0  0  0
  2 22  1  0  0  0  0
  3 23  1  0  0  0  0
  3 24  1  0  0  0  0
  3 25  1  0  0  0  0
  4 18  1  0  0  0  0
  4  5  2  0  0  0  0
  5  6  1  0  0  0  0
  6  7  2  0  0  0  0
  7  8  1  0  0  0  0
  7 18  1  0  0  0  0
  8  9  1  0  0  0  0
  9 10  2  0  0  0  0
  9 11  1  0  0  0  0
 11 12  1  0  0  0  0
 11 26  1  0  0  0  0
 12 13  1  0  0  0  0
 12 27  1  0  0  0  0
 12 28  1  0  0  0  0
 13 17  1  0  0  0  0
 13 14  1  0  0  0  0
 13 29  1  0  0  0  0
 14 15  1  0  0  0  0
 14 30  1  0  0  0  0
 14 31  1  0  0  0  0
 15 16  1  0  0  0  0
 15 32  1  0  0  0  0
 15 33  1  0  0  0  0
 16 17  1  0  0  0  0
 17 34  1  0  0  0  0
 17 35  1  0  0  0  0
M  CHG  1   8  -1
M  END
> <s_m_source_file>
AV-unprocessed.smi

> <i_m_source_file_index>
2521

> <i_lp_mmshare_version>
43012

> <i_f3d_flags>
0

> <s_epik_input>
W0NIM11bQ0hdKFtDSDNdKWMxbm5jKHMxKVtOSF1DKD1PKVtOSF1bQ0gyXVtDQEBIXTJbQ0gyXVtDSDJdT1tDSDJdMg==

> <s_epik_cmdline>
J2VwaWtfcHl0aG9uJywgJy1waCcsICc3LjAnLCAnLXRuJywgJzgnLCAnLW1hJywgJzIwMCcsICctbWV0YWxfYmluZGluZycsICctaW1hZScsICc8aW5maWxlLm1hZT4nLCAnLW9tYWUnLCAnPG91dGZpbGUubWFlPic=

> <r_lp_tautomer_probability>
1

> <r_epik_Ionization_Penalty>
4.4451

> <r_epik_Ionization_Penalty_Charging>
4.28522

> <r_epik_Ionization_Penalty_Neutral>
0.159875

> <r_epik_State_Penalty>
4.28479

> <r_epik_Charging_Adjusted_Penalty>
8.57002

> <i_epik_Tot_Q>
-1

> <i_epik_Tot_abs_Q>
1

> <r_epik_Metal_State_Penalty>
0.721771

> <b_epik_Metal_Only>
1

> <s_lp_Force_Field>
OPLS_2005

> <r_lp_Energy>
14.6033

> <b_lp_Chiralities_Consistent>
1

> <s_lp_Variant>
AV-unprocessed.smi:2521-3

> <Gold.Version>
5.8.1

> <Gold.Id.Protein>
6NUR|6NUR_protein|mol2

> <Gold.PLP.Fitness>
44.0854

> <Gold.PLP.PLP>
-30.6228

> <Gold.PLP.part.hbond>
-4.2760

> <Gold.PLP.part.metal>
0.0000

> <Gold.PLP.part.buried>
-5.5190

> <Gold.PLP.part.nonpolar>
-21.9120

> <Gold.PLP.part.repulsive>
0.2292

> <Gold.PLP.ligand.clash>
0.0000

> <Gold.PLP.ligand.torsion>
0.5485

> <Gold.PLP.Chemscore.Hbond>
4.8240

> <Gold.PLP.Chemscore.CHOScore>
0.0000

> <Gold.PLP.Chemscore.Metal>
0.0000

> <Gold.Chemscore.Hbonds>
donor molecule, donor type, donor heavy atom, donor atom, acceptor molecule, acceptor atom, score
      P1  H  6896  6908       L1     8  1.92
      P1  H  6931  6943       L1     6  0.99
      P1  H  6934  6947       L1     6  0.82
      P1  H  7989  7998       L1    16  1.00

> <Gold.PLP.Chemscore.Internal.Correction>
0.0875

> <Gold.Rescore>
     Score         DG    S(hbond)    S(metal)    S(lipo)     H(rot)  DE(clash)    DE(int)     intcor
     17.18     -19.13       2.88        0.00      65.63       1.42       0.13       1.82       ----

> <Gold.Chemscore.Fitness>
17.1788

> <Gold.Chemscore.DG>
-19.1308

> <Gold.Chemscore.ZeroCoef>
-5.4800

> <Gold.Chemscore.Hbond>
2.8758

> <Gold.Chemscore.Metal>
0.0000

> <Gold.Chemscore.Lipo>
65.6315

> <Gold.Chemscore.Internal_Hbond>
0.0000

> <Gold.Chemscore.DEClash>
0.1338

> <Gold.Chemscore.DEInternal>
1.8182

> <Gold.Chemscore.Rot>
1.4193

> <Gold.Chemscore.Internal.Correction>
   9.000000E+99

> <Gold.Chemscore.Hbonds>
donor molecule, donor type, donor heavy atom, donor atom, acceptor molecule, acceptor atom, score
      P1  H  6896  6908       L1     8  0.67
      P1  H  6931  6943       L1     6  0.61
      P1  H  6934  6947       L1     6  0.24
      P1  H  7989  7998       L1    16  0.97

> <Gold.Chemscore.Hbond.Weighted>
-9.6053

> <Gold.Chemscore.Metal.Weighted>
-0.0000

> <Gold.Chemscore.Lipo.Weighted>
-7.6789

> <Gold.Chemscore.Internal_Hbond.Weighted>
0.0000

> <Gold.Chemscore.DEClash.Weighted>
0.1338

> <Gold.Chemscore.DEInternal.Weighted>
1.8182

> <Gold.Chemscore.Rot.Weighted>
3.6333

> <Gold.Chemscore.Internal.Correction.Weighted>
   9.000000E+99

> <Gold.Protein.RotatedTorsions>
[ 6907 6896 6895 6894 ] final -166.46 input  -60.11 | X-H torsion
[ 7974 7965 7964 7962 ] final   52.41 input  175.53 | X-H torsion
[ 8008 7997 7996 7995 ] final  -70.97 input   59.86 | X-H torsion
[ 10167 10162 10161 10158 ] final -137.38 input  -65.29 | X-H torsion
[ 10718 10713 10712 10709 ] final   82.96 input   66.30 | X-H torsion
[ 10763 10752 10751 10750 ] final  168.09 input  -60.55 | X-H torsion
[ 11005 11000 10999 10996 ] final   35.12 input  -57.11 | X-H torsion

> <Gold.Protein.ActiveResidues>
 VAL166  LYS551  ARG553  GLY616  TRP617  ASP618  TYR619  PRO620  LYS621  CYS622 
 ASP623  PHE694  ASN695  SER759  ASP760  ASP761  ALA762  ILE779  LEU786  VAL792 
 PHE793  MET794  SER795  GLU796  ALA797  LYS798  CYS799  TRP800  GLU811  SER814 

> <Gold.Protein.RotatedAtoms>
  151.4440  133.3635  159.2785 H   0  0  0  0  0  0  0  0  0  0  0  0  # atno 6907 bound_to 6896
  150.9137  134.8556  159.7453 H   0  0  0  0  0  0  0  0  0  0  0  0  # atno 6908 bound_to 6896
  152.4946  134.4372  159.9583 H   0  0  0  0  0  0  0  0  0  0  0  0  # atno 6909 bound_to 6896
  145.9816  139.4248  143.0128 H   0  0  0  0  0  0  0  0  0  0  0  0  # atno 7974 bound_to 7965
  154.5052  140.0824  156.7880 H   0  0  0  0  0  0  0  0  0  0  0  0  # atno 8008 bound_to 7997
  155.3910  140.3432  155.4233 H   0  0  0  0  0  0  0  0  0  0  0  0  # atno 8009 bound_to 7997
  156.1507  140.1557  156.8762 H   0  0  0  0  0  0  0  0  0  0  0  0  # atno 8010 bound_to 7997
  139.8584  143.7109  152.2652 H   0  0  0  0  0  0  0  0  0  0  0  0  # atno 10167 bound_to 10162
  157.6869  131.0070  150.2452 H   0  0  0  0  0  0  0  0  0  0  0  0  # atno 10718 bound_to 10713
  154.3635  135.2753  155.2307 H   0  0  0  0  0  0  0  0  0  0  0  0  # atno 10763 bound_to 10752
  154.4485  135.5937  153.6179 H   0  0  0  0  0  0  0  0  0  0  0  0  # atno 10764 bound_to 10752
  152.9842  135.6036  154.3858 H   0  0  0  0  0  0  0  0  0  0  0  0  # atno 10765 bound_to 10752
  140.2459  134.3360  155.7908 H   0  0  0  0  0  0  0  0  0  0  0  0  # atno 11005 bound_to 11000
  145.7761  140.9876  143.1124 LP  0  0  0  0  0  0  0  0  0  0  0  0  # atno 17320 bound_to 7965
  144.6863  139.9507  143.7478 LP  0  0  0  0  0  0  0  0  0  0  0  0  # atno 17321 bound_to 7965
  139.7398  144.7562  151.0671 LP  0  0  0  0  0  0  0  0  0  0  0  0  # atno 17342 bound_to 10162
  140.7778  143.4987  150.9800 LP  0  0  0  0  0  0  0  0  0  0  0  0  # atno 17343 bound_to 10162
  156.3059  130.3765  149.7706 LP  0  0  0  0  0  0  0  0  0  0  0  0  # atno 17370 bound_to 10713
  156.5322  130.8262  151.3241 LP  0  0  0  0  0  0  0  0  0  0  0  0  # atno 17371 bound_to 10713
  141.2206  133.7325  156.8959 LP  0  0  0  0  0  0  0  0  0  0  0  0  # atno 17394 bound_to 11000
  140.1607  134.9168  157.2710 LP  0  0  0  0  0  0  0  0  0  0  0  0  # atno 17395 bound_to 11000

$$$$
