AV-unprocessed.smi:322|AV-procd|sdf|2338|dock2
  -GOLD-   2262022243D 1   1.00000     0.00000
 Structure written by MMmdl.
 44 46  0  0  0  0  0  0  0  0  2 V2000
  149.8351  140.8364  153.7516 O   0  0  0  0  0  0  0  0  0  0  0  0
  149.5149  140.5212  155.0905 C   0  0  0  0  0  0  0  0  0  0  0  0
  150.3081  141.3050  156.0871 C   0  0  0  0  0  0  0  0  0  0  0  0
  150.4038  142.6638  156.1569 N   0  3  0  0  0  0  0  0  0  0  0  0
  151.2262  143.0275  157.2234 C   0  0  0  0  0  0  0  0  0  0  0  0
  151.6174  144.2801  157.6859 C   0  0  0  0  0  0  0  0  0  0  0  0
  152.4730  144.3017  158.8069 C   0  0  0  0  0  0  0  0  0  0  0  0
  152.9065  143.1095  159.4226 C   0  0  0  0  0  0  0  0  0  0  0  0
  152.5021  141.8454  158.9449 C   0  0  0  0  0  0  0  0  0  0  0  0
  151.6549  141.8325  157.8365 C   0  0  0  0  0  0  0  0  0  0  0  0
  151.0639  140.7965  157.1024 N   0  0  0  0  0  0  0  0  0  0  0  0
  151.3070  139.3983  157.4915 C   0  0  0  0  0  0  0  0  0  0  0  0
  151.7814  138.5210  156.3145 C   0  0  1  0  0  0  0  0  0  0  0  0
  153.0635  138.8990  155.8558 O   0  0  0  0  0  0  0  0  0  0  0  0
  151.7806  137.0182  156.6353 C   0  0  0  0  0  0  0  0  0  0  0  0
  151.3628  136.2785  155.4955 O   0  0  0  0  0  0  0  0  0  0  0  0
  150.0589  135.7279  155.6140 C   0  0  0  0  0  0  0  0  0  0  0  0
  150.0177  134.2343  155.3406 C   0  0  0  0  0  0  0  0  0  0  0  0
  150.7773  133.3487  156.1343 C   0  0  0  0  0  0  0  0  0  0  0  0
  150.7448  131.9641  155.8791 C   0  0  0  0  0  0  0  0  0  0  0  0
  149.9581  131.4604  154.8248 C   0  0  0  0  0  0  0  0  0  0  0  0
  149.9159  129.7641  154.5126 Cl  0  0  0  0  0  0  0  0  0  0  0  0
  149.2067  132.3427  154.0243 C   0  0  0  0  0  0  0  0  0  0  0  0
  149.2385  133.7275  154.2797 C   0  0  0  0  0  0  0  0  0  0  0  0
  149.5806  140.1103  153.2023 H   0  0  0  0  0  0  0  0  0  0  0  0
  148.4537  140.7079  155.2551 H   0  0  0  0  0  0  0  0  0  0  0  0
  149.6858  139.4565  155.2501 H   0  0  0  0  0  0  0  0  0  0  0  0
  151.2872  145.1945  157.2150 H   0  0  0  0  0  0  0  0  0  0  0  0
  152.8041  145.2514  159.2016 H   0  0  0  0  0  0  0  0  0  0  0  0
  153.5632  143.1649  160.2787 H   0  0  0  0  0  0  0  0  0  0  0  0
  152.8449  140.9391  159.4222 H   0  0  0  0  0  0  0  0  0  0  0  0
  152.0174  139.3790  158.3180 H   0  0  0  0  0  0  0  0  0  0  0  0
  150.3719  139.0044  157.8917 H   0  0  0  0  0  0  0  0  0  0  0  0
  151.1063  138.6784  155.4727 H   0  0  0  0  0  0  0  0  0  0  0  0
  153.5272  138.1205  155.5886 H   0  0  0  0  0  0  0  0  0  0  0  0
  152.7928  136.7215  156.9130 H   0  0  0  0  0  0  0  0  0  0  0  0
  151.1394  136.8027  157.4915 H   0  0  0  0  0  0  0  0  0  0  0  0
  149.6374  135.9569  156.5943 H   0  0  0  0  0  0  0  0  0  0  0  0
  149.4198  136.2183  154.8797 H   0  0  0  0  0  0  0  0  0  0  0  0
  151.3835  133.7294  156.9435 H   0  0  0  0  0  0  0  0  0  0  0  0
  151.3242  131.2899  156.4928 H   0  0  0  0  0  0  0  0  0  0  0  0
  148.6054  131.9590  153.2134 H   0  0  0  0  0  0  0  0  0  0  0  0
  148.6600  134.3973  153.6604 H   0  0  0  0  0  0  0  0  0  0  0  0
  149.9366  143.2916  155.5154 H   0  0  0  0  0  0  0  0  0  0  0  0
  1  2  1  0  0  0  0
  1 25  1  0  0  0  0
  2  3  1  0  0  0  0
  2 26  1  0  0  0  0
  2 27  1  0  0  0  0
  3 11  1  0  0  0  0
  3  4  2  0  0  0  0
  4  5  1  0  0  0  0
  4 44  1  0  0  0  0
  5 10  2  0  0  0  0
  5  6  1  0  0  0  0
  6  7  2  0  0  0  0
  6 28  1  0  0  0  0
  7  8  1  0  0  0  0
  7 29  1  0  0  0  0
  8  9  2  0  0  0  0
  8 30  1  0  0  0  0
  9 10  1  0  0  0  0
  9 31  1  0  0  0  0
 10 11  1  0  0  0  0
 11 12  1  0  0  0  0
 12 13  1  0  0  0  0
 12 32  1  0  0  0  0
 12 33  1  0  0  0  0
 13 14  1  0  0  0  0
 13 15  1  0  0  0  0
 13 34  1  0  0  0  0
 14 35  1  0  0  0  0
 15 16  1  0  0  0  0
 15 36  1  0  0  0  0
 15 37  1  0  0  0  0
 16 17  1  0  0  0  0
 17 18  1  0  0  0  0
 17 38  1  0  0  0  0
 17 39  1  0  0  0  0
 18 24  1  0  0  0  0
 18 19  2  0  0  0  0
 19 20  1  0  0  0  0
 19 40  1  0  0  0  0
 20 21  2  0  0  0  0
 20 41  1  0  0  0  0
 21 22  1  0  0  0  0
 21 23  1  0  0  0  0
 23 24  2  0  0  0  0
 23 42  1  0  0  0  0
 24 43  1  0  0  0  0
M  CHG  1   4   1
M  END
> <s_m_source_file>
AV-unprocessed.smi

> <i_m_source_file_index>
322

> <i_lp_mmshare_version>
43012

> <i_f3d_flags>
0

> <s_epik_input>
W2NIXTFbY0hdW2NIXVtjSF1jKGMxMiluKGMobjIpW0NIMl1bT0hdKVtDSDJdW0NASF0oW09IXSlbQ0gyXU9bQ0gyXWMzW2NIXVtjSF1jKENsKVtjSF1bY0hdMw==

> <s_epik_cmdline>
J2VwaWtfcHl0aG9uJywgJy1waCcsICc3LjAnLCAnLXRuJywgJzgnLCAnLW1hJywgJzIwMCcsICctbWV0YWxfYmluZGluZycsICctaW1hZScsICc8aW5maWxlLm1hZT4nLCAnLW9tYWUnLCAnPG91dGZpbGUubWFlPic=

> <r_epik_Ionization_Penalty>
1.34314

> <r_epik_Ionization_Penalty_Charging>
1.34228

> <r_epik_Ionization_Penalty_Neutral>
0.000856898

> <r_epik_State_Penalty>
1.41963

> <r_epik_Charging_Adjusted_Penalty>
2.76191

> <i_epik_Tot_Q>
1

> <i_epik_Tot_abs_Q>
1

> <r_epik_Metal_State_Penalty>
5.45585

> <b_epik_Metal_Only>
0

> <s_lp_Force_Field>
OPLS_2005

> <r_lp_Energy>
18.1593

> <b_lp_Chiralities_Consistent>
1

> <s_lp_Variant>
AV-unprocessed.smi:322-4

> <Gold.Version>
5.8.1

> <Gold.Id.Protein>
6NUR|6NUR_protein|mol2

> <Gold.PLP.Fitness>
67.7603

> <Gold.PLP.PLP>
-53.7600

> <Gold.PLP.part.hbond>
-5.8068

> <Gold.PLP.part.metal>
0.0000

> <Gold.PLP.part.buried>
-6.0113

> <Gold.PLP.part.nonpolar>
-42.1947

> <Gold.PLP.part.repulsive>
0.2162

> <Gold.PLP.ligand.clash>
0.0000

> <Gold.PLP.ligand.torsion>
1.3052

> <Gold.PLP.Chemscore.Hbond>
5.4611

> <Gold.PLP.Chemscore.CHOScore>
0.0000

> <Gold.PLP.Chemscore.Metal>
0.0000

> <Gold.Chemscore.Hbonds>
donor molecule, donor type, donor heavy atom, donor atom, acceptor molecule, acceptor atom, score
      L1  H     1    25       P1  7957  0.53
      L1  H     4    44       P1  8028  1.47
      P1  H  7989  7998       L1     1  0.45
      P1  H  7997  8008       L1    14  1.00
      P1  H  8011  8017       L1     1  0.76
      P1  H 10752 10765       L1    16  1.00

> <Gold.PLP.Chemscore.Internal.Correction>
0.2274

> <Gold.Rescore>
     Score         DG    S(hbond)    S(metal)    S(lipo)     H(rot)  DE(clash)    DE(int)     intcor
     22.84     -24.51       3.47        0.00     134.43       3.24       0.37       1.29       ----

> <Gold.Chemscore.Fitness>
22.8414

> <Gold.Chemscore.DG>
-24.5073

> <Gold.Chemscore.ZeroCoef>
-5.4800

> <Gold.Chemscore.Hbond>
3.4698

> <Gold.Chemscore.Metal>
0.0000

> <Gold.Chemscore.Lipo>
134.4304

> <Gold.Chemscore.Internal_Hbond>
0.0000

> <Gold.Chemscore.DEClash>
0.3724

> <Gold.Chemscore.DEInternal>
1.2935

> <Gold.Chemscore.Rot>
3.2383

> <Gold.Chemscore.Internal.Correction>
   9.000000E+99

> <Gold.Chemscore.Hbonds>
donor molecule, donor type, donor heavy atom, donor atom, acceptor molecule, acceptor atom, score
      L1  H     1    25       P1  7957  0.49
      L1  H     4    44       P1  8028  0.74
      P1  H  7989  7998       L1     1  0.11
      P1  H  7997  8008       L1    14  0.55
      P1  H  8011  8017       L1     1  0.18
      P1  H 10752 10765       L1    16  0.45

> <Gold.Chemscore.Hbond.Weighted>
-11.5890

> <Gold.Chemscore.Metal.Weighted>
-0.0000

> <Gold.Chemscore.Lipo.Weighted>
-15.7284

> <Gold.Chemscore.Internal_Hbond.Weighted>
0.0000

> <Gold.Chemscore.DEClash.Weighted>
0.3724

> <Gold.Chemscore.DEInternal.Weighted>
1.2935

> <Gold.Chemscore.Rot.Weighted>
8.2901

> <Gold.Chemscore.Internal.Correction.Weighted>
   9.000000E+99

> <Gold.Protein.RotatedTorsions>
[ 6907 6896 6895 6894 ] final   30.81 input  -60.11 | X-H torsion
[ 7974 7965 7964 7962 ] final  103.57 input  175.53 | X-H torsion
[ 8008 7997 7996 7995 ] final  -41.71 input   59.86 | X-H torsion
[ 10167 10162 10161 10158 ] final  -18.34 input  -65.29 | X-H torsion
[ 10718 10713 10712 10709 ] final    5.38 input   66.30 | X-H torsion
[ 10763 10752 10751 10750 ] final -168.67 input  -60.55 | X-H torsion
[ 11005 11000 10999 10996 ] final -156.83 input  -57.11 | X-H torsion

> <Gold.Protein.ActiveResidues>
 VAL166  LYS551  ARG553  GLY616  TRP617  ASP618  TYR619  PRO620  LYS621  CYS622 
 ASP623  PHE694  ASN695  SER759  ASP760  ASP761  ALA762  ILE779  LEU786  VAL792 
 PHE793  MET794  SER795  GLU796  ALA797  LYS798  CYS799  TRP800  GLU811  SER814 

> <Gold.Protein.RotatedAtoms>
  152.0513  134.9651  160.0574 H   0  0  0  0  0  0  0  0  0  0  0  0  # atno 6907 bound_to 6896
  152.1051  133.4266  159.4613 H   0  0  0  0  0  0  0  0  0  0  0  0  # atno 6908 bound_to 6896
  150.6841  134.2633  159.4601 H   0  0  0  0  0  0  0  0  0  0  0  0  # atno 6909 bound_to 6896
  145.3442  139.2455  143.3593 H   0  0  0  0  0  0  0  0  0  0  0  0  # atno 7974 bound_to 7965
  154.4002  140.1492  156.3236 H   0  0  0  0  0  0  0  0  0  0  0  0  # atno 8008 bound_to 7997
  155.8507  140.3458  155.5670 H   0  0  0  0  0  0  0  0  0  0  0  0  # atno 8009 bound_to 7997
  155.7987  140.0867  157.1959 H   0  0  0  0  0  0  0  0  0  0  0  0  # atno 8010 bound_to 7997
  140.7257  143.4926  150.9973 H   0  0  0  0  0  0  0  0  0  0  0  0  # atno 10167 bound_to 10162
  156.9066  130.5741  149.5647 H   0  0  0  0  0  0  0  0  0  0  0  0  # atno 10718 bound_to 10713
  154.6604  135.2924  154.9874 H   0  0  0  0  0  0  0  0  0  0  0  0  # atno 10763 bound_to 10752
  154.0936  135.6587  153.4860 H   0  0  0  0  0  0  0  0  0  0  0  0  # atno 10764 bound_to 10752
  153.0426  135.5226  154.7552 H   0  0  0  0  0  0  0  0  0  0  0  0  # atno 10765 bound_to 10752
  140.6712  134.4245  157.5231 H   0  0  0  0  0  0  0  0  0  0  0  0  # atno 11005 bound_to 11000
  146.2995  140.4045  142.8709 LP  0  0  0  0  0  0  0  0  0  0  0  0  # atno 17320 bound_to 7965
  144.8767  140.7346  143.6012 LP  0  0  0  0  0  0  0  0  0  0  0  0  # atno 17321 bound_to 7965
  139.8631  143.7289  152.3172 LP  0  0  0  0  0  0  0  0  0  0  0  0  # atno 17342 bound_to 10162
  139.7511  144.7534  151.0504 LP  0  0  0  0  0  0  0  0  0  0  0  0  # atno 17343 bound_to 10162
  156.0556  130.5618  150.9084 LP  0  0  0  0  0  0  0  0  0  0  0  0  # atno 17370 bound_to 10713
  157.5993  131.0942  150.8987 LP  0  0  0  0  0  0  0  0  0  0  0  0  # atno 17371 bound_to 10713
  139.8981  134.8622  156.2017 LP  0  0  0  0  0  0  0  0  0  0  0  0  # atno 17394 bound_to 11000
  141.0390  133.6948  156.1564 LP  0  0  0  0  0  0  0  0  0  0  0  0  # atno 17395 bound_to 11000

$$$$
