AV-unprocessed.smi:2155|AV-procd|sdf|8778|dock8
  -GOLD-   2272011563D 1   1.00000     0.00000
 Structure written by MMmdl.
 42 43  0  0  0  0  0  0  0  0  1 V2000
  150.3214  134.2757  155.7103 C   0  0  0  0  0  0  0  0  0  0  0  0
  149.7098  135.5332  155.3334 N   0  0  0  0  0  0  0  0  0  0  0  0
  148.2978  135.6416  155.3408 C   0  0  0  0  0  0  0  0  0  0  0  0
  147.5608  134.7069  155.6566 O   0  0  0  0  0  0  0  0  0  0  0  0
  147.7921  136.9525  154.9515 C   0  0  0  0  0  0  0  0  0  0  0  0
  148.6377  137.9545  154.6260 C   0  0  0  0  0  0  0  0  0  0  0  0
  150.0146  137.8245  154.6367 N   0  0  0  0  0  0  0  0  0  0  0  0
  150.8558  138.9679  154.2594 C   0  0  0  0  0  0  0  0  0  0  0  0
  151.5601  139.6243  155.4551 C   0  0  0  0  0  0  0  0  0  0  0  0
  152.7787  139.5250  155.6068 O   0  0  0  0  0  0  0  0  0  0  0  0
  150.7726  140.3134  156.2921 N   0  0  0  0  0  0  0  0  0  0  0  0
  151.2450  141.0132  157.4804 C   0  0  0  0  0  0  0  0  0  0  0  0
  150.1576  141.9326  158.0625 C   0  0  0  0  0  0  0  0  0  0  0  0
  150.7033  143.2136  158.6762 C   0  0  0  0  0  0  0  0  0  0  0  0
  149.9477  144.0086  159.4588 C   0  0  0  0  0  0  0  0  0  0  0  0
  150.4461  145.2859  160.1115 C   0  0  0  0  0  0  0  0  0  0  0  0
  151.9790  145.4029  160.0753 C   0  0  0  0  0  0  0  0  0  0  0  0
  152.5331  144.9948  158.7047 C   0  0  0  0  0  0  0  0  0  0  0  0
  152.1572  143.5431  158.3579 C   0  0  0  0  0  0  0  0  0  0  0  0
  150.5885  136.5875  155.0002 C   0  0  0  0  0  0  0  0  0  0  0  0
  151.8138  136.4446  155.0248 O   0  0  0  0  0  0  0  0  0  0  0  0
  149.5783  133.4823  155.7853 H   0  0  0  0  0  0  0  0  0  0  0  0
  150.8104  134.4352  156.6725 H   0  0  0  0  0  0  0  0  0  0  0  0
  151.0431  134.0115  154.9349 H   0  0  0  0  0  0  0  0  0  0  0  0
  146.7257  137.1232  154.9236 H   0  0  0  0  0  0  0  0  0  0  0  0
  148.2125  138.9060  154.3412 H   0  0  0  0  0  0  0  0  0  0  0  0
  151.6193  138.6467  153.5494 H   0  0  0  0  0  0  0  0  0  0  0  0
  150.2598  139.7149  153.7316 H   0  0  0  0  0  0  0  0  0  0  0  0
  149.7820  140.3496  156.0998 H   0  0  0  0  0  0  0  0  0  0  0  0
  151.5613  140.2823  158.2259 H   0  0  0  0  0  0  0  0  0  0  0  0
  152.1256  141.6054  157.2273 H   0  0  0  0  0  0  0  0  0  0  0  0
  149.4445  142.1983  157.2816 H   0  0  0  0  0  0  0  0  0  0  0  0
  149.5905  141.3834  158.8154 H   0  0  0  0  0  0  0  0  0  0  0  0
  148.9151  143.7530  159.6473 H   0  0  0  0  0  0  0  0  0  0  0  0
  149.9917  146.1287  159.5899 H   0  0  0  0  0  0  0  0  0  0  0  0
  150.0956  145.3240  161.1432 H   0  0  0  0  0  0  0  0  0  0  0  0
  152.2808  146.4217  160.3201 H   0  0  0  0  0  0  0  0  0  0  0  0
  152.4125  144.7591  160.8416 H   0  0  0  0  0  0  0  0  0  0  0  0
  152.1335  145.6660  157.9431 H   0  0  0  0  0  0  0  0  0  0  0  0
  153.6167  145.1133  158.6825 H   0  0  0  0  0  0  0  0  0  0  0  0
  152.7919  142.8557  158.9181 H   0  0  0  0  0  0  0  0  0  0  0  0
  152.3499  143.3608  157.3002 H   0  0  0  0  0  0  0  0  0  0  0  0
  1  2  1  0  0  0  0
  1 22  1  0  0  0  0
  1 23  1  0  0  0  0
  1 24  1  0  0  0  0
  2 20  1  0  0  0  0
  2  3  1  0  0  0  0
  3  4  2  0  0  0  0
  3  5  1  0  0  0  0
  5  6  2  0  0  0  0
  5 25  1  0  0  0  0
  6  7  1  0  0  0  0
  6 26  1  0  0  0  0
  7  8  1  0  0  0  0
  7 20  1  0  0  0  0
  8  9  1  0  0  0  0
  8 27  1  0  0  0  0
  8 28  1  0  0  0  0
  9 10  2  0  0  0  0
  9 11  1  0  0  0  0
 11 12  1  0  0  0  0
 11 29  1  0  0  0  0
 12 13  1  0  0  0  0
 12 30  1  0  0  0  0
 12 31  1  0  0  0  0
 13 14  1  0  0  0  0
 13 32  1  0  0  0  0
 13 33  1  0  0  0  0
 14 19  1  0  0  0  0
 14 15  2  0  0  0  0
 15 16  1  0  0  0  0
 15 34  1  0  0  0  0
 16 17  1  0  0  0  0
 16 35  1  0  0  0  0
 16 36  1  0  0  0  0
 17 18  1  0  0  0  0
 17 37  1  0  0  0  0
 17 38  1  0  0  0  0
 18 19  1  0  0  0  0
 18 39  1  0  0  0  0
 18 40  1  0  0  0  0
 19 41  1  0  0  0  0
 19 42  1  0  0  0  0
 20 21  2  0  0  0  0
M  END
> <s_m_source_file>
AV-unprocessed.smi

> <i_m_source_file_index>
2155

> <i_lp_mmshare_version>
43012

> <i_f3d_flags>
0

> <s_epik_input>
W0NIM11uMWMoPU8pW2NIXVtjSF1uKGMxPU8pW0NIMl1DKD1PKVtOSF1bQ0gyXVtDSDJdQzI9W0NIXVtDSDJdW0NIMl1bQ0gyXVtDSDJdMg==

> <s_epik_cmdline>
J2VwaWtfcHl0aG9uJywgJy1waCcsICc3LjAnLCAnLXRuJywgJzgnLCAnLW1hJywgJzIwMCcsICctbWV0YWxfYmluZGluZycsICctaW1hZScsICc8aW5maWxlLm1hZT4nLCAnLW9tYWUnLCAnPG91dGZpbGUubWFlPic=

> <r_lp_tautomer_probability>
1

> <r_epik_Ionization_Penalty>
3.01725e-08

> <r_epik_Ionization_Penalty_Charging>
1.20689e-08

> <r_epik_Ionization_Penalty_Neutral>
1.81035e-08

> <r_epik_State_Penalty>
-0

> <r_epik_Charging_Adjusted_Penalty>
1.20689e-08

> <i_epik_Tot_Q>
0

> <i_epik_Tot_abs_Q>
0

> <r_epik_Metal_State_Penalty>
-0

> <b_epik_Metal_Only>
0

> <s_lp_Force_Field>
OPLS_2005

> <r_lp_Energy>
16.2907

> <b_lp_Chiralities_Consistent>
1

> <s_lp_Variant>
AV-unprocessed.smi:2155-1

> <Gold.Version>
5.8.1

> <Gold.Id.Protein>
6NUR|6NUR_protein|mol2

> <Gold.PLP.Fitness>
43.6086

> <Gold.PLP.PLP>
-39.0144

> <Gold.PLP.part.hbond>
-1.7383

> <Gold.PLP.part.metal>
0.0000

> <Gold.PLP.part.buried>
-6.0988

> <Gold.PLP.part.nonpolar>
-31.7467

> <Gold.PLP.part.repulsive>
0.2155

> <Gold.PLP.ligand.clash>
0.0000

> <Gold.PLP.ligand.torsion>
0.7060

> <Gold.PLP.Chemscore.Hbond>
1.9913

> <Gold.PLP.Chemscore.CHOScore>
0.0000

> <Gold.PLP.Chemscore.Metal>
0.0000

> <Gold.Chemscore.Hbonds>
donor molecule, donor type, donor heavy atom, donor atom, acceptor molecule, acceptor atom, score
      P1  H  7997  8010       L1    10  1.00
      P1  H 10752 10763       L1    21  0.98

> <Gold.PLP.Chemscore.Internal.Correction>
0.0325

> <Gold.Rescore>
     Score         DG    S(hbond)    S(metal)    S(lipo)     H(rot)  DE(clash)    DE(int)     intcor
     17.48     -18.32       1.99        0.00      95.38       1.94       0.14       0.71       ----

> <Gold.Chemscore.Fitness>
17.4794

> <Gold.Chemscore.DG>
-18.3233

> <Gold.Chemscore.ZeroCoef>
-5.4800

> <Gold.Chemscore.Hbond>
1.9902

> <Gold.Chemscore.Metal>
0.0000

> <Gold.Chemscore.Lipo>
95.3833

> <Gold.Chemscore.Internal_Hbond>
0.0000

> <Gold.Chemscore.DEClash>
0.1361

> <Gold.Chemscore.DEInternal>
0.7077

> <Gold.Chemscore.Rot>
1.9390

> <Gold.Chemscore.Internal.Correction>
   9.000000E+99

> <Gold.Chemscore.Hbonds>
donor molecule, donor type, donor heavy atom, donor atom, acceptor molecule, acceptor atom, score
      P1  H  7997  8010       L1    10  1.00
      P1  H 10752 10763       L1    21  0.90

> <Gold.Chemscore.Hbond.Weighted>
-6.6474

> <Gold.Chemscore.Metal.Weighted>
-0.0000

> <Gold.Chemscore.Lipo.Weighted>
-11.1598

> <Gold.Chemscore.Internal_Hbond.Weighted>
0.0000

> <Gold.Chemscore.DEClash.Weighted>
0.1361

> <Gold.Chemscore.DEInternal.Weighted>
0.7077

> <Gold.Chemscore.Rot.Weighted>
4.9639

> <Gold.Chemscore.Internal.Correction.Weighted>
   9.000000E+99

> <Gold.Protein.RotatedTorsions>
[ 6907 6896 6895 6894 ] final -147.58 input  -60.11 | X-H torsion
[ 7974 7965 7964 7962 ] final  -85.33 input  175.53 | X-H torsion
[ 8008 7997 7996 7995 ] final   94.20 input   59.86 | X-H torsion
[ 10167 10162 10161 10158 ] final  106.44 input  -65.29 | X-H torsion
[ 10718 10713 10712 10709 ] final  166.13 input   66.30 | X-H torsion
[ 10763 10752 10751 10750 ] final   45.39 input  -60.55 | X-H torsion
[ 11005 11000 10999 10996 ] final  104.18 input  -57.11 | X-H torsion

> <Gold.Protein.ActiveResidues>
 VAL166  LYS551  ARG553  GLY616  TRP617  ASP618  TYR619  PRO620  LYS621  CYS622 
 ASP623  PHE694  ASN695  SER759  ASP760  ASP761  ALA762  ILE779  LEU786  VAL792 
 PHE793  MET794  SER795  GLU796  ALA797  LYS798  CYS799  TRP800  GLU811  SER814 

> <Gold.Protein.RotatedAtoms>
  151.1576  133.4866  159.2594 H   0  0  0  0  0  0  0  0  0  0  0  0  # atno 6907 bound_to 6896
  151.1487  135.0216  159.8669 H   0  0  0  0  0  0  0  0  0  0  0  0  # atno 6908 bound_to 6896
  152.5463  134.1463  159.8553 H   0  0  0  0  0  0  0  0  0  0  0  0  # atno 6909 bound_to 6896
  145.4948  140.9551  143.1792 H   0  0  0  0  0  0  0  0  0  0  0  0  # atno 7974 bound_to 7965
  156.0553  140.3303  155.7398 H   0  0  0  0  0  0  0  0  0  0  0  0  # atno 8008 bound_to 7997
  155.5539  140.0613  157.2861 H   0  0  0  0  0  0  0  0  0  0  0  0  # atno 8009 bound_to 7997
  154.4455  140.1889  156.0702 H   0  0  0  0  0  0  0  0  0  0  0  0  # atno 8010 bound_to 7997
  139.7009  144.7094  151.1188 H   0  0  0  0  0  0  0  0  0  0  0  0  # atno 10167 bound_to 10162
  157.0703  131.0364  151.2614 H   0  0  0  0  0  0  0  0  0  0  0  0  # atno 10718 bound_to 10713
  152.9825  135.6041  154.3429 H   0  0  0  0  0  0  0  0  0  0  0  0  # atno 10763 bound_to 10752
  154.3125  135.2771  155.2561 H   0  0  0  0  0  0  0  0  0  0  0  0  # atno 10764 bound_to 10752
  154.4764  135.5928  153.6414 H   0  0  0  0  0  0  0  0  0  0  0  0  # atno 10765 bound_to 10752
  139.8789  134.9291  156.5322 H   0  0  0  0  0  0  0  0  0  0  0  0  # atno 11005 bound_to 11000
  144.7813  139.6519  143.7153 LP  0  0  0  0  0  0  0  0  0  0  0  0  # atno 17320 bound_to 7965
  146.2262  139.5728  142.9585 LP  0  0  0  0  0  0  0  0  0  0  0  0  # atno 17321 bound_to 7965
  140.7709  143.5426  150.9295 LP  0  0  0  0  0  0  0  0  0  0  0  0  # atno 17342 bound_to 10162
  139.9107  143.6723  152.3115 LP  0  0  0  0  0  0  0  0  0  0  0  0  # atno 17343 bound_to 10162
  157.4884  130.7807  149.7482 LP  0  0  0  0  0  0  0  0  0  0  0  0  # atno 17370 bound_to 10713
  155.9952  130.3913  150.2827 LP  0  0  0  0  0  0  0  0  0  0  0  0  # atno 17371 bound_to 10713
  140.8372  133.8233  155.9040 LP  0  0  0  0  0  0  0  0  0  0  0  0  # atno 17394 bound_to 11000
  140.9272  134.2068  157.4888 LP  0  0  0  0  0  0  0  0  0  0  0  0  # atno 17395 bound_to 11000

$$$$
