AV-unprocessed.smi:1561|AV-procd|sdf|6284|dock2
  -GOLD-   22720 6483D 1   1.00000     0.00000
 Structure written by MMmdl.
 33 34  0  0  0  0  0  0  0  0  1 V2000
  149.8864  138.1292  154.6400 C   0  0  0  0  0  0  0  0  0  0  0  0
  149.5508  139.3733  155.4880 C   0  0  1  0  0  0  0  0  0  0  0  0
  150.8053  140.1375  155.9389 C   0  0  0  0  0  0  0  0  0  0  0  0
  151.6201  140.5495  155.1126 O   0  0  0  0  0  0  0  0  0  0  0  0
  150.9458  140.3185  157.2621 N   0  0  0  0  0  0  0  0  0  0  0  0
  152.0459  141.0254  157.9102 C   0  0  0  0  0  0  0  0  0  0  0  0
  151.5669  142.2981  158.6335 C   0  0  2  0  0  0  0  0  0  0  0  0
  151.5403  143.5296  157.7515 C   0  0  0  0  0  0  0  0  0  0  0  0
  151.4953  144.6586  158.7778 C   0  0  0  0  0  0  0  0  0  0  0  0
  152.1629  144.1641  159.9357 O   0  0  0  0  0  0  0  0  0  0  0  0
  152.4686  142.7833  159.7697 C   0  0  0  0  0  0  0  0  0  0  0  0
  148.6270  140.2753  154.8093 N   0  0  0  0  0  0  0  0  0  0  0  0
  148.6716  141.6541  154.7614 C   0  0  0  0  0  0  0  0  0  0  0  0
  147.6331  142.0726  153.9802 C   0  0  0  0  0  0  0  0  0  0  0  0
  147.0057  140.8620  153.5755 C   0  0  0  0  0  0  0  0  0  0  0  0
  147.6059  139.7898  154.0648 N   0  0  0  0  0  0  0  0  0  0  0  0
  150.5336  137.4437  155.1883 H   0  0  0  0  0  0  0  0  0  0  0  0
  150.3943  138.3883  153.7100 H   0  0  0  0  0  0  0  0  0  0  0  0
  148.9799  137.5825  154.3790 H   0  0  0  0  0  0  0  0  0  0  0  0
  149.0455  139.0169  156.3874 H   0  0  0  0  0  0  0  0  0  0  0  0
  150.2290  139.9446  157.8669 H   0  0  0  0  0  0  0  0  0  0  0  0
  152.5797  140.3673  158.5981 H   0  0  0  0  0  0  0  0  0  0  0  0
  152.7623  141.2978  157.1350 H   0  0  0  0  0  0  0  0  0  0  0  0
  150.5623  142.1352  159.0282 H   0  0  0  0  0  0  0  0  0  0  0  0
  152.4580  143.5970  157.1648 H   0  0  0  0  0  0  0  0  0  0  0  0
  150.6943  143.5481  157.0636 H   0  0  0  0  0  0  0  0  0  0  0  0
  151.9617  145.5723  158.4089 H   0  0  0  0  0  0  0  0  0  0  0  0
  150.4637  144.8895  159.0459 H   0  0  0  0  0  0  0  0  0  0  0  0
  152.3148  142.2286  160.6955 H   0  0  0  0  0  0  0  0  0  0  0  0
  153.5202  142.6950  159.4923 H   0  0  0  0  0  0  0  0  0  0  0  0
  149.4316  142.2174  155.2827 H   0  0  0  0  0  0  0  0  0  0  0  0
  147.3654  143.0885  153.7307 H   0  0  0  0  0  0  0  0  0  0  0  0
  146.1409  140.7313  152.9418 H   0  0  0  0  0  0  0  0  0  0  0  0
  1  2  1  0  0  0  0
  1 17  1  0  0  0  0
  1 18  1  0  0  0  0
  1 19  1  0  0  0  0
  2  3  1  0  0  0  0
  2 12  1  0  0  0  0
  2 20  1  0  0  0  0
  3  4  2  0  0  0  0
  3  5  1  0  0  0  0
  5  6  1  0  0  0  0
  5 21  1  0  0  0  0
  6  7  1  0  0  0  0
  6 22  1  0  0  0  0
  6 23  1  0  0  0  0
  7 11  1  0  0  0  0
  7  8  1  0  0  0  0
  7 24  1  0  0  0  0
  8  9  1  0  0  0  0
  8 25  1  0  0  0  0
  8 26  1  0  0  0  0
  9 10  1  0  0  0  0
  9 27  1  0  0  0  0
  9 28  1  0  0  0  0
 10 11  1  0  0  0  0
 11 29  1  0  0  0  0
 11 30  1  0  0  0  0
 12 16  1  0  0  0  0
 12 13  1  0  0  0  0
 13 14  2  0  0  0  0
 13 31  1  0  0  0  0
 14 15  1  0  0  0  0
 14 32  1  0  0  0  0
 15 16  2  0  0  0  0
 15 33  1  0  0  0  0
M  END
> <s_m_source_file>
AV-unprocessed.smi

> <i_m_source_file_index>
1561

> <i_lp_mmshare_version>
43012

> <i_f3d_flags>
0

> <s_epik_input>
bjFbY0hdW2NIXVtjSF1uMVtDQEhdKFtDSDNdKUMoPU8pW05IXVtDSDJdW0NAQEhdMltDSDJdW0NIMl1PW0NIMl0y

> <s_epik_cmdline>
J2VwaWtfcHl0aG9uJywgJy1waCcsICc3LjAnLCAnLXRuJywgJzgnLCAnLW1hJywgJzIwMCcsICctbWV0YWxfYmluZGluZycsICctaW1hZScsICc8aW5maWxlLm1hZT4nLCAnLW9tYWUnLCAnPG91dGZpbGUubWFlPic=

> <r_lp_tautomer_probability>
1

> <r_epik_Ionization_Penalty>
3.82077e-05

> <r_epik_Ionization_Penalty_Charging>
0

> <r_epik_Ionization_Penalty_Neutral>
3.82077e-05

> <r_epik_State_Penalty>
-0

> <r_epik_Charging_Adjusted_Penalty>
0

> <i_epik_Tot_Q>
0

> <i_epik_Tot_abs_Q>
0

> <r_epik_Metal_State_Penalty>
-0

> <b_epik_Metal_Only>
0

> <s_lp_Force_Field>
OPLS_2005

> <r_lp_Energy>
22.8323

> <b_lp_Chiralities_Consistent>
1

> <s_lp_Variant>
AV-unprocessed.smi:1561-2

> <Gold.Version>
5.8.1

> <Gold.Id.Protein>
6NUR|6NUR_protein|mol2

> <Gold.PLP.Fitness>
36.7324

> <Gold.PLP.PLP>
-31.1304

> <Gold.PLP.part.hbond>
-0.8716

> <Gold.PLP.part.metal>
0.0000

> <Gold.PLP.part.buried>
-3.5339

> <Gold.PLP.part.nonpolar>
-26.6049

> <Gold.PLP.part.repulsive>
0.2593

> <Gold.PLP.ligand.clash>
0.0000

> <Gold.PLP.ligand.torsion>
0.8493

> <Gold.PLP.Chemscore.Hbond>
0.8320

> <Gold.PLP.Chemscore.CHOScore>
1.5622

> <Gold.PLP.Chemscore.Metal>
0.0000

> <Gold.Chemscore.Hbonds>
donor molecule, donor type, donor heavy atom, donor atom, acceptor molecule, acceptor atom, score
      P1  H  7989  7998       L1     4  0.80
      L1  C    13    31       P1  8028  0.60
      L1  C    15    33       P1 10175  1.00

> <Gold.PLP.Chemscore.Internal.Correction>
0.1180

> <Gold.Rescore>
     Score         DG    S(hbond)    S(metal)    S(lipo)     H(rot)  DE(clash)    DE(int)     intcor
     13.82     -14.28       0.94        0.00      83.43       1.61       0.00       0.45       ----

> <Gold.Chemscore.Fitness>
13.8221

> <Gold.Chemscore.DG>
-14.2754

> <Gold.Chemscore.ZeroCoef>
-5.4800

> <Gold.Chemscore.Hbond>
0.9443

> <Gold.Chemscore.Metal>
0.0000

> <Gold.Chemscore.Lipo>
83.4313

> <Gold.Chemscore.Internal_Hbond>
0.0000

> <Gold.Chemscore.DEClash>
0.0004

> <Gold.Chemscore.DEInternal>
0.4529

> <Gold.Chemscore.Rot>
1.6094

> <Gold.Chemscore.Internal.Correction>
   9.000000E+99

> <Gold.Chemscore.Hbonds>
donor molecule, donor type, donor heavy atom, donor atom, acceptor molecule, acceptor atom, score
      P1  H  7989  7998       L1     4  0.79

> <Gold.Chemscore.Hbond.Weighted>
-3.1540

> <Gold.Chemscore.Metal.Weighted>
-0.0000

> <Gold.Chemscore.Lipo.Weighted>
-9.7615

> <Gold.Chemscore.Internal_Hbond.Weighted>
0.0000

> <Gold.Chemscore.DEClash.Weighted>
0.0004

> <Gold.Chemscore.DEInternal.Weighted>
0.4529

> <Gold.Chemscore.Rot.Weighted>
4.1201

> <Gold.Chemscore.Internal.Correction.Weighted>
   9.000000E+99

> <Gold.Protein.RotatedTorsions>
[ 6907 6896 6895 6894 ] final  142.83 input  -60.11 | X-H torsion
[ 7974 7965 7964 7962 ] final -102.66 input  175.53 | X-H torsion
[ 8008 7997 7996 7995 ] final -159.88 input   59.86 | X-H torsion
[ 10167 10162 10161 10158 ] final  107.69 input  -65.29 | X-H torsion
[ 10718 10713 10712 10709 ] final  177.54 input   66.30 | X-H torsion
[ 10763 10752 10751 10750 ] final -119.64 input  -60.55 | X-H torsion
[ 11005 11000 10999 10996 ] final  -40.55 input  -57.11 | X-H torsion

> <Gold.Protein.ActiveResidues>
 VAL166  LYS551  ARG553  GLY616  TRP617  ASP618  TYR619  PRO620  LYS621  CYS622 
 ASP623  PHE694  ASN695  SER759  ASP760  ASP761  ALA762  ILE779  LEU786  VAL792 
 PHE793  MET794  SER795  GLU796  ALA797  LYS798  CYS799  TRP800  GLU811  SER814 

> <Gold.Protein.RotatedAtoms>
  152.2138  133.4931  159.5124 H   0  0  0  0  0  0  0  0  0  0  0  0  # atno 6907 bound_to 6896
  150.6996  134.1432  159.4122 H   0  0  0  0  0  0  0  0  0  0  0  0  # atno 6908 bound_to 6896
  151.9352  135.0238  160.0582 H   0  0  0  0  0  0  0  0  0  0  0  0  # atno 6909 bound_to 6896
  145.2658  140.9283  143.3014 H   0  0  0  0  0  0  0  0  0  0  0  0  # atno 7974 bound_to 7965
  155.7691  140.0849  157.2117 H   0  0  0  0  0  0  0  0  0  0  0  0  # atno 8008 bound_to 7997
  154.3997  140.1528  156.2978 H   0  0  0  0  0  0  0  0  0  0  0  0  # atno 8009 bound_to 7997
  155.8764  140.3423  155.5860 H   0  0  0  0  0  0  0  0  0  0  0  0  # atno 8010 bound_to 7997
  139.6907  144.7108  151.1354 H   0  0  0  0  0  0  0  0  0  0  0  0  # atno 10167 bound_to 10162
  156.9039  130.9888  151.3031 H   0  0  0  0  0  0  0  0  0  0  0  0  # atno 10718 bound_to 10713
  154.8622  135.4231  154.2330 H   0  0  0  0  0  0  0  0  0  0  0  0  # atno 10763 bound_to 10752
  153.3311  135.6988  153.6952 H   0  0  0  0  0  0  0  0  0  0  0  0  # atno 10764 bound_to 10752
  153.5968  135.3544  155.2904 H   0  0  0  0  0  0  0  0  0  0  0  0  # atno 10765 bound_to 10752
  141.0182  133.6875  156.2336 H   0  0  0  0  0  0  0  0  0  0  0  0  # atno 11005 bound_to 11000
  144.9378  139.4224  143.6464 LP  0  0  0  0  0  0  0  0  0  0  0  0  # atno 17320 bound_to 7965
  146.3261  139.8322  142.8906 LP  0  0  0  0  0  0  0  0  0  0  0  0  # atno 17321 bound_to 7965
  140.7681  143.5564  150.9147 LP  0  0  0  0  0  0  0  0  0  0  0  0  # atno 17342 bound_to 10162
  139.9241  143.6571  152.3090 LP  0  0  0  0  0  0  0  0  0  0  0  0  # atno 17343 bound_to 10162
  157.6009  130.8512  149.8801 LP  0  0  0  0  0  0  0  0  0  0  0  0  # atno 17370 bound_to 10713
  156.0568  130.3707  150.1072 LP  0  0  0  0  0  0  0  0  0  0  0  0  # atno 17371 bound_to 10713
  140.6618  134.4960  157.5583 LP  0  0  0  0  0  0  0  0  0  0  0  0  # atno 17394 bound_to 11000
  139.9130  134.8305  156.1462 LP  0  0  0  0  0  0  0  0  0  0  0  0  # atno 17395 bound_to 11000

$$$$
