AV-unprocessed.smi:2821|AV-procd|sdf|10857|dock3
  -GOLD-   2272015303D 1   1.00000     0.00000
 Structure written by MMmdl.
 36 37  0  0  0  0  0  0  0  0  1 V2000
  146.1185  142.8383  154.3990 C   0  0  0  0  0  0  0  0  0  0  0  0
  147.3529  141.9448  154.2585 C   0  0  0  0  0  0  0  0  0  0  0  0
  148.0456  141.9200  155.5031 O   0  0  0  0  0  0  0  0  0  0  0  0
  149.2678  141.2820  155.5564 C   0  0  0  0  0  0  0  0  0  0  0  0
  149.7047  140.5167  154.4543 C   0  0  0  0  0  0  0  0  0  0  0  0
  150.8998  139.8860  154.4505 N   0  0  0  0  0  0  0  0  0  0  0  0
  151.6624  140.0266  155.5575 C   0  0  0  0  0  0  0  0  0  0  0  0
  151.2381  140.7874  156.6693 C   0  0  0  0  0  0  0  0  0  0  0  0
  152.0777  140.8971  157.7883 N   0  0  0  0  0  0  0  0  0  0  0  0
  151.6568  141.5678  159.0159 C   0  0  1  0  0  0  0  0  0  0  0  0
  152.7723  141.4242  160.0641 C   0  0  0  0  0  0  0  0  0  0  0  0
  151.3086  143.0513  158.7497 C   0  0  2  0  0  0  0  0  0  0  0  0
  152.5176  143.9370  158.4376 C   0  0  0  0  0  0  0  0  0  0  0  0
  152.0175  145.3061  158.8345 C   0  0  0  0  0  0  0  0  0  0  0  0
  151.2100  144.9840  160.0855 C   0  0  0  0  0  0  0  0  0  0  0  0
  150.7175  143.6607  159.8979 O   0  0  0  0  0  0  0  0  0  0  0  0
  150.0340  141.4073  156.6687 N   0  0  0  0  0  0  0  0  0  0  0  0
  145.5615  142.8822  153.4630 H   0  0  0  0  0  0  0  0  0  0  0  0
  146.4008  143.8561  154.6687 H   0  0  0  0  0  0  0  0  0  0  0  0
  145.4474  142.4596  155.1701 H   0  0  0  0  0  0  0  0  0  0  0  0
  147.0434  140.9377  153.9740 H   0  0  0  0  0  0  0  0  0  0  0  0
  148.0000  142.3342  153.4710 H   0  0  0  0  0  0  0  0  0  0  0  0
  149.0945  140.4146  153.5692 H   0  0  0  0  0  0  0  0  0  0  0  0
  152.6203  139.5271  155.5534 H   0  0  0  0  0  0  0  0  0  0  0  0
  153.0437  140.6154  157.7052 H   0  0  0  0  0  0  0  0  0  0  0  0
  150.7755  141.0661  159.4168 H   0  0  0  0  0  0  0  0  0  0  0  0
  152.4762  141.8423  161.0262 H   0  0  0  0  0  0  0  0  0  0  0  0
  153.6844  141.9310  159.7471 H   0  0  0  0  0  0  0  0  0  0  0  0
  153.0169  140.3750  160.2335 H   0  0  0  0  0  0  0  0  0  0  0  0
  150.5926  143.1297  157.9299 H   0  0  0  0  0  0  0  0  0  0  0  0
  153.3692  143.6582  159.0602 H   0  0  0  0  0  0  0  0  0  0  0  0
  152.8255  143.8854  157.3929 H   0  0  0  0  0  0  0  0  0  0  0  0
  152.8191  146.0226  159.0159 H   0  0  0  0  0  0  0  0  0  0  0  0
  151.3656  145.7068  158.0571 H   0  0  0  0  0  0  0  0  0  0  0  0
  151.8519  144.9915  160.9673 H   0  0  0  0  0  0  0  0  0  0  0  0
  150.3980  145.6924  160.2504 H   0  0  0  0  0  0  0  0  0  0  0  0
  1  2  1  0  0  0  0
  1 18  1  0  0  0  0
  1 19  1  0  0  0  0
  1 20  1  0  0  0  0
  2  3  1  0  0  0  0
  2 21  1  0  0  0  0
  2 22  1  0  0  0  0
  3  4  1  0  0  0  0
  4 17  1  0  0  0  0
  4  5  2  0  0  0  0
  5  6  1  0  0  0  0
  5 23  1  0  0  0  0
  6  7  2  0  0  0  0
  7  8  1  0  0  0  0
  7 24  1  0  0  0  0
  8  9  1  0  0  0  0
  8 17  2  0  0  0  0
  9 10  1  0  0  0  0
  9 25  1  0  0  0  0
 10 11  1  0  0  0  0
 10 12  1  0  0  0  0
 10 26  1  0  0  0  0
 11 27  1  0  0  0  0
 11 28  1  0  0  0  0
 11 29  1  0  0  0  0
 12 16  1  0  0  0  0
 12 13  1  0  0  0  0
 12 30  1  0  0  0  0
 13 14  1  0  0  0  0
 13 31  1  0  0  0  0
 13 32  1  0  0  0  0
 14 15  1  0  0  0  0
 14 33  1  0  0  0  0
 14 34  1  0  0  0  0
 15 16  1  0  0  0  0
 15 35  1  0  0  0  0
 15 36  1  0  0  0  0
M  END
> <s_m_source_file>
AV-unprocessed.smi

> <i_m_source_file_index>
2821

> <i_lp_mmshare_version>
43012

> <i_f3d_flags>
0

> <s_epik_input>
W0NIM11bQ0gyXU9jMVtjSF1uW2NIXWMobjEpW05IXVtDQEhdKFtDSDNdKVtDQEBIXTJbQ0gyXVtDSDJdW0NIMl1PMg==

> <s_epik_cmdline>
J2VwaWtfcHl0aG9uJywgJy1waCcsICc3LjAnLCAnLXRuJywgJzgnLCAnLW1hJywgJzIwMCcsICctbWV0YWxfYmluZGluZycsICctaW1hZScsICc8aW5maWxlLm1hZT4nLCAnLW9tYWUnLCAnPG91dGZpbGUubWFlPic=

> <r_lp_tautomer_probability>
1

> <r_epik_Ionization_Penalty>
4.69533e-05

> <r_epik_Ionization_Penalty_Charging>
0

> <r_epik_Ionization_Penalty_Neutral>
4.69533e-05

> <r_epik_State_Penalty>
-0

> <r_epik_Charging_Adjusted_Penalty>
0

> <i_epik_Tot_Q>
0

> <i_epik_Tot_abs_Q>
0

> <r_epik_Metal_State_Penalty>
-0

> <b_epik_Metal_Only>
0

> <s_lp_Force_Field>
OPLS_2005

> <r_lp_Energy>
28.2268

> <b_lp_Chiralities_Consistent>
1

> <s_lp_Variant>
AV-unprocessed.smi:2821-2

> <Gold.Version>
5.8.1

> <Gold.Id.Protein>
6NUR|6NUR_protein|mol2

> <Gold.PLP.Fitness>
44.1910

> <Gold.PLP.PLP>
-38.8338

> <Gold.PLP.part.hbond>
-1.3909

> <Gold.PLP.part.metal>
0.0000

> <Gold.PLP.part.buried>
-4.1280

> <Gold.PLP.part.nonpolar>
-34.6786

> <Gold.PLP.part.repulsive>
2.0472

> <Gold.PLP.ligand.clash>
0.0000

> <Gold.PLP.ligand.torsion>
0.1840

> <Gold.PLP.Chemscore.Hbond>
0.9000

> <Gold.PLP.Chemscore.CHOScore>
1.0000

> <Gold.PLP.Chemscore.Metal>
0.0000

> <Gold.Chemscore.Hbonds>
donor molecule, donor type, donor heavy atom, donor atom, acceptor molecule, acceptor atom, score
      P1  H  7989  7998       L1     6  0.85
      L1  C     5    23       P1  7957  1.00

> <Gold.PLP.Chemscore.Internal.Correction>
0.0251

> <Gold.Rescore>
     Score         DG    S(hbond)    S(metal)    S(lipo)     H(rot)  DE(clash)    DE(int)     intcor
     13.58     -13.90       0.59        0.00      89.19       1.55       0.15       0.17       ----

> <Gold.Chemscore.Fitness>
13.5827

> <Gold.Chemscore.DG>
-13.9024

> <Gold.Chemscore.ZeroCoef>
-5.4800

> <Gold.Chemscore.Hbond>
0.5865

> <Gold.Chemscore.Metal>
0.0000

> <Gold.Chemscore.Lipo>
89.1876

> <Gold.Chemscore.Internal_Hbond>
0.0000

> <Gold.Chemscore.DEClash>
0.1464

> <Gold.Chemscore.DEInternal>
0.1733

> <Gold.Chemscore.Rot>
1.5514

> <Gold.Chemscore.Internal.Correction>
   9.000000E+99

> <Gold.Chemscore.Hbonds>
donor molecule, donor type, donor heavy atom, donor atom, acceptor molecule, acceptor atom, score
      P1  H  7989  7998       L1     6  0.04

> <Gold.Chemscore.Hbond.Weighted>
-1.9589

> <Gold.Chemscore.Metal.Weighted>
-0.0000

> <Gold.Chemscore.Lipo.Weighted>
-10.4350

> <Gold.Chemscore.Internal_Hbond.Weighted>
0.0000

> <Gold.Chemscore.DEClash.Weighted>
0.1464

> <Gold.Chemscore.DEInternal.Weighted>
0.1733

> <Gold.Chemscore.Rot.Weighted>
3.9715

> <Gold.Chemscore.Internal.Correction.Weighted>
   9.000000E+99

> <Gold.Protein.RotatedTorsions>
[ 6907 6896 6895 6894 ] final  130.36 input  -60.11 | X-H torsion
[ 7974 7965 7964 7962 ] final  -75.61 input  175.53 | X-H torsion
[ 8008 7997 7996 7995 ] final -101.20 input   59.86 | X-H torsion
[ 10167 10162 10161 10158 ] final -163.17 input  -65.29 | X-H torsion
[ 10718 10713 10712 10709 ] final -111.75 input   66.30 | X-H torsion
[ 10763 10752 10751 10750 ] final  108.91 input  -60.55 | X-H torsion
[ 11005 11000 10999 10996 ] final   29.07 input  -57.11 | X-H torsion

> <Gold.Protein.ActiveResidues>
 VAL166  LYS551  ARG553  GLY616  TRP617  ASP618  TYR619  PRO620  LYS621  CYS622 
 ASP623  PHE694  ASN695  SER759  ASP760  ASP761  ALA762  ILE779  LEU786  VAL792 
 PHE793  MET794  SER795  GLU796  ALA797  LYS798  CYS799  TRP800  GLU811  SER814 

> <Gold.Protein.RotatedAtoms>
  152.3534  133.6207  159.5960 H   0  0  0  0  0  0  0  0  0  0  0  0  # atno 6907 bound_to 6896
  150.7552  133.9539  159.3503 H   0  0  0  0  0  0  0  0  0  0  0  0  # atno 6908 bound_to 6896
  151.7388  135.0860  160.0363 H   0  0  0  0  0  0  0  0  0  0  0  0  # atno 6909 bound_to 6896
  145.6237  140.9356  143.1124 H   0  0  0  0  0  0  0  0  0  0  0  0  # atno 7974 bound_to 7965
  154.8392  140.0436  157.1530 H   0  0  0  0  0  0  0  0  0  0  0  0  # atno 8008 bound_to 7997
  154.9066  140.3007  155.5268 H   0  0  0  0  0  0  0  0  0  0  0  0  # atno 8009 bound_to 7997
  156.2991  140.2366  156.4100 H   0  0  0  0  0  0  0  0  0  0  0  0  # atno 8010 bound_to 7997
  139.6340  144.0386  152.2039 H   0  0  0  0  0  0  0  0  0  0  0  0  # atno 10167 bound_to 10162
  156.0665  130.5884  150.8415 H   0  0  0  0  0  0  0  0  0  0  0  0  # atno 10718 bound_to 10713
  153.4273  135.3797  155.2149 H   0  0  0  0  0  0  0  0  0  0  0  0  # atno 10763 bound_to 10752
  154.8748  135.3831  154.4311 H   0  0  0  0  0  0  0  0  0  0  0  0  # atno 10764 bound_to 10752
  153.4839  135.7088  153.5985 H   0  0  0  0  0  0  0  0  0  0  0  0  # atno 10765 bound_to 10752
  140.3088  134.2673  155.7738 H   0  0  0  0  0  0  0  0  0  0  0  0  # atno 11005 bound_to 11000
  144.7221  139.7996  143.7378 LP  0  0  0  0  0  0  0  0  0  0  0  0  # atno 17320 bound_to 7965
  146.1411  139.4468  143.0108 LP  0  0  0  0  0  0  0  0  0  0  0  0  # atno 17321 bound_to 7965
  140.0058  144.6260  150.7690 LP  0  0  0  0  0  0  0  0  0  0  0  0  # atno 17342 bound_to 10162
  140.7455  143.2876  151.3419 LP  0  0  0  0  0  0  0  0  0  0  0  0  # atno 17343 bound_to 10162
  157.5710  131.0946  150.9418 LP  0  0  0  0  0  0  0  0  0  0  0  0  # atno 17370 bound_to 10713
  156.9634  130.5464  149.5287 LP  0  0  0  0  0  0  0  0  0  0  0  0  # atno 17371 bound_to 10713
  141.2112  133.7695  156.9877 LP  0  0  0  0  0  0  0  0  0  0  0  0  # atno 17394 bound_to 11000
  140.1043  134.9516  157.1970 LP  0  0  0  0  0  0  0  0  0  0  0  0  # atno 17395 bound_to 11000

$$$$
