AV-unprocessed.smi:2417|AV-procd|sdf|9548|dock1
  -GOLD-   2272013183D 1   1.00000     0.00000
 Structure written by MMmdl.
 38 39  0  0  0  0  0  0  0  0  1 V2000
  151.8462  144.2868  158.7282 C   0  0  0  0  0  0  0  0  0  0  0  0
  151.5856  142.7964  158.5989 C   0  0  0  0  0  0  0  0  0  0  0  0
  150.5475  142.4379  157.7340 N   0  0  0  0  0  0  0  0  0  0  0  0
  150.2529  141.1908  157.5621 C   0  0  0  0  0  0  0  0  0  0  0  0
  150.9515  140.1694  158.2265 N   0  0  0  0  0  0  0  0  0  0  0  0
  150.5175  138.7915  157.9427 C   0  0  0  0  0  0  0  0  0  0  0  0
  150.3818  137.9441  159.2279 C   0  0  2  0  0  0  0  0  0  0  0  0
  151.3615  136.9253  159.2552 O   0  0  0  0  0  0  0  0  0  0  0  0
  149.0035  137.2751  159.3647 C   0  0  0  0  0  0  0  0  0  0  0  0
  148.5503  137.3649  160.7103 O   0  0  0  0  0  0  0  0  0  0  0  0
  147.7651  136.3463  161.2053 C   0  0  0  0  0  0  0  0  0  0  0  0
  147.3326  136.4658  162.5424 C   0  0  0  0  0  0  0  0  0  0  0  0
  146.5273  135.4720  163.1314 C   0  0  0  0  0  0  0  0  0  0  0  0
  146.1452  134.3428  162.3843 C   0  0  0  0  0  0  0  0  0  0  0  0
  145.3708  133.3860  162.9486 F   0  0  0  0  0  0  0  0  0  0  0  0
  146.5694  134.2102  161.0491 C   0  0  0  0  0  0  0  0  0  0  0  0
  147.3748  135.2046  160.4600 C   0  0  0  0  0  0  0  0  0  0  0  0
  151.9823  140.4308  159.0812 C   0  0  0  0  0  0  0  0  0  0  0  0
  152.5972  139.5256  159.6484 O   0  0  0  0  0  0  0  0  0  0  0  0
  152.3041  141.8548  159.2696 C   0  0  0  0  0  0  0  0  0  0  0  0
  153.4458  142.1855  160.2227 C   0  0  0  0  0  0  0  0  0  0  0  0
  151.7128  144.6107  159.7608 H   0  0  0  0  0  0  0  0  0  0  0  0
  151.1620  144.8652  158.1062 H   0  0  0  0  0  0  0  0  0  0  0  0
  152.8629  144.5253  158.4151 H   0  0  0  0  0  0  0  0  0  0  0  0
  149.4554  140.8585  156.8952 H   0  0  0  0  0  0  0  0  0  0  0  0
  149.5511  138.8340  157.4366 H   0  0  0  0  0  0  0  0  0  0  0  0
  151.1731  138.2933  157.2252 H   0  0  0  0  0  0  0  0  0  0  0  0
  150.5365  138.5655  160.1108 H   0  0  0  0  0  0  0  0  0  0  0  0
  152.2162  137.3285  159.2434 H   0  0  0  0  0  0  0  0  0  0  0  0
  148.2889  137.7301  158.6764 H   0  0  0  0  0  0  0  0  0  0  0  0
  149.1003  136.2225  159.0936 H   0  0  0  0  0  0  0  0  0  0  0  0
  147.6216  137.3296  163.1230 H   0  0  0  0  0  0  0  0  0  0  0  0
  146.2033  135.5767  164.1564 H   0  0  0  0  0  0  0  0  0  0  0  0
  146.2764  133.3440  160.4744 H   0  0  0  0  0  0  0  0  0  0  0  0
  147.6796  135.0673  159.4338 H   0  0  0  0  0  0  0  0  0  0  0  0
  154.3699  141.7205  159.8778 H   0  0  0  0  0  0  0  0  0  0  0  0
  153.2259  141.8036  161.2201 H   0  0  0  0  0  0  0  0  0  0  0  0
  153.6322  143.2542  160.3155 H   0  0  0  0  0  0  0  0  0  0  0  0
  1  2  1  0  0  0  0
  1 22  1  0  0  0  0
  1 23  1  0  0  0  0
  1 24  1  0  0  0  0
  2 20  2  0  0  0  0
  2  3  1  0  0  0  0
  3  4  2  0  0  0  0
  4  5  1  0  0  0  0
  4 25  1  0  0  0  0
  5  6  1  0  0  0  0
  5 18  1  0  0  0  0
  6  7  1  0  0  0  0
  6 26  1  0  0  0  0
  6 27  1  0  0  0  0
  7  8  1  0  0  0  0
  7  9  1  0  0  0  0
  7 28  1  0  0  0  0
  8 29  1  0  0  0  0
  9 10  1  0  0  0  0
  9 30  1  0  0  0  0
  9 31  1  0  0  0  0
 10 11  1  0  0  0  0
 11 17  1  0  0  0  0
 11 12  2  0  0  0  0
 12 13  1  0  0  0  0
 12 32  1  0  0  0  0
 13 14  2  0  0  0  0
 13 33  1  0  0  0  0
 14 15  1  0  0  0  0
 14 16  1  0  0  0  0
 16 17  2  0  0  0  0
 16 34  1  0  0  0  0
 17 35  1  0  0  0  0
 18 19  2  0  0  0  0
 18 20  1  0  0  0  0
 20 21  1  0  0  0  0
 21 36  1  0  0  0  0
 21 37  1  0  0  0  0
 21 38  1  0  0  0  0
M  END
> <s_m_source_file>
AV-unprocessed.smi

> <i_m_source_file_index>
2417

> <i_lp_mmshare_version>
43012

> <i_f3d_flags>
0

> <s_epik_input>
W0NIM11jMW5bY0hdbihjKD1PKWMxW0NIM10pW0NIMl1bQ0BIXShbT0hdKVtDSDJdT2MyW2NIXVtjSF1jKEYpW2NIXVtjSF0y

> <s_epik_cmdline>
J2VwaWtfcHl0aG9uJywgJy1waCcsICc3LjAnLCAnLXRuJywgJzgnLCAnLW1hJywgJzIwMCcsICctbWV0YWxfYmluZGluZycsICctaW1hZScsICc8aW5maWxlLm1hZT4nLCAnLW9tYWUnLCAnPG91dGZpbGUubWFlPic=

> <r_lp_tautomer_probability>
1

> <r_epik_Ionization_Penalty>
3.65384e-05

> <r_epik_Ionization_Penalty_Charging>
8.23007e-08

> <r_epik_Ionization_Penalty_Neutral>
3.64561e-05

> <r_epik_State_Penalty>
-0

> <r_epik_Charging_Adjusted_Penalty>
8.23007e-08

> <i_epik_Tot_Q>
0

> <i_epik_Tot_abs_Q>
0

> <r_epik_Metal_State_Penalty>
-0

> <b_epik_Metal_Only>
0

> <s_lp_Force_Field>
OPLS_2005

> <r_lp_Energy>
23.7128

> <b_lp_Chiralities_Consistent>
1

> <s_lp_Variant>
AV-unprocessed.smi:2417-1

> <Gold.Version>
5.8.1

> <Gold.Id.Protein>
6NUR|6NUR_protein|mol2

> <Gold.PLP.Fitness>
47.8327

> <Gold.PLP.PLP>
-46.2029

> <Gold.PLP.part.hbond>
-2.3296

> <Gold.PLP.part.metal>
0.0000

> <Gold.PLP.part.buried>
-5.6359

> <Gold.PLP.part.nonpolar>
-38.5976

> <Gold.PLP.part.repulsive>
0.0523

> <Gold.PLP.ligand.clash>
0.0000

> <Gold.PLP.ligand.torsion>
1.6685

> <Gold.PLP.Chemscore.Hbond>
1.6240

> <Gold.PLP.Chemscore.CHOScore>
0.0000

> <Gold.PLP.Chemscore.Metal>
0.0000

> <Gold.Chemscore.Hbonds>
donor molecule, donor type, donor heavy atom, donor atom, acceptor molecule, acceptor atom, score
      P1  H  6896  6907       L1     8  1.00
      P1  H  6931  6943       L1    10  0.72
      P1  H  6934  6947       L1    10  0.33

> <Gold.PLP.Chemscore.Internal.Correction>
0.0949

> <Gold.Rescore>
     Score         DG    S(hbond)    S(metal)    S(lipo)     H(rot)  DE(clash)    DE(int)     intcor
     14.71     -17.14       1.80        0.00     103.68       2.54       0.06       2.37       ----

> <Gold.Chemscore.Fitness>
14.7131

> <Gold.Chemscore.DG>
-17.1426

> <Gold.Chemscore.ZeroCoef>
-5.4800

> <Gold.Chemscore.Hbond>
1.8032

> <Gold.Chemscore.Metal>
0.0000

> <Gold.Chemscore.Lipo>
103.6804

> <Gold.Chemscore.Internal_Hbond>
0.0000

> <Gold.Chemscore.DEClash>
0.0576

> <Gold.Chemscore.DEInternal>
2.3718

> <Gold.Chemscore.Rot>
2.5355

> <Gold.Chemscore.Internal.Correction>
   9.000000E+99

> <Gold.Chemscore.Hbonds>
donor molecule, donor type, donor heavy atom, donor atom, acceptor molecule, acceptor atom, score
      P1  H  6896  6907       L1     8  0.58
      P1  H  6931  6943       L1    10  0.51
      P1  H  6934  6947       L1    10  0.07

> <Gold.Chemscore.Hbond.Weighted>
-6.0228

> <Gold.Chemscore.Metal.Weighted>
-0.0000

> <Gold.Chemscore.Lipo.Weighted>
-12.1306

> <Gold.Chemscore.Internal_Hbond.Weighted>
0.0000

> <Gold.Chemscore.DEClash.Weighted>
0.0576

> <Gold.Chemscore.DEInternal.Weighted>
2.3718

> <Gold.Chemscore.Rot.Weighted>
6.4908

> <Gold.Chemscore.Internal.Correction.Weighted>
   9.000000E+99

> <Gold.Protein.RotatedTorsions>
[ 6907 6896 6895 6894 ] final    2.29 input  -60.11 | X-H torsion
[ 7974 7965 7964 7962 ] final   10.65 input  175.53 | X-H torsion
[ 8008 7997 7996 7995 ] final -171.65 input   59.86 | X-H torsion
[ 10167 10162 10161 10158 ] final  135.87 input  -65.29 | X-H torsion
[ 10718 10713 10712 10709 ] final  165.59 input   66.30 | X-H torsion
[ 10763 10752 10751 10750 ] final -130.16 input  -60.55 | X-H torsion
[ 11005 11000 10999 10996 ] final   19.95 input  -57.11 | X-H torsion

> <Gold.Protein.ActiveResidues>
 VAL166  LYS551  ARG553  GLY616  TRP617  ASP618  TYR619  PRO620  LYS621  CYS622 
 ASP623  PHE694  ASN695  SER759  ASP760  ASP761  ALA762  ILE779  LEU786  VAL792 
 PHE793  MET794  SER795  GLU796  ALA797  LYS798  CYS799  TRP800  GLU811  SER814 

> <Gold.Protein.RotatedAtoms>
  151.6065  135.1043  160.0071 H   0  0  0  0  0  0  0  0  0  0  0  0  # atno 6907 bound_to 6896
  152.4230  133.7144  159.6508 H   0  0  0  0  0  0  0  0  0  0  0  0  # atno 6908 bound_to 6896
  150.8118  133.8335  159.3200 H   0  0  0  0  0  0  0  0  0  0  0  0  # atno 6909 bound_to 6896
  146.2385  139.9602  142.8459 H   0  0  0  0  0  0  0  0  0  0  0  0  # atno 7974 bound_to 7965
  155.9343  140.1097  157.1107 H   0  0  0  0  0  0  0  0  0  0  0  0  # atno 8008 bound_to 7997
  154.4077  140.1231  156.4909 H   0  0  0  0  0  0  0  0  0  0  0  0  # atno 8009 bound_to 7997
  155.7041  140.3471  155.4948 H   0  0  0  0  0  0  0  0  0  0  0  0  # atno 8010 bound_to 7997
  139.5201  144.6494  151.5346 H   0  0  0  0  0  0  0  0  0  0  0  0  # atno 10167 bound_to 10162
  157.0780  131.0384  151.2586 H   0  0  0  0  0  0  0  0  0  0  0  0  # atno 10718 bound_to 10713
  154.8756  135.3872  154.4037 H   0  0  0  0  0  0  0  0  0  0  0  0  # atno 10763 bound_to 10752
  153.4759  135.7030  153.5971 H   0  0  0  0  0  0  0  0  0  0  0  0  # atno 10764 bound_to 10752
  153.4408  135.3856  155.2194 H   0  0  0  0  0  0  0  0  0  0  0  0  # atno 10765 bound_to 10752
  140.4080  134.1648  155.7666 H   0  0  0  0  0  0  0  0  0  0  0  0  # atno 11005 bound_to 11000
  145.1778  140.9752  143.4284 LP  0  0  0  0  0  0  0  0  0  0  0  0  # atno 17320 bound_to 7965
  144.9969  139.3635  143.6187 LP  0  0  0  0  0  0  0  0  0  0  0  0  # atno 17321 bound_to 7965
  140.6293  143.9108  150.6591 LP  0  0  0  0  0  0  0  0  0  0  0  0  # atno 17342 bound_to 10162
  140.2407  143.3666  152.1489 LP  0  0  0  0  0  0  0  0  0  0  0  0  # atno 17343 bound_to 10162
  157.4823  130.7772  149.7426 LP  0  0  0  0  0  0  0  0  0  0  0  0  # atno 17370 bound_to 10713
  155.9931  130.3926  150.2912 LP  0  0  0  0  0  0  0  0  0  0  0  0  # atno 17371 bound_to 10713
  141.1832  133.8370  157.1184 LP  0  0  0  0  0  0  0  0  0  0  0  0  # atno 17394 bound_to 11000
  140.0288  134.9911  157.0739 LP  0  0  0  0  0  0  0  0  0  0  0  0  # atno 17395 bound_to 11000

$$$$
