AV-unprocessed.smi:90|AV-procd|sdf|831|dock4
  -GOLD-   2262017253D 1   1.00000     0.00000
 Structure written by MMmdl.
 64 67  0  0  0  0  0  0  0  0  2 V2000
  147.8722  135.9628  155.2520 C   0  0  0  0  0  0  0  0  0  0  0  0
  146.8366  136.8981  154.8216 N   0  0  0  0  0  0  0  0  0  0  0  0
  145.7172  136.4268  154.0089 C   0  0  0  0  0  0  0  0  0  0  0  0
  146.0222  135.1014  153.2853 C   0  0  0  0  0  0  0  0  0  0  0  0
  145.1627  133.9078  153.7834 C   0  0  2  0  0  0  0  0  0  0  0  0
  145.7318  132.5249  153.3872 C   0  0  0  0  0  0  0  0  0  0  0  0
  145.5842  132.2510  151.8819 C   0  0  0  0  0  0  0  0  0  0  0  0
  144.1178  132.4094  151.4570 C   0  0  0  0  0  0  0  0  0  0  0  0
  143.5515  133.7726  151.8888 C   0  0  0  0  0  0  0  0  0  0  0  0
  143.7360  133.9835  153.3476 N   0  3  2  0  0  0  0  0  0  0  0  0
  142.9920  135.1561  153.8616 C   0  0  0  0  0  0  0  0  0  0  0  0
  147.1964  138.2072  154.7765 C   0  0  0  0  0  0  0  0  0  0  0  0
  146.3459  139.0681  154.1587 N   0  0  0  0  0  0  0  0  0  0  0  0
  146.6395  140.3684  154.0760 C   0  0  0  0  0  0  0  0  0  0  0  0
  147.7093  141.0122  154.5437 N   0  0  0  0  0  0  0  0  0  0  0  0
  148.5629  140.1607  155.1798 C   0  0  0  0  0  0  0  0  0  0  0  0
  148.3903  138.7545  155.3364 C   0  0  0  0  0  0  0  0  0  0  0  0
  149.4679  138.2302  156.0426 N   0  0  0  0  0  0  0  0  0  0  0  0
  150.2348  139.2591  156.2750 C   0  0  0  0  0  0  0  0  0  0  0  0
  149.7583  140.4638  155.8104 N   0  0  0  0  0  0  0  0  0  0  0  0
  150.4045  141.7636  155.9390 C   0  0  0  0  0  0  0  0  0  0  0  0
  150.7087  142.2052  157.4025 C   0  0  0  0  0  0  0  0  0  0  0  0
  149.4054  142.2248  158.2516 C   0  0  0  0  0  0  0  0  0  0  0  0
  148.5731  143.3210  157.9302 O   0  0  0  0  0  0  0  0  0  0  0  0
  151.7308  141.2339  158.0472 C   0  0  0  0  0  0  0  0  0  0  0  0
  152.3370  141.7714  159.3573 C   0  0  0  0  0  0  0  0  0  0  0  0
  152.9246  143.0470  159.1397 O   0  0  0  0  0  0  0  0  0  0  0  0
  151.9807  144.0205  158.7136 C   0  0  0  0  0  0  0  0  0  0  0  0
  151.3778  143.6029  157.3610 C   0  0  0  0  0  0  0  0  0  0  0  0
  148.8728  136.3621  155.0796 H   0  0  0  0  0  0  0  0  0  0  0  0
  147.8020  135.0216  154.7072 H   0  0  0  0  0  0  0  0  0  0  0  0
  147.7667  135.7508  156.3161 H   0  0  0  0  0  0  0  0  0  0  0  0
  144.8548  136.2737  154.6552 H   0  0  0  0  0  0  0  0  0  0  0  0
  145.4497  137.2009  153.2888 H   0  0  0  0  0  0  0  0  0  0  0  0
  145.8460  135.2515  152.2219 H   0  0  0  0  0  0  0  0  0  0  0  0
  147.0845  134.8790  153.3817 H   0  0  0  0  0  0  0  0  0  0  0  0
  145.1556  133.9495  154.8737 H   0  0  0  0  0  0  0  0  0  0  0  0
  146.7730  132.4197  153.6887 H   0  0  0  0  0  0  0  0  0  0  0  0
  145.1928  131.7520  153.9368 H   0  0  0  0  0  0  0  0  0  0  0  0
  146.2143  132.9326  151.3098 H   0  0  0  0  0  0  0  0  0  0  0  0
  145.9323  131.2441  151.6495 H   0  0  0  0  0  0  0  0  0  0  0  0
  144.0268  132.2916  150.3767 H   0  0  0  0  0  0  0  0  0  0  0  0
  143.5234  131.6120  151.9050 H   0  0  0  0  0  0  0  0  0  0  0  0
  144.0239  134.5798  151.3281 H   0  0  0  0  0  0  0  0  0  0  0  0
  142.4880  133.8098  151.6495 H   0  0  0  0  0  0  0  0  0  0  0  0
  143.2799  136.0745  153.3500 H   0  0  0  0  0  0  0  0  0  0  0  0
  143.1592  135.2864  154.9312 H   0  0  0  0  0  0  0  0  0  0  0  0
  141.9214  135.0156  153.7100 H   0  0  0  0  0  0  0  0  0  0  0  0
  145.9126  140.9810  153.5633 H   0  0  0  0  0  0  0  0  0  0  0  0
  151.1708  139.1682  156.8065 H   0  0  0  0  0  0  0  0  0  0  0  0
  151.3291  141.7256  155.3612 H   0  0  0  0  0  0  0  0  0  0  0  0
  149.7805  142.5056  155.4396 H   0  0  0  0  0  0  0  0  0  0  0  0
  148.8363  141.3058  158.1104 H   0  0  0  0  0  0  0  0  0  0  0  0
  149.6196  142.2818  159.3174 H   0  0  0  0  0  0  0  0  0  0  0  0
  148.8357  143.6618  157.0889 H   0  0  0  0  0  0  0  0  0  0  0  0
  151.2722  140.2635  158.2392 H   0  0  0  0  0  0  0  0  0  0  0  0
  152.5476  141.0520  157.3477 H   0  0  0  0  0  0  0  0  0  0  0  0
  151.5925  141.8305  160.1513 H   0  0  0  0  0  0  0  0  0  0  0  0
  153.1111  141.0903  159.7110 H   0  0  0  0  0  0  0  0  0  0  0  0
  151.2098  144.1608  159.4720 H   0  0  0  0  0  0  0  0  0  0  0  0
  152.4931  144.9770  158.6100 H   0  0  0  0  0  0  0  0  0  0  0  0
  152.1826  143.5971  156.6246 H   0  0  0  0  0  0  0  0  0  0  0  0
  150.6728  144.3615  157.0198 H   0  0  0  0  0  0  0  0  0  0  0  0
  143.2933  133.1879  153.7851 H   0  0  0  0  0  0  0  0  0  0  0  0
  1  2  1  0  0  0  0
  1 30  1  0  0  0  0
  1 31  1  0  0  0  0
  1 32  1  0  0  0  0
  2  3  1  0  0  0  0
  2 12  1  0  0  0  0
  3  4  1  0  0  0  0
  3 33  1  0  0  0  0
  3 34  1  0  0  0  0
  4  5  1  0  0  0  0
  4 35  1  0  0  0  0
  4 36  1  0  0  0  0
  5 10  1  0  0  0  0
  5  6  1  0  0  0  0
  5 37  1  0  0  0  0
  6  7  1  0  0  0  0
  6 38  1  0  0  0  0
  6 39  1  0  0  0  0
  7  8  1  0  0  0  0
  7 40  1  0  0  0  0
  7 41  1  0  0  0  0
  8  9  1  0  0  0  0
  8 42  1  0  0  0  0
  8 43  1  0  0  0  0
  9 10  1  0  0  0  0
  9 44  1  0  0  0  0
  9 45  1  0  0  0  0
 10 11  1  0  0  0  0
 10 64  1  0  0  0  0
 11 46  1  0  0  0  0
 11 47  1  0  0  0  0
 11 48  1  0  0  0  0
 12 17  1  0  0  0  0
 12 13  2  0  0  0  0
 13 14  1  0  0  0  0
 14 15  2  0  0  0  0
 14 49  1  0  0  0  0
 15 16  1  0  0  0  0
 16 20  1  0  0  0  0
 16 17  2  0  0  0  0
 17 18  1  0  0  0  0
 18 19  2  0  0  0  0
 19 20  1  0  0  0  0
 19 50  1  0  0  0  0
 20 21  1  0  0  0  0
 21 22  1  0  0  0  0
 21 51  1  0  0  0  0
 21 52  1  0  0  0  0
 22 29  1  0  0  0  0
 22 23  1  0  0  0  0
 22 25  1  0  0  0  0
 23 24  1  0  0  0  0
 23 53  1  0  0  0  0
 23 54  1  0  0  0  0
 24 55  1  0  0  0  0
 25 26  1  0  0  0  0
 25 56  1  0  0  0  0
 25 57  1  0  0  0  0
 26 27  1  0  0  0  0
 26 58  1  0  0  0  0
 26 59  1  0  0  0  0
 27 28  1  0  0  0  0
 28 29  1  0  0  0  0
 28 60  1  0  0  0  0
 28 61  1  0  0  0  0
 29 62  1  0  0  0  0
 29 63  1  0  0  0  0
M  CHG  1  10   1
M  END
> <s_m_source_file>
AV-unprocessed.smi

> <i_m_source_file_index>
90

> <i_lp_mmshare_version>
43012

> <i_f3d_flags>
0

> <s_epik_input>
W0NIM11OMVtDSDJdW0NIMl1bQ0gyXVtDSDJdW0NASF0xW0NIMl1bQ0gyXU4oW0NIM10pYyhuW2NIXW4yKWMoYzIzKW5bY0hdbjNbQ0gyXUM0KFtDSDJdW09IXSlbQ0gyXVtDSDJdT1tDSDJdW0NIMl00

> <s_epik_cmdline>
J2VwaWtfcHl0aG9uJywgJy1waCcsICc3LjAnLCAnLXRuJywgJzgnLCAnLW1hJywgJzIwMCcsICctbWV0YWxfYmluZGluZycsICctaW1hZScsICc8aW5maWxlLm1hZT4nLCAnLW9tYWUnLCAnPG91dGZpbGUubWFlPic=

> <r_lp_tautomer_probability>
1

> <r_epik_Ionization_Penalty>
0.00234895

> <r_epik_Ionization_Penalty_Charging>
0.00106647

> <r_epik_Ionization_Penalty_Neutral>
0.00128248

> <r_epik_State_Penalty>
-0

> <r_epik_Charging_Adjusted_Penalty>
0.00106647

> <i_epik_Tot_Q>
1

> <i_epik_Tot_abs_Q>
1

> <r_epik_Metal_State_Penalty>
-0

> <b_epik_Metal_Only>
0

> <s_lp_Force_Field>
OPLS_2005

> <r_lp_Energy>
45.3808

> <b_lp_Chiralities_Consistent>
1

> <s_lp_Variant>
AV-unprocessed.smi:90-3

> <Gold.Version>
5.8.1

> <Gold.Id.Protein>
6NUR|6NUR_protein|mol2

> <Gold.PLP.Fitness>
49.5212

> <Gold.PLP.PLP>
-39.0071

> <Gold.PLP.part.hbond>
-3.0000

> <Gold.PLP.part.metal>
0.0000

> <Gold.PLP.part.buried>
-6.2152

> <Gold.PLP.part.nonpolar>
-30.5033

> <Gold.PLP.part.repulsive>
0.2851

> <Gold.PLP.ligand.clash>
0.0000

> <Gold.PLP.ligand.torsion>
0.9384

> <Gold.PLP.Chemscore.Hbond>
3.0000

> <Gold.PLP.Chemscore.CHOScore>
0.9038

> <Gold.PLP.Chemscore.Metal>
0.0000

> <Gold.Chemscore.Hbonds>
donor molecule, donor type, donor heavy atom, donor atom, acceptor molecule, acceptor atom, score
      L1  H    10    64       P1 10957  2.00
      L1  H    24    55       P1  8028  1.00
      L1  C    14    49       P1 10175  1.00

> <Gold.PLP.Chemscore.Internal.Correction>
0.6795

> <Gold.Rescore>
     Score         DG    S(hbond)    S(metal)    S(lipo)     H(rot)  DE(clash)    DE(int)     intcor
     13.10     -15.48       1.70        0.00      96.87       2.73       0.10       2.27       ----

> <Gold.Chemscore.Fitness>
13.1041

> <Gold.Chemscore.DG>
-15.4778

> <Gold.Chemscore.ZeroCoef>
-5.4800

> <Gold.Chemscore.Hbond>
1.6962

> <Gold.Chemscore.Metal>
0.0000

> <Gold.Chemscore.Lipo>
96.8665

> <Gold.Chemscore.Internal_Hbond>
0.0000

> <Gold.Chemscore.DEClash>
0.0989

> <Gold.Chemscore.DEInternal>
2.2749

> <Gold.Chemscore.Rot>
2.7347

> <Gold.Chemscore.Internal.Correction>
   9.000000E+99

> <Gold.Chemscore.Hbonds>
donor molecule, donor type, donor heavy atom, donor atom, acceptor molecule, acceptor atom, score
      L1  H    10    64       P1 10957  1.00
      L1  H    24    55       P1  8028  0.25

> <Gold.Chemscore.Hbond.Weighted>
-5.6653

> <Gold.Chemscore.Metal.Weighted>
-0.0000

> <Gold.Chemscore.Lipo.Weighted>
-11.3334

> <Gold.Chemscore.Internal_Hbond.Weighted>
0.0000

> <Gold.Chemscore.DEClash.Weighted>
0.0989

> <Gold.Chemscore.DEInternal.Weighted>
2.2749

> <Gold.Chemscore.Rot.Weighted>
7.0009

> <Gold.Chemscore.Internal.Correction.Weighted>
   9.000000E+99

> <Gold.Protein.RotatedTorsions>
[ 6907 6896 6895 6894 ] final   70.52 input  -60.11 | X-H torsion
[ 7974 7965 7964 7962 ] final  -29.82 input  175.53 | X-H torsion
[ 8008 7997 7996 7995 ] final  102.87 input   59.86 | X-H torsion
[ 10167 10162 10161 10158 ] final  -61.37 input  -65.29 | X-H torsion
[ 10718 10713 10712 10709 ] final   94.96 input   66.30 | X-H torsion
[ 10763 10752 10751 10750 ] final -100.22 input  -60.55 | X-H torsion
[ 11005 11000 10999 10996 ] final  130.39 input  -57.11 | X-H torsion

> <Gold.Protein.ActiveResidues>
 VAL166  LYS551  ARG553  GLY616  TRP617  ASP618  TYR619  PRO620  LYS621  CYS622 
 ASP623  PHE694  ASN695  SER759  ASP760  ASP761  ALA762  ILE779  LEU786  VAL792 
 PHE793  MET794  SER795  GLU796  ALA797  LYS798  CYS799  TRP800  GLU811  SER814 

> <Gold.Protein.RotatedAtoms>
  152.4754  134.4856  159.9679 H   0  0  0  0  0  0  0  0  0  0  0  0  # atno 6907 bound_to 6896
  151.4873  133.3527  159.2855 H   0  0  0  0  0  0  0  0  0  0  0  0  # atno 6908 bound_to 6896
  150.8790  134.8204  159.7272 H   0  0  0  0  0  0  0  0  0  0  0  0  # atno 6909 bound_to 6896
  146.1188  140.5462  142.8744 H   0  0  0  0  0  0  0  0  0  0  0  0  # atno 7974 bound_to 7965
  156.1433  140.3174  155.8529 H   0  0  0  0  0  0  0  0  0  0  0  0  # atno 8008 bound_to 7997
  155.4113  140.0506  157.3048 H   0  0  0  0  0  0  0  0  0  0  0  0  # atno 8009 bound_to 7997
  154.4994  140.2123  155.9390 H   0  0  0  0  0  0  0  0  0  0  0  0  # atno 8010 bound_to 7997
  140.6010  143.2361  151.5928 H   0  0  0  0  0  0  0  0  0  0  0  0  # atno 10167 bound_to 10162
  157.6943  131.0530  150.4265 H   0  0  0  0  0  0  0  0  0  0  0  0  # atno 10718 bound_to 10713
  154.7562  135.4943  153.9378 H   0  0  0  0  0  0  0  0  0  0  0  0  # atno 10763 bound_to 10752
  153.1198  135.6729  153.9363 H   0  0  0  0  0  0  0  0  0  0  0  0  # atno 10764 bound_to 10752
  153.9098  135.3100  155.3427 H   0  0  0  0  0  0  0  0  0  0  0  0  # atno 10765 bound_to 10752
  139.9669  134.9588  156.9287 H   0  0  0  0  0  0  0  0  0  0  0  0  # atno 11005 bound_to 11000
  144.7578  140.5349  143.6757 LP  0  0  0  0  0  0  0  0  0  0  0  0  # atno 17320 bound_to 7965
  145.5509  139.1477  143.3394 LP  0  0  0  0  0  0  0  0  0  0  0  0  # atno 17321 bound_to 7965
  139.5291  144.2969  152.1106 LP  0  0  0  0  0  0  0  0  0  0  0  0  # atno 17342 bound_to 10162
  140.2150  144.4524  150.6368 LP  0  0  0  0  0  0  0  0  0  0  0  0  # atno 17343 bound_to 10162
  156.4636  130.4037  149.6561 LP  0  0  0  0  0  0  0  0  0  0  0  0  # atno 17370 bound_to 10713
  156.3667  130.7509  151.2488 LP  0  0  0  0  0  0  0  0  0  0  0  0  # atno 17371 bound_to 10713
  140.5376  134.0751  155.7332 LP  0  0  0  0  0  0  0  0  0  0  0  0  # atno 17394 bound_to 11000
  141.1349  133.9239  157.2455 LP  0  0  0  0  0  0  0  0  0  0  0  0  # atno 17395 bound_to 11000

$$$$
