AV-unprocessed.smi:2284|AV-procd|sdf|9201|dock8
  -GOLD-   2272012413D 1   1.00000     0.00000
 Structure written by MMmdl.
 44 45  0  0  0  0  0  0  0  0  1 V2000
  151.6862  145.1950  159.0111 C   0  0  0  0  0  0  0  0  0  0  0  0
  152.2658  143.8291  159.3164 C   0  0  0  0  0  0  0  0  0  0  0  0
  152.9340  143.5954  160.5338 C   0  0  0  0  0  0  0  0  0  0  0  0
  153.4713  142.3247  160.8071 C   0  0  0  0  0  0  0  0  0  0  0  0
  153.3444  141.2811  159.8671 C   0  0  0  0  0  0  0  0  0  0  0  0
  153.9300  139.9162  160.1777 C   0  0  0  0  0  0  0  0  0  0  0  0
  152.6768  141.5025  158.6403 C   0  0  0  0  0  0  0  0  0  0  0  0
  152.5906  140.4396  157.7651 O   0  0  0  0  0  0  0  0  0  0  0  0
  151.6117  140.4831  156.7343 C   0  0  0  0  0  0  0  0  0  0  0  0
  151.7514  139.2472  155.8296 C   0  0  2  0  0  0  0  0  0  0  0  0
  153.0600  139.2486  155.2951 O   0  0  0  0  0  0  0  0  0  0  0  0
  150.7026  139.2070  154.6952 C   0  0  0  0  0  0  0  0  0  0  0  0
  149.3615  139.5957  155.1627 N   0  0  0  0  0  0  0  0  0  0  0  0
  148.8601  138.8907  156.2689 C   0  0  0  0  0  0  0  0  0  0  0  0
  147.6957  139.1491  156.7678 N   0  0  0  0  0  0  0  0  0  0  0  0
  146.9043  140.1554  156.2067 C   0  0  0  0  0  0  0  0  0  0  0  0
  145.5588  140.3805  156.8733 C   0  0  0  0  0  0  0  0  0  0  0  0
  147.3334  140.8779  155.1359 C   0  0  0  0  0  0  0  0  0  0  0  0
  146.5192  141.9917  154.4892 C   0  0  0  0  0  0  0  0  0  0  0  0
  148.6564  140.5944  154.5566 C   0  0  0  0  0  0  0  0  0  0  0  0
  149.1106  141.2133  153.5924 O   0  0  0  0  0  0  0  0  0  0  0  0
  152.1388  142.7877  158.3752 C   0  0  0  0  0  0  0  0  0  0  0  0
  151.7133  145.8436  159.8873 H   0  0  0  0  0  0  0  0  0  0  0  0
  150.6486  145.1043  158.6886 H   0  0  0  0  0  0  0  0  0  0  0  0
  152.2537  145.6748  158.2133 H   0  0  0  0  0  0  0  0  0  0  0  0
  153.0380  144.3872  161.2612 H   0  0  0  0  0  0  0  0  0  0  0  0
  153.9829  142.1552  161.7432 H   0  0  0  0  0  0  0  0  0  0  0  0
  153.1476  139.1567  160.1651 H   0  0  0  0  0  0  0  0  0  0  0  0
  154.4045  139.8980  161.1592 H   0  0  0  0  0  0  0  0  0  0  0  0
  154.6805  139.6489  159.4331 H   0  0  0  0  0  0  0  0  0  0  0  0
  150.6037  140.5410  157.1491 H   0  0  0  0  0  0  0  0  0  0  0  0
  151.7734  141.3768  156.1292 H   0  0  0  0  0  0  0  0  0  0  0  0
  151.6610  138.3631  156.4618 H   0  0  0  0  0  0  0  0  0  0  0  0
  153.0729  138.6968  154.5283 H   0  0  0  0  0  0  0  0  0  0  0  0
  151.0033  139.8960  153.9035 H   0  0  0  0  0  0  0  0  0  0  0  0
  150.7021  138.2282  154.2106 H   0  0  0  0  0  0  0  0  0  0  0  0
  149.5195  138.1214  156.6744 H   0  0  0  0  0  0  0  0  0  0  0  0
  144.7480  140.2010  156.1669 H   0  0  0  0  0  0  0  0  0  0  0  0
  145.4807  141.4040  157.2412 H   0  0  0  0  0  0  0  0  0  0  0  0
  145.4179  139.7092  157.7213 H   0  0  0  0  0  0  0  0  0  0  0  0
  147.0490  142.9410  154.5740 H   0  0  0  0  0  0  0  0  0  0  0  0
  145.5367  142.1224  154.9395 H   0  0  0  0  0  0  0  0  0  0  0  0
  146.3671  141.7822  153.4299 H   0  0  0  0  0  0  0  0  0  0  0  0
  151.6219  143.0003  157.4519 H   0  0  0  0  0  0  0  0  0  0  0  0
  1  2  1  0  0  0  0
  1 23  1  0  0  0  0
  1 24  1  0  0  0  0
  1 25  1  0  0  0  0
  2 22  1  0  0  0  0
  2  3  2  0  0  0  0
  3  4  1  0  0  0  0
  3 26  1  0  0  0  0
  4  5  2  0  0  0  0
  4 27  1  0  0  0  0
  5  6  1  0  0  0  0
  5  7  1  0  0  0  0
  6 28  1  0  0  0  0
  6 29  1  0  0  0  0
  6 30  1  0  0  0  0
  7  8  1  0  0  0  0
  7 22  2  0  0  0  0
  8  9  1  0  0  0  0
  9 10  1  0  0  0  0
  9 31  1  0  0  0  0
  9 32  1  0  0  0  0
 10 11  1  0  0  0  0
 10 12  1  0  0  0  0
 10 33  1  0  0  0  0
 11 34  1  0  0  0  0
 12 13  1  0  0  0  0
 12 35  1  0  0  0  0
 12 36  1  0  0  0  0
 13 20  1  0  0  0  0
 13 14  1  0  0  0  0
 14 15  2  0  0  0  0
 14 37  1  0  0  0  0
 15 16  1  0  0  0  0
 16 17  1  0  0  0  0
 16 18  2  0  0  0  0
 17 38  1  0  0  0  0
 17 39  1  0  0  0  0
 17 40  1  0  0  0  0
 18 19  1  0  0  0  0
 18 20  1  0  0  0  0
 19 41  1  0  0  0  0
 19 42  1  0  0  0  0
 19 43  1  0  0  0  0
 20 21  2  0  0  0  0
 22 44  1  0  0  0  0
M  END
> <s_m_source_file>
AV-unprocessed.smi

> <i_m_source_file_index>
2284

> <i_lp_mmshare_version>
43012

> <i_f3d_flags>
0

> <s_epik_input>
W0NIM11jMVtjSF1bY0hdYyhbQ0gzXSljKFtjSF0xKU9bQ0gyXVtDQEhdKFtPSF0pW0NIMl1uMltjSF1uYyhbQ0gzXSljKFtDSDNdKWMyPU8=

> <s_epik_cmdline>
J2VwaWtfcHl0aG9uJywgJy1waCcsICc3LjAnLCAnLXRuJywgJzgnLCAnLW1hJywgJzIwMCcsICctbWV0YWxfYmluZGluZycsICctaW1hZScsICc8aW5maWxlLm1hZT4nLCAnLW9tYWUnLCAnPG91dGZpbGUubWFlPic=

> <r_lp_tautomer_probability>
1

> <r_epik_Ionization_Penalty>
3.7476e-05

> <r_epik_Ionization_Penalty_Charging>
8.44705e-08

> <r_epik_Ionization_Penalty_Neutral>
3.73915e-05

> <r_epik_State_Penalty>
-0

> <r_epik_Charging_Adjusted_Penalty>
8.44705e-08

> <i_epik_Tot_Q>
0

> <i_epik_Tot_abs_Q>
0

> <r_epik_Metal_State_Penalty>
-0

> <b_epik_Metal_Only>
0

> <s_lp_Force_Field>
OPLS_2005

> <r_lp_Energy>
24.4024

> <b_lp_Chiralities_Consistent>
1

> <s_lp_Variant>
AV-unprocessed.smi:2284-1

> <Gold.Version>
5.8.1

> <Gold.Id.Protein>
6NUR|6NUR_protein|mol2

> <Gold.PLP.Fitness>
49.3049

> <Gold.PLP.PLP>
-44.3173

> <Gold.PLP.part.hbond>
-3.7863

> <Gold.PLP.part.metal>
0.0000

> <Gold.PLP.part.buried>
-5.2178

> <Gold.PLP.part.nonpolar>
-38.3708

> <Gold.PLP.part.repulsive>
2.8851

> <Gold.PLP.ligand.clash>
0.0000

> <Gold.PLP.ligand.torsion>
0.4367

> <Gold.PLP.Chemscore.Hbond>
1.9426

> <Gold.PLP.Chemscore.CHOScore>
0.0000

> <Gold.PLP.Chemscore.Metal>
0.0000

> <Gold.Chemscore.Hbonds>
donor molecule, donor type, donor heavy atom, donor atom, acceptor molecule, acceptor atom, score
      P1  H  7997  8009       L1    11  1.00
      P1  H  8011  8017       L1    21  0.94

> <Gold.PLP.Chemscore.Internal.Correction>
0.0333

> <Gold.Rescore>
     Score         DG    S(hbond)    S(metal)    S(lipo)     H(rot)  DE(clash)    DE(int)     intcor
     18.30     -18.62       1.73        0.00     113.66       2.32       0.04       0.27       ----

> <Gold.Chemscore.Fitness>
18.3030

> <Gold.Chemscore.DG>
-18.6184

> <Gold.Chemscore.ZeroCoef>
-5.4800

> <Gold.Chemscore.Hbond>
1.7333

> <Gold.Chemscore.Metal>
0.0000

> <Gold.Chemscore.Lipo>
113.6554

> <Gold.Chemscore.Internal_Hbond>
0.0000

> <Gold.Chemscore.DEClash>
0.0434

> <Gold.Chemscore.DEInternal>
0.2720

> <Gold.Chemscore.Rot>
2.3236

> <Gold.Chemscore.Internal.Correction>
   9.000000E+99

> <Gold.Chemscore.Hbonds>
donor molecule, donor type, donor heavy atom, donor atom, acceptor molecule, acceptor atom, score
      P1  H  7997  8009       L1    11  1.00
      P1  H  8011  8017       L1    21  0.92

> <Gold.Chemscore.Hbond.Weighted>
-5.7891

> <Gold.Chemscore.Metal.Weighted>
-0.0000

> <Gold.Chemscore.Lipo.Weighted>
-13.2977

> <Gold.Chemscore.Internal_Hbond.Weighted>
0.0000

> <Gold.Chemscore.DEClash.Weighted>
0.0434

> <Gold.Chemscore.DEInternal.Weighted>
0.2720

> <Gold.Chemscore.Rot.Weighted>
5.9484

> <Gold.Chemscore.Internal.Correction.Weighted>
   9.000000E+99

> <Gold.Protein.RotatedTorsions>
[ 6907 6896 6895 6894 ] final  -90.44 input  -60.11 | X-H torsion
[ 7974 7965 7964 7962 ] final  -57.69 input  175.53 | X-H torsion
[ 8008 7997 7996 7995 ] final -139.64 input   59.86 | X-H torsion
[ 10167 10162 10161 10158 ] final  109.01 input  -65.29 | X-H torsion
[ 10718 10713 10712 10709 ] final   47.39 input   66.30 | X-H torsion
[ 10763 10752 10751 10750 ] final  -46.66 input  -60.55 | X-H torsion
[ 11005 11000 10999 10996 ] final -141.17 input  -57.11 | X-H torsion

> <Gold.Protein.ActiveResidues>
 VAL166  LYS551  ARG553  GLY616  TRP617  ASP618  TYR619  PRO620  LYS621  CYS622 
 ASP623  PHE694  ASN695  SER759  ASP760  ASP761  ALA762  ILE779  LEU786  VAL792 
 PHE793  MET794  SER795  GLU796  ALA797  LYS798  CYS799  TRP800  GLU811  SER814 

> <Gold.Protein.RotatedAtoms>
  150.6882  134.2432  159.4480 H   0  0  0  0  0  0  0  0  0  0  0  0  # atno 6907 bound_to 6896
  152.0375  134.9729  160.0582 H   0  0  0  0  0  0  0  0  0  0  0  0  # atno 6908 bound_to 6896
  152.1243  133.4336  159.4727 H   0  0  0  0  0  0  0  0  0  0  0  0  # atno 6909 bound_to 6896
  145.8480  140.8372  143.0000 H   0  0  0  0  0  0  0  0  0  0  0  0  # atno 7974 bound_to 7965
  155.4483  140.0537  157.3004 H   0  0  0  0  0  0  0  0  0  0  0  0  # atno 8008 bound_to 7997
  154.4788  140.2072  155.9769 H   0  0  0  0  0  0  0  0  0  0  0  0  # atno 8009 bound_to 7997
  156.1174  140.3194  155.8163 H   0  0  0  0  0  0  0  0  0  0  0  0  # atno 8010 bound_to 7997
  139.6800  144.7119  151.1532 H   0  0  0  0  0  0  0  0  0  0  0  0  # atno 10167 bound_to 10162
  157.4580  130.8179  149.7857 H   0  0  0  0  0  0  0  0  0  0  0  0  # atno 10718 bound_to 10713
  154.0487  135.6634  153.4798 H   0  0  0  0  0  0  0  0  0  0  0  0  # atno 10763 bound_to 10752
  153.0472  135.5107  154.7772 H   0  0  0  0  0  0  0  0  0  0  0  0  # atno 10764 bound_to 10752
  154.6771  135.3039  154.9629 H   0  0  0  0  0  0  0  0  0  0  0  0  # atno 10765 bound_to 10752
  140.8350  134.2470  157.4838 H   0  0  0  0  0  0  0  0  0  0  0  0  # atno 11005 bound_to 11000
  144.6730  140.0911  143.7465 LP  0  0  0  0  0  0  0  0  0  0  0  0  # atno 17320 bound_to 7965
  145.9390  139.2656  143.1280 LP  0  0  0  0  0  0  0  0  0  0  0  0  # atno 17321 bound_to 7965
  140.7649  143.5713  150.8992 LP  0  0  0  0  0  0  0  0  0  0  0  0  # atno 17342 bound_to 10162
  139.9385  143.6410  152.3059 LP  0  0  0  0  0  0  0  0  0  0  0  0  # atno 17343 bound_to 10162
  156.0016  130.3877  150.2585 LP  0  0  0  0  0  0  0  0  0  0  0  0  # atno 17370 bound_to 10713
  157.0761  131.0130  151.3173 LP  0  0  0  0  0  0  0  0  0  0  0  0  # atno 17371 bound_to 10713
  139.8704  134.9606  156.4369 LP  0  0  0  0  0  0  0  0  0  0  0  0  # atno 17394 bound_to 11000
  140.8957  133.7816  155.9622 LP  0  0  0  0  0  0  0  0  0  0  0  0  # atno 17395 bound_to 11000

$$$$
