AV-unprocessed.smi:2471|AV-procd|sdf|9740|dock8
  -GOLD-   2272013383D 1   1.00000     0.00000
 Structure written by MMmdl.
 40 41  0  0  0  0  0  0  0  0  1 V2000
  146.1194  129.2365  152.5096 C   0  0  0  0  0  0  0  0  0  0  0  0
  146.0022  130.6912  152.1053 C   0  0  0  0  0  0  0  0  0  0  0  0
  145.0057  131.1147  151.2044 C   0  0  0  0  0  0  0  0  0  0  0  0
  144.9483  132.4806  150.8744 C   0  0  0  0  0  0  0  0  0  0  0  0
  145.8831  133.3602  151.4540 C   0  0  0  0  0  0  0  0  0  0  0  0
  146.8518  132.8537  152.3494 C   0  0  0  0  0  0  0  0  0  0  0  0
  147.7474  133.8205  152.8798 N   0  0  0  0  0  0  0  0  0  0  0  0
  148.4024  133.7896  154.0540 C   0  0  0  0  0  0  0  0  0  0  0  0
  148.3367  132.8815  154.8833 O   0  0  0  0  0  0  0  0  0  0  0  0
  149.1552  134.8867  154.2206 N   0  0  0  0  0  0  0  0  0  0  0  0
  149.9945  135.1536  155.3851 C   0  0  0  0  0  0  0  0  0  0  0  0
  150.9520  136.3501  155.1686 C   0  0  1  0  0  0  0  0  0  0  0  0
  150.1854  137.5988  154.6718 C   0  0  0  0  0  0  0  0  0  0  0  0
  151.1093  138.8119  154.4839 C   0  0  0  0  0  0  0  0  0  0  0  0
  151.8677  139.1353  155.7779 C   0  0  0  0  0  0  0  0  0  0  0  0
  152.6593  137.9137  156.2630 C   0  0  0  0  0  0  0  0  0  0  0  0
  151.7456  136.6885  156.4552 C   0  0  2  0  0  0  0  0  0  0  0  0
  152.5654  135.5986  156.8284 O   0  0  0  0  0  0  0  0  0  0  0  0
  146.8978  131.5346  152.6621 N   0  0  0  0  0  0  0  0  0  0  0  0
  145.5123  128.5982  151.8669 H   0  0  0  0  0  0  0  0  0  0  0  0
  145.7842  129.1034  153.5384 H   0  0  0  0  0  0  0  0  0  0  0  0
  147.1548  128.9014  152.4387 H   0  0  0  0  0  0  0  0  0  0  0  0
  144.3028  130.4145  150.7775 H   0  0  0  0  0  0  0  0  0  0  0  0
  144.2001  132.8485  150.1880 H   0  0  0  0  0  0  0  0  0  0  0  0
  145.8525  134.4124  151.2101 H   0  0  0  0  0  0  0  0  0  0  0  0
  147.9042  134.6307  152.2992 H   0  0  0  0  0  0  0  0  0  0  0  0
  149.1520  135.5846  153.4911 H   0  0  0  0  0  0  0  0  0  0  0  0
  149.3404  135.3503  156.2349 H   0  0  0  0  0  0  0  0  0  0  0  0
  150.5507  134.2490  155.6353 H   0  0  0  0  0  0  0  0  0  0  0  0
  151.6739  136.0759  154.3970 H   0  0  0  0  0  0  0  0  0  0  0  0
  149.6862  137.3872  153.7260 H   0  0  0  0  0  0  0  0  0  0  0  0
  149.3987  137.8527  155.3837 H   0  0  0  0  0  0  0  0  0  0  0  0
  151.8205  138.6098  153.6818 H   0  0  0  0  0  0  0  0  0  0  0  0
  150.5259  139.6778  154.1696 H   0  0  0  0  0  0  0  0  0  0  0  0
  152.5425  139.9759  155.6141 H   0  0  0  0  0  0  0  0  0  0  0  0
  151.1633  139.4478  156.5499 H   0  0  0  0  0  0  0  0  0  0  0  0
  153.4412  137.6821  155.5376 H   0  0  0  0  0  0  0  0  0  0  0  0
  153.1675  138.1528  157.1979 H   0  0  0  0  0  0  0  0  0  0  0  0
  151.0494  136.8843  157.2720 H   0  0  0  0  0  0  0  0  0  0  0  0
  152.5293  135.5016  157.7677 H   0  0  0  0  0  0  0  0  0  0  0  0
  1  2  1  0  0  0  0
  1 20  1  0  0  0  0
  1 21  1  0  0  0  0
  1 22  1  0  0  0  0
  2 19  1  0  0  0  0
  2  3  2  0  0  0  0
  3  4  1  0  0  0  0
  3 23  1  0  0  0  0
  4  5  2  0  0  0  0
  4 24  1  0  0  0  0
  5  6  1  0  0  0  0
  5 25  1  0  0  0  0
  6  7  1  0  0  0  0
  6 19  2  0  0  0  0
  7  8  1  0  0  0  0
  7 26  1  0  0  0  0
  8  9  2  0  0  0  0
  8 10  1  0  0  0  0
 10 11  1  0  0  0  0
 10 27  1  0  0  0  0
 11 12  1  0  0  0  0
 11 28  1  0  0  0  0
 11 29  1  0  0  0  0
 12 17  1  0  0  0  0
 12 13  1  0  0  0  0
 12 30  1  0  0  0  0
 13 14  1  0  0  0  0
 13 31  1  0  0  0  0
 13 32  1  0  0  0  0
 14 15  1  0  0  0  0
 14 33  1  0  0  0  0
 14 34  1  0  0  0  0
 15 16  1  0  0  0  0
 15 35  1  0  0  0  0
 15 36  1  0  0  0  0
 16 17  1  0  0  0  0
 16 37  1  0  0  0  0
 16 38  1  0  0  0  0
 17 18  1  0  0  0  0
 17 39  1  0  0  0  0
 18 40  1  0  0  0  0
M  END
> <s_m_source_file>
AV-unprocessed.smi

> <i_m_source_file_index>
2471

> <i_lp_mmshare_version>
43012

> <i_f3d_flags>
0

> <s_epik_input>
W0NIM11jMVtjSF1bY0hdW2NIXWMobjEpW05IXUMoPU8pW05IXVtDSDJdW0NAQEhdMltDSDJdW0NIMl1bQ0gyXVtDSDJdW0NASF0yW09IXQ==

> <s_epik_cmdline>
J2VwaWtfcHl0aG9uJywgJy1waCcsICc3LjAnLCAnLXRuJywgJzgnLCAnLW1hJywgJzIwMCcsICctbWV0YWxfYmluZGluZycsICctaW1hZScsICc8aW5maWxlLm1hZT4nLCAnLW9tYWUnLCAnPG91dGZpbGUubWFlPic=

> <r_lp_tautomer_probability>
1

> <r_epik_Ionization_Penalty>
8.52237e-05

> <r_epik_Ionization_Penalty_Charging>
0

> <r_epik_Ionization_Penalty_Neutral>
8.52237e-05

> <r_epik_State_Penalty>
-0

> <r_epik_Charging_Adjusted_Penalty>
0

> <i_epik_Tot_Q>
0

> <i_epik_Tot_abs_Q>
0

> <r_epik_Metal_State_Penalty>
-0

> <b_epik_Metal_Only>
0

> <s_lp_Force_Field>
OPLS_2005

> <r_lp_Energy>
14.0215

> <b_lp_Chiralities_Consistent>
1

> <s_lp_Variant>
AV-unprocessed.smi:2471-4

> <Gold.Version>
5.8.1

> <Gold.Id.Protein>
6NUR|6NUR_protein|mol2

> <Gold.PLP.Fitness>
41.3978

> <Gold.PLP.PLP>
-32.8727

> <Gold.PLP.part.hbond>
-3.0000

> <Gold.PLP.part.metal>
0.0000

> <Gold.PLP.part.buried>
-4.4760

> <Gold.PLP.part.nonpolar>
-26.2766

> <Gold.PLP.part.repulsive>
0.2018

> <Gold.PLP.ligand.clash>
0.0000

> <Gold.PLP.ligand.torsion>
0.2395

> <Gold.PLP.Chemscore.Hbond>
3.0000

> <Gold.PLP.Chemscore.CHOScore>
0.0000

> <Gold.PLP.Chemscore.Metal>
0.0000

> <Gold.Chemscore.Hbonds>
donor molecule, donor type, donor heavy atom, donor atom, acceptor molecule, acceptor atom, score
      L1  H     7    26       P1  7948  1.00
      L1  H    10    27       P1  7948  1.00
      P1  H 10752 10765       L1    18  1.00

> <Gold.PLP.Chemscore.Internal.Correction>
0.0042

> <Gold.Rescore>
     Score         DG    S(hbond)    S(metal)    S(lipo)     H(rot)  DE(clash)    DE(int)     intcor
     17.29     -18.66       2.55        0.00      77.70       1.73       0.05       1.32       ----

> <Gold.Chemscore.Fitness>
17.2927

> <Gold.Chemscore.DG>
-18.6639

> <Gold.Chemscore.ZeroCoef>
-5.4800

> <Gold.Chemscore.Hbond>
2.5542

> <Gold.Chemscore.Metal>
0.0000

> <Gold.Chemscore.Lipo>
77.7049

> <Gold.Chemscore.Internal_Hbond>
0.0000

> <Gold.Chemscore.DEClash>
0.0494

> <Gold.Chemscore.DEInternal>
1.3218

> <Gold.Chemscore.Rot>
1.7339

> <Gold.Chemscore.Internal.Correction>
   9.000000E+99

> <Gold.Chemscore.Hbonds>
donor molecule, donor type, donor heavy atom, donor atom, acceptor molecule, acceptor atom, score
      L1  H     7    26       P1  7948  0.47
      L1  H    10    27       P1  7948  0.59
      P1  H 10752 10765       L1    18  0.26

> <Gold.Chemscore.Hbond.Weighted>
-8.5311

> <Gold.Chemscore.Metal.Weighted>
-0.0000

> <Gold.Chemscore.Lipo.Weighted>
-9.0915

> <Gold.Chemscore.Internal_Hbond.Weighted>
0.0000

> <Gold.Chemscore.DEClash.Weighted>
0.0494

> <Gold.Chemscore.DEInternal.Weighted>
1.3218

> <Gold.Chemscore.Rot.Weighted>
4.4387

> <Gold.Chemscore.Internal.Correction.Weighted>
   9.000000E+99

> <Gold.Protein.RotatedTorsions>
[ 6907 6896 6895 6894 ] final  154.05 input  -60.11 | X-H torsion
[ 7974 7965 7964 7962 ] final -142.67 input  175.53 | X-H torsion
[ 8008 7997 7996 7995 ] final -124.83 input   59.86 | X-H torsion
[ 10167 10162 10161 10158 ] final  175.44 input  -65.29 | X-H torsion
[ 10718 10713 10712 10709 ] final -167.48 input   66.30 | X-H torsion
[ 10763 10752 10751 10750 ] final -123.75 input  -60.55 | X-H torsion
[ 11005 11000 10999 10996 ] final  121.57 input  -57.11 | X-H torsion

> <Gold.Protein.ActiveResidues>
 VAL166  LYS551  ARG553  GLY616  TRP617  ASP618  TYR619  PRO620  LYS621  CYS622 
 ASP623  PHE694  ASN695  SER759  ASP760  ASP761  ALA762  ILE779  LEU786  VAL792 
 PHE793  MET794  SER795  GLU796  ALA797  LYS798  CYS799  TRP800  GLU811  SER814 

> <Gold.Protein.RotatedAtoms>
  152.0640  133.4075  159.4430 H   0  0  0  0  0  0  0  0  0  0  0  0  # atno 6907 bound_to 6896
  150.6865  134.3167  159.4778 H   0  0  0  0  0  0  0  0  0  0  0  0  # atno 6908 bound_to 6896
  152.0991  134.9353  160.0620 H   0  0  0  0  0  0  0  0  0  0  0  0  # atno 6909 bound_to 6896
  144.8426  140.5930  143.5442 H   0  0  0  0  0  0  0  0  0  0  0  0  # atno 7974 bound_to 7965
  155.2033  140.0416  157.2921 H   0  0  0  0  0  0  0  0  0  0  0  0  # atno 8008 bound_to 7997
  154.6060  140.2464  155.7702 H   0  0  0  0  0  0  0  0  0  0  0  0  # atno 8009 bound_to 7997
  156.2350  140.2924  156.0299 H   0  0  0  0  0  0  0  0  0  0  0  0  # atno 8010 bound_to 7997
  139.5177  144.3031  152.0360 H   0  0  0  0  0  0  0  0  0  0  0  0  # atno 10167 bound_to 10162
  156.6830  130.9129  151.3059 H   0  0  0  0  0  0  0  0  0  0  0  0  # atno 10718 bound_to 10713
  154.8713  135.4087  154.2993 H   0  0  0  0  0  0  0  0  0  0  0  0  # atno 10763 bound_to 10752
  153.3856  135.7013  153.6538 H   0  0  0  0  0  0  0  0  0  0  0  0  # atno 10764 bound_to 10752
  153.5343  135.3661  155.2661 H   0  0  0  0  0  0  0  0  0  0  0  0  # atno 10765 bound_to 10752
  139.9231  134.9639  156.7979 H   0  0  0  0  0  0  0  0  0  0  0  0  # atno 11005 bound_to 11000
  145.4662  139.1508  143.3839 LP  0  0  0  0  0  0  0  0  0  0  0  0  # atno 17320 bound_to 7965
  146.2716  140.4794  142.8812 LP  0  0  0  0  0  0  0  0  0  0  0  0  # atno 17321 bound_to 7965
  140.2478  144.4201  150.6234 LP  0  0  0  0  0  0  0  0  0  0  0  0  # atno 17342 bound_to 10162
  140.6246  143.2180  151.6624 LP  0  0  0  0  0  0  0  0  0  0  0  0  # atno 17343 bound_to 10162
  157.7036  130.9360  150.0862 LP  0  0  0  0  0  0  0  0  0  0  0  0  # atno 17370 bound_to 10713
  156.1853  130.3652  149.8981 LP  0  0  0  0  0  0  0  0  0  0  0  0  # atno 17371 bound_to 10713
  140.6414  133.9815  155.7709 LP  0  0  0  0  0  0  0  0  0  0  0  0  # atno 17394 bound_to 11000
  141.0769  134.0122  157.3445 LP  0  0  0  0  0  0  0  0  0  0  0  0  # atno 17395 bound_to 11000

$$$$
