AV-unprocessed.smi:21|AV-procd|sdf|137|dock3
  -GOLD-   2262015333D 1   1.00000     0.00000
 Structure written by MMmdl.
 62 65  0  0  0  0  0  0  0  0  2 V2000
  145.6200  132.1038  149.0036 C   0  0  0  0  0  0  0  0  0  0  0  0
  144.6740  132.8396  149.7621 O   0  0  0  0  0  0  0  0  0  0  0  0
  144.8038  132.6571  151.1643 C   0  0  1  0  0  0  0  0  0  0  0  0
  146.1387  133.1483  151.7145 C   0  0  0  0  0  0  0  0  0  0  0  0
  145.8451  133.4204  153.1971 C   0  0  1  0  0  0  0  0  0  0  0  0
  146.8003  134.4556  153.8412 C   0  0  0  0  0  0  0  0  0  0  0  0
  148.1011  133.8765  154.1898 N   0  0  0  0  0  0  0  0  0  0  0  0
  148.5384  132.6933  153.4590 C   0  0  0  0  0  0  0  0  0  0  0  0
  148.9842  134.5631  154.9726 C   0  0  0  0  0  0  0  0  0  0  0  0
  150.0875  133.9077  155.4230 N   0  0  0  0  0  0  0  0  0  0  0  0
  150.9863  134.5223  156.1949 C   0  0  0  0  0  0  0  0  0  0  0  0
  150.9830  135.7798  156.6327 N   0  0  0  0  0  0  0  0  0  0  0  0
  149.8882  136.4570  156.1870 C   0  0  0  0  0  0  0  0  0  0  0  0
  148.8455  135.9314  155.3668 C   0  0  0  0  0  0  0  0  0  0  0  0
  147.8924  136.9215  155.1493 N   0  0  0  0  0  0  0  0  0  0  0  0
  148.3473  137.9633  155.7876 C   0  0  0  0  0  0  0  0  0  0  0  0
  149.5521  137.7795  156.4252 N   0  0  0  0  0  0  0  0  0  0  0  0
  150.2812  138.7741  157.2005 C   0  0  0  0  0  0  0  0  0  0  0  0
  150.7939  139.9856  156.3725 C   0  0  2  0  0  0  0  0  0  0  0  0
  151.8416  139.5754  155.3102 C   0  0  0  0  0  0  0  0  0  0  0  0
  153.0254  139.1030  155.9191 O   0  0  0  0  0  0  0  0  0  0  0  0
  151.3259  141.1299  157.2745 C   0  0  2  0  0  0  0  0  0  0  0  0
  152.2768  140.6811  158.3724 C   0  0  0  0  0  0  0  0  0  0  0  0
  152.2640  141.8756  159.3189 C   0  0  0  0  0  0  0  0  0  0  0  0
  150.9566  142.4281  159.2185 O   0  0  0  0  0  0  0  0  0  0  0  0
  150.2637  141.8366  158.1242 C   0  0  0  0  0  0  0  0  0  0  0  0
  144.3890  133.7452  153.2651 N   0  3  1  0  0  0  0  0  0  0  0  0
  143.9949  135.0342  153.8813 C   0  0  0  0  0  0  0  0  0  0  0  0
  143.8139  133.5441  151.9155 C   0  0  0  0  0  0  0  0  0  0  0  0
  144.6383  131.6141  151.4412 H   0  0  0  0  0  0  0  0  0  0  0  0
  145.9490  132.4774  153.7358 H   0  0  0  0  0  0  0  0  0  0  0  0
  145.4337  132.2598  147.9409 H   0  0  0  0  0  0  0  0  0  0  0  0
  145.5424  131.0347  149.2042 H   0  0  0  0  0  0  0  0  0  0  0  0
  146.6403  132.4264  149.2125 H   0  0  0  0  0  0  0  0  0  0  0  0
  146.9486  132.4321  151.5711 H   0  0  0  0  0  0  0  0  0  0  0  0
  146.4168  134.0748  151.2101 H   0  0  0  0  0  0  0  0  0  0  0  0
  146.9047  135.3325  153.2031 H   0  0  0  0  0  0  0  0  0  0  0  0
  146.3638  134.8262  154.7687 H   0  0  0  0  0  0  0  0  0  0  0  0
  149.2133  132.9678  152.6481 H   0  0  0  0  0  0  0  0  0  0  0  0
  147.6884  132.1694  153.0216 H   0  0  0  0  0  0  0  0  0  0  0  0
  149.0470  131.9929  154.1222 H   0  0  0  0  0  0  0  0  0  0  0  0
  151.8283  133.9210  156.5050 H   0  0  0  0  0  0  0  0  0  0  0  0
  147.8156  138.9037  155.8041 H   0  0  0  0  0  0  0  0  0  0  0  0
  149.6197  139.1264  157.9928 H   0  0  0  0  0  0  0  0  0  0  0  0
  151.1041  138.2780  157.7146 H   0  0  0  0  0  0  0  0  0  0  0  0
  149.9336  140.3830  155.8315 H   0  0  0  0  0  0  0  0  0  0  0  0
  151.4645  138.7675  154.6842 H   0  0  0  0  0  0  0  0  0  0  0  0
  152.0778  140.4036  154.6418 H   0  0  0  0  0  0  0  0  0  0  0  0
  152.8107  138.3509  156.4500 H   0  0  0  0  0  0  0  0  0  0  0  0
  151.8219  141.8832  156.6609 H   0  0  0  0  0  0  0  0  0  0  0  0
  151.8820  139.8003  158.8810 H   0  0  0  0  0  0  0  0  0  0  0  0
  153.2801  140.4440  158.0210 H   0  0  0  0  0  0  0  0  0  0  0  0
  152.5040  141.5971  160.3452 H   0  0  0  0  0  0  0  0  0  0  0  0
  152.9850  142.6264  158.9928 H   0  0  0  0  0  0  0  0  0  0  0  0
  149.7107  142.5900  157.5633 H   0  0  0  0  0  0  0  0  0  0  0  0
  149.5466  141.1176  158.5231 H   0  0  0  0  0  0  0  0  0  0  0  0
  144.4114  135.8829  153.3374 H   0  0  0  0  0  0  0  0  0  0  0  0
  144.3165  135.0886  154.9212 H   0  0  0  0  0  0  0  0  0  0  0  0
  142.9088  135.1337  153.8745 H   0  0  0  0  0  0  0  0  0  0  0  0
  143.7355  134.5071  151.4071 H   0  0  0  0  0  0  0  0  0  0  0  0
  142.8146  133.1106  151.9628 H   0  0  0  0  0  0  0  0  0  0  0  0
  143.9863  133.0250  153.8478 H   0  0  0  0  0  0  0  0  0  0  0  0
  1  2  1  0  0  0  0
  1 32  1  0  0  0  0
  1 33  1  0  0  0  0
  1 34  1  0  0  0  0
  2  3  1  0  0  0  0
  3 30  1  0  0  0  0
  3 29  1  0  0  0  0
  3  4  1  0  0  0  0
  4  5  1  0  0  0  0
  4 35  1  0  0  0  0
  4 36  1  0  0  0  0
  5 31  1  0  0  0  0
  5  6  1  0  0  0  0
  5 27  1  0  0  0  0
  6  7  1  0  0  0  0
  6 37  1  0  0  0  0
  6 38  1  0  0  0  0
  7  8  1  0  0  0  0
  7  9  1  0  0  0  0
  8 39  1  0  0  0  0
  8 40  1  0  0  0  0
  8 41  1  0  0  0  0
  9 14  1  0  0  0  0
  9 10  2  0  0  0  0
 10 11  1  0  0  0  0
 11 12  2  0  0  0  0
 11 42  1  0  0  0  0
 12 13  1  0  0  0  0
 13 17  1  0  0  0  0
 13 14  2  0  0  0  0
 14 15  1  0  0  0  0
 15 16  2  0  0  0  0
 16 17  1  0  0  0  0
 16 43  1  0  0  0  0
 17 18  1  0  0  0  0
 18 19  1  0  0  0  0
 18 44  1  0  0  0  0
 18 45  1  0  0  0  0
 19 20  1  0  0  0  0
 19 22  1  0  0  0  0
 19 46  1  0  0  0  0
 20 21  1  0  0  0  0
 20 47  1  0  0  0  0
 20 48  1  0  0  0  0
 21 49  1  0  0  0  0
 22 26  1  0  0  0  0
 22 23  1  0  0  0  0
 22 50  1  0  0  0  0
 23 24  1  0  0  0  0
 23 51  1  0  0  0  0
 23 52  1  0  0  0  0
 24 25  1  0  0  0  0
 24 53  1  0  0  0  0
 24 54  1  0  0  0  0
 25 26  1  0  0  0  0
 26 55  1  0  0  0  0
 26 56  1  0  0  0  0
 27 28  1  0  0  0  0
 27 29  1  0  0  0  0
 27 62  1  0  0  0  0
 28 57  1  0  0  0  0
 28 58  1  0  0  0  0
 28 59  1  0  0  0  0
 29 60  1  0  0  0  0
 29 61  1  0  0  0  0
M  CHG  1  27   1
M  END
> <s_m_source_file>
AV-unprocessed.smi

> <i_m_source_file_index>
21

> <i_lp_mmshare_version>
43012

> <i_f3d_flags>
0

> <s_epik_input>
W0NIM11PW0NASF0xW0NIMl1bQ0BIXShOKFtDSDNdKVtDSDJdMSlbQ0gyXU4oW0NIM10pYyhuW2NIXW4yKWMoYzIzKW5bY0hdbjNbQ0gyXVtDQEhdKFtDSDJdW09IXSlbQ0BASF00W0NIMl1bQ0gyXU9bQ0gyXTQ=

> <s_epik_cmdline>
J2VwaWtfcHl0aG9uJywgJy1waCcsICc3LjAnLCAnLXRuJywgJzgnLCAnLW1hJywgJzIwMCcsICctbWV0YWxfYmluZGluZycsICctaW1hZScsICc8aW5maWxlLm1hZT4nLCAnLW9tYWUnLCAnPG91dGZpbGUubWFlPic=

> <r_lp_tautomer_probability>
1

> <r_epik_Ionization_Penalty>
0.0157465

> <r_epik_Ionization_Penalty_Charging>
0.015354

> <r_epik_Ionization_Penalty_Neutral>
0.000392529

> <r_epik_State_Penalty>
0.0120612

> <r_epik_Charging_Adjusted_Penalty>
0.0274152

> <i_epik_Tot_Q>
1

> <i_epik_Tot_abs_Q>
1

> <r_epik_Metal_State_Penalty>
0.0121253

> <b_epik_Metal_Only>
0

> <s_lp_Force_Field>
OPLS_2005

> <r_lp_Energy>
60.1072

> <b_lp_Chiralities_Consistent>
1

> <s_lp_Variant>
AV-unprocessed.smi:21-17

> <Gold.Version>
5.8.1

> <Gold.Id.Protein>
6NUR|6NUR_protein|mol2

> <Gold.PLP.Fitness>
46.8664

> <Gold.PLP.PLP>
-38.8258

> <Gold.PLP.part.hbond>
-2.3327

> <Gold.PLP.part.metal>
0.0000

> <Gold.PLP.part.buried>
-5.6135

> <Gold.PLP.part.nonpolar>
-30.0430

> <Gold.PLP.part.repulsive>
0.3148

> <Gold.PLP.ligand.clash>
0.0000

> <Gold.PLP.ligand.torsion>
0.8073

> <Gold.PLP.Chemscore.Hbond>
2.9825

> <Gold.PLP.Chemscore.CHOScore>
0.0000

> <Gold.PLP.Chemscore.Metal>
0.0000

> <Gold.Chemscore.Hbonds>
donor molecule, donor type, donor heavy atom, donor atom, acceptor molecule, acceptor atom, score
      L1  H    27    62       P1 10957  1.92
      P1  H  7997  8008       L1    21  1.00

> <Gold.PLP.Chemscore.Internal.Correction>
0.7077

> <Gold.Rescore>
     Score         DG    S(hbond)    S(metal)    S(lipo)     H(rot)  DE(clash)    DE(int)     intcor
     12.65     -14.91       1.91        0.00      93.36       3.08       0.04       2.22       ----

> <Gold.Chemscore.Fitness>
12.6452

> <Gold.Chemscore.DG>
-14.9075

> <Gold.Chemscore.ZeroCoef>
-5.4800

> <Gold.Chemscore.Hbond>
1.9099

> <Gold.Chemscore.Metal>
0.0000

> <Gold.Chemscore.Lipo>
93.3555

> <Gold.Chemscore.Internal_Hbond>
0.0000

> <Gold.Chemscore.DEClash>
0.0436

> <Gold.Chemscore.DEInternal>
2.2186

> <Gold.Chemscore.Rot>
3.0758

> <Gold.Chemscore.Internal.Correction>
   9.000000E+99

> <Gold.Chemscore.Hbonds>
donor molecule, donor type, donor heavy atom, donor atom, acceptor molecule, acceptor atom, score
      L1  H    27    62       P1 10957  0.87
      P1  H  7997  8008       L1    21  0.98

> <Gold.Chemscore.Hbond.Weighted>
-6.3790

> <Gold.Chemscore.Metal.Weighted>
-0.0000

> <Gold.Chemscore.Lipo.Weighted>
-10.9226

> <Gold.Chemscore.Internal_Hbond.Weighted>
0.0000

> <Gold.Chemscore.DEClash.Weighted>
0.0436

> <Gold.Chemscore.DEInternal.Weighted>
2.2186

> <Gold.Chemscore.Rot.Weighted>
7.8741

> <Gold.Chemscore.Internal.Correction.Weighted>
   9.000000E+99

> <Gold.Protein.RotatedTorsions>
[ 6907 6896 6895 6894 ] final -132.07 input  -60.11 | X-H torsion
[ 7974 7965 7964 7962 ] final  119.57 input  175.53 | X-H torsion
[ 8008 7997 7996 7995 ] final  -38.09 input   59.86 | X-H torsion
[ 10167 10162 10161 10158 ] final   69.28 input  -65.29 | X-H torsion
[ 10718 10713 10712 10709 ] final -166.83 input   66.30 | X-H torsion
[ 10763 10752 10751 10750 ] final   24.31 input  -60.55 | X-H torsion
[ 11005 11000 10999 10996 ] final   -9.92 input  -57.11 | X-H torsion

> <Gold.Protein.ActiveResidues>
 VAL166  LYS551  ARG553  GLY616  TRP617  ASP618  TYR619  PRO620  LYS621  CYS622 
 ASP623  PHE694  ASN695  SER759  ASP760  ASP761  ALA762  ILE779  LEU786  VAL792 
 PHE793  MET794  SER795  GLU796  ALA797  LYS798  CYS799  TRP800  GLU811  SER814 

> <Gold.Protein.RotatedAtoms>
  150.9582  133.6474  159.2758 H   0  0  0  0  0  0  0  0  0  0  0  0  # atno 6907 bound_to 6896
  151.3806  135.0938  159.9504 H   0  0  0  0  0  0  0  0  0  0  0  0  # atno 6908 bound_to 6896
  152.5137  133.9118  159.7546 H   0  0  0  0  0  0  0  0  0  0  0  0  # atno 6909 bound_to 6896
  145.1416  139.3265  143.4613 H   0  0  0  0  0  0  0  0  0  0  0  0  # atno 7974 bound_to 7965
  154.4042  140.1587  156.2643 H   0  0  0  0  0  0  0  0  0  0  0  0  # atno 8008 bound_to 7997
  155.9009  140.3433  155.6003 H   0  0  0  0  0  0  0  0  0  0  0  0  # atno 8009 bound_to 7997
  155.7449  140.0797  157.2219 H   0  0  0  0  0  0  0  0  0  0  0  0  # atno 8010 bound_to 7997
  140.0695  144.5165  150.7237 H   0  0  0  0  0  0  0  0  0  0  0  0  # atno 10167 bound_to 10162
  156.6736  130.9094  151.3047 H   0  0  0  0  0  0  0  0  0  0  0  0  # atno 10718 bound_to 10713
  153.0773  135.6608  154.0118 H   0  0  0  0  0  0  0  0  0  0  0  0  # atno 10763 bound_to 10752
  153.9749  135.2961  155.3426 H   0  0  0  0  0  0  0  0  0  0  0  0  # atno 10764 bound_to 10752
  154.7165  135.5183  153.8816 H   0  0  0  0  0  0  0  0  0  0  0  0  # atno 10765 bound_to 10752
  140.7392  133.8684  155.8954 H   0  0  0  0  0  0  0  0  0  0  0  0  # atno 11005 bound_to 11000
  146.3504  140.1455  142.8593 LP  0  0  0  0  0  0  0  0  0  0  0  0  # atno 17320 bound_to 7965
  145.0526  140.9029  143.4986 LP  0  0  0  0  0  0  0  0  0  0  0  0  # atno 17321 bound_to 7965
  140.7132  143.2523  151.4515 LP  0  0  0  0  0  0  0  0  0  0  0  0  # atno 17342 bound_to 10162
  139.5845  144.1636  152.2011 LP  0  0  0  0  0  0  0  0  0  0  0  0  # atno 17343 bound_to 10162
  157.7068  130.9395  150.0959 LP  0  0  0  0  0  0  0  0  0  0  0  0  # atno 17370 bound_to 10713
  156.1920  130.3655  149.8897 LP  0  0  0  0  0  0  0  0  0  0  0  0  # atno 17371 bound_to 10713
  140.9852  134.1353  157.4459 LP  0  0  0  0  0  0  0  0  0  0  0  0  # atno 17394 bound_to 11000
  139.8809  135.0023  156.6118 LP  0  0  0  0  0  0  0  0  0  0  0  0  # atno 17395 bound_to 11000

$$$$
