AV-unprocessed.smi:3019|AV-procd|sdf|11487|dock7
  -GOLD-   2272016423D 1   1.00000     0.00000
 Structure written by MMmdl.
 31 32  0  0  0  0  0  0  0  0  2 V2000
  152.7728  140.9244  159.7270 C   0  0  0  0  0  0  0  0  0  0  0  0
  152.7696  142.2001  158.8720 C   0  0  0  0  0  0  0  0  0  0  0  0
  152.6579  143.4825  159.7100 C   0  0  0  0  0  0  0  0  0  0  0  0
  151.7244  142.1462  157.8002 C   0  0  0  0  0  0  0  0  0  0  0  0
  150.7966  143.0964  157.6914 N   0  0  0  0  0  0  0  0  0  0  0  0
  150.0803  142.6722  156.6293 N   0  0  0  0  0  0  0  0  0  0  0  0
  150.6007  141.5314  156.1717 C   0  0  0  0  0  0  0  0  0  0  0  0
  150.0212  140.8006  155.0019 C   0  0  2  0  0  0  0  0  0  0  0  0
  148.7505  141.4791  154.4547 C   0  0  0  0  0  0  0  0  0  0  0  0
  148.1671  140.6609  153.3736 N   0  3  0  0  0  0  0  0  0  0  0  0
  147.9168  139.2756  153.8190 C   0  0  0  0  0  0  0  0  0  0  0  0
  149.2060  138.6624  154.3938 C   0  0  0  0  0  0  0  0  0  0  0  0
  149.7020  139.4839  155.4455 O   0  0  0  0  0  0  0  0  0  0  0  0
  151.6547  141.1367  156.8791 N   0  0  0  0  0  0  0  0  0  0  0  0
  149.2815  143.1743  156.2689 H   0  0  0  0  0  0  0  0  0  0  0  0
  152.9242  140.0383  159.1094 H   0  0  0  0  0  0  0  0  0  0  0  0
  151.8300  140.8018  160.2611 H   0  0  0  0  0  0  0  0  0  0  0  0
  153.5727  140.9509  160.4674 H   0  0  0  0  0  0  0  0  0  0  0  0
  153.7410  142.2405  158.3764 H   0  0  0  0  0  0  0  0  0  0  0  0
  152.7329  144.3704  159.0815 H   0  0  0  0  0  0  0  0  0  0  0  0
  153.4543  143.5359  160.4526 H   0  0  0  0  0  0  0  0  0  0  0  0
  151.7064  143.5288  160.2404 H   0  0  0  0  0  0  0  0  0  0  0  0
  150.7805  140.7417  154.2195 H   0  0  0  0  0  0  0  0  0  0  0  0
  148.0096  141.5994  155.2465 H   0  0  0  0  0  0  0  0  0  0  0  0
  148.9782  142.4746  154.0726 H   0  0  0  0  0  0  0  0  0  0  0  0
  147.2988  141.0773  153.0674 H   0  0  0  0  0  0  0  0  0  0  0  0
  147.1313  139.2789  154.5761 H   0  0  0  0  0  0  0  0  0  0  0  0
  147.5514  138.6847  152.9790 H   0  0  0  0  0  0  0  0  0  0  0  0
  149.0057  137.6658  154.7879 H   0  0  0  0  0  0  0  0  0  0  0  0
  149.9645  138.5512  153.6172 H   0  0  0  0  0  0  0  0  0  0  0  0
  148.8136  140.6397  152.5979 H   0  0  0  0  0  0  0  0  0  0  0  0
  1  2  1  0  0  0  0
  1 16  1  0  0  0  0
  1 17  1  0  0  0  0
  1 18  1  0  0  0  0
  2  3  1  0  0  0  0
  2  4  1  0  0  0  0
  2 19  1  0  0  0  0
  3 20  1  0  0  0  0
  3 21  1  0  0  0  0
  3 22  1  0  0  0  0
  4 14  1  0  0  0  0
  4  5  2  0  0  0  0
  5  6  1  0  0  0  0
  6 15  1  0  0  0  0
  6  7  1  0  0  0  0
  7  8  1  0  0  0  0
  7 14  2  0  0  0  0
  8 13  1  0  0  0  0
  8  9  1  0  0  0  0
  8 23  1  0  0  0  0
  9 10  1  0  0  0  0
  9 24  1  0  0  0  0
  9 25  1  0  0  0  0
 10 11  1  0  0  0  0
 10 26  1  0  0  0  0
 10 31  1  0  0  0  0
 11 12  1  0  0  0  0
 11 27  1  0  0  0  0
 11 28  1  0  0  0  0
 12 13  1  0  0  0  0
 12 29  1  0  0  0  0
 12 30  1  0  0  0  0
M  CHG  1  10   1
M  END
> <s_m_source_file>
AV-unprocessed.smi

> <i_m_source_file_index>
3019

> <i_lp_mmshare_version>
43012

> <i_f3d_flags>
0

> <s_epik_input>
W0NIM11bQ0hdKFtDSDNdKWMxbltuSF1jKG4xKVtDQEBIXTJbQ0gyXVtOSF1bQ0gyXVtDSDJdTzI=

> <s_epik_cmdline>
J2VwaWtfcHl0aG9uJywgJy1waCcsICc3LjAnLCAnLXRuJywgJzgnLCAnLW1hJywgJzIwMCcsICctbWV0YWxfYmluZGluZycsICctaW1hZScsICc8aW5maWxlLm1hZT4nLCAnLW9tYWUnLCAnPG91dGZpbGUubWFlPic=

> <r_epik_Ionization_Penalty>
0.162344

> <r_epik_Ionization_Penalty_Charging>
0.125708

> <r_epik_Ionization_Penalty_Neutral>
0.0366363

> <r_epik_State_Penalty>
1.18286

> <r_epik_Charging_Adjusted_Penalty>
1.30856

> <i_epik_Tot_Q>
1

> <i_epik_Tot_abs_Q>
1

> <r_epik_Metal_State_Penalty>
1.49333

> <b_epik_Metal_Only>
0

> <s_lp_Force_Field>
OPLS_2005

> <r_lp_Energy>
8.53585

> <b_lp_Chiralities_Consistent>
1

> <s_lp_Variant>
AV-unprocessed.smi:3019-3

> <Gold.Version>
5.8.1

> <Gold.Id.Protein>
6NUR|6NUR_protein|mol2

> <Gold.PLP.Fitness>
31.6492

> <Gold.PLP.PLP>
-26.1466

> <Gold.PLP.part.hbond>
-2.0000

> <Gold.PLP.part.metal>
0.0000

> <Gold.PLP.part.buried>
-1.9500

> <Gold.PLP.part.nonpolar>
-21.2545

> <Gold.PLP.part.repulsive>
0.3827

> <Gold.PLP.ligand.clash>
0.0000

> <Gold.PLP.ligand.torsion>
0.0505

> <Gold.PLP.Chemscore.Hbond>
1.8480

> <Gold.PLP.Chemscore.CHOScore>
0.0000

> <Gold.PLP.Chemscore.Metal>
0.0000

> <Gold.Chemscore.Hbonds>
donor molecule, donor type, donor heavy atom, donor atom, acceptor molecule, acceptor atom, score
      L1  H     6    15       P1  8028  0.80
      L1  H    10    31       P1  7957  1.00

> <Gold.PLP.Chemscore.Internal.Correction>
0.0595

> <Gold.Rescore>
     Score         DG    S(hbond)    S(metal)    S(lipo)     H(rot)  DE(clash)    DE(int)     intcor
     15.30     -15.40       1.99        0.00      56.08       1.28       0.02       0.08       ----

> <Gold.Chemscore.Fitness>
15.2970

> <Gold.Chemscore.DG>
-15.3984

> <Gold.Chemscore.ZeroCoef>
-5.4800

> <Gold.Chemscore.Hbond>
1.9858

> <Gold.Chemscore.Metal>
0.0000

> <Gold.Chemscore.Lipo>
56.0781

> <Gold.Chemscore.Internal_Hbond>
0.0000

> <Gold.Chemscore.DEClash>
0.0177

> <Gold.Chemscore.DEInternal>
0.0836

> <Gold.Chemscore.Rot>
1.2795

> <Gold.Chemscore.Internal.Correction>
   9.000000E+99

> <Gold.Chemscore.Hbonds>
donor molecule, donor type, donor heavy atom, donor atom, acceptor molecule, acceptor atom, score
      L1  H     6    15       P1  8028  0.80
      L1  H    10    31       P1  7957  0.99

> <Gold.Chemscore.Hbond.Weighted>
-6.6327

> <Gold.Chemscore.Metal.Weighted>
-0.0000

> <Gold.Chemscore.Lipo.Weighted>
-6.5611

> <Gold.Chemscore.Internal_Hbond.Weighted>
0.0000

> <Gold.Chemscore.DEClash.Weighted>
0.0177

> <Gold.Chemscore.DEInternal.Weighted>
0.0836

> <Gold.Chemscore.Rot.Weighted>
3.2754

> <Gold.Chemscore.Internal.Correction.Weighted>
   9.000000E+99

> <Gold.Protein.RotatedTorsions>
[ 6907 6896 6895 6894 ] final  159.45 input  -60.11 | X-H torsion
[ 7974 7965 7964 7962 ] final  128.55 input  175.53 | X-H torsion
[ 8008 7997 7996 7995 ] final   -5.91 input   59.86 | X-H torsion
[ 10167 10162 10161 10158 ] final -165.18 input  -65.29 | X-H torsion
[ 10718 10713 10712 10709 ] final -124.11 input   66.30 | X-H torsion
[ 10763 10752 10751 10750 ] final    0.97 input  -60.55 | X-H torsion
[ 11005 11000 10999 10996 ] final  -50.22 input  -57.11 | X-H torsion

> <Gold.Protein.ActiveResidues>
 VAL166  LYS551  ARG553  GLY616  TRP617  ASP618  TYR619  PRO620  LYS621  CYS622 
 ASP623  PHE694  ASN695  SER759  ASP760  ASP761  ALA762  ILE779  LEU786  VAL792 
 PHE793  MET794  SER795  GLU796  ALA797  LYS798  CYS799  TRP800  GLU811  SER814 

> <Gold.Protein.RotatedAtoms>
  151.9854  133.3772  159.4123 H   0  0  0  0  0  0  0  0  0  0  0  0  # atno 6907 bound_to 6896
  150.6929  134.3994  159.5121 H   0  0  0  0  0  0  0  0  0  0  0  0  # atno 6908 bound_to 6896
  152.1719  134.8827  160.0584 H   0  0  0  0  0  0  0  0  0  0  0  0  # atno 6909 bound_to 6896
  145.0384  139.3985  143.5114 H   0  0  0  0  0  0  0  0  0  0  0  0  # atno 7974 bound_to 7965
  154.5991  140.2446  155.7816 H   0  0  0  0  0  0  0  0  0  0  0  0  # atno 8008 bound_to 7997
  156.2299  140.2970  156.0114 H   0  0  0  0  0  0  0  0  0  0  0  0  # atno 8009 bound_to 7997
  155.2242  140.0401  157.2943 H   0  0  0  0  0  0  0  0  0  0  0  0  # atno 8010 bound_to 7997
  139.6199  144.0644  152.1923 H   0  0  0  0  0  0  0  0  0  0  0  0  # atno 10167 bound_to 10162
  156.1560  130.6568  150.9982 H   0  0  0  0  0  0  0  0  0  0  0  0  # atno 10718 bound_to 10713
  153.3139  135.6964  153.7091 H   0  0  0  0  0  0  0  0  0  0  0  0  # atno 10763 bound_to 10752
  153.5957  135.3471  155.2928 H   0  0  0  0  0  0  0  0  0  0  0  0  # atno 10764 bound_to 10752
  154.8582  135.4328  154.2285 H   0  0  0  0  0  0  0  0  0  0  0  0  # atno 10765 bound_to 10752
  141.0804  133.6655  156.3699 H   0  0  0  0  0  0  0  0  0  0  0  0  # atno 11005 bound_to 11000
  146.3506  139.9971  142.8680 LP  0  0  0  0  0  0  0  0  0  0  0  0  # atno 17320 bound_to 7965
  145.1680  140.9706  143.4338 LP  0  0  0  0  0  0  0  0  0  0  0  0  # atno 17321 bound_to 7965
  140.0284  144.6100  150.7508 LP  0  0  0  0  0  0  0  0  0  0  0  0  # atno 17342 bound_to 10162
  140.7375  143.2767  151.3721 LP  0  0  0  0  0  0  0  0  0  0  0  0  # atno 17343 bound_to 10162
  157.6695  131.0864  150.7647 LP  0  0  0  0  0  0  0  0  0  0  0  0  # atno 17370 bound_to 10713
  156.7712  130.4829  149.5418 LP  0  0  0  0  0  0  0  0  0  0  0  0  # atno 17371 bound_to 10713
  140.5482  134.6054  157.5400 LP  0  0  0  0  0  0  0  0  0  0  0  0  # atno 17394 bound_to 11000
  139.9617  134.7441  156.0223 LP  0  0  0  0  0  0  0  0  0  0  0  0  # atno 17395 bound_to 11000

$$$$
