AV-unprocessed.smi:1562|AV-procd|sdf|6287|dock3
  -GOLD-   22720 6483D 1   1.00000     0.00000
 Structure written by MMmdl.
 40 41  0  0  0  0  0  0  0  0  1 V2000
  149.4851  138.0778  153.0675 N   0  0  0  0  0  0  0  0  0  0  0  0
  149.7620  138.9343  154.0540 C   0  0  0  0  0  0  0  0  0  0  0  0
  150.2756  140.0311  153.8407 O   0  0  0  0  0  0  0  0  0  0  0  0
  149.4112  138.4949  155.4820 C   0  0  0  0  0  0  0  0  0  0  0  0
  149.7783  139.5928  156.5091 C   0  0  0  0  0  0  0  0  0  0  0  0
  149.5571  139.1006  157.9509 C   0  0  0  0  0  0  0  0  0  0  0  0
  150.3528  137.8790  158.1597 N   0  0  0  0  0  0  0  0  0  0  0  0
  151.5133  137.7864  158.8576 C   0  0  0  0  0  0  0  0  0  0  0  0
  152.0826  136.7172  159.0822 O   0  0  0  0  0  0  0  0  0  0  0  0
  151.9868  138.9547  159.3206 N   0  0  0  0  0  0  0  0  0  0  0  0
  153.2048  139.1005  160.1059 C   0  0  0  0  0  0  0  0  0  0  0  0
  153.9844  140.3500  159.6729 C   0  0  0  0  0  0  0  0  0  0  0  0
  153.3334  141.6306  160.1621 C   0  0  0  0  0  0  0  0  0  0  0  0
  153.2832  141.9342  161.5396 C   0  0  0  0  0  0  0  0  0  0  0  0
  152.6589  143.1316  161.9403 C   0  0  0  0  0  0  0  0  0  0  0  0
  152.1114  143.9746  160.9538 C   0  0  0  0  0  0  0  0  0  0  0  0
  152.2132  143.5809  159.6045 C   0  0  0  0  0  0  0  0  0  0  0  0
  152.8102  142.4356  159.2097 N   0  0  0  0  0  0  0  0  0  0  0  0
  149.8691  136.7831  157.3108 C   0  0  0  0  0  0  0  0  0  0  0  0
  150.1021  137.1565  155.8352 C   0  0  0  0  0  0  0  0  0  0  0  0
  149.7025  138.3269  152.1134 H   0  0  0  0  0  0  0  0  0  0  0  0
  149.0629  137.1850  153.2771 H   0  0  0  0  0  0  0  0  0  0  0  0
  148.3328  138.3358  155.5396 H   0  0  0  0  0  0  0  0  0  0  0  0
  150.8212  139.8922  156.3912 H   0  0  0  0  0  0  0  0  0  0  0  0
  149.1787  140.4865  156.3313 H   0  0  0  0  0  0  0  0  0  0  0  0
  149.7836  139.9025  158.6537 H   0  0  0  0  0  0  0  0  0  0  0  0
  148.5020  138.8718  158.1074 H   0  0  0  0  0  0  0  0  0  0  0  0
  151.4688  139.7958  159.1116 H   0  0  0  0  0  0  0  0  0  0  0  0
  152.9498  139.1685  161.1650 H   0  0  0  0  0  0  0  0  0  0  0  0
  153.8213  138.2096  159.9780 H   0  0  0  0  0  0  0  0  0  0  0  0
  155.0073  140.3006  160.0487 H   0  0  0  0  0  0  0  0  0  0  0  0
  154.0592  140.3854  158.5849 H   0  0  0  0  0  0  0  0  0  0  0  0
  153.7096  141.2660  162.2731 H   0  0  0  0  0  0  0  0  0  0  0  0
  152.6003  143.3981  162.9855 H   0  0  0  0  0  0  0  0  0  0  0  0
  151.6245  144.9001  161.2239 H   0  0  0  0  0  0  0  0  0  0  0  0
  151.8036  144.2020  158.8218 H   0  0  0  0  0  0  0  0  0  0  0  0
  150.3528  135.8315  157.5362 H   0  0  0  0  0  0  0  0  0  0  0  0
  148.8059  136.6228  157.4951 H   0  0  0  0  0  0  0  0  0  0  0  0
  149.7256  136.3600  155.1922 H   0  0  0  0  0  0  0  0  0  0  0  0
  151.1757  137.2212  155.6489 H   0  0  0  0  0  0  0  0  0  0  0  0
  1  2  1  0  0  0  0
  1 21  1  0  0  0  0
  1 22  1  0  0  0  0
  2  3  2  0  0  0  0
  2  4  1  0  0  0  0
  4 20  1  0  0  0  0
  4  5  1  0  0  0  0
  4 23  1  0  0  0  0
  5  6  1  0  0  0  0
  5 24  1  0  0  0  0
  5 25  1  0  0  0  0
  6  7  1  0  0  0  0
  6 26  1  0  0  0  0
  6 27  1  0  0  0  0
  7  8  1  0  0  0  0
  7 19  1  0  0  0  0
  8  9  2  0  0  0  0
  8 10  1  0  0  0  0
 10 11  1  0  0  0  0
 10 28  1  0  0  0  0
 11 12  1  0  0  0  0
 11 29  1  0  0  0  0
 11 30  1  0  0  0  0
 12 13  1  0  0  0  0
 12 31  1  0  0  0  0
 12 32  1  0  0  0  0
 13 18  1  0  0  0  0
 13 14  2  0  0  0  0
 14 15  1  0  0  0  0
 14 33  1  0  0  0  0
 15 16  2  0  0  0  0
 15 34  1  0  0  0  0
 16 17  1  0  0  0  0
 16 35  1  0  0  0  0
 17 18  2  0  0  0  0
 17 36  1  0  0  0  0
 19 20  1  0  0  0  0
 19 37  1  0  0  0  0
 19 38  1  0  0  0  0
 20 39  1  0  0  0  0
 20 40  1  0  0  0  0
M  END
> <s_m_source_file>
AV-unprocessed.smi

> <i_m_source_file_index>
1562

> <i_lp_mmshare_version>
43012

> <i_f3d_flags>
0

> <s_epik_input>
W05IMl1DKD1PKVtDSF0xW0NIMl1bQ0gyXU4oW0NIMl1bQ0gyXTEpQyg9TylbTkhdW0NIMl1bQ0gyXWMyW2NIXVtjSF1bY0hdW2NIXW4y

> <s_epik_cmdline>
J2VwaWtfcHl0aG9uJywgJy1waCcsICc3LjAnLCAnLXRuJywgJzgnLCAnLW1hJywgJzIwMCcsICctbWV0YWxfYmluZGluZycsICctaW1hZScsICc8aW5maWxlLm1hZT4nLCAnLW9tYWUnLCAnPG91dGZpbGUubWFlPic=

> <r_epik_Ionization_Penalty>
0.0445602

> <r_epik_Ionization_Penalty_Charging>
0

> <r_epik_Ionization_Penalty_Neutral>
0.0445602

> <r_epik_State_Penalty>
0.0377204

> <r_epik_Charging_Adjusted_Penalty>
0.0377204

> <i_epik_Tot_Q>
0

> <i_epik_Tot_abs_Q>
0

> <r_epik_Metal_State_Penalty>
0.0350723

> <b_epik_Metal_Only>
0

> <s_lp_Force_Field>
OPLS_2005

> <r_lp_Energy>
26.805

> <b_lp_Chiralities_Consistent>
1

> <s_lp_Variant>
AV-unprocessed.smi:1562-1

> <Gold.Version>
5.8.1

> <Gold.Id.Protein>
6NUR|6NUR_protein|mol2

> <Gold.PLP.Fitness>
48.6329

> <Gold.PLP.PLP>
-39.2823

> <Gold.PLP.part.hbond>
-3.8613

> <Gold.PLP.part.metal>
0.0000

> <Gold.PLP.part.buried>
-6.9338

> <Gold.PLP.part.nonpolar>
-28.6780

> <Gold.PLP.part.repulsive>
0.3102

> <Gold.PLP.ligand.clash>
0.0000

> <Gold.PLP.ligand.torsion>
0.3133

> <Gold.PLP.Chemscore.Hbond>
3.3009

> <Gold.PLP.Chemscore.CHOScore>
0.0000

> <Gold.PLP.Chemscore.Metal>
0.0000

> <Gold.Chemscore.Hbonds>
donor molecule, donor type, donor heavy atom, donor atom, acceptor molecule, acceptor atom, score
      L1  H     1    21       P1  7957  0.40
      L1  H     1    22       P1  7948  0.19
      P1  H  6896  6908       L1     9  0.85
      P1  H  7989  7998       L1     3  0.91

> <Gold.PLP.Chemscore.Internal.Correction>
0.0746

> <Gold.Rescore>
     Score         DG    S(hbond)    S(metal)    S(lipo)     H(rot)  DE(clash)    DE(int)     intcor
     20.05     -20.26       2.86        0.00      87.45       1.95       0.03       0.19       ----

> <Gold.Chemscore.Fitness>
20.0519

> <Gold.Chemscore.DG>
-20.2645

> <Gold.Chemscore.ZeroCoef>
-5.4800

> <Gold.Chemscore.Hbond>
2.8572

> <Gold.Chemscore.Metal>
0.0000

> <Gold.Chemscore.Lipo>
87.4478

> <Gold.Chemscore.Internal_Hbond>
0.0000

> <Gold.Chemscore.DEClash>
0.0270

> <Gold.Chemscore.DEInternal>
0.1856

> <Gold.Chemscore.Rot>
1.9492

> <Gold.Chemscore.Internal.Correction>
   9.000000E+99

> <Gold.Chemscore.Hbonds>
donor molecule, donor type, donor heavy atom, donor atom, acceptor molecule, acceptor atom, score
      L1  H     1    21       P1  7957  0.03
      L1  H     1    22       P1  7948  0.19
      P1  H  6896  6908       L1     9  0.85
      P1  H  7989  7998       L1     3  0.89

> <Gold.Chemscore.Hbond.Weighted>
-9.5431

> <Gold.Chemscore.Metal.Weighted>
-0.0000

> <Gold.Chemscore.Lipo.Weighted>
-10.2314

> <Gold.Chemscore.Internal_Hbond.Weighted>
0.0000

> <Gold.Chemscore.DEClash.Weighted>
0.0270

> <Gold.Chemscore.DEInternal.Weighted>
0.1856

> <Gold.Chemscore.Rot.Weighted>
4.9900

> <Gold.Chemscore.Internal.Correction.Weighted>
   9.000000E+99

> <Gold.Protein.RotatedTorsions>
[ 6907 6896 6895 6894 ] final  -99.70 input  -60.11 | X-H torsion
[ 7974 7965 7964 7962 ] final  -85.27 input  175.53 | X-H torsion
[ 8008 7997 7996 7995 ] final   28.21 input   59.86 | X-H torsion
[ 10167 10162 10161 10158 ] final  155.01 input  -65.29 | X-H torsion
[ 10718 10713 10712 10709 ] final  114.33 input   66.30 | X-H torsion
[ 10763 10752 10751 10750 ] final   76.61 input  -60.55 | X-H torsion
[ 11005 11000 10999 10996 ] final    6.29 input  -57.11 | X-H torsion

> <Gold.Protein.ActiveResidues>
 VAL166  LYS551  ARG553  GLY616  TRP617  ASP618  TYR619  PRO620  LYS621  CYS622 
 ASP623  PHE694  ASN695  SER759  ASP760  ASP761  ALA762  ILE779  LEU786  VAL792 
 PHE793  MET794  SER795  GLU796  ALA797  LYS798  CYS799  TRP800  GLU811  SER814 

> <Gold.Protein.RotatedAtoms>
  150.7089  134.1001  159.3962 H   0  0  0  0  0  0  0  0  0  0  0  0  # atno 6907 bound_to 6896
  151.8987  135.0385  160.0513 H   0  0  0  0  0  0  0  0  0  0  0  0  # atno 6908 bound_to 6896
  152.2432  133.5117  159.5319 H   0  0  0  0  0  0  0  0  0  0  0  0  # atno 6909 bound_to 6896
  145.4955  140.9550  143.1788 H   0  0  0  0  0  0  0  0  0  0  0  0  # atno 7974 bound_to 7965
  155.0551  140.3184  155.4679 H   0  0  0  0  0  0  0  0  0  0  0  0  # atno 8008 bound_to 7997
  156.2825  140.2139  156.5622 H   0  0  0  0  0  0  0  0  0  0  0  0  # atno 8009 bound_to 7997
  154.7178  140.0492  157.0598 H   0  0  0  0  0  0  0  0  0  0  0  0  # atno 8010 bound_to 7997
  139.4822  144.5136  151.7986 H   0  0  0  0  0  0  0  0  0  0  0  0  # atno 10167 bound_to 10162
  157.6287  131.0997  150.7171 H   0  0  0  0  0  0  0  0  0  0  0  0  # atno 10718 bound_to 10713
  153.0738  135.4945  154.8361 H   0  0  0  0  0  0  0  0  0  0  0  0  # atno 10763 bound_to 10752
  154.7059  135.3010  154.9273 H   0  0  0  0  0  0  0  0  0  0  0  0  # atno 10764 bound_to 10752
  153.9982  135.6769  153.4810 H   0  0  0  0  0  0  0  0  0  0  0  0  # atno 10765 bound_to 10752
  140.5611  134.0191  155.7972 H   0  0  0  0  0  0  0  0  0  0  0  0  # atno 11005 bound_to 11000
  144.7809  139.6528  143.7154 LP  0  0  0  0  0  0  0  0  0  0  0  0  # atno 17320 bound_to 7965
  146.2258  139.5719  142.9588 LP  0  0  0  0  0  0  0  0  0  0  0  0  # atno 17321 bound_to 7965
  140.4642  144.1679  150.5910 LP  0  0  0  0  0  0  0  0  0  0  0  0  # atno 17342 bound_to 10162
  140.4452  143.2509  151.9420 LP  0  0  0  0  0  0  0  0  0  0  0  0  # atno 17343 bound_to 10162
  156.7514  130.4770  149.5456 LP  0  0  0  0  0  0  0  0  0  0  0  0  # atno 17370 bound_to 10713
  156.1476  130.6288  151.0552 LP  0  0  0  0  0  0  0  0  0  0  0  0  # atno 17371 bound_to 10713
  141.1114  133.9611  157.2904 LP  0  0  0  0  0  0  0  0  0  0  0  0  # atno 17394 bound_to 11000
  139.9407  135.0191  156.8699 LP  0  0  0  0  0  0  0  0  0  0  0  0  # atno 17395 bound_to 11000

$$$$
