AV-unprocessed.smi:1018|AV-procd|sdf|4441|dock2
  -GOLD-   22720 2403D 1   1.00000     0.00000
 Structure written by MMmdl.
 52 53  0  0  0  0  0  0  0  0  1 V2000
  150.7899  144.3528  158.3577 C   0  0  0  0  0  0  0  0  0  0  0  0
  151.5524  143.0933  157.9336 C   0  0  2  0  0  0  0  0  0  0  0  0
  150.6275  142.0501  157.2779 C   0  0  0  0  0  0  0  0  0  0  0  0
  151.3731  140.8332  156.9881 N   0  0  0  0  0  0  0  0  0  0  0  0
  150.6263  139.8899  156.2700 C   0  0  0  0  0  0  0  0  0  0  0  0
  149.7134  139.0220  156.9117 C   0  0  0  0  0  0  0  0  0  0  0  0
  148.9923  138.1018  156.1279 C   0  0  0  0  0  0  0  0  0  0  0  0
  149.2060  138.0673  154.7353 C   0  0  0  0  0  0  0  0  0  0  0  0
  148.4530  137.1379  153.9681 N   0  0  0  0  0  0  0  0  0  0  0  0
  147.3651  136.4388  154.3337 C   0  0  0  0  0  0  0  0  0  0  0  0
  146.8111  136.5054  155.4306 O   0  0  0  0  0  0  0  0  0  0  0  0
  146.9300  135.6648  153.3296 N   0  0  0  0  0  0  0  0  0  0  0  0
  145.7589  134.7874  153.3718 C   0  0  0  0  0  0  0  0  0  0  0  0
  144.5933  135.2478  152.4501 C   0  0  0  0  0  0  0  0  0  0  0  0
  145.1425  135.3854  151.0145 C   0  0  0  0  0  0  0  0  0  0  0  0
  143.4692  134.1811  152.4344 C   0  0  0  0  0  0  0  0  0  0  0  0
  144.0764  136.6385  152.9021 C   0  0  0  0  0  0  0  0  0  0  0  0
  143.0848  137.2160  152.2155 N   0  0  0  0  0  0  0  0  0  0  0  0
  144.5735  137.1929  153.8811 O   0  0  0  0  0  0  0  0  0  0  0  0
  150.1299  138.9906  154.1881 C   0  0  0  0  0  0  0  0  0  0  0  0
  150.8230  139.8772  154.9342 N   0  0  0  0  0  0  0  0  0  0  0  0
  152.0460  140.2949  158.1631 C   0  0  0  0  0  0  0  0  0  0  0  0
  152.9465  141.3744  158.7929 C   0  0  2  0  0  0  0  0  0  0  0  0
  153.6072  140.8911  160.0880 C   0  0  0  0  0  0  0  0  0  0  0  0
  152.1536  142.5212  159.0939 O   0  0  0  0  0  0  0  0  0  0  0  0
  150.3193  144.8338  157.4999 H   0  0  0  0  0  0  0  0  0  0  0  0
  151.4614  145.0779  158.8180 H   0  0  0  0  0  0  0  0  0  0  0  0
  150.0084  144.1167  159.0802 H   0  0  0  0  0  0  0  0  0  0  0  0
  152.3366  143.3817  157.2313 H   0  0  0  0  0  0  0  0  0  0  0  0
  149.7936  141.8181  157.9419 H   0  0  0  0  0  0  0  0  0  0  0  0
  150.2044  142.4505  156.3556 H   0  0  0  0  0  0  0  0  0  0  0  0
  149.5613  139.0599  157.9803 H   0  0  0  0  0  0  0  0  0  0  0  0
  148.2870  137.4294  156.5940 H   0  0  0  0  0  0  0  0  0  0  0  0
  148.7423  137.0361  153.0064 H   0  0  0  0  0  0  0  0  0  0  0  0
  147.4476  135.6805  152.4628 H   0  0  0  0  0  0  0  0  0  0  0  0
  146.0960  133.7923  153.0786 H   0  0  0  0  0  0  0  0  0  0  0  0
  145.4036  134.6774  154.3980 H   0  0  0  0  0  0  0  0  0  0  0  0
  145.5086  134.4293  150.6388 H   0  0  0  0  0  0  0  0  0  0  0  0
  145.9730  136.0909  150.9625 H   0  0  0  0  0  0  0  0  0  0  0  0
  144.3737  135.7329  150.3227 H   0  0  0  0  0  0  0  0  0  0  0  0
  143.8630  133.2047  152.1505 H   0  0  0  0  0  0  0  0  0  0  0  0
  142.6867  134.4312  151.7168 H   0  0  0  0  0  0  0  0  0  0  0  0
  142.9956  134.0629  153.4094 H   0  0  0  0  0  0  0  0  0  0  0  0
  142.7355  138.1195  152.5001 H   0  0  0  0  0  0  0  0  0  0  0  0
  142.6867  136.7439  151.4167 H   0  0  0  0  0  0  0  0  0  0  0  0
  150.3177  139.0524  153.1276 H   0  0  0  0  0  0  0  0  0  0  0  0
  151.3079  139.9576  158.8920 H   0  0  0  0  0  0  0  0  0  0  0  0
  152.6418  139.4264  157.8789 H   0  0  0  0  0  0  0  0  0  0  0  0
  153.7304  141.6568  158.0877 H   0  0  0  0  0  0  0  0  0  0  0  0
  154.2340  140.0181  159.9057 H   0  0  0  0  0  0  0  0  0  0  0  0
  152.8604  140.6182  160.8340 H   0  0  0  0  0  0  0  0  0  0  0  0
  154.2381  141.6697  160.5173 H   0  0  0  0  0  0  0  0  0  0  0  0
  1  2  1  0  0  0  0
  1 26  1  0  0  0  0
  1 27  1  0  0  0  0
  1 28  1  0  0  0  0
  2 25  1  0  0  0  0
  2  3  1  0  0  0  0
  2 29  1  0  0  0  0
  3  4  1  0  0  0  0
  3 30  1  0  0  0  0
  3 31  1  0  0  0  0
  4  5  1  0  0  0  0
  4 22  1  0  0  0  0
  5 21  1  0  0  0  0
  5  6  2  0  0  0  0
  6  7  1  0  0  0  0
  6 32  1  0  0  0  0
  7  8  2  0  0  0  0
  7 33  1  0  0  0  0
  8  9  1  0  0  0  0
  8 20  1  0  0  0  0
  9 10  1  0  0  0  0
  9 34  1  0  0  0  0
 10 11  2  0  0  0  0
 10 12  1  0  0  0  0
 12 13  1  0  0  0  0
 12 35  1  0  0  0  0
 13 14  1  0  0  0  0
 13 36  1  0  0  0  0
 13 37  1  0  0  0  0
 14 15  1  0  0  0  0
 14 16  1  0  0  0  0
 14 17  1  0  0  0  0
 15 38  1  0  0  0  0
 15 39  1  0  0  0  0
 15 40  1  0  0  0  0
 16 41  1  0  0  0  0
 16 42  1  0  0  0  0
 16 43  1  0  0  0  0
 17 18  1  0  0  0  0
 17 19  2  0  0  0  0
 18 44  1  0  0  0  0
 18 45  1  0  0  0  0
 20 21  2  0  0  0  0
 20 46  1  0  0  0  0
 22 23  1  0  0  0  0
 22 47  1  0  0  0  0
 22 48  1  0  0  0  0
 23 24  1  0  0  0  0
 23 25  1  0  0  0  0
 23 49  1  0  0  0  0
 24 50  1  0  0  0  0
 24 51  1  0  0  0  0
 24 52  1  0  0  0  0
M  END
> <s_m_source_file>
AV-unprocessed.smi

> <i_m_source_file_index>
1018

> <i_lp_mmshare_version>
43012

> <i_f3d_flags>
0

> <s_epik_input>
W0NIM11bQ0BASF0xW0NIMl1OKFtDSDJdW0NASF0oTzEpW0NIM10pYzJbY0hdW2NIXWMoW2NIXW4yKVtOSF1DKD1PKVtOSF1bQ0gyXUMoW0NIM10pKFtDSDNdKUMoPU8pW05IMl0=

> <s_epik_cmdline>
J2VwaWtfcHl0aG9uJywgJy1waCcsICc3LjAnLCAnLXRuJywgJzgnLCAnLW1hJywgJzIwMCcsICctbWV0YWxfYmluZGluZycsICctaW1hZScsICc8aW5maWxlLm1hZT4nLCAnLW9tYWUnLCAnPG91dGZpbGUubWFlPic=

> <r_lp_tautomer_probability>
1

> <r_epik_Ionization_Penalty>
0.002562

> <r_epik_Ionization_Penalty_Charging>
0

> <r_epik_Ionization_Penalty_Neutral>
0.002562

> <r_epik_State_Penalty>
0.00175377

> <r_epik_Charging_Adjusted_Penalty>
0.00175377

> <i_epik_Tot_Q>
0

> <i_epik_Tot_abs_Q>
0

> <r_epik_Metal_State_Penalty>
-0

> <b_epik_Metal_Only>
0

> <s_lp_Force_Field>
OPLS_2005

> <r_lp_Energy>
23.1449

> <b_lp_Chiralities_Consistent>
1

> <s_lp_Variant>
AV-unprocessed.smi:1018-2

> <Gold.Version>
5.8.1

> <Gold.Id.Protein>
6NUR|6NUR_protein|mol2

> <Gold.PLP.Fitness>
50.4077

> <Gold.PLP.PLP>
-38.9302

> <Gold.PLP.part.hbond>
-5.0000

> <Gold.PLP.part.metal>
0.0000

> <Gold.PLP.part.buried>
-6.3307

> <Gold.PLP.part.nonpolar>
-27.4934

> <Gold.PLP.part.repulsive>
0.2654

> <Gold.PLP.ligand.clash>
0.0000

> <Gold.PLP.ligand.torsion>
0.5362

> <Gold.PLP.Chemscore.Hbond>
3.1340

> <Gold.PLP.Chemscore.CHOScore>
1.0000

> <Gold.PLP.Chemscore.Metal>
0.0000

> <Gold.Chemscore.Hbonds>
donor molecule, donor type, donor heavy atom, donor atom, acceptor molecule, acceptor atom, score
      L1  H     9    34       P1  7948  0.68
      L1  H    12    35       P1  7948  0.82
      P1  H  7989  7998       L1    21  0.90
      L1  C    20    46       P1  7957  1.00

> <Gold.PLP.Chemscore.Internal.Correction>
0.1480

> <Gold.Rescore>
     Score         DG    S(hbond)    S(metal)    S(lipo)     H(rot)  DE(clash)    DE(int)     intcor
     18.57     -21.51       3.21        0.00      91.22       2.09       0.08       2.86       ----

> <Gold.Chemscore.Fitness>
18.5716

> <Gold.Chemscore.DG>
-21.5128

> <Gold.Chemscore.ZeroCoef>
-5.4800

> <Gold.Chemscore.Hbond>
3.2102

> <Gold.Chemscore.Metal>
0.0000

> <Gold.Chemscore.Lipo>
91.2234

> <Gold.Chemscore.Internal_Hbond>
0.0000

> <Gold.Chemscore.DEClash>
0.0825

> <Gold.Chemscore.DEInternal>
2.8587

> <Gold.Chemscore.Rot>
2.0947

> <Gold.Chemscore.Internal.Correction>
   9.000000E+99

> <Gold.Chemscore.Hbonds>
donor molecule, donor type, donor heavy atom, donor atom, acceptor molecule, acceptor atom, score
      L1  H     9    34       P1  7948  0.66
      L1  H    12    35       P1  7948  0.81
      L1  H    18    44       P1 10175  0.02
      P1  H  7989  7998       L1    21  0.18

> <Gold.Chemscore.Hbond.Weighted>
-10.7220

> <Gold.Chemscore.Metal.Weighted>
-0.0000

> <Gold.Chemscore.Lipo.Weighted>
-10.6731

> <Gold.Chemscore.Internal_Hbond.Weighted>
0.0000

> <Gold.Chemscore.DEClash.Weighted>
0.0825

> <Gold.Chemscore.DEInternal.Weighted>
2.8587

> <Gold.Chemscore.Rot.Weighted>
5.3624

> <Gold.Chemscore.Internal.Correction.Weighted>
   9.000000E+99

> <Gold.Protein.RotatedTorsions>
[ 6907 6896 6895 6894 ] final  -92.41 input  -60.11 | X-H torsion
[ 7974 7965 7964 7962 ] final  -87.26 input  175.53 | X-H torsion
[ 8008 7997 7996 7995 ] final   28.07 input   59.86 | X-H torsion
[ 10167 10162 10161 10158 ] final   -9.32 input  -65.29 | X-H torsion
[ 10718 10713 10712 10709 ] final   24.28 input   66.30 | X-H torsion
[ 10763 10752 10751 10750 ] final   18.21 input  -60.55 | X-H torsion
[ 11005 11000 10999 10996 ] final   30.23 input  -57.11 | X-H torsion

> <Gold.Protein.ActiveResidues>
 VAL166  LYS551  ARG553  GLY616  TRP617  ASP618  TYR619  PRO620  LYS621  CYS622 
 ASP623  PHE694  ASN695  SER759  ASP760  ASP761  ALA762  ILE779  LEU786  VAL792 
 PHE793  MET794  SER795  GLU796  ALA797  LYS798  CYS799  TRP800  GLU811  SER814 

> <Gold.Protein.RotatedAtoms>
  150.6906  134.2126  159.4364 H   0  0  0  0  0  0  0  0  0  0  0  0  # atno 6907 bound_to 6896
  152.0087  134.9886  160.0576 H   0  0  0  0  0  0  0  0  0  0  0  0  # atno 6908 bound_to 6896
  152.1510  133.4487  159.4850 H   0  0  0  0  0  0  0  0  0  0  0  0  # atno 6909 bound_to 6896
  145.4689  140.9560  143.1928 H   0  0  0  0  0  0  0  0  0  0  0  0  # atno 7974 bound_to 7965
  155.0529  140.3182  155.4686 H   0  0  0  0  0  0  0  0  0  0  0  0  # atno 8008 bound_to 7997
  156.2830  140.2142  156.5599 H   0  0  0  0  0  0  0  0  0  0  0  0  # atno 8009 bound_to 7997
  154.7195  140.0491  157.0614 H   0  0  0  0  0  0  0  0  0  0  0  0  # atno 8010 bound_to 7997
  140.7084  143.5871  150.8931 H   0  0  0  0  0  0  0  0  0  0  0  0  # atno 10167 bound_to 10162
  157.1776  130.6788  149.6101 H   0  0  0  0  0  0  0  0  0  0  0  0  # atno 10718 bound_to 10713
  153.1269  135.6732  153.9242 H   0  0  0  0  0  0  0  0  0  0  0  0  # atno 10763 bound_to 10752
  153.8740  135.3066  155.3444 H   0  0  0  0  0  0  0  0  0  0  0  0  # atno 10764 bound_to 10752
  154.7673  135.4957  153.9660 H   0  0  0  0  0  0  0  0  0  0  0  0  # atno 10765 bound_to 10752
  140.2966  134.2804  155.7763 H   0  0  0  0  0  0  0  0  0  0  0  0  # atno 11005 bound_to 11000
  144.7957  139.6238  143.7093 LP  0  0  0  0  0  0  0  0  0  0  0  0  # atno 17320 bound_to 7965
  146.2408  139.5998  142.9492 LP  0  0  0  0  0  0  0  0  0  0  0  0  # atno 17321 bound_to 7965
  139.9597  143.6178  152.3006 LP  0  0  0  0  0  0  0  0  0  0  0  0  # atno 17342 bound_to 10162
  139.6726  144.7660  151.1755 LP  0  0  0  0  0  0  0  0  0  0  0  0  # atno 17343 bound_to 10162
  155.9729  130.4658  150.6265 LP  0  0  0  0  0  0  0  0  0  0  0  0  # atno 17370 bound_to 10713
  157.3984  131.0806  151.1331 LP  0  0  0  0  0  0  0  0  0  0  0  0  # atno 17371 bound_to 10713
  141.2136  133.7619  156.9705 LP  0  0  0  0  0  0  0  0  0  0  0  0  # atno 17394 bound_to 11000
  140.1147  134.9455  157.2116 LP  0  0  0  0  0  0  0  0  0  0  0  0  # atno 17395 bound_to 11000

$$$$
