AV-unprocessed.smi:1082|AV-procd|sdf|4714|dock3
  -GOLD-   22720 3243D 1   1.00000     0.00000
 Structure written by MMmdl.
 48 50  0  0  0  0  0  0  0  0  4 V2000
  153.1465  138.4563  156.1866 O   0  0  0  0  0  0  0  0  0  0  0  0
  152.0001  138.1050  155.8854 C   0  0  0  0  0  0  0  0  0  0  0  0
  151.6015  136.9095  155.3757 N   0  5  0  0  0  0  0  0  0  0  0  0
  150.2484  136.3609  155.4937 C   0  0  0  0  0  0  0  0  0  0  0  0
  150.2331  134.8959  155.0112 C   0  0  0  0  0  0  0  0  0  0  0  0
  148.9707  134.5283  154.3150 N   0  3  0  0  0  0  0  0  0  0  0  0
  148.9868  133.1881  153.6814 C   0  0  0  0  0  0  0  0  0  0  0  0
  147.5964  132.5730  153.8940 C   0  0  0  0  0  0  0  0  0  0  0  0
  146.7295  133.7273  154.3866 C   0  0  0  0  0  0  0  0  0  0  0  0
  147.7283  134.6175  155.1169 C   0  0  0  0  0  0  0  0  0  0  0  0
  150.9723  138.9571  156.0390 N   0  0  0  0  0  0  0  0  0  0  0  0
  151.0180  140.3162  156.4541 C   0  0  0  0  0  0  0  0  0  0  0  0
  151.9228  140.7342  157.4620 C   0  0  0  0  0  0  0  0  0  0  0  0
  151.9032  142.0671  157.9137 C   0  0  0  0  0  0  0  0  0  0  0  0
  150.9659  142.9575  157.3621 C   0  0  0  0  0  0  0  0  0  0  0  0
  150.1083  142.5246  156.4147 N   0  3  0  0  0  0  0  0  0  0  0  0
  150.0877  141.2582  155.9280 C   0  0  0  0  0  0  0  0  0  0  0  0
  149.1390  140.9506  154.9261 N   0  0  0  0  0  0  0  0  0  0  0  0
  148.4163  142.0363  154.2698 C   0  0  0  0  0  0  0  0  0  0  0  0
  147.0068  141.5060  153.9857 C   0  0  0  0  0  0  0  0  0  0  0  0
  147.1781  139.9899  154.0095 C   0  0  0  0  0  0  0  0  0  0  0  0
  148.2577  139.7982  155.0713 C   0  0  0  0  0  0  0  0  0  0  0  0
  149.8977  136.3945  156.5251 H   0  0  0  0  0  0  0  0  0  0  0  0
  149.5153  136.9237  154.9145 H   0  0  0  0  0  0  0  0  0  0  0  0
  151.0696  134.7594  154.3237 H   0  0  0  0  0  0  0  0  0  0  0  0
  150.4116  134.2149  155.8440 H   0  0  0  0  0  0  0  0  0  0  0  0
  149.2147  133.3026  152.6213 H   0  0  0  0  0  0  0  0  0  0  0  0
  149.7510  132.5427  154.1171 H   0  0  0  0  0  0  0  0  0  0  0  0
  147.1995  132.1090  152.9906 H   0  0  0  0  0  0  0  0  0  0  0  0
  147.6516  131.8029  154.6645 H   0  0  0  0  0  0  0  0  0  0  0  0
  146.3070  134.2643  153.5361 H   0  0  0  0  0  0  0  0  0  0  0  0
  145.9067  133.4006  155.0231 H   0  0  0  0  0  0  0  0  0  0  0  0
  147.9037  134.2257  156.1202 H   0  0  0  0  0  0  0  0  0  0  0  0
  147.3745  135.6449  155.2105 H   0  0  0  0  0  0  0  0  0  0  0  0
  150.0854  138.6372  155.6781 H   0  0  0  0  0  0  0  0  0  0  0  0
  152.6193  140.0400  157.9085 H   0  0  0  0  0  0  0  0  0  0  0  0
  152.5892  142.3961  158.6804 H   0  0  0  0  0  0  0  0  0  0  0  0
  150.8725  143.9945  157.6505 H   0  0  0  0  0  0  0  0  0  0  0  0
  148.3842  142.9392  154.8816 H   0  0  0  0  0  0  0  0  0  0  0  0
  148.9196  142.2784  153.3332 H   0  0  0  0  0  0  0  0  0  0  0  0
  146.3322  141.8100  154.7874 H   0  0  0  0  0  0  0  0  0  0  0  0
  146.5974  141.8749  153.0447 H   0  0  0  0  0  0  0  0  0  0  0  0
  146.2547  139.4576  154.2395 H   0  0  0  0  0  0  0  0  0  0  0  0
  147.5400  139.6417  153.0408 H   0  0  0  0  0  0  0  0  0  0  0  0
  148.7991  138.8615  154.9340 H   0  0  0  0  0  0  0  0  0  0  0  0
  147.8007  139.7914  156.0618 H   0  0  0  0  0  0  0  0  0  0  0  0
  148.8697  135.1877  153.5558 H   0  0  0  0  0  0  0  0  0  0  0  0
  149.4391  143.1939  156.0347 H   0  0  0  0  0  0  0  0  0  0  0  0
  1  2  2  0  0  0  0
  2  3  1  0  0  0  0
  2 11  1  0  0  0  0
  3  4  1  0  0  0  0
  4  5  1  0  0  0  0
  4 23  1  0  0  0  0
  4 24  1  0  0  0  0
  5  6  1  0  0  0  0
  5 25  1  0  0  0  0
  5 26  1  0  0  0  0
  6 10  1  0  0  0  0
  6  7  1  0  0  0  0
  6 47  1  0  0  0  0
  7  8  1  0  0  0  0
  7 27  1  0  0  0  0
  7 28  1  0  0  0  0
  8  9  1  0  0  0  0
  8 29  1  0  0  0  0
  8 30  1  0  0  0  0
  9 10  1  0  0  0  0
  9 31  1  0  0  0  0
  9 32  1  0  0  0  0
 10 33  1  0  0  0  0
 10 34  1  0  0  0  0
 11 12  1  0  0  0  0
 11 35  1  0  0  0  0
 12 17  1  0  0  0  0
 12 13  2  0  0  0  0
 13 14  1  0  0  0  0
 13 36  1  0  0  0  0
 14 15  2  0  0  0  0
 14 37  1  0  0  0  0
 15 16  1  0  0  0  0
 15 38  1  0  0  0  0
 16 17  2  0  0  0  0
 16 48  1  0  0  0  0
 17 18  1  0  0  0  0
 18 22  1  0  0  0  0
 18 19  1  0  0  0  0
 19 20  1  0  0  0  0
 19 39  1  0  0  0  0
 19 40  1  0  0  0  0
 20 21  1  0  0  0  0
 20 41  1  0  0  0  0
 20 42  1  0  0  0  0
 21 22  1  0  0  0  0
 21 43  1  0  0  0  0
 21 44  1  0  0  0  0
 22 45  1  0  0  0  0
 22 46  1  0  0  0  0
M  CHG  1   3  -1
M  CHG  1   6   1
M  CHG  1  16   1
M  END
> <s_m_source_file>
AV-unprocessed.smi

> <i_m_source_file_index>
1082

> <i_lp_mmshare_version>
43012

> <i_f3d_flags>
0

> <s_epik_input>
W0NIMl0xW0NIMl1bQ0gyXVtDSDJdTjFbQ0gyXVtDSDJdW05IXUMoPU8pW05IXWMyW2NIXVtjSF1bY0hdbmMyTjNbQ0gyXVtDSDJdW0NIMl1bQ0gyXTM=

> <s_epik_cmdline>
J2VwaWtfcHl0aG9uJywgJy1waCcsICc3LjAnLCAnLXRuJywgJzgnLCAnLW1hJywgJzIwMCcsICctbWV0YWxfYmluZGluZycsICctaW1hZScsICc8aW5maWxlLm1hZT4nLCAnLW9tYWUnLCAnPG91dGZpbGUubWFlPic=

> <r_lp_tautomer_probability>
0.999994

> <r_epik_Ionization_Penalty>
8.55934

> <r_epik_Ionization_Penalty_Charging>
8.55934

> <r_epik_Ionization_Penalty_Neutral>
3.77642e-06

> <r_epik_State_Penalty>
8.06887

> <r_epik_Charging_Adjusted_Penalty>
16.6282

> <i_epik_Tot_Q>
1

> <i_epik_Tot_abs_Q>
3

> <r_epik_Metal_State_Penalty>
4.05607

> <b_epik_Metal_Only>
1

> <s_lp_Force_Field>
OPLS_2005

> <r_lp_Energy>
53.4939

> <b_lp_Chiralities_Consistent>
1

> <s_lp_Variant>
AV-unprocessed.smi:1082-3

> <Gold.Version>
5.8.1

> <Gold.Id.Protein>
6NUR|6NUR_protein|mol2

> <Gold.PLP.Fitness>
53.2713

> <Gold.PLP.PLP>
-33.5447

> <Gold.PLP.part.hbond>
-4.0000

> <Gold.PLP.part.metal>
0.0000

> <Gold.PLP.part.buried>
-2.6767

> <Gold.PLP.part.nonpolar>
-26.8603

> <Gold.PLP.part.repulsive>
0.3706

> <Gold.PLP.ligand.clash>
0.0041

> <Gold.PLP.ligand.torsion>
0.8850

> <Gold.PLP.Chemscore.Hbond>
6.9440

> <Gold.PLP.Chemscore.CHOScore>
0.0000

> <Gold.PLP.Chemscore.Metal>
0.0000

> <Gold.Chemscore.Hbonds>
donor molecule, donor type, donor heavy atom, donor atom, acceptor molecule, acceptor atom, score
      L1  H     6    47       P1  7948  2.00
      L1  H    16    48       P1  8028  2.00
      P1  H  7997  8010       L1     1  0.95
      P1  H 10752 10763       L1     3  1.85

> <Gold.PLP.Chemscore.Internal.Correction>
0.6686

> <Gold.Rescore>
     Score         DG    S(hbond)    S(metal)    S(lipo)     H(rot)  DE(clash)    DE(int)     intcor
     17.59     -21.97       3.28        0.00      82.22       1.60       0.99       3.39       ----

> <Gold.Chemscore.Fitness>
17.5873

> <Gold.Chemscore.DG>
-21.9669

> <Gold.Chemscore.ZeroCoef>
-5.4800

> <Gold.Chemscore.Hbond>
3.2823

> <Gold.Chemscore.Metal>
0.0000

> <Gold.Chemscore.Lipo>
82.2193

> <Gold.Chemscore.Internal_Hbond>
0.0000

> <Gold.Chemscore.DEClash>
0.9877

> <Gold.Chemscore.DEInternal>
3.3919

> <Gold.Chemscore.Rot>
1.5998

> <Gold.Chemscore.Internal.Correction>
   9.000000E+99

> <Gold.Chemscore.Hbonds>
donor molecule, donor type, donor heavy atom, donor atom, acceptor molecule, acceptor atom, score
      L1  H     6    47       P1  7948  0.64
      L1  H    16    48       P1  8028  0.98
      P1  H  7997  8010       L1     1  0.86
      P1  H 10752 10763       L1     3  0.74

> <Gold.Chemscore.Hbond.Weighted>
-10.9628

> <Gold.Chemscore.Metal.Weighted>
-0.0000

> <Gold.Chemscore.Lipo.Weighted>
-9.6197

> <Gold.Chemscore.Internal_Hbond.Weighted>
0.0000

> <Gold.Chemscore.DEClash.Weighted>
0.9877

> <Gold.Chemscore.DEInternal.Weighted>
3.3919

> <Gold.Chemscore.Rot.Weighted>
4.0956

> <Gold.Chemscore.Internal.Correction.Weighted>
   9.000000E+99

> <Gold.Protein.RotatedTorsions>
[ 6907 6896 6895 6894 ] final  -28.13 input  -60.11 | X-H torsion
[ 7974 7965 7964 7962 ] final  179.43 input  175.53 | X-H torsion
[ 8008 7997 7996 7995 ] final   71.73 input   59.86 | X-H torsion
[ 10167 10162 10161 10158 ] final -168.57 input  -65.29 | X-H torsion
[ 10718 10713 10712 10709 ] final  108.06 input   66.30 | X-H torsion
[ 10763 10752 10751 10750 ] final   80.14 input  -60.55 | X-H torsion
[ 11005 11000 10999 10996 ] final   14.10 input  -57.11 | X-H torsion

> <Gold.Protein.ActiveResidues>
 VAL166  LYS551  ARG553  GLY616  TRP617  ASP618  TYR619  PRO620  LYS621  CYS622 
 ASP623  PHE694  ASN695  SER759  ASP760  ASP761  ALA762  ILE779  LEU786  VAL792 
 PHE793  MET794  SER795  GLU796  ALA797  LYS798  CYS799  TRP800  GLU811  SER814 

> <Gold.Protein.RotatedAtoms>
  151.1372  135.0161  159.8609 H   0  0  0  0  0  0  0  0  0  0  0  0  # atno 6907 bound_to 6896
  152.5452  134.1541  159.8541 H   0  0  0  0  0  0  0  0  0  0  0  0  # atno 6908 bound_to 6896
  151.1613  133.4798  159.2627 H   0  0  0  0  0  0  0  0  0  0  0  0  # atno 6909 bound_to 6896
  144.7146  140.0547  143.6434 H   0  0  0  0  0  0  0  0  0  0  0  0  # atno 7974 bound_to 7965
  155.7582  140.3487  155.5184 H   0  0  0  0  0  0  0  0  0  0  0  0  # atno 8008 bound_to 7997
  155.8939  140.1022  157.1419 H   0  0  0  0  0  0  0  0  0  0  0  0  # atno 8009 bound_to 7997
  154.4036  140.1299  156.4338 H   0  0  0  0  0  0  0  0  0  0  0  0  # atno 8010 bound_to 7997
  139.5977  144.1077  152.1708 H   0  0  0  0  0  0  0  0  0  0  0  0  # atno 10167 bound_to 10162
  157.6602  131.0886  150.6249 H   0  0  0  0  0  0  0  0  0  0  0  0  # atno 10718 bound_to 10713
  153.1009  135.4814  154.8865 H   0  0  0  0  0  0  0  0  0  0  0  0  # atno 10763 bound_to 10752
  154.7377  135.3075  154.8785 H   0  0  0  0  0  0  0  0  0  0  0  0  # atno 10764 bound_to 10752
  153.9402  135.6835  153.4798 H   0  0  0  0  0  0  0  0  0  0  0  0  # atno 10765 bound_to 10752
  140.4733  134.1009  155.7737 H   0  0  0  0  0  0  0  0  0  0  0  0  # atno 11005 bound_to 11000
  145.9915  139.3018  143.0982 LP  0  0  0  0  0  0  0  0  0  0  0  0  # atno 17320 bound_to 7965
  145.8898  140.9311  143.0558 LP  0  0  0  0  0  0  0  0  0  0  0  0  # atno 17321 bound_to 7965
  140.0666  144.5813  150.7223 LP  0  0  0  0  0  0  0  0  0  0  0  0  # atno 17342 bound_to 10162
  140.7225  143.2603  151.4231 LP  0  0  0  0  0  0  0  0  0  0  0  0  # atno 17343 bound_to 10162
  156.6553  130.4496  149.5706 LP  0  0  0  0  0  0  0  0  0  0  0  0  # atno 17370 bound_to 10713
  156.2107  130.6677  151.1267 LP  0  0  0  0  0  0  0  0  0  0  0  0  # atno 17371 bound_to 10713
  141.1566  133.8871  157.1960 LP  0  0  0  0  0  0  0  0  0  0  0  0  # atno 17394 bound_to 11000
  139.9871  135.0078  156.9889 LP  0  0  0  0  0  0  0  0  0  0  0  0  # atno 17395 bound_to 11000

$$$$
