AV-unprocessed.smi:623|AV-procd|sdf|3098|dock5
  -GOLD-   22720 0 13D 1   1.00000     0.00000
 Structure written by MMmdl.
 44 46  0  0  0  0  0  0  0  0  2 V2000
  143.0644  136.2729  152.6490 C   0  0  0  0  0  0  0  0  0  0  0  0
  144.0287  135.1311  152.2199 C   0  0  0  0  0  0  0  0  0  0  0  0
  143.1222  133.8914  151.9811 C   0  0  0  0  0  0  0  0  0  0  0  0
  144.9376  135.4880  151.0263 C   0  0  1  0  0  0  0  0  0  0  0  0
  145.8075  136.6460  151.5626 C   0  0  0  0  0  0  0  0  0  0  0  0
  146.0050  136.2583  153.0410 C   0  0  0  0  0  0  0  0  0  0  0  0
  145.2559  134.8997  153.1434 C   0  0  1  0  0  0  0  0  0  0  0  0
  144.9405  134.4936  154.5929 C   0  0  0  0  0  0  0  0  0  0  0  0
  146.0770  133.8267  152.3645 C   0  0  2  0  0  0  0  0  0  0  0  0
  147.4894  133.7819  152.7409 N   0  0  0  0  0  0  0  0  0  0  0  0
  148.0533  132.8459  153.5180 C   0  0  0  0  0  0  0  0  0  0  0  0
  147.4259  131.8976  153.9920 O   0  0  0  0  0  0  0  0  0  0  0  0
  149.5606  133.0019  153.7636 C   0  0  0  0  0  0  0  0  0  0  0  0
  149.8783  133.7770  154.9738 N   0  0  0  0  0  0  0  0  0  0  0  0
  149.5732  135.1493  154.9672 C   0  0  0  0  0  0  0  0  0  0  0  0
  149.8314  135.9398  156.0263 C   0  0  0  0  0  0  0  0  0  0  0  0
  150.4444  135.3375  157.2036 C   0  0  0  0  0  0  0  0  0  0  0  0
  150.6827  136.0432  158.1818 O   0  0  0  0  0  0  0  0  0  0  0  0
  150.7261  134.0024  157.1597 N   0  5  0  0  0  0  0  0  0  0  0  0
  150.4613  133.2114  156.0737 C   0  0  0  0  0  0  0  0  0  0  0  0
  150.7279  132.0093  156.0533 O   0  0  0  0  0  0  0  0  0  0  0  0
  145.8634  134.2588  150.8927 C   0  0  0  0  0  0  0  0  0  0  0  0
  142.3188  136.4552  151.8746 H   0  0  0  0  0  0  0  0  0  0  0  0
  143.5396  137.2313  152.8457 H   0  0  0  0  0  0  0  0  0  0  0  0
  142.5229  136.0025  153.5558 H   0  0  0  0  0  0  0  0  0  0  0  0
  143.6426  132.9910  151.6632 H   0  0  0  0  0  0  0  0  0  0  0  0
  142.3799  134.1032  151.2108 H   0  0  0  0  0  0  0  0  0  0  0  0
  142.5763  133.6303  152.8881 H   0  0  0  0  0  0  0  0  0  0  0  0
  144.4119  135.7339  150.1032 H   0  0  0  0  0  0  0  0  0  0  0  0
  146.7556  136.7320  151.0302 H   0  0  0  0  0  0  0  0  0  0  0  0
  145.3008  137.6067  151.4696 H   0  0  0  0  0  0  0  0  0  0  0  0
  147.0583  136.2061  153.3151 H   0  0  0  0  0  0  0  0  0  0  0  0
  145.5655  137.0072  153.6999 H   0  0  0  0  0  0  0  0  0  0  0  0
  145.8566  134.3642  155.1697 H   0  0  0  0  0  0  0  0  0  0  0  0
  144.3918  133.5525  154.6313 H   0  0  0  0  0  0  0  0  0  0  0  0
  144.3390  135.2505  155.0964 H   0  0  0  0  0  0  0  0  0  0  0  0
  145.6567  132.8342  152.5334 H   0  0  0  0  0  0  0  0  0  0  0  0
  148.0771  134.5263  152.3949 H   0  0  0  0  0  0  0  0  0  0  0  0
  149.9987  132.0050  153.8281 H   0  0  0  0  0  0  0  0  0  0  0  0
  150.0249  133.4613  152.8889 H   0  0  0  0  0  0  0  0  0  0  0  0
  149.1277  135.5165  154.0543 H   0  0  0  0  0  0  0  0  0  0  0  0
  149.5936  136.9931  156.0036 H   0  0  0  0  0  0  0  0  0  0  0  0
  145.3912  133.4628  150.3168 H   0  0  0  0  0  0  0  0  0  0  0  0
  146.7931  134.5061  150.3780 H   0  0  0  0  0  0  0  0  0  0  0  0
  1  2  1  0  0  0  0
  1 23  1  0  0  0  0
  1 24  1  0  0  0  0
  1 25  1  0  0  0  0
  2  7  1  0  0  0  0
  2  3  1  0  0  0  0
  2  4  1  0  0  0  0
  3 26  1  0  0  0  0
  3 27  1  0  0  0  0
  3 28  1  0  0  0  0
  4 22  1  0  0  0  0
  4  5  1  0  0  0  0
  4 29  1  0  0  0  0
  5  6  1  0  0  0  0
  5 30  1  0  0  0  0
  5 31  1  0  0  0  0
  6  7  1  0  0  0  0
  6 32  1  0  0  0  0
  6 33  1  0  0  0  0
  7  8  1  0  0  0  0
  7  9  1  0  0  0  0
  8 34  1  0  0  0  0
  8 35  1  0  0  0  0
  8 36  1  0  0  0  0
  9 10  1  0  0  0  0
  9 22  1  0  0  0  0
  9 37  1  0  0  0  0
 10 11  1  0  0  0  0
 10 38  1  0  0  0  0
 11 12  2  0  0  0  0
 11 13  1  0  0  0  0
 13 14  1  0  0  0  0
 13 39  1  0  0  0  0
 13 40  1  0  0  0  0
 14 20  1  0  0  0  0
 14 15  1  0  0  0  0
 15 16  2  0  0  0  0
 15 41  1  0  0  0  0
 16 17  1  0  0  0  0
 16 42  1  0  0  0  0
 17 18  2  0  0  0  0
 17 19  1  0  0  0  0
 19 20  1  0  0  0  0
 20 21  2  0  0  0  0
 22 43  1  0  0  0  0
 22 44  1  0  0  0  0
M  CHG  1  19  -1
M  END
> <s_m_source_file>
AV-unprocessed.smi

> <i_m_source_file_index>
623

> <i_lp_mmshare_version>
43012

> <i_f3d_flags>
0

> <s_epik_input>
W0NIM11bQ0BdMTJDKFtDSDNdKShbQ0gzXSlbQ0BIXShbQ0gyXVtDSDJdMSlbQ0gyXVtDQEBIXTJbTkhdQyg9TylbQ0gyXW4zW2NIXVtjSF1jKD1PKVtuSF1jMz1P

> <s_epik_cmdline>
J2VwaWtfcHl0aG9uJywgJy1waCcsICc3LjAnLCAnLXRuJywgJzgnLCAnLW1hJywgJzIwMCcsICctbWV0YWxfYmluZGluZycsICctaW1hZScsICc8aW5maWxlLm1hZT4nLCAnLW9tYWUnLCAnPG91dGZpbGUubWFlPic=

> <r_lp_tautomer_probability>
0.999537

> <r_epik_Ionization_Penalty>
3.12624

> <r_epik_Ionization_Penalty_Charging>
3.01273e-08

> <r_epik_Ionization_Penalty_Neutral>
3.12624

> <r_epik_State_Penalty>
3.12534

> <r_epik_Charging_Adjusted_Penalty>
3.12534

> <i_epik_Tot_Q>
-1

> <i_epik_Tot_abs_Q>
1

> <r_epik_Metal_State_Penalty>
0.46406

> <b_epik_Metal_Only>
1

> <s_lp_Force_Field>
OPLS_2005

> <r_lp_Energy>
65.8638

> <b_lp_Chiralities_Consistent>
1

> <s_lp_Variant>
AV-unprocessed.smi:623-8

> <Gold.Version>
5.8.1

> <Gold.Id.Protein>
6NUR|6NUR_protein|mol2

> <Gold.PLP.Fitness>
40.5171

> <Gold.PLP.PLP>
-30.5792

> <Gold.PLP.part.hbond>
-3.0000

> <Gold.PLP.part.metal>
0.0000

> <Gold.PLP.part.buried>
-2.9549

> <Gold.PLP.part.nonpolar>
-25.9307

> <Gold.PLP.part.repulsive>
0.0577

> <Gold.PLP.ligand.clash>
0.0000

> <Gold.PLP.ligand.torsion>
0.6856

> <Gold.PLP.Chemscore.Hbond>
2.7656

> <Gold.PLP.Chemscore.CHOScore>
1.0000

> <Gold.PLP.Chemscore.Metal>
0.0000

> <Gold.Chemscore.Hbonds>
donor molecule, donor type, donor heavy atom, donor atom, acceptor molecule, acceptor atom, score
      L1  H    10    38       P1  7948  1.00
      P1  H  6896  6907       L1    19  0.94
      P1  H  6896  6908       L1    18  0.51
      L1  C    15    41       P1  7948  1.00

> <Gold.PLP.Chemscore.Internal.Correction>
0.0123

> <Gold.Rescore>
     Score         DG    S(hbond)    S(metal)    S(lipo)     H(rot)  DE(clash)    DE(int)     intcor
     12.31     -13.01       1.48        0.00      57.94       1.63       0.06       0.64       ----

> <Gold.Chemscore.Fitness>
12.3115

> <Gold.Chemscore.DG>
-13.0108

> <Gold.Chemscore.ZeroCoef>
-5.4800

> <Gold.Chemscore.Hbond>
1.4761

> <Gold.Chemscore.Metal>
0.0000

> <Gold.Chemscore.Lipo>
57.9390

> <Gold.Chemscore.Internal_Hbond>
0.0000

> <Gold.Chemscore.DEClash>
0.0629

> <Gold.Chemscore.DEInternal>
0.6363

> <Gold.Chemscore.Rot>
1.6322

> <Gold.Chemscore.Internal.Correction>
   9.000000E+99

> <Gold.Chemscore.Hbonds>
donor molecule, donor type, donor heavy atom, donor atom, acceptor molecule, acceptor atom, score
      L1  H    10    38       P1  7948  0.30
      P1  H  6896  6907       L1    19  0.16
      P1  H  6896  6908       L1    18  0.47

> <Gold.Chemscore.Hbond.Weighted>
-4.9302

> <Gold.Chemscore.Metal.Weighted>
-0.0000

> <Gold.Chemscore.Lipo.Weighted>
-6.7789

> <Gold.Chemscore.Internal_Hbond.Weighted>
0.0000

> <Gold.Chemscore.DEClash.Weighted>
0.0629

> <Gold.Chemscore.DEInternal.Weighted>
0.6363

> <Gold.Chemscore.Rot.Weighted>
4.1783

> <Gold.Chemscore.Internal.Correction.Weighted>
   9.000000E+99

> <Gold.Protein.RotatedTorsions>
[ 6907 6896 6895 6894 ] final -140.94 input  -60.11 | X-H torsion
[ 7974 7965 7964 7962 ] final -124.13 input  175.53 | X-H torsion
[ 8008 7997 7996 7995 ] final  -50.18 input   59.86 | X-H torsion
[ 10167 10162 10161 10158 ] final -113.61 input  -65.29 | X-H torsion
[ 10718 10713 10712 10709 ] final  128.40 input   66.30 | X-H torsion
[ 10763 10752 10751 10750 ] final -160.21 input  -60.55 | X-H torsion
[ 11005 11000 10999 10996 ] final   50.30 input  -57.11 | X-H torsion

> <Gold.Protein.ActiveResidues>
 VAL166  LYS551  ARG553  GLY616  TRP617  ASP618  TYR619  PRO620  LYS621  CYS622 
 ASP623  PHE694  ASN695  SER759  ASP760  ASP761  ALA762  ILE779  LEU786  VAL792 
 PHE793  MET794  SER795  GLU796  ALA797  LYS798  CYS799  TRP800  GLU811  SER814 

> <Gold.Protein.RotatedAtoms>
  151.0673  133.5495  159.2629 H   0  0  0  0  0  0  0  0  0  0  0  0  # atno 6907 bound_to 6896
  151.2447  135.0600  159.9048 H   0  0  0  0  0  0  0  0  0  0  0  0  # atno 6908 bound_to 6896
  152.5406  134.0443  159.8135 H   0  0  0  0  0  0  0  0  0  0  0  0  # atno 6909 bound_to 6896
  145.0114  140.7908  143.4436 H   0  0  0  0  0  0  0  0  0  0  0  0  # atno 7974 bound_to 7965
  154.4057  140.1278  156.4623 H   0  0  0  0  0  0  0  0  0  0  0  0  # atno 8008 bound_to 7997
  155.7260  140.3492  155.5018 H   0  0  0  0  0  0  0  0  0  0  0  0  # atno 8009 bound_to 7997
  155.9170  140.1046  157.1226 H   0  0  0  0  0  0  0  0  0  0  0  0  # atno 8010 bound_to 7997
  140.1099  143.4536  152.1759 H   0  0  0  0  0  0  0  0  0  0  0  0  # atno 10167 bound_to 10162
  157.5247  131.1098  150.9100 H   0  0  0  0  0  0  0  0  0  0  0  0  # atno 10718 bound_to 10713
  154.7410  135.3068  154.8728 H   0  0  0  0  0  0  0  0  0  0  0  0  # atno 10763 bound_to 10752
  153.9543  135.6760  153.4748 H   0  0  0  0  0  0  0  0  0  0  0  0  # atno 10764 bound_to 10752
  153.1009  135.4912  154.8789 H   0  0  0  0  0  0  0  0  0  0  0  0  # atno 10765 bound_to 10752
  140.1029  134.5057  155.8746 H   0  0  0  0  0  0  0  0  0  0  0  0  # atno 11005 bound_to 11000
  145.2019  139.2248  143.5188 LP  0  0  0  0  0  0  0  0  0  0  0  0  # atno 17320 bound_to 7965
  146.3470  140.1838  142.8589 LP  0  0  0  0  0  0  0  0  0  0  0  0  # atno 17321 bound_to 7965
  139.5625  144.7414  151.4116 LP  0  0  0  0  0  0  0  0  0  0  0  0  # atno 17342 bound_to 10162
  140.6931  143.7814  150.7285 LP  0  0  0  0  0  0  0  0  0  0  0  0  # atno 17343 bound_to 10162
  156.9700  130.5487  149.5290 LP  0  0  0  0  0  0  0  0  0  0  0  0  # atno 17370 bound_to 10713
  156.0379  130.5464  150.8698 LP  0  0  0  0  0  0  0  0  0  0  0  0  # atno 17371 bound_to 10713
  141.2110  133.6702  156.6554 LP  0  0  0  0  0  0  0  0  0  0  0  0  # atno 17394 bound_to 11000
  140.3195  134.8020  157.4241 LP  0  0  0  0  0  0  0  0  0  0  0  0  # atno 17395 bound_to 11000

$$$$
