AV-unprocessed.smi:3013|AV-procd|sdf|11465|dock4
  -GOLD-   2272016403D 1   1.00000     0.00000
 Structure written by MMmdl.
 45 46  0  0  0  0  0  0  0  0  2 V2000
  145.3578  135.7780  153.7734 C   0  0  0  0  0  0  0  0  0  0  0  0
  145.0615  135.8777  152.2653 C   0  0  1  0  0  0  0  0  0  0  0  0
  145.9796  136.8933  151.5425 C   0  0  0  0  0  0  0  0  0  0  0  0
  146.2053  138.1972  152.3316 C   0  0  0  0  0  0  0  0  0  0  0  0
  147.6243  138.5065  152.4683 N   0  0  0  0  0  0  0  0  0  0  0  0
  148.2967  138.5295  153.6284 C   0  0  0  0  0  0  0  0  0  0  0  0
  147.7798  138.2744  154.7165 O   0  0  0  0  0  0  0  0  0  0  0  0
  149.5851  138.8620  153.4403 N   0  0  0  0  0  0  0  0  0  0  0  0
  150.6047  138.9830  154.4225 C   0  0  0  0  0  0  0  0  0  0  0  0
  151.1897  140.1123  154.8090 N   0  0  0  0  0  0  0  0  0  0  0  0
  152.0524  139.6139  155.7433 C   0  0  0  0  0  0  0  0  0  0  0  0
  152.0137  138.2942  155.9298 N   0  0  0  0  0  0  0  0  0  0  0  0
  151.0594  137.8976  155.0553 N   0  0  0  0  0  0  0  0  0  0  0  0
  150.6929  136.5002  154.9329 C   0  0  0  0  0  0  0  0  0  0  0  0
  145.0839  134.5211  151.6426 N   0  3  0  0  0  0  0  0  0  0  0  0
  146.3929  133.8135  151.7053 C   0  0  0  0  0  0  0  0  0  0  0  0
  146.2435  132.3484  151.2628 C   0  0  0  0  0  0  0  0  0  0  0  0
  145.6417  132.2600  149.8537 C   0  0  0  0  0  0  0  0  0  0  0  0
  144.3163  133.0318  149.7974 C   0  0  0  0  0  0  0  0  0  0  0  0
  144.5001  134.4826  150.2748 C   0  0  0  0  0  0  0  0  0  0  0  0
  145.1465  136.7176  154.2835 H   0  0  0  0  0  0  0  0  0  0  0  0
  146.4005  135.5288  153.9697 H   0  0  0  0  0  0  0  0  0  0  0  0
  144.7381  135.0146  154.2447 H   0  0  0  0  0  0  0  0  0  0  0  0
  144.0360  136.2411  152.1852 H   0  0  0  0  0  0  0  0  0  0  0  0
  146.9437  136.4305  151.3291 H   0  0  0  0  0  0  0  0  0  0  0  0
  145.5486  137.1553  150.5761 H   0  0  0  0  0  0  0  0  0  0  0  0
  145.7274  139.0313  151.8172 H   0  0  0  0  0  0  0  0  0  0  0  0
  145.7523  138.1413  153.3221 H   0  0  0  0  0  0  0  0  0  0  0  0
  148.1257  138.7315  151.6214 H   0  0  0  0  0  0  0  0  0  0  0  0
  149.8702  139.0521  152.4910 H   0  0  0  0  0  0  0  0  0  0  0  0
  152.7291  140.2423  156.3033 H   0  0  0  0  0  0  0  0  0  0  0  0
  150.7857  136.1859  153.8927 H   0  0  0  0  0  0  0  0  0  0  0  0
  149.6608  136.3634  155.2562 H   0  0  0  0  0  0  0  0  0  0  0  0
  151.3433  135.8776  155.5489 H   0  0  0  0  0  0  0  0  0  0  0  0
  147.1202  134.3134  151.0642 H   0  0  0  0  0  0  0  0  0  0  0  0
  146.7916  133.8397  152.7189 H   0  0  0  0  0  0  0  0  0  0  0  0
  147.2137  131.8513  151.2850 H   0  0  0  0  0  0  0  0  0  0  0  0
  145.6060  131.8150  151.9691 H   0  0  0  0  0  0  0  0  0  0  0  0
  146.3413  132.6751  149.1270 H   0  0  0  0  0  0  0  0  0  0  0  0
  145.4836  131.2177  149.5753 H   0  0  0  0  0  0  0  0  0  0  0  0
  143.9223  133.0209  148.7806 H   0  0  0  0  0  0  0  0  0  0  0  0
  143.5747  132.5320  150.4221 H   0  0  0  0  0  0  0  0  0  0  0  0
  143.5313  134.9834  150.2677 H   0  0  0  0  0  0  0  0  0  0  0  0
  145.1422  135.0233  149.5786 H   0  0  0  0  0  0  0  0  0  0  0  0
  144.4515  133.9707  152.2062 H   0  0  0  0  0  0  0  0  0  0  0  0
  1  2  1  0  0  0  0
  1 21  1  0  0  0  0
  1 22  1  0  0  0  0
  1 23  1  0  0  0  0
  2  3  1  0  0  0  0
  2 15  1  0  0  0  0
  2 24  1  0  0  0  0
  3  4  1  0  0  0  0
  3 25  1  0  0  0  0
  3 26  1  0  0  0  0
  4  5  1  0  0  0  0
  4 27  1  0  0  0  0
  4 28  1  0  0  0  0
  5  6  1  0  0  0  0
  5 29  1  0  0  0  0
  6  7  2  0  0  0  0
  6  8  1  0  0  0  0
  8  9  1  0  0  0  0
  8 30  1  0  0  0  0
  9 13  1  0  0  0  0
  9 10  2  0  0  0  0
 10 11  1  0  0  0  0
 11 12  2  0  0  0  0
 11 31  1  0  0  0  0
 12 13  1  0  0  0  0
 13 14  1  0  0  0  0
 14 32  1  0  0  0  0
 14 33  1  0  0  0  0
 14 34  1  0  0  0  0
 15 20  1  0  0  0  0
 15 16  1  0  0  0  0
 15 45  1  0  0  0  0
 16 17  1  0  0  0  0
 16 35  1  0  0  0  0
 16 36  1  0  0  0  0
 17 18  1  0  0  0  0
 17 37  1  0  0  0  0
 17 38  1  0  0  0  0
 18 19  1  0  0  0  0
 18 39  1  0  0  0  0
 18 40  1  0  0  0  0
 19 20  1  0  0  0  0
 19 41  1  0  0  0  0
 19 42  1  0  0  0  0
 20 43  1  0  0  0  0
 20 44  1  0  0  0  0
M  CHG  1  15   1
M  END
> <s_m_source_file>
AV-unprocessed.smi

> <i_m_source_file_index>
3013

> <i_lp_mmshare_version>
43012

> <i_f3d_flags>
0

> <s_epik_input>
W0NIMl0xW0NIMl1bQ0gyXVtDSDJdW0NIMl1OMVtDQEhdKFtDSDNdKVtDSDJdW0NIMl1bTkhdQyg9TylbTkhdYzJuW2NIXW5uMltDSDNd

> <s_epik_cmdline>
J2VwaWtfcHl0aG9uJywgJy1waCcsICc3LjAnLCAnLXRuJywgJzgnLCAnLW1hJywgJzIwMCcsICctbWV0YWxfYmluZGluZycsICctaW1hZScsICc8aW5maWxlLm1hZT4nLCAnLW9tYWUnLCAnPG91dGZpbGUubWFlPic=

> <r_lp_tautomer_probability>
1

> <r_epik_Ionization_Penalty>
0.000375855

> <r_epik_Ionization_Penalty_Charging>
0.000355659

> <r_epik_Ionization_Penalty_Neutral>
2.01955e-05

> <r_epik_State_Penalty>
0.000216264

> <r_epik_Charging_Adjusted_Penalty>
0.000571923

> <i_epik_Tot_Q>
1

> <i_epik_Tot_abs_Q>
1

> <r_epik_Metal_State_Penalty>
-0

> <b_epik_Metal_Only>
0

> <s_lp_Force_Field>
OPLS_2005

> <r_lp_Energy>
21.9092

> <b_lp_Chiralities_Consistent>
1

> <s_lp_Variant>
AV-unprocessed.smi:3013-2

> <Gold.Version>
5.8.1

> <Gold.Id.Protein>
6NUR|6NUR_protein|mol2

> <Gold.PLP.Fitness>
41.5607

> <Gold.PLP.PLP>
-35.5919

> <Gold.PLP.part.hbond>
-4.9264

> <Gold.PLP.part.metal>
0.0000

> <Gold.PLP.part.buried>
-0.3672

> <Gold.PLP.part.nonpolar>
-30.5862

> <Gold.PLP.part.repulsive>
0.3420

> <Gold.PLP.ligand.clash>
0.0000

> <Gold.PLP.ligand.torsion>
1.2047

> <Gold.PLP.Chemscore.Hbond>
2.7454

> <Gold.PLP.Chemscore.CHOScore>
0.0000

> <Gold.PLP.Chemscore.Metal>
0.0000

> <Gold.Chemscore.Hbonds>
donor molecule, donor type, donor heavy atom, donor atom, acceptor molecule, acceptor atom, score
      L1  H     5    29       P1  7957  0.72
      L1  H     8    30       P1  7957  0.91
      P1  H  7989  7998       L1    10  1.00

> <Gold.PLP.Chemscore.Internal.Correction>
0.1420

> <Gold.Rescore>
     Score         DG    S(hbond)    S(metal)    S(lipo)     H(rot)  DE(clash)    DE(int)     intcor
     14.12     -15.75       2.26        0.00      67.31       2.01       0.50       1.13       ----

> <Gold.Chemscore.Fitness>
14.1195

> <Gold.Chemscore.DG>
-15.7485

> <Gold.Chemscore.ZeroCoef>
-5.4800

> <Gold.Chemscore.Hbond>
2.2607

> <Gold.Chemscore.Metal>
0.0000

> <Gold.Chemscore.Lipo>
67.3140

> <Gold.Chemscore.Internal_Hbond>
0.0000

> <Gold.Chemscore.DEClash>
0.5013

> <Gold.Chemscore.DEInternal>
1.1277

> <Gold.Chemscore.Rot>
2.0148

> <Gold.Chemscore.Internal.Correction>
   9.000000E+99

> <Gold.Chemscore.Hbonds>
donor molecule, donor type, donor heavy atom, donor atom, acceptor molecule, acceptor atom, score
      L1  H     5    29       P1  7957  0.45
      L1  H     8    30       P1  7957  0.63
      P1  H  7989  7998       L1    10  0.58

> <Gold.Chemscore.Hbond.Weighted>
-7.5506

> <Gold.Chemscore.Metal.Weighted>
-0.0000

> <Gold.Chemscore.Lipo.Weighted>
-7.8757

> <Gold.Chemscore.Internal_Hbond.Weighted>
0.0000

> <Gold.Chemscore.DEClash.Weighted>
0.5013

> <Gold.Chemscore.DEInternal.Weighted>
1.1277

> <Gold.Chemscore.Rot.Weighted>
5.1579

> <Gold.Chemscore.Internal.Correction.Weighted>
   9.000000E+99

> <Gold.Protein.RotatedTorsions>
[ 6907 6896 6895 6894 ] final   60.38 input  -60.11 | X-H torsion
[ 7974 7965 7964 7962 ] final  -46.18 input  175.53 | X-H torsion
[ 8008 7997 7996 7995 ] final  -56.67 input   59.86 | X-H torsion
[ 10167 10162 10161 10158 ] final  -20.83 input  -65.29 | X-H torsion
[ 10718 10713 10712 10709 ] final  -92.58 input   66.30 | X-H torsion
[ 10763 10752 10751 10750 ] final  -98.47 input  -60.55 | X-H torsion
[ 11005 11000 10999 10996 ] final   41.12 input  -57.11 | X-H torsion

> <Gold.Protein.ActiveResidues>
 VAL166  LYS551  ARG553  GLY616  TRP617  ASP618  TYR619  PRO620  LYS621  CYS622 
 ASP623  PHE694  ASN695  SER759  ASP760  ASP761  ALA762  ILE779  LEU786  VAL792 
 PHE793  MET794  SER795  GLU796  ALA797  LYS798  CYS799  TRP800  GLU811  SER814 

> <Gold.Protein.RotatedAtoms>
  152.3998  134.6305  160.0074 H   0  0  0  0  0  0  0  0  0  0  0  0  # atno 6907 bound_to 6896
  151.6514  133.3315  159.3161 H   0  0  0  0  0  0  0  0  0  0  0  0  # atno 6908 bound_to 6896
  150.7900  134.6958  159.6567 H   0  0  0  0  0  0  0  0  0  0  0  0  # atno 6909 bound_to 6896
  145.9745  140.7348  142.9394 H   0  0  0  0  0  0  0  0  0  0  0  0  # atno 7974 bound_to 7965
  154.4239  140.1124  156.5674 H   0  0  0  0  0  0  0  0  0  0  0  0  # atno 8008 bound_to 7997
  155.6248  140.3495  155.4644 H   0  0  0  0  0  0  0  0  0  0  0  0  # atno 8009 bound_to 7997
  155.9996  140.1196  157.0550 H   0  0  0  0  0  0  0  0  0  0  0  0  # atno 8010 bound_to 7997
  140.7278  143.4686  151.0279 H   0  0  0  0  0  0  0  0  0  0  0  0  # atno 10167 bound_to 10162
  156.0004  130.4993  150.5647 H   0  0  0  0  0  0  0  0  0  0  0  0  # atno 10718 bound_to 10713
  154.7416  135.5008  153.9133 H   0  0  0  0  0  0  0  0  0  0  0  0  # atno 10763 bound_to 10752
  153.1049  135.6695  153.9612 H   0  0  0  0  0  0  0  0  0  0  0  0  # atno 10764 bound_to 10752
  153.9388  135.3070  155.3422 H   0  0  0  0  0  0  0  0  0  0  0  0  # atno 10765 bound_to 10752
  140.1865  134.4039  155.8170 H   0  0  0  0  0  0  0  0  0  0  0  0  # atno 11005 bound_to 11000
  144.6845  140.2805  143.7293 LP  0  0  0  0  0  0  0  0  0  0  0  0  # atno 17320 bound_to 7965
  145.7858  139.1908  143.2131 LP  0  0  0  0  0  0  0  0  0  0  0  0  # atno 17321 bound_to 7965
  139.8376  143.7607  152.3180 LP  0  0  0  0  0  0  0  0  0  0  0  0  # atno 17342 bound_to 10162
  139.7745  144.7465  151.0177 LP  0  0  0  0  0  0  0  0  0  0  0  0  # atno 17343 bound_to 10162
  157.3551  131.0740  151.1682 LP  0  0  0  0  0  0  0  0  0  0  0  0  # atno 17370 bound_to 10713
  157.2485  130.6603  149.5921 LP  0  0  0  0  0  0  0  0  0  0  0  0  # atno 17371 bound_to 10713
  141.2225  133.7025  156.8021 LP  0  0  0  0  0  0  0  0  0  0  0  0  # atno 17394 bound_to 11000
  140.2208  134.8758  157.3375 LP  0  0  0  0  0  0  0  0  0  0  0  0  # atno 17395 bound_to 11000

$$$$
