AV-unprocessed.smi:2391|AV-procd|sdf|9485|dock4
  -GOLD-   2272013113D 1   1.00000     0.00000
 Structure written by MMmdl.
 34 35  0  0  0  0  0  0  0  0  2 V2000
  151.1491  139.7791  158.5765 O   0  0  0  0  0  0  0  0  0  0  0  0
  152.2450  140.0441  158.0775 C   0  0  0  0  0  0  0  0  0  0  0  0
  152.7312  139.5618  156.9100 N   0  5  0  0  0  0  0  0  0  0  0  0
  151.8955  139.2208  155.9174 C   0  0  0  0  0  0  0  0  0  0  0  0
  151.8013  137.8756  155.4953 C   0  0  0  0  0  0  0  0  0  0  0  0
  150.9200  137.5627  154.4469 C   0  0  0  0  0  0  0  0  0  0  0  0
  150.1916  138.6235  153.8832 C   0  0  0  0  0  0  0  0  0  0  0  0
  150.3178  139.8979  154.3112 N   0  0  0  0  0  0  0  0  0  0  0  0
  151.1596  140.1863  155.3102 N   0  0  0  0  0  0  0  0  0  0  0  0
  153.0848  140.8804  158.7044 N   0  0  0  0  0  0  0  0  0  0  0  0
  152.8478  141.5664  159.9766 C   0  0  2  0  0  0  0  0  0  0  0  0
  152.9008  143.0971  159.7374 C   0  0  0  0  0  0  0  0  0  0  0  0
  152.1989  143.9499  160.8024 C   0  0  0  0  0  0  0  0  0  0  0  0
  151.8967  145.2950  160.1306 C   0  0  0  0  0  0  0  0  0  0  0  0
  151.9840  145.0536  158.6177 C   0  0  0  0  0  0  0  0  0  0  0  0
  152.2157  143.5511  158.4416 C   0  0  0  0  0  0  0  0  0  0  0  0
  153.8609  141.0636  161.0341 C   0  0  0  0  0  0  0  0  0  0  0  0
  155.1090  141.1904  160.5821 F   0  0  0  0  0  0  0  0  0  0  0  0
  153.7444  141.7625  162.1641 F   0  0  0  0  0  0  0  0  0  0  0  0
  153.6636  139.7740  161.3048 F   0  0  0  0  0  0  0  0  0  0  0  0
  152.3887  137.1016  155.9674 H   0  0  0  0  0  0  0  0  0  0  0  0
  150.8078  136.5499  154.0903 H   0  0  0  0  0  0  0  0  0  0  0  0
  149.4975  138.4487  153.0745 H   0  0  0  0  0  0  0  0  0  0  0  0
  153.9710  141.0599  158.2558 H   0  0  0  0  0  0  0  0  0  0  0  0
  151.8434  141.3248  160.3288 H   0  0  0  0  0  0  0  0  0  0  0  0
  153.9446  143.4119  159.6877 H   0  0  0  0  0  0  0  0  0  0  0  0
  151.2619  143.4757  161.0980 H   0  0  0  0  0  0  0  0  0  0  0  0
  152.8026  144.0760  161.7012 H   0  0  0  0  0  0  0  0  0  0  0  0
  150.9138  145.6655  160.4239 H   0  0  0  0  0  0  0  0  0  0  0  0
  152.6294  146.0452  160.4306 H   0  0  0  0  0  0  0  0  0  0  0  0
  151.0877  145.3877  158.0939 H   0  0  0  0  0  0  0  0  0  0  0  0
  152.8286  145.6081  158.2072 H   0  0  0  0  0  0  0  0  0  0  0  0
  152.8061  143.3290  157.5520 H   0  0  0  0  0  0  0  0  0  0  0  0
  151.2554  143.0444  158.3330 H   0  0  0  0  0  0  0  0  0  0  0  0
  1  2  2  0  0  0  0
  2  3  1  0  0  0  0
  2 10  1  0  0  0  0
  3  4  1  0  0  0  0
  4  9  1  0  0  0  0
  4  5  2  0  0  0  0
  5  6  1  0  0  0  0
  5 21  1  0  0  0  0
  6  7  2  0  0  0  0
  6 22  1  0  0  0  0
  7  8  1  0  0  0  0
  7 23  1  0  0  0  0
  8  9  2  0  0  0  0
 10 11  1  0  0  0  0
 10 24  1  0  0  0  0
 11 12  1  0  0  0  0
 11 17  1  0  0  0  0
 11 25  1  0  0  0  0
 12 16  1  0  0  0  0
 12 13  1  0  0  0  0
 12 26  1  0  0  0  0
 13 14  1  0  0  0  0
 13 27  1  0  0  0  0
 13 28  1  0  0  0  0
 14 15  1  0  0  0  0
 14 29  1  0  0  0  0
 14 30  1  0  0  0  0
 15 16  1  0  0  0  0
 15 31  1  0  0  0  0
 15 32  1  0  0  0  0
 16 33  1  0  0  0  0
 16 34  1  0  0  0  0
 17 18  1  0  0  0  0
 17 19  1  0  0  0  0
 17 20  1  0  0  0  0
M  CHG  1   3  -1
M  END
> <s_m_source_file>
AV-unprocessed.smi

> <i_m_source_file_index>
2391

> <i_lp_mmshare_version>
43012

> <i_f3d_flags>
0

> <s_epik_input>
W0NIMl0xW0NIMl1bQ0gyXVtDSDJdW0NIXTFbQ0BIXShDKEYpKEYpRilbTkhdQyg9TylbTkhdYzJbY0hdW2NIXVtjSF1ubjI=

> <s_epik_cmdline>
J2VwaWtfcHl0aG9uJywgJy1waCcsICc3LjAnLCAnLXRuJywgJzgnLCAnLW1hJywgJzIwMCcsICctbWV0YWxfYmluZGluZycsICctaW1hZScsICc8aW5maWxlLm1hZT4nLCAnLW9tYWUnLCAnPG91dGZpbGUubWFlPic=

> <r_lp_tautomer_probability>
1

> <r_epik_Ionization_Penalty>
8.90766

> <r_epik_Ionization_Penalty_Charging>
5.82661

> <r_epik_Ionization_Penalty_Neutral>
3.08106

> <r_epik_State_Penalty>
5.83894

> <r_epik_Charging_Adjusted_Penalty>
11.6655

> <i_epik_Tot_Q>
-1

> <i_epik_Tot_abs_Q>
1

> <r_epik_Metal_State_Penalty>
1.80768

> <b_epik_Metal_Only>
1

> <s_lp_Force_Field>
OPLS_2005

> <r_lp_Energy>
28.0244

> <b_lp_Chiralities_Consistent>
1

> <s_lp_Variant>
AV-unprocessed.smi:2391-5

> <Gold.Version>
5.8.1

> <Gold.Id.Protein>
6NUR|6NUR_protein|mol2

> <Gold.PLP.Fitness>
54.5712

> <Gold.PLP.PLP>
-45.3267

> <Gold.PLP.part.hbond>
-3.0000

> <Gold.PLP.part.metal>
0.0000

> <Gold.PLP.part.buried>
-2.3600

> <Gold.PLP.part.nonpolar>
-40.0724

> <Gold.PLP.part.repulsive>
0.2631

> <Gold.PLP.ligand.clash>
0.0000

> <Gold.PLP.ligand.torsion>
1.2120

> <Gold.PLP.Chemscore.Hbond>
2.0000

> <Gold.PLP.Chemscore.CHOScore>
1.7592

> <Gold.PLP.Chemscore.Metal>
0.0000

> <Gold.Chemscore.Hbonds>
donor molecule, donor type, donor heavy atom, donor atom, acceptor molecule, acceptor atom, score
      P1  H  7997  8010       L1     3  2.00
      L1  C     7    23       P1  7948  0.94
      L1  C     7    23       P1  7957  0.74

> <Gold.PLP.Chemscore.Internal.Correction>
0.3910

> <Gold.Rescore>
     Score         DG    S(hbond)    S(metal)    S(lipo)     H(rot)  DE(clash)    DE(int)     intcor
     14.18     -17.04       0.78        0.00     105.52       1.32       0.62       2.24       ----

> <Gold.Chemscore.Fitness>
14.1782

> <Gold.Chemscore.DG>
-17.0426

> <Gold.Chemscore.ZeroCoef>
-5.4800

> <Gold.Chemscore.Hbond>
0.7756

> <Gold.Chemscore.Metal>
0.0000

> <Gold.Chemscore.Lipo>
105.5187

> <Gold.Chemscore.Internal_Hbond>
0.0000

> <Gold.Chemscore.DEClash>
0.6224

> <Gold.Chemscore.DEInternal>
2.2420

> <Gold.Chemscore.Rot>
1.3179

> <Gold.Chemscore.Internal.Correction>
   9.000000E+99

> <Gold.Chemscore.Hbonds>
donor molecule, donor type, donor heavy atom, donor atom, acceptor molecule, acceptor atom, score
      P1  H  7997  8010       L1     3  0.65

> <Gold.Chemscore.Hbond.Weighted>
-2.5906

> <Gold.Chemscore.Metal.Weighted>
-0.0000

> <Gold.Chemscore.Lipo.Weighted>
-12.3457

> <Gold.Chemscore.Internal_Hbond.Weighted>
0.0000

> <Gold.Chemscore.DEClash.Weighted>
0.6224

> <Gold.Chemscore.DEInternal.Weighted>
2.2420

> <Gold.Chemscore.Rot.Weighted>
3.3737

> <Gold.Chemscore.Internal.Correction.Weighted>
   9.000000E+99

> <Gold.Protein.RotatedTorsions>
[ 6907 6896 6895 6894 ] final   91.06 input  -60.11 | X-H torsion
[ 7974 7965 7964 7962 ] final  156.07 input  175.53 | X-H torsion
[ 8008 7997 7996 7995 ] final   50.76 input   59.86 | X-H torsion
[ 10167 10162 10161 10158 ] final   65.80 input  -65.29 | X-H torsion
[ 10718 10713 10712 10709 ] final    4.40 input   66.30 | X-H torsion
[ 10763 10752 10751 10750 ] final    2.30 input  -60.55 | X-H torsion
[ 11005 11000 10999 10996 ] final  -69.96 input  -57.11 | X-H torsion

> <Gold.Protein.ActiveResidues>
 VAL166  LYS551  ARG553  GLY616  TRP617  ASP618  TYR619  PRO620  LYS621  CYS622 
 ASP623  PHE694  ASN695  SER759  ASP760  ASP761  ALA762  ILE779  LEU786  VAL792 
 PHE793  MET794  SER795  GLU796  ALA797  LYS798  CYS799  TRP800  GLU811  SER814 

> <Gold.Protein.RotatedAtoms>
  152.5448  134.1716  159.8598 H   0  0  0  0  0  0  0  0  0  0  0  0  # atno 6907 bound_to 6896
  151.1725  133.4768  159.2601 H   0  0  0  0  0  0  0  0  0  0  0  0  # atno 6908 bound_to 6896
  151.1260  135.0116  159.8615 H   0  0  0  0  0  0  0  0  0  0  0  0  # atno 6909 bound_to 6896
  144.7986  139.7154  143.6191 H   0  0  0  0  0  0  0  0  0  0  0  0  # atno 7974 bound_to 7965
  155.4242  140.3448  155.4274 H   0  0  0  0  0  0  0  0  0  0  0  0  # atno 8008 bound_to 7997
  156.1375  140.1532  156.9003 H   0  0  0  0  0  0  0  0  0  0  0  0  # atno 8009 bound_to 7997
  154.4944  140.0832  156.7644 H   0  0  0  0  0  0  0  0  0  0  0  0  # atno 8010 bound_to 7997
  140.1074  144.4849  150.6999 H   0  0  0  0  0  0  0  0  0  0  0  0  # atno 10167 bound_to 10162
  156.8920  130.5691  149.5649 H   0  0  0  0  0  0  0  0  0  0  0  0  # atno 10718 bound_to 10713
  153.2973  135.6953  153.7236 H   0  0  0  0  0  0  0  0  0  0  0  0  # atno 10763 bound_to 10752
  153.6164  135.3435  155.2997 H   0  0  0  0  0  0  0  0  0  0  0  0  # atno 10764 bound_to 10752
  154.8541  135.4375  154.2074 H   0  0  0  0  0  0  0  0  0  0  0  0  # atno 10765 bound_to 10752
  141.1565  133.6778  156.6680 H   0  0  0  0  0  0  0  0  0  0  0  0  # atno 11005 bound_to 11000
  146.2261  139.5725  142.9586 LP  0  0  0  0  0  0  0  0  0  0  0  0  # atno 17320 bound_to 7965
  145.5611  141.0404  143.2225 LP  0  0  0  0  0  0  0  0  0  0  0  0  # atno 17321 bound_to 7965
  140.6945  143.2395  151.5040 LP  0  0  0  0  0  0  0  0  0  0  0  0  # atno 17342 bound_to 10162
  139.5638  144.2092  152.1733 LP  0  0  0  0  0  0  0  0  0  0  0  0  # atno 17343 bound_to 10162
  156.0624  130.5674  150.9220 LP  0  0  0  0  0  0  0  0  0  0  0  0  # atno 17370 bound_to 10713
  157.6078  131.0938  150.8849 LP  0  0  0  0  0  0  0  0  0  0  0  0  # atno 17371 bound_to 10713
  140.3197  134.8018  157.4242 LP  0  0  0  0  0  0  0  0  0  0  0  0  # atno 17394 bound_to 11000
  140.1108  134.5348  155.8268 LP  0  0  0  0  0  0  0  0  0  0  0  0  # atno 17395 bound_to 11000

$$$$
