AV-unprocessed.smi:83|AV-procd|sdf|806|dock2
  -GOLD-   2262017193D 1   1.00000     0.00000
 Structure written by MMmdl.
 56 59  0  0  0  0  0  0  0  0  1 V2000
  151.3475  145.7633  160.2347 C   0  0  0  0  0  0  0  0  0  0  0  0
  151.7786  144.4075  160.7972 C   0  0  0  0  0  0  0  0  0  0  0  0
  151.8500  144.2642  162.0174 O   0  0  0  0  0  0  0  0  0  0  0  0
  152.0673  143.4135  159.9333 N   0  0  0  0  0  0  0  0  0  0  0  0
  152.4911  142.0772  160.3427 C   0  0  0  0  0  0  0  0  0  0  0  0
  152.7669  141.3189  159.0406 C   0  0  0  0  0  0  0  0  0  0  0  0
  151.8973  142.0221  157.9987 C   0  0  1  0  0  0  0  0  0  0  0  0
  150.4763  141.4067  157.9881 C   0  0  0  0  0  0  0  0  0  0  0  0
  150.3157  140.2801  157.0670 N   0  0  0  0  0  0  0  0  0  0  0  0
  149.4101  140.4713  155.9357 C   0  0  0  0  0  0  0  0  0  0  0  0
  150.6413  139.0063  157.4407 C   0  0  0  0  0  0  0  0  0  0  0  0
  150.9398  138.7794  158.7496 N   0  0  0  0  0  0  0  0  0  0  0  0
  151.3072  137.5684  159.1747 C   0  0  0  0  0  0  0  0  0  0  0  0
  151.4443  136.4461  158.4707 N   0  0  0  0  0  0  0  0  0  0  0  0
  151.1352  136.6494  157.1596 C   0  0  0  0  0  0  0  0  0  0  0  0
  150.7210  137.8777  156.5634 C   0  0  0  0  0  0  0  0  0  0  0  0
  150.4871  137.6650  155.2075 N   0  0  0  0  0  0  0  0  0  0  0  0
  150.7637  136.4061  155.0127 C   0  0  0  0  0  0  0  0  0  0  0  0
  151.1633  135.7217  156.1345 N   0  0  0  0  0  0  0  0  0  0  0  0
  151.5316  134.3199  156.2134 C   0  0  0  0  0  0  0  0  0  0  0  0
  150.3273  133.4164  156.5407 C   0  0  1  0  0  0  0  0  0  0  0  0
  149.6658  133.8681  157.7084 O   0  0  0  0  0  0  0  0  0  0  0  0
  149.3314  133.2940  155.3694 C   0  0  1  0  0  0  0  0  0  0  0  0
  149.9403  132.8855  154.0169 C   0  0  0  0  0  0  0  0  0  0  0  0
  149.2585  131.5670  153.7028 C   0  0  0  0  0  0  0  0  0  0  0  0
  147.9413  131.6937  154.4563 C   0  0  0  0  0  0  0  0  0  0  0  0
  148.3220  132.3312  155.6645 O   0  0  0  0  0  0  0  0  0  0  0  0
  151.9587  143.4812  158.4781 C   0  0  0  0  0  0  0  0  0  0  0  0
  152.0665  146.1251  159.4992 H   0  0  0  0  0  0  0  0  0  0  0  0
  151.2787  146.5058  161.0303 H   0  0  0  0  0  0  0  0  0  0  0  0
  150.3693  145.6888  159.7601 H   0  0  0  0  0  0  0  0  0  0  0  0
  153.3743  142.1090  160.9824 H   0  0  0  0  0  0  0  0  0  0  0  0
  151.6836  141.6006  160.9010 H   0  0  0  0  0  0  0  0  0  0  0  0
  153.8176  141.4339  158.7716 H   0  0  0  0  0  0  0  0  0  0  0  0
  152.5670  140.2501  159.1239 H   0  0  0  0  0  0  0  0  0  0  0  0
  152.3360  141.9244  157.0050 H   0  0  0  0  0  0  0  0  0  0  0  0
  150.2659  141.0264  158.9883 H   0  0  0  0  0  0  0  0  0  0  0  0
  149.7242  142.1742  157.8412 H   0  0  0  0  0  0  0  0  0  0  0  0
  149.7716  139.9401  155.0544 H   0  0  0  0  0  0  0  0  0  0  0  0
  149.3291  141.5264  155.6733 H   0  0  0  0  0  0  0  0  0  0  0  0
  148.4102  140.1085  156.1765 H   0  0  0  0  0  0  0  0  0  0  0  0
  151.5280  137.4899  160.2289 H   0  0  0  0  0  0  0  0  0  0  0  0
  150.6808  135.9398  154.0418 H   0  0  0  0  0  0  0  0  0  0  0  0
  151.9864  134.0275  155.2661 H   0  0  0  0  0  0  0  0  0  0  0  0
  152.3038  134.2125  156.9760 H   0  0  0  0  0  0  0  0  0  0  0  0
  150.6990  132.4157  156.7648 H   0  0  0  0  0  0  0  0  0  0  0  0
  148.8647  133.3767  157.8078 H   0  0  0  0  0  0  0  0  0  0  0  0
  148.8274  134.2535  155.2411 H   0  0  0  0  0  0  0  0  0  0  0  0
  149.6844  133.6270  153.2590 H   0  0  0  0  0  0  0  0  0  0  0  0
  151.0268  132.7953  154.0315 H   0  0  0  0  0  0  0  0  0  0  0  0
  149.1258  131.3962  152.6342 H   0  0  0  0  0  0  0  0  0  0  0  0
  149.8401  130.7399  154.1123 H   0  0  0  0  0  0  0  0  0  0  0  0
  147.2403  132.3291  153.9124 H   0  0  0  0  0  0  0  0  0  0  0  0
  147.4646  130.7310  154.6419 H   0  0  0  0  0  0  0  0  0  0  0  0
  151.1187  144.0798  158.1347 H   0  0  0  0  0  0  0  0  0  0  0  0
  152.8620  143.9582  158.0957 H   0  0  0  0  0  0  0  0  0  0  0  0
  1  2  1  0  0  0  0
  1 29  1  0  0  0  0
  1 30  1  0  0  0  0
  1 31  1  0  0  0  0
  2  3  2  0  0  0  0
  2  4  1  0  0  0  0
  4 28  1  0  0  0  0
  4  5  1  0  0  0  0
  5  6  1  0  0  0  0
  5 32  1  0  0  0  0
  5 33  1  0  0  0  0
  6  7  1  0  0  0  0
  6 34  1  0  0  0  0
  6 35  1  0  0  0  0
  7  8  1  0  0  0  0
  7 28  1  0  0  0  0
  7 36  1  0  0  0  0
  8  9  1  0  0  0  0
  8 37  1  0  0  0  0
  8 38  1  0  0  0  0
  9 10  1  0  0  0  0
  9 11  1  0  0  0  0
 10 39  1  0  0  0  0
 10 40  1  0  0  0  0
 10 41  1  0  0  0  0
 11 16  1  0  0  0  0
 11 12  2  0  0  0  0
 12 13  1  0  0  0  0
 13 14  2  0  0  0  0
 13 42  1  0  0  0  0
 14 15  1  0  0  0  0
 15 19  1  0  0  0  0
 15 16  2  0  0  0  0
 16 17  1  0  0  0  0
 17 18  2  0  0  0  0
 18 19  1  0  0  0  0
 18 43  1  0  0  0  0
 19 20  1  0  0  0  0
 20 21  1  0  0  0  0
 20 44  1  0  0  0  0
 20 45  1  0  0  0  0
 21 22  1  0  0  0  0
 21 23  1  0  0  0  0
 21 46  1  0  0  0  0
 22 47  1  0  0  0  0
 23 27  1  0  0  0  0
 23 24  1  0  0  0  0
 23 48  1  0  0  0  0
 24 25  1  0  0  0  0
 24 49  1  0  0  0  0
 24 50  1  0  0  0  0
 25 26  1  0  0  0  0
 25 51  1  0  0  0  0
 25 52  1  0  0  0  0
 26 27  1  0  0  0  0
 26 53  1  0  0  0  0
 26 54  1  0  0  0  0
 28 55  1  0  0  0  0
 28 56  1  0  0  0  0
M  END
> <s_m_source_file>
AV-unprocessed.smi

> <i_m_source_file_index>
83

> <i_lp_mmshare_version>
43012

> <i_f3d_flags>
0

> <s_epik_input>
W0NIM11DKD1PKU4xW0NIMl1bQ0gyXVtDQEhdKFtDSDJdMSlbQ0gyXU4oW0NIM10pYyhuW2NIXW4yKWMoYzIzKW5bY0hdbjNbQ0gyXVtDQEhdKFtPSF0pW0NAQEhdNFtDSDJdW0NIMl1bQ0gyXU80

> <s_epik_cmdline>
J2VwaWtfcHl0aG9uJywgJy1waCcsICc3LjAnLCAnLXRuJywgJzgnLCAnLW1hJywgJzIwMCcsICctbWV0YWxfYmluZGluZycsICctaW1hZScsICc8aW5maWxlLm1hZT4nLCAnLW9tYWUnLCAnPG91dGZpbGUubWFlPic=

> <r_lp_tautomer_probability>
1

> <r_epik_Ionization_Penalty>
0.00109752

> <r_epik_Ionization_Penalty_Charging>
0

> <r_epik_Ionization_Penalty_Neutral>
0.00109752

> <r_epik_State_Penalty>
0.000634803

> <r_epik_Charging_Adjusted_Penalty>
0.000634803

> <i_epik_Tot_Q>
0

> <i_epik_Tot_abs_Q>
0

> <r_epik_Metal_State_Penalty>
-0

> <b_epik_Metal_Only>
0

> <s_lp_Force_Field>
OPLS_2005

> <r_lp_Energy>
56.5247

> <b_lp_Chiralities_Consistent>
1

> <s_lp_Variant>
AV-unprocessed.smi:83-7

> <Gold.Version>
5.8.1

> <Gold.Id.Protein>
6NUR|6NUR_protein|mol2

> <Gold.PLP.Fitness>
48.8132

> <Gold.PLP.PLP>
-43.8113

> <Gold.PLP.part.hbond>
-2.0000

> <Gold.PLP.part.metal>
0.0000

> <Gold.PLP.part.buried>
-6.9441

> <Gold.PLP.part.nonpolar>
-35.9251

> <Gold.PLP.part.repulsive>
0.7517

> <Gold.PLP.ligand.clash>
0.0000

> <Gold.PLP.ligand.torsion>
1.1576

> <Gold.PLP.Chemscore.Hbond>
1.5760

> <Gold.PLP.Chemscore.CHOScore>
0.6654

> <Gold.PLP.Chemscore.Metal>
0.0000

> <Gold.Chemscore.Hbonds>
donor molecule, donor type, donor heavy atom, donor atom, acceptor molecule, acceptor atom, score
      P1  H  6896  6908       L1    22  1.00
      P1  H  6896  6909       L1    14  0.55
      L1  C    18    43       P1  7948  0.12
      L1  C    18    43       P1  7949  0.51

> <Gold.PLP.Chemscore.Internal.Correction>
0.5927

> <Gold.Rescore>
     Score         DG    S(hbond)    S(metal)    S(lipo)     H(rot)  DE(clash)    DE(int)     intcor
     10.21     -12.24       0.88        0.00      89.77       2.62       0.20       1.83       ----

> <Gold.Chemscore.Fitness>
10.2091

> <Gold.Chemscore.DG>
-12.2437

> <Gold.Chemscore.ZeroCoef>
-5.4800

> <Gold.Chemscore.Hbond>
0.8849

> <Gold.Chemscore.Metal>
0.0000

> <Gold.Chemscore.Lipo>
89.7709

> <Gold.Chemscore.Internal_Hbond>
0.0000

> <Gold.Chemscore.DEClash>
0.2047

> <Gold.Chemscore.DEInternal>
1.8299

> <Gold.Chemscore.Rot>
2.6152

> <Gold.Chemscore.Internal.Correction>
   9.000000E+99

> <Gold.Chemscore.Hbonds>
donor molecule, donor type, donor heavy atom, donor atom, acceptor molecule, acceptor atom, score
      P1  H  6896  6908       L1    22  0.69
      P1  H  6896  6909       L1    14  0.12

> <Gold.Chemscore.Hbond.Weighted>
-2.9554

> <Gold.Chemscore.Metal.Weighted>
-0.0000

> <Gold.Chemscore.Lipo.Weighted>
-10.5032

> <Gold.Chemscore.Internal_Hbond.Weighted>
0.0000

> <Gold.Chemscore.DEClash.Weighted>
0.2047

> <Gold.Chemscore.DEInternal.Weighted>
1.8299

> <Gold.Chemscore.Rot.Weighted>
6.6949

> <Gold.Chemscore.Internal.Correction.Weighted>
   9.000000E+99

> <Gold.Protein.RotatedTorsions>
[ 6907 6896 6895 6894 ] final  119.32 input  -60.11 | X-H torsion
[ 7974 7965 7964 7962 ] final -127.30 input  175.53 | X-H torsion
[ 8008 7997 7996 7995 ] final   47.08 input   59.86 | X-H torsion
[ 10167 10162 10161 10158 ] final  151.49 input  -65.29 | X-H torsion
[ 10718 10713 10712 10709 ] final  100.79 input   66.30 | X-H torsion
[ 10763 10752 10751 10750 ] final  -34.41 input  -60.55 | X-H torsion
[ 11005 11000 10999 10996 ] final   73.88 input  -57.11 | X-H torsion

> <Gold.Protein.ActiveResidues>
 VAL166  LYS551  ARG553  GLY616  TRP617  ASP618  TYR619  PRO620  LYS621  CYS622 
 ASP623  PHE694  ASN695  SER759  ASP760  ASP761  ALA762  ILE779  LEU786  VAL792 
 PHE793  MET794  SER795  GLU796  ALA797  LYS798  CYS799  TRP800  GLU811  SER814 

> <Gold.Protein.RotatedAtoms>
  152.4480  133.7573  159.6727 H   0  0  0  0  0  0  0  0  0  0  0  0  # atno 6907 bound_to 6896
  150.8384  133.7965  159.3076 H   0  0  0  0  0  0  0  0  0  0  0  0  # atno 6908 bound_to 6896
  151.5597  135.1068  160.0021 H   0  0  0  0  0  0  0  0  0  0  0  0  # atno 6909 bound_to 6896
  144.9784  140.7616  143.4627 H   0  0  0  0  0  0  0  0  0  0  0  0  # atno 7974 bound_to 7965
  155.3631  140.3420  155.4241 H   0  0  0  0  0  0  0  0  0  0  0  0  # atno 8008 bound_to 7997
  156.1703  140.1629  156.8494 H   0  0  0  0  0  0  0  0  0  0  0  0  # atno 8009 bound_to 7997
  154.5226  140.0763  156.8183 H   0  0  0  0  0  0  0  0  0  0  0  0  # atno 8010 bound_to 7997
  139.4840  144.5436  151.7522 H   0  0  0  0  0  0  0  0  0  0  0  0  # atno 10167 bound_to 10162
  157.6845  131.0708  150.5153 H   0  0  0  0  0  0  0  0  0  0  0  0  # atno 10718 bound_to 10713
  153.8463  135.6853  153.4797 H   0  0  0  0  0  0  0  0  0  0  0  0  # atno 10763 bound_to 10752
  153.1424  135.4652  154.9513 H   0  0  0  0  0  0  0  0  0  0  0  0  # atno 10764 bound_to 10752
  154.7822  135.3273  154.7911 H   0  0  0  0  0  0  0  0  0  0  0  0  # atno 10765 bound_to 10752
  139.9418  134.7385  156.1079 H   0  0  0  0  0  0  0  0  0  0  0  0  # atno 11005 bound_to 11000
  145.2456  139.2053  143.4969 LP  0  0  0  0  0  0  0  0  0  0  0  0  # atno 17320 bound_to 7965
  146.3401  140.2360  142.8594 LP  0  0  0  0  0  0  0  0  0  0  0  0  # atno 17321 bound_to 7965
  140.4980  144.1212  150.5964 LP  0  0  0  0  0  0  0  0  0  0  0  0  # atno 17342 bound_to 10162
  140.4095  143.2663  151.9850 LP  0  0  0  0  0  0  0  0  0  0  0  0  # atno 17343 bound_to 10162
  156.5469  130.4222  149.6126 LP  0  0  0  0  0  0  0  0  0  0  0  0  # atno 17370 bound_to 10713
  156.2936  130.7138  151.1993 LP  0  0  0  0  0  0  0  0  0  0  0  0  # atno 17371 bound_to 10713
  141.1055  133.6661  156.2855 LP  0  0  0  0  0  0  0  0  0  0  0  0  # atno 17394 bound_to 11000
  140.5932  134.5629  157.5503 LP  0  0  0  0  0  0  0  0  0  0  0  0  # atno 17395 bound_to 11000

$$$$
