AV-unprocessed.smi:610|AV-procd|sdf|3053|dock8
  -GOLD-   2262023573D 1   1.00000     0.00000
 Structure written by MMmdl.
 39 40  0  0  0  0  0  0  0  0  3 V2000
  153.0291  138.2584  158.0508 C   0  0  0  0  0  0  0  0  0  0  0  0
  152.3084  139.5230  157.5657 C   0  0  2  0  0  0  0  0  0  0  0  0
  151.8620  140.4016  158.7540 C   0  0  0  0  0  0  0  0  0  0  0  0
  151.6415  141.8035  158.3810 N   0  0  0  0  0  0  0  0  0  0  0  0
  152.3060  142.9044  158.8581 C   0  0  0  0  0  0  0  0  0  0  0  0
  151.7637  143.9933  158.2253 C   0  0  0  0  0  0  0  0  0  0  0  0
  150.7852  143.5125  157.3968 N   0  3  0  0  0  0  0  0  0  0  0  0
  150.7078  142.1815  157.4980 C   0  0  0  0  0  0  0  0  0  0  0  0
  151.1626  139.1279  156.7471 N   0  0  0  0  0  0  0  0  0  0  0  0
  150.9345  139.4964  155.4744 C   0  0  0  0  0  0  0  0  0  0  0  0
  151.7089  140.2223  154.8503 O   0  0  0  0  0  0  0  0  0  0  0  0
  149.6592  138.9656  154.7768 C   0  0  0  0  0  0  0  0  0  0  0  0
  150.0837  138.3284  153.5166 N   0  3  0  0  0  0  0  0  0  0  0  0
  148.8120  138.0048  155.6368 C   0  0  0  0  0  0  0  0  0  0  0  0
  147.9894  138.9108  156.5626 C   0  0  0  0  0  0  0  0  0  0  0  0
  147.8566  140.2522  155.8243 C   0  0  0  0  0  0  0  0  0  0  0  0
  148.6497  140.1004  154.5177 C   0  0  0  0  0  0  0  0  0  0  0  0
  153.9105  138.5109  158.6410 H   0  0  0  0  0  0  0  0  0  0  0  0
  153.3623  137.6480  157.2108 H   0  0  0  0  0  0  0  0  0  0  0  0
  152.3787  137.6428  158.6734 H   0  0  0  0  0  0  0  0  0  0  0  0
  153.0213  140.0848  156.9597 H   0  0  0  0  0  0  0  0  0  0  0  0
  150.9491  140.0098  159.2062 H   0  0  0  0  0  0  0  0  0  0  0  0
  152.6257  140.3978  159.5330 H   0  0  0  0  0  0  0  0  0  0  0  0
  153.0989  142.8323  159.5887 H   0  0  0  0  0  0  0  0  0  0  0  0
  151.9931  145.0462  158.3027 H   0  0  0  0  0  0  0  0  0  0  0  0
  150.0284  141.5398  156.9655 H   0  0  0  0  0  0  0  0  0  0  0  0
  150.4835  138.5248  157.1891 H   0  0  0  0  0  0  0  0  0  0  0  0
  150.0384  139.0005  152.7641 H   0  0  0  0  0  0  0  0  0  0  0  0
  149.4764  137.5481  153.3104 H   0  0  0  0  0  0  0  0  0  0  0  0
  148.1273  137.4503  154.9926 H   0  0  0  0  0  0  0  0  0  0  0  0
  149.3856  137.2564  156.1849 H   0  0  0  0  0  0  0  0  0  0  0  0
  147.0185  138.4719  156.7942 H   0  0  0  0  0  0  0  0  0  0  0  0
  148.5137  139.0597  157.5072 H   0  0  0  0  0  0  0  0  0  0  0  0
  146.8145  140.5051  155.6258 H   0  0  0  0  0  0  0  0  0  0  0  0
  148.2757  141.0549  156.4316 H   0  0  0  0  0  0  0  0  0  0  0  0
  149.1060  141.0413  154.2073 H   0  0  0  0  0  0  0  0  0  0  0  0
  147.9647  139.8087  153.7197 H   0  0  0  0  0  0  0  0  0  0  0  0
  151.0326  137.9959  153.6151 H   0  0  0  0  0  0  0  0  0  0  0  0
  150.1986  144.0814  156.7990 H   0  0  0  0  0  0  0  0  0  0  0  0
  1  2  1  0  0  0  0
  1 18  1  0  0  0  0
  1 19  1  0  0  0  0
  1 20  1  0  0  0  0
  2  3  1  0  0  0  0
  2  9  1  0  0  0  0
  2 21  1  0  0  0  0
  3  4  1  0  0  0  0
  3 22  1  0  0  0  0
  3 23  1  0  0  0  0
  4  8  1  0  0  0  0
  4  5  1  0  0  0  0
  5  6  2  0  0  0  0
  5 24  1  0  0  0  0
  6  7  1  0  0  0  0
  6 25  1  0  0  0  0
  7  8  2  0  0  0  0
  7 39  1  0  0  0  0
  8 26  1  0  0  0  0
  9 10  1  0  0  0  0
  9 27  1  0  0  0  0
 10 11  2  0  0  0  0
 10 12  1  0  0  0  0
 12 17  1  0  0  0  0
 12 13  1  0  0  0  0
 12 14  1  0  0  0  0
 13 28  1  0  0  0  0
 13 29  1  0  0  0  0
 13 38  1  0  0  0  0
 14 15  1  0  0  0  0
 14 30  1  0  0  0  0
 14 31  1  0  0  0  0
 15 16  1  0  0  0  0
 15 32  1  0  0  0  0
 15 33  1  0  0  0  0
 16 17  1  0  0  0  0
 16 34  1  0  0  0  0
 16 35  1  0  0  0  0
 17 36  1  0  0  0  0
 17 37  1  0  0  0  0
M  CHG  1   7   1
M  CHG  1  13   1
M  END
> <s_m_source_file>
AV-unprocessed.smi

> <i_m_source_file_index>
610

> <i_lp_mmshare_version>
43012

> <i_f3d_flags>
0

> <s_epik_input>
W2NIXTFuW2NIXVtjSF1uMVtDSDJdW0NAQEhdKFtDSDNdKVtOSF1DKD1PKUMyKFtOSDJdKVtDSDJdW0NIMl1bQ0gyXVtDSDJdMg==

> <s_epik_cmdline>
J2VwaWtfcHl0aG9uJywgJy1waCcsICc3LjAnLCAnLXRuJywgJzgnLCAnLW1hJywgJzIwMCcsICctbWV0YWxfYmluZGluZycsICctaW1hZScsICc8aW5maWxlLm1hZT4nLCAnLW9tYWUnLCAnPG91dGZpbGUubWFlPic=

> <r_lp_tautomer_probability>
1

> <r_epik_Ionization_Penalty>
0.349719

> <r_epik_Ionization_Penalty_Charging>
0.0753376

> <r_epik_Ionization_Penalty_Neutral>
0.274381

> <r_epik_State_Penalty>
0.326418

> <r_epik_Charging_Adjusted_Penalty>
0.401755

> <i_epik_Tot_Q>
2

> <i_epik_Tot_abs_Q>
2

> <r_epik_Metal_State_Penalty>
0.608513

> <b_epik_Metal_Only>
0

> <s_lp_Force_Field>
OPLS_2005

> <r_lp_Energy>
30.886

> <b_lp_Chiralities_Consistent>
1

> <s_lp_Variant>
AV-unprocessed.smi:610-1

> <Gold.Version>
5.8.1

> <Gold.Id.Protein>
6NUR|6NUR_protein|mol2

> <Gold.PLP.Fitness>
45.9476

> <Gold.PLP.PLP>
-29.2671

> <Gold.PLP.part.hbond>
-4.2499

> <Gold.PLP.part.metal>
0.0000

> <Gold.PLP.part.buried>
-2.3472

> <Gold.PLP.part.nonpolar>
-23.2021

> <Gold.PLP.part.repulsive>
0.2106

> <Gold.PLP.ligand.clash>
0.0000

> <Gold.PLP.ligand.torsion>
0.3659

> <Gold.PLP.Chemscore.Hbond>
5.7840

> <Gold.PLP.Chemscore.CHOScore>
0.0000

> <Gold.PLP.Chemscore.Metal>
0.0000

> <Gold.Chemscore.Hbonds>
donor molecule, donor type, donor heavy atom, donor atom, acceptor molecule, acceptor atom, score
      L1  H     7    39       P1  8028  2.00
      L1  H    13    28       P1  7957  1.00
      L1  H    13    29       P1  7948  1.66
      P1  H  7989  7998       L1    11  0.87

> <Gold.PLP.Chemscore.Internal.Correction>
0.0603

> <Gold.Rescore>
     Score         DG    S(hbond)    S(metal)    S(lipo)     H(rot)  DE(clash)    DE(int)     intcor
     17.77     -18.59       3.65        0.00      53.01       2.06       0.01       0.81       ----

> <Gold.Chemscore.Fitness>
17.7705

> <Gold.Chemscore.DG>
-18.5898

> <Gold.Chemscore.ZeroCoef>
-5.4800

> <Gold.Chemscore.Hbond>
3.6506

> <Gold.Chemscore.Metal>
0.0000

> <Gold.Chemscore.Lipo>
53.0057

> <Gold.Chemscore.Internal_Hbond>
0.0000

> <Gold.Chemscore.DEClash>
0.0069

> <Gold.Chemscore.DEInternal>
0.8124

> <Gold.Chemscore.Rot>
2.0644

> <Gold.Chemscore.Internal.Correction>
   9.000000E+99

> <Gold.Chemscore.Hbonds>
donor molecule, donor type, donor heavy atom, donor atom, acceptor molecule, acceptor atom, score
      L1  H     7    39       P1  8028  0.98
      L1  H    13    28       P1  7957  0.74
      L1  H    13    29       P1  7948  0.75
      P1  H  7989  7998       L1    11  0.80

> <Gold.Chemscore.Hbond.Weighted>
-12.1929

> <Gold.Chemscore.Metal.Weighted>
-0.0000

> <Gold.Chemscore.Lipo.Weighted>
-6.2017

> <Gold.Chemscore.Internal_Hbond.Weighted>
0.0000

> <Gold.Chemscore.DEClash.Weighted>
0.0069

> <Gold.Chemscore.DEInternal.Weighted>
0.8124

> <Gold.Chemscore.Rot.Weighted>
5.2848

> <Gold.Chemscore.Internal.Correction.Weighted>
   9.000000E+99

> <Gold.Protein.RotatedTorsions>
[ 6907 6896 6895 6894 ] final  -46.65 input  -60.11 | X-H torsion
[ 7974 7965 7964 7962 ] final   41.97 input  175.53 | X-H torsion
[ 8008 7997 7996 7995 ] final  -56.46 input   59.86 | X-H torsion
[ 10167 10162 10161 10158 ] final   85.20 input  -65.29 | X-H torsion
[ 10718 10713 10712 10709 ] final -111.54 input   66.30 | X-H torsion
[ 10763 10752 10751 10750 ] final  145.54 input  -60.55 | X-H torsion
[ 11005 11000 10999 10996 ] final  128.95 input  -57.11 | X-H torsion

> <Gold.Protein.ActiveResidues>
 VAL166  LYS551  ARG553  GLY616  TRP617  ASP618  TYR619  PRO620  LYS621  CYS622 
 ASP623  PHE694  ASN695  SER759  ASP760  ASP761  ALA762  ILE779  LEU786  VAL792 
 PHE793  MET794  SER795  GLU796  ALA797  LYS798  CYS799  TRP800  GLU811  SER814 

> <Gold.Protein.RotatedAtoms>
  150.9090  134.8506  159.7412 H   0  0  0  0  0  0  0  0  0  0  0  0  # atno 6907 bound_to 6896
  152.4934  134.4387  159.9546 H   0  0  0  0  0  0  0  0  0  0  0  0  # atno 6908 bound_to 6896
  151.4431  133.3598  159.2820 H   0  0  0  0  0  0  0  0  0  0  0  0  # atno 6909 bound_to 6896
  146.0779  139.5354  142.9556 H   0  0  0  0  0  0  0  0  0  0  0  0  # atno 7974 bound_to 7965
  154.4231  140.1129  156.5642 H   0  0  0  0  0  0  0  0  0  0  0  0  # atno 8008 bound_to 7997
  155.6280  140.3495  155.4654 H   0  0  0  0  0  0  0  0  0  0  0  0  # atno 8009 bound_to 7997
  155.9971  140.1191  157.0573 H   0  0  0  0  0  0  0  0  0  0  0  0  # atno 8010 bound_to 7997
  139.9002  144.6334  150.8645 H   0  0  0  0  0  0  0  0  0  0  0  0  # atno 10167 bound_to 10162
  156.0653  130.5873  150.8387 H   0  0  0  0  0  0  0  0  0  0  0  0  # atno 10718 bound_to 10713
  154.0071  135.2918  155.3396 H   0  0  0  0  0  0  0  0  0  0  0  0  # atno 10763 bound_to 10752
  154.7125  135.5143  153.8691 H   0  0  0  0  0  0  0  0  0  0  0  0  # atno 10764 bound_to 10752
  153.0740  135.6657  154.0306 H   0  0  0  0  0  0  0  0  0  0  0  0  # atno 10765 bound_to 10752
  139.9588  134.9607  156.9076 H   0  0  0  0  0  0  0  0  0  0  0  0  # atno 11005 bound_to 11000
  145.6272  141.0311  143.1883 LP  0  0  0  0  0  0  0  0  0  0  0  0  # atno 17320 bound_to 7965
  144.7274  139.7833  143.7360 LP  0  0  0  0  0  0  0  0  0  0  0  0  # atno 17321 bound_to 7965
  140.7708  143.3442  151.2145 LP  0  0  0  0  0  0  0  0  0  0  0  0  # atno 17342 bound_to 10162
  139.7032  143.9499  152.2915 LP  0  0  0  0  0  0  0  0  0  0  0  0  # atno 17343 bound_to 10162
  157.5690  131.0946  150.9446 LP  0  0  0  0  0  0  0  0  0  0  0  0  # atno 17370 bound_to 10713
  156.9666  130.5475  149.5288 LP  0  0  0  0  0  0  0  0  0  0  0  0  # atno 17371 bound_to 10713
  140.5547  134.0593  155.7380 LP  0  0  0  0  0  0  0  0  0  0  0  0  # atno 17394 bound_to 11000
  141.1263  133.9377  157.2628 LP  0  0  0  0  0  0  0  0  0  0  0  0  # atno 17395 bound_to 11000

$$$$
