AV-unprocessed.smi:265|AV-procd|sdf|2019|dock4
  -GOLD-   2262021223D 1   1.00000     0.00000
 Structure written by MMmdl.
 52 56  0  0  0  0  0  0  0  0  1 V2000
  143.1765  133.1838  148.5687 C   0  0  0  0  0  0  0  0  0  0  0  0
  144.3892  132.6912  149.3743 C   0  0  2  0  0  0  0  0  0  0  0  0
  144.0211  131.4709  150.0119 O   0  0  0  0  0  0  0  0  0  0  0  0
  144.7565  131.3447  151.2155 C   0  0  0  0  0  0  0  0  0  0  0  0
  144.7297  132.7638  151.7616 C   0  0  0  0  0  0  0  0  0  0  0  0
  144.9044  133.6209  150.5100 C   0  0  1  0  0  0  0  0  0  0  0  0
  146.2941  133.8172  150.3099 O   0  0  0  0  0  0  0  0  0  0  0  0
  144.2327  135.0154  150.6156 C   0  0  0  0  0  0  0  0  0  0  0  0
  145.1235  136.0533  151.1134 N   0  0  0  0  0  0  0  0  0  0  0  0
  145.7964  136.9954  150.3668 C   0  0  0  0  0  0  0  0  0  0  0  0
  146.5397  137.8231  151.0500 N   0  0  0  0  0  0  0  0  0  0  0  0
  146.3749  137.4117  152.3660 C   0  0  0  0  0  0  0  0  0  0  0  0
  146.8944  137.8553  153.6097 C   0  0  0  0  0  0  0  0  0  0  0  0
  147.7391  138.9050  153.6972 N   0  0  0  0  0  0  0  0  0  0  0  0
  147.0918  140.1155  154.1916 C   0  0  0  0  0  0  0  0  0  0  0  0
  148.0144  141.3318  154.0165 C   0  0  0  0  0  0  0  0  0  0  0  0
  149.3983  141.0973  154.6465 C   0  0  1  0  0  0  0  0  0  0  0  0
  149.2941  141.0517  156.0638 O   0  0  0  0  0  0  0  0  0  0  0  0
  150.5561  141.0213  156.7338 C   0  0  0  0  0  0  0  0  0  0  0  0
  151.5040  139.9569  156.1504 C   0  0  0  0  0  0  0  0  0  0  0  0
  152.4991  139.6099  156.7824 O   0  0  0  0  0  0  0  0  0  0  0  0
  151.2301  139.4654  154.9313 N   0  0  0  0  0  0  0  0  0  0  0  0
  150.0129  139.7584  154.1816 C   0  0  1  0  0  0  0  0  0  0  0  0
  149.0124  138.5953  154.3406 C   0  0  0  0  0  0  0  0  0  0  0  0
  146.5100  137.1955  154.7340 N   0  0  0  0  0  0  0  0  0  0  0  0
  145.6681  136.1609  154.6434 C   0  0  0  0  0  0  0  0  0  0  0  0
  145.1055  135.6346  153.5528 N   0  0  0  0  0  0  0  0  0  0  0  0
  145.4903  136.2992  152.4252 C   0  0  0  0  0  0  0  0  0  0  0  0
  150.0502  141.9284  154.3701 H   0  0  0  0  0  0  0  0  0  0  0  0
  150.2822  139.8443  153.1281 H   0  0  0  0  0  0  0  0  0  0  0  0
  143.3996  134.1095  148.0382 H   0  0  0  0  0  0  0  0  0  0  0  0
  142.3118  133.3559  149.2096 H   0  0  0  0  0  0  0  0  0  0  0  0
  142.8860  132.4442  147.8225 H   0  0  0  0  0  0  0  0  0  0  0  0
  145.1956  132.4634  148.6744 H   0  0  0  0  0  0  0  0  0  0  0  0
  144.3009  130.6217  151.8923 H   0  0  0  0  0  0  0  0  0  0  0  0
  145.7761  131.0238  150.9967 H   0  0  0  0  0  0  0  0  0  0  0  0
  143.7506  132.9457  152.2064 H   0  0  0  0  0  0  0  0  0  0  0  0
  145.4825  132.9433  152.5307 H   0  0  0  0  0  0  0  0  0  0  0  0
  146.4143  134.3371  149.5300 H   0  0  0  0  0  0  0  0  0  0  0  0
  143.8557  135.3295  149.6414 H   0  0  0  0  0  0  0  0  0  0  0  0
  143.3703  134.9754  151.2815 H   0  0  0  0  0  0  0  0  0  0  0  0
  145.7165  137.0522  149.2912 H   0  0  0  0  0  0  0  0  0  0  0  0
  146.1552  140.2826  153.6576 H   0  0  0  0  0  0  0  0  0  0  0  0
  146.8404  139.9881  155.2457 H   0  0  0  0  0  0  0  0  0  0  0  0
  148.1378  141.5325  152.9515 H   0  0  0  0  0  0  0  0  0  0  0  0
  147.5506  142.2204  154.4455 H   0  0  0  0  0  0  0  0  0  0  0  0
  151.0329  141.9990  156.6541 H   0  0  0  0  0  0  0  0  0  0  0  0
  150.3916  140.8276  157.7940 H   0  0  0  0  0  0  0  0  0  0  0  0
  151.8697  138.7942  154.5318 H   0  0  0  0  0  0  0  0  0  0  0  0
  148.8402  138.3949  155.3994 H   0  0  0  0  0  0  0  0  0  0  0  0
  149.4296  137.6847  153.9080 H   0  0  0  0  0  0  0  0  0  0  0  0
  145.4071  135.6872  155.5784 H   0  0  0  0  0  0  0  0  0  0  0  0
  1  2  1  0  0  0  0
  1 31  1  0  0  0  0
  1 32  1  0  0  0  0
  1 33  1  0  0  0  0
  2  6  1  0  0  0  0
  2  3  1  0  0  0  0
  2 34  1  0  0  0  0
  3  4  1  0  0  0  0
  4  5  1  0  0  0  0
  4 35  1  0  0  0  0
  4 36  1  0  0  0  0
  5  6  1  0  0  0  0
  5 37  1  0  0  0  0
  5 38  1  0  0  0  0
  6  7  1  0  0  0  0
  6  8  1  0  0  0  0
  7 39  1  0  0  0  0
  8  9  1  0  0  0  0
  8 40  1  0  0  0  0
  8 41  1  0  0  0  0
  9 28  1  0  0  0  0
  9 10  1  0  0  0  0
 10 11  2  0  0  0  0
 10 42  1  0  0  0  0
 11 12  1  0  0  0  0
 12 28  2  0  0  0  0
 12 13  1  0  0  0  0
 13 14  1  0  0  0  0
 13 25  2  0  0  0  0
 14 24  1  0  0  0  0
 14 15  1  0  0  0  0
 15 16  1  0  0  0  0
 15 43  1  0  0  0  0
 15 44  1  0  0  0  0
 16 17  1  0  0  0  0
 16 45  1  0  0  0  0
 16 46  1  0  0  0  0
 17 29  1  0  0  0  0
 17 23  1  0  0  0  0
 17 18  1  0  0  0  0
 18 19  1  0  0  0  0
 19 20  1  0  0  0  0
 19 47  1  0  0  0  0
 19 48  1  0  0  0  0
 20 21  2  0  0  0  0
 20 22  1  0  0  0  0
 22 23  1  0  0  0  0
 22 49  1  0  0  0  0
 23 30  1  0  0  0  0
 23 24  1  0  0  0  0
 24 50  1  0  0  0  0
 24 51  1  0  0  0  0
 25 26  1  0  0  0  0
 26 27  2  0  0  0  0
 26 52  1  0  0  0  0
 27 28  1  0  0  0  0
M  END
> <s_m_source_file>
AV-unprocessed.smi

> <i_m_source_file_index>
265

> <i_lp_mmshare_version>
43012

> <i_f3d_flags>
0

> <s_epik_input>
W0NIMl0xW0NIMl1PW0NAQEhdKFtDSDNdKVtDQEBdMShbT0hdKVtDSDJdbihbY0hdbjIpYyhjMjMpbltjSF1uYzNOKFtDSDJdW0NIMl00KVtDSDJdW0NAQEhdKFtDQEhdNDUpW05IXUMoPU8pW0NIMl1PNQ==

> <s_epik_cmdline>
J2VwaWtfcHl0aG9uJywgJy1waCcsICc3LjAnLCAnLXRuJywgJzgnLCAnLW1hJywgJzIwMCcsICctbWV0YWxfYmluZGluZycsICctaW1hZScsICc8aW5maWxlLm1hZT4nLCAnLW9tYWUnLCAnPG91dGZpbGUubWFlPic=

> <r_lp_tautomer_probability>
1

> <r_epik_Ionization_Penalty>
0.00221504

> <r_epik_Ionization_Penalty_Charging>
0

> <r_epik_Ionization_Penalty_Neutral>
0.00221504

> <r_epik_State_Penalty>
-0

> <r_epik_Charging_Adjusted_Penalty>
0

> <i_epik_Tot_Q>
0

> <i_epik_Tot_abs_Q>
0

> <r_epik_Metal_State_Penalty>
-0

> <b_epik_Metal_Only>
0

> <s_lp_Force_Field>
OPLS_2005

> <r_lp_Energy>
45.6992

> <b_lp_Chiralities_Consistent>
1

> <s_lp_Variant>
AV-unprocessed.smi:265-5

> <Gold.Version>
5.8.1

> <Gold.Id.Protein>
6NUR|6NUR_protein|mol2

> <Gold.PLP.Fitness>
46.0435

> <Gold.PLP.PLP>
-36.5051

> <Gold.PLP.part.hbond>
-4.0920

> <Gold.PLP.part.metal>
0.0000

> <Gold.PLP.part.buried>
7.5033

> <Gold.PLP.part.nonpolar>
-44.1058

> <Gold.PLP.part.repulsive>
3.6066

> <Gold.PLP.ligand.clash>
0.0000

> <Gold.PLP.ligand.torsion>
1.1108

> <Gold.PLP.Chemscore.Hbond>
3.3320

> <Gold.PLP.Chemscore.CHOScore>
0.5302

> <Gold.PLP.Chemscore.Metal>
0.0000

> <Gold.Chemscore.Hbonds>
donor molecule, donor type, donor heavy atom, donor atom, acceptor molecule, acceptor atom, score
      L1  H     7    39       P1  7921  0.65
      P1  H  7954  7966       L1    11  1.00
      P1  H  7997  8009       L1    21  1.00
      P1  H 10785 10796       L1     3  0.67
      L1  C    10    42       P1  7921  0.33
      L1  C    10    42       P1 10171  0.09

> <Gold.PLP.Chemscore.Internal.Correction>
0.1734

> <Gold.Rescore>
     Score         DG    S(hbond)    S(metal)    S(lipo)     H(rot)  DE(clash)    DE(int)     intcor
     12.04     -18.53       2.20        0.00      98.00       2.25       5.38       1.11       ----

> <Gold.Chemscore.Fitness>
12.0416

> <Gold.Chemscore.DG>
-18.5306

> <Gold.Chemscore.ZeroCoef>
-5.4800

> <Gold.Chemscore.Hbond>
2.1955

> <Gold.Chemscore.Metal>
0.0000

> <Gold.Chemscore.Lipo>
97.9970

> <Gold.Chemscore.Internal_Hbond>
0.0000

> <Gold.Chemscore.DEClash>
5.3815

> <Gold.Chemscore.DEInternal>
1.1075

> <Gold.Chemscore.Rot>
2.2453

> <Gold.Chemscore.Internal.Correction>
   9.000000E+99

> <Gold.Chemscore.Hbonds>
donor molecule, donor type, donor heavy atom, donor atom, acceptor molecule, acceptor atom, score
      L1  H     7    39       P1  7921  0.05
      P1  H  7954  7966       L1    11  0.25
      P1  H  7997  8009       L1    21  1.00
      P1  H 10785 10796       L1     3  0.56

> <Gold.Chemscore.Hbond.Weighted>
-7.3329

> <Gold.Chemscore.Metal.Weighted>
-0.0000

> <Gold.Chemscore.Lipo.Weighted>
-11.4656

> <Gold.Chemscore.Internal_Hbond.Weighted>
0.0000

> <Gold.Chemscore.DEClash.Weighted>
5.3815

> <Gold.Chemscore.DEInternal.Weighted>
1.1075

> <Gold.Chemscore.Rot.Weighted>
5.7479

> <Gold.Chemscore.Internal.Correction.Weighted>
   9.000000E+99

> <Gold.Protein.RotatedTorsions>
[ 6907 6896 6895 6894 ] final  -18.07 input  -60.11 | X-H torsion
[ 7974 7965 7964 7962 ] final -158.06 input  175.53 | X-H torsion
[ 8008 7997 7996 7995 ] final -170.98 input   59.86 | X-H torsion
[ 10167 10162 10161 10158 ] final -166.38 input  -65.29 | X-H torsion
[ 10718 10713 10712 10709 ] final -116.47 input   66.30 | X-H torsion
[ 10763 10752 10751 10750 ] final  -23.09 input  -60.55 | X-H torsion
[ 11005 11000 10999 10996 ] final -105.52 input  -57.11 | X-H torsion

> <Gold.Protein.ActiveResidues>
 VAL166  LYS551  ARG553  GLY616  TRP617  ASP618  TYR619  PRO620  LYS621  CYS622 
 ASP623  PHE694  ASN695  SER759  ASP760  ASP761  ALA762  ILE779  LEU786  VAL792 
 PHE793  MET794  SER795  GLU796  ALA797  LYS798  CYS799  TRP800  GLU811  SER814 

> <Gold.Protein.RotatedAtoms>
  151.2837  135.0721  159.9178 H   0  0  0  0  0  0  0  0  0  0  0  0  # atno 6907 bound_to 6896
  152.5329  134.0004  159.7902 H   0  0  0  0  0  0  0  0  0  0  0  0  # atno 6908 bound_to 6896
  151.0262  133.5781  159.2696 H   0  0  0  0  0  0  0  0  0  0  0  0  # atno 6909 bound_to 6896
  144.7522  140.3882  143.6039 H   0  0  0  0  0  0  0  0  0  0  0  0  # atno 7974 bound_to 7965
  155.9255  140.1082  157.1173 H   0  0  0  0  0  0  0  0  0  0  0  0  # atno 8008 bound_to 7997
  154.4061  140.1247  156.4800 H   0  0  0  0  0  0  0  0  0  0  0  0  # atno 8009 bound_to 7997
  155.7144  140.3470  155.4990 H   0  0  0  0  0  0  0  0  0  0  0  0  # atno 8010 bound_to 7997
  139.6119  144.0797  152.1850 H   0  0  0  0  0  0  0  0  0  0  0  0  # atno 10167 bound_to 10162
  156.0966  130.6137  150.9039 H   0  0  0  0  0  0  0  0  0  0  0  0  # atno 10718 bound_to 10713
  153.6623  135.6976  153.5173 H   0  0  0  0  0  0  0  0  0  0  0  0  # atno 10763 bound_to 10752
  153.2622  135.4241  155.0905 H   0  0  0  0  0  0  0  0  0  0  0  0  # atno 10764 bound_to 10752
  154.8449  135.3558  154.6167 H   0  0  0  0  0  0  0  0  0  0  0  0  # atno 10765 bound_to 10752
  141.1049  133.8815  157.1744 H   0  0  0  0  0  0  0  0  0  0  0  0  # atno 11005 bound_to 11000
  145.6905  139.1638  143.2649 LP  0  0  0  0  0  0  0  0  0  0  0  0  # atno 17320 bound_to 7965
  146.1486  140.6957  142.9333 LP  0  0  0  0  0  0  0  0  0  0  0  0  # atno 17321 bound_to 7965
  140.0418  144.6001  150.7405 LP  0  0  0  0  0  0  0  0  0  0  0  0  # atno 17342 bound_to 10162
  140.7325  143.2706  151.3901 LP  0  0  0  0  0  0  0  0  0  0  0  0  # atno 17343 bound_to 10162
  157.6128  131.0935  150.8765 LP  0  0  0  0  0  0  0  0  0  0  0  0  # atno 17370 bound_to 10713
  156.8902  130.5210  149.5286 LP  0  0  0  0  0  0  0  0  0  0  0  0  # atno 17371 bound_to 10713
  139.9916  135.0062  156.9987 LP  0  0  0  0  0  0  0  0  0  0  0  0  # atno 17394 bound_to 11000
  140.4927  134.1177  155.7235 LP  0  0  0  0  0  0  0  0  0  0  0  0  # atno 17395 bound_to 11000

$$$$
