AV-unprocessed.smi:1006|AV-procd|sdf|4397|dock3
  -GOLD-   22720 2333D 1   1.00000     0.00000
 Structure written by MMmdl.
 47 49  0  0  0  0  0  0  0  0  3 V2000
  147.8943  133.4762  152.4712 C   0  0  0  0  0  0  0  0  0  0  0  0
  148.7143  133.3969  153.7415 C   0  0  0  0  0  0  0  0  0  0  0  0
  148.8654  132.1935  154.4604 C   0  0  0  0  0  0  0  0  0  0  0  0
  149.6483  132.2452  155.6268 C   0  0  0  0  0  0  0  0  0  0  0  0
  149.8538  131.1063  156.4012 N   0  0  0  0  0  0  0  0  0  0  0  0
  150.2254  133.3918  156.0374 N   0  0  0  0  0  0  0  0  0  0  0  0
  150.0401  134.5007  155.3087 C   0  0  0  0  0  0  0  0  0  0  0  0
  150.7904  136.0349  155.8269 S   0  0  0  0  0  0  0  0  0  0  0  0
  151.0607  136.9058  154.2509 C   0  0  0  0  0  0  0  0  0  0  0  0
  150.5989  138.3710  154.3150 C   0  0  1  0  0  0  0  0  0  0  0  0
  149.4626  138.5375  153.4886 O   0  0  0  0  0  0  0  0  0  0  0  0
  150.2699  138.8099  155.7554 C   0  0  0  0  0  0  0  0  0  0  0  0
  150.4421  140.2553  155.9641 N   0  0  0  0  0  0  0  0  0  0  0  0
  149.9049  141.3000  155.2769 C   0  0  0  0  0  0  0  0  0  0  0  0
  150.3618  142.4477  155.8491 N   0  3  0  0  0  0  0  0  0  0  0  0
  151.2031  142.1327  156.9179 C   0  0  0  0  0  0  0  0  0  0  0  0
  151.9007  142.9519  157.7976 C   0  0  0  0  0  0  0  0  0  0  0  0
  152.6770  142.3166  158.7927 C   0  0  0  0  0  0  0  0  0  0  0  0
  153.4513  143.1829  159.7717 C   0  0  0  0  0  0  0  0  0  0  0  0
  152.7339  140.9016  158.8811 C   0  0  0  0  0  0  0  0  0  0  0  0
  153.5680  140.2290  159.9584 C   0  0  0  0  0  0  0  0  0  0  0  0
  152.0186  140.0859  157.9753 C   0  0  0  0  0  0  0  0  0  0  0  0
  151.2591  140.7274  156.9992 C   0  0  0  0  0  0  0  0  0  0  0  0
  149.3090  134.5329  154.1851 N   0  3  0  0  0  0  0  0  0  0  0  0
  147.6845  132.4808  152.0782 H   0  0  0  0  0  0  0  0  0  0  0  0
  148.4277  134.0378  151.7034 H   0  0  0  0  0  0  0  0  0  0  0  0
  146.9441  133.9742  152.6655 H   0  0  0  0  0  0  0  0  0  0  0  0
  148.4009  131.2752  154.1301 H   0  0  0  0  0  0  0  0  0  0  0  0
  149.4501  130.2148  156.1513 H   0  0  0  0  0  0  0  0  0  0  0  0
  150.4096  131.1357  157.2440 H   0  0  0  0  0  0  0  0  0  0  0  0
  152.1172  136.8552  153.9840 H   0  0  0  0  0  0  0  0  0  0  0  0
  150.5059  136.3812  153.4722 H   0  0  0  0  0  0  0  0  0  0  0  0
  151.3918  139.0112  153.9256 H   0  0  0  0  0  0  0  0  0  0  0  0
  149.3881  137.7851  152.9220 H   0  0  0  0  0  0  0  0  0  0  0  0
  149.2580  138.5197  156.0390 H   0  0  0  0  0  0  0  0  0  0  0  0
  150.9372  138.3064  156.4560 H   0  0  0  0  0  0  0  0  0  0  0  0
  149.2360  141.2316  154.4311 H   0  0  0  0  0  0  0  0  0  0  0  0
  151.8508  144.0287  157.7253 H   0  0  0  0  0  0  0  0  0  0  0  0
  154.5185  142.9670  159.7141 H   0  0  0  0  0  0  0  0  0  0  0  0
  153.1147  143.0008  160.7927 H   0  0  0  0  0  0  0  0  0  0  0  0
  153.3149  144.2437  159.5599 H   0  0  0  0  0  0  0  0  0  0  0  0
  153.5004  139.1425  159.8959 H   0  0  0  0  0  0  0  0  0  0  0  0
  153.2253  140.5267  160.9496 H   0  0  0  0  0  0  0  0  0  0  0  0
  154.6181  140.5037  159.8571 H   0  0  0  0  0  0  0  0  0  0  0  0
  152.0615  139.0096  158.0474 H   0  0  0  0  0  0  0  0  0  0  0  0
  149.1960  135.4019  153.6626 H   0  0  0  0  0  0  0  0  0  0  0  0
  150.1144  143.3765  155.5325 H   0  0  0  0  0  0  0  0  0  0  0  0
  1  2  1  0  0  0  0
  1 25  1  0  0  0  0
  1 26  1  0  0  0  0
  1 27  1  0  0  0  0
  2 24  1  0  0  0  0
  2  3  2  0  0  0  0
  3  4  1  0  0  0  0
  3 28  1  0  0  0  0
  4  5  1  0  0  0  0
  4  6  2  0  0  0  0
  5 29  1  0  0  0  0
  5 30  1  0  0  0  0
  6  7  1  0  0  0  0
  7  8  1  0  0  0  0
  7 24  2  0  0  0  0
  8  9  1  0  0  0  0
  9 10  1  0  0  0  0
  9 31  1  0  0  0  0
  9 32  1  0  0  0  0
 10 11  1  0  0  0  0
 10 12  1  0  0  0  0
 10 33  1  0  0  0  0
 11 34  1  0  0  0  0
 12 13  1  0  0  0  0
 12 35  1  0  0  0  0
 12 36  1  0  0  0  0
 13 23  1  0  0  0  0
 13 14  1  0  0  0  0
 14 15  2  0  0  0  0
 14 37  1  0  0  0  0
 15 16  1  0  0  0  0
 15 47  1  0  0  0  0
 16 23  2  0  0  0  0
 16 17  1  0  0  0  0
 17 18  2  0  0  0  0
 17 38  1  0  0  0  0
 18 19  1  0  0  0  0
 18 20  1  0  0  0  0
 19 39  1  0  0  0  0
 19 40  1  0  0  0  0
 19 41  1  0  0  0  0
 20 21  1  0  0  0  0
 20 22  2  0  0  0  0
 21 42  1  0  0  0  0
 21 43  1  0  0  0  0
 21 44  1  0  0  0  0
 22 23  1  0  0  0  0
 22 45  1  0  0  0  0
 24 46  1  0  0  0  0
M  CHG  1  15   1
M  CHG  1  24   1
M  END
> <s_m_source_file>
AV-unprocessed.smi

> <i_m_source_file_index>
1006

> <i_lp_mmshare_version>
43012

> <i_f3d_flags>
0

> <s_epik_input>
W0NIM11jMVtjSF1jKFtOSDJdKW5jKG4xKVNbQ0gyXVtDQEhdKFtPSF0pW0NIMl1uKFtjSF1uMiljKGMyMylbY0hdYyhbQ0gzXSljKFtjSF0zKVtDSDNd

> <s_epik_cmdline>
J2VwaWtfcHl0aG9uJywgJy1waCcsICc3LjAnLCAnLXRuJywgJzgnLCAnLW1hJywgJzIwMCcsICctbWV0YWxfYmluZGluZycsICctaW1hZScsICc8aW5maWxlLm1hZT4nLCAnLW9tYWUnLCAnPG91dGZpbGUubWFlPic=

> <r_lp_tautomer_probability>
0.999762

> <r_epik_Ionization_Penalty>
1.50932

> <r_epik_Ionization_Penalty_Charging>
1.50929

> <r_epik_Ionization_Penalty_Neutral>
3.48853e-05

> <r_epik_State_Penalty>
1.56619

> <r_epik_Charging_Adjusted_Penalty>
3.07548

> <i_epik_Tot_Q>
2

> <i_epik_Tot_abs_Q>
2

> <r_epik_Metal_State_Penalty>
1.82892

> <b_epik_Metal_Only>
0

> <s_lp_Force_Field>
OPLS_2005

> <r_lp_Energy>
17.0634

> <b_lp_Chiralities_Consistent>
1

> <s_lp_Variant>
AV-unprocessed.smi:1006-8

> <Gold.Version>
5.8.1

> <Gold.Id.Protein>
6NUR|6NUR_protein|mol2

> <Gold.PLP.Fitness>
56.4159

> <Gold.PLP.PLP>
-45.2264

> <Gold.PLP.part.hbond>
-3.8524

> <Gold.PLP.part.metal>
0.0000

> <Gold.PLP.part.buried>
-2.4545

> <Gold.PLP.part.nonpolar>
-39.7216

> <Gold.PLP.part.repulsive>
0.2110

> <Gold.PLP.ligand.clash>
0.0000

> <Gold.PLP.ligand.torsion>
1.7425

> <Gold.PLP.Chemscore.Hbond>
4.8715

> <Gold.PLP.Chemscore.CHOScore>
0.0000

> <Gold.PLP.Chemscore.Metal>
0.0000

> <Gold.Chemscore.Hbonds>
donor molecule, donor type, donor heavy atom, donor atom, acceptor molecule, acceptor atom, score
      L1  H    11    34       P1  7948  1.00
      L1  H    15    47       P1  8028  1.82
      L1  H    24    46       P1  7948  1.79

> <Gold.PLP.Chemscore.Internal.Correction>
0.0599

> <Gold.Rescore>
     Score         DG    S(hbond)    S(metal)    S(lipo)     H(rot)  DE(clash)    DE(int)     intcor
     16.70     -18.69       2.37        0.00     110.01       2.96       0.39       1.59       ----

> <Gold.Chemscore.Fitness>
16.7037

> <Gold.Chemscore.DG>
-18.6853

> <Gold.Chemscore.ZeroCoef>
-5.4800

> <Gold.Chemscore.Hbond>
2.3688

> <Gold.Chemscore.Metal>
0.0000

> <Gold.Chemscore.Lipo>
110.0067

> <Gold.Chemscore.Internal_Hbond>
0.0000

> <Gold.Chemscore.DEClash>
0.3902

> <Gold.Chemscore.DEInternal>
1.5915

> <Gold.Chemscore.Rot>
2.9599

> <Gold.Chemscore.Internal.Correction>
   9.000000E+99

> <Gold.Chemscore.Hbonds>
donor molecule, donor type, donor heavy atom, donor atom, acceptor molecule, acceptor atom, score
      L1  H    11    34       P1  7948  0.91
      L1  H    15    47       P1  8028  0.90
      L1  H    24    46       P1  7948  0.43

> <Gold.Chemscore.Hbond.Weighted>
-7.9118

> <Gold.Chemscore.Metal.Weighted>
-0.0000

> <Gold.Chemscore.Lipo.Weighted>
-12.8708

> <Gold.Chemscore.Internal_Hbond.Weighted>
0.0000

> <Gold.Chemscore.DEClash.Weighted>
0.3902

> <Gold.Chemscore.DEInternal.Weighted>
1.5915

> <Gold.Chemscore.Rot.Weighted>
7.5772

> <Gold.Chemscore.Internal.Correction.Weighted>
   9.000000E+99

> <Gold.Protein.RotatedTorsions>
[ 6907 6896 6895 6894 ] final -109.63 input  -60.11 | X-H torsion
[ 7974 7965 7964 7962 ] final   34.19 input  175.53 | X-H torsion
[ 8008 7997 7996 7995 ] final   -9.28 input   59.86 | X-H torsion
[ 10167 10162 10161 10158 ] final   69.40 input  -65.29 | X-H torsion
[ 10718 10713 10712 10709 ] final -172.33 input   66.30 | X-H torsion
[ 10763 10752 10751 10750 ] final  131.76 input  -60.55 | X-H torsion
[ 11005 11000 10999 10996 ] final   -7.09 input  -57.11 | X-H torsion

> <Gold.Protein.ActiveResidues>
 VAL166  LYS551  ARG553  GLY616  TRP617  ASP618  TYR619  PRO620  LYS621  CYS622 
 ASP623  PHE694  ASN695  SER759  ASP760  ASP761  ALA762  ILE779  LEU786  VAL792 
 PHE793  MET794  SER795  GLU796  ALA797  LYS798  CYS799  TRP800  GLU811  SER814 

> <Gold.Protein.RotatedAtoms>
  150.7574  133.9501  159.3482 H   0  0  0  0  0  0  0  0  0  0  0  0  # atno 6907 bound_to 6896
  151.7417  135.0851  160.0326 H   0  0  0  0  0  0  0  0  0  0  0  0  # atno 6908 bound_to 6896
  152.3524  133.6158  159.5990 H   0  0  0  0  0  0  0  0  0  0  0  0  # atno 6909 bound_to 6896
  146.1370  139.6300  142.9189 H   0  0  0  0  0  0  0  0  0  0  0  0  # atno 7974 bound_to 7965
  154.5661  140.2359  155.8261 H   0  0  0  0  0  0  0  0  0  0  0  0  # atno 8008 bound_to 7997
  156.2069  140.3037  155.9606 H   0  0  0  0  0  0  0  0  0  0  0  0  # atno 8009 bound_to 7997
  155.2798  140.0422  157.3005 H   0  0  0  0  0  0  0  0  0  0  0  0  # atno 8010 bound_to 7997
  140.0682  144.5175  150.7246 H   0  0  0  0  0  0  0  0  0  0  0  0  # atno 10167 bound_to 10162
  156.7540  130.9388  151.3115 H   0  0  0  0  0  0  0  0  0  0  0  0  # atno 10718 bound_to 10713
  153.7797  135.3170  155.3364 H   0  0  0  0  0  0  0  0  0  0  0  0  # atno 10763 bound_to 10752
  154.8166  135.4632  154.0664 H   0  0  0  0  0  0  0  0  0  0  0  0  # atno 10764 bound_to 10752
  153.1948  135.6914  153.8391 H   0  0  0  0  0  0  0  0  0  0  0  0  # atno 10765 bound_to 10752
  140.7091  133.8924  155.8737 H   0  0  0  0  0  0  0  0  0  0  0  0  # atno 11005 bound_to 11000
  145.5134  141.0434  143.2475 LP  0  0  0  0  0  0  0  0  0  0  0  0  # atno 17320 bound_to 7965
  144.7750  139.6650  143.7178 LP  0  0  0  0  0  0  0  0  0  0  0  0  # atno 17321 bound_to 7965
  140.7138  143.2527  151.4497 LP  0  0  0  0  0  0  0  0  0  0  0  0  # atno 17342 bound_to 10162
  139.5852  144.1621  152.2019 LP  0  0  0  0  0  0  0  0  0  0  0  0  # atno 17343 bound_to 10162
  157.6764  130.9099  150.0161 LP  0  0  0  0  0  0  0  0  0  0  0  0  # atno 17370 bound_to 10713
  156.1383  130.3642  149.9623 LP  0  0  0  0  0  0  0  0  0  0  0  0  # atno 17371 bound_to 10713
  141.0100  134.1034  157.4231 LP  0  0  0  0  0  0  0  0  0  0  0  0  # atno 17394 bound_to 11000
  139.8876  135.0091  156.6572 LP  0  0  0  0  0  0  0  0  0  0  0  0  # atno 17395 bound_to 11000

$$$$
