AV-unprocessed.smi:3294|AV-procd|sdf|12634|dock1
  -GOLD-   2272018573D 1   1.00000     0.00000
 Structure written by MMmdl.
 38 40  0  0  0  0  0  0  0  0  2 V2000
  148.0496  138.9953  153.8651 C   0  0  0  0  0  0  0  0  0  0  0  0
  149.4882  138.9195  154.3314 C   0  0  0  0  0  0  0  0  0  0  0  0
  149.9868  139.7303  155.3736 C   0  0  0  0  0  0  0  0  0  0  0  0
  151.3461  139.6109  155.7599 C   0  0  0  0  0  0  0  0  0  0  0  0
  151.9375  140.3667  156.8083 N   0  0  0  0  0  0  0  0  0  0  0  0
  151.3414  141.2207  157.6581 C   0  0  0  0  0  0  0  0  0  0  0  0
  150.1475  141.5189  157.6382 O   0  0  0  0  0  0  0  0  0  0  0  0
  152.2244  141.7319  158.5300 N   0  0  0  0  0  0  0  0  0  0  0  0
  151.9459  142.7007  159.5893 C   0  0  0  0  0  0  0  0  0  0  0  0
  151.3914  144.0246  159.0830 C   0  0  0  0  0  0  0  0  0  0  0  0
  152.1392  144.8489  158.0624 C   0  0  0  0  0  0  0  0  0  0  0  0
  152.0146  145.3386  159.4879 C   0  0  0  0  0  0  0  0  0  0  0  0
  153.1158  142.9285  160.5350 C   0  0  0  0  0  0  0  0  0  0  0  0
  153.5606  141.8563  161.5002 C   0  0  0  0  0  0  0  0  0  0  0  0
  152.8995  143.1142  162.0181 C   0  0  0  0  0  0  0  0  0  0  0  0
  152.1539  138.6578  155.1017 C   0  0  0  0  0  0  0  0  0  0  0  0
  151.6023  137.8753  154.0673 C   0  0  0  0  0  0  0  0  0  0  0  0
  150.3067  138.0337  153.7221 N   0  3  0  0  0  0  0  0  0  0  0  0
  147.5216  139.8166  154.3507 H   0  0  0  0  0  0  0  0  0  0  0  0
  147.5262  138.0679  154.0990 H   0  0  0  0  0  0  0  0  0  0  0  0
  148.0055  139.1540  152.7872 H   0  0  0  0  0  0  0  0  0  0  0  0
  149.3182  140.4192  155.8671 H   0  0  0  0  0  0  0  0  0  0  0  0
  152.9415  140.2939  156.8842 H   0  0  0  0  0  0  0  0  0  0  0  0
  153.1831  141.4243  158.4563 H   0  0  0  0  0  0  0  0  0  0  0  0
  151.1542  142.2355  160.1783 H   0  0  0  0  0  0  0  0  0  0  0  0
  150.3084  144.0318  158.9756 H   0  0  0  0  0  0  0  0  0  0  0  0
  153.1169  144.4978  157.7388 H   0  0  0  0  0  0  0  0  0  0  0  0
  151.5513  145.3577  157.3012 H   0  0  0  0  0  0  0  0  0  0  0  0
  151.3438  146.1740  159.6769 H   0  0  0  0  0  0  0  0  0  0  0  0
  152.9081  145.3074  160.1083 H   0  0  0  0  0  0  0  0  0  0  0  0
  153.9120  143.5341  160.1057 H   0  0  0  0  0  0  0  0  0  0  0  0
  152.9833  140.9346  161.5368 H   0  0  0  0  0  0  0  0  0  0  0  0
  154.6300  141.7438  161.6659 H   0  0  0  0  0  0  0  0  0  0  0  0
  153.5282  143.8406  162.5290 H   0  0  0  0  0  0  0  0  0  0  0  0
  151.8856  143.0233  162.4024 H   0  0  0  0  0  0  0  0  0  0  0  0
  153.1902  138.5296  155.3795 H   0  0  0  0  0  0  0  0  0  0  0  0
  152.1536  137.1312  153.5114 H   0  0  0  0  0  0  0  0  0  0  0  0
  149.9273  137.4558  152.9716 H   0  0  0  0  0  0  0  0  0  0  0  0
  1  2  1  0  0  0  0
  1 19  1  0  0  0  0
  1 20  1  0  0  0  0
  1 21  1  0  0  0  0
  2 18  1  0  0  0  0
  2  3  2  0  0  0  0
  3  4  1  0  0  0  0
  3 22  1  0  0  0  0
  4  5  1  0  0  0  0
  4 16  2  0  0  0  0
  5  6  1  0  0  0  0
  5 23  1  0  0  0  0
  6  7  2  0  0  0  0
  6  8  1  0  0  0  0
  8  9  1  0  0  0  0
  8 24  1  0  0  0  0
  9 10  1  0  0  0  0
  9 13  1  0  0  0  0
  9 25  1  0  0  0  0
 10 12  1  0  0  0  0
 10 11  1  0  0  0  0
 10 26  1  0  0  0  0
 11 12  1  0  0  0  0
 11 27  1  0  0  0  0
 11 28  1  0  0  0  0
 12 29  1  0  0  0  0
 12 30  1  0  0  0  0
 13 15  1  0  0  0  0
 13 14  1  0  0  0  0
 13 31  1  0  0  0  0
 14 15  1  0  0  0  0
 14 32  1  0  0  0  0
 14 33  1  0  0  0  0
 15 34  1  0  0  0  0
 15 35  1  0  0  0  0
 16 17  1  0  0  0  0
 16 36  1  0  0  0  0
 17 18  2  0  0  0  0
 17 37  1  0  0  0  0
 18 38  1  0  0  0  0
M  CHG  1  18   1
M  END
> <s_m_source_file>
AV-unprocessed.smi

> <i_m_source_file_index>
3294

> <i_lp_mmshare_version>
43012

> <i_f3d_flags>
0

> <s_epik_input>
W0NIM11jMVtjSF1jKFtjSF1bY0hdbjEpW05IXUMoPU8pW05IXVtDSF0oW0NIXTJbQ0gyXVtDSDJdMilbQ0hdM1tDSDJdW0NIMl0z

> <s_epik_cmdline>
J2VwaWtfcHl0aG9uJywgJy1waCcsICc3LjAnLCAnLXRuJywgJzgnLCAnLW1hJywgJzIwMCcsICctbWV0YWxfYmluZGluZycsICctaW1hZScsICc8aW5maWxlLm1hZT4nLCAnLW9tYWUnLCAnPG91dGZpbGUubWFlPic=

> <r_epik_Ionization_Penalty>
0.432398

> <r_epik_Ionization_Penalty_Charging>
0.432376

> <r_epik_Ionization_Penalty_Neutral>
2.18467e-05

> <r_epik_State_Penalty>
0.433859

> <r_epik_Charging_Adjusted_Penalty>
0.866235

> <i_epik_Tot_Q>
1

> <i_epik_Tot_abs_Q>
1

> <r_epik_Metal_State_Penalty>
0.667026

> <b_epik_Metal_Only>
0

> <s_lp_Force_Field>
OPLS_2005

> <r_lp_Energy>
34.1615

> <b_lp_Chiralities_Consistent>
1

> <s_lp_Variant>
AV-unprocessed.smi:3294-2

> <Gold.Version>
5.8.1

> <Gold.Id.Protein>
6NUR|6NUR_protein|mol2

> <Gold.PLP.Fitness>
51.5649

> <Gold.PLP.PLP>
-46.1589

> <Gold.PLP.part.hbond>
-1.7073

> <Gold.PLP.part.metal>
0.0000

> <Gold.PLP.part.buried>
-5.4734

> <Gold.PLP.part.nonpolar>
-39.5216

> <Gold.PLP.part.repulsive>
0.3516

> <Gold.PLP.ligand.clash>
0.0000

> <Gold.PLP.ligand.torsion>
1.3820

> <Gold.PLP.Chemscore.Hbond>
2.0000

> <Gold.PLP.Chemscore.CHOScore>
0.0000

> <Gold.PLP.Chemscore.Metal>
0.0000

> <Gold.Chemscore.Hbonds>
donor molecule, donor type, donor heavy atom, donor atom, acceptor molecule, acceptor atom, score
      L1  H    18    38       P1  7948  2.00

> <Gold.PLP.Chemscore.Internal.Correction>
2.1699

> <Gold.Rescore>
     Score         DG    S(hbond)    S(metal)    S(lipo)     H(rot)  DE(clash)    DE(int)     intcor
     17.02     -19.84       0.96        0.00     123.90       1.31       0.23       2.59       ----

> <Gold.Chemscore.Fitness>
17.0240

> <Gold.Chemscore.DG>
-19.8402

> <Gold.Chemscore.ZeroCoef>
-5.4800

> <Gold.Chemscore.Hbond>
0.9640

> <Gold.Chemscore.Metal>
0.0000

> <Gold.Chemscore.Lipo>
123.9041

> <Gold.Chemscore.Internal_Hbond>
0.0000

> <Gold.Chemscore.DEClash>
0.2289

> <Gold.Chemscore.DEInternal>
2.5873

> <Gold.Chemscore.Rot>
1.3111

> <Gold.Chemscore.Internal.Correction>
   9.000000E+99

> <Gold.Chemscore.Hbonds>
donor molecule, donor type, donor heavy atom, donor atom, acceptor molecule, acceptor atom, score
      L1  H    18    38       P1  7948  0.26

> <Gold.Chemscore.Hbond.Weighted>
-3.2199

> <Gold.Chemscore.Metal.Weighted>
-0.0000

> <Gold.Chemscore.Lipo.Weighted>
-14.4968

> <Gold.Chemscore.Internal_Hbond.Weighted>
0.0000

> <Gold.Chemscore.DEClash.Weighted>
0.2289

> <Gold.Chemscore.DEInternal.Weighted>
2.5873

> <Gold.Chemscore.Rot.Weighted>
3.3564

> <Gold.Chemscore.Internal.Correction.Weighted>
   9.000000E+99

> <Gold.Protein.RotatedTorsions>
[ 6907 6896 6895 6894 ] final -113.97 input  -60.11 | X-H torsion
[ 7974 7965 7964 7962 ] final  -50.43 input  175.53 | X-H torsion
[ 8008 7997 7996 7995 ] final  -14.82 input   59.86 | X-H torsion
[ 10167 10162 10161 10158 ] final  131.86 input  -65.29 | X-H torsion
[ 10718 10713 10712 10709 ] final  119.33 input   66.30 | X-H torsion
[ 10763 10752 10751 10750 ] final    6.52 input  -60.55 | X-H torsion
[ 11005 11000 10999 10996 ] final  -29.22 input  -57.11 | X-H torsion

> <Gold.Protein.ActiveResidues>
 VAL166  LYS551  ARG553  GLY616  TRP617  ASP618  TYR619  PRO620  LYS621  CYS622 
 ASP623  PHE694  ASN695  SER759  ASP760  ASP761  ALA762  ILE779  LEU786  VAL792 
 PHE793  MET794  SER795  GLU796  ALA797  LYS798  CYS799  TRP800  GLU811  SER814 

> <Gold.Protein.RotatedAtoms>
  150.7868  133.8868  159.3301 H   0  0  0  0  0  0  0  0  0  0  0  0  # atno 6907 bound_to 6896
  151.6717  135.0973  160.0208 H   0  0  0  0  0  0  0  0  0  0  0  0  # atno 6908 bound_to 6896
  152.3933  133.6672  159.6291 H   0  0  0  0  0  0  0  0  0  0  0  0  # atno 6909 bound_to 6896
  145.9299  140.7758  142.9605 H   0  0  0  0  0  0  0  0  0  0  0  0  # atno 7974 bound_to 7965
  154.5179  140.2213  155.9030 H   0  0  0  0  0  0  0  0  0  0  0  0  # atno 8008 bound_to 7997
  156.1629  140.3138  155.8803 H   0  0  0  0  0  0  0  0  0  0  0  0  # atno 8009 bound_to 7997
  155.3715  140.0467  157.3036 H   0  0  0  0  0  0  0  0  0  0  0  0  # atno 8010 bound_to 7997
  139.5365  144.6687  151.4769 H   0  0  0  0  0  0  0  0  0  0  0  0  # atno 10167 bound_to 10162
  157.5969  131.1057  150.7882 H   0  0  0  0  0  0  0  0  0  0  0  0  # atno 10718 bound_to 10713
  153.2468  135.6909  153.7722 H   0  0  0  0  0  0  0  0  0  0  0  0  # atno 10763 bound_to 10752
  153.6831  135.3325  155.3184 H   0  0  0  0  0  0  0  0  0  0  0  0  # atno 10764 bound_to 10752
  154.8378  135.4527  154.1411 H   0  0  0  0  0  0  0  0  0  0  0  0  # atno 10765 bound_to 10752
  140.9277  133.7358  156.0891 H   0  0  0  0  0  0  0  0  0  0  0  0  # atno 11005 bound_to 11000
  144.6763  140.2111  143.7377 LP  0  0  0  0  0  0  0  0  0  0  0  0  # atno 17320 bound_to 7965
  145.8439  139.2143  143.1811 LP  0  0  0  0  0  0  0  0  0  0  0  0  # atno 17321 bound_to 7965
  140.6574  143.8571  150.6850 LP  0  0  0  0  0  0  0  0  0  0  0  0  # atno 17342 bound_to 10162
  140.1954  143.4002  152.1831 LP  0  0  0  0  0  0  0  0  0  0  0  0  # atno 17343 bound_to 10162
  156.8290  130.5009  149.5334 LP  0  0  0  0  0  0  0  0  0  0  0  0  # atno 17370 bound_to 10713
  156.1033  130.5985  150.9930 LP  0  0  0  0  0  0  0  0  0  0  0  0  # atno 17371 bound_to 10713
  140.7904  134.3624  157.5466 LP  0  0  0  0  0  0  0  0  0  0  0  0  # atno 17394 bound_to 11000
  139.8789  134.9136  156.3089 LP  0  0  0  0  0  0  0  0  0  0  0  0  # atno 17395 bound_to 11000

$$$$
