AV-unprocessed.smi:2895|AV-procd|sdf|11132|dock4
  -GOLD-   2272016 03D 1   1.00000     0.00000
 Structure written by MMmdl.
 54 57  0  0  0  0  0  0  0  0  3 V2000
  149.4252  138.8451  154.1424 O   0  0  0  0  0  0  0  0  0  0  0  0
  150.2015  138.6685  155.0822 C   0  0  0  0  0  0  0  0  0  0  0  0
  150.4713  137.4411  155.5590 N   0  0  0  0  0  0  0  0  0  0  0  0
  149.9107  136.1965  155.0445 C   0  0  0  0  0  0  0  0  0  0  0  0
  150.5381  134.9634  155.7170 C   0  0  0  0  0  0  0  0  0  0  0  0
  150.0897  133.6671  155.0696 C   0  0  0  0  0  0  0  0  0  0  0  0
  150.5631  132.4273  155.5532 C   0  0  0  0  0  0  0  0  0  0  0  0
  150.1295  131.2363  154.9355 C   0  0  0  0  0  0  0  0  0  0  0  0
  149.2718  131.2930  153.8929 N   0  3  0  0  0  0  0  0  0  0  0  0
  148.7957  132.4573  153.3995 C   0  0  0  0  0  0  0  0  0  0  0  0
  149.1931  133.6802  153.9781 C   0  0  0  0  0  0  0  0  0  0  0  0
  150.8680  139.6802  155.6954 N   0  0  0  0  0  0  0  0  0  0  0  0
  151.9401  139.5414  156.6944 C   0  0  0  0  0  0  0  0  0  0  0  0
  151.4375  140.0508  158.0620 C   0  0  0  0  0  0  0  0  0  0  0  0
  150.9140  141.4458  157.9901 N   0  3  0  0  0  0  0  0  0  0  0  0
  151.9887  142.4847  157.9897 C   0  0  2  0  0  0  0  0  0  0  0  0
  152.8105  142.5427  159.3015 C   0  0  0  0  0  0  0  0  0  0  0  0
  152.7888  144.0390  159.6662 C   0  0  2  0  0  0  0  0  0  0  0  0
  151.4018  144.3918  160.2300 C   0  0  0  0  0  0  0  0  0  0  0  0
  150.5062  144.3210  158.9806 C   0  0  0  0  0  0  0  0  0  0  0  0
  151.5022  143.9510  157.8597 C   0  0  1  0  0  0  0  0  0  0  0  0
  152.7489  144.7115  158.2997 C   0  0  0  0  0  0  0  0  0  0  0  0
  149.9128  141.5920  156.8951 C   0  0  0  0  0  0  0  0  0  0  0  0
  150.4565  141.0808  155.5474 C   0  0  0  0  0  0  0  0  0  0  0  0
  151.1283  137.3637  156.3218 H   0  0  0  0  0  0  0  0  0  0  0  0
  148.8273  136.1975  155.1770 H   0  0  0  0  0  0  0  0  0  0  0  0
  150.0916  136.1648  153.9697 H   0  0  0  0  0  0  0  0  0  0  0  0
  151.6263  135.0296  155.6776 H   0  0  0  0  0  0  0  0  0  0  0  0
  150.2719  134.9292  156.7741 H   0  0  0  0  0  0  0  0  0  0  0  0
  151.2482  132.3888  156.3879 H   0  0  0  0  0  0  0  0  0  0  0  0
  150.4403  130.2481  155.2416 H   0  0  0  0  0  0  0  0  0  0  0  0
  148.1165  132.3755  152.5633 H   0  0  0  0  0  0  0  0  0  0  0  0
  148.8137  134.6132  153.5870 H   0  0  0  0  0  0  0  0  0  0  0  0
  152.3103  138.5232  156.8103 H   0  0  0  0  0  0  0  0  0  0  0  0
  152.8037  140.1207  156.3659 H   0  0  0  0  0  0  0  0  0  0  0  0
  150.6260  139.4065  158.4028 H   0  0  0  0  0  0  0  0  0  0  0  0
  152.2236  139.9553  158.8102 H   0  0  0  0  0  0  0  0  0  0  0  0
  152.6680  142.2827  157.1605 H   0  0  0  0  0  0  0  0  0  0  0  0
  152.3885  141.9401  160.1067 H   0  0  0  0  0  0  0  0  0  0  0  0
  153.8300  142.1960  159.1276 H   0  0  0  0  0  0  0  0  0  0  0  0
  153.6130  144.3471  160.3102 H   0  0  0  0  0  0  0  0  0  0  0  0
  151.0816  143.7039  161.0133 H   0  0  0  0  0  0  0  0  0  0  0  0
  151.3975  145.3993  160.6483 H   0  0  0  0  0  0  0  0  0  0  0  0
  149.6982  143.5976  159.0895 H   0  0  0  0  0  0  0  0  0  0  0  0
  150.0519  145.2931  158.7851 H   0  0  0  0  0  0  0  0  0  0  0  0
  151.1586  144.2177  156.8598 H   0  0  0  0  0  0  0  0  0  0  0  0
  152.6016  145.7919  158.3529 H   0  0  0  0  0  0  0  0  0  0  0  0
  153.6278  144.5009  157.6875 H   0  0  0  0  0  0  0  0  0  0  0  0
  149.0347  141.0044  157.1669 H   0  0  0  0  0  0  0  0  0  0  0  0
  149.5549  142.6161  156.8037 H   0  0  0  0  0  0  0  0  0  0  0  0
  151.3126  141.6763  155.2279 H   0  0  0  0  0  0  0  0  0  0  0  0
  149.7003  141.2212  154.7737 H   0  0  0  0  0  0  0  0  0  0  0  0
  150.4071  141.6025  158.8497 H   0  0  0  0  0  0  0  0  0  0  0  0
  148.9708  130.4194  153.4600 H   0  0  0  0  0  0  0  0  0  0  0  0
  1  2  2  0  0  0  0
  2  3  1  0  0  0  0
  2 12  1  0  0  0  0
  3  4  1  0  0  0  0
  3 25  1  0  0  0  0
  4  5  1  0  0  0  0
  4 26  1  0  0  0  0
  4 27  1  0  0  0  0
  5  6  1  0  0  0  0
  5 28  1  0  0  0  0
  5 29  1  0  0  0  0
  6 11  1  0  0  0  0
  6  7  2  0  0  0  0
  7  8  1  0  0  0  0
  7 30  1  0  0  0  0
  8  9  2  0  0  0  0
  8 31  1  0  0  0  0
  9 10  1  0  0  0  0
  9 54  1  0  0  0  0
 10 11  2  0  0  0  0
 10 32  1  0  0  0  0
 11 33  1  0  0  0  0
 12 24  1  0  0  0  0
 12 13  1  0  0  0  0
 13 14  1  0  0  0  0
 13 34  1  0  0  0  0
 13 35  1  0  0  0  0
 14 15  1  0  0  0  0
 14 36  1  0  0  0  0
 14 37  1  0  0  0  0
 15 16  1  0  0  0  0
 15 23  1  0  0  0  0
 15 53  1  0  0  0  0
 16 21  1  0  0  0  0
 16 17  1  0  0  0  0
 16 38  1  0  0  0  0
 17 18  1  0  0  0  0
 17 39  1  0  0  0  0
 17 40  1  0  0  0  0
 18 22  1  0  0  0  0
 18 19  1  0  0  0  0
 18 41  1  0  0  0  0
 19 20  1  0  0  0  0
 19 42  1  0  0  0  0
 19 43  1  0  0  0  0
 20 21  1  0  0  0  0
 20 44  1  0  0  0  0
 20 45  1  0  0  0  0
 21 22  1  0  0  0  0
 21 46  1  0  0  0  0
 22 47  1  0  0  0  0
 22 48  1  0  0  0  0
 23 24  1  0  0  0  0
 23 49  1  0  0  0  0
 23 50  1  0  0  0  0
 24 51  1  0  0  0  0
 24 52  1  0  0  0  0
M  CHG  1   9   1
M  CHG  1  15   1
M  END
> <s_m_source_file>
AV-unprocessed.smi

> <i_m_source_file_index>
2895

> <i_lp_mmshare_version>
43012

> <i_f3d_flags>
0

> <s_epik_input>
W0NIMl0xW0NIMl1bQ0BASF0oW0NIMl0yKVtDQEBIXShbQ0gyXVtDQEhdMTIpTihbQ0gyXVtDSDJdMylbQ0gyXVtDSDJdTjNDKD1PKVtOSF1bQ0gyXVtDSDJdYzRbY0hdW2NIXW5bY0hdW2NIXTQ=

> <s_epik_cmdline>
J2VwaWtfcHl0aG9uJywgJy1waCcsICc3LjAnLCAnLXRuJywgJzgnLCAnLW1hJywgJzIwMCcsICctbWV0YWxfYmluZGluZycsICctaW1hZScsICc8aW5maWxlLm1hZT4nLCAnLW9tYWUnLCAnPG91dGZpbGUubWFlPic=

> <r_epik_Ionization_Penalty>
1.44916

> <r_epik_Ionization_Penalty_Charging>
1.44913

> <r_epik_Ionization_Penalty_Neutral>
2.64641e-05

> <r_epik_State_Penalty>
1.53218

> <r_epik_Charging_Adjusted_Penalty>
2.98131

> <i_epik_Tot_Q>
2

> <i_epik_Tot_abs_Q>
2

> <r_epik_Metal_State_Penalty>
1.58241

> <b_epik_Metal_Only>
0

> <s_lp_Force_Field>
OPLS_2005

> <r_lp_Energy>
107.451

> <b_lp_Chiralities_Consistent>
1

> <s_lp_Variant>
AV-unprocessed.smi:2895-5

> <Gold.Version>
5.8.1

> <Gold.Id.Protein>
6NUR|6NUR_protein|mol2

> <Gold.PLP.Fitness>
50.2011

> <Gold.PLP.PLP>
-50.5118

> <Gold.PLP.part.hbond>
0.0000

> <Gold.PLP.part.metal>
0.0000

> <Gold.PLP.part.buried>
-6.5519

> <Gold.PLP.part.nonpolar>
-44.5551

> <Gold.PLP.part.repulsive>
0.3400

> <Gold.PLP.ligand.clash>
0.0000

> <Gold.PLP.ligand.torsion>
0.1978

> <Gold.PLP.Chemscore.Hbond>
0.0000

> <Gold.PLP.Chemscore.CHOScore>
0.0000

> <Gold.PLP.Chemscore.Metal>
0.0000

> <Gold.PLP.Chemscore.Internal.Correction>
0.0849

> <Gold.Rescore>
     Score         DG    S(hbond)    S(metal)    S(lipo)     H(rot)  DE(clash)    DE(int)     intcor
     18.25     -18.54       0.00        0.00     143.55       1.46       0.07       0.23       ----

> <Gold.Chemscore.Fitness>
18.2509

> <Gold.Chemscore.DG>
-18.5445

> <Gold.Chemscore.ZeroCoef>
-5.4800

> <Gold.Chemscore.Hbond>
0.0000

> <Gold.Chemscore.Metal>
0.0000

> <Gold.Chemscore.Lipo>
143.5470

> <Gold.Chemscore.Internal_Hbond>
0.0000

> <Gold.Chemscore.DEClash>
0.0676

> <Gold.Chemscore.DEInternal>
0.2259

> <Gold.Chemscore.Rot>
1.4572

> <Gold.Chemscore.Internal.Correction>
   9.000000E+99

> <Gold.Chemscore.Hbond.Weighted>
-0.0000

> <Gold.Chemscore.Metal.Weighted>
-0.0000

> <Gold.Chemscore.Lipo.Weighted>
-16.7950

> <Gold.Chemscore.Internal_Hbond.Weighted>
0.0000

> <Gold.Chemscore.DEClash.Weighted>
0.0676

> <Gold.Chemscore.DEInternal.Weighted>
0.2259

> <Gold.Chemscore.Rot.Weighted>
3.7305

> <Gold.Chemscore.Internal.Correction.Weighted>
   9.000000E+99

> <Gold.Protein.RotatedTorsions>
[ 6907 6896 6895 6894 ] final  177.24 input  -60.11 | X-H torsion
[ 7974 7965 7964 7962 ] final  -26.90 input  175.53 | X-H torsion
[ 8008 7997 7996 7995 ] final  -40.14 input   59.86 | X-H torsion
[ 10167 10162 10161 10158 ] final  146.04 input  -65.29 | X-H torsion
[ 10718 10713 10712 10709 ] final -115.17 input   66.30 | X-H torsion
[ 10763 10752 10751 10750 ] final  -22.69 input  -60.55 | X-H torsion
[ 11005 11000 10999 10996 ] final  123.52 input  -57.11 | X-H torsion

> <Gold.Protein.ActiveResidues>
 VAL166  LYS551  ARG553  GLY616  TRP617  ASP618  TYR619  PRO620  LYS621  CYS622 
 ASP623  PHE694  ASN695  SER759  ASP760  ASP761  ALA762  ILE779  LEU786  VAL792 
 PHE793  MET794  SER795  GLU796  ALA797  LYS798  CYS799  TRP800  GLU811  SER814 

> <Gold.Protein.RotatedAtoms>
  151.7072  133.3312  159.3281 H   0  0  0  0  0  0  0  0  0  0  0  0  # atno 6907 bound_to 6896
  150.7710  134.6564  159.6325 H   0  0  0  0  0  0  0  0  0  0  0  0  # atno 6908 bound_to 6896
  152.3734  134.6703  160.0220 H   0  0  0  0  0  0  0  0  0  0  0  0  # atno 6909 bound_to 6896
  146.1394  140.5081  142.8658 H   0  0  0  0  0  0  0  0  0  0  0  0  # atno 7974 bound_to 7965
  154.4015  140.1533  156.2978 H   0  0  0  0  0  0  0  0  0  0  0  0  # atno 8008 bound_to 7997
  155.8728  140.3448  155.5811 H   0  0  0  0  0  0  0  0  0  0  0  0  # atno 8009 bound_to 7997
  155.7755  140.0836  157.2076 H   0  0  0  0  0  0  0  0  0  0  0  0  # atno 8010 bound_to 7997
  139.4914  144.5858  151.6781 H   0  0  0  0  0  0  0  0  0  0  0  0  # atno 10167 bound_to 10162
  156.0878  130.6066  150.8871 H   0  0  0  0  0  0  0  0  0  0  0  0  # atno 10718 bound_to 10713
  153.6560  135.6978  153.5193 H   0  0  0  0  0  0  0  0  0  0  0  0  # atno 10763 bound_to 10752
  153.2669  135.4227  155.0948 H   0  0  0  0  0  0  0  0  0  0  0  0  # atno 10764 bound_to 10752
  154.8464  135.3569  154.6105 H   0  0  0  0  0  0  0  0  0  0  0  0  # atno 10765 bound_to 10752
  139.9316  134.9641  156.8272 H   0  0  0  0  0  0  0  0  0  0  0  0  # atno 11005 bound_to 11000
  144.7776  140.5772  143.6627 LP  0  0  0  0  0  0  0  0  0  0  0  0  # atno 17320 bound_to 7965
  145.5081  139.1480  143.3620 LP  0  0  0  0  0  0  0  0  0  0  0  0  # atno 17321 bound_to 7965
  140.5474  144.0481  150.6112 LP  0  0  0  0  0  0  0  0  0  0  0  0  # atno 17342 bound_to 10162
  140.3524  143.2955  152.0473 LP  0  0  0  0  0  0  0  0  0  0  0  0  # atno 17343 bound_to 10162
  157.6018  131.0941  150.8947 LP  0  0  0  0  0  0  0  0  0  0  0  0  # atno 17370 bound_to 10713
  156.9103  130.5278  149.5280 LP  0  0  0  0  0  0  0  0  0  0  0  0  # atno 17371 bound_to 10713
  140.6186  134.0015  155.7608 LP  0  0  0  0  0  0  0  0  0  0  0  0  # atno 17394 bound_to 11000
  141.0908  133.9919  157.3240 LP  0  0  0  0  0  0  0  0  0  0  0  0  # atno 17395 bound_to 11000

$$$$
