AV-unprocessed.smi:2058|AV-procd|sdf|8345|dock6
  -GOLD-   2272011 13D 1   1.00000     0.00000
 Structure written by MMmdl.
 42 43  0  0  0  0  0  0  0  0  1 V2000
  146.4004  138.2497  150.3585 C   0  0  0  0  0  0  0  0  0  0  0  0
  146.1995  138.1328  151.8771 C   0  0  1  0  0  0  0  0  0  0  0  0
  145.6076  136.7688  152.2855 C   0  0  0  0  0  0  0  0  0  0  0  0
  144.3591  136.5637  151.6590 O   0  0  0  0  0  0  0  0  0  0  0  0
  147.4799  138.3524  152.5446 N   0  0  0  0  0  0  0  0  0  0  0  0
  147.7238  139.2913  153.4701 C   0  0  0  0  0  0  0  0  0  0  0  0
  146.8728  140.0822  153.8761 O   0  0  0  0  0  0  0  0  0  0  0  0
  148.9965  139.2304  153.8971 N   0  0  0  0  0  0  0  0  0  0  0  0
  149.6399  140.0363  154.8744 C   0  0  0  0  0  0  0  0  0  0  0  0
  150.9251  139.6546  155.3050 C   0  0  0  0  0  0  0  0  0  0  0  0
  151.5913  140.4400  156.2641 C   0  0  0  0  0  0  0  0  0  0  0  0
  150.9575  141.6006  156.7655 C   0  0  0  0  0  0  0  0  0  0  0  0
  151.6049  142.3971  157.7344 N   0  0  0  0  0  0  0  0  0  0  0  0
  151.5584  141.8729  159.1009 C   0  0  0  0  0  0  0  0  0  0  0  0
  152.6005  142.5639  159.9965 C   0  0  0  0  0  0  0  0  0  0  0  0
  152.4491  144.0912  159.9448 C   0  0  0  0  0  0  0  0  0  0  0  0
  152.5118  144.5766  158.4891 C   0  0  0  0  0  0  0  0  0  0  0  0
  151.4706  143.8515  157.6192 C   0  0  0  0  0  0  0  0  0  0  0  0
  149.7302  141.9811  156.3334 N   0  0  0  0  0  0  0  0  0  0  0  0
  149.0926  141.2234  155.4162 C   0  0  0  0  0  0  0  0  0  0  0  0
  145.4559  138.1379  149.8255 H   0  0  0  0  0  0  0  0  0  0  0  0
  147.0837  137.4851  149.9877 H   0  0  0  0  0  0  0  0  0  0  0  0
  146.8123  139.2233  150.0908 H   0  0  0  0  0  0  0  0  0  0  0  0
  145.5135  138.9235  152.1881 H   0  0  0  0  0  0  0  0  0  0  0  0
  146.2849  135.9535  152.0294 H   0  0  0  0  0  0  0  0  0  0  0  0
  145.4451  136.7242  153.3630 H   0  0  0  0  0  0  0  0  0  0  0  0
  144.2712  137.1867  150.9540 H   0  0  0  0  0  0  0  0  0  0  0  0
  148.2386  137.7431  152.2769 H   0  0  0  0  0  0  0  0  0  0  0  0
  149.5538  138.4759  153.5239 H   0  0  0  0  0  0  0  0  0  0  0  0
  151.3979  138.7672  154.9097 H   0  0  0  0  0  0  0  0  0  0  0  0
  152.5795  140.1547  156.5931 H   0  0  0  0  0  0  0  0  0  0  0  0
  150.5574  142.0382  159.5017 H   0  0  0  0  0  0  0  0  0  0  0  0
  151.7291  140.7975  159.1260 H   0  0  0  0  0  0  0  0  0  0  0  0
  152.5006  142.2123  161.0237 H   0  0  0  0  0  0  0  0  0  0  0  0
  153.6032  142.2851  159.6696 H   0  0  0  0  0  0  0  0  0  0  0  0
  151.4967  144.3823  160.3894 H   0  0  0  0  0  0  0  0  0  0  0  0
  153.2310  144.5683  160.5364 H   0  0  0  0  0  0  0  0  0  0  0  0
  152.3486  145.6535  158.4453 H   0  0  0  0  0  0  0  0  0  0  0  0
  153.5101  144.3978  158.0876 H   0  0  0  0  0  0  0  0  0  0  0  0
  151.5972  144.1598  156.5806 H   0  0  0  0  0  0  0  0  0  0  0  0
  150.4638  144.1430  157.9222 H   0  0  0  0  0  0  0  0  0  0  0  0
  148.1319  141.6046  155.1076 H   0  0  0  0  0  0  0  0  0  0  0  0
  1  2  1  0  0  0  0
  1 21  1  0  0  0  0
  1 22  1  0  0  0  0
  1 23  1  0  0  0  0
  2  3  1  0  0  0  0
  2  5  1  0  0  0  0
  2 24  1  0  0  0  0
  3  4  1  0  0  0  0
  3 25  1  0  0  0  0
  3 26  1  0  0  0  0
  4 27  1  0  0  0  0
  5  6  1  0  0  0  0
  5 28  1  0  0  0  0
  6  7  2  0  0  0  0
  6  8  1  0  0  0  0
  8  9  1  0  0  0  0
  8 29  1  0  0  0  0
  9 20  1  0  0  0  0
  9 10  2  0  0  0  0
 10 11  1  0  0  0  0
 10 30  1  0  0  0  0
 11 12  2  0  0  0  0
 11 31  1  0  0  0  0
 12 13  1  0  0  0  0
 12 19  1  0  0  0  0
 13 18  1  0  0  0  0
 13 14  1  0  0  0  0
 14 15  1  0  0  0  0
 14 32  1  0  0  0  0
 14 33  1  0  0  0  0
 15 16  1  0  0  0  0
 15 34  1  0  0  0  0
 15 35  1  0  0  0  0
 16 17  1  0  0  0  0
 16 36  1  0  0  0  0
 16 37  1  0  0  0  0
 17 18  1  0  0  0  0
 17 38  1  0  0  0  0
 17 39  1  0  0  0  0
 18 40  1  0  0  0  0
 18 41  1  0  0  0  0
 19 20  2  0  0  0  0
 20 42  1  0  0  0  0
M  END
> <s_m_source_file>
AV-unprocessed.smi

> <i_m_source_file_index>
2058

> <i_lp_mmshare_version>
43012

> <i_f3d_flags>
0

> <s_epik_input>
W09IXVtDSDJdW0NAQEhdKFtDSDNdKVtOSF1DKD1PKVtOSF1jMVtjSF1bY0hdYyhuW2NIXTEpTjJbQ0gyXVtDSDJdW0NIMl1bQ0gyXVtDSDJdMg==

> <s_epik_cmdline>
J2VwaWtfcHl0aG9uJywgJy1waCcsICc3LjAnLCAnLXRuJywgJzgnLCAnLW1hJywgJzIwMCcsICctbWV0YWxfYmluZGluZycsICctaW1hZScsICc8aW5maWxlLm1hZT4nLCAnLW9tYWUnLCAnPG91dGZpbGUubWFlPic=

> <r_lp_tautomer_probability>
1

> <r_epik_Ionization_Penalty>
0.104828

> <r_epik_Ionization_Penalty_Charging>
0

> <r_epik_Ionization_Penalty_Neutral>
0.104828

> <r_epik_State_Penalty>
0.0887547

> <r_epik_Charging_Adjusted_Penalty>
0.0887547

> <i_epik_Tot_Q>
0

> <i_epik_Tot_abs_Q>
0

> <r_epik_Metal_State_Penalty>
0.0759464

> <b_epik_Metal_Only>
0

> <s_lp_Force_Field>
OPLS_2005

> <r_lp_Energy>
18.2312

> <b_lp_Chiralities_Consistent>
1

> <s_lp_Variant>
AV-unprocessed.smi:2058-2

> <Gold.Version>
5.8.1

> <Gold.Id.Protein>
6NUR|6NUR_protein|mol2

> <Gold.PLP.Fitness>
44.5703

> <Gold.PLP.PLP>
-39.3411

> <Gold.PLP.part.hbond>
-4.0000

> <Gold.PLP.part.metal>
0.0000

> <Gold.PLP.part.buried>
4.2691

> <Gold.PLP.part.nonpolar>
-42.0097

> <Gold.PLP.part.repulsive>
1.6748

> <Gold.PLP.ligand.clash>
0.0000

> <Gold.PLP.ligand.torsion>
0.5958

> <Gold.PLP.Chemscore.Hbond>
2.0000

> <Gold.PLP.Chemscore.CHOScore>
0.0000

> <Gold.PLP.Chemscore.Metal>
0.0000

> <Gold.Chemscore.Hbonds>
donor molecule, donor type, donor heavy atom, donor atom, acceptor molecule, acceptor atom, score
      L1  H     4    27       P1 10171  1.00
      L1  H     5    28       P1  7948  1.00

> <Gold.PLP.Chemscore.Internal.Correction>
0.4208

> <Gold.Rescore>
     Score         DG    S(hbond)    S(metal)    S(lipo)     H(rot)  DE(clash)    DE(int)     intcor
     15.78     -19.47       2.00        0.00     107.29       2.05       2.01       1.67       ----

> <Gold.Chemscore.Fitness>
15.7806

> <Gold.Chemscore.DG>
-19.4665

> <Gold.Chemscore.ZeroCoef>
-5.4800

> <Gold.Chemscore.Hbond>
1.9969

> <Gold.Chemscore.Metal>
0.0000

> <Gold.Chemscore.Lipo>
107.2887

> <Gold.Chemscore.Internal_Hbond>
0.0000

> <Gold.Chemscore.DEClash>
2.0150

> <Gold.Chemscore.DEInternal>
1.6709

> <Gold.Chemscore.Rot>
2.0453

> <Gold.Chemscore.Internal.Correction>
   9.000000E+99

> <Gold.Chemscore.Hbonds>
donor molecule, donor type, donor heavy atom, donor atom, acceptor molecule, acceptor atom, score
      L1  H     4    27       P1 10171  1.00
      L1  H     5    28       P1  7948  0.98

> <Gold.Chemscore.Hbond.Weighted>
-6.6697

> <Gold.Chemscore.Metal.Weighted>
-0.0000

> <Gold.Chemscore.Lipo.Weighted>
-12.5528

> <Gold.Chemscore.Internal_Hbond.Weighted>
0.0000

> <Gold.Chemscore.DEClash.Weighted>
2.0150

> <Gold.Chemscore.DEInternal.Weighted>
1.6709

> <Gold.Chemscore.Rot.Weighted>
5.2360

> <Gold.Chemscore.Internal.Correction.Weighted>
   9.000000E+99

> <Gold.Protein.RotatedTorsions>
[ 6907 6896 6895 6894 ] final -178.60 input  -60.11 | X-H torsion
[ 7974 7965 7964 7962 ] final  158.21 input  175.53 | X-H torsion
[ 8008 7997 7996 7995 ] final  -78.06 input   59.86 | X-H torsion
[ 10167 10162 10161 10158 ] final  -29.18 input  -65.29 | X-H torsion
[ 10718 10713 10712 10709 ] final  -92.60 input   66.30 | X-H torsion
[ 10763 10752 10751 10750 ] final   76.37 input  -60.55 | X-H torsion
[ 11005 11000 10999 10996 ] final  -53.55 input  -57.11 | X-H torsion

> <Gold.Protein.ActiveResidues>
 VAL166  LYS551  ARG553  GLY616  TRP617  ASP618  TYR619  PRO620  LYS621  CYS622 
 ASP623  PHE694  ASN695  SER759  ASP760  ASP761  ALA762  ILE779  LEU786  VAL792 
 PHE793  MET794  SER795  GLU796  ALA797  LYS798  CYS799  TRP800  GLU811  SER814 

> <Gold.Protein.RotatedAtoms>
  151.6398  133.3326  159.3127 H   0  0  0  0  0  0  0  0  0  0  0  0  # atno 6907 bound_to 6896
  150.8014  134.7114  159.6615 H   0  0  0  0  0  0  0  0  0  0  0  0  # atno 6908 bound_to 6896
  152.4106  134.6135  160.0083 H   0  0  0  0  0  0  0  0  0  0  0  0  # atno 6909 bound_to 6896
  144.7859  139.7447  143.6241 H   0  0  0  0  0  0  0  0  0  0  0  0  # atno 7974 bound_to 7965
  154.5654  140.0700  156.8883 H   0  0  0  0  0  0  0  0  0  0  0  0  # atno 8008 bound_to 7997
  155.2733  140.3366  155.4245 H   0  0  0  0  0  0  0  0  0  0  0  0  # atno 8009 bound_to 7997
  156.2076  140.1746  156.7751 H   0  0  0  0  0  0  0  0  0  0  0  0  # atno 8010 bound_to 7997
  140.7263  143.3949  151.1365 H   0  0  0  0  0  0  0  0  0  0  0  0  # atno 10167 bound_to 10162
  156.0004  130.4993  150.5650 H   0  0  0  0  0  0  0  0  0  0  0  0  # atno 10718 bound_to 10713
  153.0721  135.4954  154.8326 H   0  0  0  0  0  0  0  0  0  0  0  0  # atno 10763 bound_to 10752
  154.7037  135.3006  154.9305 H   0  0  0  0  0  0  0  0  0  0  0  0  # atno 10764 bound_to 10752
  154.0021  135.6765  153.4813 H   0  0  0  0  0  0  0  0  0  0  0  0  # atno 10765 bound_to 10752
  141.0982  133.6621  156.4189 H   0  0  0  0  0  0  0  0  0  0  0  0  # atno 11005 bound_to 11000
  146.2090  139.5433  142.9694 LP  0  0  0  0  0  0  0  0  0  0  0  0  # atno 17320 bound_to 7965
  145.5924  141.0367  143.2063 LP  0  0  0  0  0  0  0  0  0  0  0  0  # atno 17321 bound_to 7965
  139.7560  143.8707  152.3089 LP  0  0  0  0  0  0  0  0  0  0  0  0  # atno 17342 bound_to 10162
  139.8577  144.7133  150.9137 LP  0  0  0  0  0  0  0  0  0  0  0  0  # atno 17343 bound_to 10162
  157.3553  131.0740  151.1680 LP  0  0  0  0  0  0  0  0  0  0  0  0  # atno 17370 bound_to 10713
  157.2483  130.6602  149.5920 LP  0  0  0  0  0  0  0  0  0  0  0  0  # atno 17371 bound_to 10713
  140.5089  134.6414  157.5277 LP  0  0  0  0  0  0  0  0  0  0  0  0  # atno 17394 bound_to 11000
  139.9824  134.7115  155.9834 LP  0  0  0  0  0  0  0  0  0  0  0  0  # atno 17395 bound_to 11000

$$$$
