AV-unprocessed.smi:1619|AV-procd|sdf|6488|dock9
  -GOLD-   22720 7153D 1   1.00000     0.00000
 Structure written by MMmdl.
 44 46  0  0  0  0  0  0  0  0  2 V2000
  152.7834  142.9688  161.1076 C   0  0  0  0  0  0  0  0  0  0  0  0
  152.2699  142.5799  159.7324 C   0  0  0  0  0  0  0  0  0  0  0  0
  152.1394  141.2106  159.4097 C   0  0  0  0  0  0  0  0  0  0  0  0
  151.6677  140.8071  158.1417 C   0  0  0  0  0  0  0  0  0  0  0  0
  151.4639  139.5414  157.6197 N   0  0  0  0  0  0  0  0  0  0  0  0
  151.0192  139.8227  156.3988 C   0  0  0  0  0  0  0  0  0  0  0  0
  150.8975  141.1238  156.0713 N   0  0  0  0  0  0  0  0  0  0  0  0
  150.4312  141.6685  154.8090 C   0  0  0  0  0  0  0  0  0  0  0  0
  149.0321  141.1528  154.4173 C   0  0  1  0  0  0  0  0  0  0  0  0
  149.1608  139.7965  154.0425 O   0  0  0  0  0  0  0  0  0  0  0  0
  147.9919  141.2594  155.5539 C   0  0  0  0  0  0  0  0  0  0  0  0
  147.1457  142.4692  155.4266 N   0  3  0  0  0  0  0  0  0  0  0  0
  146.4967  142.6180  154.1091 C   0  0  0  0  0  0  0  0  0  0  0  0
  145.3056  143.5361  154.3608 C   0  0  0  0  0  0  0  0  0  0  0  0
  144.8240  143.0959  155.7397 C   0  0  0  0  0  0  0  0  0  0  0  0
  146.0927  142.6201  156.4608 C   0  0  0  0  0  0  0  0  0  0  0  0
  151.3265  141.8191  157.1971 C   0  0  0  0  0  0  0  0  0  0  0  0
  151.4537  143.1851  157.5058 C   0  0  0  0  0  0  0  0  0  0  0  0
  151.9251  143.5707  158.7782 C   0  0  0  0  0  0  0  0  0  0  0  0
  152.0569  145.0484  159.1031 C   0  0  0  0  0  0  0  0  0  0  0  0
  153.0183  142.0898  161.7084 H   0  0  0  0  0  0  0  0  0  0  0  0
  152.0340  143.5503  161.6445 H   0  0  0  0  0  0  0  0  0  0  0  0
  153.6908  143.5669  161.0222 H   0  0  0  0  0  0  0  0  0  0  0  0
  152.4030  140.4558  160.1362 H   0  0  0  0  0  0  0  0  0  0  0  0
  150.7596  139.0366  155.7046 H   0  0  0  0  0  0  0  0  0  0  0  0
  150.4268  142.7564  154.8897 H   0  0  0  0  0  0  0  0  0  0  0  0
  151.1575  141.4156  154.0348 H   0  0  0  0  0  0  0  0  0  0  0  0
  148.6871  141.7092  153.5457 H   0  0  0  0  0  0  0  0  0  0  0  0
  149.0642  139.7319  153.1040 H   0  0  0  0  0  0  0  0  0  0  0  0
  147.3553  140.3731  155.5450 H   0  0  0  0  0  0  0  0  0  0  0  0
  148.4776  141.2808  156.5305 H   0  0  0  0  0  0  0  0  0  0  0  0
  147.1846  143.0166  153.3630 H   0  0  0  0  0  0  0  0  0  0  0  0
  146.1431  141.6464  153.7595 H   0  0  0  0  0  0  0  0  0  0  0  0
  145.6376  144.5746  154.3965 H   0  0  0  0  0  0  0  0  0  0  0  0
  144.5347  143.4531  153.5938 H   0  0  0  0  0  0  0  0  0  0  0  0
  144.3074  143.8919  156.2770 H   0  0  0  0  0  0  0  0  0  0  0  0
  144.1281  142.2623  155.6341 H   0  0  0  0  0  0  0  0  0  0  0  0
  145.9000  141.6855  156.9904 H   0  0  0  0  0  0  0  0  0  0  0  0
  146.4262  143.3531  157.1962 H   0  0  0  0  0  0  0  0  0  0  0  0
  151.1925  143.9307  156.7696 H   0  0  0  0  0  0  0  0  0  0  0  0
  151.7122  145.6703  158.2763 H   0  0  0  0  0  0  0  0  0  0  0  0
  153.0977  145.3039  159.3032 H   0  0  0  0  0  0  0  0  0  0  0  0
  151.4628  145.3025  159.9812 H   0  0  0  0  0  0  0  0  0  0  0  0
  147.7571  143.2675  155.5256 H   0  0  0  0  0  0  0  0  0  0  0  0
  1  2  1  0  0  0  0
  1 21  1  0  0  0  0
  1 22  1  0  0  0  0
  1 23  1  0  0  0  0
  2 19  1  0  0  0  0
  2  3  2  0  0  0  0
  3  4  1  0  0  0  0
  3 24  1  0  0  0  0
  4 17  2  0  0  0  0
  4  5  1  0  0  0  0
  5  6  2  0  0  0  0
  6  7  1  0  0  0  0
  6 25  1  0  0  0  0
  7  8  1  0  0  0  0
  7 17  1  0  0  0  0
  8  9  1  0  0  0  0
  8 26  1  0  0  0  0
  8 27  1  0  0  0  0
  9 10  1  0  0  0  0
  9 11  1  0  0  0  0
  9 28  1  0  0  0  0
 10 29  1  0  0  0  0
 11 12  1  0  0  0  0
 11 30  1  0  0  0  0
 11 31  1  0  0  0  0
 12 16  1  0  0  0  0
 12 13  1  0  0  0  0
 12 44  1  0  0  0  0
 13 14  1  0  0  0  0
 13 32  1  0  0  0  0
 13 33  1  0  0  0  0
 14 15  1  0  0  0  0
 14 34  1  0  0  0  0
 14 35  1  0  0  0  0
 15 16  1  0  0  0  0
 15 36  1  0  0  0  0
 15 37  1  0  0  0  0
 16 38  1  0  0  0  0
 16 39  1  0  0  0  0
 17 18  1  0  0  0  0
 18 19  2  0  0  0  0
 18 40  1  0  0  0  0
 19 20  1  0  0  0  0
 20 41  1  0  0  0  0
 20 42  1  0  0  0  0
 20 43  1  0  0  0  0
M  CHG  1  12   1
M  END
> <s_m_source_file>
AV-unprocessed.smi

> <i_m_source_file_index>
1619

> <i_lp_mmshare_version>
43012

> <i_f3d_flags>
0

> <s_epik_input>
W0NIM11jKFtjSF0xKWMoW0NIM10pW2NIXWMoYzEyKW4oW2NIXW4yKVtDSDJdW0NASF0oW09IXSlbQ0gyXU4zW0NIMl1bQ0gyXVtDSDJdW0NIMl0z

> <s_epik_cmdline>
J2VwaWtfcHl0aG9uJywgJy1waCcsICc3LjAnLCAnLXRuJywgJzgnLCAnLW1hJywgJzIwMCcsICctbWV0YWxfYmluZGluZycsICctaW1hZScsICc8aW5maWxlLm1hZT4nLCAnLW9tYWUnLCAnPG91dGZpbGUubWFlPic=

> <r_epik_Ionization_Penalty>
0.0947557

> <r_epik_Ionization_Penalty_Charging>
0.00674132

> <r_epik_Ionization_Penalty_Neutral>
0.0880144

> <r_epik_State_Penalty>
0.0806172

> <r_epik_Charging_Adjusted_Penalty>
0.0873585

> <i_epik_Tot_Q>
1

> <i_epik_Tot_abs_Q>
1

> <r_epik_Metal_State_Penalty>
8.03852e-05

> <b_epik_Metal_Only>
0

> <s_lp_Force_Field>
OPLS_2005

> <r_lp_Energy>
32.1533

> <b_lp_Chiralities_Consistent>
1

> <s_lp_Variant>
AV-unprocessed.smi:1619-2

> <Gold.Version>
5.8.1

> <Gold.Id.Protein>
6NUR|6NUR_protein|mol2

> <Gold.PLP.Fitness>
49.9844

> <Gold.PLP.PLP>
-42.2024

> <Gold.PLP.part.hbond>
-2.0000

> <Gold.PLP.part.metal>
0.0000

> <Gold.PLP.part.buried>
-2.6963

> <Gold.PLP.part.nonpolar>
-37.3137

> <Gold.PLP.part.repulsive>
0.0725

> <Gold.PLP.ligand.clash>
0.0000

> <Gold.PLP.ligand.torsion>
0.6211

> <Gold.PLP.Chemscore.Hbond>
3.0000

> <Gold.PLP.Chemscore.CHOScore>
0.0000

> <Gold.PLP.Chemscore.Metal>
0.0000

> <Gold.Chemscore.Hbonds>
donor molecule, donor type, donor heavy atom, donor atom, acceptor molecule, acceptor atom, score
      L1  H    10    29       P1  7957  0.98
      L1  H    12    44       P1  8028  2.00

> <Gold.PLP.Chemscore.Internal.Correction>
0.0241

> <Gold.Rescore>
     Score         DG    S(hbond)    S(metal)    S(lipo)     H(rot)  DE(clash)    DE(int)     intcor
     15.24     -20.33       1.78        0.00     120.45       2.02       3.44       1.65       ----

> <Gold.Chemscore.Fitness>
15.2400

> <Gold.Chemscore.DG>
-20.3270

> <Gold.Chemscore.ZeroCoef>
-5.4800

> <Gold.Chemscore.Hbond>
1.7760

> <Gold.Chemscore.Metal>
0.0000

> <Gold.Chemscore.Lipo>
120.4544

> <Gold.Chemscore.Internal_Hbond>
0.0000

> <Gold.Chemscore.DEClash>
3.4351

> <Gold.Chemscore.DEInternal>
1.6519

> <Gold.Chemscore.Rot>
2.0227

> <Gold.Chemscore.Internal.Correction>
   9.000000E+99

> <Gold.Chemscore.Hbonds>
donor molecule, donor type, donor heavy atom, donor atom, acceptor molecule, acceptor atom, score
      L1  H    10    29       P1  7957  0.89
      L1  H    12    44       P1  8028  0.35

> <Gold.Chemscore.Hbond.Weighted>
-5.9318

> <Gold.Chemscore.Metal.Weighted>
-0.0000

> <Gold.Chemscore.Lipo.Weighted>
-14.0932

> <Gold.Chemscore.Internal_Hbond.Weighted>
0.0000

> <Gold.Chemscore.DEClash.Weighted>
3.4351

> <Gold.Chemscore.DEInternal.Weighted>
1.6519

> <Gold.Chemscore.Rot.Weighted>
5.1780

> <Gold.Chemscore.Internal.Correction.Weighted>
   9.000000E+99

> <Gold.Protein.RotatedTorsions>
[ 6907 6896 6895 6894 ] final -176.16 input  -60.11 | X-H torsion
[ 7974 7965 7964 7962 ] final   39.21 input  175.53 | X-H torsion
[ 8008 7997 7996 7995 ] final   85.78 input   59.86 | X-H torsion
[ 10167 10162 10161 10158 ] final  102.01 input  -65.29 | X-H torsion
[ 10718 10713 10712 10709 ] final   -8.19 input   66.30 | X-H torsion
[ 10763 10752 10751 10750 ] final  137.07 input  -60.55 | X-H torsion
[ 11005 11000 10999 10996 ] final   50.29 input  -57.11 | X-H torsion

> <Gold.Protein.ActiveResidues>
 VAL166  LYS551  ARG553  GLY616  TRP617  ASP618  TYR619  PRO620  LYS621  CYS622 
 ASP623  PHE694  ASN695  SER759  ASP760  ASP761  ALA762  ILE779  LEU786  VAL792 
 PHE793  MET794  SER795  GLU796  ALA797  LYS798  CYS799  TRP800  GLU811  SER814 

> <Gold.Protein.RotatedAtoms>
  151.6003  133.3357  159.3045 H   0  0  0  0  0  0  0  0  0  0  0  0  # atno 6907 bound_to 6896
  150.8211  134.7423  159.6784 H   0  0  0  0  0  0  0  0  0  0  0  0  # atno 6908 bound_to 6896
  152.4305  134.5793  159.9995 H   0  0  0  0  0  0  0  0  0  0  0  0  # atno 6909 bound_to 6896
  146.1002  139.5679  142.9419 H   0  0  0  0  0  0  0  0  0  0  0  0  # atno 7974 bound_to 7965
  155.9543  140.3398  155.6435 H   0  0  0  0  0  0  0  0  0  0  0  0  # atno 8008 bound_to 7997
  155.6879  140.0745  157.2478 H   0  0  0  0  0  0  0  0  0  0  0  0  # atno 8009 bound_to 7997
  154.4129  140.1662  156.2042 H   0  0  0  0  0  0  0  0  0  0  0  0  # atno 8010 bound_to 7997
  139.7387  144.7017  151.0608 H   0  0  0  0  0  0  0  0  0  0  0  0  # atno 10167 bound_to 10162
  156.7062  130.5108  149.5904 H   0  0  0  0  0  0  0  0  0  0  0  0  # atno 10718 bound_to 10713
  153.8669  135.3060  155.3440 H   0  0  0  0  0  0  0  0  0  0  0  0  # atno 10763 bound_to 10752
  154.7823  135.4828  153.9874 H   0  0  0  0  0  0  0  0  0  0  0  0  # atno 10764 bound_to 10752
  153.1429  135.6827  153.9095 H   0  0  0  0  0  0  0  0  0  0  0  0  # atno 10765 bound_to 10752
  140.1030  134.5056  155.8745 H   0  0  0  0  0  0  0  0  0  0  0  0  # atno 11005 bound_to 11000
  145.5870  141.0375  143.2091 LP  0  0  0  0  0  0  0  0  0  0  0  0  # atno 17320 bound_to 7965
  144.7426  139.7406  143.7304 LP  0  0  0  0  0  0  0  0  0  0  0  0  # atno 17321 bound_to 7965
  140.7783  143.4951  150.9843 LP  0  0  0  0  0  0  0  0  0  0  0  0  # atno 17342 bound_to 10162
  139.8639  143.7279  152.3171 LP  0  0  0  0  0  0  0  0  0  0  0  0  # atno 17343 bound_to 10162
  156.1693  130.6426  151.0818 LP  0  0  0  0  0  0  0  0  0  0  0  0  # atno 17370 bound_to 10713
  157.6954  131.0796  150.6985 LP  0  0  0  0  0  0  0  0  0  0  0  0  # atno 17371 bound_to 10713
  141.2110  133.6702  156.6555 LP  0  0  0  0  0  0  0  0  0  0  0  0  # atno 17394 bound_to 11000
  140.3194  134.8020  157.4240 LP  0  0  0  0  0  0  0  0  0  0  0  0  # atno 17395 bound_to 11000

$$$$
