AV-unprocessed.smi:232|AV-procd|sdf|1782|dock6
  -GOLD-   2262020333D 1   1.00000     0.00000
 Structure written by MMmdl.
 52 55  0  0  0  0  0  0  0  0  1 V2000
  153.6839  141.8511  161.4816 C   0  0  0  0  0  0  0  0  0  0  0  0
  153.7203  142.0599  159.9626 C   0  0  0  0  0  0  0  0  0  0  0  0
  152.3364  142.3947  159.3642 C   0  0  1  0  0  0  0  0  0  0  0  0
  152.1140  143.9053  159.1540 C   0  0  0  0  0  0  0  0  0  0  0  0
  151.5841  144.0513  157.7228 C   0  0  0  0  0  0  0  0  0  0  0  0
  151.1958  142.6331  157.3021 C   0  0  2  0  0  0  0  0  0  0  0  0
  149.7165  142.3291  157.6196 C   0  0  0  0  0  0  0  0  0  0  0  0
  152.1272  141.7928  158.0474 N   0  0  0  0  0  0  0  0  0  0  0  0
  151.9975  140.4472  157.8998 C   0  0  0  0  0  0  0  0  0  0  0  0
  152.0031  139.6385  158.9933 N   0  0  0  0  0  0  0  0  0  0  0  0
  151.8484  138.3184  158.8602 C   0  0  0  0  0  0  0  0  0  0  0  0
  151.6679  137.6084  157.7455 N   0  0  0  0  0  0  0  0  0  0  0  0
  151.6621  138.4120  156.6439 C   0  0  0  0  0  0  0  0  0  0  0  0
  151.8238  139.8266  156.6306 C   0  0  0  0  0  0  0  0  0  0  0  0
  151.7767  140.2934  155.3221 N   0  0  0  0  0  0  0  0  0  0  0  0
  151.5833  139.2204  154.6058 C   0  0  0  0  0  0  0  0  0  0  0  0
  151.4771  138.0492  155.3211 N   0  0  0  0  0  0  0  0  0  0  0  0
  151.2506  136.7196  154.7817 C   0  0  0  0  0  0  0  0  0  0  0  0
  149.9346  136.0696  155.2682 C   0  0  1  0  0  0  0  0  0  0  0  0
  148.9481  136.4588  154.3343 O   0  0  0  0  0  0  0  0  0  0  0  0
  149.9312  134.5232  155.3194 C   0  0  1  0  0  0  0  0  0  0  0  0
  150.0434  133.7989  153.9747 C   0  0  0  0  0  0  0  0  0  0  0  0
  150.6580  132.4554  154.3286 C   0  0  0  0  0  0  0  0  0  0  0  0
  151.2447  132.6770  155.7229 C   0  0  0  0  0  0  0  0  0  0  0  0
  151.1194  134.0726  155.9551 O   0  0  0  0  0  0  0  0  0  0  0  0
  154.6705  141.5797  161.8576 H   0  0  0  0  0  0  0  0  0  0  0  0
  152.9943  141.0508  161.7506 H   0  0  0  0  0  0  0  0  0  0  0  0
  153.3697  142.7551  162.0033 H   0  0  0  0  0  0  0  0  0  0  0  0
  154.4298  142.8513  159.7178 H   0  0  0  0  0  0  0  0  0  0  0  0
  154.1183  141.1526  159.5097 H   0  0  0  0  0  0  0  0  0  0  0  0
  151.5594  142.0253  160.0353 H   0  0  0  0  0  0  0  0  0  0  0  0
  151.3915  144.2823  159.8785 H   0  0  0  0  0  0  0  0  0  0  0  0
  153.0304  144.4841  159.2757 H   0  0  0  0  0  0  0  0  0  0  0  0
  150.7630  144.7649  157.6444 H   0  0  0  0  0  0  0  0  0  0  0  0
  152.3886  144.4095  157.0788 H   0  0  0  0  0  0  0  0  0  0  0  0
  151.3590  142.5275  156.2300 H   0  0  0  0  0  0  0  0  0  0  0  0
  149.0579  143.0166  157.0886 H   0  0  0  0  0  0  0  0  0  0  0  0
  149.5021  142.4229  158.6846 H   0  0  0  0  0  0  0  0  0  0  0  0
  149.4412  141.3198  157.3120 H   0  0  0  0  0  0  0  0  0  0  0  0
  151.8662  137.7514  159.7789 H   0  0  0  0  0  0  0  0  0  0  0  0
  151.5000  139.2566  153.5292 H   0  0  0  0  0  0  0  0  0  0  0  0
  151.2388  136.8166  153.6951 H   0  0  0  0  0  0  0  0  0  0  0  0
  152.1012  136.0816  155.0244 H   0  0  0  0  0  0  0  0  0  0  0  0
  149.6582  136.4763  156.2417 H   0  0  0  0  0  0  0  0  0  0  0  0
  149.3736  136.6583  153.5146 H   0  0  0  0  0  0  0  0  0  0  0  0
  149.0600  134.1523  155.8634 H   0  0  0  0  0  0  0  0  0  0  0  0
  149.0832  133.6898  153.4716 H   0  0  0  0  0  0  0  0  0  0  0  0
  150.7188  134.3380  153.3092 H   0  0  0  0  0  0  0  0  0  0  0  0
  149.9051  131.6670  154.3509 H   0  0  0  0  0  0  0  0  0  0  0  0
  151.4225  132.1711  153.6047 H   0  0  0  0  0  0  0  0  0  0  0  0
  150.6704  132.1321  156.4735 H   0  0  0  0  0  0  0  0  0  0  0  0
  152.2860  132.3621  155.7942 H   0  0  0  0  0  0  0  0  0  0  0  0
  1  2  1  0  0  0  0
  1 26  1  0  0  0  0
  1 27  1  0  0  0  0
  1 28  1  0  0  0  0
  2  3  1  0  0  0  0
  2 29  1  0  0  0  0
  2 30  1  0  0  0  0
  3  8  1  0  0  0  0
  3  4  1  0  0  0  0
  3 31  1  0  0  0  0
  4  5  1  0  0  0  0
  4 32  1  0  0  0  0
  4 33  1  0  0  0  0
  5  6  1  0  0  0  0
  5 34  1  0  0  0  0
  5 35  1  0  0  0  0
  6  7  1  0  0  0  0
  6  8  1  0  0  0  0
  6 36  1  0  0  0  0
  7 37  1  0  0  0  0
  7 38  1  0  0  0  0
  7 39  1  0  0  0  0
  8  9  1  0  0  0  0
  9 14  1  0  0  0  0
  9 10  2  0  0  0  0
 10 11  1  0  0  0  0
 11 12  2  0  0  0  0
 11 40  1  0  0  0  0
 12 13  1  0  0  0  0
 13 17  1  0  0  0  0
 13 14  2  0  0  0  0
 14 15  1  0  0  0  0
 15 16  2  0  0  0  0
 16 17  1  0  0  0  0
 16 41  1  0  0  0  0
 17 18  1  0  0  0  0
 18 19  1  0  0  0  0
 18 42  1  0  0  0  0
 18 43  1  0  0  0  0
 19 20  1  0  0  0  0
 19 21  1  0  0  0  0
 19 44  1  0  0  0  0
 20 45  1  0  0  0  0
 21 25  1  0  0  0  0
 21 22  1  0  0  0  0
 21 46  1  0  0  0  0
 22 23  1  0  0  0  0
 22 47  1  0  0  0  0
 22 48  1  0  0  0  0
 23 24  1  0  0  0  0
 23 49  1  0  0  0  0
 23 50  1  0  0  0  0
 24 25  1  0  0  0  0
 24 51  1  0  0  0  0
 24 52  1  0  0  0  0
M  END
> <s_m_source_file>
AV-unprocessed.smi

> <i_m_source_file_index>
232

> <i_lp_mmshare_version>
43012

> <i_f3d_flags>
0

> <s_epik_input>
W0NIM11bQ0gyXVtDQEBIXTFbQ0gyXVtDSDJdW0NAQEhdKFtDSDNdKU4xYyhuW2NIXW4yKWMoYzIzKW5bY0hdbjNbQ0gyXVtDQEhdKFtPSF0pW0NAQEhdNFtDSDJdW0NIMl1bQ0gyXU80

> <s_epik_cmdline>
J2VwaWtfcHl0aG9uJywgJy1waCcsICc3LjAnLCAnLXRuJywgJzgnLCAnLW1hJywgJzIwMCcsICctbWV0YWxfYmluZGluZycsICctaW1hZScsICc8aW5maWxlLm1hZT4nLCAnLW9tYWUnLCAnPG91dGZpbGUubWFlPic=

> <r_lp_tautomer_probability>
1

> <r_epik_Ionization_Penalty>
0.00258048

> <r_epik_Ionization_Penalty_Charging>
0

> <r_epik_Ionization_Penalty_Neutral>
0.00258048

> <r_epik_State_Penalty>
0.00168551

> <r_epik_Charging_Adjusted_Penalty>
0.00168551

> <i_epik_Tot_Q>
0

> <i_epik_Tot_abs_Q>
0

> <r_epik_Metal_State_Penalty>
-0

> <b_epik_Metal_Only>
0

> <s_lp_Force_Field>
OPLS_2005

> <r_lp_Energy>
55.4366

> <b_lp_Chiralities_Consistent>
1

> <s_lp_Variant>
AV-unprocessed.smi:232-16

> <Gold.Version>
5.8.1

> <Gold.Id.Protein>
6NUR|6NUR_protein|mol2

> <Gold.PLP.Fitness>
47.5510

> <Gold.PLP.PLP>
-46.1245

> <Gold.PLP.part.hbond>
-2.0000

> <Gold.PLP.part.metal>
0.0000

> <Gold.PLP.part.buried>
-5.8166

> <Gold.PLP.part.nonpolar>
-38.6130

> <Gold.PLP.part.repulsive>
0.0191

> <Gold.PLP.ligand.clash>
0.0000

> <Gold.PLP.ligand.torsion>
1.1654

> <Gold.PLP.Chemscore.Hbond>
1.1500

> <Gold.PLP.Chemscore.CHOScore>
0.0000

> <Gold.PLP.Chemscore.Metal>
0.0000

> <Gold.Chemscore.Hbonds>
donor molecule, donor type, donor heavy atom, donor atom, acceptor molecule, acceptor atom, score
      L1  H    20    45       P1  7948  0.66

> <Gold.PLP.Chemscore.Internal.Correction>
0.3073

> <Gold.Rescore>
     Score         DG    S(hbond)    S(metal)    S(lipo)     H(rot)  DE(clash)    DE(int)     intcor
     13.79     -15.15       0.94        0.00     108.90       2.43       0.07       1.30       ----

> <Gold.Chemscore.Fitness>
13.7907

> <Gold.Chemscore.DG>
-15.1538

> <Gold.Chemscore.ZeroCoef>
-5.4800

> <Gold.Chemscore.Hbond>
0.9409

> <Gold.Chemscore.Metal>
0.0000

> <Gold.Chemscore.Lipo>
108.9041

> <Gold.Chemscore.Internal_Hbond>
0.0000

> <Gold.Chemscore.DEClash>
0.0669

> <Gold.Chemscore.DEInternal>
1.2962

> <Gold.Chemscore.Rot>
2.4260

> <Gold.Chemscore.Internal.Correction>
   9.000000E+99

> <Gold.Chemscore.Hbonds>
donor molecule, donor type, donor heavy atom, donor atom, acceptor molecule, acceptor atom, score
      L1  H    20    45       P1  7948  0.58

> <Gold.Chemscore.Hbond.Weighted>
-3.1427

> <Gold.Chemscore.Metal.Weighted>
-0.0000

> <Gold.Chemscore.Lipo.Weighted>
-12.7418

> <Gold.Chemscore.Internal_Hbond.Weighted>
0.0000

> <Gold.Chemscore.DEClash.Weighted>
0.0669

> <Gold.Chemscore.DEInternal.Weighted>
1.2962

> <Gold.Chemscore.Rot.Weighted>
6.2107

> <Gold.Chemscore.Internal.Correction.Weighted>
   9.000000E+99

> <Gold.Protein.RotatedTorsions>
[ 6907 6896 6895 6894 ] final  119.12 input  -60.11 | X-H torsion
[ 7974 7965 7964 7962 ] final   68.70 input  175.53 | X-H torsion
[ 8008 7997 7996 7995 ] final   91.12 input   59.86 | X-H torsion
[ 10167 10162 10161 10158 ] final  -35.24 input  -65.29 | X-H torsion
[ 10718 10713 10712 10709 ] final  123.54 input   66.30 | X-H torsion
[ 10763 10752 10751 10750 ] final  174.43 input  -60.55 | X-H torsion
[ 11005 11000 10999 10996 ] final   51.31 input  -57.11 | X-H torsion

> <Gold.Protein.ActiveResidues>
 VAL166  LYS551  ARG553  GLY616  TRP617  ASP618  TYR619  PRO620  LYS621  CYS622 
 ASP623  PHE694  ASN695  SER759  ASP760  ASP761  ALA762  ILE779  LEU786  VAL792 
 PHE793  MET794  SER795  GLU796  ALA797  LYS798  CYS799  TRP800  GLU811  SER814 

> <Gold.Protein.RotatedAtoms>
  152.4495  133.7601  159.6741 H   0  0  0  0  0  0  0  0  0  0  0  0  # atno 6907 bound_to 6896
  150.8403  133.7937  159.3069 H   0  0  0  0  0  0  0  0  0  0  0  0  # atno 6908 bound_to 6896
  151.5564  135.1069  160.0014 H   0  0  0  0  0  0  0  0  0  0  0  0  # atno 6909 bound_to 6896
  145.7993  139.2974  143.1164 H   0  0  0  0  0  0  0  0  0  0  0  0  # atno 7974 bound_to 7965
  156.0200  140.3341  155.7029 H   0  0  0  0  0  0  0  0  0  0  0  0  # atno 8008 bound_to 7997
  155.6035  140.0658  157.2744 H   0  0  0  0  0  0  0  0  0  0  0  0  # atno 8009 bound_to 7997
  154.4312  140.1806  156.1186 H   0  0  0  0  0  0  0  0  0  0  0  0  # atno 8010 bound_to 7997
  140.7169  143.3491  151.2193 H   0  0  0  0  0  0  0  0  0  0  0  0  # atno 10167 bound_to 10162
  157.5657  131.1087  150.8459 H   0  0  0  0  0  0  0  0  0  0  0  0  # atno 10718 bound_to 10713
  154.4539  135.2765  155.1762 H   0  0  0  0  0  0  0  0  0  0  0  0  # atno 10763 bound_to 10752
  154.3577  135.6136  153.5678 H   0  0  0  0  0  0  0  0  0  0  0  0  # atno 10764 bound_to 10752
  152.9849  135.5827  154.4888 H   0  0  0  0  0  0  0  0  0  0  0  0  # atno 10765 bound_to 10752
  140.0944  134.5166  155.8821 H   0  0  0  0  0  0  0  0  0  0  0  0  # atno 11005 bound_to 11000
  145.9894  140.8615  143.0074 LP  0  0  0  0  0  0  0  0  0  0  0  0  # atno 17320 bound_to 7965
  144.6771  140.2194  143.7368 LP  0  0  0  0  0  0  0  0  0  0  0  0  # atno 17321 bound_to 7965
  139.7018  143.9521  152.2909 LP  0  0  0  0  0  0  0  0  0  0  0  0  # atno 17342 bound_to 10162
  139.9216  144.6796  150.8455 LP  0  0  0  0  0  0  0  0  0  0  0  0  # atno 17343 bound_to 10162
  156.8945  130.5224  149.5285 LP  0  0  0  0  0  0  0  0  0  0  0  0  # atno 17370 bound_to 10713
  156.0705  130.5739  150.9374 LP  0  0  0  0  0  0  0  0  0  0  0  0  # atno 17371 bound_to 10713
  141.2087  133.6677  156.6392 LP  0  0  0  0  0  0  0  0  0  0  0  0  # atno 17394 bound_to 11000
  140.3307  134.7931  157.4324 LP  0  0  0  0  0  0  0  0  0  0  0  0  # atno 17395 bound_to 11000

$$$$
