AV-unprocessed.smi:837|AV-procd|sdf|3895|dock3
  -GOLD-   22720 1353D 1   1.00000     0.00000
 Structure written by MMmdl.
 49 51  0  0  0  0  0  0  0  0  1 V2000
  147.2469  133.5237  153.0591 C   0  0  0  0  0  0  0  0  0  0  0  0
  146.2499  133.2348  151.9163 C   0  0  1  0  0  0  0  0  0  0  0  0
  146.0353  131.7124  151.7707 C   0  0  0  0  0  0  0  0  0  0  0  0
  145.1007  131.3722  150.5993 C   0  0  0  0  0  0  0  0  0  0  0  0
  143.7497  132.0877  150.7375 C   0  0  0  0  0  0  0  0  0  0  0  0
  143.9450  133.6067  150.8663 C   0  0  0  0  0  0  0  0  0  0  0  0
  144.8811  133.9733  152.0432 C   0  0  1  0  0  0  0  0  0  0  0  0
  144.2335  133.7221  153.3203 N   0  0  0  0  0  0  0  0  0  0  0  0
  144.0190  134.8398  154.0261 C   0  0  0  0  0  0  0  0  0  0  0  0
  143.4734  134.8881  155.1274 O   0  0  0  0  0  0  0  0  0  0  0  0
  144.4998  135.8819  153.3239 N   0  0  0  0  0  0  0  0  0  0  0  0
  144.4212  137.2838  153.7526 C   0  0  0  0  0  0  0  0  0  0  0  0
  145.8042  137.9324  153.8972 C   0  0  0  0  0  0  0  0  0  0  0  0
  146.7084  137.3564  154.5035 O   0  0  0  0  0  0  0  0  0  0  0  0
  145.9543  139.1356  153.3247 N   0  0  0  0  0  0  0  0  0  0  0  0
  147.1696  139.9434  153.3694 C   0  0  0  0  0  0  0  0  0  0  0  0
  147.3936  140.6216  154.7367 C   0  0  0  0  0  0  0  0  0  0  0  0
  148.8435  140.6115  155.1905 C   0  0  0  0  0  0  0  0  0  0  0  0
  149.2289  141.2268  156.3998 C   0  0  0  0  0  0  0  0  0  0  0  0
  150.5869  141.2029  156.7703 C   0  0  0  0  0  0  0  0  0  0  0  0
  151.5041  140.5621  155.9140 C   0  0  0  0  0  0  0  0  0  0  0  0
  151.1467  139.9673  154.7551 N   0  0  0  0  0  0  0  0  0  0  0  0
  149.8420  139.9948  154.4074 C   0  0  0  0  0  0  0  0  0  0  0  0
  145.0231  135.4857  152.1555 C   0  0  0  0  0  0  0  0  0  0  0  0
  145.5385  136.1966  151.2924 O   0  0  0  0  0  0  0  0  0  0  0  0
  146.8572  133.2021  154.0252 H   0  0  0  0  0  0  0  0  0  0  0  0
  147.4861  134.5848  153.1320 H   0  0  0  0  0  0  0  0  0  0  0  0
  148.1873  132.9969  152.8956 H   0  0  0  0  0  0  0  0  0  0  0  0
  146.7221  133.5785  150.9941 H   0  0  0  0  0  0  0  0  0  0  0  0
  146.9939  131.2148  151.6202 H   0  0  0  0  0  0  0  0  0  0  0  0
  145.6227  131.3055  152.6948 H   0  0  0  0  0  0  0  0  0  0  0  0
  145.5725  131.6613  149.6595 H   0  0  0  0  0  0  0  0  0  0  0  0
  144.9462  130.2941  150.5484 H   0  0  0  0  0  0  0  0  0  0  0  0
  143.1231  131.8667  149.8730 H   0  0  0  0  0  0  0  0  0  0  0  0
  143.2177  131.7056  151.6095 H   0  0  0  0  0  0  0  0  0  0  0  0
  144.3623  133.9876  149.9327 H   0  0  0  0  0  0  0  0  0  0  0  0
  142.9739  134.0912  150.9822 H   0  0  0  0  0  0  0  0  0  0  0  0
  143.9654  132.7972  153.6241 H   0  0  0  0  0  0  0  0  0  0  0  0
  143.8375  137.8691  153.0406 H   0  0  0  0  0  0  0  0  0  0  0  0
  143.8828  137.3465  154.7004 H   0  0  0  0  0  0  0  0  0  0  0  0
  145.1608  139.5338  152.8436 H   0  0  0  0  0  0  0  0  0  0  0  0
  148.0356  139.3388  153.0962 H   0  0  0  0  0  0  0  0  0  0  0  0
  147.0739  140.7091  152.5993 H   0  0  0  0  0  0  0  0  0  0  0  0
  147.0435  141.6540  154.6971 H   0  0  0  0  0  0  0  0  0  0  0  0
  146.7840  140.1288  155.4948 H   0  0  0  0  0  0  0  0  0  0  0  0
  148.5008  141.7177  157.0292 H   0  0  0  0  0  0  0  0  0  0  0  0
  150.9176  141.6698  157.6861 H   0  0  0  0  0  0  0  0  0  0  0  0
  152.5538  140.5276  156.1661 H   0  0  0  0  0  0  0  0  0  0  0  0
  149.5883  139.5152  153.4734 H   0  0  0  0  0  0  0  0  0  0  0  0
  1  2  1  0  0  0  0
  1 26  1  0  0  0  0
  1 27  1  0  0  0  0
  1 28  1  0  0  0  0
  2  7  1  0  0  0  0
  2  3  1  0  0  0  0
  2 29  1  0  0  0  0
  3  4  1  0  0  0  0
  3 30  1  0  0  0  0
  3 31  1  0  0  0  0
  4  5  1  0  0  0  0
  4 32  1  0  0  0  0
  4 33  1  0  0  0  0
  5  6  1  0  0  0  0
  5 34  1  0  0  0  0
  5 35  1  0  0  0  0
  6  7  1  0  0  0  0
  6 36  1  0  0  0  0
  6 37  1  0  0  0  0
  7 24  1  0  0  0  0
  7  8  1  0  0  0  0
  8  9  1  0  0  0  0
  8 38  1  0  0  0  0
  9 10  2  0  0  0  0
  9 11  1  0  0  0  0
 11 12  1  0  0  0  0
 11 24  1  0  0  0  0
 12 13  1  0  0  0  0
 12 39  1  0  0  0  0
 12 40  1  0  0  0  0
 13 14  2  0  0  0  0
 13 15  1  0  0  0  0
 15 16  1  0  0  0  0
 15 41  1  0  0  0  0
 16 17  1  0  0  0  0
 16 42  1  0  0  0  0
 16 43  1  0  0  0  0
 17 18  1  0  0  0  0
 17 44  1  0  0  0  0
 17 45  1  0  0  0  0
 18 23  1  0  0  0  0
 18 19  2  0  0  0  0
 19 20  1  0  0  0  0
 19 46  1  0  0  0  0
 20 21  2  0  0  0  0
 20 47  1  0  0  0  0
 21 22  1  0  0  0  0
 21 48  1  0  0  0  0
 22 23  2  0  0  0  0
 23 49  1  0  0  0  0
 24 25  2  0  0  0  0
M  END
> <s_m_source_file>
AV-unprocessed.smi

> <i_m_source_file_index>
837

> <i_lp_mmshare_version>
43012

> <i_f3d_flags>
0

> <s_epik_input>
W0NIMl0xW0NIMl1bQ0gyXVtDSDJdW0NAQEhdKFtDSDNdKVtDQEBdMTJbTkhdQyg9TylOKEMyPU8pW0NIMl1DKD1PKVtOSF1bQ0gyXVtDSDJdYzNbY0hdW2NIXVtjSF1uW2NIXTM=

> <s_epik_cmdline>
J2VwaWtfcHl0aG9uJywgJy1waCcsICc3LjAnLCAnLXRuJywgJzgnLCAnLW1hJywgJzIwMCcsICctbWV0YWxfYmluZGluZycsICctaW1hZScsICc8aW5maWxlLm1hZT4nLCAnLW9tYWUnLCAnPG91dGZpbGUubWFlPic=

> <r_lp_tautomer_probability>
1

> <r_epik_Ionization_Penalty>
0.0127837

> <r_epik_Ionization_Penalty_Charging>
0

> <r_epik_Ionization_Penalty_Neutral>
0.0127837

> <r_epik_State_Penalty>
0.00987657

> <r_epik_Charging_Adjusted_Penalty>
0.00987657

> <i_epik_Tot_Q>
0

> <i_epik_Tot_abs_Q>
0

> <r_epik_Metal_State_Penalty>
0.0309865

> <b_epik_Metal_Only>
0

> <s_lp_Force_Field>
OPLS_2005

> <r_lp_Energy>
22.8196

> <b_lp_Chiralities_Consistent>
1

> <s_lp_Variant>
AV-unprocessed.smi:837-4

> <Gold.Version>
5.8.1

> <Gold.Id.Protein>
6NUR|6NUR_protein|mol2

> <Gold.PLP.Fitness>
48.9670

> <Gold.PLP.PLP>
-38.4776

> <Gold.PLP.part.hbond>
-3.0000

> <Gold.PLP.part.metal>
0.0000

> <Gold.PLP.part.buried>
-4.9446

> <Gold.PLP.part.nonpolar>
-30.6129

> <Gold.PLP.part.repulsive>
0.4930

> <Gold.PLP.ligand.clash>
0.0000

> <Gold.PLP.ligand.torsion>
0.5204

> <Gold.PLP.Chemscore.Hbond>
2.8262

> <Gold.PLP.Chemscore.CHOScore>
1.0000

> <Gold.PLP.Chemscore.Metal>
0.0000

> <Gold.Chemscore.Hbonds>
donor molecule, donor type, donor heavy atom, donor atom, acceptor molecule, acceptor atom, score
      L1  H     8    38       P1 10957  0.90
      L1  H    15    41       P1 10175  1.00
      P1  H  7989  7998       L1    22  0.75
      L1  C    23    49       P1  7957  1.00

> <Gold.PLP.Chemscore.Internal.Correction>
0.0516

> <Gold.Rescore>
     Score         DG    S(hbond)    S(metal)    S(lipo)     H(rot)  DE(clash)    DE(int)     intcor
     17.86     -18.61       2.34        0.00      85.94       1.86       0.07       0.68       ----

> <Gold.Chemscore.Fitness>
17.8621

> <Gold.Chemscore.DG>
-18.6148

> <Gold.Chemscore.ZeroCoef>
-5.4800

> <Gold.Chemscore.Hbond>
2.3443

> <Gold.Chemscore.Metal>
0.0000

> <Gold.Chemscore.Lipo>
85.9358

> <Gold.Chemscore.Internal_Hbond>
0.0000

> <Gold.Chemscore.DEClash>
0.0678

> <Gold.Chemscore.DEInternal>
0.6849

> <Gold.Chemscore.Rot>
1.8553

> <Gold.Chemscore.Internal.Correction>
   9.000000E+99

> <Gold.Chemscore.Hbonds>
donor molecule, donor type, donor heavy atom, donor atom, acceptor molecule, acceptor atom, score
      L1  H     8    38       P1 10957  0.62
      L1  H    15    41       P1 10175  1.00
      P1  H  7989  7998       L1    22  0.07

> <Gold.Chemscore.Hbond.Weighted>
-7.8300

> <Gold.Chemscore.Metal.Weighted>
-0.0000

> <Gold.Chemscore.Lipo.Weighted>
-10.0545

> <Gold.Chemscore.Internal_Hbond.Weighted>
0.0000

> <Gold.Chemscore.DEClash.Weighted>
0.0678

> <Gold.Chemscore.DEInternal.Weighted>
0.6849

> <Gold.Chemscore.Rot.Weighted>
4.7497

> <Gold.Chemscore.Internal.Correction.Weighted>
   9.000000E+99

> <Gold.Protein.RotatedTorsions>
[ 6907 6896 6895 6894 ] final   80.17 input  -60.11 | X-H torsion
[ 7974 7965 7964 7962 ] final   44.35 input  175.53 | X-H torsion
[ 8008 7997 7996 7995 ] final   25.99 input   59.86 | X-H torsion
[ 10167 10162 10161 10158 ] final  -87.14 input  -65.29 | X-H torsion
[ 10718 10713 10712 10709 ] final -164.78 input   66.30 | X-H torsion
[ 10763 10752 10751 10750 ] final  -12.50 input  -60.55 | X-H torsion
[ 11005 11000 10999 10996 ] final  155.48 input  -57.11 | X-H torsion

> <Gold.Protein.ActiveResidues>
 VAL166  LYS551  ARG553  GLY616  TRP617  ASP618  TYR619  PRO620  LYS621  CYS622 
 ASP623  PHE694  ASN695  SER759  ASP760  ASP761  ALA762  ILE779  LEU786  VAL792 
 PHE793  MET794  SER795  GLU796  ALA797  LYS798  CYS799  TRP800  GLU811  SER814 

> <Gold.Protein.RotatedAtoms>
  152.5225  134.3399  159.9213 H   0  0  0  0  0  0  0  0  0  0  0  0  # atno 6907 bound_to 6896
  151.3349  133.3979  159.2673 H   0  0  0  0  0  0  0  0  0  0  0  0  # atno 6908 bound_to 6896
  150.9850  134.9215  159.7924 H   0  0  0  0  0  0  0  0  0  0  0  0  # atno 6909 bound_to 6896
  146.0576  139.5084  142.9678 H   0  0  0  0  0  0  0  0  0  0  0  0  # atno 7974 bound_to 7965
  155.0204  140.3147  155.4796 H   0  0  0  0  0  0  0  0  0  0  0  0  # atno 8008 bound_to 7997
  156.2893  140.2198  156.5263 H   0  0  0  0  0  0  0  0  0  0  0  0  # atno 8009 bound_to 7997
  154.7457  140.0470  157.0838 H   0  0  0  0  0  0  0  0  0  0  0  0  # atno 8010 bound_to 7997
  140.3873  143.2721  151.9309 H   0  0  0  0  0  0  0  0  0  0  0  0  # atno 10167 bound_to 10162
  156.6439  130.8980  151.3001 H   0  0  0  0  0  0  0  0  0  0  0  0  # atno 10718 bound_to 10713
  153.4994  135.7017  153.5840 H   0  0  0  0  0  0  0  0  0  0  0  0  # atno 10763 bound_to 10752
  153.3978  135.3879  155.1967 H   0  0  0  0  0  0  0  0  0  0  0  0  # atno 10764 bound_to 10752
  154.8711  135.3874  154.4463 H   0  0  0  0  0  0  0  0  0  0  0  0  # atno 10765 bound_to 10752
  140.1585  134.8625  157.2545 H   0  0  0  0  0  0  0  0  0  0  0  0  # atno 11005 bound_to 11000
  145.6616  141.0239  143.1706 LP  0  0  0  0  0  0  0  0  0  0  0  0  # atno 17320 bound_to 7965
  144.7157  139.8207  143.7399 LP  0  0  0  0  0  0  0  0  0  0  0  0  # atno 17321 bound_to 7965
  139.4791  144.5761  151.8009 LP  0  0  0  0  0  0  0  0  0  0  0  0  # atno 17342 bound_to 10162
  140.4876  144.1358  150.5944 LP  0  0  0  0  0  0  0  0  0  0  0  0  # atno 17343 bound_to 10162
  157.7162  130.9500  150.1265 LP  0  0  0  0  0  0  0  0  0  0  0  0  # atno 17370 bound_to 10713
  156.2137  130.3668  149.8639 LP  0  0  0  0  0  0  0  0  0  0  0  0  # atno 17371 bound_to 10713
  140.2518  134.3674  155.7439 LP  0  0  0  0  0  0  0  0  0  0  0  0  # atno 17394 bound_to 11000
  141.2207  133.7321  156.8947 LP  0  0  0  0  0  0  0  0  0  0  0  0  # atno 17395 bound_to 11000

$$$$
