AV-unprocessed.smi:1525|AV-procd|sdf|6141|dock9
  -GOLD-   22720 6283D 1   1.00000     0.00000
 Structure written by MMmdl.
 48 50  0  0  0  0  0  0  0  0  1 V2000
  149.7418  133.7054  155.5489 O   0  0  0  0  0  0  0  0  0  0  0  0
  149.4009  134.3714  154.5716 C   0  0  0  0  0  0  0  0  0  0  0  0
  149.6737  135.6765  154.4310 N   0  0  0  0  0  0  0  0  0  0  0  0
  150.3650  136.5050  155.4139 C   0  0  0  0  0  0  0  0  0  0  0  0
  149.4574  137.6331  155.9435 C   0  0  0  0  0  0  0  0  0  0  0  0
  150.1510  138.7632  156.5618 N   0  0  0  0  0  0  0  0  0  0  0  0
  150.9801  138.3646  157.6971 C   0  0  0  0  0  0  0  0  0  0  0  0
  151.6984  139.5694  158.3288 C   0  0  0  0  0  0  0  0  0  0  0  0
  152.4786  140.2332  157.3394 O   0  0  0  0  0  0  0  0  0  0  0  0
  151.7009  140.6731  156.2306 C   0  0  0  0  0  0  0  0  0  0  0  0
  150.9827  139.4699  155.5948 C   0  0  0  0  0  0  0  0  0  0  0  0
  148.6983  133.9101  153.5233 N   0  0  0  0  0  0  0  0  0  0  0  0
  148.1384  132.6149  153.3263 C   0  0  0  0  0  0  0  0  0  0  0  0
  148.6462  131.4683  153.9862 C   0  0  0  0  0  0  0  0  0  0  0  0
  148.0346  130.2211  153.7729 C   0  0  0  0  0  0  0  0  0  0  0  0
  146.9353  130.1607  152.9012 C   0  0  0  0  0  0  0  0  0  0  0  0
  146.4535  131.2368  152.2483 N   0  0  0  0  0  0  0  0  0  0  0  0
  147.0418  132.4445  152.4322 C   0  0  0  0  0  0  0  0  0  0  0  0
  146.5080  133.5314  151.7020 N   0  0  0  0  0  0  0  0  0  0  0  0
  145.6208  133.2328  150.5817 C   0  0  0  0  0  0  0  0  0  0  0  0
  144.5399  134.3191  150.5830 C   0  0  0  0  0  0  0  0  0  0  0  0
  145.1807  135.4639  151.3609 C   0  0  0  0  0  0  0  0  0  0  0  0
  146.0251  134.7225  152.3930 C   0  0  0  0  0  0  0  0  0  0  0  0
  149.3519  136.1404  153.5944 H   0  0  0  0  0  0  0  0  0  0  0  0
  150.7802  135.9023  156.2221 H   0  0  0  0  0  0  0  0  0  0  0  0
  151.2231  136.9516  154.9113 H   0  0  0  0  0  0  0  0  0  0  0  0
  148.8284  137.9970  155.1298 H   0  0  0  0  0  0  0  0  0  0  0  0
  148.7731  137.1934  156.6706 H   0  0  0  0  0  0  0  0  0  0  0  0
  150.3742  137.8811  158.4621 H   0  0  0  0  0  0  0  0  0  0  0  0
  151.7204  137.6303  157.3759 H   0  0  0  0  0  0  0  0  0  0  0  0
  150.9767  140.2646  158.7609 H   0  0  0  0  0  0  0  0  0  0  0  0
  152.3511  139.2409  159.1377 H   0  0  0  0  0  0  0  0  0  0  0  0
  150.9799  141.4239  156.5578 H   0  0  0  0  0  0  0  0  0  0  0  0
  152.3558  141.1526  155.5030 H   0  0  0  0  0  0  0  0  0  0  0  0
  151.7233  138.7878  155.1742 H   0  0  0  0  0  0  0  0  0  0  0  0
  150.3695  139.8175  154.7625 H   0  0  0  0  0  0  0  0  0  0  0  0
  148.4296  134.6000  152.8373 H   0  0  0  0  0  0  0  0  0  0  0  0
  149.4976  131.5195  154.6466 H   0  0  0  0  0  0  0  0  0  0  0  0
  148.3987  129.3333  154.2687 H   0  0  0  0  0  0  0  0  0  0  0  0
  146.4338  129.2226  152.7160 H   0  0  0  0  0  0  0  0  0  0  0  0
  146.1953  133.2838  149.6567 H   0  0  0  0  0  0  0  0  0  0  0  0
  145.1844  132.2358  150.6557 H   0  0  0  0  0  0  0  0  0  0  0  0
  144.2278  134.6076  149.5792 H   0  0  0  0  0  0  0  0  0  0  0  0
  143.6601  133.9610  151.1193 H   0  0  0  0  0  0  0  0  0  0  0  0
  145.8236  136.0488  150.7018 H   0  0  0  0  0  0  0  0  0  0  0  0
  144.4515  136.1375  151.8121 H   0  0  0  0  0  0  0  0  0  0  0  0
  145.3989  134.4524  153.2444 H   0  0  0  0  0  0  0  0  0  0  0  0
  146.8519  135.3343  152.7545 H   0  0  0  0  0  0  0  0  0  0  0  0
  1  2  2  0  0  0  0
  2  3  1  0  0  0  0
  2 12  1  0  0  0  0
  3  4  1  0  0  0  0
  3 24  1  0  0  0  0
  4  5  1  0  0  0  0
  4 25  1  0  0  0  0
  4 26  1  0  0  0  0
  5  6  1  0  0  0  0
  5 27  1  0  0  0  0
  5 28  1  0  0  0  0
  6 11  1  0  0  0  0
  6  7  1  0  0  0  0
  7  8  1  0  0  0  0
  7 29  1  0  0  0  0
  7 30  1  0  0  0  0
  8  9  1  0  0  0  0
  8 31  1  0  0  0  0
  8 32  1  0  0  0  0
  9 10  1  0  0  0  0
 10 11  1  0  0  0  0
 10 33  1  0  0  0  0
 10 34  1  0  0  0  0
 11 35  1  0  0  0  0
 11 36  1  0  0  0  0
 12 13  1  0  0  0  0
 12 37  1  0  0  0  0
 13 18  1  0  0  0  0
 13 14  2  0  0  0  0
 14 15  1  0  0  0  0
 14 38  1  0  0  0  0
 15 16  2  0  0  0  0
 15 39  1  0  0  0  0
 16 17  1  0  0  0  0
 16 40  1  0  0  0  0
 17 18  2  0  0  0  0
 18 19  1  0  0  0  0
 19 23  1  0  0  0  0
 19 20  1  0  0  0  0
 20 21  1  0  0  0  0
 20 41  1  0  0  0  0
 20 42  1  0  0  0  0
 21 22  1  0  0  0  0
 21 43  1  0  0  0  0
 21 44  1  0  0  0  0
 22 23  1  0  0  0  0
 22 45  1  0  0  0  0
 22 46  1  0  0  0  0
 23 47  1  0  0  0  0
 23 48  1  0  0  0  0
M  END
> <s_m_source_file>
AV-unprocessed.smi

> <i_m_source_file_index>
1525

> <i_lp_mmshare_version>
43012

> <i_f3d_flags>
0

> <s_epik_input>
W0NIMl0xW0NIMl1PW0NIMl1bQ0gyXU4xW0NIMl1bQ0gyXVtOSF1DKD1PKVtOSF1jMltjSF1bY0hdW2NIXW5jMk4zW0NIMl1bQ0gyXVtDSDJdW0NIMl0z

> <s_epik_cmdline>
J2VwaWtfcHl0aG9uJywgJy1waCcsICc3LjAnLCAnLXRuJywgJzgnLCAnLW1hJywgJzIwMCcsICctbWV0YWxfYmluZGluZycsICctaW1hZScsICc8aW5maWxlLm1hZT4nLCAnLW9tYWUnLCAnPG91dGZpbGUubWFlPic=

> <r_lp_tautomer_probability>
1

> <r_epik_Ionization_Penalty>
0.363951

> <r_epik_Ionization_Penalty_Charging>
0

> <r_epik_Ionization_Penalty_Neutral>
0.363951

> <r_epik_State_Penalty>
0.349372

> <r_epik_Charging_Adjusted_Penalty>
0.349372

> <i_epik_Tot_Q>
0

> <i_epik_Tot_abs_Q>
0

> <r_epik_Metal_State_Penalty>
0.33306

> <b_epik_Metal_Only>
0

> <s_lp_Force_Field>
OPLS_2005

> <r_lp_Energy>
53.9404

> <b_lp_Chiralities_Consistent>
1

> <s_lp_Variant>
AV-unprocessed.smi:1525-1

> <Gold.Version>
5.8.1

> <Gold.Id.Protein>
6NUR|6NUR_protein|mol2

> <Gold.PLP.Fitness>
42.3381

> <Gold.PLP.PLP>
-33.9687

> <Gold.PLP.part.hbond>
-3.2099

> <Gold.PLP.part.metal>
0.0000

> <Gold.PLP.part.buried>
-3.0589

> <Gold.PLP.part.nonpolar>
-26.9083

> <Gold.PLP.part.repulsive>
0.3919

> <Gold.PLP.ligand.clash>
0.0000

> <Gold.PLP.ligand.torsion>
0.4195

> <Gold.PLP.Chemscore.Hbond>
2.9440

> <Gold.PLP.Chemscore.CHOScore>
0.0000

> <Gold.PLP.Chemscore.Metal>
0.0000

> <Gold.Chemscore.Hbonds>
donor molecule, donor type, donor heavy atom, donor atom, acceptor molecule, acceptor atom, score
      L1  H     3    24       P1  7948  1.00
      L1  H    12    37       P1  7948  0.91
      P1  H  7997  8009       L1     9  1.00

> <Gold.PLP.Chemscore.Internal.Correction>
0.3765

> <Gold.Rescore>
     Score         DG    S(hbond)    S(metal)    S(lipo)     H(rot)  DE(clash)    DE(int)     intcor
     13.98     -16.71       2.02        0.00      73.26       1.60       0.15       2.58       ----

> <Gold.Chemscore.Fitness>
13.9800

> <Gold.Chemscore.DG>
-16.7064

> <Gold.Chemscore.ZeroCoef>
-5.4800

> <Gold.Chemscore.Hbond>
2.0212

> <Gold.Chemscore.Metal>
0.0000

> <Gold.Chemscore.Lipo>
73.2569

> <Gold.Chemscore.Internal_Hbond>
0.0000

> <Gold.Chemscore.DEClash>
0.1455

> <Gold.Chemscore.DEInternal>
2.5809

> <Gold.Chemscore.Rot>
1.5998

> <Gold.Chemscore.Internal.Correction>
   9.000000E+99

> <Gold.Chemscore.Hbonds>
donor molecule, donor type, donor heavy atom, donor atom, acceptor molecule, acceptor atom, score
      L1  H     3    24       P1  7948  0.72
      L1  H    12    37       P1  7948  0.27
      P1  H  7997  8009       L1     9  0.40

> <Gold.Chemscore.Hbond.Weighted>
-6.7509

> <Gold.Chemscore.Metal.Weighted>
-0.0000

> <Gold.Chemscore.Lipo.Weighted>
-8.5711

> <Gold.Chemscore.Internal_Hbond.Weighted>
0.0000

> <Gold.Chemscore.DEClash.Weighted>
0.1455

> <Gold.Chemscore.DEInternal.Weighted>
2.5809

> <Gold.Chemscore.Rot.Weighted>
4.0956

> <Gold.Chemscore.Internal.Correction.Weighted>
   9.000000E+99

> <Gold.Protein.RotatedTorsions>
[ 6907 6896 6895 6894 ] final  106.09 input  -60.11 | X-H torsion
[ 7974 7965 7964 7962 ] final  125.73 input  175.53 | X-H torsion
[ 8008 7997 7996 7995 ] final -177.25 input   59.86 | X-H torsion
[ 10167 10162 10161 10158 ] final   26.28 input  -65.29 | X-H torsion
[ 10718 10713 10712 10709 ] final  -28.36 input   66.30 | X-H torsion
[ 10763 10752 10751 10750 ] final  111.86 input  -60.55 | X-H torsion
[ 11005 11000 10999 10996 ] final -125.86 input  -57.11 | X-H torsion

> <Gold.Protein.ActiveResidues>
 VAL166  LYS551  ARG553  GLY616  TRP617  ASP618  TYR619  PRO620  LYS621  CYS622 
 ASP623  PHE694  ASN695  SER759  ASP760  ASP761  ALA762  ILE779  LEU786  VAL792 
 PHE793  MET794  SER795  GLU796  ALA797  LYS798  CYS799  TRP800  GLU811  SER814 

> <Gold.Protein.RotatedAtoms>
  152.5206  133.9432  159.7636 H   0  0  0  0  0  0  0  0  0  0  0  0  # atno 6907 bound_to 6896
  150.9757  133.6289  159.2737 H   0  0  0  0  0  0  0  0  0  0  0  0  # atno 6908 bound_to 6896
  151.3484  135.0885  159.9447 H   0  0  0  0  0  0  0  0  0  0  0  0  # atno 6909 bound_to 6896
  145.0697  139.3740  143.4964 H   0  0  0  0  0  0  0  0  0  0  0  0  # atno 7974 bound_to 7965
  156.0047  140.1228  157.0513 H   0  0  0  0  0  0  0  0  0  0  0  0  # atno 8008 bound_to 7997
  154.4254  140.1100  156.5815 H   0  0  0  0  0  0  0  0  0  0  0  0  # atno 8009 bound_to 7997
  155.6163  140.3472  155.4640 H   0  0  0  0  0  0  0  0  0  0  0  0  # atno 8010 bound_to 7997
  140.5036  144.0275  150.6343 H   0  0  0  0  0  0  0  0  0  0  0  0  # atno 10167 bound_to 10162
  156.4263  130.4436  149.7148 H   0  0  0  0  0  0  0  0  0  0  0  0  # atno 10718 bound_to 10713
  153.4694  135.3704  155.2383 H   0  0  0  0  0  0  0  0  0  0  0  0  # atno 10763 bound_to 10752
  154.8757  135.3928  154.3829 H   0  0  0  0  0  0  0  0  0  0  0  0  # atno 10764 bound_to 10752
  153.4415  135.7084  153.6230 H   0  0  0  0  0  0  0  0  0  0  0  0  # atno 10765 bound_to 10752
  140.9728  134.0781  157.3851 H   0  0  0  0  0  0  0  0  0  0  0  0  # atno 11005 bound_to 11000
  146.3528  140.0435  142.8641 LP  0  0  0  0  0  0  0  0  0  0  0  0  # atno 17320 bound_to 7965
  145.1308  140.9516  143.4545 LP  0  0  0  0  0  0  0  0  0  0  0  0  # atno 17321 bound_to 7965
  140.3578  143.2925  152.0417 LP  0  0  0  0  0  0  0  0  0  0  0  0  # atno 17342 bound_to 10162
  139.4878  144.6326  151.7040 LP  0  0  0  0  0  0  0  0  0  0  0  0  # atno 17343 bound_to 10162
  156.4069  130.7703  151.2714 LP  0  0  0  0  0  0  0  0  0  0  0  0  # atno 17370 bound_to 10713
  157.7508  131.0223  150.3786 LP  0  0  0  0  0  0  0  0  0  0  0  0  # atno 17371 bound_to 10713
  139.8919  135.0121  156.6816 LP  0  0  0  0  0  0  0  0  0  0  0  0  # atno 17394 bound_to 11000
  140.7303  133.9065  155.8207 LP  0  0  0  0  0  0  0  0  0  0  0  0  # atno 17395 bound_to 11000

$$$$
