AV-unprocessed.smi:3231|AV-procd|sdf|12337|dock9
  -GOLD-   2272018193D 1   1.00000     0.00000
 Structure written by MMmdl.
 40 41  0  0  0  0  0  0  0  0  1 V2000
  146.8770  139.0629  151.0003 O   0  0  0  0  0  0  0  0  0  0  0  0
  146.9635  138.6534  152.3496 C   0  0  2  0  0  0  0  0  0  0  0  0
  145.6880  137.8556  152.6679 C   0  0  0  0  0  0  0  0  0  0  0  0
  145.2169  137.1190  151.4995 N   0  0  0  0  0  0  0  0  0  0  0  0
  144.7830  135.7582  151.8032 C   0  0  0  0  0  0  0  0  0  0  0  0
  144.4164  134.9851  150.5263 C   0  0  0  0  0  0  0  0  0  0  0  0
  144.9027  133.6174  150.5516 N   0  0  0  0  0  0  0  0  0  0  0  0
  144.1847  132.4494  150.4031 C   0  0  0  0  0  0  0  0  0  0  0  0
  145.0703  131.4140  150.4941 C   0  0  0  0  0  0  0  0  0  0  0  0
  146.3222  132.0575  150.7020 C   0  0  0  0  0  0  0  0  0  0  0  0
  146.2186  133.3763  150.7373 N   0  0  0  0  0  0  0  0  0  0  0  0
  147.0975  139.9169  153.2288 C   0  0  0  0  0  0  0  0  0  0  0  0
  148.2076  139.9115  154.1831 N   0  0  0  0  0  0  0  0  0  0  0  0
  149.3334  139.1410  153.6651 C   0  0  0  0  0  0  0  0  0  0  0  0
  150.5157  139.1147  154.6489 C   0  0  0  0  0  0  0  0  0  0  0  0
  150.9157  140.4481  154.9468 O   0  0  0  0  0  0  0  0  0  0  0  0
  149.8587  141.2260  155.4985 C   0  0  0  0  0  0  0  0  0  0  0  0
  148.6712  141.2564  154.5203 C   0  0  0  0  0  0  0  0  0  0  0  0
  146.0613  138.7468  150.6433 H   0  0  0  0  0  0  0  0  0  0  0  0
  147.8250  137.9947  152.4535 H   0  0  0  0  0  0  0  0  0  0  0  0
  145.8720  137.1718  153.4976 H   0  0  0  0  0  0  0  0  0  0  0  0
  144.9069  138.5420  152.9979 H   0  0  0  0  0  0  0  0  0  0  0  0
  144.4605  137.6299  151.0555 H   0  0  0  0  0  0  0  0  0  0  0  0
  145.5638  135.2250  152.3471 H   0  0  0  0  0  0  0  0  0  0  0  0
  143.9137  135.7896  152.4608 H   0  0  0  0  0  0  0  0  0  0  0  0
  143.3326  134.9607  150.4063 H   0  0  0  0  0  0  0  0  0  0  0  0
  144.8164  135.4866  149.6439 H   0  0  0  0  0  0  0  0  0  0  0  0
  143.1167  132.4532  150.2441 H   0  0  0  0  0  0  0  0  0  0  0  0
  144.8567  130.3578  150.4225 H   0  0  0  0  0  0  0  0  0  0  0  0
  147.2965  131.6086  150.8276 H   0  0  0  0  0  0  0  0  0  0  0  0
  147.1971  140.7782  152.5666 H   0  0  0  0  0  0  0  0  0  0  0  0
  146.1670  140.0763  153.7758 H   0  0  0  0  0  0  0  0  0  0  0  0
  149.0172  138.1180  153.4577 H   0  0  0  0  0  0  0  0  0  0  0  0
  149.6650  139.5632  152.7151 H   0  0  0  0  0  0  0  0  0  0  0  0
  150.2423  138.5947  155.5683 H   0  0  0  0  0  0  0  0  0  0  0  0
  151.3592  138.5780  154.2148 H   0  0  0  0  0  0  0  0  0  0  0  0
  149.5554  140.8092  156.4601 H   0  0  0  0  0  0  0  0  0  0  0  0
  150.2207  142.2367  155.6872 H   0  0  0  0  0  0  0  0  0  0  0  0
  148.9656  141.7855  153.6125 H   0  0  0  0  0  0  0  0  0  0  0  0
  147.8679  141.8352  154.9734 H   0  0  0  0  0  0  0  0  0  0  0  0
  1  2  1  0  0  0  0
  1 19  1  0  0  0  0
  2  3  1  0  0  0  0
  2 12  1  0  0  0  0
  2 20  1  0  0  0  0
  3  4  1  0  0  0  0
  3 21  1  0  0  0  0
  3 22  1  0  0  0  0
  4  5  1  0  0  0  0
  4 23  1  0  0  0  0
  5  6  1  0  0  0  0
  5 24  1  0  0  0  0
  5 25  1  0  0  0  0
  6  7  1  0  0  0  0
  6 26  1  0  0  0  0
  6 27  1  0  0  0  0
  7 11  1  0  0  0  0
  7  8  1  0  0  0  0
  8  9  2  0  0  0  0
  8 28  1  0  0  0  0
  9 10  1  0  0  0  0
  9 29  1  0  0  0  0
 10 11  2  0  0  0  0
 10 30  1  0  0  0  0
 12 13  1  0  0  0  0
 12 31  1  0  0  0  0
 12 32  1  0  0  0  0
 13 18  1  0  0  0  0
 13 14  1  0  0  0  0
 14 15  1  0  0  0  0
 14 33  1  0  0  0  0
 14 34  1  0  0  0  0
 15 16  1  0  0  0  0
 15 35  1  0  0  0  0
 15 36  1  0  0  0  0
 16 17  1  0  0  0  0
 17 18  1  0  0  0  0
 17 37  1  0  0  0  0
 17 38  1  0  0  0  0
 18 39  1  0  0  0  0
 18 40  1  0  0  0  0
M  END
> <s_m_source_file>
AV-unprocessed.smi

> <i_m_source_file_index>
3231

> <i_lp_mmshare_version>
43012

> <i_f3d_flags>
0

> <s_epik_input>
W0NIMl0xW0NIMl1PW0NIMl1bQ0gyXU4xW0NIMl1bQ0BIXShbT0hdKVtDSDJdW05IXVtDSDJdW0NIMl1uMltjSF1bY0hdW2NIXW4y

> <s_epik_cmdline>
J2VwaWtfcHl0aG9uJywgJy1waCcsICc3LjAnLCAnLXRuJywgJzgnLCAnLW1hJywgJzIwMCcsICctbWV0YWxfYmluZGluZycsICctaW1hZScsICc8aW5maWxlLm1hZT4nLCAnLW9tYWUnLCAnPG91dGZpbGUubWFlPic=

> <r_lp_tautomer_probability>
1

> <r_epik_Ionization_Penalty>
2.37071

> <r_epik_Ionization_Penalty_Charging>
0

> <r_epik_Ionization_Penalty_Neutral>
2.37071

> <r_epik_State_Penalty>
1.72455

> <r_epik_Charging_Adjusted_Penalty>
1.72455

> <i_epik_Tot_Q>
0

> <i_epik_Tot_abs_Q>
0

> <r_epik_Metal_State_Penalty>
1.72366

> <b_epik_Metal_Only>
0

> <s_lp_Force_Field>
OPLS_2005

> <r_lp_Energy>
31.2728

> <b_lp_Chiralities_Consistent>
1

> <s_lp_Variant>
AV-unprocessed.smi:3231-7

> <Gold.Version>
5.8.1

> <Gold.Id.Protein>
6NUR|6NUR_protein|mol2

> <Gold.PLP.Fitness>
48.5395

> <Gold.PLP.PLP>
-36.9363

> <Gold.PLP.part.hbond>
-4.3745

> <Gold.PLP.part.metal>
0.0000

> <Gold.PLP.part.buried>
-1.4587

> <Gold.PLP.part.nonpolar>
-31.9716

> <Gold.PLP.part.repulsive>
0.3308

> <Gold.PLP.ligand.clash>
0.0000

> <Gold.PLP.ligand.torsion>
2.0008

> <Gold.PLP.Chemscore.Hbond>
3.1673

> <Gold.PLP.Chemscore.CHOScore>
1.9767

> <Gold.PLP.Chemscore.Metal>
0.0000

> <Gold.Chemscore.Hbonds>
donor molecule, donor type, donor heavy atom, donor atom, acceptor molecule, acceptor atom, score
      L1  H     1    19       P1 10171  0.26
      L1  H     4    23       P1 10171  1.00
      P1  H  7954  7966       L1     1  0.68
      P1  H  7989  7998       L1    16  1.00
      L1  C    10    30       P1 10747  0.73

> <Gold.PLP.Chemscore.Internal.Correction>
0.1728

> <Gold.Rescore>
     Score         DG    S(hbond)    S(metal)    S(lipo)     H(rot)  DE(clash)    DE(int)     intcor
     15.44     -19.20       2.91        0.00      93.69       2.72       1.84       1.92       ----

> <Gold.Chemscore.Fitness>
15.4415

> <Gold.Chemscore.DG>
-19.1994

> <Gold.Chemscore.ZeroCoef>
-5.4800

> <Gold.Chemscore.Hbond>
2.9091

> <Gold.Chemscore.Metal>
0.0000

> <Gold.Chemscore.Lipo>
93.6924

> <Gold.Chemscore.Internal_Hbond>
0.0000

> <Gold.Chemscore.DEClash>
1.8371

> <Gold.Chemscore.DEInternal>
1.9208

> <Gold.Chemscore.Rot>
2.7183

> <Gold.Chemscore.Internal.Correction>
   9.000000E+99

> <Gold.Chemscore.Hbonds>
donor molecule, donor type, donor heavy atom, donor atom, acceptor molecule, acceptor atom, score
      L1  H     1    19       P1 10171  0.27
      L1  H     4    23       P1 10171  0.95
      P1  H  7954  7966       L1     1  0.10
      P1  H  7989  7998       L1    16  0.29

> <Gold.Chemscore.Hbond.Weighted>
-9.7163

> <Gold.Chemscore.Metal.Weighted>
-0.0000

> <Gold.Chemscore.Lipo.Weighted>
-10.9620

> <Gold.Chemscore.Internal_Hbond.Weighted>
0.0000

> <Gold.Chemscore.DEClash.Weighted>
1.8371

> <Gold.Chemscore.DEInternal.Weighted>
1.9208

> <Gold.Chemscore.Rot.Weighted>
6.9589

> <Gold.Chemscore.Internal.Correction.Weighted>
   9.000000E+99

> <Gold.Protein.RotatedTorsions>
[ 6907 6896 6895 6894 ] final  118.53 input  -60.11 | X-H torsion
[ 7974 7965 7964 7962 ] final  104.95 input  175.53 | X-H torsion
[ 8008 7997 7996 7995 ] final  111.62 input   59.86 | X-H torsion
[ 10167 10162 10161 10158 ] final   43.97 input  -65.29 | X-H torsion
[ 10718 10713 10712 10709 ] final -134.03 input   66.30 | X-H torsion
[ 10763 10752 10751 10750 ] final  -31.53 input  -60.55 | X-H torsion
[ 11005 11000 10999 10996 ] final -147.87 input  -57.11 | X-H torsion

> <Gold.Protein.ActiveResidues>
 VAL166  LYS551  ARG553  GLY616  TRP617  ASP618  TYR619  PRO620  LYS621  CYS622 
 ASP623  PHE694  ASN695  SER759  ASP760  ASP761  ALA762  ILE779  LEU786  VAL792 
 PHE793  MET794  SER795  GLU796  ALA797  LYS798  CYS799  TRP800  GLU811  SER814 

> <Gold.Protein.RotatedAtoms>
  152.4536  133.7678  159.6782 H   0  0  0  0  0  0  0  0  0  0  0  0  # atno 6907 bound_to 6896
  150.8455  133.7857  159.3051 H   0  0  0  0  0  0  0  0  0  0  0  0  # atno 6908 bound_to 6896
  151.5469  135.1070  159.9992 H   0  0  0  0  0  0  0  0  0  0  0  0  # atno 6909 bound_to 6896
  145.3260  139.2499  143.3686 H   0  0  0  0  0  0  0  0  0  0  0  0  # atno 7974 bound_to 7965
  156.2136  140.3015  155.9789 H   0  0  0  0  0  0  0  0  0  0  0  0  # atno 8008 bound_to 7997
  155.2661  140.0431  157.3019 H   0  0  0  0  0  0  0  0  0  0  0  0  # atno 8009 bound_to 7997
  154.5736  140.2355  155.8164 H   0  0  0  0  0  0  0  0  0  0  0  0  # atno 8010 bound_to 7997
  140.3390  144.2494  150.6158 H   0  0  0  0  0  0  0  0  0  0  0  0  # atno 10167 bound_to 10162
  156.2511  130.7154  151.1053 H   0  0  0  0  0  0  0  0  0  0  0  0  # atno 10718 bound_to 10713
  153.7988  135.6892  153.4859 H   0  0  0  0  0  0  0  0  0  0  0  0  # atno 10763 bound_to 10752
  153.1702  135.4546  154.9890 H   0  0  0  0  0  0  0  0  0  0  0  0  # atno 10764 bound_to 10752
  154.8015  135.3339  154.7478 H   0  0  0  0  0  0  0  0  0  0  0  0  # atno 10765 bound_to 10752
  140.7672  134.3231  157.5085 H   0  0  0  0  0  0  0  0  0  0  0  0  # atno 11005 bound_to 11000
  146.3064  140.3828  142.8686 LP  0  0  0  0  0  0  0  0  0  0  0  0  # atno 17320 bound_to 7965
  144.8901  140.7513  143.5932 LP  0  0  0  0  0  0  0  0  0  0  0  0  # atno 17321 bound_to 7965
  140.5327  143.2240  151.8213 LP  0  0  0  0  0  0  0  0  0  0  0  0  # atno 17342 bound_to 10162
  139.4843  144.4700  151.9437 LP  0  0  0  0  0  0  0  0  0  0  0  0  # atno 17343 bound_to 10162
  157.7215  131.0678  150.6117 LP  0  0  0  0  0  0  0  0  0  0  0  0  # atno 17370 bound_to 10713
  156.6197  130.4402  149.5827 LP  0  0  0  0  0  0  0  0  0  0  0  0  # atno 17371 bound_to 10713
  139.8761  134.9238  156.3335 LP  0  0  0  0  0  0  0  0  0  0  0  0  # atno 17394 bound_to 11000
  140.9608  133.7390  156.0398 LP  0  0  0  0  0  0  0  0  0  0  0  0  # atno 17395 bound_to 11000

$$$$
