AV-unprocessed.smi:994|AV-procd|sdf|4340|dock7
  -GOLD-   22720 2243D 1   1.00000     0.00000
 Structure written by MMmdl.
 38 39  0  0  0  0  0  0  0  0  3 V2000
  151.2644  140.3352  158.1535 O   0  0  0  0  0  0  0  0  0  0  0  0
  151.2013  141.3777  157.5014 C   0  0  0  0  0  0  0  0  0  0  0  0
  150.7273  141.4354  156.2472 N   0  0  0  0  0  0  0  0  0  0  0  0
  150.2755  140.2915  155.4544 C   0  0  1  0  0  0  0  0  0  0  0  0
  149.7267  140.7987  154.1033 C   0  0  0  0  0  0  0  0  0  0  0  0
  148.2813  141.2403  154.1212 C   0  0  0  0  0  0  0  0  0  0  0  0
  147.1333  140.6476  153.6239 C   0  0  0  0  0  0  0  0  0  0  0  0
  146.0716  141.4891  153.9115 N   0  0  0  0  0  0  0  0  0  0  0  0
  146.5785  142.5423  154.5488 C   0  0  0  0  0  0  0  0  0  0  0  0
  147.8981  142.4418  154.6972 N   0  3  0  0  0  0  0  0  0  0  0  0
  151.4691  139.3672  155.1777 C   0  0  0  0  0  0  0  0  0  0  0  0
  152.5575  139.6743  155.7102 O   0  0  0  0  0  0  0  0  0  0  0  0
  151.2741  138.3673  154.4505 O   0  5  0  0  0  0  0  0  0  0  0  0
  151.6599  142.7055  158.1184 C   0  0  0  0  0  0  0  0  0  0  0  0
  152.4095  142.4706  159.4475 C   0  0  0  0  0  0  0  0  0  0  0  0
  152.8514  143.7986  160.0847 C   0  0  0  0  0  0  0  0  0  0  0  0
  151.6562  144.7425  160.2915 C   0  0  0  0  0  0  0  0  0  0  0  0
  150.9015  144.9797  158.9738 C   0  0  0  0  0  0  0  0  0  0  0  0
  150.4598  143.6515  158.3377 C   0  0  0  0  0  0  0  0  0  0  0  0
  145.1008  141.3343  153.6786 H   0  0  0  0  0  0  0  0  0  0  0  0
  150.7322  142.3312  155.7816 H   0  0  0  0  0  0  0  0  0  0  0  0
  149.4983  139.7294  155.9763 H   0  0  0  0  0  0  0  0  0  0  0  0
  150.3293  141.6325  153.7387 H   0  0  0  0  0  0  0  0  0  0  0  0
  149.8100  140.0099  153.3539 H   0  0  0  0  0  0  0  0  0  0  0  0
  146.9764  139.7157  153.1002 H   0  0  0  0  0  0  0  0  0  0  0  0
  145.9913  143.3772  154.9025 H   0  0  0  0  0  0  0  0  0  0  0  0
  152.3495  143.1873  157.4225 H   0  0  0  0  0  0  0  0  0  0  0  0
  151.7724  141.9314  160.1505 H   0  0  0  0  0  0  0  0  0  0  0  0
  153.2835  141.8398  159.2792 H   0  0  0  0  0  0  0  0  0  0  0  0
  153.3424  143.6070  161.0391 H   0  0  0  0  0  0  0  0  0  0  0  0
  153.5929  144.2813  159.4469 H   0  0  0  0  0  0  0  0  0  0  0  0
  150.9765  144.3145  161.0296 H   0  0  0  0  0  0  0  0  0  0  0  0
  151.9987  145.6933  160.7007 H   0  0  0  0  0  0  0  0  0  0  0  0
  150.0324  145.6136  159.1524 H   0  0  0  0  0  0  0  0  0  0  0  0
  151.5430  145.5225  158.2781 H   0  0  0  0  0  0  0  0  0  0  0  0
  149.9613  143.8512  157.3883 H   0  0  0  0  0  0  0  0  0  0  0  0
  149.7177  143.1757  158.9811 H   0  0  0  0  0  0  0  0  0  0  0  0
  148.5065  143.1124  155.1457 H   0  0  0  0  0  0  0  0  0  0  0  0
  1  2  2  0  0  0  0
  2  3  1  0  0  0  0
  2 14  1  0  0  0  0
  3  4  1  0  0  0  0
  3 21  1  0  0  0  0
  4  5  1  0  0  0  0
  4 11  1  0  0  0  0
  4 22  1  0  0  0  0
  5  6  1  0  0  0  0
  5 23  1  0  0  0  0
  5 24  1  0  0  0  0
  6 10  1  0  0  0  0
  6  7  2  0  0  0  0
  7  8  1  0  0  0  0
  7 25  1  0  0  0  0
  8 20  1  0  0  0  0
  8  9  1  0  0  0  0
  9 10  2  0  0  0  0
  9 26  1  0  0  0  0
 10 38  1  0  0  0  0
 11 12  2  0  0  0  0
 11 13  1  0  0  0  0
 14 19  1  0  0  0  0
 14 15  1  0  0  0  0
 14 27  1  0  0  0  0
 15 16  1  0  0  0  0
 15 28  1  0  0  0  0
 15 29  1  0  0  0  0
 16 17  1  0  0  0  0
 16 30  1  0  0  0  0
 16 31  1  0  0  0  0
 17 18  1  0  0  0  0
 17 32  1  0  0  0  0
 17 33  1  0  0  0  0
 18 19  1  0  0  0  0
 18 34  1  0  0  0  0
 18 35  1  0  0  0  0
 19 36  1  0  0  0  0
 19 37  1  0  0  0  0
M  CHG  1  10   1
M  CHG  1  13  -1
M  END
> <s_m_source_file>
AV-unprocessed.smi

> <i_m_source_file_index>
994

> <i_lp_mmshare_version>
43012

> <i_f3d_flags>
0

> <s_epik_input>
W0NIMl0xW0NIMl1bQ0gyXVtDSDJdW0NIMl1bQ0hdMUMoPU8pW05IXVtDQEBIXShDKD1PKVtPSF0pW0NIMl1jMltjSF1bbkhdW2NIXW4y

> <s_epik_cmdline>
J2VwaWtfcHl0aG9uJywgJy1waCcsICc3LjAnLCAnLXRuJywgJzgnLCAnLW1hJywgJzIwMCcsICctbWV0YWxfYmluZGluZycsICctaW1hZScsICc8aW5maWxlLm1hZT4nLCAnLW9tYWUnLCAnPG91dGZpbGUubWFlPic=

> <r_lp_tautomer_probability>
1

> <r_epik_Ionization_Penalty>
0.469853

> <r_epik_Ionization_Penalty_Charging>
5.5863e-05

> <r_epik_Ionization_Penalty_Neutral>
0.469797

> <r_epik_State_Penalty>
0.377582

> <r_epik_Charging_Adjusted_Penalty>
0.377638

> <i_epik_Tot_Q>
0

> <i_epik_Tot_abs_Q>
2

> <r_epik_Metal_State_Penalty>
0.796804

> <b_epik_Metal_Only>
0

> <s_lp_Force_Field>
OPLS_2005

> <r_lp_Energy>
8.41083

> <b_lp_Chiralities_Consistent>
1

> <s_lp_Variant>
AV-unprocessed.smi:994-2

> <Gold.Version>
5.8.1

> <Gold.Id.Protein>
6NUR|6NUR_protein|mol2

> <Gold.PLP.Fitness>
55.5468

> <Gold.PLP.PLP>
-38.7581

> <Gold.PLP.part.hbond>
-3.0000

> <Gold.PLP.part.metal>
0.0000

> <Gold.PLP.part.buried>
-2.0381

> <Gold.PLP.part.nonpolar>
-34.1840

> <Gold.PLP.part.repulsive>
0.4772

> <Gold.PLP.ligand.clash>
0.0000

> <Gold.PLP.ligand.torsion>
0.6322

> <Gold.PLP.Chemscore.Hbond>
6.0000

> <Gold.PLP.Chemscore.CHOScore>
0.0000

> <Gold.PLP.Chemscore.Metal>
0.0000

> <Gold.Chemscore.Hbonds>
donor molecule, donor type, donor heavy atom, donor atom, acceptor molecule, acceptor atom, score
      L1  H     8    20       P1 10175  2.00
      L1  H    10    38       P1  8028  2.00
      P1  H  7997  8008       L1    12  2.00

> <Gold.PLP.Chemscore.Internal.Correction>
0.0530

> <Gold.Rescore>
     Score         DG    S(hbond)    S(metal)    S(lipo)     H(rot)  DE(clash)    DE(int)     intcor
     14.33     -18.79       2.76        0.00      94.60       2.72       1.25       3.21       ----

> <Gold.Chemscore.Fitness>
14.3303

> <Gold.Chemscore.DG>
-18.7897

> <Gold.Chemscore.ZeroCoef>
-5.4800

> <Gold.Chemscore.Hbond>
2.7566

> <Gold.Chemscore.Metal>
0.0000

> <Gold.Chemscore.Lipo>
94.5960

> <Gold.Chemscore.Internal_Hbond>
0.0000

> <Gold.Chemscore.DEClash>
1.2526

> <Gold.Chemscore.DEInternal>
3.2067

> <Gold.Chemscore.Rot>
2.7208

> <Gold.Chemscore.Internal.Correction>
   9.000000E+99

> <Gold.Chemscore.Hbonds>
donor molecule, donor type, donor heavy atom, donor atom, acceptor molecule, acceptor atom, score
      L1  H     8    20       P1 10175  0.31
      L1  H    10    38       P1  8028  0.94
      P1  H  7997  8008       L1    12  0.99

> <Gold.Chemscore.Hbond.Weighted>
-9.2071

> <Gold.Chemscore.Metal.Weighted>
-0.0000

> <Gold.Chemscore.Lipo.Weighted>
-11.0677

> <Gold.Chemscore.Internal_Hbond.Weighted>
0.0000

> <Gold.Chemscore.DEClash.Weighted>
1.2526

> <Gold.Chemscore.DEInternal.Weighted>
3.2067

> <Gold.Chemscore.Rot.Weighted>
6.9652

> <Gold.Chemscore.Internal.Correction.Weighted>
   9.000000E+99

> <Gold.Protein.RotatedTorsions>
[ 6907 6896 6895 6894 ] final   -3.84 input  -60.11 | X-H torsion
[ 7974 7965 7964 7962 ] final  114.19 input  175.53 | X-H torsion
[ 8008 7997 7996 7995 ] final  -23.01 input   59.86 | X-H torsion
[ 10167 10162 10161 10158 ] final  112.10 input  -65.29 | X-H torsion
[ 10718 10713 10712 10709 ] final -166.14 input   66.30 | X-H torsion
[ 10763 10752 10751 10750 ] final  -58.90 input  -60.55 | X-H torsion
[ 11005 11000 10999 10996 ] final  103.95 input  -57.11 | X-H torsion

> <Gold.Protein.ActiveResidues>
 VAL166  LYS551  ARG553  GLY616  TRP617  ASP618  TYR619  PRO620  LYS621  CYS622 
 ASP623  PHE694  ASN695  SER759  ASP760  ASP761  ALA762  ILE779  LEU786  VAL792 
 PHE793  MET794  SER795  GLU796  ALA797  LYS798  CYS799  TRP800  GLU811  SER814 

> <Gold.Protein.RotatedAtoms>
  151.5073  135.1064  159.9844 H   0  0  0  0  0  0  0  0  0  0  0  0  # atno 6907 bound_to 6896
  152.4676  133.7954  159.6935 H   0  0  0  0  0  0  0  0  0  0  0  0  # atno 6908 bound_to 6896
  150.8668  133.7499  159.3000 H   0  0  0  0  0  0  0  0  0  0  0  0  # atno 6909 bound_to 6896
  145.2075  139.2922  143.4286 H   0  0  0  0  0  0  0  0  0  0  0  0  # atno 7974 bound_to 7965
  154.4610  140.1992  156.0245 H   0  0  0  0  0  0  0  0  0  0  0  0  # atno 8008 bound_to 7997
  156.0839  140.3267  155.7701 H   0  0  0  0  0  0  0  0  0  0  0  0  # atno 8009 bound_to 7997
  155.5066  140.0558  157.2921 H   0  0  0  0  0  0  0  0  0  0  0  0  # atno 8010 bound_to 7997
  139.6561  144.7129  151.1954 H   0  0  0  0  0  0  0  0  0  0  0  0  # atno 10167 bound_to 10162
  156.6635  130.9055  151.3033 H   0  0  0  0  0  0  0  0  0  0  0  0  # atno 10718 bound_to 10713
  154.2453  135.6336  153.5221 H   0  0  0  0  0  0  0  0  0  0  0  0  # atno 10763 bound_to 10752
  152.9922  135.5552  154.5866 H   0  0  0  0  0  0  0  0  0  0  0  0  # atno 10764 bound_to 10752
  154.5381  135.2893  155.1094 H   0  0  0  0  0  0  0  0  0  0  0  0  # atno 10765 bound_to 10752
  139.8788  134.9282  156.5287 H   0  0  0  0  0  0  0  0  0  0  0  0  # atno 11005 bound_to 11000
  146.3405  140.2340  142.8594 LP  0  0  0  0  0  0  0  0  0  0  0  0  # atno 17320 bound_to 7965
  144.9888  140.8527  143.5352 LP  0  0  0  0  0  0  0  0  0  0  0  0  # atno 17321 bound_to 7965
  140.7560  143.6070  150.8643 LP  0  0  0  0  0  0  0  0  0  0  0  0  # atno 17342 bound_to 10162
  139.9723  143.6043  152.2969 LP  0  0  0  0  0  0  0  0  0  0  0  0  # atno 17343 bound_to 10162
  157.7101  130.9431  150.1062 LP  0  0  0  0  0  0  0  0  0  0  0  0  # atno 17370 bound_to 10713
  156.1993  130.3659  149.8809 LP  0  0  0  0  0  0  0  0  0  0  0  0  # atno 17371 bound_to 10713
  140.8397  133.8215  155.9063 LP  0  0  0  0  0  0  0  0  0  0  0  0  # atno 17394 bound_to 11000
  140.9249  134.2095  157.4902 LP  0  0  0  0  0  0  0  0  0  0  0  0  # atno 17395 bound_to 11000

$$$$
