AV-unprocessed.smi:2124|AV-procd|sdf|8659|dock4
  -GOLD-   2272011403D 1   1.00000     0.00000
 Structure written by MMmdl.
 47 49  0  0  0  0  0  0  0  0  1 V2000
  148.2600  134.6297  154.8191 C   0  0  0  0  0  0  0  0  0  0  0  0
  149.2175  135.5224  155.5780 C   0  0  0  0  0  0  0  0  0  0  0  0
  150.0190  136.3014  154.7596 N   0  0  0  0  0  0  0  0  0  0  0  0
  150.9290  137.1509  155.3638 C   0  0  0  0  0  0  0  0  0  0  0  0
  151.7632  137.9737  154.3978 C   0  0  0  0  0  0  0  0  0  0  0  0
  151.0352  137.2197  156.7150 C   0  0  0  0  0  0  0  0  0  0  0  0
  152.0173  138.1507  157.4250 C   0  0  0  0  0  0  0  0  0  0  0  0
  151.8844  139.6429  157.1087 C   0  0  0  0  0  0  0  0  0  0  0  0
  152.5773  140.1647  156.2348 O   0  0  0  0  0  0  0  0  0  0  0  0
  150.9792  140.3171  157.8339 N   0  0  0  0  0  0  0  0  0  0  0  0
  150.6781  141.7411  157.7040 C   0  0  1  0  0  0  0  0  0  0  0  0
  149.2380  141.9119  157.1918 C   0  0  0  0  0  0  0  0  0  0  0  0
  150.9006  142.4512  159.0596 C   0  0  2  0  0  0  0  0  0  0  0  0
  150.1698  143.8048  159.2092 C   0  0  0  0  0  0  0  0  0  0  0  0
  151.2832  144.7479  159.7018 C   0  0  2  0  0  0  0  0  0  0  0  0
  152.2296  145.0647  158.5293 C   0  0  0  0  0  0  0  0  0  0  0  0
  152.9955  143.7419  158.3471 C   0  0  0  0  0  0  0  0  0  0  0  0
  152.3610  142.8288  159.4170 C   0  0  1  0  0  0  0  0  0  0  0  0
  152.1386  143.8193  160.5556 C   0  0  0  0  0  0  0  0  0  0  0  0
  150.1467  136.3658  157.5381 C   0  0  0  0  0  0  0  0  0  0  0  0
  150.1863  136.3938  158.7674 O   0  0  0  0  0  0  0  0  0  0  0  0
  149.2436  135.5184  156.8761 N   0  0  0  0  0  0  0  0  0  0  0  0
  149.9721  136.2819  153.7510 H   0  0  0  0  0  0  0  0  0  0  0  0
  147.6145  134.0783  155.5040 H   0  0  0  0  0  0  0  0  0  0  0  0
  148.8116  133.9087  154.2150 H   0  0  0  0  0  0  0  0  0  0  0  0
  147.6265  135.2238  154.1597 H   0  0  0  0  0  0  0  0  0  0  0  0
  151.6470  139.0379  154.6043 H   0  0  0  0  0  0  0  0  0  0  0  0
  151.4677  137.7997  153.3623 H   0  0  0  0  0  0  0  0  0  0  0  0
  152.8183  137.7165  154.4925 H   0  0  0  0  0  0  0  0  0  0  0  0
  153.0336  137.8511  157.1696 H   0  0  0  0  0  0  0  0  0  0  0  0
  151.9506  138.0116  158.5048 H   0  0  0  0  0  0  0  0  0  0  0  0
  150.4570  139.8052  158.5302 H   0  0  0  0  0  0  0  0  0  0  0  0
  151.3464  142.1871  156.9662 H   0  0  0  0  0  0  0  0  0  0  0  0
  148.9865  142.9636  157.0541 H   0  0  0  0  0  0  0  0  0  0  0  0
  148.5149  141.4865  157.8885 H   0  0  0  0  0  0  0  0  0  0  0  0
  149.1019  141.4181  156.2290 H   0  0  0  0  0  0  0  0  0  0  0  0
  150.5407  141.7844  159.8453 H   0  0  0  0  0  0  0  0  0  0  0  0
  149.7272  144.1588  158.2772 H   0  0  0  0  0  0  0  0  0  0  0  0
  149.3686  143.7261  159.9449 H   0  0  0  0  0  0  0  0  0  0  0  0
  150.9099  145.6352  160.2139 H   0  0  0  0  0  0  0  0  0  0  0  0
  151.6896  145.3604  157.6290 H   0  0  0  0  0  0  0  0  0  0  0  0
  152.9154  145.8722  158.7884 H   0  0  0  0  0  0  0  0  0  0  0  0
  152.9190  143.3433  157.3360 H   0  0  0  0  0  0  0  0  0  0  0  0
  154.0557  143.8898  158.5556 H   0  0  0  0  0  0  0  0  0  0  0  0
  152.9817  141.9722  159.6807 H   0  0  0  0  0  0  0  0  0  0  0  0
  153.0590  144.2844  160.9133 H   0  0  0  0  0  0  0  0  0  0  0  0
  151.6007  143.3937  161.4047 H   0  0  0  0  0  0  0  0  0  0  0  0
  1 24  1  0  0  0  0
  1 25  1  0  0  0  0
  1 26  1  0  0  0  0
  1  2  1  0  0  0  0
  2  3  1  0  0  0  0
  2 22  2  0  0  0  0
  3  4  1  0  0  0  0
  3 23  1  0  0  0  0
  4  6  2  0  0  0  0
  4  5  1  0  0  0  0
  5 27  1  0  0  0  0
  5 28  1  0  0  0  0
  5 29  1  0  0  0  0
  6 20  1  0  0  0  0
  6  7  1  0  0  0  0
  7  8  1  0  0  0  0
  7 30  1  0  0  0  0
  7 31  1  0  0  0  0
  8  9  2  0  0  0  0
  8 10  1  0  0  0  0
 10 11  1  0  0  0  0
 10 32  1  0  0  0  0
 11 12  1  0  0  0  0
 11 13  1  0  0  0  0
 11 33  1  0  0  0  0
 12 34  1  0  0  0  0
 12 35  1  0  0  0  0
 12 36  1  0  0  0  0
 13 18  1  0  0  0  0
 13 14  1  0  0  0  0
 13 37  1  0  0  0  0
 14 15  1  0  0  0  0
 14 38  1  0  0  0  0
 14 39  1  0  0  0  0
 15 19  1  0  0  0  0
 15 16  1  0  0  0  0
 15 40  1  0  0  0  0
 16 17  1  0  0  0  0
 16 41  1  0  0  0  0
 16 42  1  0  0  0  0
 17 18  1  0  0  0  0
 17 43  1  0  0  0  0
 17 44  1  0  0  0  0
 18 19  1  0  0  0  0
 18 45  1  0  0  0  0
 19 46  1  0  0  0  0
 19 47  1  0  0  0  0
 20 21  2  0  0  0  0
 20 22  1  0  0  0  0
M  END
> <s_m_source_file>
AV-unprocessed.smi

> <i_m_source_file_index>
2124

> <i_lp_mmshare_version>
43012

> <i_f3d_flags>
0

> <s_epik_input>
W0NIM11jMW5jKFtDSDNdKWMoYyg9TylbbkhdMSlbQ0gyXUMoPU8pW05IXVtDQEhdKFtDSDNdKVtDQEhdKFtDSDJdW0NASF0yMylbQ0BIXShbQ0gyXTMpW0NIMl1bQ0gyXTI=

> <s_epik_cmdline>
J2VwaWtfcHl0aG9uJywgJy1waCcsICc3LjAnLCAnLXRuJywgJzgnLCAnLW1hJywgJzIwMCcsICctbWV0YWxfYmluZGluZycsICctaW1hZScsICc8aW5maWxlLm1hZT4nLCAnLW9tYWUnLCAnPG91dGZpbGUubWFlPic=

> <r_lp_tautomer_probability>
0.156392

> <r_epik_Ionization_Penalty>
0.0139374

> <r_epik_Ionization_Penalty_Charging>
0.0138122

> <r_epik_Ionization_Penalty_Neutral>
0.000125146

> <r_epik_State_Penalty>
1.15342

> <r_epik_Charging_Adjusted_Penalty>
1.16723

> <i_epik_Tot_Q>
0

> <i_epik_Tot_abs_Q>
0

> <r_epik_Metal_State_Penalty>
1.3173

> <b_epik_Metal_Only>
0

> <s_lp_Force_Field>
OPLS_2005

> <r_lp_Energy>
55.6294

> <b_lp_Chiralities_Consistent>
1

> <s_lp_Variant>
AV-unprocessed.smi:2124-10

> <Gold.Version>
5.8.1

> <Gold.Id.Protein>
6NUR|6NUR_protein|mol2

> <Gold.PLP.Fitness>
42.2971

> <Gold.PLP.PLP>
-34.8962

> <Gold.PLP.part.hbond>
-3.0000

> <Gold.PLP.part.metal>
0.0000

> <Gold.PLP.part.buried>
-3.1871

> <Gold.PLP.part.nonpolar>
-28.6147

> <Gold.PLP.part.repulsive>
0.1288

> <Gold.PLP.ligand.clash>
0.0000

> <Gold.PLP.ligand.torsion>
0.8056

> <Gold.PLP.Chemscore.Hbond>
3.0000

> <Gold.PLP.Chemscore.CHOScore>
0.0000

> <Gold.PLP.Chemscore.Metal>
0.0000

> <Gold.Chemscore.Hbonds>
donor molecule, donor type, donor heavy atom, donor atom, acceptor molecule, acceptor atom, score
      L1  H     3    23       P1  7948  0.69
      P1  H  6896  6907       L1    21  1.00
      P1  H  7997  8009       L1     9  1.00

> <Gold.PLP.Chemscore.Internal.Correction>
0.0122

> <Gold.Rescore>
     Score         DG    S(hbond)    S(metal)    S(lipo)     H(rot)  DE(clash)    DE(int)     intcor
     22.35     -23.95       2.84        0.00     112.92       1.65       0.90       0.70       ----

> <Gold.Chemscore.Fitness>
22.3540

> <Gold.Chemscore.DG>
-23.9519

> <Gold.Chemscore.ZeroCoef>
-5.4800

> <Gold.Chemscore.Hbond>
2.8422

> <Gold.Chemscore.Metal>
0.0000

> <Gold.Chemscore.Lipo>
112.9192

> <Gold.Chemscore.Internal_Hbond>
0.0000

> <Gold.Chemscore.DEClash>
0.9027

> <Gold.Chemscore.DEInternal>
0.6952

> <Gold.Chemscore.Rot>
1.6534

> <Gold.Chemscore.Internal.Correction>
   9.000000E+99

> <Gold.Chemscore.Hbonds>
donor molecule, donor type, donor heavy atom, donor atom, acceptor molecule, acceptor atom, score
      L1  H     3    23       P1  7948  0.12
      P1  H  6896  6907       L1    21  0.97
      P1  H  7997  8009       L1     9  0.98

> <Gold.Chemscore.Hbond.Weighted>
-9.4929

> <Gold.Chemscore.Metal.Weighted>
-0.0000

> <Gold.Chemscore.Lipo.Weighted>
-13.2115

> <Gold.Chemscore.Internal_Hbond.Weighted>
0.0000

> <Gold.Chemscore.DEClash.Weighted>
0.9027

> <Gold.Chemscore.DEInternal.Weighted>
0.6952

> <Gold.Chemscore.Rot.Weighted>
4.2326

> <Gold.Chemscore.Internal.Correction.Weighted>
   9.000000E+99

> <Gold.Protein.RotatedTorsions>
[ 6907 6896 6895 6894 ] final  -39.44 input  -60.11 | X-H torsion
[ 7974 7965 7964 7962 ] final   50.43 input  175.53 | X-H torsion
[ 8008 7997 7996 7995 ] final -155.09 input   59.86 | X-H torsion
[ 10167 10162 10161 10158 ] final  -63.87 input  -65.29 | X-H torsion
[ 10718 10713 10712 10709 ] final  138.50 input   66.30 | X-H torsion
[ 10763 10752 10751 10750 ] final  133.54 input  -60.55 | X-H torsion
[ 11005 11000 10999 10996 ] final  -52.01 input  -57.11 | X-H torsion

> <Gold.Protein.ActiveResidues>
 VAL166  LYS551  ARG553  GLY616  TRP617  ASP618  TYR619  PRO620  LYS621  CYS622 
 ASP623  PHE694  ASN695  SER759  ASP760  ASP761  ALA762  ILE779  LEU786  VAL792 
 PHE793  MET794  SER795  GLU796  ALA797  LYS798  CYS799  TRP800  GLU811  SER814 

> <Gold.Protein.RotatedAtoms>
  150.9903  134.9239  159.7895 H   0  0  0  0  0  0  0  0  0  0  0  0  # atno 6907 bound_to 6896
  152.5249  134.3291  159.9186 H   0  0  0  0  0  0  0  0  0  0  0  0  # atno 6908 bound_to 6896
  151.3297  133.3964  159.2696 H   0  0  0  0  0  0  0  0  0  0  0  0  # atno 6909 bound_to 6896
  146.0013  139.4442  143.0013 H   0  0  0  0  0  0  0  0  0  0  0  0  # atno 7974 bound_to 7965
  155.6964  140.0761  157.2427 H   0  0  0  0  0  0  0  0  0  0  0  0  # atno 8008 bound_to 7997
  154.4080  140.1655  156.2196 H   0  0  0  0  0  0  0  0  0  0  0  0  # atno 8009 bound_to 7997
  155.9406  140.3384  155.6327 H   0  0  0  0  0  0  0  0  0  0  0  0  # atno 8010 bound_to 7997
  140.5840  143.2331  151.6281 H   0  0  0  0  0  0  0  0  0  0  0  0  # atno 10167 bound_to 10162
  157.4246  131.1042  151.0317 H   0  0  0  0  0  0  0  0  0  0  0  0  # atno 10718 bound_to 10713
  153.8089  135.3131  155.3398 H   0  0  0  0  0  0  0  0  0  0  0  0  # atno 10763 bound_to 10752
  154.8059  135.4698  154.0395 H   0  0  0  0  0  0  0  0  0  0  0  0  # atno 10764 bound_to 10752
  153.1766  135.6887  153.8622 H   0  0  0  0  0  0  0  0  0  0  0  0  # atno 10765 bound_to 10752
  141.0902  133.6634  156.3962 H   0  0  0  0  0  0  0  0  0  0  0  0  # atno 11005 bound_to 11000
  145.7483  140.9982  143.1264 LP  0  0  0  0  0  0  0  0  0  0  0  0  # atno 17320 bound_to 7965
  144.6920  139.9183  143.7466 LP  0  0  0  0  0  0  0  0  0  0  0  0  # atno 17321 bound_to 7965
  139.5187  144.3277  152.0854 LP  0  0  0  0  0  0  0  0  0  0  0  0  # atno 17342 bound_to 10162
  140.2431  144.4248  150.6252 LP  0  0  0  0  0  0  0  0  0  0  0  0  # atno 17343 bound_to 10162
  157.1235  130.6072  149.5511 LP  0  0  0  0  0  0  0  0  0  0  0  0  # atno 17370 bound_to 10713
  155.9892  130.4938  150.7203 LP  0  0  0  0  0  0  0  0  0  0  0  0  # atno 17371 bound_to 10713
  140.5270  134.6249  157.5337 LP  0  0  0  0  0  0  0  0  0  0  0  0  # atno 17394 bound_to 11000
  139.9726  134.7267  156.0011 LP  0  0  0  0  0  0  0  0  0  0  0  0  # atno 17395 bound_to 11000

$$$$
