AV-unprocessed.smi:283|AV-procd|sdf|2126|dock8
  -GOLD-   2262021433D 1   1.00000     0.00000
 Structure written by MMmdl.
 48 51  0  0  0  0  0  0  0  0  1 V2000
  151.8749  143.4708  157.1463 C   0  0  0  0  0  0  0  0  0  0  0  0
  151.2561  142.3846  158.0446 C   0  0  1  0  0  0  0  0  0  0  0  0
  150.8865  141.2030  157.2661 N   0  0  0  0  0  0  0  0  0  0  0  0
  149.8855  141.2341  156.3585 C   0  0  0  0  0  0  0  0  0  0  0  0
  149.9834  140.5766  155.1732 N   0  0  0  0  0  0  0  0  0  0  0  0
  148.9785  140.6283  154.2934 C   0  0  0  0  0  0  0  0  0  0  0  0
  147.8114  141.2691  154.3954 N   0  0  0  0  0  0  0  0  0  0  0  0
  147.7131  141.9349  155.5822 C   0  0  0  0  0  0  0  0  0  0  0  0
  148.6966  141.9665  156.6088 C   0  0  0  0  0  0  0  0  0  0  0  0
  148.2436  142.7409  157.6692 N   0  0  0  0  0  0  0  0  0  0  0  0
  147.0602  143.1405  157.2863 C   0  0  0  0  0  0  0  0  0  0  0  0
  146.6641  142.6998  156.0409 N   0  0  0  0  0  0  0  0  0  0  0  0
  145.3889  142.9568  155.3051 C   0  0  2  0  0  0  0  0  0  0  0  0
  145.2643  144.3396  155.1337 O   0  0  0  0  0  0  0  0  0  0  0  0
  144.1255  144.8399  155.8321 C   0  0  2  0  0  0  0  0  0  0  0  0
  144.4371  146.2343  156.3974 C   0  0  0  0  0  0  0  0  0  0  0  0
  145.7032  146.2422  157.0216 O   0  0  0  0  0  0  0  0  0  0  0  0
  143.8260  143.7705  156.8851 C   0  0  1  0  0  0  0  0  0  0  0  0
  142.4823  143.7690  157.3269 O   0  0  0  0  0  0  0  0  0  0  0  0
  144.2068  142.4872  156.1617 C   0  0  1  0  0  0  0  0  0  0  0  0
  143.1677  141.9731  155.3486 O   0  0  0  0  0  0  0  0  0  0  0  0
  152.2059  142.0572  159.1958 C   0  0  0  0  0  0  0  0  0  0  0  0
  152.6263  143.0802  160.0787 C   0  0  0  0  0  0  0  0  0  0  0  0
  153.4950  142.7940  161.1487 C   0  0  0  0  0  0  0  0  0  0  0  0
  153.9491  141.4790  161.3532 C   0  0  0  0  0  0  0  0  0  0  0  0
  153.5281  140.4511  160.4900 C   0  0  0  0  0  0  0  0  0  0  0  0
  152.6578  140.7309  159.4172 C   0  0  0  0  0  0  0  0  0  0  0  0
  152.1601  139.4223  158.4021 Cl  0  0  0  0  0  0  0  0  0  0  0  0
  145.5060  142.4318  154.3559 H   0  0  0  0  0  0  0  0  0  0  0  0
  143.3095  144.8947  155.1090 H   0  0  0  0  0  0  0  0  0  0  0  0
  144.4827  143.9057  157.7457 H   0  0  0  0  0  0  0  0  0  0  0  0
  144.5108  141.7019  156.8558 H   0  0  0  0  0  0  0  0  0  0  0  0
  152.1048  144.3681  157.7214 H   0  0  0  0  0  0  0  0  0  0  0  0
  151.2017  143.7671  156.3422 H   0  0  0  0  0  0  0  0  0  0  0  0
  152.8024  143.1238  156.6896 H   0  0  0  0  0  0  0  0  0  0  0  0
  150.3373  142.7744  158.4808 H   0  0  0  0  0  0  0  0  0  0  0  0
  151.4818  140.3969  157.3911 H   0  0  0  0  0  0  0  0  0  0  0  0
  149.1321  140.0779  153.3770 H   0  0  0  0  0  0  0  0  0  0  0  0
  146.4432  143.7709  157.9096 H   0  0  0  0  0  0  0  0  0  0  0  0
  144.4072  146.9936  155.6156 H   0  0  0  0  0  0  0  0  0  0  0  0
  143.6912  146.5103  157.1430 H   0  0  0  0  0  0  0  0  0  0  0  0
  145.5767  146.2696  157.9581 H   0  0  0  0  0  0  0  0  0  0  0  0
  142.3832  144.4496  157.9758 H   0  0  0  0  0  0  0  0  0  0  0  0
  143.5570  141.4963  154.6314 H   0  0  0  0  0  0  0  0  0  0  0  0
  152.2818  144.0950  159.9460 H   0  0  0  0  0  0  0  0  0  0  0  0
  153.8108  143.5840  161.8143 H   0  0  0  0  0  0  0  0  0  0  0  0
  154.6150  141.2575  162.1742 H   0  0  0  0  0  0  0  0  0  0  0  0
  153.8730  139.4408  160.6545 H   0  0  0  0  0  0  0  0  0  0  0  0
  1  2  1  0  0  0  0
  1 33  1  0  0  0  0
  1 34  1  0  0  0  0
  1 35  1  0  0  0  0
  2  3  1  0  0  0  0
  2 22  1  0  0  0  0
  2 36  1  0  0  0  0
  3  4  1  0  0  0  0
  3 37  1  0  0  0  0
  4  9  1  0  0  0  0
  4  5  2  0  0  0  0
  5  6  1  0  0  0  0
  6  7  2  0  0  0  0
  6 38  1  0  0  0  0
  7  8  1  0  0  0  0
  8 12  1  0  0  0  0
  8  9  2  0  0  0  0
  9 10  1  0  0  0  0
 10 11  2  0  0  0  0
 11 12  1  0  0  0  0
 11 39  1  0  0  0  0
 12 13  1  0  0  0  0
 13 29  1  0  0  0  0
 13 20  1  0  0  0  0
 13 14  1  0  0  0  0
 14 15  1  0  0  0  0
 15 30  1  0  0  0  0
 15 16  1  0  0  0  0
 15 18  1  0  0  0  0
 16 17  1  0  0  0  0
 16 40  1  0  0  0  0
 16 41  1  0  0  0  0
 17 42  1  0  0  0  0
 18 31  1  0  0  0  0
 18 19  1  0  0  0  0
 18 20  1  0  0  0  0
 19 43  1  0  0  0  0
 20 32  1  0  0  0  0
 20 21  1  0  0  0  0
 21 44  1  0  0  0  0
 22 27  1  0  0  0  0
 22 23  2  0  0  0  0
 23 24  1  0  0  0  0
 23 45  1  0  0  0  0
 24 25  2  0  0  0  0
 24 46  1  0  0  0  0
 25 26  1  0  0  0  0
 25 47  1  0  0  0  0
 26 27  2  0  0  0  0
 26 48  1  0  0  0  0
 27 28  1  0  0  0  0
M  END
> <s_m_source_file>
AV-unprocessed.smi

> <i_m_source_file_index>
283

> <i_lp_mmshare_version>
43012

> <i_f3d_flags>
0

> <s_epik_input>
Q2xjMVtjSF1bY0hdW2NIXVtjSF1jMVtDQEhdKFtDSDNdKVtOSF1jKG5bY0hdbjIpYyhjMjMpbltjSF1uM1tDQEBIXTRPW0NASF0oW0NIMl1bT0hdKVtDQEBIXShbT0hdKVtDQEhdNFtPSF0=

> <s_epik_cmdline>
J2VwaWtfcHl0aG9uJywgJy1waCcsICc3LjAnLCAnLXRuJywgJzgnLCAnLW1hJywgJzIwMCcsICctbWV0YWxfYmluZGluZycsICctaW1hZScsICc8aW5maWxlLm1hZT4nLCAnLW9tYWUnLCAnPG91dGZpbGUubWFlPic=

> <r_lp_tautomer_probability>
1

> <r_epik_Ionization_Penalty>
0.000266407

> <r_epik_Ionization_Penalty_Charging>
0

> <r_epik_Ionization_Penalty_Neutral>
0.000266407

> <r_epik_State_Penalty>
-0

> <r_epik_Charging_Adjusted_Penalty>
0

> <i_epik_Tot_Q>
0

> <i_epik_Tot_abs_Q>
0

> <r_epik_Metal_State_Penalty>
-0

> <b_epik_Metal_Only>
0

> <s_epik_Chemistry_Notes>
This compound contains an acetal/aminal-like group ( X-CH(R)-Y where X, Y are N, S, or O) that may be acid/base labile, releasing an aldehyde.

> <s_lp_Force_Field>
OPLS_2005

> <r_lp_Energy>
43.9323

> <b_lp_Chiralities_Consistent>
1

> <s_lp_Variant>
AV-unprocessed.smi:283-2

> <Gold.Version>
5.8.1

> <Gold.Id.Protein>
6NUR|6NUR_protein|mol2

> <Gold.PLP.Fitness>
46.8731

> <Gold.PLP.PLP>
-42.0812

> <Gold.PLP.part.hbond>
-3.0000

> <Gold.PLP.part.metal>
0.0000

> <Gold.PLP.part.buried>
-3.9040

> <Gold.PLP.part.nonpolar>
-34.3812

> <Gold.PLP.part.repulsive>
0.6163

> <Gold.PLP.ligand.clash>
1.3335

> <Gold.PLP.ligand.torsion>
0.4842

> <Gold.PLP.Chemscore.Hbond>
1.3497

> <Gold.PLP.Chemscore.CHOScore>
0.9973

> <Gold.PLP.Chemscore.Metal>
0.0000

> <Gold.Chemscore.Hbonds>
donor molecule, donor type, donor heavy atom, donor atom, acceptor molecule, acceptor atom, score
      L1  H    21    44       P1 10175  0.23
      P1  H  7989  7998       L1     5  0.10
      L1  C     6    38       P1  7957  1.00
      L1  C    11    39       P1  8029  0.13

> <Gold.PLP.Chemscore.Internal.Correction>
0.0529

> <Gold.Rescore>
     Score         DG    S(hbond)    S(metal)    S(lipo)     H(rot)  DE(clash)    DE(int)     intcor
      6.44     -10.16       1.10        0.00      98.38       4.10       1.32       2.40       ----

> <Gold.Chemscore.Fitness>
6.4423

> <Gold.Chemscore.DG>
-10.1619

> <Gold.Chemscore.ZeroCoef>
-5.4800

> <Gold.Chemscore.Hbond>
1.0956

> <Gold.Chemscore.Metal>
0.0000

> <Gold.Chemscore.Lipo>
98.3805

> <Gold.Chemscore.Internal_Hbond>
0.0000

> <Gold.Chemscore.DEClash>
1.3156

> <Gold.Chemscore.DEInternal>
2.4039

> <Gold.Chemscore.Rot>
4.0968

> <Gold.Chemscore.Internal.Correction>
   9.000000E+99

> <Gold.Chemscore.Hbonds>
donor molecule, donor type, donor heavy atom, donor atom, acceptor molecule, acceptor atom, score
      L1  H    21    44       P1 10175  0.07
      P1  H  7989  7998       L1     5  0.01

> <Gold.Chemscore.Hbond.Weighted>
-3.6593

> <Gold.Chemscore.Metal.Weighted>
-0.0000

> <Gold.Chemscore.Lipo.Weighted>
-11.5105

> <Gold.Chemscore.Internal_Hbond.Weighted>
0.0000

> <Gold.Chemscore.DEClash.Weighted>
1.3156

> <Gold.Chemscore.DEInternal.Weighted>
2.4039

> <Gold.Chemscore.Rot.Weighted>
10.4879

> <Gold.Chemscore.Internal.Correction.Weighted>
   9.000000E+99

> <Gold.Protein.RotatedTorsions>
[ 6907 6896 6895 6894 ] final  172.64 input  -60.11 | X-H torsion
[ 7974 7965 7964 7962 ] final  -75.75 input  175.53 | X-H torsion
[ 8008 7997 7996 7995 ] final -107.02 input   59.86 | X-H torsion
[ 10167 10162 10161 10158 ] final   77.20 input  -65.29 | X-H torsion
[ 10718 10713 10712 10709 ] final  138.20 input   66.30 | X-H torsion
[ 10763 10752 10751 10750 ] final -162.56 input  -60.55 | X-H torsion
[ 11005 11000 10999 10996 ] final  175.98 input  -57.11 | X-H torsion

> <Gold.Protein.ActiveResidues>
 VAL166  LYS551  ARG553  GLY616  TRP617  ASP618  TYR619  PRO620  LYS621  CYS622 
 ASP623  PHE694  ASN695  SER759  ASP760  ASP761  ALA762  ILE779  LEU786  VAL792 
 PHE793  MET794  SER795  GLU796  ALA797  LYS798  CYS799  TRP800  GLU811  SER814 

> <Gold.Protein.RotatedAtoms>
  151.7811  133.3350  159.3471 H   0  0  0  0  0  0  0  0  0  0  0  0  # atno 6907 bound_to 6896
  150.7426  134.5930  159.6006 H   0  0  0  0  0  0  0  0  0  0  0  0  # atno 6908 bound_to 6896
  152.3275  134.7303  160.0349 H   0  0  0  0  0  0  0  0  0  0  0  0  # atno 6909 bound_to 6896
  145.6219  140.9360  143.1133 H   0  0  0  0  0  0  0  0  0  0  0  0  # atno 7974 bound_to 7965
  154.9232  140.0407  157.2009 H   0  0  0  0  0  0  0  0  0  0  0  0  # atno 8008 bound_to 7997
  154.8233  140.2887  155.5750 H   0  0  0  0  0  0  0  0  0  0  0  0  # atno 8009 bound_to 7997
  156.2981  140.2514  156.3145 H   0  0  0  0  0  0  0  0  0  0  0  0  # atno 8010 bound_to 7997
  139.9841  144.5805  150.7875 H   0  0  0  0  0  0  0  0  0  0  0  0  # atno 10167 bound_to 10162
  157.4279  131.1045  151.0283 H   0  0  0  0  0  0  0  0  0  0  0  0  # atno 10718 bound_to 10713
  154.7203  135.3024  154.9058 H   0  0  0  0  0  0  0  0  0  0  0  0  # atno 10763 bound_to 10752
  153.9932  135.6716  153.4759 H   0  0  0  0  0  0  0  0  0  0  0  0  # atno 10764 bound_to 10752
  153.0828  135.5000  154.8454 H   0  0  0  0  0  0  0  0  0  0  0  0  # atno 10765 bound_to 10752
  140.3682  134.7053  157.4375 H   0  0  0  0  0  0  0  0  0  0  0  0  # atno 11005 bound_to 11000
  144.7227  139.7975  143.7376 LP  0  0  0  0  0  0  0  0  0  0  0  0  # atno 17320 bound_to 7965
  146.1424  139.4485  143.0100 LP  0  0  0  0  0  0  0  0  0  0  0  0  # atno 17321 bound_to 7965
  140.7478  143.2913  151.3324 LP  0  0  0  0  0  0  0  0  0  0  0  0  # atno 17342 bound_to 10162
  139.6388  144.0579  152.2537 LP  0  0  0  0  0  0  0  0  0  0  0  0  # atno 17343 bound_to 10162
  157.1190  130.6053  149.5500 LP  0  0  0  0  0  0  0  0  0  0  0  0  # atno 17370 bound_to 10713
  155.9903  130.4953  150.7250 LP  0  0  0  0  0  0  0  0  0  0  0  0  # atno 17371 bound_to 10713
  140.0573  134.6046  155.8790 LP  0  0  0  0  0  0  0  0  0  0  0  0  # atno 17394 bound_to 11000
  141.1963  133.6591  156.5685 LP  0  0  0  0  0  0  0  0  0  0  0  0  # atno 17395 bound_to 11000

$$$$
