AV-unprocessed.smi:1297|AV-procd|sdf|5416|dock8
  -GOLD-   22720 4573D 1   1.00000     0.00000
 Structure written by MMmdl.
 26 27  0  0  0  0  0  0  0  0  1 V2000
  149.8834  138.4012  158.8475 C   0  0  0  0  0  0  0  0  0  0  0  0
  151.6960  138.3679  158.9481 S   0  0  0  0  0  0  0  0  0  0  0  0
  152.0358  140.1018  159.0577 C   0  0  0  0  0  0  0  0  0  0  0  0
  152.7630  140.6696  160.0253 N   0  0  0  0  0  0  0  0  0  0  0  0
  152.7681  142.0170  159.7483 N   0  0  0  0  0  0  0  0  0  0  0  0
  152.0607  142.1493  158.6248 C   0  0  0  0  0  0  0  0  0  0  0  0
  151.7801  143.4692  157.9777 C   0  0  0  0  0  0  0  0  0  0  0  0
  152.5684  144.7037  158.3554 C   0  0  0  0  0  0  0  0  0  0  0  0
  151.1167  144.5968  158.7397 C   0  0  0  0  0  0  0  0  0  0  0  0
  151.5645  140.9866  158.1520 N   0  0  0  0  0  0  0  0  0  0  0  0
  150.7298  140.7540  156.9780 C   0  0  0  0  0  0  0  0  0  0  0  0
  151.3559  139.7362  156.0207 C   0  0  0  0  0  0  0  0  0  0  0  0
  150.6832  138.6044  155.7978 N   0  0  0  0  0  0  0  0  0  0  0  0
  152.4318  139.9751  155.4776 O   0  0  0  0  0  0  0  0  0  0  0  0
  149.4967  137.3846  158.7782 H   0  0  0  0  0  0  0  0  0  0  0  0
  149.5565  138.9509  157.9643 H   0  0  0  0  0  0  0  0  0  0  0  0
  149.4553  138.8696  159.7342 H   0  0  0  0  0  0  0  0  0  0  0  0
  151.5080  143.3356  156.9326 H   0  0  0  0  0  0  0  0  0  0  0  0
  153.3014  144.6141  159.1547 H   0  0  0  0  0  0  0  0  0  0  0  0
  152.8310  145.3938  157.5564 H   0  0  0  0  0  0  0  0  0  0  0  0
  150.4068  145.2183  158.1980 H   0  0  0  0  0  0  0  0  0  0  0  0
  150.8903  144.4400  159.7927 H   0  0  0  0  0  0  0  0  0  0  0  0
  149.7439  140.4103  157.2917 H   0  0  0  0  0  0  0  0  0  0  0  0
  150.5728  141.7007  156.4598 H   0  0  0  0  0  0  0  0  0  0  0  0
  151.0612  137.9073  155.1722 H   0  0  0  0  0  0  0  0  0  0  0  0
  149.7967  138.4496  156.2557 H   0  0  0  0  0  0  0  0  0  0  0  0
  1  2  1  0  0  0  0
  1 15  1  0  0  0  0
  1 16  1  0  0  0  0
  1 17  1  0  0  0  0
  2  3  1  0  0  0  0
  3 10  1  0  0  0  0
  3  4  2  0  0  0  0
  4  5  1  0  0  0  0
  5  6  2  0  0  0  0
  6  7  1  0  0  0  0
  6 10  1  0  0  0  0
  7  9  1  0  0  0  0
  7  8  1  0  0  0  0
  7 18  1  0  0  0  0
  8  9  1  0  0  0  0
  8 19  1  0  0  0  0
  8 20  1  0  0  0  0
  9 21  1  0  0  0  0
  9 22  1  0  0  0  0
 10 11  1  0  0  0  0
 11 12  1  0  0  0  0
 11 23  1  0  0  0  0
 11 24  1  0  0  0  0
 12 13  1  0  0  0  0
 12 14  2  0  0  0  0
 13 25  1  0  0  0  0
 13 26  1  0  0  0  0
M  END
> <s_m_source_file>
AV-unprocessed.smi

> <i_m_source_file_index>
1297

> <i_lp_mmshare_version>
43012

> <i_f3d_flags>
0

> <s_epik_input>
W0NIM11TYzFubmMoW0NIXTJbQ0gyXVtDSDJdMiluMVtDSDJdQyg9TylbTkgyXQ==

> <s_epik_cmdline>
J2VwaWtfcHl0aG9uJywgJy1waCcsICc3LjAnLCAnLXRuJywgJzgnLCAnLW1hJywgJzIwMCcsICctbWV0YWxfYmluZGluZycsICctaW1hZScsICc8aW5maWxlLm1hZT4nLCAnLW9tYWUnLCAnPG91dGZpbGUubWFlPic=

> <r_lp_tautomer_probability>
1

> <r_epik_Ionization_Penalty>
2.14715e-06

> <r_epik_Ionization_Penalty_Charging>
0

> <r_epik_Ionization_Penalty_Neutral>
2.14715e-06

> <r_epik_State_Penalty>
-0

> <r_epik_Charging_Adjusted_Penalty>
0

> <i_epik_Tot_Q>
0

> <i_epik_Tot_abs_Q>
0

> <r_epik_Metal_State_Penalty>
-0

> <b_epik_Metal_Only>
0

> <s_lp_Force_Field>
OPLS_2005

> <r_lp_Energy>
5.16146

> <b_lp_Chiralities_Consistent>
1

> <s_lp_Variant>
AV-unprocessed.smi:1297-1

> <Gold.Version>
5.8.1

> <Gold.Id.Protein>
6NUR|6NUR_protein|mol2

> <Gold.PLP.Fitness>
31.2505

> <Gold.PLP.PLP>
-27.0919

> <Gold.PLP.part.hbond>
-2.0000

> <Gold.PLP.part.metal>
0.0000

> <Gold.PLP.part.buried>
-3.5945

> <Gold.PLP.part.nonpolar>
-21.5905

> <Gold.PLP.part.repulsive>
0.0715

> <Gold.PLP.ligand.clash>
0.0000

> <Gold.PLP.ligand.torsion>
0.2405

> <Gold.PLP.Chemscore.Hbond>
1.5013

> <Gold.PLP.Chemscore.CHOScore>
0.0000

> <Gold.PLP.Chemscore.Metal>
0.0000

> <Gold.Chemscore.Hbonds>
donor molecule, donor type, donor heavy atom, donor atom, acceptor molecule, acceptor atom, score
      P1  H  7989  7998       L1    14  0.22
      P1  H  7997  8009       L1    14  0.96

> <Gold.PLP.Chemscore.Internal.Correction>
0.1356

> <Gold.Rescore>
     Score         DG    S(hbond)    S(metal)    S(lipo)     H(rot)  DE(clash)    DE(int)     intcor
      9.34      -9.55       1.09        0.00      51.63       2.19       0.03       0.18       ----

> <Gold.Chemscore.Fitness>
9.3439

> <Gold.Chemscore.DG>
-9.5507

> <Gold.Chemscore.ZeroCoef>
-5.4800

> <Gold.Chemscore.Hbond>
1.0885

> <Gold.Chemscore.Metal>
0.0000

> <Gold.Chemscore.Lipo>
51.6309

> <Gold.Chemscore.Internal_Hbond>
0.0000

> <Gold.Chemscore.DEClash>
0.0269

> <Gold.Chemscore.DEInternal>
0.1799

> <Gold.Chemscore.Rot>
2.1897

> <Gold.Chemscore.Internal.Correction>
   9.000000E+99

> <Gold.Chemscore.Hbonds>
donor molecule, donor type, donor heavy atom, donor atom, acceptor molecule, acceptor atom, score
      P1  H  7989  7998       L1    14  0.06
      P1  H  7997  8009       L1    14  0.91

> <Gold.Chemscore.Hbond.Weighted>
-3.6356

> <Gold.Chemscore.Metal.Weighted>
-0.0000

> <Gold.Chemscore.Lipo.Weighted>
-6.0408

> <Gold.Chemscore.Internal_Hbond.Weighted>
0.0000

> <Gold.Chemscore.DEClash.Weighted>
0.0269

> <Gold.Chemscore.DEInternal.Weighted>
0.1799

> <Gold.Chemscore.Rot.Weighted>
5.6057

> <Gold.Chemscore.Internal.Correction.Weighted>
   9.000000E+99

> <Gold.Protein.RotatedTorsions>
[ 6907 6896 6895 6894 ] final  -88.83 input  -60.11 | X-H torsion
[ 7974 7965 7964 7962 ] final   88.64 input  175.53 | X-H torsion
[ 8008 7997 7996 7995 ] final -141.79 input   59.86 | X-H torsion
[ 10167 10162 10161 10158 ] final   44.67 input  -65.29 | X-H torsion
[ 10718 10713 10712 10709 ] final  151.55 input   66.30 | X-H torsion
[ 10763 10752 10751 10750 ] final  -66.05 input  -60.55 | X-H torsion
[ 11005 11000 10999 10996 ] final -175.44 input  -57.11 | X-H torsion

> <Gold.Protein.ActiveResidues>
 VAL166  LYS551  ARG553  GLY616  TRP617  ASP618  TYR619  PRO620  LYS621  CYS622 
 ASP623  PHE694  ASN695  SER759  ASP760  ASP761  ALA762  ILE779  LEU786  VAL792 
 PHE793  MET794  SER795  GLU796  ALA797  LYS798  CYS799  TRP800  GLU811  SER814 

> <Gold.Protein.RotatedAtoms>
  150.6870  134.2681  159.4576 H   0  0  0  0  0  0  0  0  0  0  0  0  # atno 6907 bound_to 6896
  152.0605  134.9594  160.0584 H   0  0  0  0  0  0  0  0  0  0  0  0  # atno 6908 bound_to 6896
  152.1023  133.4222  159.4630 H   0  0  0  0  0  0  0  0  0  0  0  0  # atno 6909 bound_to 6896
  145.5429  139.2290  143.2555 H   0  0  0  0  0  0  0  0  0  0  0  0  # atno 7974 bound_to 7965
  155.4835  140.0562  157.2964 H   0  0  0  0  0  0  0  0  0  0  0  0  # atno 8008 bound_to 7997
  154.4651  140.2014  156.0093 H   0  0  0  0  0  0  0  0  0  0  0  0  # atno 8009 bound_to 7997
  156.0959  140.3226  155.7882 H   0  0  0  0  0  0  0  0  0  0  0  0  # atno 8010 bound_to 7997
  140.3319  144.2578  150.6167 H   0  0  0  0  0  0  0  0  0  0  0  0  # atno 10167 bound_to 10162
  157.2692  131.0813  151.1611 H   0  0  0  0  0  0  0  0  0  0  0  0  # atno 10718 bound_to 10713
  154.3541  135.6130  153.5658 H   0  0  0  0  0  0  0  0  0  0  0  0  # atno 10763 bound_to 10752
  152.9796  135.5799  154.4709 H   0  0  0  0  0  0  0  0  0  0  0  0  # atno 10764 bound_to 10752
  154.4435  135.2851  155.1808 H   0  0  0  0  0  0  0  0  0  0  0  0  # atno 10765 bound_to 10752
  140.4633  134.6234  157.4852 H   0  0  0  0  0  0  0  0  0  0  0  0  # atno 11005 bound_to 11000
  146.1969  140.6250  142.9120 LP  0  0  0  0  0  0  0  0  0  0  0  0  # atno 17320 bound_to 7965
  144.7568  140.5326  143.6763 LP  0  0  0  0  0  0  0  0  0  0  0  0  # atno 17321 bound_to 7965
  140.5389  143.2227  151.8117 LP  0  0  0  0  0  0  0  0  0  0  0  0  # atno 17342 bound_to 10162
  139.4855  144.4625  151.9523 LP  0  0  0  0  0  0  0  0  0  0  0  0  # atno 17343 bound_to 10162
  157.3090  130.6880  149.6205 LP  0  0  0  0  0  0  0  0  0  0  0  0  # atno 17370 bound_to 10713
  155.9663  130.4369  150.5154 LP  0  0  0  0  0  0  0  0  0  0  0  0  # atno 17371 bound_to 10713
  139.9931  134.6953  155.9655 LP  0  0  0  0  0  0  0  0  0  0  0  0  # atno 17394 bound_to 11000
  141.1611  133.6539  156.4322 LP  0  0  0  0  0  0  0  0  0  0  0  0  # atno 17395 bound_to 11000

$$$$
