AV-unprocessed.smi:1812|AV-procd|sdf|7338|dock10
  -GOLD-   22720 9 03D 1   1.00000     0.00000
 Structure written by MMmdl.
 33 35  0  0  0  0  0  0  0  0  2 V2000
  151.6115  139.6028  159.3734 O   0  0  0  0  0  0  0  0  0  0  0  0
  152.4305  140.1190  158.6096 C   0  0  0  0  0  0  0  0  0  0  0  0
  153.1256  141.1933  159.0043 N   0  0  0  0  0  0  0  0  0  0  0  0
  153.0063  141.8414  160.3041 C   0  0  0  0  0  0  0  0  0  0  0  0
  152.7532  143.3474  160.1447 C   0  0  2  0  0  0  0  0  0  0  0  0
  151.2808  143.7565  160.1988 C   0  0  0  0  0  0  0  0  0  0  0  0
  151.3040  145.0648  159.4428 C   0  0  0  0  0  0  0  0  0  0  0  0
  152.3163  144.7700  158.3394 C   0  0  0  0  0  0  0  0  0  0  0  0
  153.2136  143.7993  158.8737 O   0  0  0  0  0  0  0  0  0  0  0  0
  152.7258  139.7115  157.3541 N   0  5  0  0  0  0  0  0  0  0  0  0
  151.7858  139.7517  156.3955 C   0  0  0  0  0  0  0  0  0  0  0  0
  152.0215  139.3479  155.1390 N   0  0  0  0  0  0  0  0  0  0  0  0
  150.9193  139.4844  154.3076 N   0  0  0  0  0  0  0  0  0  0  0  0
  149.8661  139.9986  154.9473 C   0  0  0  0  0  0  0  0  0  0  0  0
  148.5617  140.2484  154.2667 C   0  0  0  0  0  0  0  0  0  0  0  0
  147.9819  141.6426  154.1986 C   0  0  0  0  0  0  0  0  0  0  0  0
  147.3113  140.5919  155.0467 C   0  0  0  0  0  0  0  0  0  0  0  0
  150.1487  140.3578  156.6434 S   0  0  0  0  0  0  0  0  0  0  0  0
  153.7867  141.5881  158.3516 H   0  0  0  0  0  0  0  0  0  0  0  0
  152.1852  141.3869  160.8603 H   0  0  0  0  0  0  0  0  0  0  0  0
  153.9173  141.6716  160.8799 H   0  0  0  0  0  0  0  0  0  0  0  0
  153.3059  143.8997  160.9067 H   0  0  0  0  0  0  0  0  0  0  0  0
  150.6591  143.0312  159.6717 H   0  0  0  0  0  0  0  0  0  0  0  0
  150.9026  143.8570  161.2166 H   0  0  0  0  0  0  0  0  0  0  0  0
  150.3266  145.3580  159.0588 H   0  0  0  0  0  0  0  0  0  0  0  0
  151.6727  145.8629  160.0888 H   0  0  0  0  0  0  0  0  0  0  0  0
  151.8181  144.3369  157.4712 H   0  0  0  0  0  0  0  0  0  0  0  0
  152.8462  145.6654  158.0137 H   0  0  0  0  0  0  0  0  0  0  0  0
  148.4556  139.6083  153.3931 H   0  0  0  0  0  0  0  0  0  0  0  0
  148.5161  142.4376  154.7154 H   0  0  0  0  0  0  0  0  0  0  0  0
  147.4875  141.9358  153.2749 H   0  0  0  0  0  0  0  0  0  0  0  0
  146.3696  140.1818  154.6881 H   0  0  0  0  0  0  0  0  0  0  0  0
  147.3904  140.6999  156.1266 H   0  0  0  0  0  0  0  0  0  0  0  0
  1  2  2  0  0  0  0
  2  3  1  0  0  0  0
  2 10  1  0  0  0  0
  3  4  1  0  0  0  0
  3 19  1  0  0  0  0
  4  5  1  0  0  0  0
  4 20  1  0  0  0  0
  4 21  1  0  0  0  0
  5  9  1  0  0  0  0
  5  6  1  0  0  0  0
  5 22  1  0  0  0  0
  6  7  1  0  0  0  0
  6 23  1  0  0  0  0
  6 24  1  0  0  0  0
  7  8  1  0  0  0  0
  7 25  1  0  0  0  0
  7 26  1  0  0  0  0
  8  9  1  0  0  0  0
  8 27  1  0  0  0  0
  8 28  1  0  0  0  0
 10 11  1  0  0  0  0
 11 18  1  0  0  0  0
 11 12  2  0  0  0  0
 12 13  1  0  0  0  0
 13 14  2  0  0  0  0
 14 15  1  0  0  0  0
 14 18  1  0  0  0  0
 15 17  1  0  0  0  0
 15 16  1  0  0  0  0
 15 29  1  0  0  0  0
 16 17  1  0  0  0  0
 16 30  1  0  0  0  0
 16 31  1  0  0  0  0
 17 32  1  0  0  0  0
 17 33  1  0  0  0  0
M  CHG  1  10  -1
M  END
> <s_m_source_file>
AV-unprocessed.smi

> <i_m_source_file_index>
1812

> <i_lp_mmshare_version>
43012

> <i_f3d_flags>
0

> <s_epik_input>
TzFbQ0gyXVtDSDJdW0NIMl1bQ0BIXTFbQ0gyXVtOSF1DKD1PKVtOSF1jMm5uYyhzMilbQ0hdM1tDSDJdW0NIMl0z

> <s_epik_cmdline>
J2VwaWtfcHl0aG9uJywgJy1waCcsICc3LjAnLCAnLXRuJywgJzgnLCAnLW1hJywgJzIwMCcsICctbWV0YWxfYmluZGluZycsICctaW1hZScsICc8aW5maWxlLm1hZT4nLCAnLW9tYWUnLCAnPG91dGZpbGUubWFlPic=

> <r_lp_tautomer_probability>
1

> <r_epik_Ionization_Penalty>
4.72991

> <r_epik_Ionization_Penalty_Charging>
4.58249

> <r_epik_Ionization_Penalty_Neutral>
0.147417

> <r_epik_State_Penalty>
4.58223

> <r_epik_Charging_Adjusted_Penalty>
9.16473

> <i_epik_Tot_Q>
-1

> <i_epik_Tot_abs_Q>
1

> <r_epik_Metal_State_Penalty>
0.861876

> <b_epik_Metal_Only>
1

> <s_lp_Force_Field>
OPLS_2005

> <r_lp_Energy>
13.803

> <b_lp_Chiralities_Consistent>
1

> <s_lp_Variant>
AV-unprocessed.smi:1812-3

> <Gold.Version>
5.8.1

> <Gold.Id.Protein>
6NUR|6NUR_protein|mol2

> <Gold.PLP.Fitness>
42.9266

> <Gold.PLP.PLP>
-37.0291

> <Gold.PLP.part.hbond>
-2.8271

> <Gold.PLP.part.metal>
0.0000

> <Gold.PLP.part.buried>
-1.2425

> <Gold.PLP.part.nonpolar>
-32.1516

> <Gold.PLP.part.repulsive>
0.2533

> <Gold.PLP.ligand.clash>
0.0000

> <Gold.PLP.ligand.torsion>
1.2467

> <Gold.PLP.Chemscore.Hbond>
2.7500

> <Gold.PLP.Chemscore.CHOScore>
0.0000

> <Gold.PLP.Chemscore.Metal>
0.0000

> <Gold.Chemscore.Hbonds>
donor molecule, donor type, donor heavy atom, donor atom, acceptor molecule, acceptor atom, score
      P1  H  7989  7998       L1    13  0.60
      P1  H  7997  8009       L1    10  2.00

> <Gold.PLP.Chemscore.Internal.Correction>
0.1409

> <Gold.Rescore>
     Score         DG    S(hbond)    S(metal)    S(lipo)     H(rot)  DE(clash)    DE(int)     intcor
     14.07     -15.33       0.89        0.00      90.51       1.45       0.05       1.20       ----

> <Gold.Chemscore.Fitness>
14.0737

> <Gold.Chemscore.DG>
-15.3305

> <Gold.Chemscore.ZeroCoef>
-5.4800

> <Gold.Chemscore.Hbond>
0.8863

> <Gold.Chemscore.Metal>
0.0000

> <Gold.Chemscore.Lipo>
90.5123

> <Gold.Chemscore.Internal_Hbond>
0.0000

> <Gold.Chemscore.DEClash>
0.0539

> <Gold.Chemscore.DEInternal>
1.2029

> <Gold.Chemscore.Rot>
1.4451

> <Gold.Chemscore.Internal.Correction>
   9.000000E+99

> <Gold.Chemscore.Hbonds>
donor molecule, donor type, donor heavy atom, donor atom, acceptor molecule, acceptor atom, score
      P1  H  7989  7998       L1    13  0.02
      P1  H  7997  8009       L1    10  0.83

> <Gold.Chemscore.Hbond.Weighted>
-2.9601

> <Gold.Chemscore.Metal.Weighted>
-0.0000

> <Gold.Chemscore.Lipo.Weighted>
-10.5899

> <Gold.Chemscore.Internal_Hbond.Weighted>
0.0000

> <Gold.Chemscore.DEClash.Weighted>
0.0539

> <Gold.Chemscore.DEInternal.Weighted>
1.2029

> <Gold.Chemscore.Rot.Weighted>
3.6995

> <Gold.Chemscore.Internal.Correction.Weighted>
   9.000000E+99

> <Gold.Protein.RotatedTorsions>
[ 6907 6896 6895 6894 ] final  -58.53 input  -60.11 | X-H torsion
[ 7974 7965 7964 7962 ] final  -69.45 input  175.53 | X-H torsion
[ 8008 7997 7996 7995 ] final  166.68 input   59.86 | X-H torsion
[ 10167 10162 10161 10158 ] final -116.67 input  -65.29 | X-H torsion
[ 10718 10713 10712 10709 ] final  -35.75 input   66.30 | X-H torsion
[ 10763 10752 10751 10750 ] final  -45.95 input  -60.55 | X-H torsion
[ 11005 11000 10999 10996 ] final   72.76 input  -57.11 | X-H torsion

> <Gold.Protein.ActiveResidues>
 VAL166  LYS551  ARG553  GLY616  TRP617  ASP618  TYR619  PRO620  LYS621  CYS622 
 ASP623  PHE694  ASN695  SER759  ASP760  ASP761  ALA762  ILE779  LEU786  VAL792 
 PHE793  MET794  SER795  GLU796  ALA797  LYS798  CYS799  TRP800  GLU811  SER814 

> <Gold.Protein.RotatedAtoms>
  150.7999  134.7086  159.6590 H   0  0  0  0  0  0  0  0  0  0  0  0  # atno 6907 bound_to 6896
  152.4115  134.6112  160.0036 H   0  0  0  0  0  0  0  0  0  0  0  0  # atno 6908 bound_to 6896
  151.6354  133.3292  159.3154 H   0  0  0  0  0  0  0  0  0  0  0  0  # atno 6909 bound_to 6896
  145.7037  140.9106  143.0717 H   0  0  0  0  0  0  0  0  0  0  0  0  # atno 7974 bound_to 7965
  156.1698  140.1637  156.8467 H   0  0  0  0  0  0  0  0  0  0  0  0  # atno 8008 bound_to 7997
  154.5245  140.0770  156.8268 H   0  0  0  0  0  0  0  0  0  0  0  0  # atno 8009 bound_to 7997
  155.3535  140.3391  155.4242 H   0  0  0  0  0  0  0  0  0  0  0  0  # atno 8010 bound_to 7997
  140.0767  143.4826  152.1949 H   0  0  0  0  0  0  0  0  0  0  0  0  # atno 10167 bound_to 10162
  156.3349  130.4285  149.7839 H   0  0  0  0  0  0  0  0  0  0  0  0  # atno 10718 bound_to 10713
  154.0370  135.6649  153.4786 H   0  0  0  0  0  0  0  0  0  0  0  0  # atno 10763 bound_to 10752
  153.0517  135.5080  154.7879 H   0  0  0  0  0  0  0  0  0  0  0  0  # atno 10764 bound_to 10752
  154.6842  135.3050  154.9536 H   0  0  0  0  0  0  0  0  0  0  0  0  # atno 10765 bound_to 10752
  139.9474  134.7288  156.0945 H   0  0  0  0  0  0  0  0  0  0  0  0  # atno 11005 bound_to 11000
  144.6961  139.8981  143.7457 LP  0  0  0  0  0  0  0  0  0  0  0  0  # atno 17320 bound_to 7965
  146.0775  139.3763  143.0485 LP  0  0  0  0  0  0  0  0  0  0  0  0  # atno 17321 bound_to 7965
  139.5803  144.7507  151.3656 LP  0  0  0  0  0  0  0  0  0  0  0  0  # atno 17342 bound_to 10162
  140.7098  143.7419  150.7547 LP  0  0  0  0  0  0  0  0  0  0  0  0  # atno 17343 bound_to 10162
  156.5097  130.8166  151.3164 LP  0  0  0  0  0  0  0  0  0  0  0  0  # atno 17370 bound_to 10713
  157.7437  130.9918  150.2613 LP  0  0  0  0  0  0  0  0  0  0  0  0  # atno 17371 bound_to 10713
  141.1128  133.6637  156.3021 LP  0  0  0  0  0  0  0  0  0  0  0  0  # atno 17394 bound_to 11000
  140.5801  134.5754  157.5477 LP  0  0  0  0  0  0  0  0  0  0  0  0  # atno 17395 bound_to 11000

$$$$
