AV-unprocessed.smi:3058|AV-procd|sdf|11671|dock6
  -GOLD-   2272017 73D 1   1.00000     0.00000
 Structure written by MMmdl.
 38 40  0  0  0  0  0  0  0  0  1 V2000
  153.4016  140.2040  158.5845 O   0  0  0  0  0  0  0  0  0  0  0  0
  153.1449  140.7699  159.6481 C   0  0  0  0  0  0  0  0  0  0  0  0
  153.8928  140.6223  160.7523 N   0  0  0  0  0  0  0  0  0  0  0  0
  155.0911  139.7979  160.8508 C   0  0  0  0  0  0  0  0  0  0  0  0
  154.7706  138.3088  160.6440 C   0  0  0  0  0  0  0  0  0  0  0  0
  154.6820  137.5562  161.9570 C   0  0  0  0  0  0  0  0  0  0  0  0
  154.8899  138.2166  163.1856 C   0  0  0  0  0  0  0  0  0  0  0  0
  154.7936  137.4745  164.3786 C   0  0  0  0  0  0  0  0  0  0  0  0
  154.4919  136.1006  164.2915 C   0  0  0  0  0  0  0  0  0  0  0  0
  154.2898  135.4584  163.1208 N   0  0  0  0  0  0  0  0  0  0  0  0
  154.3843  136.1770  161.9814 C   0  0  0  0  0  0  0  0  0  0  0  0
  151.9072  141.6741  159.7874 C   0  0  2  0  0  0  0  0  0  0  0  0
  151.0586  141.8134  158.4991 C   0  0  0  0  0  0  0  0  0  0  0  0
  150.9419  143.3397  158.3249 C   0  0  2  0  0  0  0  0  0  0  0  0
  152.2930  143.9085  157.8529 C   0  0  0  0  0  0  0  0  0  0  0  0
  153.1555  143.8338  159.1261 C   0  0  0  0  0  0  0  0  0  0  0  0
  152.2079  143.1553  160.1401 C   0  0  1  0  0  0  0  0  0  0  0  0
  150.8832  143.8174  159.7716 C   0  0  0  0  0  0  0  0  0  0  0  0
  153.6085  141.1155  161.5864 H   0  0  0  0  0  0  0  0  0  0  0  0
  155.8383  140.1340  160.1295 H   0  0  0  0  0  0  0  0  0  0  0  0
  155.5231  139.9508  161.8402 H   0  0  0  0  0  0  0  0  0  0  0  0
  153.8254  138.2000  160.1108 H   0  0  0  0  0  0  0  0  0  0  0  0
  155.5316  137.8400  160.0187 H   0  0  0  0  0  0  0  0  0  0  0  0
  155.1175  139.2723  163.2148 H   0  0  0  0  0  0  0  0  0  0  0  0
  154.9465  137.9467  165.3378 H   0  0  0  0  0  0  0  0  0  0  0  0
  154.4101  135.5018  165.1866 H   0  0  0  0  0  0  0  0  0  0  0  0
  154.2155  135.6352  161.0622 H   0  0  0  0  0  0  0  0  0  0  0  0
  151.2697  141.2568  160.5696 H   0  0  0  0  0  0  0  0  0  0  0  0
  151.4931  141.3375  157.6190 H   0  0  0  0  0  0  0  0  0  0  0  0
  150.0731  141.3707  158.6494 H   0  0  0  0  0  0  0  0  0  0  0  0
  150.0992  143.6442  157.7037 H   0  0  0  0  0  0  0  0  0  0  0  0
  152.7170  143.3324  157.0298 H   0  0  0  0  0  0  0  0  0  0  0  0
  152.1885  144.9419  157.5204 H   0  0  0  0  0  0  0  0  0  0  0  0
  154.0957  143.3055  158.9744 H   0  0  0  0  0  0  0  0  0  0  0  0
  153.4091  144.8393  159.4646 H   0  0  0  0  0  0  0  0  0  0  0  0
  152.5051  143.3015  161.1790 H   0  0  0  0  0  0  0  0  0  0  0  0
  150.8975  144.9045  159.8696 H   0  0  0  0  0  0  0  0  0  0  0  0
  150.0294  143.4214  160.3244 H   0  0  0  0  0  0  0  0  0  0  0  0
  1  2  2  0  0  0  0
  2  3  1  0  0  0  0
  2 12  1  0  0  0  0
  3  4  1  0  0  0  0
  3 19  1  0  0  0  0
  4  5  1  0  0  0  0
  4 20  1  0  0  0  0
  4 21  1  0  0  0  0
  5  6  1  0  0  0  0
  5 22  1  0  0  0  0
  5 23  1  0  0  0  0
  6 11  1  0  0  0  0
  6  7  2  0  0  0  0
  7  8  1  0  0  0  0
  7 24  1  0  0  0  0
  8  9  2  0  0  0  0
  8 25  1  0  0  0  0
  9 10  1  0  0  0  0
  9 26  1  0  0  0  0
 10 11  2  0  0  0  0
 11 27  1  0  0  0  0
 12 17  1  0  0  0  0
 12 13  1  0  0  0  0
 12 28  1  0  0  0  0
 13 14  1  0  0  0  0
 13 29  1  0  0  0  0
 13 30  1  0  0  0  0
 14 18  1  0  0  0  0
 14 15  1  0  0  0  0
 14 31  1  0  0  0  0
 15 16  1  0  0  0  0
 15 32  1  0  0  0  0
 15 33  1  0  0  0  0
 16 17  1  0  0  0  0
 16 34  1  0  0  0  0
 16 35  1  0  0  0  0
 17 18  1  0  0  0  0
 17 36  1  0  0  0  0
 18 37  1  0  0  0  0
 18 38  1  0  0  0  0
M  END
> <s_m_source_file>
AV-unprocessed.smi

> <i_m_source_file_index>
3058

> <i_lp_mmshare_version>
43012

> <i_f3d_flags>
0

> <s_epik_input>
W0NIMl0xW0NIMl1bQ0BIXShbQ0gyXTIpW0NAQEhdKFtDSDJdW0NAQEhdMTIpQyg9TylbTkhdW0NIMl1bQ0gyXWMzW2NIXVtjSF1bY0hdbltjSF0z

> <s_epik_cmdline>
J2VwaWtfcHl0aG9uJywgJy1waCcsICc3LjAnLCAnLXRuJywgJzgnLCAnLW1hJywgJzIwMCcsICctbWV0YWxfYmluZGluZycsICctaW1hZScsICc8aW5maWxlLm1hZT4nLCAnLW9tYWUnLCAnPG91dGZpbGUubWFlPic=

> <r_epik_Ionization_Penalty>
0.0135821

> <r_epik_Ionization_Penalty_Charging>
0

> <r_epik_Ionization_Penalty_Neutral>
0.0135821

> <r_epik_State_Penalty>
0.0105782

> <r_epik_Charging_Adjusted_Penalty>
0.0105782

> <i_epik_Tot_Q>
0

> <i_epik_Tot_abs_Q>
0

> <r_epik_Metal_State_Penalty>
0.0103407

> <b_epik_Metal_Only>
0

> <s_lp_Force_Field>
OPLS_2005

> <r_lp_Energy>
46.6846

> <b_lp_Chiralities_Consistent>
1

> <s_lp_Variant>
AV-unprocessed.smi:3058-3

> <Gold.Version>
5.8.1

> <Gold.Id.Protein>
6NUR|6NUR_protein|mol2

> <Gold.PLP.Fitness>
38.5292

> <Gold.PLP.PLP>
-36.2182

> <Gold.PLP.part.hbond>
-1.0000

> <Gold.PLP.part.metal>
0.0000

> <Gold.PLP.part.buried>
-4.1165

> <Gold.PLP.part.nonpolar>
-30.8038

> <Gold.PLP.part.repulsive>
0.0545

> <Gold.PLP.ligand.clash>
0.0000

> <Gold.PLP.ligand.torsion>
0.2965

> <Gold.PLP.Chemscore.Hbond>
0.9600

> <Gold.PLP.Chemscore.CHOScore>
0.0000

> <Gold.PLP.Chemscore.Metal>
0.0000

> <Gold.Chemscore.Hbonds>
donor molecule, donor type, donor heavy atom, donor atom, acceptor molecule, acceptor atom, score
      P1  H  7997  8008       L1     1  0.94

> <Gold.PLP.Chemscore.Internal.Correction>
0.0241

> <Gold.Rescore>
     Score         DG    S(hbond)    S(metal)    S(lipo)     H(rot)  DE(clash)    DE(int)     intcor
     18.81     -19.21       0.89        0.00     121.69       1.37       0.15       0.25       ----

> <Gold.Chemscore.Fitness>
18.8150

> <Gold.Chemscore.DG>
-19.2068

> <Gold.Chemscore.ZeroCoef>
-5.4800

> <Gold.Chemscore.Hbond>
0.8936

> <Gold.Chemscore.Metal>
0.0000

> <Gold.Chemscore.Lipo>
121.6876

> <Gold.Chemscore.Internal_Hbond>
0.0000

> <Gold.Chemscore.DEClash>
0.1455

> <Gold.Chemscore.DEInternal>
0.2463

> <Gold.Chemscore.Rot>
1.3653

> <Gold.Chemscore.Internal.Correction>
   9.000000E+99

> <Gold.Chemscore.Hbonds>
donor molecule, donor type, donor heavy atom, donor atom, acceptor molecule, acceptor atom, score
      P1  H  7997  8008       L1     1  0.91

> <Gold.Chemscore.Hbond.Weighted>
-2.9845

> <Gold.Chemscore.Metal.Weighted>
-0.0000

> <Gold.Chemscore.Lipo.Weighted>
-14.2375

> <Gold.Chemscore.Internal_Hbond.Weighted>
0.0000

> <Gold.Chemscore.DEClash.Weighted>
0.1455

> <Gold.Chemscore.DEInternal.Weighted>
0.2463

> <Gold.Chemscore.Rot.Weighted>
3.4951

> <Gold.Chemscore.Internal.Correction.Weighted>
   9.000000E+99

> <Gold.Protein.RotatedTorsions>
[ 6907 6896 6895 6894 ] final    3.71 input  -60.11 | X-H torsion
[ 7974 7965 7964 7962 ] final  157.23 input  175.53 | X-H torsion
[ 8008 7997 7996 7995 ] final  -92.57 input   59.86 | X-H torsion
[ 10167 10162 10161 10158 ] final  -34.02 input  -65.29 | X-H torsion
[ 10718 10713 10712 10709 ] final   27.18 input   66.30 | X-H torsion
[ 10763 10752 10751 10750 ] final  -38.35 input  -60.55 | X-H torsion
[ 11005 11000 10999 10996 ] final -151.16 input  -57.11 | X-H torsion

> <Gold.Protein.ActiveResidues>
 VAL166  LYS551  ARG553  GLY616  TRP617  ASP618  TYR619  PRO620  LYS621  CYS622 
 ASP623  PHE694  ASN695  SER759  ASP760  ASP761  ALA762  ILE779  LEU786  VAL792 
 PHE793  MET794  SER795  GLU796  ALA797  LYS798  CYS799  TRP800  GLU811  SER814 

> <Gold.Protein.RotatedAtoms>
  151.6296  135.1024  160.0118 H   0  0  0  0  0  0  0  0  0  0  0  0  # atno 6907 bound_to 6896
  152.4114  133.6965  159.6409 H   0  0  0  0  0  0  0  0  0  0  0  0  # atno 6908 bound_to 6896
  150.8004  133.8535  159.3253 H   0  0  0  0  0  0  0  0  0  0  0  0  # atno 6909 bound_to 6896
  144.7916  139.7311  143.6219 H   0  0  0  0  0  0  0  0  0  0  0  0  # atno 7974 bound_to 7965
  154.7248  140.0507  157.0672 H   0  0  0  0  0  0  0  0  0  0  0  0  # atno 8008 bound_to 7997
  155.0380  140.3165  155.4715 H   0  0  0  0  0  0  0  0  0  0  0  0  # atno 8009 bound_to 7997
  156.2826  140.2138  156.5503 H   0  0  0  0  0  0  0  0  0  0  0  0  # atno 8010 bound_to 7997
  140.7193  143.3578  151.2024 H   0  0  0  0  0  0  0  0  0  0  0  0  # atno 10167 bound_to 10162
  157.2167  130.6959  149.6252 H   0  0  0  0  0  0  0  0  0  0  0  0  # atno 10718 bound_to 10713
  153.9114  135.6792  153.4751 H   0  0  0  0  0  0  0  0  0  0  0  0  # atno 10763 bound_to 10752
  153.1076  135.4798  154.8976 H   0  0  0  0  0  0  0  0  0  0  0  0  # atno 10764 bound_to 10752
  154.7525  135.3188  154.8487 H   0  0  0  0  0  0  0  0  0  0  0  0  # atno 10765 bound_to 10752
  140.7325  134.3605  157.5164 H   0  0  0  0  0  0  0  0  0  0  0  0  # atno 11005 bound_to 11000
  146.2170  139.5566  142.9644 LP  0  0  0  0  0  0  0  0  0  0  0  0  # atno 17320 bound_to 7965
  145.5780  141.0386  143.2137 LP  0  0  0  0  0  0  0  0  0  0  0  0  # atno 17321 bound_to 7965
  139.7123  143.9356  152.2952 LP  0  0  0  0  0  0  0  0  0  0  0  0  # atno 17342 bound_to 10162
  139.9086  144.6870  150.8587 LP  0  0  0  0  0  0  0  0  0  0  0  0  # atno 17343 bound_to 10162
  155.9686  130.4533  150.5807 LP  0  0  0  0  0  0  0  0  0  0  0  0  # atno 17370 bound_to 10713
  157.3617  131.0751  151.1631 LP  0  0  0  0  0  0  0  0  0  0  0  0  # atno 17371 bound_to 10713
  139.8823  134.9028  156.2840 LP  0  0  0  0  0  0  0  0  0  0  0  0  # atno 17394 bound_to 11000
  140.9908  133.7210  156.0811 LP  0  0  0  0  0  0  0  0  0  0  0  0  # atno 17395 bound_to 11000

$$$$
