AV-unprocessed.smi:3141|AV-procd|sdf|11967|dock7
  -GOLD-   2272017363D 1   1.00000     0.00000
 Structure written by MMmdl.
 35 37  0  0  0  0  0  0  0  0  1 V2000
  147.1123  142.5055  160.0108 O   0  0  0  0  0  0  0  0  0  0  0  0
  147.4999  143.3185  159.1712 C   0  0  0  0  0  0  0  0  0  0  0  0
  147.2379  144.6310  159.2157 N   0  0  0  0  0  0  0  0  0  0  0  0
  146.4984  145.2914  160.2417 C   0  0  0  0  0  0  0  0  0  0  0  0
  145.1427  145.8580  159.8797 C   0  0  0  0  0  0  0  0  0  0  0  0
  146.3028  146.7863  160.1110 C   0  0  0  0  0  0  0  0  0  0  0  0
  148.2573  143.0013  158.1111 N   0  0  0  0  0  0  0  0  0  0  0  0
  148.7661  141.6633  157.8007 C   0  0  1  0  0  0  0  0  0  0  0  0
  147.9508  141.0449  156.6444 C   0  0  0  0  0  0  0  0  0  0  0  0
  148.9338  140.7822  155.4951 C   0  0  0  0  0  0  0  0  0  0  0  0
  150.1273  141.6926  155.7727 C   0  0  0  0  0  0  0  0  0  0  0  0
  150.2309  141.6705  157.3005 C   0  0  1  0  0  0  0  0  0  0  0  0
  151.0926  142.6972  157.8784 N   0  0  0  0  0  0  0  0  0  0  0  0
  151.4793  143.9172  157.3299 C   0  0  0  0  0  0  0  0  0  0  0  0
  152.2561  144.5478  158.2748 C   0  0  0  0  0  0  0  0  0  0  0  0
  152.3506  143.7507  159.4118 N   0  0  0  0  0  0  0  0  0  0  0  0
  151.6323  142.6783  159.1056 C   0  0  0  0  0  0  0  0  0  0  0  0
  147.6060  145.2130  158.4776 H   0  0  0  0  0  0  0  0  0  0  0  0
  146.6031  144.9117  161.2571 H   0  0  0  0  0  0  0  0  0  0  0  0
  144.7952  145.7339  158.8558 H   0  0  0  0  0  0  0  0  0  0  0  0
  144.3664  145.8253  160.6416 H   0  0  0  0  0  0  0  0  0  0  0  0
  146.3010  147.3735  161.0270 H   0  0  0  0  0  0  0  0  0  0  0  0
  146.7307  147.2822  159.2417 H   0  0  0  0  0  0  0  0  0  0  0  0
  148.5253  143.7437  157.4818 H   0  0  0  0  0  0  0  0  0  0  0  0
  148.6858  141.0255  158.6830 H   0  0  0  0  0  0  0  0  0  0  0  0
  147.4592  140.1214  156.9521 H   0  0  0  0  0  0  0  0  0  0  0  0
  147.1644  141.7231  156.3088 H   0  0  0  0  0  0  0  0  0  0  0  0
  149.2580  139.7408  155.5236 H   0  0  0  0  0  0  0  0  0  0  0  0
  148.4907  140.9620  154.5153 H   0  0  0  0  0  0  0  0  0  0  0  0
  151.0397  141.3501  155.2836 H   0  0  0  0  0  0  0  0  0  0  0  0
  149.9018  142.6938  155.4057 H   0  0  0  0  0  0  0  0  0  0  0  0
  150.6689  140.7073  157.5696 H   0  0  0  0  0  0  0  0  0  0  0  0
  151.1784  144.2379  156.3442 H   0  0  0  0  0  0  0  0  0  0  0  0
  152.7423  145.5110  158.2274 H   0  0  0  0  0  0  0  0  0  0  0  0
  151.4891  141.8593  159.7952 H   0  0  0  0  0  0  0  0  0  0  0  0
  1  2  2  0  0  0  0
  2  3  1  0  0  0  0
  2  7  1  0  0  0  0
  3  4  1  0  0  0  0
  3 18  1  0  0  0  0
  4  6  1  0  0  0  0
  4  5  1  0  0  0  0
  4 19  1  0  0  0  0
  5  6  1  0  0  0  0
  5 20  1  0  0  0  0
  5 21  1  0  0  0  0
  6 22  1  0  0  0  0
  6 23  1  0  0  0  0
  7  8  1  0  0  0  0
  7 24  1  0  0  0  0
  8 12  1  0  0  0  0
  8  9  1  0  0  0  0
  8 25  1  0  0  0  0
  9 10  1  0  0  0  0
  9 26  1  0  0  0  0
  9 27  1  0  0  0  0
 10 11  1  0  0  0  0
 10 28  1  0  0  0  0
 10 29  1  0  0  0  0
 11 12  1  0  0  0  0
 11 30  1  0  0  0  0
 11 31  1  0  0  0  0
 12 13  1  0  0  0  0
 12 32  1  0  0  0  0
 13 17  1  0  0  0  0
 13 14  1  0  0  0  0
 14 15  2  0  0  0  0
 14 33  1  0  0  0  0
 15 16  1  0  0  0  0
 15 34  1  0  0  0  0
 16 17  2  0  0  0  0
 17 35  1  0  0  0  0
M  END
> <s_m_source_file>
AV-unprocessed.smi

> <i_m_source_file_index>
3141

> <i_lp_mmshare_version>
43012

> <i_f3d_flags>
0

> <s_epik_input>
W0NIMl0xW0NIMl1bQ0hdMVtOSF1DKD1PKVtOSF1bQ0BASF0yW0NIMl1bQ0gyXVtDSDJdW0NASF0ybjNbY0hdW2NIXW5bY0hdMw==

> <s_epik_cmdline>
J2VwaWtfcHl0aG9uJywgJy1waCcsICc3LjAnLCAnLXRuJywgJzgnLCAnLW1hJywgJzIwMCcsICctbWV0YWxfYmluZGluZycsICctaW1hZScsICc8aW5maWxlLm1hZT4nLCAnLW9tYWUnLCAnPG91dGZpbGUubWFlPic=

> <r_lp_tautomer_probability>
1

> <r_epik_Ionization_Penalty>
0.728419

> <r_epik_Ionization_Penalty_Charging>
0.728357

> <r_epik_Ionization_Penalty_Neutral>
6.27871e-05

> <r_epik_State_Penalty>
0.753408

> <r_epik_Charging_Adjusted_Penalty>
1.48176

> <i_epik_Tot_Q>
0

> <i_epik_Tot_abs_Q>
0

> <r_epik_Metal_State_Penalty>
0.332413

> <b_epik_Metal_Only>
0

> <s_lp_Force_Field>
OPLS_2005

> <r_lp_Energy>
36.0261

> <b_lp_Chiralities_Consistent>
1

> <s_lp_Variant>
AV-unprocessed.smi:3141-6

> <Gold.Version>
5.8.1

> <Gold.Id.Protein>
6NUR|6NUR_protein|mol2

> <Gold.PLP.Fitness>
39.0309

> <Gold.PLP.PLP>
-30.1347

> <Gold.PLP.part.hbond>
-4.5086

> <Gold.PLP.part.metal>
0.0000

> <Gold.PLP.part.buried>
-3.3917

> <Gold.PLP.part.nonpolar>
-24.7894

> <Gold.PLP.part.repulsive>
0.1957

> <Gold.PLP.ligand.clash>
0.0000

> <Gold.PLP.ligand.torsion>
0.8018

> <Gold.PLP.Chemscore.Hbond>
2.5734

> <Gold.PLP.Chemscore.CHOScore>
0.9063

> <Gold.PLP.Chemscore.Metal>
0.0000

> <Gold.Chemscore.Hbonds>
donor molecule, donor type, donor heavy atom, donor atom, acceptor molecule, acceptor atom, score
      L1  H     3    18       P1  8029  0.75
      L1  H     7    24       P1  8028  0.36
      P1  H  6933  6944       L1     1  0.67
      P1  H  6934  6946       L1     1  0.80
      L1  C    14    33       P1  8028  0.91

> <Gold.PLP.Chemscore.Internal.Correction>
0.0604

> <Gold.Rescore>
     Score         DG    S(hbond)    S(metal)    S(lipo)     H(rot)  DE(clash)    DE(int)     intcor
     16.12     -16.60       2.21        0.00      66.22       1.57       0.06       0.43       ----

> <Gold.Chemscore.Fitness>
16.1210

> <Gold.Chemscore.DG>
-16.6040

> <Gold.Chemscore.ZeroCoef>
-5.4800

> <Gold.Chemscore.Hbond>
2.2147

> <Gold.Chemscore.Metal>
0.0000

> <Gold.Chemscore.Lipo>
66.2182

> <Gold.Chemscore.Internal_Hbond>
0.0000

> <Gold.Chemscore.DEClash>
0.0572

> <Gold.Chemscore.DEInternal>
0.4257

> <Gold.Chemscore.Rot>
1.5705

> <Gold.Chemscore.Internal.Correction>
   9.000000E+99

> <Gold.Chemscore.Hbonds>
donor molecule, donor type, donor heavy atom, donor atom, acceptor molecule, acceptor atom, score
      L1  H     3    18       P1  8029  0.75
      L1  H     7    24       P1  8028  0.01
      P1  H  6933  6944       L1     1  0.45
      P1  H  6934  6946       L1     1  0.80

> <Gold.Chemscore.Hbond.Weighted>
-7.3970

> <Gold.Chemscore.Metal.Weighted>
-0.0000

> <Gold.Chemscore.Lipo.Weighted>
-7.7475

> <Gold.Chemscore.Internal_Hbond.Weighted>
0.0000

> <Gold.Chemscore.DEClash.Weighted>
0.0572

> <Gold.Chemscore.DEInternal.Weighted>
0.4257

> <Gold.Chemscore.Rot.Weighted>
4.0206

> <Gold.Chemscore.Internal.Correction.Weighted>
   9.000000E+99

> <Gold.Protein.RotatedTorsions>
[ 6907 6896 6895 6894 ] final  -23.72 input  -60.11 | X-H torsion
[ 7974 7965 7964 7962 ] final  120.93 input  175.53 | X-H torsion
[ 8008 7997 7996 7995 ] final   -5.52 input   59.86 | X-H torsion
[ 10167 10162 10161 10158 ] final -155.79 input  -65.29 | X-H torsion
[ 10718 10713 10712 10709 ] final  -55.99 input   66.30 | X-H torsion
[ 10763 10752 10751 10750 ] final   28.84 input  -60.55 | X-H torsion
[ 11005 11000 10999 10996 ] final -165.45 input  -57.11 | X-H torsion

> <Gold.Protein.ActiveResidues>
 VAL166  LYS551  ARG553  GLY616  TRP617  ASP618  TYR619  PRO620  LYS621  CYS622 
 ASP623  PHE694  ASN695  SER759  ASP760  ASP761  ALA762  ILE779  LEU786  VAL792 
 PHE793  MET794  SER795  GLU796  ALA797  LYS798  CYS799  TRP800  GLU811  SER814 

> <Gold.Protein.RotatedAtoms>
  151.1999  135.0438  159.8867 H   0  0  0  0  0  0  0  0  0  0  0  0  # atno 6907 bound_to 6896
  152.5433  134.0862  159.8267 H   0  0  0  0  0  0  0  0  0  0  0  0  # atno 6908 bound_to 6896
  151.1001  133.5202  159.2642 H   0  0  0  0  0  0  0  0  0  0  0  0  # atno 6909 bound_to 6896
  145.1253  139.3362  143.4693 H   0  0  0  0  0  0  0  0  0  0  0  0  # atno 7974 bound_to 7965
  154.6031  140.2456  155.7766 H   0  0  0  0  0  0  0  0  0  0  0  0  # atno 8008 bound_to 7997
  156.2323  140.2962  156.0174 H   0  0  0  0  0  0  0  0  0  0  0  0  # atno 8009 bound_to 7997
  155.2178  140.0399  157.2934 H   0  0  0  0  0  0  0  0  0  0  0  0  # atno 8010 bound_to 7997
  139.6903  143.9432  152.2381 H   0  0  0  0  0  0  0  0  0  0  0  0  # atno 10167 bound_to 10162
  156.1324  130.4158  150.0245 H   0  0  0  0  0  0  0  0  0  0  0  0  # atno 10718 bound_to 10713
  153.0467  135.6503  154.0799 H   0  0  0  0  0  0  0  0  0  0  0  0  # atno 10763 bound_to 10752
  154.0495  135.2897  155.3344 H   0  0  0  0  0  0  0  0  0  0  0  0  # atno 10764 bound_to 10752
  154.6729  135.5349  153.8227 H   0  0  0  0  0  0  0  0  0  0  0  0  # atno 10765 bound_to 10752
  140.5755  134.5194  157.5169 H   0  0  0  0  0  0  0  0  0  0  0  0  # atno 11005 bound_to 11000
  146.3518  140.1229  142.8599 LP  0  0  0  0  0  0  0  0  0  0  0  0  # atno 17320 bound_to 7965
  145.0695  140.9145  143.4890 LP  0  0  0  0  0  0  0  0  0  0  0  0  # atno 17321 bound_to 7965
  139.9247  144.6778  150.8425 LP  0  0  0  0  0  0  0  0  0  0  0  0  # atno 17342 bound_to 10162
  140.7680  143.3350  151.2327 LP  0  0  0  0  0  0  0  0  0  0  0  0  # atno 17343 bound_to 10162
  156.8154  130.9339  151.3643 LP  0  0  0  0  0  0  0  0  0  0  0  0  # atno 17370 bound_to 10713
  157.6500  130.8877  149.9615 LP  0  0  0  0  0  0  0  0  0  0  0  0  # atno 17371 bound_to 10713
  139.9341  134.7907  156.0849 LP  0  0  0  0  0  0  0  0  0  0  0  0  # atno 17394 bound_to 11000
  141.1029  133.6670  156.2796 LP  0  0  0  0  0  0  0  0  0  0  0  0  # atno 17395 bound_to 11000

$$$$
