AV-unprocessed.smi:1701|AV-procd|sdf|6823|dock7
  -GOLD-   22720 8 03D 1   1.00000     0.00000
 Structure written by MMmdl.
 55 57  0  0  0  0  0  0  0  0  3 V2000
  152.4895  142.6720  159.2429 C   0  0  0  0  0  0  0  0  0  0  0  0
  152.0587  141.6485  158.1806 C   0  0  0  0  0  0  0  0  0  0  0  0
  151.3882  142.2647  157.0359 N   0  0  0  0  0  0  0  0  0  0  0  0
  150.8472  143.6121  157.2289 C   0  0  0  0  0  0  0  0  0  0  0  0
  151.9132  144.7127  157.1050 C   0  0  0  0  0  0  0  0  0  0  0  0
  150.6873  141.3648  156.2013 C   0  0  0  0  0  0  0  0  0  0  0  0
  151.1120  140.0291  156.0098 C   0  0  0  0  0  0  0  0  0  0  0  0
  150.3645  139.1670  155.1822 C   0  0  0  0  0  0  0  0  0  0  0  0
  149.1927  139.6363  154.5523 C   0  0  0  0  0  0  0  0  0  0  0  0
  148.4820  138.7206  153.7279 N   0  0  0  0  0  0  0  0  0  0  0  0
  147.1643  138.6675  153.4468 C   0  0  0  0  0  0  0  0  0  0  0  0
  146.3211  139.4509  153.8752 O   0  0  0  0  0  0  0  0  0  0  0  0
  146.8157  137.6538  152.6343 N   0  0  0  0  0  0  0  0  0  0  0  0
  145.4826  137.3117  152.1371 C   0  0  2  0  0  0  0  0  0  0  0  0
  144.3358  137.6971  153.0931 C   0  0  0  0  0  0  0  0  0  0  0  0
  143.3244  136.5361  153.0099 C   0  0  0  0  0  0  0  0  0  0  0  0
  143.8508  135.6352  151.9671 N   0  3  2  0  0  0  0  0  0  0  0  0
  143.4303  134.2182  152.0229 C   0  0  0  0  0  0  0  0  0  0  0  0
  144.0206  133.4653  150.8133 C   0  0  0  0  0  0  0  0  0  0  0  0
  145.5487  133.6508  150.7130 C   0  0  0  0  0  0  0  0  0  0  0  0
  145.9321  135.1428  150.7531 C   0  0  0  0  0  0  0  0  0  0  0  0
  145.3121  135.7989  151.9976 C   0  0  1  0  0  0  0  0  0  0  0  0
  148.8132  140.9832  154.7693 C   0  0  0  0  0  0  0  0  0  0  0  0
  149.5601  141.7742  155.5693 N   0  3  0  0  0  0  0  0  0  0  0  0
  153.0036  142.1766  160.0667 H   0  0  0  0  0  0  0  0  0  0  0  0
  151.6312  143.1993  159.6606 H   0  0  0  0  0  0  0  0  0  0  0  0
  153.1709  143.4154  158.8283 H   0  0  0  0  0  0  0  0  0  0  0  0
  152.9390  141.1165  157.8186 H   0  0  0  0  0  0  0  0  0  0  0  0
  151.4279  140.8861  158.6358 H   0  0  0  0  0  0  0  0  0  0  0  0
  150.0362  143.7910  156.5218 H   0  0  0  0  0  0  0  0  0  0  0  0
  150.3982  143.6746  158.2208 H   0  0  0  0  0  0  0  0  0  0  0  0
  151.4739  145.6933  157.2892 H   0  0  0  0  0  0  0  0  0  0  0  0
  152.3677  144.7407  156.1151 H   0  0  0  0  0  0  0  0  0  0  0  0
  152.7106  144.5673  157.8344 H   0  0  0  0  0  0  0  0  0  0  0  0
  152.0107  139.6578  156.4798 H   0  0  0  0  0  0  0  0  0  0  0  0
  150.6938  138.1485  155.0362 H   0  0  0  0  0  0  0  0  0  0  0  0
  149.0434  137.9877  153.3202 H   0  0  0  0  0  0  0  0  0  0  0  0
  147.5680  137.0579  152.3188 H   0  0  0  0  0  0  0  0  0  0  0  0
  145.3127  137.7725  151.1618 H   0  0  0  0  0  0  0  0  0  0  0  0
  144.6907  137.8035  154.1192 H   0  0  0  0  0  0  0  0  0  0  0  0
  143.8861  138.6470  152.8022 H   0  0  0  0  0  0  0  0  0  0  0  0
  143.2768  136.0138  153.9668 H   0  0  0  0  0  0  0  0  0  0  0  0
  142.3191  136.8751  152.7586 H   0  0  0  0  0  0  0  0  0  0  0  0
  143.7678  133.7657  152.9566 H   0  0  0  0  0  0  0  0  0  0  0  0
  142.3415  134.1579  152.0093 H   0  0  0  0  0  0  0  0  0  0  0  0
  143.7755  132.4048  150.8773 H   0  0  0  0  0  0  0  0  0  0  0  0
  143.5545  133.8330  149.8982 H   0  0  0  0  0  0  0  0  0  0  0  0
  146.0313  133.1301  151.5410 H   0  0  0  0  0  0  0  0  0  0  0  0
  145.9238  133.1904  149.7984 H   0  0  0  0  0  0  0  0  0  0  0  0
  147.0172  135.2508  150.7686 H   0  0  0  0  0  0  0  0  0  0  0  0
  145.5791  135.6403  149.8487 H   0  0  0  0  0  0  0  0  0  0  0  0
  145.6965  135.3094  152.8958 H   0  0  0  0  0  0  0  0  0  0  0  0
  147.9517  141.4709  154.3404 H   0  0  0  0  0  0  0  0  0  0  0  0
  143.5393  136.0064  151.0809 H   0  0  0  0  0  0  0  0  0  0  0  0
  149.2549  142.7380  155.7074 H   0  0  0  0  0  0  0  0  0  0  0  0
  1  2  1  0  0  0  0
  1 25  1  0  0  0  0
  1 26  1  0  0  0  0
  1 27  1  0  0  0  0
  2  3  1  0  0  0  0
  2 28  1  0  0  0  0
  2 29  1  0  0  0  0
  3  4  1  0  0  0  0
  3  6  1  0  0  0  0
  4  5  1  0  0  0  0
  4 30  1  0  0  0  0
  4 31  1  0  0  0  0
  5 32  1  0  0  0  0
  5 33  1  0  0  0  0
  5 34  1  0  0  0  0
  6 24  1  0  0  0  0
  6  7  2  0  0  0  0
  7  8  1  0  0  0  0
  7 35  1  0  0  0  0
  8  9  2  0  0  0  0
  8 36  1  0  0  0  0
  9 10  1  0  0  0  0
  9 23  1  0  0  0  0
 10 11  1  0  0  0  0
 10 37  1  0  0  0  0
 11 12  2  0  0  0  0
 11 13  1  0  0  0  0
 13 14  1  0  0  0  0
 13 38  1  0  0  0  0
 14 22  1  0  0  0  0
 14 15  1  0  0  0  0
 14 39  1  0  0  0  0
 15 16  1  0  0  0  0
 15 40  1  0  0  0  0
 15 41  1  0  0  0  0
 16 17  1  0  0  0  0
 16 42  1  0  0  0  0
 16 43  1  0  0  0  0
 17 22  1  0  0  0  0
 17 18  1  0  0  0  0
 17 54  1  0  0  0  0
 18 19  1  0  0  0  0
 18 44  1  0  0  0  0
 18 45  1  0  0  0  0
 19 20  1  0  0  0  0
 19 46  1  0  0  0  0
 19 47  1  0  0  0  0
 20 21  1  0  0  0  0
 20 48  1  0  0  0  0
 20 49  1  0  0  0  0
 21 22  1  0  0  0  0
 21 50  1  0  0  0  0
 21 51  1  0  0  0  0
 22 52  1  0  0  0  0
 23 24  2  0  0  0  0
 23 53  1  0  0  0  0
 24 55  1  0  0  0  0
M  CHG  1  17   1
M  CHG  1  24   1
M  END
> <s_m_source_file>
AV-unprocessed.smi

> <i_m_source_file_index>
1701

> <i_lp_mmshare_version>
43012

> <i_f3d_flags>
0

> <s_epik_input>
W0NIM11bQ0gyXU4oW0NIMl1bQ0gzXSljMVtjSF1bY0hdYyhbY0hdbjEpW05IXUMoPU8pW05IXVtDQEhdKFtDSDJdW0NIMl0yKVtDQEBIXShOMjMpW0NIMl1bQ0gyXVtDSDJdW0NIMl0z

> <s_epik_cmdline>
J2VwaWtfcHl0aG9uJywgJy1waCcsICc3LjAnLCAnLXRuJywgJzgnLCAnLW1hJywgJzIwMCcsICctbWV0YWxfYmluZGluZycsICctaW1hZScsICc8aW5maWxlLm1hZT4nLCAnLW9tYWUnLCAnPG91dGZpbGUubWFlPic=

> <r_lp_tautomer_probability>
0.999994

> <r_epik_Ionization_Penalty>
0.302862

> <r_epik_Ionization_Penalty_Charging>
0.302842

> <r_epik_Ionization_Penalty_Neutral>
1.95166e-05

> <r_epik_State_Penalty>
0.019791

> <r_epik_Charging_Adjusted_Penalty>
0.322633

> <i_epik_Tot_Q>
2

> <i_epik_Tot_abs_Q>
2

> <r_epik_Metal_State_Penalty>
0.0536763

> <b_epik_Metal_Only>
0

> <s_lp_Force_Field>
OPLS_2005

> <r_lp_Energy>
62.5639

> <b_lp_Chiralities_Consistent>
1

> <s_lp_Variant>
AV-unprocessed.smi:1701-3

> <Gold.Version>
5.8.1

> <Gold.Id.Protein>
6NUR|6NUR_protein|mol2

> <Gold.PLP.Fitness>
47.4599

> <Gold.PLP.PLP>
-38.9008

> <Gold.PLP.part.hbond>
-3.3449

> <Gold.PLP.part.metal>
0.0000

> <Gold.PLP.part.buried>
-1.5123

> <Gold.PLP.part.nonpolar>
-35.3906

> <Gold.PLP.part.repulsive>
0.3652

> <Gold.PLP.ligand.clash>
0.0000

> <Gold.PLP.ligand.torsion>
1.2175

> <Gold.PLP.Chemscore.Hbond>
3.3718

> <Gold.PLP.Chemscore.CHOScore>
0.0000

> <Gold.PLP.Chemscore.Metal>
0.0000

> <Gold.Chemscore.Hbonds>
donor molecule, donor type, donor heavy atom, donor atom, acceptor molecule, acceptor atom, score
      L1  H    10    37       P1  7948  0.37
      L1  H    13    38       P1  7948  1.00
      L1  H    24    55       P1  8028  2.00

> <Gold.PLP.Chemscore.Internal.Correction>
0.8786

> <Gold.Rescore>
     Score         DG    S(hbond)    S(metal)    S(lipo)     H(rot)  DE(clash)    DE(int)     intcor
     17.47     -21.27       1.97        0.00     107.07       1.30       0.44       3.35       ----

> <Gold.Chemscore.Fitness>
17.4749

> <Gold.Chemscore.DG>
-21.2662

> <Gold.Chemscore.ZeroCoef>
-5.4800

> <Gold.Chemscore.Hbond>
1.9737

> <Gold.Chemscore.Metal>
0.0000

> <Gold.Chemscore.Lipo>
107.0690

> <Gold.Chemscore.Internal_Hbond>
0.0000

> <Gold.Chemscore.DEClash>
0.4376

> <Gold.Chemscore.DEInternal>
3.3537

> <Gold.Chemscore.Rot>
1.3020

> <Gold.Chemscore.Internal.Correction>
   9.000000E+99

> <Gold.Chemscore.Hbonds>
donor molecule, donor type, donor heavy atom, donor atom, acceptor molecule, acceptor atom, score
      L1  H    10    37       P1  7948  0.37
      L1  H    13    38       P1  7948  1.00
      L1  H    24    55       P1  8028  0.94

> <Gold.Chemscore.Hbond.Weighted>
-6.5922

> <Gold.Chemscore.Metal.Weighted>
-0.0000

> <Gold.Chemscore.Lipo.Weighted>
-12.5271

> <Gold.Chemscore.Internal_Hbond.Weighted>
0.0000

> <Gold.Chemscore.DEClash.Weighted>
0.4376

> <Gold.Chemscore.DEInternal.Weighted>
3.3537

> <Gold.Chemscore.Rot.Weighted>
3.3330

> <Gold.Chemscore.Internal.Correction.Weighted>
   9.000000E+99

> <Gold.Protein.RotatedTorsions>
[ 6907 6896 6895 6894 ] final   -4.61 input  -60.11 | X-H torsion
[ 7974 7965 7964 7962 ] final  156.87 input  175.53 | X-H torsion
[ 8008 7997 7996 7995 ] final  -26.08 input   59.86 | X-H torsion
[ 10167 10162 10161 10158 ] final  -79.00 input  -65.29 | X-H torsion
[ 10718 10713 10712 10709 ] final  117.93 input   66.30 | X-H torsion
[ 10763 10752 10751 10750 ] final  -87.46 input  -60.55 | X-H torsion
[ 11005 11000 10999 10996 ] final  -98.44 input  -57.11 | X-H torsion

> <Gold.Protein.ActiveResidues>
 VAL166  LYS551  ARG553  GLY616  TRP617  ASP618  TYR619  PRO620  LYS621  CYS622 
 ASP623  PHE694  ASN695  SER759  ASP760  ASP761  ALA762  ILE779  LEU786  VAL792 
 PHE793  MET794  SER795  GLU796  ALA797  LYS798  CYS799  TRP800  GLU811  SER814 

> <Gold.Protein.RotatedAtoms>
  151.4949  135.1059  159.9813 H   0  0  0  0  0  0  0  0  0  0  0  0  # atno 6907 bound_to 6896
  152.4726  133.8060  159.6988 H   0  0  0  0  0  0  0  0  0  0  0  0  # atno 6908 bound_to 6896
  150.8744  133.7398  159.2977 H   0  0  0  0  0  0  0  0  0  0  0  0  # atno 6909 bound_to 6896
  144.7937  139.7263  143.6211 H   0  0  0  0  0  0  0  0  0  0  0  0  # atno 7974 bound_to 7965
  154.4443  140.1909  156.0719 H   0  0  0  0  0  0  0  0  0  0  0  0  # atno 8008 bound_to 7997
  156.0505  140.3309  155.7318 H   0  0  0  0  0  0  0  0  0  0  0  0  # atno 8009 bound_to 7997
  155.5565  140.0599  157.2829 H   0  0  0  0  0  0  0  0  0  0  0  0  # atno 8010 bound_to 7997
  140.4632  143.2447  151.8317 H   0  0  0  0  0  0  0  0  0  0  0  0  # atno 10167 bound_to 10162
  157.6064  131.1042  150.7685 H   0  0  0  0  0  0  0  0  0  0  0  0  # atno 10718 bound_to 10713
  154.6338  135.5412  153.7711 H   0  0  0  0  0  0  0  0  0  0  0  0  # atno 10763 bound_to 10752
  153.0298  135.6442  154.1261 H   0  0  0  0  0  0  0  0  0  0  0  0  # atno 10764 bound_to 10752
  154.1190  135.2921  155.3193 H   0  0  0  0  0  0  0  0  0  0  0  0  # atno 10765 bound_to 10752
  141.1344  133.8245  157.0840 H   0  0  0  0  0  0  0  0  0  0  0  0  # atno 11005 bound_to 11000
  146.2198  139.5615  142.9626 LP  0  0  0  0  0  0  0  0  0  0  0  0  # atno 17320 bound_to 7965
  145.5729  141.0392  143.2164 LP  0  0  0  0  0  0  0  0  0  0  0  0  # atno 17321 bound_to 7965
  139.4809  144.4982  151.9095 LP  0  0  0  0  0  0  0  0  0  0  0  0  # atno 17342 bound_to 10162
  140.4068  144.2422  150.5890 LP  0  0  0  0  0  0  0  0  0  0  0  0  # atno 17343 bound_to 10162
  156.8072  130.4940  149.5361 LP  0  0  0  0  0  0  0  0  0  0  0  0  # atno 17370 bound_to 10713
  156.1151  130.6069  151.0108 LP  0  0  0  0  0  0  0  0  0  0  0  0  # atno 17371 bound_to 10713
  140.0434  134.9843  157.1004 LP  0  0  0  0  0  0  0  0  0  0  0  0  # atno 17394 bound_to 11000
  140.4100  134.1991  155.7163 LP  0  0  0  0  0  0  0  0  0  0  0  0  # atno 17395 bound_to 11000

$$$$
