AV-unprocessed.smi:1479|AV-procd|sdf|5984|dock1
  -GOLD-   22720 6 73D 1   1.00000     0.00000
 Structure written by MMmdl.
 41 42  0  0  0  0  0  0  0  0  2 V2000
  149.5262  133.5142  155.2766 C   0  0  0  0  0  0  0  0  0  0  0  0
  149.6942  134.9144  156.4600 S   0  0  0  0  0  0  0  0  0  0  0  0
  149.1644  134.4814  157.7613 O   0  0  0  0  0  0  0  0  0  0  0  0
  151.0681  135.4301  156.3612 O   0  0  0  0  0  0  0  0  0  0  0  0
  148.5381  136.1715  155.7600 C   0  0  0  0  0  0  0  0  0  0  0  0
  149.2413  137.5077  155.4840 C   0  0  0  0  0  0  0  0  0  0  0  0
  150.3840  137.3256  154.5684 N   0  3  0  0  0  0  0  0  0  0  0  0
  151.0285  138.5873  154.1556 C   0  0  0  0  0  0  0  0  0  0  0  0
  151.4049  139.4158  155.3659 C   0  0  0  0  0  0  0  0  0  0  0  0
  150.8379  140.6833  155.6057 C   0  0  0  0  0  0  0  0  0  0  0  0
  151.1846  141.4210  156.6810 N   0  0  0  0  0  0  0  0  0  0  0  0
  152.0880  140.9103  157.5299 C   0  0  0  0  0  0  0  0  0  0  0  0
  152.4418  141.6828  158.6438 N   0  0  0  0  0  0  0  0  0  0  0  0
  153.2586  141.1450  159.7347 C   0  0  0  0  0  0  0  0  0  0  0  0
  152.8846  141.8018  161.0743 C   0  0  0  0  0  0  0  0  0  0  0  0
  152.9892  143.2155  160.9635 O   0  0  0  0  0  0  0  0  0  0  0  0
  152.0928  143.7301  159.9872 C   0  0  0  0  0  0  0  0  0  0  0  0
  152.4365  143.1476  158.6061 C   0  0  0  0  0  0  0  0  0  0  0  0
  152.6776  139.7146  157.3886 N   0  0  0  0  0  0  0  0  0  0  0  0
  152.3415  138.9654  156.3177 C   0  0  0  0  0  0  0  0  0  0  0  0
  150.1260  132.6745  155.6281 H   0  0  0  0  0  0  0  0  0  0  0  0
  149.8794  133.8127  154.2904 H   0  0  0  0  0  0  0  0  0  0  0  0
  148.4825  133.2069  155.2161 H   0  0  0  0  0  0  0  0  0  0  0  0
  148.0957  135.7594  154.8526 H   0  0  0  0  0  0  0  0  0  0  0  0
  147.7331  136.3086  156.4829 H   0  0  0  0  0  0  0  0  0  0  0  0
  148.5404  138.2146  155.0384 H   0  0  0  0  0  0  0  0  0  0  0  0
  149.5985  137.9483  156.4147 H   0  0  0  0  0  0  0  0  0  0  0  0
  151.0744  136.7460  155.0241 H   0  0  0  0  0  0  0  0  0  0  0  0
  151.9232  138.3721  153.5699 H   0  0  0  0  0  0  0  0  0  0  0  0
  150.3518  139.1573  153.5174 H   0  0  0  0  0  0  0  0  0  0  0  0
  150.1107  141.1111  154.9314 H   0  0  0  0  0  0  0  0  0  0  0  0
  153.1433  140.0670  159.8417 H   0  0  0  0  0  0  0  0  0  0  0  0
  154.3090  141.3301  159.5077 H   0  0  0  0  0  0  0  0  0  0  0  0
  151.8738  141.5220  161.3757 H   0  0  0  0  0  0  0  0  0  0  0  0
  153.5570  141.4577  161.8603 H   0  0  0  0  0  0  0  0  0  0  0  0
  151.0627  143.4978  160.2620 H   0  0  0  0  0  0  0  0  0  0  0  0
  152.1784  144.8164  159.9662 H   0  0  0  0  0  0  0  0  0  0  0  0
  153.4223  143.4911  158.2911 H   0  0  0  0  0  0  0  0  0  0  0  0
  151.7206  143.5392  157.8842 H   0  0  0  0  0  0  0  0  0  0  0  0
  152.8281  138.0063  156.2183 H   0  0  0  0  0  0  0  0  0  0  0  0
  150.0568  136.8481  153.7403 H   0  0  0  0  0  0  0  0  0  0  0  0
  1  2  1  0  0  0  0
  1 21  1  0  0  0  0
  1 22  1  0  0  0  0
  1 23  1  0  0  0  0
  2  3  2  0  0  0  0
  2  4  2  0  0  0  0
  2  5  1  0  0  0  0
  5  6  1  0  0  0  0
  5 24  1  0  0  0  0
  5 25  1  0  0  0  0
  6  7  1  0  0  0  0
  6 26  1  0  0  0  0
  6 27  1  0  0  0  0
  7  8  1  0  0  0  0
  7 28  1  0  0  0  0
  7 41  1  0  0  0  0
  8  9  1  0  0  0  0
  8 29  1  0  0  0  0
  8 30  1  0  0  0  0
  9 20  1  0  0  0  0
  9 10  2  0  0  0  0
 10 11  1  0  0  0  0
 10 31  1  0  0  0  0
 11 12  2  0  0  0  0
 12 13  1  0  0  0  0
 12 19  1  0  0  0  0
 13 18  1  0  0  0  0
 13 14  1  0  0  0  0
 14 15  1  0  0  0  0
 14 32  1  0  0  0  0
 14 33  1  0  0  0  0
 15 16  1  0  0  0  0
 15 34  1  0  0  0  0
 15 35  1  0  0  0  0
 16 17  1  0  0  0  0
 17 18  1  0  0  0  0
 17 36  1  0  0  0  0
 17 37  1  0  0  0  0
 18 38  1  0  0  0  0
 18 39  1  0  0  0  0
 19 20  2  0  0  0  0
 20 40  1  0  0  0  0
M  CHG  1   7   1
M  END
> <s_m_source_file>
AV-unprocessed.smi

> <i_m_source_file_index>
1479

> <i_lp_mmshare_version>
43012

> <i_f3d_flags>
0

> <s_epik_input>
W0NIM11TKD1PKSg9TylbQ0gyXVtDSDJdW05IXVtDSDJdYzFbY0hdbmMobltjSF0xKU4yW0NIMl1bQ0gyXU9bQ0gyXVtDSDJdMg==

> <s_epik_cmdline>
J2VwaWtfcHl0aG9uJywgJy1waCcsICc3LjAnLCAnLXRuJywgJzgnLCAnLW1hJywgJzIwMCcsICctbWV0YWxfYmluZGluZycsICctaW1hZScsICc8aW5maWxlLm1hZT4nLCAnLW9tYWUnLCAnPG91dGZpbGUubWFlPic=

> <r_lp_tautomer_probability>
1

> <r_epik_Ionization_Penalty>
0.420052

> <r_epik_Ionization_Penalty_Charging>
0.42005

> <r_epik_Ionization_Penalty_Neutral>
1.46734e-06

> <r_epik_State_Penalty>
0.420684

> <r_epik_Charging_Adjusted_Penalty>
0.840734

> <i_epik_Tot_Q>
1

> <i_epik_Tot_abs_Q>
1

> <r_epik_Metal_State_Penalty>
0.420686

> <b_epik_Metal_Only>
0

> <s_lp_Force_Field>
OPLS_2005

> <r_lp_Energy>
3.00328

> <b_lp_Chiralities_Consistent>
1

> <s_lp_Variant>
AV-unprocessed.smi:1479-2

> <Gold.Version>
5.8.1

> <Gold.Id.Protein>
6NUR|6NUR_protein|mol2

> <Gold.PLP.Fitness>
51.2169

> <Gold.PLP.PLP>
-36.4871

> <Gold.PLP.part.hbond>
-3.9990

> <Gold.PLP.part.metal>
0.0000

> <Gold.PLP.part.buried>
-4.6015

> <Gold.PLP.part.nonpolar>
-27.4875

> <Gold.PLP.part.repulsive>
0.1652

> <Gold.PLP.ligand.clash>
0.0000

> <Gold.PLP.ligand.torsion>
0.3052

> <Gold.PLP.Chemscore.Hbond>
4.9920

> <Gold.PLP.Chemscore.CHOScore>
0.0000

> <Gold.PLP.Chemscore.Metal>
0.0000

> <Gold.Chemscore.Hbonds>
donor molecule, donor type, donor heavy atom, donor atom, acceptor molecule, acceptor atom, score
      L1  H     7    41       P1  7948  1.04
      P1  H  6896  6909       L1     3  0.49
      P1  H  7997  8009       L1    19  0.80

> <Gold.PLP.Chemscore.Internal.Correction>
0.3643

> <Gold.Rescore>
     Score         DG    S(hbond)    S(metal)    S(lipo)     H(rot)  DE(clash)    DE(int)     intcor
     20.72     -21.52       3.61        0.00      80.84       2.14       0.20       0.60       ----

> <Gold.Chemscore.Fitness>
20.7235

> <Gold.Chemscore.DG>
-21.5236

> <Gold.Chemscore.ZeroCoef>
-5.4800

> <Gold.Chemscore.Hbond>
3.6138

> <Gold.Chemscore.Metal>
0.0000

> <Gold.Chemscore.Lipo>
80.8414

> <Gold.Chemscore.Internal_Hbond>
0.0000

> <Gold.Chemscore.DEClash>
0.1982

> <Gold.Chemscore.DEInternal>
0.6018

> <Gold.Chemscore.Rot>
2.1426

> <Gold.Chemscore.Internal.Correction>
   9.000000E+99

> <Gold.Chemscore.Hbonds>
donor molecule, donor type, donor heavy atom, donor atom, acceptor molecule, acceptor atom, score
      L1  H     7    41       P1  7948  0.13
      P1  H  6896  6909       L1     3  0.44
      P1  H  7997  8009       L1    19  0.06
      P1  H 10752 10763       L1     4  0.04

> <Gold.Chemscore.Hbond.Weighted>
-12.0702

> <Gold.Chemscore.Metal.Weighted>
-0.0000

> <Gold.Chemscore.Lipo.Weighted>
-9.4584

> <Gold.Chemscore.Internal_Hbond.Weighted>
0.0000

> <Gold.Chemscore.DEClash.Weighted>
0.1982

> <Gold.Chemscore.DEInternal.Weighted>
0.6018

> <Gold.Chemscore.Rot.Weighted>
5.4850

> <Gold.Chemscore.Internal.Correction.Weighted>
   9.000000E+99

> <Gold.Protein.RotatedTorsions>
[ 6907 6896 6895 6894 ] final   11.30 input  -60.11 | X-H torsion
[ 7974 7965 7964 7962 ] final -165.51 input  175.53 | X-H torsion
[ 8008 7997 7996 7995 ] final  167.14 input   59.86 | X-H torsion
[ 10167 10162 10161 10158 ] final -178.93 input  -65.29 | X-H torsion
[ 10718 10713 10712 10709 ] final   68.25 input   66.30 | X-H torsion
[ 10763 10752 10751 10750 ] final   95.15 input  -60.55 | X-H torsion
[ 11005 11000 10999 10996 ] final   88.09 input  -57.11 | X-H torsion

> <Gold.Protein.ActiveResidues>
 VAL166  LYS551  ARG553  GLY616  TRP617  ASP618  TYR619  PRO620  LYS621  CYS622 
 ASP623  PHE694  ASN695  SER759  ASP760  ASP761  ALA762  ILE779  LEU786  VAL792 
 PHE793  MET794  SER795  GLU796  ALA797  LYS798  CYS799  TRP800  GLU811  SER814 

> <Gold.Protein.RotatedAtoms>
  151.7521  135.0830  160.0332 H   0  0  0  0  0  0  0  0  0  0  0  0  # atno 6907 bound_to 6896
  152.3410  133.6062  159.5884 H   0  0  0  0  0  0  0  0  0  0  0  0  # atno 6908 bound_to 6896
  150.7479  133.9639  159.3566 H   0  0  0  0  0  0  0  0  0  0  0  0  # atno 6909 bound_to 6896
  144.7268  140.2804  143.6237 H   0  0  0  0  0  0  0  0  0  0  0  0  # atno 7974 bound_to 7965
  156.1659  140.1624  156.8533 H   0  0  0  0  0  0  0  0  0  0  0  0  # atno 8008 bound_to 7997
  154.5207  140.0779  156.8201 H   0  0  0  0  0  0  0  0  0  0  0  0  # atno 8009 bound_to 7997
  155.3613  140.3395  155.4243 H   0  0  0  0  0  0  0  0  0  0  0  0  # atno 8010 bound_to 7997
  139.5409  144.2365  152.0894 H   0  0  0  0  0  0  0  0  0  0  0  0  # atno 10167 bound_to 10162
  157.6278  130.9364  150.0352 H   0  0  0  0  0  0  0  0  0  0  0  0  # atno 10718 bound_to 10713
  153.2499  135.4264  155.0786 H   0  0  0  0  0  0  0  0  0  0  0  0  # atno 10763 bound_to 10752
  154.8377  135.3423  154.6528 H   0  0  0  0  0  0  0  0  0  0  0  0  # atno 10764 bound_to 10752
  153.6950  135.7031  153.5136 H   0  0  0  0  0  0  0  0  0  0  0  0  # atno 10765 bound_to 10752
  139.8904  134.8465  156.2952 H   0  0  0  0  0  0  0  0  0  0  0  0  # atno 11005 bound_to 11000
  145.7955  139.1943  143.2078 LP  0  0  0  0  0  0  0  0  0  0  0  0  # atno 17320 bound_to 7965
  146.0720  140.7858  142.9683 LP  0  0  0  0  0  0  0  0  0  0  0  0  # atno 17321 bound_to 7965
  140.1843  144.4814  150.6512 LP  0  0  0  0  0  0  0  0  0  0  0  0  # atno 17342 bound_to 10162
  140.6639  143.2261  151.5790 LP  0  0  0  0  0  0  0  0  0  0  0  0  # atno 17343 bound_to 10162
  156.1461  130.3642  149.9508 LP  0  0  0  0  0  0  0  0  0  0  0  0  # atno 17370 bound_to 10713
  156.7538  130.9125  151.3638 LP  0  0  0  0  0  0  0  0  0  0  0  0  # atno 17371 bound_to 10713
  140.9950  133.7186  156.0872 LP  0  0  0  0  0  0  0  0  0  0  0  0  # atno 17394 bound_to 11000
  140.7575  134.3977  157.5531 LP  0  0  0  0  0  0  0  0  0  0  0  0  # atno 17395 bound_to 11000

$$$$
