AV-unprocessed.smi:1952|AV-procd|sdf|7888|dock10
  -GOLD-   2272010 43D 1   1.00000     0.00000
 Structure written by MMmdl.
 38 39  0  0  0  0  0  0  0  0  2 V2000
  151.8912  141.9251  158.1224 C   0  0  0  0  0  0  0  0  0  0  0  0
  151.6010  140.9963  156.9932 C   0  0  0  0  0  0  0  0  0  0  0  0
  150.6296  140.9789  156.0329 C   0  0  0  0  0  0  0  0  0  0  0  0
  150.9468  139.8213  155.2708 C   0  0  0  0  0  0  0  0  0  0  0  0
  150.2660  139.3660  154.2079 N   0  5  0  0  0  0  0  0  0  0  0  0
  148.9385  139.6042  154.0964 C   0  0  0  0  0  0  0  0  0  0  0  0
  148.3193  140.5411  154.6062 O   0  0  0  0  0  0  0  0  0  0  0  0
  148.2895  138.6999  153.3481 N   0  0  0  0  0  0  0  0  0  0  0  0
  146.8552  138.6810  153.0641 C   0  0  1  0  0  0  0  0  0  0  0  0
  146.6183  138.8381  151.5543 C   0  0  0  0  0  0  0  0  0  0  0  0
  146.2300  137.3749  153.5962 C   0  0  0  0  0  0  0  0  0  0  0  0
  146.1955  136.2557  152.6525 N   0  0  0  0  0  0  0  0  0  0  0  0
  146.2439  134.9535  153.3133 C   0  0  0  0  0  0  0  0  0  0  0  0
  146.1861  133.7955  152.3017 C   0  0  0  0  0  0  0  0  0  0  0  0
  145.0162  133.9172  151.4990 O   0  0  0  0  0  0  0  0  0  0  0  0
  144.9594  135.1561  150.7999 C   0  0  0  0  0  0  0  0  0  0  0  0
  145.0087  136.3177  151.8073 C   0  0  0  0  0  0  0  0  0  0  0  0
  152.0064  139.1828  155.7385 N   0  0  0  0  0  0  0  0  0  0  0  0
  152.4365  139.9339  156.8387 O   0  0  0  0  0  0  0  0  0  0  0  0
  151.0293  142.0080  158.7842 H   0  0  0  0  0  0  0  0  0  0  0  0
  152.1293  142.9213  157.7498 H   0  0  0  0  0  0  0  0  0  0  0  0
  152.7378  141.5743  158.7132 H   0  0  0  0  0  0  0  0  0  0  0  0
  149.8233  141.6833  155.8934 H   0  0  0  0  0  0  0  0  0  0  0  0
  148.8378  137.9486  152.9557 H   0  0  0  0  0  0  0  0  0  0  0  0
  146.3725  139.5239  153.5598 H   0  0  0  0  0  0  0  0  0  0  0  0
  145.5530  138.8351  151.3229 H   0  0  0  0  0  0  0  0  0  0  0  0
  147.0838  138.0275  150.9928 H   0  0  0  0  0  0  0  0  0  0  0  0
  147.0312  139.7782  151.1868 H   0  0  0  0  0  0  0  0  0  0  0  0
  146.7551  137.0693  154.5025 H   0  0  0  0  0  0  0  0  0  0  0  0
  145.2084  137.5985  153.9073 H   0  0  0  0  0  0  0  0  0  0  0  0
  147.1605  134.8572  153.8943 H   0  0  0  0  0  0  0  0  0  0  0  0
  145.4144  134.8633  154.0160 H   0  0  0  0  0  0  0  0  0  0  0  0
  147.0728  133.7958  151.6660 H   0  0  0  0  0  0  0  0  0  0  0  0
  146.1652  132.8378  152.8217 H   0  0  0  0  0  0  0  0  0  0  0  0
  145.7877  135.2224  150.0927 H   0  0  0  0  0  0  0  0  0  0  0  0
  144.0379  135.1959  150.2191 H   0  0  0  0  0  0  0  0  0  0  0  0
  144.1114  136.2949  152.4278 H   0  0  0  0  0  0  0  0  0  0  0  0
  144.9889  137.2639  151.2655 H   0  0  0  0  0  0  0  0  0  0  0  0
  1  2  1  0  0  0  0
  1 20  1  0  0  0  0
  1 21  1  0  0  0  0
  1 22  1  0  0  0  0
  2 19  1  0  0  0  0
  2  3  2  0  0  0  0
  3  4  1  0  0  0  0
  3 23  1  0  0  0  0
  4  5  1  0  0  0  0
  4 18  2  0  0  0  0
  5  6  1  0  0  0  0
  6  7  2  0  0  0  0
  6  8  1  0  0  0  0
  8  9  1  0  0  0  0
  8 24  1  0  0  0  0
  9 10  1  0  0  0  0
  9 11  1  0  0  0  0
  9 25  1  0  0  0  0
 10 26  1  0  0  0  0
 10 27  1  0  0  0  0
 10 28  1  0  0  0  0
 11 12  1  0  0  0  0
 11 29  1  0  0  0  0
 11 30  1  0  0  0  0
 12 17  1  0  0  0  0
 12 13  1  0  0  0  0
 13 14  1  0  0  0  0
 13 31  1  0  0  0  0
 13 32  1  0  0  0  0
 14 15  1  0  0  0  0
 14 33  1  0  0  0  0
 14 34  1  0  0  0  0
 15 16  1  0  0  0  0
 16 17  1  0  0  0  0
 16 35  1  0  0  0  0
 16 36  1  0  0  0  0
 17 37  1  0  0  0  0
 17 38  1  0  0  0  0
 18 19  1  0  0  0  0
M  CHG  1   5  -1
M  END
> <s_m_source_file>
AV-unprocessed.smi

> <i_m_source_file_index>
1952

> <i_lp_mmshare_version>
43012

> <i_f3d_flags>
0

> <s_epik_input>
W0NIM11jMVtjSF1jKG5vMSlbTkhdQyg9TylbTkhdW0NASF0oW0NIM10pW0NIMl1OMltDSDJdW0NIMl1PW0NIMl1bQ0gyXTI=

> <s_epik_cmdline>
J2VwaWtfcHl0aG9uJywgJy1waCcsICc3LjAnLCAnLXRuJywgJzgnLCAnLW1hJywgJzIwMCcsICctbWV0YWxfYmluZGluZycsICctaW1hZScsICc8aW5maWxlLm1hZT4nLCAnLW9tYWUnLCAnPG91dGZpbGUubWFlPic=

> <r_epik_Ionization_Penalty>
6.81701

> <r_epik_Ionization_Penalty_Charging>
6.50532

> <r_epik_Ionization_Penalty_Neutral>
0.311686

> <r_epik_State_Penalty>
6.70952

> <r_epik_Charging_Adjusted_Penalty>
13.2148

> <i_epik_Tot_Q>
-1

> <i_epik_Tot_abs_Q>
1

> <r_epik_Metal_State_Penalty>
2.64135

> <b_epik_Metal_Only>
1

> <s_lp_Force_Field>
OPLS_2005

> <r_lp_Energy>
19.0911

> <b_lp_Chiralities_Consistent>
1

> <s_lp_Variant>
AV-unprocessed.smi:1952-6

> <Gold.Version>
5.8.1

> <Gold.Id.Protein>
6NUR|6NUR_protein|mol2

> <Gold.PLP.Fitness>
32.8456

> <Gold.PLP.PLP>
-28.7898

> <Gold.PLP.part.hbond>
-3.6965

> <Gold.PLP.part.metal>
0.0000

> <Gold.PLP.part.buried>
-2.8205

> <Gold.PLP.part.nonpolar>
-24.9988

> <Gold.PLP.part.repulsive>
2.2720

> <Gold.PLP.ligand.clash>
0.0000

> <Gold.PLP.ligand.torsion>
1.0121

> <Gold.PLP.Chemscore.Hbond>
2.0000

> <Gold.PLP.Chemscore.CHOScore>
0.0000

> <Gold.PLP.Chemscore.Metal>
0.0000

> <Gold.Chemscore.Hbonds>
donor molecule, donor type, donor heavy atom, donor atom, acceptor molecule, acceptor atom, score
      L1  H     8    24       P1  7948  1.00
      P1  H  7997  8010       L1    19  1.00

> <Gold.PLP.Chemscore.Internal.Correction>
0.0800

> <Gold.Rescore>
     Score         DG    S(hbond)    S(metal)    S(lipo)     H(rot)  DE(clash)    DE(int)     intcor
     11.62     -14.54       1.93        0.00      55.96       1.53       0.44       2.47       ----

> <Gold.Chemscore.Fitness>
11.6184

> <Gold.Chemscore.DG>
-14.5370

> <Gold.Chemscore.ZeroCoef>
-5.4800

> <Gold.Chemscore.Hbond>
1.9256

> <Gold.Chemscore.Metal>
0.0000

> <Gold.Chemscore.Lipo>
55.9552

> <Gold.Chemscore.Internal_Hbond>
0.0000

> <Gold.Chemscore.DEClash>
0.4449

> <Gold.Chemscore.DEInternal>
2.4738

> <Gold.Chemscore.Rot>
1.5317

> <Gold.Chemscore.Internal.Correction>
   9.000000E+99

> <Gold.Chemscore.Hbonds>
donor molecule, donor type, donor heavy atom, donor atom, acceptor molecule, acceptor atom, score
      L1  H     8    24       P1  7948  0.91
      P1  H  7997  8010       L1    19  0.29

> <Gold.Chemscore.Hbond.Weighted>
-6.4314

> <Gold.Chemscore.Metal.Weighted>
-0.0000

> <Gold.Chemscore.Lipo.Weighted>
-6.5468

> <Gold.Chemscore.Internal_Hbond.Weighted>
0.0000

> <Gold.Chemscore.DEClash.Weighted>
0.4449

> <Gold.Chemscore.DEInternal.Weighted>
2.4738

> <Gold.Chemscore.Rot.Weighted>
3.9211

> <Gold.Chemscore.Internal.Correction.Weighted>
   9.000000E+99

> <Gold.Protein.RotatedTorsions>
[ 6907 6896 6895 6894 ] final  -96.91 input  -60.11 | X-H torsion
[ 7974 7965 7964 7962 ] final   56.18 input  175.53 | X-H torsion
[ 8008 7997 7996 7995 ] final   73.19 input   59.86 | X-H torsion
[ 10167 10162 10161 10158 ] final   41.69 input  -65.29 | X-H torsion
[ 10718 10713 10712 10709 ] final -151.43 input   66.30 | X-H torsion
[ 10763 10752 10751 10750 ] final   35.84 input  -60.55 | X-H torsion
[ 11005 11000 10999 10996 ] final   97.37 input  -57.11 | X-H torsion

> <Gold.Protein.ActiveResidues>
 VAL166  LYS551  ARG553  GLY616  TRP617  ASP618  TYR619  PRO620  LYS621  CYS622 
 ASP623  PHE694  ASN695  SER759  ASP760  ASP761  ALA762  ILE779  LEU786  VAL792 
 PHE793  MET794  SER795  GLU796  ALA797  LYS798  CYS799  TRP800  GLU811  SER814 

> <Gold.Protein.RotatedAtoms>
  150.7001  134.1430  159.4111 H   0  0  0  0  0  0  0  0  0  0  0  0  # atno 6907 bound_to 6896
  151.9415  135.0209  160.0545 H   0  0  0  0  0  0  0  0  0  0  0  0  # atno 6908 bound_to 6896
  152.2090  133.4862  159.5136 H   0  0  0  0  0  0  0  0  0  0  0  0  # atno 6909 bound_to 6896
  145.9425  139.3901  143.0355 H   0  0  0  0  0  0  0  0  0  0  0  0  # atno 7974 bound_to 7965
  155.7800  140.3482  155.5292 H   0  0  0  0  0  0  0  0  0  0  0  0  # atno 8008 bound_to 7997
  155.8737  140.0991  157.1553 H   0  0  0  0  0  0  0  0  0  0  0  0  # atno 8009 bound_to 7997
  154.4019  140.1335  156.4098 H   0  0  0  0  0  0  0  0  0  0  0  0  # atno 8010 bound_to 7997
  140.3618  144.2218  150.6137 H   0  0  0  0  0  0  0  0  0  0  0  0  # atno 10167 bound_to 10162
  156.4592  130.8205  151.2436 H   0  0  0  0  0  0  0  0  0  0  0  0  # atno 10718 bound_to 10713
  153.0102  135.6322  154.1890 H   0  0  0  0  0  0  0  0  0  0  0  0  # atno 10763 bound_to 10752
  154.1632  135.2822  155.3104 H   0  0  0  0  0  0  0  0  0  0  0  0  # atno 10764 bound_to 10752
  154.5965  135.5601  153.7391 H   0  0  0  0  0  0  0  0  0  0  0  0  # atno 10765 bound_to 10752
  139.8776  134.8997  156.4296 H   0  0  0  0  0  0  0  0  0  0  0  0  # atno 11005 bound_to 11000
  145.8281  140.9645  143.0863 LP  0  0  0  0  0  0  0  0  0  0  0  0  # atno 17320 bound_to 7965
  144.6781  140.0127  143.7484 LP  0  0  0  0  0  0  0  0  0  0  0  0  # atno 17321 bound_to 7965
  140.5119  143.2288  151.8522 LP  0  0  0  0  0  0  0  0  0  0  0  0  # atno 17342 bound_to 10162
  139.4813  144.4939  151.9149 LP  0  0  0  0  0  0  0  0  0  0  0  0  # atno 17343 bound_to 10162
  157.7499  131.0113  150.3339 LP  0  0  0  0  0  0  0  0  0  0  0  0  # atno 17370 bound_to 10713
  156.3734  130.3867  149.7157 LP  0  0  0  0  0  0  0  0  0  0  0  0  # atno 17371 bound_to 10713
  140.9076  133.7735  155.9753 LP  0  0  0  0  0  0  0  0  0  0  0  0  # atno 17394 bound_to 11000
  140.8582  134.2872  157.5246 LP  0  0  0  0  0  0  0  0  0  0  0  0  # atno 17395 bound_to 11000

$$$$
