AV-unprocessed.smi:1196|AV-procd|sdf|5001|dock1
  -GOLD-   22720 4 13D 1   1.00000     0.00000
 Structure written by MMmdl.
 36 37  0  0  0  0  0  0  0  0  2 V2000
  152.1164  138.4951  154.2448 C   0  0  0  0  0  0  0  0  0  0  0  0
  152.0177  139.0480  155.6753 C   0  0  1  0  0  0  0  0  0  0  0  0
  151.1190  140.2983  155.7335 C   0  0  0  0  0  0  0  0  0  0  0  0
  151.2447  141.0114  156.9924 N   0  0  0  0  0  0  0  0  0  0  0  0
  150.5888  142.1551  157.3961 C   0  0  0  0  0  0  0  0  0  0  0  0
  151.0336  142.4572  158.6513 C   0  0  0  0  0  0  0  0  0  0  0  0
  151.9741  141.4270  158.9332 C   0  0  0  0  0  0  0  0  0  0  0  0
  152.0970  140.5621  157.9393 N   0  0  0  0  0  0  0  0  0  0  0  0
  151.5027  138.0161  156.5732 N   0  0  0  0  0  0  0  0  0  0  0  0
  152.1515  137.5077  157.6317 C   0  0  0  0  0  0  0  0  0  0  0  0
  153.2829  137.8624  157.9645 O   0  0  0  0  0  0  0  0  0  0  0  0
  151.4018  136.4390  158.4314 C   0  0  0  0  0  0  0  0  0  0  0  0
  151.3236  136.7604  159.9365 C   0  0  0  0  0  0  0  0  0  0  0  0
  150.4779  135.7399  160.7271 C   0  0  2  0  0  0  0  0  0  0  0  0
  150.3281  136.1323  162.1178 N   0  5  0  0  0  0  0  0  0  0  0  0
  150.8278  135.1456  162.8985 C   0  0  0  0  0  0  0  0  0  0  0  0
  150.8700  135.1066  164.1261 O   0  0  0  0  0  0  0  0  0  0  0  0
  151.3075  134.1471  162.1500 N   0  0  0  0  0  0  0  0  0  0  0  0
  151.1680  134.3953  160.8519 C   0  0  0  0  0  0  0  0  0  0  0  0
  151.5214  133.6844  159.9122 O   0  0  0  0  0  0  0  0  0  0  0  0
  152.5134  139.2461  153.5615 H   0  0  0  0  0  0  0  0  0  0  0  0
  151.1396  138.1873  153.8702 H   0  0  0  0  0  0  0  0  0  0  0  0
  152.7784  137.6300  154.1995 H   0  0  0  0  0  0  0  0  0  0  0  0
  153.0199  139.3374  155.9972 H   0  0  0  0  0  0  0  0  0  0  0  0
  151.3881  140.9887  154.9332 H   0  0  0  0  0  0  0  0  0  0  0  0
  150.0729  140.0314  155.5736 H   0  0  0  0  0  0  0  0  0  0  0  0
  149.8699  142.6537  156.7627 H   0  0  0  0  0  0  0  0  0  0  0  0
  150.7341  143.2880  159.2727 H   0  0  0  0  0  0  0  0  0  0  0  0
  152.5664  141.2828  159.8247 H   0  0  0  0  0  0  0  0  0  0  0  0
  150.5724  137.6719  156.3832 H   0  0  0  0  0  0  0  0  0  0  0  0
  150.3986  136.3396  158.0158 H   0  0  0  0  0  0  0  0  0  0  0  0
  151.8945  135.4756  158.2917 H   0  0  0  0  0  0  0  0  0  0  0  0
  152.3361  136.7737  160.3441 H   0  0  0  0  0  0  0  0  0  0  0  0
  150.9271  137.7671  160.0827 H   0  0  0  0  0  0  0  0  0  0  0  0
  149.5181  135.5863  160.2319 H   0  0  0  0  0  0  0  0  0  0  0  0
  151.7331  133.3130  162.5258 H   0  0  0  0  0  0  0  0  0  0  0  0
  1  2  1  0  0  0  0
  1 21  1  0  0  0  0
  1 22  1  0  0  0  0
  1 23  1  0  0  0  0
  2  3  1  0  0  0  0
  2  9  1  0  0  0  0
  2 24  1  0  0  0  0
  3  4  1  0  0  0  0
  3 25  1  0  0  0  0
  3 26  1  0  0  0  0
  4  8  1  0  0  0  0
  4  5  1  0  0  0  0
  5  6  2  0  0  0  0
  5 27  1  0  0  0  0
  6  7  1  0  0  0  0
  6 28  1  0  0  0  0
  7  8  2  0  0  0  0
  7 29  1  0  0  0  0
  9 10  1  0  0  0  0
  9 30  1  0  0  0  0
 10 11  2  0  0  0  0
 10 12  1  0  0  0  0
 12 13  1  0  0  0  0
 12 31  1  0  0  0  0
 12 32  1  0  0  0  0
 13 14  1  0  0  0  0
 13 33  1  0  0  0  0
 13 34  1  0  0  0  0
 14 19  1  0  0  0  0
 14 15  1  0  0  0  0
 14 35  1  0  0  0  0
 15 16  1  0  0  0  0
 16 17  2  0  0  0  0
 16 18  1  0  0  0  0
 18 19  1  0  0  0  0
 18 36  1  0  0  0  0
 19 20  2  0  0  0  0
M  CHG  1  15  -1
M  END
> <s_m_source_file>
AV-unprocessed.smi

> <i_m_source_file_index>
1196

> <i_lp_mmshare_version>
43012

> <i_f3d_flags>
0

> <s_epik_input>
bjFbY0hdW2NIXVtjSF1uMVtDSDJdW0NAQEhdKFtDSDNdKVtOSF1DKD1PKVtDSDJdW0NIMl1bQ0BASF0yW05IXUMoPU8pW05IXUMyPU8=

> <s_epik_cmdline>
J2VwaWtfcHl0aG9uJywgJy1waCcsICc3LjAnLCAnLXRuJywgJzgnLCAnLW1hJywgJzIwMCcsICctbWV0YWxfYmluZGluZycsICctaW1hZScsICc8aW5maWxlLm1hZT4nLCAnLW9tYWUnLCAnPG91dGZpbGUubWFlPic=

> <r_lp_tautomer_probability>
1

> <r_epik_Ionization_Penalty>
5.79547

> <r_epik_Ionization_Penalty_Charging>
5.79516

> <r_epik_Ionization_Penalty_Neutral>
0.000313087

> <r_epik_State_Penalty>
5.80096

> <r_epik_Charging_Adjusted_Penalty>
11.5961

> <i_epik_Tot_Q>
-1

> <i_epik_Tot_abs_Q>
1

> <r_epik_Metal_State_Penalty>
2.14443

> <b_epik_Metal_Only>
1

> <s_lp_Force_Field>
OPLS_2005

> <r_lp_Energy>
12.2353

> <b_lp_Chiralities_Consistent>
1

> <s_lp_Variant>
AV-unprocessed.smi:1196-6

> <Gold.Version>
5.8.1

> <Gold.Id.Protein>
6NUR|6NUR_protein|mol2

> <Gold.PLP.Fitness>
44.9544

> <Gold.PLP.PLP>
-27.7094

> <Gold.PLP.part.hbond>
-3.0000

> <Gold.PLP.part.metal>
0.0000

> <Gold.PLP.part.buried>
-1.5468

> <Gold.PLP.part.nonpolar>
-22.9196

> <Gold.PLP.part.repulsive>
0.0991

> <Gold.PLP.ligand.clash>
0.0000

> <Gold.PLP.ligand.torsion>
0.1613

> <Gold.PLP.Chemscore.Hbond>
4.8161

> <Gold.PLP.Chemscore.CHOScore>
1.0000

> <Gold.PLP.Chemscore.Metal>
0.0000

> <Gold.Chemscore.Hbonds>
donor molecule, donor type, donor heavy atom, donor atom, acceptor molecule, acceptor atom, score
      L1  C     5    27       P1  8028  0.98

> <Gold.PLP.Chemscore.Internal.Correction>
0.1195

> <Gold.Rescore>
     Score         DG    S(hbond)    S(metal)    S(lipo)     H(rot)  DE(clash)    DE(int)     intcor
     10.15     -10.87       1.85        0.00      56.66       2.89       0.08       0.65       ----

> <Gold.Chemscore.Fitness>
10.1484

> <Gold.Chemscore.DG>
-10.8728

> <Gold.Chemscore.ZeroCoef>
-5.4800

> <Gold.Chemscore.Hbond>
1.8483

> <Gold.Chemscore.Metal>
0.0000

> <Gold.Chemscore.Lipo>
56.6619

> <Gold.Chemscore.Internal_Hbond>
0.0000

> <Gold.Chemscore.DEClash>
0.0785

> <Gold.Chemscore.DEInternal>
0.6459

> <Gold.Chemscore.Rot>
2.8946

> <Gold.Chemscore.Internal.Correction>
   9.000000E+99

> <Gold.Chemscore.Hbonds>
donor molecule, donor type, donor heavy atom, donor atom, acceptor molecule, acceptor atom, score
      P1  H  6931  6943       L1    15  0.01

> <Gold.Chemscore.Hbond.Weighted>
-6.1734

> <Gold.Chemscore.Metal.Weighted>
-0.0000

> <Gold.Chemscore.Lipo.Weighted>
-6.6294

> <Gold.Chemscore.Internal_Hbond.Weighted>
0.0000

> <Gold.Chemscore.DEClash.Weighted>
0.0785

> <Gold.Chemscore.DEInternal.Weighted>
0.6459

> <Gold.Chemscore.Rot.Weighted>
7.4101

> <Gold.Chemscore.Internal.Correction.Weighted>
   9.000000E+99

> <Gold.Protein.RotatedTorsions>
[ 6907 6896 6895 6894 ] final  146.60 input  -60.11 | X-H torsion
[ 7974 7965 7964 7962 ] final  158.83 input  175.53 | X-H torsion
[ 8008 7997 7996 7995 ] final   53.24 input   59.86 | X-H torsion
[ 10167 10162 10161 10158 ] final -152.15 input  -65.29 | X-H torsion
[ 10718 10713 10712 10709 ] final  129.80 input   66.30 | X-H torsion
[ 10763 10752 10751 10750 ] final -138.44 input  -60.55 | X-H torsion
[ 11005 11000 10999 10996 ] final   67.03 input  -57.11 | X-H torsion

> <Gold.Protein.ActiveResidues>
 VAL166  LYS551  ARG553  GLY616  TRP617  ASP618  TYR619  PRO620  LYS621  CYS622 
 ASP623  PHE694  ASN695  SER759  ASP760  ASP761  ALA762  ILE779  LEU786  VAL792 
 PHE793  MET794  SER795  GLU796  ALA797  LYS798  CYS799  TRP800  GLU811  SER814 

> <Gold.Protein.RotatedAtoms>
  152.1658  133.4611  159.4883 H   0  0  0  0  0  0  0  0  0  0  0  0  # atno 6907 bound_to 6896
  150.6913  134.2015  159.4333 H   0  0  0  0  0  0  0  0  0  0  0  0  # atno 6908 bound_to 6896
  151.9920  134.9974  160.0612 H   0  0  0  0  0  0  0  0  0  0  0  0  # atno 6909 bound_to 6896
  144.7824  139.7533  143.6254 H   0  0  0  0  0  0  0  0  0  0  0  0  # atno 7974 bound_to 7965
  155.4651  140.3463  155.4318 H   0  0  0  0  0  0  0  0  0  0  0  0  # atno 8008 bound_to 7997
  156.1136  140.1467  156.9333 H   0  0  0  0  0  0  0  0  0  0  0  0  # atno 8009 bound_to 7997
  154.4773  140.0881  156.7273 H   0  0  0  0  0  0  0  0  0  0  0  0  # atno 8010 bound_to 7997
  139.7206  143.8963  152.2502 H   0  0  0  0  0  0  0  0  0  0  0  0  # atno 10167 bound_to 10162
  157.5121  131.1097  150.9277 H   0  0  0  0  0  0  0  0  0  0  0  0  # atno 10718 bound_to 10713
  154.8636  135.3612  154.5386 H   0  0  0  0  0  0  0  0  0  0  0  0  # atno 10763 bound_to 10752
  153.6008  135.7012  153.5390 H   0  0  0  0  0  0  0  0  0  0  0  0  # atno 10764 bound_to 10752
  153.3292  135.4129  155.1443 H   0  0  0  0  0  0  0  0  0  0  0  0  # atno 10765 bound_to 10752
  139.9796  134.6766  156.0288 H   0  0  0  0  0  0  0  0  0  0  0  0  # atno 11005 bound_to 11000
  146.2038  139.5350  142.9726 LP  0  0  0  0  0  0  0  0  0  0  0  0  # atno 17320 bound_to 7965
  145.6015  141.0354  143.2016 LP  0  0  0  0  0  0  0  0  0  0  0  0  # atno 17321 bound_to 7965
  139.8858  144.6993  150.8826 LP  0  0  0  0  0  0  0  0  0  0  0  0  # atno 17342 bound_to 10162
  140.7753  143.3625  151.1801 LP  0  0  0  0  0  0  0  0  0  0  0  0  # atno 17343 bound_to 10162
  156.9914  130.5565  149.5303 LP  0  0  0  0  0  0  0  0  0  0  0  0  # atno 17370 bound_to 10713
  156.0296  130.5388  150.8499 LP  0  0  0  0  0  0  0  0  0  0  0  0  # atno 17371 bound_to 10713
  141.1469  133.6554  156.3895 LP  0  0  0  0  0  0  0  0  0  0  0  0  # atno 17394 bound_to 11000
  140.5124  134.6382  157.5289 LP  0  0  0  0  0  0  0  0  0  0  0  0  # atno 17395 bound_to 11000

$$$$
