AV-unprocessed.smi:1626|AV-procd|sdf|6506|dock2
  -GOLD-   22720 7173D 1   1.00000     0.00000
 Structure written by MMmdl.
 48 50  0  0  0  0  0  0  0  0  2 V2000
  153.4319  142.3613  161.6975 C   0  0  0  0  0  0  0  0  0  0  0  0
  152.8099  142.1584  160.3270 C   0  0  0  0  0  0  0  0  0  0  0  0
  153.1071  140.9803  159.6054 C   0  0  0  0  0  0  0  0  0  0  0  0
  152.5473  140.7519  158.3294 C   0  0  0  0  0  0  0  0  0  0  0  0
  152.6982  139.6857  157.4597 N   0  0  0  0  0  0  0  0  0  0  0  0
  151.9268  140.0574  156.4426 C   0  0  0  0  0  0  0  0  0  0  0  0
  151.3048  141.2483  156.5435 N   0  0  0  0  0  0  0  0  0  0  0  0
  150.4298  141.8647  155.5617 C   0  0  0  0  0  0  0  0  0  0  0  0
  149.4377  140.8621  154.9385 C   0  0  2  0  0  0  0  0  0  0  0  0
  150.1401  140.1124  153.9679 O   0  0  0  0  0  0  0  0  0  0  0  0
  148.2175  141.5368  154.2710 C   0  0  0  0  0  0  0  0  0  0  0  0
  147.3762  142.2795  155.2434 N   0  3  2  0  0  0  0  0  0  0  0  0
  147.2403  141.5604  156.5369 C   0  0  0  0  0  0  0  0  0  0  0  0
  146.4847  142.4136  157.5698 C   0  0  0  0  0  0  0  0  0  0  0  0
  145.1085  142.8322  157.0324 C   0  0  1  0  0  0  0  0  0  0  0  0
  144.4803  143.6945  157.9565 O   0  0  0  0  0  0  0  0  0  0  0  0
  145.2712  143.5461  155.6825 C   0  0  0  0  0  0  0  0  0  0  0  0
  146.0488  142.6649  154.6909 C   0  0  0  0  0  0  0  0  0  0  0  0
  151.6771  141.7435  157.7891 C   0  0  0  0  0  0  0  0  0  0  0  0
  151.3718  142.9184  158.4987 C   0  0  0  0  0  0  0  0  0  0  0  0
  151.9402  143.1312  159.7719 C   0  0  0  0  0  0  0  0  0  0  0  0
  151.6050  144.4038  160.5293 C   0  0  0  0  0  0  0  0  0  0  0  0
  154.0176  141.4933  162.0013 H   0  0  0  0  0  0  0  0  0  0  0  0
  152.6593  142.5212  162.4499 H   0  0  0  0  0  0  0  0  0  0  0  0
  154.0942  143.2273  161.6905 H   0  0  0  0  0  0  0  0  0  0  0  0
  153.7685  140.2384  160.0286 H   0  0  0  0  0  0  0  0  0  0  0  0
  151.8158  139.4318  155.5688 H   0  0  0  0  0  0  0  0  0  0  0  0
  149.8898  142.6825  156.0422 H   0  0  0  0  0  0  0  0  0  0  0  0
  151.0535  142.3134  154.7873 H   0  0  0  0  0  0  0  0  0  0  0  0
  149.1159  140.1718  155.7163 H   0  0  0  0  0  0  0  0  0  0  0  0
  149.6477  140.1126  153.1615 H   0  0  0  0  0  0  0  0  0  0  0  0
  148.5244  142.2319  153.4887 H   0  0  0  0  0  0  0  0  0  0  0  0
  147.6290  140.7668  153.7691 H   0  0  0  0  0  0  0  0  0  0  0  0
  146.7220  140.6136  156.3767 H   0  0  0  0  0  0  0  0  0  0  0  0
  148.2286  141.3194  156.9300 H   0  0  0  0  0  0  0  0  0  0  0  0
  146.3713  141.8553  158.4999 H   0  0  0  0  0  0  0  0  0  0  0  0
  147.0758  143.2988  157.8097 H   0  0  0  0  0  0  0  0  0  0  0  0
  144.4801  141.9492  156.9080 H   0  0  0  0  0  0  0  0  0  0  0  0
  144.7185  143.4271  158.8314 H   0  0  0  0  0  0  0  0  0  0  0  0
  144.2936  143.7962  155.2683 H   0  0  0  0  0  0  0  0  0  0  0  0
  145.8007  144.4902  155.8210 H   0  0  0  0  0  0  0  0  0  0  0  0
  146.1660  143.2061  153.7527 H   0  0  0  0  0  0  0  0  0  0  0  0
  145.4738  141.7662  154.4619 H   0  0  0  0  0  0  0  0  0  0  0  0
  150.7035  143.6496  158.0691 H   0  0  0  0  0  0  0  0  0  0  0  0
  150.9726  145.0653  159.9365 H   0  0  0  0  0  0  0  0  0  0  0  0
  152.5135  144.9505  160.7830 H   0  0  0  0  0  0  0  0  0  0  0  0
  151.0725  144.1691  161.4511 H   0  0  0  0  0  0  0  0  0  0  0  0
  147.8708  143.1349  155.4522 H   0  0  0  0  0  0  0  0  0  0  0  0
  1  2  1  0  0  0  0
  1 23  1  0  0  0  0
  1 24  1  0  0  0  0
  1 25  1  0  0  0  0
  2 21  1  0  0  0  0
  2  3  2  0  0  0  0
  3  4  1  0  0  0  0
  3 26  1  0  0  0  0
  4 19  2  0  0  0  0
  4  5  1  0  0  0  0
  5  6  2  0  0  0  0
  6  7  1  0  0  0  0
  6 27  1  0  0  0  0
  7  8  1  0  0  0  0
  7 19  1  0  0  0  0
  8  9  1  0  0  0  0
  8 28  1  0  0  0  0
  8 29  1  0  0  0  0
  9 10  1  0  0  0  0
  9 11  1  0  0  0  0
  9 30  1  0  0  0  0
 10 31  1  0  0  0  0
 11 12  1  0  0  0  0
 11 32  1  0  0  0  0
 11 33  1  0  0  0  0
 12 18  1  0  0  0  0
 12 13  1  0  0  0  0
 12 48  1  0  0  0  0
 13 14  1  0  0  0  0
 13 34  1  0  0  0  0
 13 35  1  0  0  0  0
 14 15  1  0  0  0  0
 14 36  1  0  0  0  0
 14 37  1  0  0  0  0
 15 16  1  0  0  0  0
 15 17  1  0  0  0  0
 15 38  1  0  0  0  0
 16 39  1  0  0  0  0
 17 18  1  0  0  0  0
 17 40  1  0  0  0  0
 17 41  1  0  0  0  0
 18 42  1  0  0  0  0
 18 43  1  0  0  0  0
 19 20  1  0  0  0  0
 20 21  2  0  0  0  0
 20 44  1  0  0  0  0
 21 22  1  0  0  0  0
 22 45  1  0  0  0  0
 22 46  1  0  0  0  0
 22 47  1  0  0  0  0
M  CHG  1  12   1
M  END
> <s_m_source_file>
AV-unprocessed.smi

> <i_m_source_file_index>
1626

> <i_lp_mmshare_version>
43012

> <i_f3d_flags>
0

> <s_epik_input>
W0NIM11jKFtjSF0xKWMoW0NIM10pW2NIXWMoYzEyKW4oW2NIXW4yKVtDSDJdW0NASF0oW09IXSlbQ0gyXU4zW0NIMl1bQ0gyXVtDSF0oW09IXSlbQ0gyXVtDSDJdMw==

> <s_epik_cmdline>
J2VwaWtfcHl0aG9uJywgJy1waCcsICc3LjAnLCAnLXRuJywgJzgnLCAnLW1hJywgJzIwMCcsICctbWV0YWxfYmluZGluZycsICctaW1hZScsICc8aW5maWxlLm1hZT4nLCAnLW9tYWUnLCAnPG91dGZpbGUubWFlPic=

> <r_epik_Ionization_Penalty>
0.106584

> <r_epik_Ionization_Penalty_Charging>
0.0185694

> <r_epik_Ionization_Penalty_Neutral>
0.0880147

> <r_epik_State_Penalty>
0.0908428

> <r_epik_Charging_Adjusted_Penalty>
0.109412

> <i_epik_Tot_Q>
1

> <i_epik_Tot_abs_Q>
1

> <r_epik_Metal_State_Penalty>
0.0153739

> <b_epik_Metal_Only>
0

> <s_lp_Force_Field>
OPLS_2005

> <r_lp_Energy>
21.7695

> <b_lp_Chiralities_Consistent>
1

> <s_lp_Variant>
AV-unprocessed.smi:1626-1

> <Gold.Version>
5.8.1

> <Gold.Id.Protein>
6NUR|6NUR_protein|mol2

> <Gold.PLP.Fitness>
60.8281

> <Gold.PLP.PLP>
-47.1176

> <Gold.PLP.part.hbond>
-4.0000

> <Gold.PLP.part.metal>
0.0000

> <Gold.PLP.part.buried>
-6.6712

> <Gold.PLP.part.nonpolar>
-35.7321

> <Gold.PLP.part.repulsive>
0.0889

> <Gold.PLP.ligand.clash>
0.0000

> <Gold.PLP.ligand.torsion>
0.5382

> <Gold.PLP.Chemscore.Hbond>
4.9192

> <Gold.PLP.Chemscore.CHOScore>
0.0000

> <Gold.PLP.Chemscore.Metal>
0.0000

> <Gold.Chemscore.Hbonds>
donor molecule, donor type, donor heavy atom, donor atom, acceptor molecule, acceptor atom, score
      L1  H    10    31       P1  7957  0.99
      L1  H    12    48       P1  8028  2.00
      P1  H  7989  7998       L1    10  0.90
      P1  H  7997  8010       L1     5  0.95

> <Gold.PLP.Chemscore.Internal.Correction>
0.0292

> <Gold.Rescore>
     Score         DG    S(hbond)    S(metal)    S(lipo)     H(rot)  DE(clash)    DE(int)     intcor
     18.34     -19.24       2.11        0.00     115.69       2.67       0.39       0.52       ----

> <Gold.Chemscore.Fitness>
18.3366

> <Gold.Chemscore.DG>
-19.2394

> <Gold.Chemscore.ZeroCoef>
-5.4800

> <Gold.Chemscore.Hbond>
2.1143

> <Gold.Chemscore.Metal>
0.0000

> <Gold.Chemscore.Lipo>
115.6929

> <Gold.Chemscore.Internal_Hbond>
0.0000

> <Gold.Chemscore.DEClash>
0.3863

> <Gold.Chemscore.DEInternal>
0.5164

> <Gold.Chemscore.Rot>
2.6712

> <Gold.Chemscore.Internal.Correction>
   9.000000E+99

> <Gold.Chemscore.Hbonds>
donor molecule, donor type, donor heavy atom, donor atom, acceptor molecule, acceptor atom, score
      L1  H    10    31       P1  7957  0.90
      L1  H    12    48       P1  8028  0.60
      P1  H  7989  7998       L1    10  0.23
      P1  H  7997  8010       L1     5  0.10

> <Gold.Chemscore.Hbond.Weighted>
-7.0616

> <Gold.Chemscore.Metal.Weighted>
-0.0000

> <Gold.Chemscore.Lipo.Weighted>
-13.5361

> <Gold.Chemscore.Internal_Hbond.Weighted>
0.0000

> <Gold.Chemscore.DEClash.Weighted>
0.3863

> <Gold.Chemscore.DEInternal.Weighted>
0.5164

> <Gold.Chemscore.Rot.Weighted>
6.8383

> <Gold.Chemscore.Internal.Correction.Weighted>
   9.000000E+99

> <Gold.Protein.RotatedTorsions>
[ 6907 6896 6895 6894 ] final  -39.09 input  -60.11 | X-H torsion
[ 7974 7965 7964 7962 ] final   37.65 input  175.53 | X-H torsion
[ 8008 7997 7996 7995 ] final   46.30 input   59.86 | X-H torsion
[ 10167 10162 10161 10158 ] final   18.46 input  -65.29 | X-H torsion
[ 10718 10713 10712 10709 ] final -170.23 input   66.30 | X-H torsion
[ 10763 10752 10751 10750 ] final   55.29 input  -60.55 | X-H torsion
[ 11005 11000 10999 10996 ] final  150.49 input  -57.11 | X-H torsion

> <Gold.Protein.ActiveResidues>
 VAL166  LYS551  ARG553  GLY616  TRP617  ASP618  TYR619  PRO620  LYS621  CYS622 
 ASP623  PHE694  ASN695  SER759  ASP760  ASP761  ALA762  ILE779  LEU786  VAL792 
 PHE793  MET794  SER795  GLU796  ALA797  LYS798  CYS799  TRP800  GLU811  SER814 

> <Gold.Protein.RotatedAtoms>
  150.9946  134.9273  159.7918 H   0  0  0  0  0  0  0  0  0  0  0  0  # atno 6907 bound_to 6896
  152.5261  134.3236  159.9167 H   0  0  0  0  0  0  0  0  0  0  0  0  # atno 6908 bound_to 6896
  151.3242  133.3986  159.2691 H   0  0  0  0  0  0  0  0  0  0  0  0  # atno 6909 bound_to 6896
  146.1122  139.5868  142.9345 H   0  0  0  0  0  0  0  0  0  0  0  0  # atno 7974 bound_to 7965
  155.3502  140.3413  155.4239 H   0  0  0  0  0  0  0  0  0  0  0  0  # atno 8008 bound_to 7997
  156.1768  140.1650  156.8384 H   0  0  0  0  0  0  0  0  0  0  0  0  # atno 8009 bound_to 7997
  154.5290  140.0749  156.8294 H   0  0  0  0  0  0  0  0  0  0  0  0  # atno 8010 bound_to 7997
  140.5652  143.9264  150.6671 H   0  0  0  0  0  0  0  0  0  0  0  0  # atno 10167 bound_to 10162
  156.7231  130.9278  151.3099 H   0  0  0  0  0  0  0  0  0  0  0  0  # atno 10718 bound_to 10713
  152.9815  135.5715  154.5043 H   0  0  0  0  0  0  0  0  0  0  0  0  # atno 10763 bound_to 10752
  154.4557  135.2780  155.1751 H   0  0  0  0  0  0  0  0  0  0  0  0  # atno 10764 bound_to 10752
  154.3360  135.6239  153.5627 H   0  0  0  0  0  0  0  0  0  0  0  0  # atno 10765 bound_to 10752
  140.1136  134.8908  157.1972 H   0  0  0  0  0  0  0  0  0  0  0  0  # atno 11005 bound_to 11000
  145.5641  141.0401  143.2210 LP  0  0  0  0  0  0  0  0  0  0  0  0  # atno 17320 bound_to 7965
  144.7521  139.7167  143.7269 LP  0  0  0  0  0  0  0  0  0  0  0  0  # atno 17321 bound_to 7965
  140.2725  143.3446  152.1225 LP  0  0  0  0  0  0  0  0  0  0  0  0  # atno 17342 bound_to 10162
  139.5089  144.6858  151.5890 LP  0  0  0  0  0  0  0  0  0  0  0  0  # atno 17343 bound_to 10162
  157.6889  130.9214  150.0461 LP  0  0  0  0  0  0  0  0  0  0  0  0  # atno 17370 bound_to 10713
  156.1580  130.3643  149.9340 LP  0  0  0  0  0  0  0  0  0  0  0  0  # atno 17371 bound_to 10713
  140.3058  134.3080  155.7278 LP  0  0  0  0  0  0  0  0  0  0  0  0  # atno 17394 bound_to 11000
  141.2136  133.7620  156.9706 LP  0  0  0  0  0  0  0  0  0  0  0  0  # atno 17395 bound_to 11000

$$$$
