AV-unprocessed.smi:3220|AV-procd|sdf|12297|dock3
  -GOLD-   2272018143D 1   1.00000     0.00000
 Structure written by MMmdl.
 33 34  0  0  0  0  0  0  0  0  1 V2000
  154.3364  140.3798  161.4421 C   0  0  0  0  0  0  0  0  0  0  0  0
  153.6736  141.4173  160.5240 C   0  0  2  0  0  0  0  0  0  0  0  0
  152.9634  142.5211  161.3320 C   0  0  0  0  0  0  0  0  0  0  0  0
  152.4487  143.5849  160.4868 N   0  0  0  0  0  0  0  0  0  0  0  0
  151.6946  144.6802  160.8523 C   0  0  0  0  0  0  0  0  0  0  0  0
  151.4378  145.3941  159.7172 C   0  0  0  0  0  0  0  0  0  0  0  0
  152.0903  144.6493  158.6953 C   0  0  0  0  0  0  0  0  0  0  0  0
  152.6975  143.5691  159.1595 N   0  0  0  0  0  0  0  0  0  0  0  0
  152.7165  140.7564  159.6397 N   0  0  0  0  0  0  0  0  0  0  0  0
  153.0118  139.8313  158.7125 C   0  0  0  0  0  0  0  0  0  0  0  0
  154.1459  139.3796  158.5523 O   0  0  0  0  0  0  0  0  0  0  0  0
  151.8476  139.3241  157.8418 C   0  0  2  0  0  0  0  0  0  0  0  0
  152.0594  139.5507  156.3297 C   0  0  0  0  0  0  0  0  0  0  0  0
  150.9116  140.4577  155.9167 C   0  0  0  0  0  0  0  0  0  0  0  0
  150.4974  141.1033  157.2302 C   0  0  0  0  0  0  0  0  0  0  0  0
  150.6492  140.0378  158.1551 O   0  0  0  0  0  0  0  0  0  0  0  0
  155.0656  140.8502  162.1020 H   0  0  0  0  0  0  0  0  0  0  0  0
  154.8612  139.6197  160.8626 H   0  0  0  0  0  0  0  0  0  0  0  0
  153.5996  139.8737  162.0667 H   0  0  0  0  0  0  0  0  0  0  0  0
  154.4576  141.8883  159.9279 H   0  0  0  0  0  0  0  0  0  0  0  0
  152.1363  142.1021  161.9073 H   0  0  0  0  0  0  0  0  0  0  0  0
  153.6520  142.9639  162.0531 H   0  0  0  0  0  0  0  0  0  0  0  0
  151.4010  144.8545  161.8770 H   0  0  0  0  0  0  0  0  0  0  0  0
  150.8701  146.3084  159.6298 H   0  0  0  0  0  0  0  0  0  0  0  0
  152.1407  144.8596  157.6372 H   0  0  0  0  0  0  0  0  0  0  0  0
  151.7541  141.0551  159.7073 H   0  0  0  0  0  0  0  0  0  0  0  0
  151.6924  138.2668  158.0587 H   0  0  0  0  0  0  0  0  0  0  0  0
  153.0101  140.0397  156.1124 H   0  0  0  0  0  0  0  0  0  0  0  0
  152.0430  138.6136  155.7728 H   0  0  0  0  0  0  0  0  0  0  0  0
  151.1935  141.1858  155.1555 H   0  0  0  0  0  0  0  0  0  0  0  0
  150.0884  139.8586  155.5255 H   0  0  0  0  0  0  0  0  0  0  0  0
  151.1674  141.9237  157.4915 H   0  0  0  0  0  0  0  0  0  0  0  0
  149.4752  141.4815  157.2134 H   0  0  0  0  0  0  0  0  0  0  0  0
  1  2  1  0  0  0  0
  1 17  1  0  0  0  0
  1 18  1  0  0  0  0
  1 19  1  0  0  0  0
  2  3  1  0  0  0  0
  2  9  1  0  0  0  0
  2 20  1  0  0  0  0
  3  4  1  0  0  0  0
  3 21  1  0  0  0  0
  3 22  1  0  0  0  0
  4  8  1  0  0  0  0
  4  5  1  0  0  0  0
  5  6  2  0  0  0  0
  5 23  1  0  0  0  0
  6  7  1  0  0  0  0
  6 24  1  0  0  0  0
  7  8  2  0  0  0  0
  7 25  1  0  0  0  0
  9 10  1  0  0  0  0
  9 26  1  0  0  0  0
 10 11  2  0  0  0  0
 10 12  1  0  0  0  0
 12 16  1  0  0  0  0
 12 13  1  0  0  0  0
 12 27  1  0  0  0  0
 13 14  1  0  0  0  0
 13 28  1  0  0  0  0
 13 29  1  0  0  0  0
 14 15  1  0  0  0  0
 14 30  1  0  0  0  0
 14 31  1  0  0  0  0
 15 16  1  0  0  0  0
 15 32  1  0  0  0  0
 15 33  1  0  0  0  0
M  END
> <s_m_source_file>
AV-unprocessed.smi

> <i_m_source_file_index>
3220

> <i_lp_mmshare_version>
43012

> <i_f3d_flags>
0

> <s_epik_input>
bjFbY0hdW2NIXVtjSF1uMVtDSDJdW0NAQEhdKFtDSDNdKVtOSF1DKD1PKVtDQEBIXTJbQ0gyXVtDSDJdW0NIMl1PMg==

> <s_epik_cmdline>
J2VwaWtfcHl0aG9uJywgJy1waCcsICc3LjAnLCAnLXRuJywgJzgnLCAnLW1hJywgJzIwMCcsICctbWV0YWxfYmluZGluZycsICctaW1hZScsICc8aW5maWxlLm1hZT4nLCAnLW9tYWUnLCAnPG91dGZpbGUubWFlPic=

> <r_lp_tautomer_probability>
1

> <r_epik_Ionization_Penalty>
0.00033363

> <r_epik_Ionization_Penalty_Charging>
0

> <r_epik_Ionization_Penalty_Neutral>
0.00033363

> <r_epik_State_Penalty>
-0

> <r_epik_Charging_Adjusted_Penalty>
0

> <i_epik_Tot_Q>
0

> <i_epik_Tot_abs_Q>
0

> <r_epik_Metal_State_Penalty>
-0

> <b_epik_Metal_Only>
0

> <s_lp_Force_Field>
OPLS_2005

> <r_lp_Energy>
17.2779

> <b_lp_Chiralities_Consistent>
1

> <s_lp_Variant>
AV-unprocessed.smi:3220-1

> <Gold.Version>
5.8.1

> <Gold.Id.Protein>
6NUR|6NUR_protein|mol2

> <Gold.PLP.Fitness>
43.1419

> <Gold.PLP.PLP>
-40.2513

> <Gold.PLP.part.hbond>
-1.0000

> <Gold.PLP.part.metal>
0.0000

> <Gold.PLP.part.buried>
-3.4840

> <Gold.PLP.part.nonpolar>
-36.0119

> <Gold.PLP.part.repulsive>
0.1243

> <Gold.PLP.ligand.clash>
0.0000

> <Gold.PLP.ligand.torsion>
0.0680

> <Gold.PLP.Chemscore.Hbond>
1.0000

> <Gold.PLP.Chemscore.CHOScore>
0.0000

> <Gold.PLP.Chemscore.Metal>
0.0000

> <Gold.Chemscore.Hbonds>
donor molecule, donor type, donor heavy atom, donor atom, acceptor molecule, acceptor atom, score
      P1  H  7997  8010       L1    11  1.00

> <Gold.PLP.Chemscore.Internal.Correction>
0.0266

> <Gold.Rescore>
     Score         DG    S(hbond)    S(metal)    S(lipo)     H(rot)  DE(clash)    DE(int)     intcor
     15.02     -15.62       0.94        0.00      95.27       1.62       0.46       0.14       ----

> <Gold.Chemscore.Fitness>
15.0206

> <Gold.Chemscore.DG>
-15.6249

> <Gold.Chemscore.ZeroCoef>
-5.4800

> <Gold.Chemscore.Hbond>
0.9433

> <Gold.Chemscore.Metal>
0.0000

> <Gold.Chemscore.Lipo>
95.2660

> <Gold.Chemscore.Internal_Hbond>
0.0000

> <Gold.Chemscore.DEClash>
0.4633

> <Gold.Chemscore.DEInternal>
0.1409

> <Gold.Chemscore.Rot>
1.6219

> <Gold.Chemscore.Internal.Correction>
   9.000000E+99

> <Gold.Chemscore.Hbonds>
donor molecule, donor type, donor heavy atom, donor atom, acceptor molecule, acceptor atom, score
      P1  H  7997  8010       L1    11  0.95

> <Gold.Chemscore.Hbond.Weighted>
-3.1507

> <Gold.Chemscore.Metal.Weighted>
-0.0000

> <Gold.Chemscore.Lipo.Weighted>
-11.1461

> <Gold.Chemscore.Internal_Hbond.Weighted>
0.0000

> <Gold.Chemscore.DEClash.Weighted>
0.4633

> <Gold.Chemscore.DEInternal.Weighted>
0.1409

> <Gold.Chemscore.Rot.Weighted>
4.1520

> <Gold.Chemscore.Internal.Correction.Weighted>
   9.000000E+99

> <Gold.Protein.RotatedTorsions>
[ 6907 6896 6895 6894 ] final  154.50 input  -60.11 | X-H torsion
[ 7974 7965 7964 7962 ] final -142.54 input  175.53 | X-H torsion
[ 8008 7997 7996 7995 ] final    1.91 input   59.86 | X-H torsion
[ 10167 10162 10161 10158 ] final  107.72 input  -65.29 | X-H torsion
[ 10718 10713 10712 10709 ] final  -15.15 input   66.30 | X-H torsion
[ 10763 10752 10751 10750 ] final  -55.17 input  -60.55 | X-H torsion
[ 11005 11000 10999 10996 ] final   10.67 input  -57.11 | X-H torsion

> <Gold.Protein.ActiveResidues>
 VAL166  LYS551  ARG553  GLY616  TRP617  ASP618  TYR619  PRO620  LYS621  CYS622 
 ASP623  PHE694  ASN695  SER759  ASP760  ASP761  ALA762  ILE779  LEU786  VAL792 
 PHE793  MET794  SER795  GLU796  ALA797  LYS798  CYS799  TRP800  GLU811  SER814 

> <Gold.Protein.RotatedAtoms>
  152.0575  133.4047  159.4403 H   0  0  0  0  0  0  0  0  0  0  0  0  # atno 6907 bound_to 6896
  150.6867  134.3237  159.4807 H   0  0  0  0  0  0  0  0  0  0  0  0  # atno 6908 bound_to 6896
  152.1055  134.9311  160.0619 H   0  0  0  0  0  0  0  0  0  0  0  0  # atno 6909 bound_to 6896
  144.8436  140.5946  143.5436 H   0  0  0  0  0  0  0  0  0  0  0  0  # atno 7974 bound_to 7965
  154.6853  140.2641  155.6866 H   0  0  0  0  0  0  0  0  0  0  0  0  # atno 8008 bound_to 7997
  156.2712  140.2802  156.1335 H   0  0  0  0  0  0  0  0  0  0  0  0  # atno 8009 bound_to 7997
  155.0973  140.0374  157.2676 H   0  0  0  0  0  0  0  0  0  0  0  0  # atno 8010 bound_to 7997
  139.6904  144.7108  151.1358 H   0  0  0  0  0  0  0  0  0  0  0  0  # atno 10167 bound_to 10162
  156.6058  130.4836  149.6221 H   0  0  0  0  0  0  0  0  0  0  0  0  # atno 10718 bound_to 10713
  154.1865  135.6434  153.5048 H   0  0  0  0  0  0  0  0  0  0  0  0  # atno 10763 bound_to 10752
  153.0046  135.5418  154.6460 H   0  0  0  0  0  0  0  0  0  0  0  0  # atno 10764 bound_to 10752
  154.5837  135.2927  155.0679 H   0  0  0  0  0  0  0  0  0  0  0  0  # atno 10765 bound_to 10752
  140.5118  134.0645  155.7820 H   0  0  0  0  0  0  0  0  0  0  0  0  # atno 11005 bound_to 11000
  145.4643  139.1509  143.3849 LP  0  0  0  0  0  0  0  0  0  0  0  0  # atno 17320 bound_to 7965
  146.2724  140.4774  142.8809 LP  0  0  0  0  0  0  0  0  0  0  0  0  # atno 17321 bound_to 7965
  140.7681  143.5567  150.9144 LP  0  0  0  0  0  0  0  0  0  0  0  0  # atno 17342 bound_to 10162
  139.9244  143.6567  152.3090 LP  0  0  0  0  0  0  0  0  0  0  0  0  # atno 17343 bound_to 10162
  156.2431  130.6863  151.1574 LP  0  0  0  0  0  0  0  0  0  0  0  0  # atno 17370 bound_to 10713
  157.7267  131.0644  150.5896 LP  0  0  0  0  0  0  0  0  0  0  0  0  # atno 17371 bound_to 10713
  141.1381  133.9186  157.2387 LP  0  0  0  0  0  0  0  0  0  0  0  0  # atno 17394 bound_to 11000
  139.9654  135.0143  156.9374 LP  0  0  0  0  0  0  0  0  0  0  0  0  # atno 17395 bound_to 11000

$$$$
