AV-unprocessed.smi:2768|AV-procd|sdf|10652|dock10
  -GOLD-   2272015103D 1   1.00000     0.00000
 Structure written by MMmdl.
 34 35  0  0  0  0  0  0  0  0  2 V2000
  151.2669  140.1604  155.1371 O   0  0  0  0  0  0  0  0  0  0  0  0
  150.6262  140.4670  156.1493 C   0  0  0  0  0  0  0  0  0  0  0  0
  149.3328  140.8840  156.2691 N   0  5  0  0  0  0  0  0  0  0  0  0
  148.2610  140.5411  155.3319 C   0  0  2  0  0  0  0  0  0  0  0  0
  148.7270  139.3748  154.4248 C   0  0  0  0  0  0  0  0  0  0  0  0
  147.7228  139.0302  153.2964 C   0  0  0  0  0  0  0  0  0  0  0  0
  147.3865  140.2485  152.4123 C   0  0  0  0  0  0  0  0  0  0  0  0
  146.9027  141.4121  153.3020 C   0  0  0  0  0  0  0  0  0  0  0  0
  147.9063  141.7604  154.4340 C   0  0  1  0  0  0  0  0  0  0  0  0
  147.3388  142.7897  155.2211 O   0  0  0  0  0  0  0  0  0  0  0  0
  151.3471  140.4028  157.5133 C   0  0  0  0  0  0  0  0  0  0  0  0
  150.6304  139.6873  158.3875 F   0  0  0  0  0  0  0  0  0  0  0  0
  152.5123  139.7715  157.3478 F   0  0  0  0  0  0  0  0  0  0  0  0
  151.6120  141.8090  158.0480 C   0  0  0  0  0  0  0  0  0  0  0  0
  152.3407  141.9996  159.2445 C   0  0  0  0  0  0  0  0  0  0  0  0
  152.5707  143.3136  159.6947 C   0  0  0  0  0  0  0  0  0  0  0  0
  152.0673  144.3883  158.9379 C   0  0  0  0  0  0  0  0  0  0  0  0
  151.3544  144.0986  157.7579 C   0  0  0  0  0  0  0  0  0  0  0  0
  151.1275  142.8429  157.3184 N   0  0  0  0  0  0  0  0  0  0  0  0
  147.3496  140.2190  155.8394 H   0  0  0  0  0  0  0  0  0  0  0  0
  148.8164  142.1536  153.9777 H   0  0  0  0  0  0  0  0  0  0  0  0
  149.6868  139.6271  153.9707 H   0  0  0  0  0  0  0  0  0  0  0  0
  148.9043  138.4865  155.0324 H   0  0  0  0  0  0  0  0  0  0  0  0
  148.1364  138.2358  152.6743 H   0  0  0  0  0  0  0  0  0  0  0  0
  146.8028  138.6251  153.7227 H   0  0  0  0  0  0  0  0  0  0  0  0
  148.2729  140.5551  151.8555 H   0  0  0  0  0  0  0  0  0  0  0  0
  146.6244  139.9881  151.6774 H   0  0  0  0  0  0  0  0  0  0  0  0
  146.7357  142.2918  152.6793 H   0  0  0  0  0  0  0  0  0  0  0  0
  145.9279  141.1571  153.7237 H   0  0  0  0  0  0  0  0  0  0  0  0
  148.0247  143.4007  155.4420 H   0  0  0  0  0  0  0  0  0  0  0  0
  152.7225  141.1565  159.8011 H   0  0  0  0  0  0  0  0  0  0  0  0
  153.1253  143.4932  160.6037 H   0  0  0  0  0  0  0  0  0  0  0  0
  152.2253  145.4092  159.2521 H   0  0  0  0  0  0  0  0  0  0  0  0
  150.9536  144.8975  157.1516 H   0  0  0  0  0  0  0  0  0  0  0  0
  1  2  2  0  0  0  0
  2  3  1  0  0  0  0
  2 11  1  0  0  0  0
  3  4  1  0  0  0  0
  4 20  1  0  0  0  0
  4  9  1  0  0  0  0
  4  5  1  0  0  0  0
  5  6  1  0  0  0  0
  5 22  1  0  0  0  0
  5 23  1  0  0  0  0
  6  7  1  0  0  0  0
  6 24  1  0  0  0  0
  6 25  1  0  0  0  0
  7  8  1  0  0  0  0
  7 26  1  0  0  0  0
  7 27  1  0  0  0  0
  8  9  1  0  0  0  0
  8 28  1  0  0  0  0
  8 29  1  0  0  0  0
  9 21  1  0  0  0  0
  9 10  1  0  0  0  0
 10 30  1  0  0  0  0
 11 12  1  0  0  0  0
 11 13  1  0  0  0  0
 11 14  1  0  0  0  0
 14 19  1  0  0  0  0
 14 15  2  0  0  0  0
 15 16  1  0  0  0  0
 15 31  1  0  0  0  0
 16 17  2  0  0  0  0
 16 32  1  0  0  0  0
 17 18  1  0  0  0  0
 17 33  1  0  0  0  0
 18 19  2  0  0  0  0
 18 34  1  0  0  0  0
M  CHG  1   3  -1
M  END
> <s_m_source_file>
AV-unprocessed.smi

> <i_m_source_file_index>
2768

> <i_lp_mmshare_version>
43012

> <i_f3d_flags>
0

> <s_epik_input>
bjFbY0hdW2NIXVtjSF1bY0hdYzFDKEYpKEYpQyg9TylbTkhdW0NAQEhdMltDSDJdW0NIMl1bQ0gyXVtDSDJdW0NASF0yW09IXQ==

> <s_epik_cmdline>
J2VwaWtfcHl0aG9uJywgJy1waCcsICc3LjAnLCAnLXRuJywgJzgnLCAnLW1hJywgJzIwMCcsICctbWV0YWxfYmluZGluZycsICctaW1hZScsICc8aW5maWxlLm1hZT4nLCAnLW9tYWUnLCAnPG91dGZpbGUubWFlPic=

> <r_lp_tautomer_probability>
1

> <r_epik_Ionization_Penalty>
5.70553

> <r_epik_Ionization_Penalty_Charging>
5.70553

> <r_epik_Ionization_Penalty_Neutral>
5.5493e-06

> <r_epik_State_Penalty>
5.70549

> <r_epik_Charging_Adjusted_Penalty>
11.411

> <i_epik_Tot_Q>
-1

> <i_epik_Tot_abs_Q>
1

> <r_epik_Metal_State_Penalty>
1.6859

> <b_epik_Metal_Only>
1

> <s_lp_Force_Field>
OPLS_2005

> <r_lp_Energy>
26.6713

> <b_lp_Chiralities_Consistent>
1

> <s_lp_Variant>
AV-unprocessed.smi:2768-5

> <Gold.Version>
5.8.1

> <Gold.Id.Protein>
6NUR|6NUR_protein|mol2

> <Gold.PLP.Fitness>
41.1100

> <Gold.PLP.PLP>
-33.4954

> <Gold.PLP.part.hbond>
-1.9731

> <Gold.PLP.part.metal>
0.0000

> <Gold.PLP.part.buried>
1.7453

> <Gold.PLP.part.nonpolar>
-33.5070

> <Gold.PLP.part.repulsive>
0.1996

> <Gold.PLP.ligand.clash>
0.0000

> <Gold.PLP.ligand.torsion>
0.6517

> <Gold.PLP.Chemscore.Hbond>
2.0000

> <Gold.PLP.Chemscore.CHOScore>
0.9626

> <Gold.PLP.Chemscore.Metal>
0.0000

> <Gold.Chemscore.Hbonds>
donor molecule, donor type, donor heavy atom, donor atom, acceptor molecule, acceptor atom, score
      L1  H    10    30       P1  8028  1.00
      P1  H  7989  7998       L1     1  1.00
      L1  C    18    34       P1  8028  0.93

> <Gold.PLP.Chemscore.Internal.Correction>
0.0301

> <Gold.Rescore>
     Score         DG    S(hbond)    S(metal)    S(lipo)     H(rot)  DE(clash)    DE(int)     intcor
     13.96     -17.79       1.78        0.00      97.19       1.95       0.45       3.38       ----

> <Gold.Chemscore.Fitness>
13.9578

> <Gold.Chemscore.DG>
-17.7896

> <Gold.Chemscore.ZeroCoef>
-5.4800

> <Gold.Chemscore.Hbond>
1.7757

> <Gold.Chemscore.Metal>
0.0000

> <Gold.Chemscore.Lipo>
97.1915

> <Gold.Chemscore.Internal_Hbond>
0.0000

> <Gold.Chemscore.DEClash>
0.4531

> <Gold.Chemscore.DEInternal>
3.3787

> <Gold.Chemscore.Rot>
1.9503

> <Gold.Chemscore.Internal.Correction>
   9.000000E+99

> <Gold.Chemscore.Hbonds>
donor molecule, donor type, donor heavy atom, donor atom, acceptor molecule, acceptor atom, score
      L1  H    10    30       P1  8028  0.63
      P1  H  7989  7998       L1     1  0.99

> <Gold.Chemscore.Hbond.Weighted>
-5.9309

> <Gold.Chemscore.Metal.Weighted>
-0.0000

> <Gold.Chemscore.Lipo.Weighted>
-11.3714

> <Gold.Chemscore.Internal_Hbond.Weighted>
0.0000

> <Gold.Chemscore.DEClash.Weighted>
0.4531

> <Gold.Chemscore.DEInternal.Weighted>
3.3787

> <Gold.Chemscore.Rot.Weighted>
4.9928

> <Gold.Chemscore.Internal.Correction.Weighted>
   9.000000E+99

> <Gold.Protein.RotatedTorsions>
[ 6907 6896 6895 6894 ] final -134.68 input  -60.11 | X-H torsion
[ 7974 7965 7964 7962 ] final -173.10 input  175.53 | X-H torsion
[ 8008 7997 7996 7995 ] final   27.37 input   59.86 | X-H torsion
[ 10167 10162 10161 10158 ] final   57.62 input  -65.29 | X-H torsion
[ 10718 10713 10712 10709 ] final  178.88 input   66.30 | X-H torsion
[ 10763 10752 10751 10750 ] final   21.14 input  -60.55 | X-H torsion
[ 11005 11000 10999 10996 ] final -111.64 input  -57.11 | X-H torsion

> <Gold.Protein.ActiveResidues>
 VAL166  LYS551  ARG553  GLY616  TRP617  ASP618  TYR619  PRO620  LYS621  CYS622 
 ASP623  PHE694  ASN695  SER759  ASP760  ASP761  ALA762  ILE779  LEU786  VAL792 
 PHE793  MET794  SER795  GLU796  ALA797  LYS798  CYS799  TRP800  GLU811  SER814 

> <Gold.Protein.RotatedAtoms>
  150.9888  133.6170  159.2711 H   0  0  0  0  0  0  0  0  0  0  0  0  # atno 6907 bound_to 6896
  151.3399  135.0860  159.9377 H   0  0  0  0  0  0  0  0  0  0  0  0  # atno 6908 bound_to 6896
  152.5239  133.9501  159.7722 H   0  0  0  0  0  0  0  0  0  0  0  0  # atno 6909 bound_to 6896
  144.7140  140.1673  143.6370 H   0  0  0  0  0  0  0  0  0  0  0  0  # atno 7974 bound_to 7965
  155.0419  140.3170  155.4722 H   0  0  0  0  0  0  0  0  0  0  0  0  # atno 8008 bound_to 7997
  156.2853  140.2161  156.5486 H   0  0  0  0  0  0  0  0  0  0  0  0  # atno 8009 bound_to 7997
  154.7283  140.0483  157.0691 H   0  0  0  0  0  0  0  0  0  0  0  0  # atno 8010 bound_to 7997
  140.1960  144.4037  150.6550 H   0  0  0  0  0  0  0  0  0  0  0  0  # atno 10167 bound_to 10162
  156.8841  130.9825  151.3058 H   0  0  0  0  0  0  0  0  0  0  0  0  # atno 10718 bound_to 10713
  153.1020  135.6675  153.9656 H   0  0  0  0  0  0  0  0  0  0  0  0  # atno 10763 bound_to 10752
  153.9224  135.3013  155.3449 H   0  0  0  0  0  0  0  0  0  0  0  0  # atno 10764 bound_to 10752
  154.7441  135.5066  153.9248 H   0  0  0  0  0  0  0  0  0  0  0  0  # atno 10765 bound_to 10752
  141.0722  133.9360  157.2461 H   0  0  0  0  0  0  0  0  0  0  0  0  # atno 11005 bound_to 11000
  145.8976  139.2411  143.1513 LP  0  0  0  0  0  0  0  0  0  0  0  0  # atno 17320 bound_to 7965
  145.9842  140.8657  143.0099 LP  0  0  0  0  0  0  0  0  0  0  0  0  # atno 17321 bound_to 7965
  140.6423  143.2206  151.6263 LP  0  0  0  0  0  0  0  0  0  0  0  0  # atno 17342 bound_to 10162
  139.5236  144.3128  152.0978 LP  0  0  0  0  0  0  0  0  0  0  0  0  # atno 17343 bound_to 10162
  157.6123  130.8592  149.8971 LP  0  0  0  0  0  0  0  0  0  0  0  0  # atno 17370 bound_to 10713
  156.0662  130.3692  150.0873 LP  0  0  0  0  0  0  0  0  0  0  0  0  # atno 17371 bound_to 10713
  139.9535  135.0170  156.9062 LP  0  0  0  0  0  0  0  0  0  0  0  0  # atno 17394 bound_to 11000
  140.5649  134.0499  155.7411 LP  0  0  0  0  0  0  0  0  0  0  0  0  # atno 17395 bound_to 11000

$$$$
