AV-unprocessed.smi:651|AV-procd|sdf|3186|dock5
  -GOLD-   22720 0113D 1   1.00000     0.00000
 Structure written by MMmdl.
 38 39  0  0  0  0  0  0  0  0  1 V2000
  153.4433  143.0780  163.7482 C   0  0  0  0  0  0  0  0  0  0  0  0
  153.1101  142.6753  162.3268 C   0  0  0  0  0  0  0  0  0  0  0  0
  152.1471  143.3904  161.5843 C   0  0  0  0  0  0  0  0  0  0  0  0
  151.8826  142.9844  160.2623 C   0  0  0  0  0  0  0  0  0  0  0  0
  152.5880  141.8832  159.7349 C   0  0  0  0  0  0  0  0  0  0  0  0
  152.3483  141.4124  158.3096 C   0  0  0  0  0  0  0  0  0  0  0  0
  151.9495  139.9329  158.2447 C   0  0  0  0  0  0  0  0  0  0  0  0
  152.4887  139.0918  158.9658 O   0  0  0  0  0  0  0  0  0  0  0  0
  150.9794  139.6294  157.3692 N   0  0  0  0  0  0  0  0  0  0  0  0
  150.4287  138.2890  157.1606 C   0  0  2  0  0  0  0  0  0  0  0  0
  151.5352  137.2178  157.1848 C   0  0  0  0  0  0  0  0  0  0  0  0
  151.2042  136.2122  156.0738 C   0  0  0  0  0  0  0  0  0  0  0  0
  149.8119  136.5927  155.5615 C   0  0  0  0  0  0  0  0  0  0  0  0
  149.6664  138.0993  155.8223 C   0  0  2  0  0  0  0  0  0  0  0  0
  150.2126  138.9224  154.6351 C   0  0  0  0  0  0  0  0  0  0  0  0
  149.8218  138.5522  153.4131 N   0  0  0  0  0  0  0  0  0  0  0  0
  150.9657  139.8781  154.8142 O   0  0  0  0  0  0  0  0  0  0  0  0
  153.5296  141.2350  160.5628 C   0  0  0  0  0  0  0  0  0  0  0  0
  153.7904  141.6179  161.8313 N   0  0  0  0  0  0  0  0  0  0  0  0
  152.5989  143.5836  164.2176 H   0  0  0  0  0  0  0  0  0  0  0  0
  154.2960  143.7572  163.7545 H   0  0  0  0  0  0  0  0  0  0  0  0
  153.6935  142.2060  164.3534 H   0  0  0  0  0  0  0  0  0  0  0  0
  151.6253  144.2329  162.0142 H   0  0  0  0  0  0  0  0  0  0  0  0
  151.1552  143.5132  159.6638 H   0  0  0  0  0  0  0  0  0  0  0  0
  151.5610  142.0172  157.8574 H   0  0  0  0  0  0  0  0  0  0  0  0
  153.2497  141.5685  157.7156 H   0  0  0  0  0  0  0  0  0  0  0  0
  150.5834  140.3770  156.8179 H   0  0  0  0  0  0  0  0  0  0  0  0
  149.7373  138.0671  157.9762 H   0  0  0  0  0  0  0  0  0  0  0  0
  152.5208  137.6499  157.0053 H   0  0  0  0  0  0  0  0  0  0  0  0
  151.5727  136.7299  158.1596 H   0  0  0  0  0  0  0  0  0  0  0  0
  151.9332  136.3019  155.2676 H   0  0  0  0  0  0  0  0  0  0  0  0
  151.2383  135.1813  156.4271 H   0  0  0  0  0  0  0  0  0  0  0  0
  149.6726  136.3195  154.5146 H   0  0  0  0  0  0  0  0  0  0  0  0
  149.0543  136.0559  156.1341 H   0  0  0  0  0  0  0  0  0  0  0  0
  148.6136  138.3528  155.9586 H   0  0  0  0  0  0  0  0  0  0  0  0
  150.1534  139.0555  152.6031 H   0  0  0  0  0  0  0  0  0  0  0  0
  149.1976  137.7662  153.3038 H   0  0  0  0  0  0  0  0  0  0  0  0
  154.0939  140.3903  160.1957 H   0  0  0  0  0  0  0  0  0  0  0  0
  1  2  1  0  0  0  0
  1 20  1  0  0  0  0
  1 21  1  0  0  0  0
  1 22  1  0  0  0  0
  2 19  1  0  0  0  0
  2  3  2  0  0  0  0
  3  4  1  0  0  0  0
  3 23  1  0  0  0  0
  4  5  2  0  0  0  0
  4 24  1  0  0  0  0
  5  6  1  0  0  0  0
  5 18  1  0  0  0  0
  6  7  1  0  0  0  0
  6 25  1  0  0  0  0
  6 26  1  0  0  0  0
  7  8  2  0  0  0  0
  7  9  1  0  0  0  0
  9 10  1  0  0  0  0
  9 27  1  0  0  0  0
 10 14  1  0  0  0  0
 10 11  1  0  0  0  0
 10 28  1  0  0  0  0
 11 12  1  0  0  0  0
 11 29  1  0  0  0  0
 11 30  1  0  0  0  0
 12 13  1  0  0  0  0
 12 31  1  0  0  0  0
 12 32  1  0  0  0  0
 13 14  1  0  0  0  0
 13 33  1  0  0  0  0
 13 34  1  0  0  0  0
 14 15  1  0  0  0  0
 14 35  1  0  0  0  0
 15 16  1  0  0  0  0
 15 17  2  0  0  0  0
 16 36  1  0  0  0  0
 16 37  1  0  0  0  0
 18 19  2  0  0  0  0
 18 38  1  0  0  0  0
M  END
> <s_m_source_file>
AV-unprocessed.smi

> <i_m_source_file_index>
651

> <i_lp_mmshare_version>
43012

> <i_f3d_flags>
0

> <s_epik_input>
W0NIM11jMVtjSF1bY0hdYyhbY0hdbjEpW0NIMl1DKD1PKVtOSF1bQ0BASF0yW0NIMl1bQ0gyXVtDSDJdW0NASF0yQyg9TylbTkgyXQ==

> <s_epik_cmdline>
J2VwaWtfcHl0aG9uJywgJy1waCcsICc3LjAnLCAnLXRuJywgJzgnLCAnLW1hJywgJzIwMCcsICctbWV0YWxfYmluZGluZycsICctaW1hZScsICc8aW5maWxlLm1hZT4nLCAnLW9tYWUnLCAnPG91dGZpbGUubWFlPic=

> <r_epik_Ionization_Penalty>
0.0159502

> <r_epik_Ionization_Penalty_Charging>
0

> <r_epik_Ionization_Penalty_Neutral>
0.0159502

> <r_epik_State_Penalty>
0.012563

> <r_epik_Charging_Adjusted_Penalty>
0.012563

> <i_epik_Tot_Q>
0

> <i_epik_Tot_abs_Q>
0

> <r_epik_Metal_State_Penalty>
0.0122326

> <b_epik_Metal_Only>
0

> <s_lp_Force_Field>
OPLS_2005

> <r_lp_Energy>
13.1482

> <b_lp_Chiralities_Consistent>
1

> <s_lp_Variant>
AV-unprocessed.smi:651-3

> <Gold.Version>
5.8.1

> <Gold.Id.Protein>
6NUR|6NUR_protein|mol2

> <Gold.PLP.Fitness>
42.7336

> <Gold.PLP.PLP>
-37.2178

> <Gold.PLP.part.hbond>
-3.6035

> <Gold.PLP.part.metal>
0.0000

> <Gold.PLP.part.buried>
-6.4589

> <Gold.PLP.part.nonpolar>
-25.4193

> <Gold.PLP.part.repulsive>
0.1810

> <Gold.PLP.ligand.clash>
0.0000

> <Gold.PLP.ligand.torsion>
0.9126

> <Gold.PLP.Chemscore.Hbond>
2.4384

> <Gold.PLP.Chemscore.CHOScore>
0.0000

> <Gold.PLP.Chemscore.Metal>
0.0000

> <Gold.Chemscore.Hbonds>
donor molecule, donor type, donor heavy atom, donor atom, acceptor molecule, acceptor atom, score
      L1  H    16    36       P1  7957  0.90
      L1  H    16    37       P1  7948  0.57
      P1  H  7989  7998       L1    17  1.00

> <Gold.PLP.Chemscore.Internal.Correction>
0.0258

> <Gold.Rescore>
     Score         DG    S(hbond)    S(metal)    S(lipo)     H(rot)  DE(clash)    DE(int)     intcor
     13.97     -19.10       2.45        0.00      89.62       1.97       0.18       4.95       ----

> <Gold.Chemscore.Fitness>
13.9685

> <Gold.Chemscore.DG>
-19.0989

> <Gold.Chemscore.ZeroCoef>
-5.4800

> <Gold.Chemscore.Hbond>
2.4483

> <Gold.Chemscore.Metal>
0.0000

> <Gold.Chemscore.Lipo>
89.6238

> <Gold.Chemscore.Internal_Hbond>
0.0000

> <Gold.Chemscore.DEClash>
0.1820

> <Gold.Chemscore.DEInternal>
4.9483

> <Gold.Chemscore.Rot>
1.9704

> <Gold.Chemscore.Internal.Correction>
   9.000000E+99

> <Gold.Chemscore.Hbonds>
donor molecule, donor type, donor heavy atom, donor atom, acceptor molecule, acceptor atom, score
      L1  H    16    36       P1  7957  0.48
      L1  H    16    37       P1  7948  0.55
      P1  H  7989  7998       L1    17  1.00

> <Gold.Chemscore.Hbond.Weighted>
-8.1772

> <Gold.Chemscore.Metal.Weighted>
-0.0000

> <Gold.Chemscore.Lipo.Weighted>
-10.4860

> <Gold.Chemscore.Internal_Hbond.Weighted>
0.0000

> <Gold.Chemscore.DEClash.Weighted>
0.1820

> <Gold.Chemscore.DEInternal.Weighted>
4.9483

> <Gold.Chemscore.Rot.Weighted>
5.0443

> <Gold.Chemscore.Internal.Correction.Weighted>
   9.000000E+99

> <Gold.Protein.RotatedTorsions>
[ 6907 6896 6895 6894 ] final  161.06 input  -60.11 | X-H torsion
[ 7974 7965 7964 7962 ] final   57.58 input  175.53 | X-H torsion
[ 8008 7997 7996 7995 ] final  -12.99 input   59.86 | X-H torsion
[ 10167 10162 10161 10158 ] final   67.35 input  -65.29 | X-H torsion
[ 10718 10713 10712 10709 ] final  -30.38 input   66.30 | X-H torsion
[ 10763 10752 10751 10750 ] final  -14.75 input  -60.55 | X-H torsion
[ 11005 11000 10999 10996 ] final   76.87 input  -57.11 | X-H torsion

> <Gold.Protein.ActiveResidues>
 VAL166  LYS551  ARG553  GLY616  TRP617  ASP618  TYR619  PRO620  LYS621  CYS622 
 ASP623  PHE694  ASN695  SER759  ASP760  ASP761  ALA762  ILE779  LEU786  VAL792 
 PHE793  MET794  SER795  GLU796  ALA797  LYS798  CYS799  TRP800  GLU811  SER814 

> <Gold.Protein.RotatedAtoms>
  151.9613  133.3696  159.4035 H   0  0  0  0  0  0  0  0  0  0  0  0  # atno 6907 bound_to 6896
  150.6964  134.4238  159.5226 H   0  0  0  0  0  0  0  0  0  0  0  0  # atno 6908 bound_to 6896
  152.1927  134.8658  160.0566 H   0  0  0  0  0  0  0  0  0  0  0  0  # atno 6909 bound_to 6896
  145.9275  139.3779  143.0441 H   0  0  0  0  0  0  0  0  0  0  0  0  # atno 7974 bound_to 7965
  154.5330  140.2261  155.8771 H   0  0  0  0  0  0  0  0  0  0  0  0  # atno 8008 bound_to 7997
  156.1783  140.3106  155.9064 H   0  0  0  0  0  0  0  0  0  0  0  0  # atno 8009 bound_to 7997
  155.3412  140.0450  157.3035 H   0  0  0  0  0  0  0  0  0  0  0  0  # atno 8010 bound_to 7997
  140.0904  144.4993  150.7102 H   0  0  0  0  0  0  0  0  0  0  0  0  # atno 10167 bound_to 10162
  156.4006  130.4389  149.7325 H   0  0  0  0  0  0  0  0  0  0  0  0  # atno 10718 bound_to 10713
  153.5330  135.7014  153.5674 H   0  0  0  0  0  0  0  0  0  0  0  0  # atno 10763 bound_to 10752
  153.3673  135.3954  155.1762 H   0  0  0  0  0  0  0  0  0  0  0  0  # atno 10764 bound_to 10752
  154.8682  135.3803  154.4828 H   0  0  0  0  0  0  0  0  0  0  0  0  # atno 10765 bound_to 10752
  139.9279  134.7636  156.1450 H   0  0  0  0  0  0  0  0  0  0  0  0  # atno 11005 bound_to 11000
  145.8470  140.9549  143.0769 LP  0  0  0  0  0  0  0  0  0  0  0  0  # atno 17320 bound_to 7965
  144.6760  140.0358  143.7482 LP  0  0  0  0  0  0  0  0  0  0  0  0  # atno 17321 bound_to 7965
  140.7031  143.2449  151.4805 LP  0  0  0  0  0  0  0  0  0  0  0  0  # atno 17342 bound_to 10162
  139.5728  144.1889  152.1860 LP  0  0  0  0  0  0  0  0  0  0  0  0  # atno 17343 bound_to 10162
  156.4343  130.7830  151.2851 LP  0  0  0  0  0  0  0  0  0  0  0  0  # atno 17370 bound_to 10713
  157.7503  131.0144  150.3464 LP  0  0  0  0  0  0  0  0  0  0  0  0  # atno 17371 bound_to 10713
  141.0849  133.6738  156.2415 LP  0  0  0  0  0  0  0  0  0  0  0  0  # atno 17394 bound_to 11000
  140.6284  134.5289  157.5556 LP  0  0  0  0  0  0  0  0  0  0  0  0  # atno 17395 bound_to 11000

$$$$
