AV-unprocessed.smi:3250|AV-procd|sdf|12425|dock3
  -GOLD-   2272018313D 1   1.00000     0.00000
 Structure written by MMmdl.
 39 40  0  0  0  0  0  0  0  0  2 V2000
  148.2715  132.8074  153.1602 C   0  0  0  0  0  0  0  0  0  0  0  0
  146.8182  133.0400  152.7225 C   0  0  0  0  0  0  0  0  0  0  0  0
  146.5320  134.4651  152.4222 N   0  3  1  0  0  0  0  0  0  0  0  0
  145.3108  134.6307  151.5985 C   0  0  0  0  0  0  0  0  0  0  0  0
  145.0732  136.1148  151.2752 C   0  0  0  0  0  0  0  0  0  0  0  0
  144.9973  136.8583  152.4850 O   0  0  0  0  0  0  0  0  0  0  0  0
  146.2068  136.7941  153.2317 C   0  0  1  0  0  0  0  0  0  0  0  0
  146.0563  137.7258  154.4481 C   0  0  0  0  0  0  0  0  0  0  0  0
  146.1933  139.1348  154.1002 N   0  0  0  0  0  0  0  0  0  0  0  0
  147.3804  139.8441  154.1393 C   0  0  0  0  0  0  0  0  0  0  0  0
  147.2562  141.1648  154.2841 N   0  0  0  0  0  0  0  0  0  0  0  0
  148.3976  141.8862  154.3340 C   0  0  0  0  0  0  0  0  0  0  0  0
  149.6655  141.2779  154.2415 C   0  0  0  0  0  0  0  0  0  0  0  0
  149.6812  139.8769  154.0905 C   0  0  0  0  0  0  0  0  0  0  0  0
  150.8878  139.2153  153.9955 O   0  0  0  0  0  0  0  0  0  0  0  0
  150.8655  137.8093  153.7738 C   0  0  0  0  0  0  0  0  0  0  0  0
  148.5282  139.1644  154.0405 N   0  0  0  0  0  0  0  0  0  0  0  0
  146.4633  135.3257  153.6290 C   0  0  0  0  0  0  0  0  0  0  0  0
  148.4722  131.7410  153.2656 H   0  0  0  0  0  0  0  0  0  0  0  0
  148.4894  133.2717  154.1216 H   0  0  0  0  0  0  0  0  0  0  0  0
  148.9733  133.2038  152.4259 H   0  0  0  0  0  0  0  0  0  0  0  0
  146.6414  132.4479  151.8237 H   0  0  0  0  0  0  0  0  0  0  0  0
  146.1247  132.6693  153.4786 H   0  0  0  0  0  0  0  0  0  0  0  0
  145.4100  134.0666  150.6703 H   0  0  0  0  0  0  0  0  0  0  0  0
  144.4513  134.2235  152.1333 H   0  0  0  0  0  0  0  0  0  0  0  0
  145.8674  136.5088  150.6390 H   0  0  0  0  0  0  0  0  0  0  0  0
  144.1384  136.2350  150.7272 H   0  0  0  0  0  0  0  0  0  0  0  0
  147.0221  137.1515  152.6003 H   0  0  0  0  0  0  0  0  0  0  0  0
  145.0838  137.5721  154.9175 H   0  0  0  0  0  0  0  0  0  0  0  0
  146.8028  137.4795  155.2034 H   0  0  0  0  0  0  0  0  0  0  0  0
  145.3566  139.6526  153.8732 H   0  0  0  0  0  0  0  0  0  0  0  0
  148.2988  142.9553  154.4510 H   0  0  0  0  0  0  0  0  0  0  0  0
  150.5767  141.8562  154.2835 H   0  0  0  0  0  0  0  0  0  0  0  0
  151.8880  137.4353  153.7226 H   0  0  0  0  0  0  0  0  0  0  0  0
  150.3750  137.5608  152.8313 H   0  0  0  0  0  0  0  0  0  0  0  0
  150.3615  137.2856  154.5873 H   0  0  0  0  0  0  0  0  0  0  0  0
  145.6711  134.9694  154.2895 H   0  0  0  0  0  0  0  0  0  0  0  0
  147.3976  135.2606  154.1858 H   0  0  0  0  0  0  0  0  0  0  0  0
  147.3007  134.8041  151.8610 H   0  0  0  0  0  0  0  0  0  0  0  0
  1  2  1  0  0  0  0
  1 19  1  0  0  0  0
  1 20  1  0  0  0  0
  1 21  1  0  0  0  0
  2  3  1  0  0  0  0
  2 22  1  0  0  0  0
  2 23  1  0  0  0  0
  3 18  1  0  0  0  0
  3  4  1  0  0  0  0
  3 39  1  0  0  0  0
  4  5  1  0  0  0  0
  4 24  1  0  0  0  0
  4 25  1  0  0  0  0
  5  6  1  0  0  0  0
  5 26  1  0  0  0  0
  5 27  1  0  0  0  0
  6  7  1  0  0  0  0
  7  8  1  0  0  0  0
  7 18  1  0  0  0  0
  7 28  1  0  0  0  0
  8  9  1  0  0  0  0
  8 29  1  0  0  0  0
  8 30  1  0  0  0  0
  9 10  1  0  0  0  0
  9 31  1  0  0  0  0
 10 17  1  0  0  0  0
 10 11  2  0  0  0  0
 11 12  1  0  0  0  0
 12 13  2  0  0  0  0
 12 32  1  0  0  0  0
 13 14  1  0  0  0  0
 13 33  1  0  0  0  0
 14 15  1  0  0  0  0
 14 17  2  0  0  0  0
 15 16  1  0  0  0  0
 16 34  1  0  0  0  0
 16 35  1  0  0  0  0
 16 36  1  0  0  0  0
 18 37  1  0  0  0  0
 18 38  1  0  0  0  0
M  CHG  1   3   1
M  END
> <s_m_source_file>
AV-unprocessed.smi

> <i_m_source_file_index>
3250

> <i_lp_mmshare_version>
43012

> <i_f3d_flags>
0

> <s_epik_input>
W0NIM11bQ0gyXU4xW0NIMl1bQ0gyXU9bQ0BIXShbQ0gyXTEpW0NIMl1bTkhdYzJuW2NIXVtjSF1jKG4yKU9bQ0gzXQ==

> <s_epik_cmdline>
J2VwaWtfcHl0aG9uJywgJy1waCcsICc3LjAnLCAnLXRuJywgJzgnLCAnLW1hJywgJzIwMCcsICctbWV0YWxfYmluZGluZycsICctaW1hZScsICc8aW5maWxlLm1hZT4nLCAnLW9tYWUnLCAnPG91dGZpbGUubWFlPic=

> <r_lp_tautomer_probability>
1

> <r_epik_Ionization_Penalty>
0.19684

> <r_epik_Ionization_Penalty_Charging>
0.178504

> <r_epik_Ionization_Penalty_Neutral>
0.0183356

> <r_epik_State_Penalty>
0.162939

> <r_epik_Charging_Adjusted_Penalty>
0.341443

> <i_epik_Tot_Q>
1

> <i_epik_Tot_abs_Q>
1

> <r_epik_Metal_State_Penalty>
0.1608

> <b_epik_Metal_Only>
0

> <s_lp_Force_Field>
OPLS_2005

> <r_lp_Energy>
7.38775

> <b_lp_Chiralities_Consistent>
1

> <s_lp_Variant>
AV-unprocessed.smi:3250-1

> <Gold.Version>
5.8.1

> <Gold.Id.Protein>
6NUR|6NUR_protein|mol2

> <Gold.PLP.Fitness>
41.7645

> <Gold.PLP.PLP>
-27.9863

> <Gold.PLP.part.hbond>
-3.0000

> <Gold.PLP.part.metal>
0.0000

> <Gold.PLP.part.buried>
-0.9544

> <Gold.PLP.part.nonpolar>
-24.2241

> <Gold.PLP.part.repulsive>
0.6370

> <Gold.PLP.ligand.clash>
0.0000

> <Gold.PLP.ligand.torsion>
0.5683

> <Gold.PLP.Chemscore.Hbond>
4.0000

> <Gold.PLP.Chemscore.CHOScore>
0.9531

> <Gold.PLP.Chemscore.Metal>
0.0000

> <Gold.Chemscore.Hbonds>
donor molecule, donor type, donor heavy atom, donor atom, acceptor molecule, acceptor atom, score
      L1  H     3    39       P1  7948  1.29
      L1  H     9    31       P1 10175  0.24
      P1  H  7989  7998       L1    15  0.35
      L1  C    12    32       P1  8028  1.00

> <Gold.PLP.Chemscore.Internal.Correction>
0.0556

> <Gold.Rescore>
     Score         DG    S(hbond)    S(metal)    S(lipo)     H(rot)  DE(clash)    DE(int)     intcor
     15.01     -16.11       2.73        0.00      50.36       1.71       0.32       0.78       ----

> <Gold.Chemscore.Fitness>
15.0149

> <Gold.Chemscore.DG>
-16.1140

> <Gold.Chemscore.ZeroCoef>
-5.4800

> <Gold.Chemscore.Hbond>
2.7325

> <Gold.Chemscore.Metal>
0.0000

> <Gold.Chemscore.Lipo>
50.3597

> <Gold.Chemscore.Internal_Hbond>
0.0000

> <Gold.Chemscore.DEClash>
0.3178

> <Gold.Chemscore.DEInternal>
0.7813

> <Gold.Chemscore.Rot>
1.7127

> <Gold.Chemscore.Internal.Correction>
   9.000000E+99

> <Gold.Chemscore.Hbonds>
donor molecule, donor type, donor heavy atom, donor atom, acceptor molecule, acceptor atom, score
      L1  H     3    39       P1  7948  0.52
      L1  H     9    31       P1 10175  0.25
      P1  H  7989  7998       L1    15  0.01

> <Gold.Chemscore.Hbond.Weighted>
-9.1265

> <Gold.Chemscore.Metal.Weighted>
-0.0000

> <Gold.Chemscore.Lipo.Weighted>
-5.8921

> <Gold.Chemscore.Internal_Hbond.Weighted>
0.0000

> <Gold.Chemscore.DEClash.Weighted>
0.3178

> <Gold.Chemscore.DEInternal.Weighted>
0.7813

> <Gold.Chemscore.Rot.Weighted>
4.3846

> <Gold.Chemscore.Internal.Correction.Weighted>
   9.000000E+99

> <Gold.Protein.RotatedTorsions>
[ 6907 6896 6895 6894 ] final   46.04 input  -60.11 | X-H torsion
[ 7974 7965 7964 7962 ] final   37.93 input  175.53 | X-H torsion
[ 8008 7997 7996 7995 ] final -115.07 input   59.86 | X-H torsion
[ 10167 10162 10161 10158 ] final -142.56 input  -65.29 | X-H torsion
[ 10718 10713 10712 10709 ] final  -29.63 input   66.30 | X-H torsion
[ 10763 10752 10751 10750 ] final   40.77 input  -60.55 | X-H torsion
[ 11005 11000 10999 10996 ] final  172.01 input  -57.11 | X-H torsion

> <Gold.Protein.ActiveResidues>
 VAL166  LYS551  ARG553  GLY616  TRP617  ASP618  TYR619  PRO620  LYS621  CYS622 
 ASP623  PHE694  ASN695  SER759  ASP760  ASP761  ALA762  ILE779  LEU786  VAL792 
 PHE793  MET794  SER795  GLU796  ALA797  LYS798  CYS799  TRP800  GLU811  SER814 

> <Gold.Protein.RotatedAtoms>
  152.2517  134.8126  160.0444 H   0  0  0  0  0  0  0  0  0  0  0  0  # atno 6907 bound_to 6896
  151.8804  133.3489  159.3772 H   0  0  0  0  0  0  0  0  0  0  0  0  # atno 6908 bound_to 6896
  150.7086  134.4951  159.5578 H   0  0  0  0  0  0  0  0  0  0  0  0  # atno 6909 bound_to 6896
  146.1100  139.5833  142.9358 H   0  0  0  0  0  0  0  0  0  0  0  0  # atno 7974 bound_to 7965
  155.0462  140.0392  157.2527 H   0  0  0  0  0  0  0  0  0  0  0  0  # atno 8008 bound_to 7997
  154.7175  140.2705  155.6548 H   0  0  0  0  0  0  0  0  0  0  0  0  # atno 8009 bound_to 7997
  156.2807  140.2709  156.1836 H   0  0  0  0  0  0  0  0  0  0  0  0  # atno 8010 bound_to 7997
  139.8077  143.7746  152.2662 H   0  0  0  0  0  0  0  0  0  0  0  0  # atno 10167 bound_to 10162
  156.4100  130.4406  149.7259 H   0  0  0  0  0  0  0  0  0  0  0  0  # atno 10718 bound_to 10713
  152.9927  135.6181  154.2680 H   0  0  0  0  0  0  0  0  0  0  0  0  # atno 10763 bound_to 10752
  154.2414  135.2788  155.2854 H   0  0  0  0  0  0  0  0  0  0  0  0  # atno 10764 bound_to 10752
  154.5366  135.5773  153.6861 H   0  0  0  0  0  0  0  0  0  0  0  0  # atno 10765 bound_to 10752
  140.3252  134.7404  157.4093 H   0  0  0  0  0  0  0  0  0  0  0  0  # atno 11005 bound_to 11000
  145.5683  141.0397  143.2188 LP  0  0  0  0  0  0  0  0  0  0  0  0  # atno 17320 bound_to 7965
  144.7503  139.7210  143.7275 LP  0  0  0  0  0  0  0  0  0  0  0  0  # atno 17321 bound_to 7965
  139.7885  144.7419  150.9987 LP  0  0  0  0  0  0  0  0  0  0  0  0  # atno 17342 bound_to 10162
  140.7819  143.4466  151.0473 LP  0  0  0  0  0  0  0  0  0  0  0  0  # atno 17343 bound_to 10162
  156.4241  130.7783  151.2801 LP  0  0  0  0  0  0  0  0  0  0  0  0  # atno 17370 bound_to 10713
  157.7506  131.0174  150.3582 LP  0  0  0  0  0  0  0  0  0  0  0  0  # atno 17371 bound_to 10713
  140.0908  134.5604  155.8446 LP  0  0  0  0  0  0  0  0  0  0  0  0  # atno 17394 bound_to 11000
  141.2077  133.6666  156.6323 LP  0  0  0  0  0  0  0  0  0  0  0  0  # atno 17395 bound_to 11000

$$$$
