AV-unprocessed.smi:1473|AV-procd|sdf|5972|dock2
  -GOLD-   22720 6 63D 1   1.00000     0.00000
 Structure written by MMmdl.
 33 34  0  0  0  0  0  0  0  0  4 V2000
  155.0290  137.8575  158.8885 N   0  5  0  0  0  0  0  0  0  0  0  0
  153.7187  137.2479  158.1578 S   0  0  0  0  0  0  0  0  0  0  0  0
  154.1334  136.2764  157.1350 O   0  0  0  0  0  0  0  0  0  0  0  0
  152.7420  136.7478  159.1415 O   0  0  0  0  0  0  0  0  0  0  0  0
  153.2530  138.6402  157.4412 N   0  5  0  0  0  0  0  0  0  0  0  0
  152.3653  138.6799  156.2799 C   0  0  0  0  0  0  0  0  0  0  0  0
  151.5040  139.9354  156.2459 C   0  0  0  0  0  0  0  0  0  0  0  0
  150.5283  140.1162  155.2369 C   0  0  0  0  0  0  0  0  0  0  0  0
  149.7847  141.3127  155.2066 C   0  0  0  0  0  0  0  0  0  0  0  0
  150.0109  142.2710  156.1308 N   0  3  0  0  0  0  0  0  0  0  0  0
  150.9284  142.1452  157.1146 C   0  0  0  0  0  0  0  0  0  0  0  0
  151.0914  143.2300  157.9852 N   0  0  0  0  0  0  0  0  0  0  0  0
  149.9249  143.5014  158.8158 C   0  0  0  0  0  0  0  0  0  0  0  0
  150.1666  144.7644  159.6598 C   0  0  0  0  0  0  0  0  0  0  0  0
  151.3512  144.5989  160.4341 O   0  0  0  0  0  0  0  0  0  0  0  0
  152.5026  144.3984  159.6187 C   0  0  0  0  0  0  0  0  0  0  0  0
  152.3184  143.1317  158.7651 C   0  0  0  0  0  0  0  0  0  0  0  0
  151.6926  140.9602  157.2029 C   0  0  0  0  0  0  0  0  0  0  0  0
  155.8122  137.8294  158.2251 H   0  0  0  0  0  0  0  0  0  0  0  0
  152.9351  138.6486  155.3505 H   0  0  0  0  0  0  0  0  0  0  0  0
  151.7107  137.8084  156.2376 H   0  0  0  0  0  0  0  0  0  0  0  0
  150.3563  139.3647  154.4782 H   0  0  0  0  0  0  0  0  0  0  0  0
  149.0311  141.5357  154.4658 H   0  0  0  0  0  0  0  0  0  0  0  0
  149.0453  143.6338  158.1846 H   0  0  0  0  0  0  0  0  0  0  0  0
  149.7275  142.6544  159.4738 H   0  0  0  0  0  0  0  0  0  0  0  0
  150.2548  145.6474  159.0247 H   0  0  0  0  0  0  0  0  0  0  0  0
  149.3245  144.9360  160.3304 H   0  0  0  0  0  0  0  0  0  0  0  0
  152.6694  145.2721  158.9867 H   0  0  0  0  0  0  0  0  0  0  0  0
  153.3789  144.2961  160.2590 H   0  0  0  0  0  0  0  0  0  0  0  0
  152.2763  142.2521  159.4096 H   0  0  0  0  0  0  0  0  0  0  0  0
  153.1722  143.0011  158.0989 H   0  0  0  0  0  0  0  0  0  0  0  0
  152.4433  140.8642  157.9759 H   0  0  0  0  0  0  0  0  0  0  0  0
  149.4717  143.1351  156.0767 H   0  0  0  0  0  0  0  0  0  0  0  0
  1  2  1  0  0  0  0
  1 19  1  0  0  0  0
  2  3  2  0  0  0  0
  2  4  2  0  0  0  0
  2  5  1  0  0  0  0
  5  6  1  0  0  0  0
  6  7  1  0  0  0  0
  6 20  1  0  0  0  0
  6 21  1  0  0  0  0
  7 18  1  0  0  0  0
  7  8  2  0  0  0  0
  8  9  1  0  0  0  0
  8 22  1  0  0  0  0
  9 10  2  0  0  0  0
  9 23  1  0  0  0  0
 10 11  1  0  0  0  0
 10 33  1  0  0  0  0
 11 12  1  0  0  0  0
 11 18  2  0  0  0  0
 12 17  1  0  0  0  0
 12 13  1  0  0  0  0
 13 14  1  0  0  0  0
 13 24  1  0  0  0  0
 13 25  1  0  0  0  0
 14 15  1  0  0  0  0
 14 26  1  0  0  0  0
 14 27  1  0  0  0  0
 15 16  1  0  0  0  0
 16 17  1  0  0  0  0
 16 28  1  0  0  0  0
 16 29  1  0  0  0  0
 17 30  1  0  0  0  0
 17 31  1  0  0  0  0
 18 32  1  0  0  0  0
M  CHG  1   1  -1
M  CHG  1   5  -1
M  CHG  1  10   1
M  END
> <s_m_source_file>
AV-unprocessed.smi

> <i_m_source_file_index>
1473

> <i_lp_mmshare_version>
43012

> <i_f3d_flags>
0

> <s_epik_input>
W05IMl1TKD1PKSg9TylbTkhdW0NIMl1jMVtjSF1bY0hdbmMoW2NIXTEpTjJbQ0gyXVtDSDJdT1tDSDJdW0NIMl0y

> <s_epik_cmdline>
J2VwaWtfcHl0aG9uJywgJy1waCcsICc3LjAnLCAnLXRuJywgJzgnLCAnLW1hJywgJzIwMCcsICctbWV0YWxfYmluZGluZycsICctaW1hZScsICc8aW5maWxlLm1hZT4nLCAnLW9tYWUnLCAnPG91dGZpbGUubWFlPic=

> <r_epik_Ionization_Penalty>
8.27174

> <r_epik_Ionization_Penalty_Charging>
8.27174

> <r_epik_Ionization_Penalty_Neutral>
3.18726e-12

> <r_epik_State_Penalty>
4.90783

> <r_epik_Charging_Adjusted_Penalty>
13.1796

> <i_epik_Tot_Q>
-1

> <i_epik_Tot_abs_Q>
3

> <r_epik_Metal_State_Penalty>
1.75942

> <b_epik_Metal_Only>
1

> <s_lp_Force_Field>
OPLS_2005

> <r_lp_Energy>
13.3583

> <b_lp_Chiralities_Consistent>
1

> <s_lp_Variant>
AV-unprocessed.smi:1473-7

> <Gold.Version>
5.8.1

> <Gold.Id.Protein>
6NUR|6NUR_protein|mol2

> <Gold.PLP.Fitness>
47.7206

> <Gold.PLP.PLP>
-30.7960

> <Gold.PLP.part.hbond>
-4.0000

> <Gold.PLP.part.metal>
0.0000

> <Gold.PLP.part.buried>
-5.0971

> <Gold.PLP.part.nonpolar>
-22.8019

> <Gold.PLP.part.repulsive>
0.3538

> <Gold.PLP.ligand.clash>
0.0989

> <Gold.PLP.ligand.torsion>
1.0192

> <Gold.PLP.Chemscore.Hbond>
5.9833

> <Gold.PLP.Chemscore.CHOScore>
0.0000

> <Gold.PLP.Chemscore.Metal>
0.0000

> <Gold.Chemscore.Hbonds>
donor molecule, donor type, donor heavy atom, donor atom, acceptor molecule, acceptor atom, score
      L1  H    10    33       P1  8028  2.00
      P1  H  6896  6908       L1     4  0.97
      P1  H  7997  8010       L1     5  2.00
      P1  H 10752 10764       L1     3  1.00

> <Gold.PLP.Chemscore.Internal.Correction>
1.1118

> <Gold.Rescore>
     Score         DG    S(hbond)    S(metal)    S(lipo)     H(rot)  DE(clash)    DE(int)     intcor
     19.81     -20.86       3.49        0.00      73.34       1.89       0.11       0.94       ----

> <Gold.Chemscore.Fitness>
19.8141

> <Gold.Chemscore.DG>
-20.8605

> <Gold.Chemscore.ZeroCoef>
-5.4800

> <Gold.Chemscore.Hbond>
3.4862

> <Gold.Chemscore.Metal>
0.0000

> <Gold.Chemscore.Lipo>
73.3393

> <Gold.Chemscore.Internal_Hbond>
0.0000

> <Gold.Chemscore.DEClash>
0.1103

> <Gold.Chemscore.DEInternal>
0.9361

> <Gold.Chemscore.Rot>
1.8922

> <Gold.Chemscore.Internal.Correction>
   9.000000E+99

> <Gold.Chemscore.Hbonds>
donor molecule, donor type, donor heavy atom, donor atom, acceptor molecule, acceptor atom, score
      L1  H    10    33       P1  8028  1.00
      P1  H  6896  6908       L1     4  0.85
      P1  H  7997  8010       L1     5  0.29
      P1  H 10752 10764       L1     3  0.97

> <Gold.Chemscore.Hbond.Weighted>
-11.6439

> <Gold.Chemscore.Metal.Weighted>
-0.0000

> <Gold.Chemscore.Lipo.Weighted>
-8.5807

> <Gold.Chemscore.Internal_Hbond.Weighted>
0.0000

> <Gold.Chemscore.DEClash.Weighted>
0.1103

> <Gold.Chemscore.DEInternal.Weighted>
0.9361

> <Gold.Chemscore.Rot.Weighted>
4.8441

> <Gold.Chemscore.Internal.Correction.Weighted>
   9.000000E+99

> <Gold.Protein.RotatedTorsions>
[ 6907 6896 6895 6894 ] final  -97.59 input  -60.11 | X-H torsion
[ 7974 7965 7964 7962 ] final -140.74 input  175.53 | X-H torsion
[ 8008 7997 7996 7995 ] final   37.63 input   59.86 | X-H torsion
[ 10167 10162 10161 10158 ] final   31.63 input  -65.29 | X-H torsion
[ 10718 10713 10712 10709 ] final  173.93 input   66.30 | X-H torsion
[ 10763 10752 10751 10750 ] final   27.22 input  -60.55 | X-H torsion
[ 11005 11000 10999 10996 ] final  104.57 input  -57.11 | X-H torsion

> <Gold.Protein.ActiveResidues>
 VAL166  LYS551  ARG553  GLY616  TRP617  ASP618  TYR619  PRO620  LYS621  CYS622 
 ASP623  PHE694  ASN695  SER759  ASP760  ASP761  ALA762  ILE779  LEU786  VAL792 
 PHE793  MET794  SER795  GLU796  ALA797  LYS798  CYS799  TRP800  GLU811  SER814 

> <Gold.Protein.RotatedAtoms>
  150.7021  134.1325  159.4074 H   0  0  0  0  0  0  0  0  0  0  0  0  # atno 6907 bound_to 6896
  151.9310  135.0254  160.0538 H   0  0  0  0  0  0  0  0  0  0  0  0  # atno 6908 bound_to 6896
  152.2175  133.4923  159.5181 H   0  0  0  0  0  0  0  0  0  0  0  0  # atno 6909 bound_to 6896
  144.8573  140.6163  143.5351 H   0  0  0  0  0  0  0  0  0  0  0  0  # atno 7974 bound_to 7965
  155.2069  140.3320  155.4334 H   0  0  0  0  0  0  0  0  0  0  0  0  # atno 8008 bound_to 7997
  156.2385  140.1884  156.7102 H   0  0  0  0  0  0  0  0  0  0  0  0  # atno 8009 bound_to 7997
  154.6104  140.0610  156.9471 H   0  0  0  0  0  0  0  0  0  0  0  0  # atno 8010 bound_to 7997
  140.4572  144.0961  150.6204 H   0  0  0  0  0  0  0  0  0  0  0  0  # atno 10167 bound_to 10162
  156.9571  131.0049  151.2936 H   0  0  0  0  0  0  0  0  0  0  0  0  # atno 10718 bound_to 10713
  153.0570  135.6542  154.0552 H   0  0  0  0  0  0  0  0  0  0  0  0  # atno 10763 bound_to 10752
  154.0228  135.2918  155.3380 H   0  0  0  0  0  0  0  0  0  0  0  0  # atno 10764 bound_to 10752
  154.6890  135.5290  153.8434 H   0  0  0  0  0  0  0  0  0  0  0  0  # atno 10765 bound_to 10752
  139.8793  134.9305  156.5382 H   0  0  0  0  0  0  0  0  0  0  0  0  # atno 11005 bound_to 11000
  145.4380  139.1539  143.3986 LP  0  0  0  0  0  0  0  0  0  0  0  0  # atno 17320 bound_to 7965
  146.2833  140.4500  142.8768 LP  0  0  0  0  0  0  0  0  0  0  0  0  # atno 17321 bound_to 7965
  140.4137  143.2644  151.9801 LP  0  0  0  0  0  0  0  0  0  0  0  0  # atno 17342 bound_to 10162
  139.4802  144.5893  151.7800 LP  0  0  0  0  0  0  0  0  0  0  0  0  # atno 17343 bound_to 10162
  157.5683  130.8293  149.8357 LP  0  0  0  0  0  0  0  0  0  0  0  0  # atno 17370 bound_to 10713
  156.0338  130.3757  150.1616 LP  0  0  0  0  0  0  0  0  0  0  0  0  # atno 17371 bound_to 10713
  140.8330  133.8264  155.9002 LP  0  0  0  0  0  0  0  0  0  0  0  0  # atno 17394 bound_to 11000
  140.9310  134.2021  157.4863 LP  0  0  0  0  0  0  0  0  0  0  0  0  # atno 17395 bound_to 11000

$$$$
