AV-unprocessed.smi:264|AV-procd|sdf|2007|dock4
  -GOLD-   2262021203D 1   1.00000     0.00000
 Structure written by MMmdl.
 52 56  0  0  0  0  0  0  0  0  1 V2000
  145.2357  135.0207  151.8578 C   0  0  0  0  0  0  0  0  0  0  0  0
  145.5017  133.9741  150.7645 C   0  0  2  0  0  0  0  0  0  0  0  0
  144.3428  133.9152  149.9363 O   0  0  0  0  0  0  0  0  0  0  0  0
  144.2007  132.5988  149.4333 C   0  0  0  0  0  0  0  0  0  0  0  0
  144.5872  131.7462  150.6319 C   0  0  0  0  0  0  0  0  0  0  0  0
  145.7579  132.5150  151.2379 C   0  0  1  0  0  0  0  0  0  0  0  0
  146.9462  132.0634  150.6093 O   0  0  0  0  0  0  0  0  0  0  0  0
  145.9166  132.3028  152.7666 C   0  0  0  0  0  0  0  0  0  0  0  0
  147.0215  133.0534  153.3445 N   0  0  0  0  0  0  0  0  0  0  0  0
  148.3642  132.8033  153.1734 C   0  0  0  0  0  0  0  0  0  0  0  0
  149.1672  133.6206  153.7980 N   0  0  0  0  0  0  0  0  0  0  0  0
  148.3144  134.5116  154.4390 C   0  0  0  0  0  0  0  0  0  0  0  0
  148.5132  135.6413  155.2824 C   0  0  0  0  0  0  0  0  0  0  0  0
  149.7467  136.0960  155.6207 N   0  0  0  0  0  0  0  0  0  0  0  0
  150.6381  135.0887  156.1825 C   0  0  0  0  0  0  0  0  0  0  0  0
  151.8469  135.7694  156.8390 C   0  0  0  0  0  0  0  0  0  0  0  0
  152.4998  136.6183  155.8963 O   0  0  0  0  0  0  0  0  0  0  0  0
  151.6662  137.6450  155.3493 C   0  0  1  0  0  0  0  0  0  0  0  0
  151.3289  138.7111  156.3991 C   0  0  0  0  0  0  0  0  0  0  0  0
  151.6215  140.0277  155.6925 C   0  0  0  0  0  0  0  0  0  0  0  0
  152.7490  139.7012  154.9025 O   0  0  0  0  0  0  0  0  0  0  0  0
  152.4891  138.4353  154.3136 C   0  0  0  0  0  0  0  0  0  0  0  0
  150.4221  137.0014  154.6942 C   0  0  0  0  0  0  0  0  0  0  0  0
  147.4032  136.2715  155.7530 N   0  0  0  0  0  0  0  0  0  0  0  0
  146.1853  135.8394  155.4137 C   0  0  0  0  0  0  0  0  0  0  0  0
  145.8529  134.8109  154.6318 N   0  0  0  0  0  0  0  0  0  0  0  0
  146.9603  134.1657  154.1660 C   0  0  0  0  0  0  0  0  0  0  0  0
  146.0922  135.1294  152.5232 H   0  0  0  0  0  0  0  0  0  0  0  0
  144.3649  134.7593  152.4596 H   0  0  0  0  0  0  0  0  0  0  0  0
  145.0430  135.9976  151.4139 H   0  0  0  0  0  0  0  0  0  0  0  0
  146.3310  134.3256  150.1479 H   0  0  0  0  0  0  0  0  0  0  0  0
  143.1846  132.4071  149.0879 H   0  0  0  0  0  0  0  0  0  0  0  0
  144.8875  132.4442  148.5999 H   0  0  0  0  0  0  0  0  0  0  0  0
  143.7491  131.7292  151.3295 H   0  0  0  0  0  0  0  0  0  0  0  0
  144.8228  130.7138  150.3695 H   0  0  0  0  0  0  0  0  0  0  0  0
  146.7283  131.7611  149.7408 H   0  0  0  0  0  0  0  0  0  0  0  0
  145.0028  132.5923  153.2869 H   0  0  0  0  0  0  0  0  0  0  0  0
  146.0795  131.2488  152.9924 H   0  0  0  0  0  0  0  0  0  0  0  0
  148.7311  131.9853  152.5706 H   0  0  0  0  0  0  0  0  0  0  0  0
  150.1302  134.4657  156.9179 H   0  0  0  0  0  0  0  0  0  0  0  0
  150.9720  134.4259  155.3830 H   0  0  0  0  0  0  0  0  0  0  0  0
  151.5381  136.3346  157.7191 H   0  0  0  0  0  0  0  0  0  0  0  0
  152.5564  135.0172  157.1836 H   0  0  0  0  0  0  0  0  0  0  0  0
  150.3055  138.6529  156.7713 H   0  0  0  0  0  0  0  0  0  0  0  0
  151.9982  138.6223  157.2560 H   0  0  0  0  0  0  0  0  0  0  0  0
  150.7905  140.3246  155.0503 H   0  0  0  0  0  0  0  0  0  0  0  0
  151.8349  140.8417  156.3853 H   0  0  0  0  0  0  0  0  0  0  0  0
  153.4176  137.9353  154.0366 H   0  0  0  0  0  0  0  0  0  0  0  0
  151.9181  138.5983  153.3980 H   0  0  0  0  0  0  0  0  0  0  0  0
  150.7240  136.4368  153.8107 H   0  0  0  0  0  0  0  0  0  0  0  0
  149.7343  137.7797  154.3593 H   0  0  0  0  0  0  0  0  0  0  0  0
  145.3592  136.3988  155.8270 H   0  0  0  0  0  0  0  0  0  0  0  0
  1  2  1  0  0  0  0
  1 28  1  0  0  0  0
  1 29  1  0  0  0  0
  1 30  1  0  0  0  0
  2  6  1  0  0  0  0
  2  3  1  0  0  0  0
  2 31  1  0  0  0  0
  3  4  1  0  0  0  0
  4  5  1  0  0  0  0
  4 32  1  0  0  0  0
  4 33  1  0  0  0  0
  5  6  1  0  0  0  0
  5 34  1  0  0  0  0
  5 35  1  0  0  0  0
  6  7  1  0  0  0  0
  6  8  1  0  0  0  0
  7 36  1  0  0  0  0
  8  9  1  0  0  0  0
  8 37  1  0  0  0  0
  8 38  1  0  0  0  0
  9 27  1  0  0  0  0
  9 10  1  0  0  0  0
 10 11  2  0  0  0  0
 10 39  1  0  0  0  0
 11 12  1  0  0  0  0
 12 27  2  0  0  0  0
 12 13  1  0  0  0  0
 13 14  1  0  0  0  0
 13 24  2  0  0  0  0
 14 23  1  0  0  0  0
 14 15  1  0  0  0  0
 15 16  1  0  0  0  0
 15 40  1  0  0  0  0
 15 41  1  0  0  0  0
 16 17  1  0  0  0  0
 16 42  1  0  0  0  0
 16 43  1  0  0  0  0
 17 18  1  0  0  0  0
 18 22  1  0  0  0  0
 18 19  1  0  0  0  0
 18 23  1  0  0  0  0
 19 20  1  0  0  0  0
 19 44  1  0  0  0  0
 19 45  1  0  0  0  0
 20 21  1  0  0  0  0
 20 46  1  0  0  0  0
 20 47  1  0  0  0  0
 21 22  1  0  0  0  0
 22 48  1  0  0  0  0
 22 49  1  0  0  0  0
 23 50  1  0  0  0  0
 23 51  1  0  0  0  0
 24 25  1  0  0  0  0
 25 26  2  0  0  0  0
 25 52  1  0  0  0  0
 26 27  1  0  0  0  0
M  END
> <s_m_source_file>
AV-unprocessed.smi

> <i_m_source_file_index>
264

> <i_lp_mmshare_version>
43012

> <i_f3d_flags>
0

> <s_epik_input>
W0NIMl0xW0NIMl1PW0NAQEhdKFtDSDNdKVtDQEBdMShbT0hdKVtDSDJdbihbY0hdbjIpYyhjMjMpbltjSF1uYzNOKFtDSDJdNClbQ0gyXVtDSDJdT1tDQF00NVtDSDJdW0NIMl1PW0NIMl01

> <s_epik_cmdline>
J2VwaWtfcHl0aG9uJywgJy1waCcsICc3LjAnLCAnLXRuJywgJzgnLCAnLW1hJywgJzIwMCcsICctbWV0YWxfYmluZGluZycsICctaW1hZScsICc8aW5maWxlLm1hZT4nLCAnLW9tYWUnLCAnPG91dGZpbGUubWFlPic=

> <r_lp_tautomer_probability>
1

> <r_epik_Ionization_Penalty>
0.00539389

> <r_epik_Ionization_Penalty_Charging>
0

> <r_epik_Ionization_Penalty_Neutral>
0.00539389

> <r_epik_State_Penalty>
0.00375441

> <r_epik_Charging_Adjusted_Penalty>
0.00375441

> <i_epik_Tot_Q>
0

> <i_epik_Tot_abs_Q>
0

> <r_epik_Metal_State_Penalty>
-0

> <b_epik_Metal_Only>
0

> <s_lp_Force_Field>
OPLS_2005

> <r_lp_Energy>
54.1721

> <b_lp_Chiralities_Consistent>
1

> <s_lp_Variant>
AV-unprocessed.smi:264-1

> <Gold.Version>
5.8.1

> <Gold.Id.Protein>
6NUR|6NUR_protein|mol2

> <Gold.PLP.Fitness>
47.1070

> <Gold.PLP.PLP>
-38.6517

> <Gold.PLP.part.hbond>
-3.3286

> <Gold.PLP.part.metal>
0.0000

> <Gold.PLP.part.buried>
-7.6819

> <Gold.PLP.part.nonpolar>
-29.4224

> <Gold.PLP.part.repulsive>
0.8777

> <Gold.PLP.ligand.clash>
0.0000

> <Gold.PLP.ligand.torsion>
0.5141

> <Gold.PLP.Chemscore.Hbond>
2.0655

> <Gold.PLP.Chemscore.CHOScore>
1.0000

> <Gold.PLP.Chemscore.Metal>
0.0000

> <Gold.Chemscore.Hbonds>
donor molecule, donor type, donor heavy atom, donor atom, acceptor molecule, acceptor atom, score
      P1  H  7989  7998       L1    21  0.02
      P1  H  7997  8008       L1    21  0.99
      P1  H 10752 10765       L1    17  0.93
      L1  C    10    39       P1 10747  0.95

> <Gold.PLP.Chemscore.Internal.Correction>
0.2869

> <Gold.Rescore>
     Score         DG    S(hbond)    S(metal)    S(lipo)     H(rot)  DE(clash)    DE(int)     intcor
     12.38     -15.22       1.50        0.00      86.65       2.11       0.07       2.77       ----

> <Gold.Chemscore.Fitness>
12.3825

> <Gold.Chemscore.DG>
-15.2238

> <Gold.Chemscore.ZeroCoef>
-5.4800

> <Gold.Chemscore.Hbond>
1.4964

> <Gold.Chemscore.Metal>
0.0000

> <Gold.Chemscore.Lipo>
86.6507

> <Gold.Chemscore.Internal_Hbond>
0.0000

> <Gold.Chemscore.DEClash>
0.0726

> <Gold.Chemscore.DEInternal>
2.7688

> <Gold.Chemscore.Rot>
2.1063

> <Gold.Chemscore.Internal.Correction>
   9.000000E+99

> <Gold.Chemscore.Hbonds>
donor molecule, donor type, donor heavy atom, donor atom, acceptor molecule, acceptor atom, score
      P1  H  7997  8008       L1    21  0.76
      P1  H 10752 10765       L1    17  0.19

> <Gold.Chemscore.Hbond.Weighted>
-4.9978

> <Gold.Chemscore.Metal.Weighted>
-0.0000

> <Gold.Chemscore.Lipo.Weighted>
-10.1381

> <Gold.Chemscore.Internal_Hbond.Weighted>
0.0000

> <Gold.Chemscore.DEClash.Weighted>
0.0726

> <Gold.Chemscore.DEInternal.Weighted>
2.7688

> <Gold.Chemscore.Rot.Weighted>
5.3921

> <Gold.Chemscore.Internal.Correction.Weighted>
   9.000000E+99

> <Gold.Protein.RotatedTorsions>
[ 6907 6896 6895 6894 ] final  -28.90 input  -60.11 | X-H torsion
[ 7974 7965 7964 7962 ] final -119.77 input  175.53 | X-H torsion
[ 8008 7997 7996 7995 ] final  -10.98 input   59.86 | X-H torsion
[ 10167 10162 10161 10158 ] final    9.54 input  -65.29 | X-H torsion
[ 10718 10713 10712 10709 ] final   22.26 input   66.30 | X-H torsion
[ 10763 10752 10751 10750 ] final -157.53 input  -60.55 | X-H torsion
[ 11005 11000 10999 10996 ] final  -87.06 input  -57.11 | X-H torsion

> <Gold.Protein.ActiveResidues>
 VAL166  LYS551  ARG553  GLY616  TRP617  ASP618  TYR619  PRO620  LYS621  CYS622 
 ASP623  PHE694  ASN695  SER759  ASP760  ASP761  ALA762  ILE779  LEU786  VAL792 
 PHE793  MET794  SER795  GLU796  ALA797  LYS798  CYS799  TRP800  GLU811  SER814 

> <Gold.Protein.RotatedAtoms>
  151.1265  135.0107  159.8562 H   0  0  0  0  0  0  0  0  0  0  0  0  # atno 6907 bound_to 6896
  152.5449  134.1660  159.8587 H   0  0  0  0  0  0  0  0  0  0  0  0  # atno 6908 bound_to 6896
  151.1723  133.4731  159.2627 H   0  0  0  0  0  0  0  0  0  0  0  0  # atno 6909 bound_to 6896
  145.0588  140.8274  143.4165 H   0  0  0  0  0  0  0  0  0  0  0  0  # atno 7974 bound_to 7965
  154.5506  140.2314  155.8492 H   0  0  0  0  0  0  0  0  0  0  0  0  # atno 8008 bound_to 7997
  156.1943  140.3069  155.9356 H   0  0  0  0  0  0  0  0  0  0  0  0  # atno 8009 bound_to 7997
  155.3078  140.0434  157.3024 H   0  0  0  0  0  0  0  0  0  0  0  0  # atno 8010 bound_to 7997
  140.6248  143.8124  150.7220 H   0  0  0  0  0  0  0  0  0  0  0  0  # atno 10167 bound_to 10162
  157.1499  130.6670  149.6008 H   0  0  0  0  0  0  0  0  0  0  0  0  # atno 10718 bound_to 10713
  154.7629  135.3123  154.8344 H   0  0  0  0  0  0  0  0  0  0  0  0  # atno 10763 bound_to 10752
  153.9100  135.6807  153.4755 H   0  0  0  0  0  0  0  0  0  0  0  0  # atno 10764 bound_to 10752
  153.1231  135.4813  154.9160 H   0  0  0  0  0  0  0  0  0  0  0  0  # atno 10765 bound_to 10752
  141.1622  133.7489  156.9251 H   0  0  0  0  0  0  0  0  0  0  0  0  # atno 11005 bound_to 11000
  145.1435  139.2558  143.5478 LP  0  0  0  0  0  0  0  0  0  0  0  0  # atno 17320 bound_to 7965
  146.3523  140.1118  142.8603 LP  0  0  0  0  0  0  0  0  0  0  0  0  # atno 17321 bound_to 7965
  140.1722  143.4184  152.1992 LP  0  0  0  0  0  0  0  0  0  0  0  0  # atno 17342 bound_to 10162
  139.5470  144.7307  151.4551 LP  0  0  0  0  0  0  0  0  0  0  0  0  # atno 17343 bound_to 10162
  155.9772  130.4748  150.6580 LP  0  0  0  0  0  0  0  0  0  0  0  0  # atno 17370 bound_to 10713
  157.4230  131.0839  151.1113 LP  0  0  0  0  0  0  0  0  0  0  0  0  # atno 17371 bound_to 10713
  140.1424  134.9284  157.2485 LP  0  0  0  0  0  0  0  0  0  0  0  0  # atno 17394 bound_to 11000
  140.2820  134.3339  155.7340 LP  0  0  0  0  0  0  0  0  0  0  0  0  # atno 17395 bound_to 11000

$$$$
