AV-unprocessed.smi:2659|AV-procd|sdf|10313|dock2
  -GOLD-   2272014333D 1   1.00000     0.00000
 Structure written by MMmdl.
 47 48  0  0  0  0  0  0  0  0  1 V2000
  151.1379  137.9365  154.1933 C   0  0  0  0  0  0  0  0  0  0  0  0
  150.3745  139.1427  154.4459 N   0  0  0  0  0  0  0  0  0  0  0  0
  150.9251  140.1566  155.1471 N   0  0  0  0  0  0  0  0  0  0  0  0
  149.9879  141.0976  155.1972 C   0  0  0  0  0  0  0  0  0  0  0  0
  150.2703  142.3960  155.9098 C   0  0  0  0  0  0  0  0  0  0  0  0
  150.6553  142.2584  157.4104 C   0  0  0  0  0  0  0  0  0  0  0  0
  149.3869  142.0726  158.2672 C   0  0  0  0  0  0  0  0  0  0  0  0
  151.3628  143.5523  157.8588 C   0  0  0  0  0  0  0  0  0  0  0  0
  151.6087  141.0694  157.6582 C   0  0  0  0  0  0  0  0  0  0  0  0
  148.7874  140.7104  154.5325 C   0  0  0  0  0  0  0  0  0  0  0  0
  149.0888  139.4594  154.0683 C   0  0  0  0  0  0  0  0  0  0  0  0
  148.3132  138.6030  153.3518 N   0  0  0  0  0  0  0  0  0  0  0  0
  146.9721  138.5365  153.2878 C   0  0  0  0  0  0  0  0  0  0  0  0
  146.1898  139.2700  153.8927 O   0  0  0  0  0  0  0  0  0  0  0  0
  146.5766  137.5528  152.4678 N   0  0  0  0  0  0  0  0  0  0  0  0
  145.1887  137.2042  152.1861 C   0  0  0  0  0  0  0  0  0  0  0  0
  145.0890  136.0312  151.1972 C   0  0  1  0  0  0  0  0  0  0  0  0
  146.0132  134.8639  151.5342 C   0  0  0  0  0  0  0  0  0  0  0  0
  145.3266  133.7213  150.8216 C   0  0  0  0  0  0  0  0  0  0  0  0
  143.8514  134.0528  151.0345 C   0  0  0  0  0  0  0  0  0  0  0  0
  143.7812  135.4655  151.2162 O   0  0  0  0  0  0  0  0  0  0  0  0
  151.1617  137.7357  153.1220 H   0  0  0  0  0  0  0  0  0  0  0  0
  150.6702  137.0947  154.7041 H   0  0  0  0  0  0  0  0  0  0  0  0
  152.1615  138.0467  154.5538 H   0  0  0  0  0  0  0  0  0  0  0  0
  151.0899  142.8860  155.3826 H   0  0  0  0  0  0  0  0  0  0  0  0
  149.4242  143.0762  155.8010 H   0  0  0  0  0  0  0  0  0  0  0  0
  149.6292  142.0259  159.3295 H   0  0  0  0  0  0  0  0  0  0  0  0
  148.8631  141.1505  158.0153 H   0  0  0  0  0  0  0  0  0  0  0  0
  148.6865  142.8968  158.1281 H   0  0  0  0  0  0  0  0  0  0  0  0
  150.7291  144.4260  157.7022 H   0  0  0  0  0  0  0  0  0  0  0  0
  152.2879  143.7136  157.3041 H   0  0  0  0  0  0  0  0  0  0  0  0
  151.6206  143.5199  158.9179 H   0  0  0  0  0  0  0  0  0  0  0  0
  151.9365  141.0363  158.6978 H   0  0  0  0  0  0  0  0  0  0  0  0
  152.5015  141.1423  157.0360 H   0  0  0  0  0  0  0  0  0  0  0  0
  151.1330  140.1116  157.4454 H   0  0  0  0  0  0  0  0  0  0  0  0
  147.8737  141.2744  154.4235 H   0  0  0  0  0  0  0  0  0  0  0  0
  148.8179  137.9339  152.7894 H   0  0  0  0  0  0  0  0  0  0  0  0
  147.2849  136.9945  152.0147 H   0  0  0  0  0  0  0  0  0  0  0  0
  144.6722  136.9599  153.1158 H   0  0  0  0  0  0  0  0  0  0  0  0
  144.6897  138.0830  151.7768 H   0  0  0  0  0  0  0  0  0  0  0  0
  145.2997  136.3659  150.1800 H   0  0  0  0  0  0  0  0  0  0  0  0
  147.0387  135.0229  151.2001 H   0  0  0  0  0  0  0  0  0  0  0  0
  146.0267  134.6796  152.6094 H   0  0  0  0  0  0  0  0  0  0  0  0
  145.5675  133.7473  149.7581 H   0  0  0  0  0  0  0  0  0  0  0  0
  145.6044  132.7417  151.2113 H   0  0  0  0  0  0  0  0  0  0  0  0
  143.2331  133.7304  150.1964 H   0  0  0  0  0  0  0  0  0  0  0  0
  143.4761  133.5698  151.9373 H   0  0  0  0  0  0  0  0  0  0  0  0
  1  2  1  0  0  0  0
  1 22  1  0  0  0  0
  1 23  1  0  0  0  0
  1 24  1  0  0  0  0
  2 11  1  0  0  0  0
  2  3  1  0  0  0  0
  3  4  2  0  0  0  0
  4  5  1  0  0  0  0
  4 10  1  0  0  0  0
  5  6  1  0  0  0  0
  5 25  1  0  0  0  0
  5 26  1  0  0  0  0
  6  7  1  0  0  0  0
  6  8  1  0  0  0  0
  6  9  1  0  0  0  0
  7 27  1  0  0  0  0
  7 28  1  0  0  0  0
  7 29  1  0  0  0  0
  8 30  1  0  0  0  0
  8 31  1  0  0  0  0
  8 32  1  0  0  0  0
  9 33  1  0  0  0  0
  9 34  1  0  0  0  0
  9 35  1  0  0  0  0
 10 11  2  0  0  0  0
 10 36  1  0  0  0  0
 11 12  1  0  0  0  0
 12 13  1  0  0  0  0
 12 37  1  0  0  0  0
 13 14  2  0  0  0  0
 13 15  1  0  0  0  0
 15 16  1  0  0  0  0
 15 38  1  0  0  0  0
 16 17  1  0  0  0  0
 16 39  1  0  0  0  0
 16 40  1  0  0  0  0
 17 21  1  0  0  0  0
 17 18  1  0  0  0  0
 17 41  1  0  0  0  0
 18 19  1  0  0  0  0
 18 42  1  0  0  0  0
 18 43  1  0  0  0  0
 19 20  1  0  0  0  0
 19 44  1  0  0  0  0
 19 45  1  0  0  0  0
 20 21  1  0  0  0  0
 20 46  1  0  0  0  0
 20 47  1  0  0  0  0
M  END
> <s_m_source_file>
AV-unprocessed.smi

> <i_m_source_file_index>
2659

> <i_lp_mmshare_version>
43012

> <i_f3d_flags>
0

> <s_epik_input>
W0NIM11uMW5jKFtDSDJdQyhbQ0gzXSkoW0NIM10pW0NIM10pW2NIXWMxW05IXUMoPU8pW05IXVtDSDJdW0NAQEhdMltDSDJdW0NIMl1bQ0gyXU8y

> <s_epik_cmdline>
J2VwaWtfcHl0aG9uJywgJy1waCcsICc3LjAnLCAnLXRuJywgJzgnLCAnLW1hJywgJzIwMCcsICctbWV0YWxfYmluZGluZycsICctaW1hZScsICc8aW5maWxlLm1hZT4nLCAnLW9tYWUnLCAnPG91dGZpbGUubWFlPic=

> <r_lp_tautomer_probability>
1

> <r_epik_Ionization_Penalty>
9.6187e-05

> <r_epik_Ionization_Penalty_Charging>
0

> <r_epik_Ionization_Penalty_Neutral>
9.6187e-05

> <r_epik_State_Penalty>
-0

> <r_epik_Charging_Adjusted_Penalty>
0

> <i_epik_Tot_Q>
0

> <i_epik_Tot_abs_Q>
0

> <r_epik_Metal_State_Penalty>
-0

> <b_epik_Metal_Only>
0

> <s_lp_Force_Field>
OPLS_2005

> <r_lp_Energy>
21.1922

> <b_lp_Chiralities_Consistent>
1

> <s_lp_Variant>
AV-unprocessed.smi:2659-2

> <Gold.Version>
5.8.1

> <Gold.Id.Protein>
6NUR|6NUR_protein|mol2

> <Gold.PLP.Fitness>
43.5609

> <Gold.PLP.PLP>
-37.4673

> <Gold.PLP.part.hbond>
-4.0000

> <Gold.PLP.part.metal>
0.0000

> <Gold.PLP.part.buried>
-0.9587

> <Gold.PLP.part.nonpolar>
-32.4502

> <Gold.PLP.part.repulsive>
0.4412

> <Gold.PLP.ligand.clash>
0.0000

> <Gold.PLP.ligand.torsion>
0.5076

> <Gold.PLP.Chemscore.Hbond>
2.3575

> <Gold.PLP.Chemscore.CHOScore>
0.0000

> <Gold.PLP.Chemscore.Metal>
0.0000

> <Gold.Chemscore.Hbonds>
donor molecule, donor type, donor heavy atom, donor atom, acceptor molecule, acceptor atom, score
      L1  H    12    37       P1  7948  1.00
      L1  H    15    38       P1  7948  1.00
      P1  H  7989  7998       L1     3  0.27

> <Gold.PLP.Chemscore.Internal.Correction>
0.0364

> <Gold.Rescore>
     Score         DG    S(hbond)    S(metal)    S(lipo)     H(rot)  DE(clash)    DE(int)     intcor
     15.16     -18.65       1.97        0.00      88.90       1.49       0.97       2.52       ----

> <Gold.Chemscore.Fitness>
15.1560

> <Gold.Chemscore.DG>
-18.6451

> <Gold.Chemscore.ZeroCoef>
-5.4800

> <Gold.Chemscore.Hbond>
1.9690

> <Gold.Chemscore.Metal>
0.0000

> <Gold.Chemscore.Lipo>
88.9007

> <Gold.Chemscore.Internal_Hbond>
0.0000

> <Gold.Chemscore.DEClash>
0.9718

> <Gold.Chemscore.DEInternal>
2.5173

> <Gold.Chemscore.Rot>
1.4894

> <Gold.Chemscore.Internal.Correction>
   9.000000E+99

> <Gold.Chemscore.Hbonds>
donor molecule, donor type, donor heavy atom, donor atom, acceptor molecule, acceptor atom, score
      L1  H    12    37       P1  7948  0.97
      L1  H    15    38       P1  7948  0.99

> <Gold.Chemscore.Hbond.Weighted>
-6.5766

> <Gold.Chemscore.Metal.Weighted>
-0.0000

> <Gold.Chemscore.Lipo.Weighted>
-10.4014

> <Gold.Chemscore.Internal_Hbond.Weighted>
0.0000

> <Gold.Chemscore.DEClash.Weighted>
0.9718

> <Gold.Chemscore.DEInternal.Weighted>
2.5173

> <Gold.Chemscore.Rot.Weighted>
3.8129

> <Gold.Chemscore.Internal.Correction.Weighted>
   9.000000E+99

> <Gold.Protein.RotatedTorsions>
[ 6907 6896 6895 6894 ] final  173.03 input  -60.11 | X-H torsion
[ 7974 7965 7964 7962 ] final  -36.11 input  175.53 | X-H torsion
[ 8008 7997 7996 7995 ] final -141.23 input   59.86 | X-H torsion
[ 10167 10162 10161 10158 ] final  133.93 input  -65.29 | X-H torsion
[ 10718 10713 10712 10709 ] final  150.44 input   66.30 | X-H torsion
[ 10763 10752 10751 10750 ] final  177.67 input  -60.55 | X-H torsion
[ 11005 11000 10999 10996 ] final  108.42 input  -57.11 | X-H torsion

> <Gold.Protein.ActiveResidues>
 VAL166  LYS551  ARG553  GLY616  TRP617  ASP618  TYR619  PRO620  LYS621  CYS622 
 ASP623  PHE694  ASN695  SER759  ASP760  ASP761  ALA762  ILE779  LEU786  VAL792 
 PHE793  MET794  SER795  GLU796  ALA797  LYS798  CYS799  TRP800  GLU811  SER814 

> <Gold.Protein.RotatedAtoms>
  151.7749  133.3344  159.3454 H   0  0  0  0  0  0  0  0  0  0  0  0  # atno 6907 bound_to 6896
  150.7448  134.5985  159.6033 H   0  0  0  0  0  0  0  0  0  0  0  0  # atno 6908 bound_to 6896
  152.3316  134.7253  160.0339 H   0  0  0  0  0  0  0  0  0  0  0  0  # atno 6909 bound_to 6896
  146.0690  140.6239  142.8961 H   0  0  0  0  0  0  0  0  0  0  0  0  # atno 7974 bound_to 7965
  155.4745  140.0555  157.2975 H   0  0  0  0  0  0  0  0  0  0  0  0  # atno 8008 bound_to 7997
  154.4685  140.2029  156.0009 H   0  0  0  0  0  0  0  0  0  0  0  0  # atno 8009 bound_to 7997
  156.1016  140.3218  155.7954 H   0  0  0  0  0  0  0  0  0  0  0  0  # atno 8010 bound_to 7997
  139.5277  144.6592  151.5066 H   0  0  0  0  0  0  0  0  0  0  0  0  # atno 10167 bound_to 10162
  157.2834  131.0839  151.1515 H   0  0  0  0  0  0  0  0  0  0  0  0  # atno 10718 bound_to 10713
  154.4975  135.2782  155.1447 H   0  0  0  0  0  0  0  0  0  0  0  0  # atno 10763 bound_to 10752
  154.3094  135.6232  153.5462 H   0  0  0  0  0  0  0  0  0  0  0  0  # atno 10764 bound_to 10752
  152.9897  135.5716  154.5410 H   0  0  0  0  0  0  0  0  0  0  0  0  # atno 10765 bound_to 10752
  139.8844  134.9430  156.5969 H   0  0  0  0  0  0  0  0  0  0  0  0  # atno 11005 bound_to 11000
  144.7220  140.4403  143.7001 LP  0  0  0  0  0  0  0  0  0  0  0  0  # atno 17320 bound_to 7965
  145.6426  139.1552  143.2907 LP  0  0  0  0  0  0  0  0  0  0  0  0  # atno 17321 bound_to 7965
  140.6432  143.8847  150.6712 LP  0  0  0  0  0  0  0  0  0  0  0  0  # atno 17342 bound_to 10162
  140.2188  143.3825  152.1660 LP  0  0  0  0  0  0  0  0  0  0  0  0  # atno 17343 bound_to 10162
  157.2940  130.6810  149.6129 LP  0  0  0  0  0  0  0  0  0  0  0  0  # atno 17370 bound_to 10713
  155.9665  130.4412  150.5331 LP  0  0  0  0  0  0  0  0  0  0  0  0  # atno 17371 bound_to 10713
  140.7913  133.8580  155.8648 LP  0  0  0  0  0  0  0  0  0  0  0  0  # atno 17394 bound_to 11000
  140.9675  134.1575  157.4604 LP  0  0  0  0  0  0  0  0  0  0  0  0  # atno 17395 bound_to 11000

$$$$
