AV-unprocessed.smi:2424|AV-procd|sdf|9569|dock1
  -GOLD-   2272013203D 1   1.00000     0.00000
 Structure written by MMmdl.
 49 50  0  0  0  0  0  0  0  0  2 V2000
  149.8795  138.3638  154.1833 C   0  0  0  0  0  0  0  0  0  0  0  0
  150.8882  137.3178  154.6940 C   0  0  0  0  0  0  0  0  0  0  0  0
  150.4623  136.4765  155.9333 C   0  0  0  0  0  0  0  0  0  0  0  0
  149.7154  137.3717  156.9408 C   0  0  0  0  0  0  0  0  0  0  0  0
  149.4320  136.7089  158.2981 C   0  0  0  0  0  0  0  0  0  0  0  0
  149.8017  135.0924  155.6742 C   0  0  1  0  0  0  0  0  0  0  0  0
  149.1196  134.9496  154.3925 N   0  0  0  0  0  0  0  0  0  0  0  0
  148.1204  134.0890  154.1555 C   0  0  0  0  0  0  0  0  0  0  0  0
  147.6754  133.3219  155.0090 O   0  0  0  0  0  0  0  0  0  0  0  0
  147.6845  134.2006  152.8883 N   0  0  0  0  0  0  0  0  0  0  0  0
  146.6560  133.4955  152.2500 C   0  0  0  0  0  0  0  0  0  0  0  0
  145.7456  134.1616  151.4547 C   0  0  0  0  0  0  0  0  0  0  0  0
  144.6971  133.6621  150.7655 N   0  5  0  0  0  0  0  0  0  0  0  0
  144.4653  132.3198  150.8318 C   0  0  0  0  0  0  0  0  0  0  0  0
  143.5286  131.7939  150.2318 O   0  0  0  0  0  0  0  0  0  0  0  0
  145.3669  131.4811  151.6473 C   0  0  0  0  0  0  0  0  0  0  0  0
  145.1090  129.9854  151.7147 C   0  0  0  0  0  0  0  0  0  0  0  0
  146.3999  132.0566  152.3121 C   0  0  0  0  0  0  0  0  0  0  0  0
  151.1882  134.4394  155.6748 C   0  0  2  0  0  0  0  0  0  0  0  0
  151.3267  133.0145  156.1946 C   0  0  0  0  0  0  0  0  0  0  0  0
  151.5978  135.6241  156.5621 C   0  0  1  0  0  0  0  0  0  0  0  0
  152.8918  136.1497  156.3044 O   0  0  0  0  0  0  0  0  0  0  0  0
  153.1832  137.3131  157.0576 C   0  0  0  0  0  0  0  0  0  0  0  0
  150.2415  138.8180  153.2608 H   0  0  0  0  0  0  0  0  0  0  0  0
  149.7375  139.1738  154.8979 H   0  0  0  0  0  0  0  0  0  0  0  0
  148.9043  137.9328  153.9679 H   0  0  0  0  0  0  0  0  0  0  0  0
  151.1245  136.6578  153.8595 H   0  0  0  0  0  0  0  0  0  0  0  0
  151.8241  137.8370  154.9008 H   0  0  0  0  0  0  0  0  0  0  0  0
  150.2427  138.3132  157.0918 H   0  0  0  0  0  0  0  0  0  0  0  0
  148.7546  137.6667  156.5173 H   0  0  0  0  0  0  0  0  0  0  0  0
  148.8373  137.3689  158.9298 H   0  0  0  0  0  0  0  0  0  0  0  0
  150.3500  136.4827  158.8395 H   0  0  0  0  0  0  0  0  0  0  0  0
  148.8753  135.7794  158.1770 H   0  0  0  0  0  0  0  0  0  0  0  0
  149.2115  134.7472  156.5272 H   0  0  0  0  0  0  0  0  0  0  0  0
  149.4256  135.5478  153.6392 H   0  0  0  0  0  0  0  0  0  0  0  0
  148.1477  134.8873  152.3114 H   0  0  0  0  0  0  0  0  0  0  0  0
  145.8784  135.2610  151.3599 H   0  0  0  0  0  0  0  0  0  0  0  0
  145.8392  129.4837  152.3501 H   0  0  0  0  0  0  0  0  0  0  0  0
  145.1683  129.5438  150.7194 H   0  0  0  0  0  0  0  0  0  0  0  0
  144.1168  129.7881  152.1214 H   0  0  0  0  0  0  0  0  0  0  0  0
  147.0386  131.4119  152.8932 H   0  0  0  0  0  0  0  0  0  0  0  0
  151.6542  134.5372  154.6926 H   0  0  0  0  0  0  0  0  0  0  0  0
  150.9440  132.9219  157.2112 H   0  0  0  0  0  0  0  0  0  0  0  0
  152.3672  132.6910  156.2022 H   0  0  0  0  0  0  0  0  0  0  0  0
  150.7711  132.3149  155.5698 H   0  0  0  0  0  0  0  0  0  0  0  0
  151.4230  135.4332  157.6242 H   0  0  0  0  0  0  0  0  0  0  0  0
  154.1698  137.6856  156.7828 H   0  0  0  0  0  0  0  0  0  0  0  0
  153.1915  137.1043  158.1269 H   0  0  0  0  0  0  0  0  0  0  0  0
  152.4588  138.1038  156.8584 H   0  0  0  0  0  0  0  0  0  0  0  0
  1  2  1  0  0  0  0
  1 24  1  0  0  0  0
  1 25  1  0  0  0  0
  1 26  1  0  0  0  0
  2  3  1  0  0  0  0
  2 27  1  0  0  0  0
  2 28  1  0  0  0  0
  3 21  1  0  0  0  0
  3  4  1  0  0  0  0
  3  6  1  0  0  0  0
  4  5  1  0  0  0  0
  4 29  1  0  0  0  0
  4 30  1  0  0  0  0
  5 31  1  0  0  0  0
  5 32  1  0  0  0  0
  5 33  1  0  0  0  0
  6  7  1  0  0  0  0
  6 19  1  0  0  0  0
  6 34  1  0  0  0  0
  7  8  1  0  0  0  0
  7 35  1  0  0  0  0
  8  9  2  0  0  0  0
  8 10  1  0  0  0  0
 10 11  1  0  0  0  0
 10 36  1  0  0  0  0
 11 18  1  0  0  0  0
 11 12  2  0  0  0  0
 12 13  1  0  0  0  0
 12 37  1  0  0  0  0
 13 14  1  0  0  0  0
 14 15  2  0  0  0  0
 14 16  1  0  0  0  0
 16 17  1  0  0  0  0
 16 18  2  0  0  0  0
 17 38  1  0  0  0  0
 17 39  1  0  0  0  0
 17 40  1  0  0  0  0
 18 41  1  0  0  0  0
 19 20  1  0  0  0  0
 19 21  1  0  0  0  0
 19 42  1  0  0  0  0
 20 43  1  0  0  0  0
 20 44  1  0  0  0  0
 20 45  1  0  0  0  0
 21 22  1  0  0  0  0
 21 46  1  0  0  0  0
 22 23  1  0  0  0  0
 23 47  1  0  0  0  0
 23 48  1  0  0  0  0
 23 49  1  0  0  0  0
M  CHG  1  13  -1
M  END
> <s_m_source_file>
AV-unprocessed.smi

> <i_m_source_file_index>
2424

> <i_lp_mmshare_version>
43012

> <i_f3d_flags>
0

> <s_epik_input>
W0NIM11PW0NAQEhdMVtDQEhdKFtDSDNdKVtDQEBIXShDMShbQ0gyXVtDSDNdKVtDSDJdW0NIM10pW05IXUMoPU8pW05IXWMyW2NIXVtuSF1jKD1PKWMoW0NIM10pW2NIXTI=

> <s_epik_cmdline>
J2VwaWtfcHl0aG9uJywgJy1waCcsICc3LjAnLCAnLXRuJywgJzgnLCAnLW1hJywgJzIwMCcsICctbWV0YWxfYmluZGluZycsICctaW1hZScsICc8aW5maWxlLm1hZT4nLCAnLW9tYWUnLCAnPG91dGZpbGUubWFlPic=

> <r_lp_tautomer_probability>
1

> <r_epik_Ionization_Penalty>
7.6122

> <r_epik_Ionization_Penalty_Charging>
1.53843

> <r_epik_Ionization_Penalty_Neutral>
6.07377

> <r_epik_State_Penalty>
6.07371

> <r_epik_Charging_Adjusted_Penalty>
7.61214

> <i_epik_Tot_Q>
-1

> <i_epik_Tot_abs_Q>
1

> <r_epik_Metal_State_Penalty>
2.02136

> <b_epik_Metal_Only>
1

> <s_lp_Force_Field>
OPLS_2005

> <r_lp_Energy>
39.7535

> <b_lp_Chiralities_Consistent>
1

> <s_lp_Variant>
AV-unprocessed.smi:2424-11

> <Gold.Version>
5.8.1

> <Gold.Id.Protein>
6NUR|6NUR_protein|mol2

> <Gold.PLP.Fitness>
41.6717

> <Gold.PLP.PLP>
-32.0721

> <Gold.PLP.part.hbond>
-4.0000

> <Gold.PLP.part.metal>
0.0000

> <Gold.PLP.part.buried>
-5.5910

> <Gold.PLP.part.nonpolar>
-22.9702

> <Gold.PLP.part.repulsive>
0.3204

> <Gold.PLP.ligand.clash>
0.0000

> <Gold.PLP.ligand.torsion>
1.1768

> <Gold.PLP.Chemscore.Hbond>
3.7440

> <Gold.PLP.Chemscore.CHOScore>
0.0000

> <Gold.PLP.Chemscore.Metal>
0.0000

> <Gold.Chemscore.Hbonds>
donor molecule, donor type, donor heavy atom, donor atom, acceptor molecule, acceptor atom, score
      L1  H     7    35       P1  7948  0.90
      L1  H    10    36       P1  7948  1.00
      P1  H 10752 10763       L1    22  0.68
      P1  H 10785 10796       L1    15  0.46

> <Gold.PLP.Chemscore.Internal.Correction>
0.7212

> <Gold.Rescore>
     Score         DG    S(hbond)    S(metal)    S(lipo)     H(rot)  DE(clash)    DE(int)     intcor
     19.59     -21.06       3.17        0.00      76.05       1.52       0.50       0.97       ----

> <Gold.Chemscore.Fitness>
19.5935

> <Gold.Chemscore.DG>
-21.0635

> <Gold.Chemscore.ZeroCoef>
-5.4800

> <Gold.Chemscore.Hbond>
3.1671

> <Gold.Chemscore.Metal>
0.0000

> <Gold.Chemscore.Lipo>
76.0490

> <Gold.Chemscore.Internal_Hbond>
0.0000

> <Gold.Chemscore.DEClash>
0.4979

> <Gold.Chemscore.DEInternal>
0.9721

> <Gold.Chemscore.Rot>
1.5204

> <Gold.Chemscore.Internal.Correction>
   9.000000E+99

> <Gold.Chemscore.Hbonds>
donor molecule, donor type, donor heavy atom, donor atom, acceptor molecule, acceptor atom, score
      L1  H     7    35       P1  7948  0.26
      L1  H    10    36       P1  7948  0.49
      P1  H 10752 10763       L1    22  0.19
      P1  H 10785 10796       L1    15  0.43

> <Gold.Chemscore.Hbond.Weighted>
-10.5780

> <Gold.Chemscore.Metal.Weighted>
-0.0000

> <Gold.Chemscore.Lipo.Weighted>
-8.8977

> <Gold.Chemscore.Internal_Hbond.Weighted>
0.0000

> <Gold.Chemscore.DEClash.Weighted>
0.4979

> <Gold.Chemscore.DEInternal.Weighted>
0.9721

> <Gold.Chemscore.Rot.Weighted>
3.8922

> <Gold.Chemscore.Internal.Correction.Weighted>
   9.000000E+99

> <Gold.Protein.RotatedTorsions>
[ 6907 6896 6895 6894 ] final  123.91 input  -60.11 | X-H torsion
[ 7974 7965 7964 7962 ] final  -21.35 input  175.53 | X-H torsion
[ 8008 7997 7996 7995 ] final   56.83 input   59.86 | X-H torsion
[ 10167 10162 10161 10158 ] final  126.12 input  -65.29 | X-H torsion
[ 10718 10713 10712 10709 ] final -123.32 input   66.30 | X-H torsion
[ 10763 10752 10751 10750 ] final   94.37 input  -60.55 | X-H torsion
[ 11005 11000 10999 10996 ] final   62.22 input  -57.11 | X-H torsion

> <Gold.Protein.ActiveResidues>
 VAL166  LYS551  ARG553  GLY616  TRP617  ASP618  TYR619  PRO620  LYS621  CYS622 
 ASP623  PHE694  ASN695  SER759  ASP760  ASP761  ALA762  ILE779  LEU786  VAL792 
 PHE793  MET794  SER795  GLU796  ALA797  LYS798  CYS799  TRP800  GLU811  SER814 

> <Gold.Protein.RotatedAtoms>
  152.4122  133.6982  159.6407 H   0  0  0  0  0  0  0  0  0  0  0  0  # atno 6907 bound_to 6896
  150.8002  133.8603  159.3239 H   0  0  0  0  0  0  0  0  0  0  0  0  # atno 6908 bound_to 6896
  151.6342  135.1021  160.0179 H   0  0  0  0  0  0  0  0  0  0  0  0  # atno 6909 bound_to 6896
  146.1738  140.4329  142.8522 H   0  0  0  0  0  0  0  0  0  0  0  0  # atno 7974 bound_to 7965
  155.5239  140.3480  155.4412 H   0  0  0  0  0  0  0  0  0  0  0  0  # atno 8008 bound_to 7997
  156.0765  140.1376  156.9791 H   0  0  0  0  0  0  0  0  0  0  0  0  # atno 8009 bound_to 7997
  154.4556  140.0955  156.6724 H   0  0  0  0  0  0  0  0  0  0  0  0  # atno 8010 bound_to 7997
  139.5648  144.6904  151.3941 H   0  0  0  0  0  0  0  0  0  0  0  0  # atno 10167 bound_to 10162
  156.1492  130.6522  150.9888 H   0  0  0  0  0  0  0  0  0  0  0  0  # atno 10718 bound_to 10713
  153.2409  135.4292  155.0696 H   0  0  0  0  0  0  0  0  0  0  0  0  # atno 10763 bound_to 10752
  154.8340  135.3402  154.6651 H   0  0  0  0  0  0  0  0  0  0  0  0  # atno 10764 bound_to 10752
  153.7075  135.7025  153.5103 H   0  0  0  0  0  0  0  0  0  0  0  0  # atno 10765 bound_to 10752
  140.0107  134.6300  155.9785 H   0  0  0  0  0  0  0  0  0  0  0  0  # atno 11005 bound_to 11000
  144.8204  140.6539  143.6357 LP  0  0  0  0  0  0  0  0  0  0  0  0  # atno 17320 bound_to 7965
  145.4268  139.1555  143.4044 LP  0  0  0  0  0  0  0  0  0  0  0  0  # atno 17321 bound_to 7965
  140.6931  143.7815  150.7285 LP  0  0  0  0  0  0  0  0  0  0  0  0  # atno 17342 bound_to 10162
  140.1303  143.4532  152.2258 LP  0  0  0  0  0  0  0  0  0  0  0  0  # atno 17343 bound_to 10162
  157.6643  131.0875  150.7766 LP  0  0  0  0  0  0  0  0  0  0  0  0  # atno 17370 bound_to 10713
  156.7835  130.4867  149.5397 LP  0  0  0  0  0  0  0  0  0  0  0  0  # atno 17371 bound_to 10713
  141.1709  133.6537  156.4648 LP  0  0  0  0  0  0  0  0  0  0  0  0  # atno 17394 bound_to 11000
  140.4559  134.6885  157.5062 LP  0  0  0  0  0  0  0  0  0  0  0  0  # atno 17395 bound_to 11000

$$$$
