AV-unprocessed.smi:1721|AV-procd|sdf|6935|dock8
  -GOLD-   22720 8143D 1   1.00000     0.00000
 Structure written by MMmdl.
 44 46  0  0  0  0  0  0  0  0  2 V2000
  151.7023  138.2493  154.5301 C   0  0  0  0  0  0  0  0  0  0  0  0
  150.3495  138.2370  154.0874 O   0  0  0  0  0  0  0  0  0  0  0  0
  149.6002  139.3910  154.2201 C   0  0  0  0  0  0  0  0  0  0  0  0
  150.1952  140.4858  154.7566 N   0  0  0  0  0  0  0  0  0  0  0  0
  149.4675  141.6128  154.8896 C   0  0  0  0  0  0  0  0  0  0  0  0
  148.1198  141.7082  154.4994 C   0  0  0  0  0  0  0  0  0  0  0  0
  147.4997  140.5747  153.9422 C   0  0  0  0  0  0  0  0  0  0  0  0
  148.2509  139.3817  153.7932 C   0  0  0  0  0  0  0  0  0  0  0  0
  147.7423  138.1684  153.2460 N   0  0  0  0  0  0  0  0  0  0  0  0
  146.4715  137.7670  153.0700 C   0  0  0  0  0  0  0  0  0  0  0  0
  145.4656  138.4093  153.3674 O   0  0  0  0  0  0  0  0  0  0  0  0
  146.4264  136.5493  152.5113 N   0  0  0  0  0  0  0  0  0  0  0  0
  145.2053  135.8161  152.1887 C   0  0  2  0  0  0  0  0  0  0  0  0
  144.1217  135.9623  153.2504 C   0  0  0  0  0  0  0  0  0  0  0  0
  143.2099  134.7721  152.9471 C   0  0  0  0  0  0  0  0  0  0  0  0
  144.0969  133.6930  152.4540 N   0  3  1  0  0  0  0  0  0  0  0  0
  143.5015  132.8441  151.3931 C   0  0  0  0  0  0  0  0  0  0  0  0
  144.4835  131.7383  150.9626 C   0  0  0  0  0  0  0  0  0  0  0  0
  145.8987  132.2708  150.6551 C   0  0  0  0  0  0  0  0  0  0  0  0
  145.9879  133.8000  150.7744 C   0  0  0  0  0  0  0  0  0  0  0  0
  145.4209  134.2943  152.1252 C   0  0  1  0  0  0  0  0  0  0  0  0
  152.1457  137.2682  154.3607 H   0  0  0  0  0  0  0  0  0  0  0  0
  151.7717  138.4629  155.5978 H   0  0  0  0  0  0  0  0  0  0  0  0
  152.2958  138.9799  153.9788 H   0  0  0  0  0  0  0  0  0  0  0  0
  149.9742  142.4635  155.3206 H   0  0  0  0  0  0  0  0  0  0  0  0
  147.5729  142.6309  154.6253 H   0  0  0  0  0  0  0  0  0  0  0  0
  146.4662  140.6549  153.6484 H   0  0  0  0  0  0  0  0  0  0  0  0
  148.4518  137.5182  152.9398 H   0  0  0  0  0  0  0  0  0  0  0  0
  147.3019  136.0928  152.3002 H   0  0  0  0  0  0  0  0  0  0  0  0
  144.7913  136.1702  151.2418 H   0  0  0  0  0  0  0  0  0  0  0  0
  144.5478  135.8608  154.2498 H   0  0  0  0  0  0  0  0  0  0  0  0
  143.6001  136.9187  153.1982 H   0  0  0  0  0  0  0  0  0  0  0  0
  142.6385  134.4512  153.8185 H   0  0  0  0  0  0  0  0  0  0  0  0
  142.4991  135.0553  152.1691 H   0  0  0  0  0  0  0  0  0  0  0  0
  142.5758  132.3990  151.7593 H   0  0  0  0  0  0  0  0  0  0  0  0
  143.2337  133.4628  150.5351 H   0  0  0  0  0  0  0  0  0  0  0  0
  144.5499  130.9879  151.7513 H   0  0  0  0  0  0  0  0  0  0  0  0
  144.0837  131.2197  150.0905 H   0  0  0  0  0  0  0  0  0  0  0  0
  146.6088  131.8182  151.3484 H   0  0  0  0  0  0  0  0  0  0  0  0
  146.2100  131.9578  149.6578 H   0  0  0  0  0  0  0  0  0  0  0  0
  147.0245  134.1186  150.6625 H   0  0  0  0  0  0  0  0  0  0  0  0
  145.4421  134.2573  149.9479 H   0  0  0  0  0  0  0  0  0  0  0  0
  146.0962  133.9905  152.9268 H   0  0  0  0  0  0  0  0  0  0  0  0
  144.2684  133.0811  153.2391 H   0  0  0  0  0  0  0  0  0  0  0  0
  1  2  1  0  0  0  0
  1 22  1  0  0  0  0
  1 23  1  0  0  0  0
  1 24  1  0  0  0  0
  2  3  1  0  0  0  0
  3  8  1  0  0  0  0
  3  4  2  0  0  0  0
  4  5  1  0  0  0  0
  5  6  2  0  0  0  0
  5 25  1  0  0  0  0
  6  7  1  0  0  0  0
  6 26  1  0  0  0  0
  7  8  2  0  0  0  0
  7 27  1  0  0  0  0
  8  9  1  0  0  0  0
  9 10  1  0  0  0  0
  9 28  1  0  0  0  0
 10 11  2  0  0  0  0
 10 12  1  0  0  0  0
 12 13  1  0  0  0  0
 12 29  1  0  0  0  0
 13 21  1  0  0  0  0
 13 14  1  0  0  0  0
 13 30  1  0  0  0  0
 14 15  1  0  0  0  0
 14 31  1  0  0  0  0
 14 32  1  0  0  0  0
 15 16  1  0  0  0  0
 15 33  1  0  0  0  0
 15 34  1  0  0  0  0
 16 21  1  0  0  0  0
 16 17  1  0  0  0  0
 16 44  1  0  0  0  0
 17 18  1  0  0  0  0
 17 35  1  0  0  0  0
 17 36  1  0  0  0  0
 18 19  1  0  0  0  0
 18 37  1  0  0  0  0
 18 38  1  0  0  0  0
 19 20  1  0  0  0  0
 19 39  1  0  0  0  0
 19 40  1  0  0  0  0
 20 21  1  0  0  0  0
 20 41  1  0  0  0  0
 20 42  1  0  0  0  0
 21 43  1  0  0  0  0
M  CHG  1  16   1
M  END
> <s_m_source_file>
AV-unprocessed.smi

> <i_m_source_file_index>
1721

> <i_lp_mmshare_version>
43012

> <i_f3d_flags>
0

> <s_epik_input>
W0NIM11PYzFuW2NIXVtjSF1bY0hdYzFbTkhdQyg9TylbTkhdW0NASF0oW0NIMl1bQ0gyXTIpW0NAQEhdKE4yMylbQ0gyXVtDSDJdW0NIMl1bQ0gyXTM=

> <s_epik_cmdline>
J2VwaWtfcHl0aG9uJywgJy1waCcsICc3LjAnLCAnLXRuJywgJzgnLCAnLW1hJywgJzIwMCcsICctbWV0YWxfYmluZGluZycsICctaW1hZScsICc8aW5maWxlLm1hZT4nLCAnLW9tYWUnLCAnPG91dGZpbGUubWFlPic=

> <r_lp_tautomer_probability>
1

> <r_epik_Ionization_Penalty>
0.00104793

> <r_epik_Ionization_Penalty_Charging>
0.000974069

> <r_epik_Ionization_Penalty_Neutral>
7.38649e-05

> <r_epik_State_Penalty>
0.000633842

> <r_epik_Charging_Adjusted_Penalty>
0.00160791

> <i_epik_Tot_Q>
1

> <i_epik_Tot_abs_Q>
1

> <r_epik_Metal_State_Penalty>
-0

> <b_epik_Metal_Only>
0

> <s_lp_Force_Field>
OPLS_2005

> <r_lp_Energy>
42.7216

> <b_lp_Chiralities_Consistent>
1

> <s_lp_Variant>
AV-unprocessed.smi:1721-1

> <Gold.Version>
5.8.1

> <Gold.Id.Protein>
6NUR|6NUR_protein|mol2

> <Gold.PLP.Fitness>
46.7092

> <Gold.PLP.PLP>
-36.0013

> <Gold.PLP.part.hbond>
-3.0000

> <Gold.PLP.part.metal>
0.0000

> <Gold.PLP.part.buried>
-4.1882

> <Gold.PLP.part.nonpolar>
-30.6091

> <Gold.PLP.part.repulsive>
2.2347

> <Gold.PLP.ligand.clash>
0.0000

> <Gold.PLP.ligand.torsion>
0.3855

> <Gold.PLP.Chemscore.Hbond>
2.9520

> <Gold.PLP.Chemscore.CHOScore>
0.8718

> <Gold.PLP.Chemscore.Metal>
0.0000

> <Gold.Chemscore.Hbonds>
donor molecule, donor type, donor heavy atom, donor atom, acceptor molecule, acceptor atom, score
      L1  H     9    28       P1  7948  0.99
      L1  H    12    29       P1  7948  0.98
      P1  H  7989  7998       L1     4  0.96
      L1  C     5    25       P1  8028  0.87

> <Gold.PLP.Chemscore.Internal.Correction>
0.0075

> <Gold.Rescore>
     Score         DG    S(hbond)    S(metal)    S(lipo)     H(rot)  DE(clash)    DE(int)     intcor
     15.98     -18.93       2.17        0.00      80.33       1.25       0.27       2.69       ----

> <Gold.Chemscore.Fitness>
15.9751

> <Gold.Chemscore.DG>
-18.9319

> <Gold.Chemscore.ZeroCoef>
-5.4800

> <Gold.Chemscore.Hbond>
2.1696

> <Gold.Chemscore.Metal>
0.0000

> <Gold.Chemscore.Lipo>
80.3333

> <Gold.Chemscore.Internal_Hbond>
0.0000

> <Gold.Chemscore.DEClash>
0.2684

> <Gold.Chemscore.DEInternal>
2.6884

> <Gold.Chemscore.Rot>
1.2474

> <Gold.Chemscore.Internal.Correction>
   9.000000E+99

> <Gold.Chemscore.Hbonds>
donor molecule, donor type, donor heavy atom, donor atom, acceptor molecule, acceptor atom, score
      L1  H     9    28       P1  7948  0.94
      L1  H    12    29       P1  7948  0.93
      P1  H  7989  7998       L1     4  0.22

> <Gold.Chemscore.Hbond.Weighted>
-7.2464

> <Gold.Chemscore.Metal.Weighted>
-0.0000

> <Gold.Chemscore.Lipo.Weighted>
-9.3990

> <Gold.Chemscore.Internal_Hbond.Weighted>
0.0000

> <Gold.Chemscore.DEClash.Weighted>
0.2684

> <Gold.Chemscore.DEInternal.Weighted>
2.6884

> <Gold.Chemscore.Rot.Weighted>
3.1934

> <Gold.Chemscore.Internal.Correction.Weighted>
   9.000000E+99

> <Gold.Protein.RotatedTorsions>
[ 6907 6896 6895 6894 ] final  117.96 input  -60.11 | X-H torsion
[ 7974 7965 7964 7962 ] final  -15.39 input  175.53 | X-H torsion
[ 8008 7997 7996 7995 ] final -174.49 input   59.86 | X-H torsion
[ 10167 10162 10161 10158 ] final   64.70 input  -65.29 | X-H torsion
[ 10718 10713 10712 10709 ] final   -9.78 input   66.30 | X-H torsion
[ 10763 10752 10751 10750 ] final -131.77 input  -60.55 | X-H torsion
[ 11005 11000 10999 10996 ] final   53.28 input  -57.11 | X-H torsion

> <Gold.Protein.ActiveResidues>
 VAL166  LYS551  ARG553  GLY616  TRP617  ASP618  TYR619  PRO620  LYS621  CYS622 
 ASP623  PHE694  ASN695  SER759  ASP760  ASP761  ALA762  ILE779  LEU786  VAL792 
 PHE793  MET794  SER795  GLU796  ALA797  LYS798  CYS799  TRP800  GLU811  SER814 

> <Gold.Protein.RotatedAtoms>
  152.4576  133.7755  159.6821 H   0  0  0  0  0  0  0  0  0  0  0  0  # atno 6907 bound_to 6896
  150.8508  133.7781  159.3032 H   0  0  0  0  0  0  0  0  0  0  0  0  # atno 6908 bound_to 6896
  151.5377  135.1071  159.9970 H   0  0  0  0  0  0  0  0  0  0  0  0  # atno 6909 bound_to 6896
  146.2034  140.3486  142.8415 H   0  0  0  0  0  0  0  0  0  0  0  0  # atno 7974 bound_to 7965
  155.9707  140.1162  157.0814 H   0  0  0  0  0  0  0  0  0  0  0  0  # atno 8008 bound_to 7997
  154.4156  140.1164  156.5370 H   0  0  0  0  0  0  0  0  0  0  0  0  # atno 8009 bound_to 7997
  155.6600  140.3473  155.4781 H   0  0  0  0  0  0  0  0  0  0  0  0  # atno 8010 bound_to 7997
  140.1193  144.4746  150.6930 H   0  0  0  0  0  0  0  0  0  0  0  0  # atno 10167 bound_to 10162
  156.6830  130.5042  149.5966 H   0  0  0  0  0  0  0  0  0  0  0  0  # atno 10718 bound_to 10713
  154.8748  135.3819  154.4301 H   0  0  0  0  0  0  0  0  0  0  0  0  # atno 10763 bound_to 10752
  153.4996  135.7030  153.5844 H   0  0  0  0  0  0  0  0  0  0  0  0  # atno 10764 bound_to 10752
  153.4182  135.3908  155.2061 H   0  0  0  0  0  0  0  0  0  0  0  0  # atno 10765 bound_to 10752
  140.0780  134.5378  155.8976 H   0  0  0  0  0  0  0  0  0  0  0  0  # atno 11005 bound_to 11000
  144.8735  140.7304  143.6032 LP  0  0  0  0  0  0  0  0  0  0  0  0  # atno 17320 bound_to 7965
  145.3406  139.1733  143.4488 LP  0  0  0  0  0  0  0  0  0  0  0  0  # atno 17321 bound_to 7965
  140.6881  143.2361  151.5205 LP  0  0  0  0  0  0  0  0  0  0  0  0  # atno 17342 bound_to 10162
  139.5577  144.2233  152.1640 LP  0  0  0  0  0  0  0  0  0  0  0  0  # atno 17343 bound_to 10162
  156.1854  130.6525  151.1000 LP  0  0  0  0  0  0  0  0  0  0  0  0  # atno 17370 bound_to 10713
  157.7037  131.0765  150.6738 LP  0  0  0  0  0  0  0  0  0  0  0  0  # atno 17371 bound_to 10713
  141.2036  133.6633  156.6074 LP  0  0  0  0  0  0  0  0  0  0  0  0  # atno 17394 bound_to 11000
  140.3530  134.7753  157.4480 LP  0  0  0  0  0  0  0  0  0  0  0  0  # atno 17395 bound_to 11000

$$$$
