AV-unprocessed.smi:39|AV-procd|sdf|362|dock1
  -GOLD-   2262016203D 1   1.00000     0.00000
 Structure written by MMmdl.
 31 32  0  0  0  0  0  0  0  0  4 V2000
  152.1343  142.9787  159.9641 C   0  0  0  0  0  0  0  0  0  0  0  0
  152.6268  141.6035  159.5487 C   0  0  0  0  0  0  0  0  0  0  0  0
  152.0010  140.8692  158.6021 C   0  0  0  0  0  0  0  0  0  0  0  0
  152.4533  139.6147  158.2257 N   0  0  0  0  0  0  0  0  0  0  0  0
  151.7404  138.7893  157.1713 C   0  0  2  0  0  0  0  0  0  0  0  0
  152.6071  138.6518  155.9046 C   0  0  0  0  0  0  0  0  0  0  0  0
  151.6569  139.0717  154.7917 C   0  0  1  0  0  0  0  0  0  0  0  0
  150.8843  137.9266  154.2892 N   0  0  0  0  0  0  0  0  0  0  0  0
  151.1797  136.8152  154.7473 N   0  3  0  0  0  0  0  0  0  0  0  0
  151.4894  135.7635  155.0521 N   0  5  0  0  0  0  0  0  0  0  0  0
  150.7748  140.0823  155.5342 C   0  0  1  0  0  0  0  0  0  0  0  0
  149.4393  140.4176  154.8481 C   0  0  0  0  0  0  0  0  0  0  0  0
  149.6745  140.9393  153.5573 O   0  0  0  0  0  0  0  0  0  0  0  0
  150.5593  139.4288  156.7798 O   0  0  0  0  0  0  0  0  0  0  0  0
  153.5977  139.0657  158.8622 C   0  0  0  0  0  0  0  0  0  0  0  0
  153.9655  137.9416  158.5189 O   0  0  0  0  0  0  0  0  0  0  0  0
  154.2369  139.8001  159.8166 N   0  5  0  0  0  0  0  0  0  0  0  0
  153.8187  141.0416  160.1955 C   0  0  0  0  0  0  0  0  0  0  0  0
  154.4071  141.6956  161.0564 O   0  0  0  0  0  0  0  0  0  0  0  0
  151.4978  137.8411  157.6539 H   0  0  0  0  0  0  0  0  0  0  0  0
  152.1930  139.5646  153.9784 H   0  0  0  0  0  0  0  0  0  0  0  0
  151.3538  140.9948  155.6919 H   0  0  0  0  0  0  0  0  0  0  0  0
  151.2538  143.2741  159.3928 H   0  0  0  0  0  0  0  0  0  0  0  0
  152.9101  143.7273  159.7995 H   0  0  0  0  0  0  0  0  0  0  0  0
  151.8687  142.9832  161.0216 H   0  0  0  0  0  0  0  0  0  0  0  0
  151.1218  141.2869  158.1365 H   0  0  0  0  0  0  0  0  0  0  0  0
  153.4522  139.3405  155.9548 H   0  0  0  0  0  0  0  0  0  0  0  0
  152.9945  137.6372  155.8039 H   0  0  0  0  0  0  0  0  0  0  0  0
  148.8412  139.5135  154.7312 H   0  0  0  0  0  0  0  0  0  0  0  0
  148.8535  141.1223  155.4391 H   0  0  0  0  0  0  0  0  0  0  0  0
  149.5830  140.2392  152.9293 H   0  0  0  0  0  0  0  0  0  0  0  0
  1  2  1  0  0  0  0
  1 23  1  0  0  0  0
  1 24  1  0  0  0  0
  1 25  1  0  0  0  0
  2 18  1  0  0  0  0
  2  3  2  0  0  0  0
  3  4  1  0  0  0  0
  3 26  1  0  0  0  0
  4  5  1  0  0  0  0
  4 15  1  0  0  0  0
  5 20  1  0  0  0  0
  5 14  1  0  0  0  0
  5  6  1  0  0  0  0
  6  7  1  0  0  0  0
  6 27  1  0  0  0  0
  6 28  1  0  0  0  0
  7 21  1  0  0  0  0
  7  8  1  0  0  0  0
  7 11  1  0  0  0  0
  8  9  2  0  0  0  0
  9 10  2  0  0  0  0
 11 22  1  0  0  0  0
 11 12  1  0  0  0  0
 11 14  1  0  0  0  0
 12 13  1  0  0  0  0
 12 29  1  0  0  0  0
 12 30  1  0  0  0  0
 13 31  1  0  0  0  0
 15 16  2  0  0  0  0
 15 17  1  0  0  0  0
 17 18  1  0  0  0  0
 18 19  2  0  0  0  0
M  CHG  1   9   1
M  CHG  1  10  -1
M  CHG  1  17  -1
M  END
> <s_m_source_file>
AV-unprocessed.smi

> <i_m_source_file_index>
39

> <i_lp_mmshare_version>
43012

> <i_f3d_flags>
0

> <s_epik_input>
Tz1jMVtuSF1jKD1PKW4oW2NIXWMxW0NIM10pW0NASF0yW0NIMl1bQ0BIXShOPVtOK109W04tXSlbQ0BIXShPMilbQ0gyXVtPSF0=

> <s_epik_cmdline>
J2VwaWtfcHl0aG9uJywgJy1waCcsICc3LjAnLCAnLXRuJywgJzgnLCAnLW1hJywgJzIwMCcsICctbWV0YWxfYmluZGluZycsICctaW1hZScsICc8aW5maWxlLm1hZT4nLCAnLW9tYWUnLCAnPG91dGZpbGUubWFlPic=

> <r_lp_tautomer_probability>
0.999537

> <r_epik_Ionization_Penalty>
3.6393

> <r_epik_Ionization_Penalty_Charging>
9.76484e-08

> <r_epik_Ionization_Penalty_Neutral>
3.6393

> <r_epik_State_Penalty>
3.63887

> <r_epik_Charging_Adjusted_Penalty>
3.63887

> <i_epik_Tot_Q>
-1

> <i_epik_Tot_abs_Q>
3

> <r_epik_Metal_State_Penalty>
0.225911

> <b_epik_Metal_Only>
1

> <s_epik_Chemistry_Notes>
This compound contains an acetal/aminal-like group ( X-CH(R)-Y where X, Y are N, S, or O) that may be acid/base labile, releasing an aldehyde.

> <s_lp_Force_Field>
OPLS_2005

> <r_lp_Energy>
37.741

> <b_lp_Chiralities_Consistent>
1

> <s_lp_Variant>
AV-unprocessed.smi:39-12

> <Gold.Version>
5.8.1

> <Gold.Id.Protein>
6NUR|6NUR_protein|mol2

> <Gold.PLP.Fitness>
40.1175

> <Gold.PLP.PLP>
-31.4814

> <Gold.PLP.part.hbond>
-4.7822

> <Gold.PLP.part.metal>
0.0000

> <Gold.PLP.part.buried>
-2.0957

> <Gold.PLP.part.nonpolar>
-24.3530

> <Gold.PLP.part.repulsive>
0.4921

> <Gold.PLP.ligand.clash>
0.0000

> <Gold.PLP.ligand.torsion>
0.1344

> <Gold.PLP.Chemscore.Hbond>
2.9504

> <Gold.PLP.Chemscore.CHOScore>
0.0000

> <Gold.PLP.Chemscore.Metal>
0.0000

> <Gold.Chemscore.Hbonds>
donor molecule, donor type, donor heavy atom, donor atom, acceptor molecule, acceptor atom, score
      L1  H    13    31       P1  7957  0.75
      P1  H  7989  7998       L1    13  0.20
      P1  H  8011  8017       L1    13  0.95
      P1  H 10752 10763       L1    10  0.98

> <Gold.PLP.Chemscore.Internal.Correction>
0.0537

> <Gold.Rescore>
     Score         DG    S(hbond)    S(metal)    S(lipo)     H(rot)  DE(clash)    DE(int)     intcor
     11.07     -12.34       2.16        0.00      56.23       2.72       0.24       1.03       ----

> <Gold.Chemscore.Fitness>
11.0651

> <Gold.Chemscore.DG>
-12.3391

> <Gold.Chemscore.ZeroCoef>
-5.4800

> <Gold.Chemscore.Hbond>
2.1649

> <Gold.Chemscore.Metal>
0.0000

> <Gold.Chemscore.Lipo>
56.2350

> <Gold.Chemscore.Internal_Hbond>
0.0000

> <Gold.Chemscore.DEClash>
0.2417

> <Gold.Chemscore.DEInternal>
1.0324

> <Gold.Chemscore.Rot>
2.7153

> <Gold.Chemscore.Internal.Correction>
   9.000000E+99

> <Gold.Chemscore.Hbonds>
donor molecule, donor type, donor heavy atom, donor atom, acceptor molecule, acceptor atom, score
      L1  H    13    31       P1  7957  0.76
      P1  H  7989  7998       L1    13  0.01
      P1  H  8011  8017       L1    13  0.21
      P1  H 10752 10763       L1    10  0.60

> <Gold.Chemscore.Hbond.Weighted>
-7.2308

> <Gold.Chemscore.Metal.Weighted>
-0.0000

> <Gold.Chemscore.Lipo.Weighted>
-6.5795

> <Gold.Chemscore.Internal_Hbond.Weighted>
0.0000

> <Gold.Chemscore.DEClash.Weighted>
0.2417

> <Gold.Chemscore.DEInternal.Weighted>
1.0324

> <Gold.Chemscore.Rot.Weighted>
6.9512

> <Gold.Chemscore.Internal.Correction.Weighted>
   9.000000E+99

> <Gold.Protein.RotatedTorsions>
[ 6907 6896 6895 6894 ] final  134.81 input  -60.11 | X-H torsion
[ 7974 7965 7964 7962 ] final  -65.07 input  175.53 | X-H torsion
[ 8008 7997 7996 7995 ] final  125.88 input   59.86 | X-H torsion
[ 10167 10162 10161 10158 ] final   31.91 input  -65.29 | X-H torsion
[ 10718 10713 10712 10709 ] final -151.12 input   66.30 | X-H torsion
[ 10763 10752 10751 10750 ] final   60.33 input  -60.55 | X-H torsion
[ 11005 11000 10999 10996 ] final  124.44 input  -57.11 | X-H torsion

> <Gold.Protein.ActiveResidues>
 VAL166  LYS551  ARG553  GLY616  TRP617  ASP618  TYR619  PRO620  LYS621  CYS622 
 ASP623  PHE694  ASN695  SER759  ASP760  ASP761  ALA762  ILE779  LEU786  VAL792 
 PHE793  MET794  SER795  GLU796  ALA797  LYS798  CYS799  TRP800  GLU811  SER814 

> <Gold.Protein.RotatedAtoms>
  152.3072  133.5716  159.5656 H   0  0  0  0  0  0  0  0  0  0  0  0  # atno 6907 bound_to 6896
  150.7305  134.0205  159.3708 H   0  0  0  0  0  0  0  0  0  0  0  0  # atno 6908 bound_to 6896
  151.8100  135.0684  160.0462 H   0  0  0  0  0  0  0  0  0  0  0  0  # atno 6909 bound_to 6896
  145.7589  140.8872  143.0440 H   0  0  0  0  0  0  0  0  0  0  0  0  # atno 7974 bound_to 7965
  156.2847  140.2706  156.2021 H   0  0  0  0  0  0  0  0  0  0  0  0  # atno 8008 bound_to 7997
  155.0350  140.0386  157.2506 H   0  0  0  0  0  0  0  0  0  0  0  0  # atno 8009 bound_to 7997
  154.7322  140.2709  155.6451 H   0  0  0  0  0  0  0  0  0  0  0  0  # atno 8010 bound_to 7997
  140.4546  144.0997  150.6199 H   0  0  0  0  0  0  0  0  0  0  0  0  # atno 10167 bound_to 10162
  156.4551  130.8186  151.2417 H   0  0  0  0  0  0  0  0  0  0  0  0  # atno 10718 bound_to 10713
  152.9918  135.5540  154.5857 H   0  0  0  0  0  0  0  0  0  0  0  0  # atno 10763 bound_to 10752
  154.5229  135.2809  155.1249 H   0  0  0  0  0  0  0  0  0  0  0  0  # atno 10764 bound_to 10752
  154.2595  135.6384  153.5322 H   0  0  0  0  0  0  0  0  0  0  0  0  # atno 10765 bound_to 10752
  139.9359  134.9639  156.8410 H   0  0  0  0  0  0  0  0  0  0  0  0  # atno 11005 bound_to 11000
  144.6834  139.9694  143.7482 LP  0  0  0  0  0  0  0  0  0  0  0  0  # atno 17320 bound_to 7965
  146.0284  139.3313  143.0770 LP  0  0  0  0  0  0  0  0  0  0  0  0  # atno 17321 bound_to 7965
  140.4166  143.2631  151.9767 LP  0  0  0  0  0  0  0  0  0  0  0  0  # atno 17342 bound_to 10162
  139.4800  144.5868  151.7839 LP  0  0  0  0  0  0  0  0  0  0  0  0  # atno 17343 bound_to 10162
  157.7501  131.0125  150.3388 LP  0  0  0  0  0  0  0  0  0  0  0  0  # atno 17370 bound_to 10713
  156.3775  130.3874  149.7127 LP  0  0  0  0  0  0  0  0  0  0  0  0  # atno 17371 bound_to 10713
  140.6077  134.0111  155.7564 LP  0  0  0  0  0  0  0  0  0  0  0  0  # atno 17394 bound_to 11000
  141.0972  133.9825  157.3140 LP  0  0  0  0  0  0  0  0  0  0  0  0  # atno 17395 bound_to 11000

$$$$
