AV-unprocessed.smi:2452|AV-procd|sdf|9685|dock9
  -GOLD-   2272013323D 1   1.00000     0.00000
 Structure written by MMmdl.
 34 35  0  0  0  0  0  0  0  0  1 V2000
  147.4398  141.5642  153.7641 C   0  0  0  0  0  0  0  0  0  0  0  0
  148.6675  140.7765  154.1290 C   0  0  0  0  0  0  0  0  0  0  0  0
  149.6777  141.3971  154.7205 N   0  0  0  0  0  0  0  0  0  0  0  0
  150.6993  140.4475  154.8759 O   0  0  0  0  0  0  0  0  0  0  0  0
  150.2764  139.2598  154.3695 C   0  0  0  0  0  0  0  0  0  0  0  0
  151.2350  138.1191  154.4257 C   0  0  0  0  0  0  0  0  0  0  0  0
  148.9989  139.4061  153.9158 C   0  0  0  0  0  0  0  0  0  0  0  0
  148.2403  138.3831  153.2940 N   0  0  0  0  0  0  0  0  0  0  0  0
  146.9035  138.3183  153.2027 C   0  0  0  0  0  0  0  0  0  0  0  0
  146.1238  139.1167  153.7222 O   0  0  0  0  0  0  0  0  0  0  0  0
  146.5110  137.2555  152.4875 N   0  0  0  0  0  0  0  0  0  0  0  0
  145.1242  136.9174  152.1878 C   0  0  0  0  0  0  0  0  0  0  0  0
  145.0283  135.7426  151.1998 C   0  0  2  0  0  0  0  0  0  0  0  0
  143.7894  134.8734  151.3907 C   0  0  0  0  0  0  0  0  0  0  0  0
  144.1956  133.5620  150.7421 C   0  0  0  0  0  0  0  0  0  0  0  0
  145.7273  133.5922  150.7749 C   0  0  0  0  0  0  0  0  0  0  0  0
  146.0785  134.8133  151.4154 O   0  0  0  0  0  0  0  0  0  0  0  0
  146.9931  141.1941  152.8413 H   0  0  0  0  0  0  0  0  0  0  0  0
  147.6733  142.6182  153.6106 H   0  0  0  0  0  0  0  0  0  0  0  0
  146.6873  141.5043  154.5503 H   0  0  0  0  0  0  0  0  0  0  0  0
  150.9156  137.3057  153.7743 H   0  0  0  0  0  0  0  0  0  0  0  0
  151.3103  137.7299  155.4410 H   0  0  0  0  0  0  0  0  0  0  0  0
  152.2297  138.4333  154.1091 H   0  0  0  0  0  0  0  0  0  0  0  0
  148.7617  137.5938  152.9423 H   0  0  0  0  0  0  0  0  0  0  0  0
  147.2201  136.6492  152.1022 H   0  0  0  0  0  0  0  0  0  0  0  0
  144.6211  136.6655  153.1217 H   0  0  0  0  0  0  0  0  0  0  0  0
  144.6112  137.7926  151.7853 H   0  0  0  0  0  0  0  0  0  0  0  0
  145.0706  136.0959  150.1676 H   0  0  0  0  0  0  0  0  0  0  0  0
  143.5997  134.7138  152.4532 H   0  0  0  0  0  0  0  0  0  0  0  0
  142.8932  135.3088  150.9477 H   0  0  0  0  0  0  0  0  0  0  0  0
  143.7855  132.7044  151.2762 H   0  0  0  0  0  0  0  0  0  0  0  0
  143.8433  133.5164  149.7109 H   0  0  0  0  0  0  0  0  0  0  0  0
  146.1469  132.7449  151.3180 H   0  0  0  0  0  0  0  0  0  0  0  0
  146.1333  133.5814  149.7626 H   0  0  0  0  0  0  0  0  0  0  0  0
  1  2  1  0  0  0  0
  1 18  1  0  0  0  0
  1 19  1  0  0  0  0
  1 20  1  0  0  0  0
  2  7  1  0  0  0  0
  2  3  2  0  0  0  0
  3  4  1  0  0  0  0
  4  5  1  0  0  0  0
  5  6  1  0  0  0  0
  5  7  2  0  0  0  0
  6 21  1  0  0  0  0
  6 22  1  0  0  0  0
  6 23  1  0  0  0  0
  7  8  1  0  0  0  0
  8  9  1  0  0  0  0
  8 24  1  0  0  0  0
  9 10  2  0  0  0  0
  9 11  1  0  0  0  0
 11 12  1  0  0  0  0
 11 25  1  0  0  0  0
 12 13  1  0  0  0  0
 12 26  1  0  0  0  0
 12 27  1  0  0  0  0
 13 17  1  0  0  0  0
 13 14  1  0  0  0  0
 13 28  1  0  0  0  0
 14 15  1  0  0  0  0
 14 29  1  0  0  0  0
 14 30  1  0  0  0  0
 15 16  1  0  0  0  0
 15 31  1  0  0  0  0
 15 32  1  0  0  0  0
 16 17  1  0  0  0  0
 16 33  1  0  0  0  0
 16 34  1  0  0  0  0
M  END
> <s_m_source_file>
AV-unprocessed.smi

> <i_m_source_file_index>
2452

> <i_lp_mmshare_version>
43012

> <i_f3d_flags>
0

> <s_epik_input>
W0NIM11jMW5vYyhbQ0gzXSljMVtOSF1DKD1PKVtOSF1bQ0gyXVtDQEBIXTJbQ0gyXVtDSDJdW0NIMl1PMg==

> <s_epik_cmdline>
J2VwaWtfcHl0aG9uJywgJy1waCcsICc3LjAnLCAnLXRuJywgJzgnLCAnLW1hJywgJzIwMCcsICctbWV0YWxfYmluZGluZycsICctaW1hZScsICc8aW5maWxlLm1hZT4nLCAnLW9tYWUnLCAnPG91dGZpbGUubWFlPic=

> <r_lp_tautomer_probability>
1

> <r_epik_Ionization_Penalty>
3.28451e-05

> <r_epik_Ionization_Penalty_Charging>
0

> <r_epik_Ionization_Penalty_Neutral>
3.28451e-05

> <r_epik_State_Penalty>
-0

> <r_epik_Charging_Adjusted_Penalty>
0

> <i_epik_Tot_Q>
0

> <i_epik_Tot_abs_Q>
0

> <r_epik_Metal_State_Penalty>
-0

> <b_epik_Metal_Only>
0

> <s_lp_Force_Field>
OPLS_2005

> <r_lp_Energy>
18.3338

> <b_lp_Chiralities_Consistent>
1

> <s_lp_Variant>
AV-unprocessed.smi:2452-1

> <Gold.Version>
5.8.1

> <Gold.Id.Protein>
6NUR|6NUR_protein|mol2

> <Gold.PLP.Fitness>
38.5663

> <Gold.PLP.PLP>
-30.8940

> <Gold.PLP.part.hbond>
-4.5891

> <Gold.PLP.part.metal>
0.0000

> <Gold.PLP.part.buried>
-4.1815

> <Gold.PLP.part.nonpolar>
-23.9170

> <Gold.PLP.part.repulsive>
0.6001

> <Gold.PLP.ligand.clash>
0.0000

> <Gold.PLP.ligand.torsion>
0.4926

> <Gold.PLP.Chemscore.Hbond>
2.8000

> <Gold.PLP.Chemscore.CHOScore>
0.0000

> <Gold.PLP.Chemscore.Metal>
0.0000

> <Gold.Chemscore.Hbonds>
donor molecule, donor type, donor heavy atom, donor atom, acceptor molecule, acceptor atom, score
      L1  H     8    24       P1  7948  1.00
      L1  H    11    25       P1  7948  1.00
      P1  H  7989  7998       L1     4  0.68

> <Gold.PLP.Chemscore.Internal.Correction>
0.2575

> <Gold.Rescore>
     Score         DG    S(hbond)    S(metal)    S(lipo)     H(rot)  DE(clash)    DE(int)     intcor
     13.99     -16.48       1.95        0.00      65.30       1.23       0.08       2.41       ----

> <Gold.Chemscore.Fitness>
13.9914

> <Gold.Chemscore.DG>
-16.4787

> <Gold.Chemscore.ZeroCoef>
-5.4800

> <Gold.Chemscore.Hbond>
1.9511

> <Gold.Chemscore.Metal>
0.0000

> <Gold.Chemscore.Lipo>
65.3020

> <Gold.Chemscore.Internal_Hbond>
0.0000

> <Gold.Chemscore.DEClash>
0.0807

> <Gold.Chemscore.DEInternal>
2.4067

> <Gold.Chemscore.Rot>
1.2337

> <Gold.Chemscore.Internal.Correction>
   9.000000E+99

> <Gold.Chemscore.Hbonds>
donor molecule, donor type, donor heavy atom, donor atom, acceptor molecule, acceptor atom, score
      L1  H     8    24       P1  7948  0.96
      L1  H    11    25       P1  7948  0.95
      P1  H  7989  7998       L1     4  0.02

> <Gold.Chemscore.Hbond.Weighted>
-6.5166

> <Gold.Chemscore.Metal.Weighted>
-0.0000

> <Gold.Chemscore.Lipo.Weighted>
-7.6403

> <Gold.Chemscore.Internal_Hbond.Weighted>
0.0000

> <Gold.Chemscore.DEClash.Weighted>
0.0807

> <Gold.Chemscore.DEInternal.Weighted>
2.4067

> <Gold.Chemscore.Rot.Weighted>
3.1582

> <Gold.Chemscore.Internal.Correction.Weighted>
   9.000000E+99

> <Gold.Protein.RotatedTorsions>
[ 6907 6896 6895 6894 ] final -163.89 input  -60.11 | X-H torsion
[ 7974 7965 7964 7962 ] final   30.70 input  175.53 | X-H torsion
[ 8008 7997 7996 7995 ] final   22.29 input   59.86 | X-H torsion
[ 10167 10162 10161 10158 ] final  -23.19 input  -65.29 | X-H torsion
[ 10718 10713 10712 10709 ] final  -55.28 input   66.30 | X-H torsion
[ 10763 10752 10751 10750 ] final  141.31 input  -60.55 | X-H torsion
[ 11005 11000 10999 10996 ] final -118.04 input  -57.11 | X-H torsion

> <Gold.Protein.ActiveResidues>
 VAL166  LYS551  ARG553  GLY616  TRP617  ASP618  TYR619  PRO620  LYS621  CYS622 
 ASP623  PHE694  ASN695  SER759  ASP760  ASP761  ALA762  ILE779  LEU786  VAL792 
 PHE793  MET794  SER795  GLU796  ALA797  LYS798  CYS799  TRP800  GLU811  SER814 

> <Gold.Protein.RotatedAtoms>
  151.4032  133.3751  159.2734 H   0  0  0  0  0  0  0  0  0  0  0  0  # atno 6907 bound_to 6896
  150.9418  134.8828  159.7627 H   0  0  0  0  0  0  0  0  0  0  0  0  # atno 6908 bound_to 6896
  152.5074  134.3983  159.9460 H   0  0  0  0  0  0  0  0  0  0  0  0  # atno 6909 bound_to 6896
  146.1596  139.6754  142.9043 H   0  0  0  0  0  0  0  0  0  0  0  0  # atno 7974 bound_to 7965
  154.9635  140.3081  155.5020 H   0  0  0  0  0  0  0  0  0  0  0  0  # atno 8008 bound_to 7997
  156.2974  140.2297  156.4661 H   0  0  0  0  0  0  0  0  0  0  0  0  # atno 8009 bound_to 7997
  154.7943  140.0438  157.1213 H   0  0  0  0  0  0  0  0  0  0  0  0  # atno 8010 bound_to 7997
  140.7287  143.4465  151.0579 H   0  0  0  0  0  0  0  0  0  0  0  0  # atno 10167 bound_to 10162
  156.1382  130.4156  150.0149 H   0  0  0  0  0  0  0  0  0  0  0  0  # atno 10718 bound_to 10713
  153.9372  135.2984  155.3444 H   0  0  0  0  0  0  0  0  0  0  0  0  # atno 10763 bound_to 10752
  154.7496  135.4986  153.9268 H   0  0  0  0  0  0  0  0  0  0  0  0  # atno 10764 bound_to 10752
  153.1061  135.6747  153.9690 H   0  0  0  0  0  0  0  0  0  0  0  0  # atno 10765 bound_to 10752
  141.0313  133.9977  157.3138 H   0  0  0  0  0  0  0  0  0  0  0  0  # atno 11005 bound_to 11000
  145.4623  141.0433  143.2745 LP  0  0  0  0  0  0  0  0  0  0  0  0  # atno 17320 bound_to 7965
  144.8008  139.6144  143.7072 LP  0  0  0  0  0  0  0  0  0  0  0  0  # atno 17321 bound_to 7965
  139.8137  143.7915  152.3173 LP  0  0  0  0  0  0  0  0  0  0  0  0  # atno 17342 bound_to 10162
  139.7973  144.7387  150.9872 LP  0  0  0  0  0  0  0  0  0  0  0  0  # atno 17343 bound_to 10162
  156.8042  130.9301  151.3645 LP  0  0  0  0  0  0  0  0  0  0  0  0  # atno 17370 bound_to 10713
  157.6551  130.8918  149.9713 LP  0  0  0  0  0  0  0  0  0  0  0  0  # atno 17371 bound_to 10713
  139.9210  135.0200  156.8063 LP  0  0  0  0  0  0  0  0  0  0  0  0  # atno 17394 bound_to 11000
  140.6401  133.9826  155.7703 LP  0  0  0  0  0  0  0  0  0  0  0  0  # atno 17395 bound_to 11000

$$$$
