AV-unprocessed.smi:3252|AV-procd|sdf|12442|dock3
  -GOLD-   2272018333D 1   1.00000     0.00000
 Structure written by MMmdl.
 37 38  0  0  0  0  0  0  0  0  2 V2000
  141.9986  142.2363  155.6372 C   0  0  0  0  0  0  0  0  0  0  0  0
  143.4032  142.8487  155.5411 C   0  0  0  0  0  0  0  0  0  0  0  0
  144.4256  141.8667  155.1017 N   0  3  2  0  0  0  0  0  0  0  0  0
  144.5821  140.7507  156.0643 C   0  0  0  0  0  0  0  0  0  0  0  0
  145.6172  139.7369  155.5516 C   0  0  0  0  0  0  0  0  0  0  0  0
  146.8518  140.4002  155.3148 O   0  0  0  0  0  0  0  0  0  0  0  0
  146.7410  141.4061  154.3126 C   0  0  2  0  0  0  0  0  0  0  0  0
  148.1371  141.9968  154.0718 C   0  0  0  0  0  0  0  0  0  0  0  0
  149.1221  140.9571  153.8074 N   0  0  0  0  0  0  0  0  0  0  0  0
  150.0925  140.6314  154.7644 C   0  0  0  0  0  0  0  0  0  0  0  0
  149.9641  141.1629  156.0650 C   0  0  0  0  0  0  0  0  0  0  0  0
  150.9344  140.8348  157.0323 C   0  0  0  0  0  0  0  0  0  0  0  0
  151.9979  139.9868  156.6651 C   0  0  0  0  0  0  0  0  0  0  0  0
  153.0218  139.6165  157.6271 C   0  0  0  0  0  0  0  0  0  0  0  0
  153.8369  139.3214  158.3933 N   0  0  0  0  0  0  0  0  0  0  0  0
  152.0424  139.5057  155.3408 C   0  0  0  0  0  0  0  0  0  0  0  0
  151.1146  139.8165  154.4094 N   0  0  0  0  0  0  0  0  0  0  0  0
  145.7444  142.4767  154.7994 C   0  0  0  0  0  0  0  0  0  0  0  0
  141.2949  142.9582  156.0521 H   0  0  0  0  0  0  0  0  0  0  0  0
  141.9931  141.3610  156.2874 H   0  0  0  0  0  0  0  0  0  0  0  0
  141.6144  141.9363  154.6626 H   0  0  0  0  0  0  0  0  0  0  0  0
  143.4021  143.7124  154.8746 H   0  0  0  0  0  0  0  0  0  0  0  0
  143.6726  143.2216  156.5304 H   0  0  0  0  0  0  0  0  0  0  0  0
  144.8936  141.1446  157.0331 H   0  0  0  0  0  0  0  0  0  0  0  0
  143.6243  140.2507  156.2137 H   0  0  0  0  0  0  0  0  0  0  0  0
  145.7745  138.9528  156.2924 H   0  0  0  0  0  0  0  0  0  0  0  0
  145.2695  139.2488  154.6400 H   0  0  0  0  0  0  0  0  0  0  0  0
  146.3734  140.9644  153.3840 H   0  0  0  0  0  0  0  0  0  0  0  0
  148.1056  142.6676  153.2122 H   0  0  0  0  0  0  0  0  0  0  0  0
  148.4488  142.5901  154.9325 H   0  0  0  0  0  0  0  0  0  0  0  0
  149.0226  140.3860  152.9806 H   0  0  0  0  0  0  0  0  0  0  0  0
  149.1383  141.8105  156.3219 H   0  0  0  0  0  0  0  0  0  0  0  0
  150.8580  141.2292  158.0355 H   0  0  0  0  0  0  0  0  0  0  0  0
  152.8397  138.8535  155.0147 H   0  0  0  0  0  0  0  0  0  0  0  0
  145.6371  143.2412  154.0305 H   0  0  0  0  0  0  0  0  0  0  0  0
  146.1301  142.9730  155.6918 H   0  0  0  0  0  0  0  0  0  0  0  0
  144.0845  141.4569  154.2437 H   0  0  0  0  0  0  0  0  0  0  0  0
  1  2  1  0  0  0  0
  1 19  1  0  0  0  0
  1 20  1  0  0  0  0
  1 21  1  0  0  0  0
  2  3  1  0  0  0  0
  2 22  1  0  0  0  0
  2 23  1  0  0  0  0
  3 18  1  0  0  0  0
  3  4  1  0  0  0  0
  3 37  1  0  0  0  0
  4  5  1  0  0  0  0
  4 24  1  0  0  0  0
  4 25  1  0  0  0  0
  5  6  1  0  0  0  0
  5 26  1  0  0  0  0
  5 27  1  0  0  0  0
  6  7  1  0  0  0  0
  7  8  1  0  0  0  0
  7 18  1  0  0  0  0
  7 28  1  0  0  0  0
  8  9  1  0  0  0  0
  8 29  1  0  0  0  0
  8 30  1  0  0  0  0
  9 10  1  0  0  0  0
  9 31  1  0  0  0  0
 10 17  1  0  0  0  0
 10 11  2  0  0  0  0
 11 12  1  0  0  0  0
 11 32  1  0  0  0  0
 12 13  2  0  0  0  0
 12 33  1  0  0  0  0
 13 14  1  0  0  0  0
 13 16  1  0  0  0  0
 14 15  3  0  0  0  0
 16 17  2  0  0  0  0
 16 34  1  0  0  0  0
 18 35  1  0  0  0  0
 18 36  1  0  0  0  0
M  CHG  1   3   1
M  END
> <s_m_source_file>
AV-unprocessed.smi

> <i_m_source_file_index>
3252

> <i_lp_mmshare_version>
43012

> <i_f3d_flags>
0

> <s_epik_input>
W0NIM11bQ0gyXU4xW0NIMl1bQ0gyXU9bQ0BIXShbQ0gyXTEpW0NIMl1bTkhdYzJbY0hdW2NIXWMoQyNOKVtjSF1uMg==

> <s_epik_cmdline>
J2VwaWtfcHl0aG9uJywgJy1waCcsICc3LjAnLCAnLXRuJywgJzgnLCAnLW1hJywgJzIwMCcsICctbWV0YWxfYmluZGluZycsICctaW1hZScsICc8aW5maWxlLm1hZT4nLCAnLW9tYWUnLCAnPG91dGZpbGUubWFlPic=

> <r_epik_Ionization_Penalty>
0.178512

> <r_epik_Ionization_Penalty_Charging>
0.178504

> <r_epik_Ionization_Penalty_Neutral>
8.15545e-06

> <r_epik_State_Penalty>
0.167974

> <r_epik_Charging_Adjusted_Penalty>
0.346478

> <i_epik_Tot_Q>
1

> <i_epik_Tot_abs_Q>
1

> <r_epik_Metal_State_Penalty>
0.167974

> <b_epik_Metal_Only>
0

> <s_lp_Force_Field>
OPLS_2005

> <r_lp_Energy>
17.709

> <b_lp_Chiralities_Consistent>
1

> <s_lp_Variant>
AV-unprocessed.smi:3252-4

> <Gold.Version>
5.8.1

> <Gold.Id.Protein>
6NUR|6NUR_protein|mol2

> <Gold.PLP.Fitness>
38.3596

> <Gold.PLP.PLP>
-25.2133

> <Gold.PLP.part.hbond>
-4.1288

> <Gold.PLP.part.metal>
0.0000

> <Gold.PLP.part.buried>
0.0549

> <Gold.PLP.part.nonpolar>
-20.5389

> <Gold.PLP.part.repulsive>
0.4232

> <Gold.PLP.ligand.clash>
0.0000

> <Gold.PLP.ligand.torsion>
0.1464

> <Gold.PLP.Chemscore.Hbond>
4.4760

> <Gold.PLP.Chemscore.CHOScore>
0.0000

> <Gold.PLP.Chemscore.Metal>
0.0000

> <Gold.Chemscore.Hbonds>
donor molecule, donor type, donor heavy atom, donor atom, acceptor molecule, acceptor atom, score
      L1  H     3    37       P1 10175  2.00
      L1  H     9    31       P1  7957  0.93
      P1  H  7989  7998       L1    17  0.44
      P1  H  7997  8008       L1    15  0.25

> <Gold.PLP.Chemscore.Internal.Correction>
0.0112

> <Gold.Rescore>
     Score         DG    S(hbond)    S(metal)    S(lipo)     H(rot)  DE(clash)    DE(int)     intcor
     14.29     -14.65       2.32        0.00      44.33       1.47       0.15       0.21       ----

> <Gold.Chemscore.Fitness>
14.2885

> <Gold.Chemscore.DG>
-14.6453

> <Gold.Chemscore.ZeroCoef>
-5.4800

> <Gold.Chemscore.Hbond>
2.3163

> <Gold.Chemscore.Metal>
0.0000

> <Gold.Chemscore.Lipo>
44.3344

> <Gold.Chemscore.Internal_Hbond>
0.0000

> <Gold.Chemscore.DEClash>
0.1508

> <Gold.Chemscore.DEInternal>
0.2059

> <Gold.Chemscore.Rot>
1.4681

> <Gold.Chemscore.Internal.Correction>
   9.000000E+99

> <Gold.Chemscore.Hbonds>
donor molecule, donor type, donor heavy atom, donor atom, acceptor molecule, acceptor atom, score
      L1  H     3    37       P1 10175  0.28
      L1  H     9    31       P1  7957  0.90
      P1  H  7989  7998       L1    17  0.01

> <Gold.Chemscore.Hbond.Weighted>
-7.7366

> <Gold.Chemscore.Metal.Weighted>
-0.0000

> <Gold.Chemscore.Lipo.Weighted>
-5.1871

> <Gold.Chemscore.Internal_Hbond.Weighted>
0.0000

> <Gold.Chemscore.DEClash.Weighted>
0.1508

> <Gold.Chemscore.DEInternal.Weighted>
0.2059

> <Gold.Chemscore.Rot.Weighted>
3.7584

> <Gold.Chemscore.Internal.Correction.Weighted>
   9.000000E+99

> <Gold.Protein.RotatedTorsions>
[ 6907 6896 6895 6894 ] final -157.01 input  -60.11 | X-H torsion
[ 7974 7965 7964 7962 ] final -173.98 input  175.53 | X-H torsion
[ 8008 7997 7996 7995 ] final -111.28 input   59.86 | X-H torsion
[ 10167 10162 10161 10158 ] final   58.16 input  -65.29 | X-H torsion
[ 10718 10713 10712 10709 ] final  109.78 input   66.30 | X-H torsion
[ 10763 10752 10751 10750 ] final  120.87 input  -60.55 | X-H torsion
[ 11005 11000 10999 10996 ] final  144.07 input  -57.11 | X-H torsion

> <Gold.Protein.ActiveResidues>
 VAL166  LYS551  ARG553  GLY616  TRP617  ASP618  TYR619  PRO620  LYS621  CYS622 
 ASP623  PHE694  ASN695  SER759  ASP760  ASP761  ALA762  ILE779  LEU786  VAL792 
 PHE793  MET794  SER795  GLU796  ALA797  LYS798  CYS799  TRP800  GLU811  SER814 

> <Gold.Protein.RotatedAtoms>
  151.2964  133.4142  159.2636 H   0  0  0  0  0  0  0  0  0  0  0  0  # atno 6907 bound_to 6896
  151.0233  134.9486  159.8082 H   0  0  0  0  0  0  0  0  0  0  0  0  # atno 6908 bound_to 6896
  152.5329  134.2926  159.9101 H   0  0  0  0  0  0  0  0  0  0  0  0  # atno 6909 bound_to 6896
  144.7134  140.1541  143.6382 H   0  0  0  0  0  0  0  0  0  0  0  0  # atno 7974 bound_to 7965
  154.9874  140.0395  157.2304 H   0  0  0  0  0  0  0  0  0  0  0  0  # atno 8008 bound_to 7997
  154.7659  140.2793  155.6154 H   0  0  0  0  0  0  0  0  0  0  0  0  # atno 8009 bound_to 7997
  156.2912  140.2619  156.2449 H   0  0  0  0  0  0  0  0  0  0  0  0  # atno 8010 bound_to 7997
  140.1902  144.4094  150.6575 H   0  0  0  0  0  0  0  0  0  0  0  0  # atno 10167 bound_to 10162
  157.6525  131.0920  150.6505 H   0  0  0  0  0  0  0  0  0  0  0  0  # atno 10718 bound_to 10713
  153.6053  135.3440  155.2960 H   0  0  0  0  0  0  0  0  0  0  0  0  # atno 10763 bound_to 10752
  154.8628  135.4237  154.2368 H   0  0  0  0  0  0  0  0  0  0  0  0  # atno 10764 bound_to 10752
  153.3206  135.7038  153.7105 H   0  0  0  0  0  0  0  0  0  0  0  0  # atno 10765 bound_to 10752
  140.0604  134.9208  157.1173 H   0  0  0  0  0  0  0  0  0  0  0  0  # atno 11005 bound_to 11000
  145.9090  139.2476  143.1449 LP  0  0  0  0  0  0  0  0  0  0  0  0  # atno 17320 bound_to 7965
  145.9735  140.8741  143.0150 LP  0  0  0  0  0  0  0  0  0  0  0  0  # atno 17321 bound_to 7965
  140.6461  143.2214  151.6182 LP  0  0  0  0  0  0  0  0  0  0  0  0  # atno 17342 bound_to 10162
  139.5259  144.3061  152.1033 LP  0  0  0  0  0  0  0  0  0  0  0  0  # atno 17343 bound_to 10162
  156.6815  130.4568  149.5626 LP  0  0  0  0  0  0  0  0  0  0  0  0  # atno 17370 bound_to 10713
  156.1926  130.6569  151.1078 LP  0  0  0  0  0  0  0  0  0  0  0  0  # atno 17371 bound_to 10713
  140.3780  134.2318  155.7173 LP  0  0  0  0  0  0  0  0  0  0  0  0  # atno 17394 bound_to 11000
  141.1970  133.8068  157.0645 LP  0  0  0  0  0  0  0  0  0  0  0  0  # atno 17395 bound_to 11000

$$$$
