AV-unprocessed.smi:72|AV-procd|sdf|713|dock2
  -GOLD-   2262017 33D 1   1.00000     0.00000
 Structure written by MMmdl.
 28 29  0  0  0  0  0  0  0  0  2 V2000
  154.2838  138.5262  154.3160 N   0  0  0  0  0  0  0  0  0  0  0  0
  153.0493  138.7396  154.4547 C   0  0  0  0  0  0  0  0  0  0  0  0
  152.0853  137.8455  153.8525 N   0  0  0  0  0  0  0  0  0  0  0  0
  150.8266  138.1258  153.9974 C   0  0  0  0  0  0  0  0  0  0  0  0
  150.3778  139.3093  154.7242 N   0  0  0  0  0  0  0  0  0  0  0  0
  148.9058  139.6521  154.9056 C   0  0  2  0  0  0  0  0  0  0  0  0
  148.1136  138.7748  154.1562 O   0  0  0  0  0  0  0  0  0  0  0  0
  147.7548  139.3844  152.9194 C   0  0  1  0  0  0  0  0  0  0  0  0
  146.5684  138.6586  152.2615 C   0  0  0  0  0  0  0  0  0  0  0  0
  147.0389  137.7089  151.3287 O   0  0  0  0  0  0  0  0  0  0  0  0
  147.4962  140.8319  153.3471 C   0  0  1  0  0  0  0  0  0  0  0  0
  146.1962  140.9625  153.9004 O   0  0  0  0  0  0  0  0  0  0  0  0
  148.6009  141.0716  154.3763 C   0  0  1  0  0  0  0  0  0  0  0  0
  148.2089  141.9783  155.3903 O   0  0  0  0  0  0  0  0  0  0  0  0
  151.3496  140.1405  155.3449 C   0  0  0  0  0  0  0  0  0  0  0  0
  150.9544  141.1050  156.0003 O   0  0  0  0  0  0  0  0  0  0  0  0
  152.6689  139.8383  155.1919 N   0  5  0  0  0  0  0  0  0  0  0  0
  148.7059  139.5083  155.9689 H   0  0  0  0  0  0  0  0  0  0  0  0
  148.6139  139.3792  152.2459 H   0  0  0  0  0  0  0  0  0  0  0  0
  147.5766  141.5221  152.5068 H   0  0  0  0  0  0  0  0  0  0  0  0
  149.4821  141.4650  153.8670 H   0  0  0  0  0  0  0  0  0  0  0  0
  154.4697  137.7023  153.7627 H   0  0  0  0  0  0  0  0  0  0  0  0
  150.0409  137.4928  153.5858 H   0  0  0  0  0  0  0  0  0  0  0  0
  145.9348  138.1747  153.0053 H   0  0  0  0  0  0  0  0  0  0  0  0
  145.9479  139.3707  151.7168 H   0  0  0  0  0  0  0  0  0  0  0  0
  147.5816  137.0842  151.7849 H   0  0  0  0  0  0  0  0  0  0  0  0
  145.5879  140.5215  153.3266 H   0  0  0  0  0  0  0  0  0  0  0  0
  148.3738  142.8562  155.0793 H   0  0  0  0  0  0  0  0  0  0  0  0
  1  2  2  0  0  0  0
  1 22  1  0  0  0  0
  2 17  1  0  0  0  0
  2  3  1  0  0  0  0
  3  4  2  0  0  0  0
  4  5  1  0  0  0  0
  4 23  1  0  0  0  0
  5  6  1  0  0  0  0
  5 15  1  0  0  0  0
  6 18  1  0  0  0  0
  6 13  1  0  0  0  0
  6  7  1  0  0  0  0
  7  8  1  0  0  0  0
  8 19  1  0  0  0  0
  8  9  1  0  0  0  0
  8 11  1  0  0  0  0
  9 10  1  0  0  0  0
  9 24  1  0  0  0  0
  9 25  1  0  0  0  0
 10 26  1  0  0  0  0
 11 20  1  0  0  0  0
 11 12  1  0  0  0  0
 11 13  1  0  0  0  0
 12 27  1  0  0  0  0
 13 21  1  0  0  0  0
 13 14  1  0  0  0  0
 14 28  1  0  0  0  0
 15 16  2  0  0  0  0
 15 17  1  0  0  0  0
M  CHG  1  17  -1
M  END
> <s_m_source_file>
AV-unprocessed.smi

> <i_m_source_file_index>
72

> <i_lp_mmshare_version>
43012

> <i_f3d_flags>
0

> <s_epik_input>
W05IMl1jMW5bY0hdbihjKD1PKW4xKVtDQEBIXTJPW0NASF0oW0NIMl1bT0hdKVtDQEBIXShbT0hdKVtDQEhdMltPSF0=

> <s_epik_cmdline>
J2VwaWtfcHl0aG9uJywgJy1waCcsICc3LjAnLCAnLXRuJywgJzgnLCAnLW1hJywgJzIwMCcsICctbWV0YWxfYmluZGluZycsICctaW1hZScsICc8aW5maWxlLm1hZT4nLCAnLW9tYWUnLCAnPG91dGZpbGUubWFlPic=

> <r_lp_tautomer_probability>
7.17554e-07

> <r_epik_Ionization_Penalty>
12.8705

> <r_epik_Ionization_Penalty_Charging>
5.64144

> <r_epik_Ionization_Penalty_Neutral>
7.22905

> <r_epik_State_Penalty>
3.30104

> <r_epik_Charging_Adjusted_Penalty>
8.94249

> <i_epik_Tot_Q>
-1

> <i_epik_Tot_abs_Q>
1

> <r_epik_Metal_State_Penalty>
0.529074

> <b_epik_Metal_Only>
1

> <s_epik_Chemistry_Notes>
This compound contains an acetal/aminal-like group ( X-CH(R)-Y where X, Y are N, S, or O) that may be acid/base labile, releasing an aldehyde.

> <s_lp_Force_Field>
OPLS_2005

> <r_lp_Energy>
36.0241

> <b_lp_Chiralities_Consistent>
1

> <s_lp_Variant>
AV-unprocessed.smi:72-51

> <Gold.Version>
5.8.1

> <Gold.Id.Protein>
6NUR|6NUR_protein|mol2

> <Gold.PLP.Fitness>
51.9424

> <Gold.PLP.PLP>
-31.9442

> <Gold.PLP.part.hbond>
-7.6047

> <Gold.PLP.part.metal>
0.0000

> <Gold.PLP.part.buried>
-2.1414

> <Gold.PLP.part.nonpolar>
-24.7919

> <Gold.PLP.part.repulsive>
0.3591

> <Gold.PLP.ligand.clash>
0.0000

> <Gold.PLP.ligand.torsion>
0.4708

> <Gold.PLP.Chemscore.Hbond>
5.9723

> <Gold.PLP.Chemscore.CHOScore>
1.0000

> <Gold.PLP.Chemscore.Metal>
0.0000

> <Gold.Chemscore.Hbonds>
donor molecule, donor type, donor heavy atom, donor atom, acceptor molecule, acceptor atom, score
      L1  H    10    26       P1  7948  0.94
      L1  H    12    27       P1 10175  0.81
      L1  H    14    28       P1  8028  0.90
      P1  H  7954  7966       L1    10  0.70
      P1  H  7997  8010       L1    17  1.78
      P1  H 10752 10763       L1     3  0.21
      L1  C     4    23       P1  7948  1.00
      L1  C     4    23       P1  7949  0.02

> <Gold.PLP.Chemscore.Internal.Correction>
0.0229

> <Gold.Rescore>
     Score         DG    S(hbond)    S(metal)    S(lipo)     H(rot)  DE(clash)    DE(int)     intcor
      6.96      -9.36       3.14        0.00      31.81       4.04       1.81       0.59       ----

> <Gold.Chemscore.Fitness>
6.9615

> <Gold.Chemscore.DG>
-9.3585

> <Gold.Chemscore.ZeroCoef>
-5.4800

> <Gold.Chemscore.Hbond>
3.1435

> <Gold.Chemscore.Metal>
0.0000

> <Gold.Chemscore.Lipo>
31.8141

> <Gold.Chemscore.Internal_Hbond>
0.0000

> <Gold.Chemscore.DEClash>
1.8089

> <Gold.Chemscore.DEInternal>
0.5881

> <Gold.Chemscore.Rot>
4.0403

> <Gold.Chemscore.Internal.Correction>
   9.000000E+99

> <Gold.Chemscore.Hbonds>
donor molecule, donor type, donor heavy atom, donor atom, acceptor molecule, acceptor atom, score
      L1  H    10    26       P1  7948  0.89
      L1  H    12    27       P1 10175  0.72
      L1  H    14    28       P1  8028  0.84
      P1  H  7954  7966       L1    10  0.07
      P1  H  7997  8010       L1    17  0.25
      P1  H 10752 10763       L1     3  0.11

> <Gold.Chemscore.Hbond.Weighted>
-10.4994

> <Gold.Chemscore.Metal.Weighted>
-0.0000

> <Gold.Chemscore.Lipo.Weighted>
-3.7223

> <Gold.Chemscore.Internal_Hbond.Weighted>
0.0000

> <Gold.Chemscore.DEClash.Weighted>
1.8089

> <Gold.Chemscore.DEInternal.Weighted>
0.5881

> <Gold.Chemscore.Rot.Weighted>
10.3431

> <Gold.Chemscore.Internal.Correction.Weighted>
   9.000000E+99

> <Gold.Protein.RotatedTorsions>
[ 6907 6896 6895 6894 ] final  -92.38 input  -60.11 | X-H torsion
[ 7974 7965 7964 7962 ] final   65.19 input  175.53 | X-H torsion
[ 8008 7997 7996 7995 ] final   75.55 input   59.86 | X-H torsion
[ 10167 10162 10161 10158 ] final   39.27 input  -65.29 | X-H torsion
[ 10718 10713 10712 10709 ] final -138.58 input   66.30 | X-H torsion
[ 10763 10752 10751 10750 ] final   24.93 input  -60.55 | X-H torsion
[ 11005 11000 10999 10996 ] final -169.97 input  -57.11 | X-H torsion

> <Gold.Protein.ActiveResidues>
 VAL166  LYS551  ARG553  GLY616  TRP617  ASP618  TYR619  PRO620  LYS621  CYS622 
 ASP623  PHE694  ASN695  SER759  ASP760  ASP761  ALA762  ILE779  LEU786  VAL792 
 PHE793  MET794  SER795  GLU796  ALA797  LYS798  CYS799  TRP800  GLU811  SER814 

> <Gold.Protein.RotatedAtoms>
  150.6905  134.2130  159.4366 H   0  0  0  0  0  0  0  0  0  0  0  0  # atno 6907 bound_to 6896
  152.0091  134.9884  160.0577 H   0  0  0  0  0  0  0  0  0  0  0  0  # atno 6908 bound_to 6896
  152.1506  133.4484  159.4848 H   0  0  0  0  0  0  0  0  0  0  0  0  # atno 6909 bound_to 6896
  145.8414  139.3198  143.0929 H   0  0  0  0  0  0  0  0  0  0  0  0  # atno 7974 bound_to 7965
  155.8145  140.3472  155.5477 H   0  0  0  0  0  0  0  0  0  0  0  0  # atno 8008 bound_to 7997
  155.8406  140.0941  157.1757 H   0  0  0  0  0  0  0  0  0  0  0  0  # atno 8009 bound_to 7997
  154.4005  140.1395  156.3711 H   0  0  0  0  0  0  0  0  0  0  0  0  # atno 8010 bound_to 7997
  140.3855  144.1922  150.6130 H   0  0  0  0  0  0  0  0  0  0  0  0  # atno 10167 bound_to 10162
  156.3010  130.7428  151.1480 H   0  0  0  0  0  0  0  0  0  0  0  0  # atno 10718 bound_to 10713
  153.0728  135.6594  154.0211 H   0  0  0  0  0  0  0  0  0  0  0  0  # atno 10763 bound_to 10752
  153.9852  135.2951  155.3418 H   0  0  0  0  0  0  0  0  0  0  0  0  # atno 10764 bound_to 10752
  154.7107  135.5206  153.8733 H   0  0  0  0  0  0  0  0  0  0  0  0  # atno 10765 bound_to 10752
  140.5247  134.5675  157.5058 H   0  0  0  0  0  0  0  0  0  0  0  0  # atno 11005 bound_to 11000
  145.9461  140.8944  143.0283 LP  0  0  0  0  0  0  0  0  0  0  0  0  # atno 17320 bound_to 7965
  144.6733  140.1615  143.7422 LP  0  0  0  0  0  0  0  0  0  0  0  0  # atno 17321 bound_to 7965
  140.4893  143.2352  151.8842 LP  0  0  0  0  0  0  0  0  0  0  0  0  # atno 17342 bound_to 10162
  139.4792  144.5183  151.8836 LP  0  0  0  0  0  0  0  0  0  0  0  0  # atno 17343 bound_to 10162
  157.7368  131.0559  150.5394 LP  0  0  0  0  0  0  0  0  0  0  0  0  # atno 17370 bound_to 10713
  156.5522  130.4234  149.6102 LP  0  0  0  0  0  0  0  0  0  0  0  0  # atno 17371 bound_to 10713
  139.9586  134.7491  156.0285 LP  0  0  0  0  0  0  0  0  0  0  0  0  # atno 17394 bound_to 11000
  141.1315  133.6585  156.3476 LP  0  0  0  0  0  0  0  0  0  0  0  0  # atno 17395 bound_to 11000

$$$$
