AV-unprocessed.smi:212|AV-procd|sdf|1619|dock9
  -GOLD-   2262019553D 1   1.00000     0.00000
 Structure written by MMmdl.
 65 68  0  0  0  0  0  0  0  0  2 V2000
  143.2942  135.1831  154.3413 C   0  0  0  0  0  0  0  0  0  0  0  0
  144.1910  136.1122  153.5058 C   0  0  2  0  0  0  0  0  0  0  0  0
  144.0283  135.8703  151.9899 C   0  0  0  0  0  0  0  0  0  0  0  0
  144.6502  134.5856  151.5669 N   0  3  1  0  0  0  0  0  0  0  0  0
  144.4379  134.2537  150.1312 C   0  0  0  0  0  0  0  0  0  0  0  0
  143.9693  132.7978  149.8706 C   0  0  0  0  0  0  0  0  0  0  0  0
  143.7807  132.5735  148.3601 C   0  0  0  0  0  0  0  0  0  0  0  0
  144.9356  131.7448  150.4456 C   0  0  0  0  0  0  0  0  0  0  0  0
  142.6949  132.5969  150.4467 O   0  0  0  0  0  0  0  0  0  0  0  0
  146.0837  134.5165  151.9536 C   0  0  0  0  0  0  0  0  0  0  0  0
  146.2730  134.7673  153.4609 C   0  0  0  0  0  0  0  0  0  0  0  0
  145.5990  135.9927  153.8888 N   0  0  0  0  0  0  0  0  0  0  0  0
  146.3019  137.1543  153.9047 C   0  0  0  0  0  0  0  0  0  0  0  0
  145.7487  138.2929  153.4096 N   0  0  0  0  0  0  0  0  0  0  0  0
  146.4311  139.4412  153.4401 C   0  0  0  0  0  0  0  0  0  0  0  0
  147.6578  139.6695  153.9121 N   0  0  0  0  0  0  0  0  0  0  0  0
  148.2216  138.5310  154.4064 C   0  0  0  0  0  0  0  0  0  0  0  0
  147.6189  137.2420  154.4359 C   0  0  0  0  0  0  0  0  0  0  0  0
  148.4972  136.3202  154.9908 N   0  0  0  0  0  0  0  0  0  0  0  0
  149.5582  137.0245  155.2744 C   0  0  0  0  0  0  0  0  0  0  0  0
  149.4734  138.3673  154.9773 N   0  0  0  0  0  0  0  0  0  0  0  0
  150.5036  139.3750  155.1958 C   0  0  0  0  0  0  0  0  0  0  0  0
  149.9978  140.6638  155.8973 C   0  0  2  0  0  0  0  0  0  0  0  0
  149.3422  141.6209  154.8726 C   0  0  0  0  0  0  0  0  0  0  0  0
  148.2824  142.3607  155.4417 O   0  0  0  0  0  0  0  0  0  0  0  0
  151.1178  141.3472  156.7306 C   0  0  2  0  0  0  0  0  0  0  0  0
  151.4774  140.6177  158.0153 C   0  0  0  0  0  0  0  0  0  0  0  0
  152.2294  141.6852  158.8038 C   0  0  0  0  0  0  0  0  0  0  0  0
  151.6909  142.9327  158.3797 O   0  0  0  0  0  0  0  0  0  0  0  0
  150.7760  142.7233  157.3099 C   0  0  0  0  0  0  0  0  0  0  0  0
  142.2438  135.3236  154.0852 H   0  0  0  0  0  0  0  0  0  0  0  0
  143.4024  135.3938  155.4057 H   0  0  0  0  0  0  0  0  0  0  0  0
  143.5315  134.1309  154.1838 H   0  0  0  0  0  0  0  0  0  0  0  0
  143.8456  137.1281  153.7000 H   0  0  0  0  0  0  0  0  0  0  0  0
  142.9691  135.8942  151.7427 H   0  0  0  0  0  0  0  0  0  0  0  0
  144.4944  136.6868  151.4359 H   0  0  0  0  0  0  0  0  0  0  0  0
  143.7619  134.9771  149.6718 H   0  0  0  0  0  0  0  0  0  0  0  0
  145.3913  134.3772  149.6151 H   0  0  0  0  0  0  0  0  0  0  0  0
  144.7232  132.6872  147.8231 H   0  0  0  0  0  0  0  0  0  0  0  0
  143.0739  133.2878  147.9359 H   0  0  0  0  0  0  0  0  0  0  0  0
  143.4037  131.5722  148.1474 H   0  0  0  0  0  0  0  0  0  0  0  0
  145.9417  131.8733  150.0451 H   0  0  0  0  0  0  0  0  0  0  0  0
  144.6113  130.7331  150.1988 H   0  0  0  0  0  0  0  0  0  0  0  0
  145.0008  131.8033  151.5327 H   0  0  0  0  0  0  0  0  0  0  0  0
  142.0743  133.1624  150.0123 H   0  0  0  0  0  0  0  0  0  0  0  0
  146.4908  133.5359  151.7045 H   0  0  0  0  0  0  0  0  0  0  0  0
  146.6465  135.2485  151.3726 H   0  0  0  0  0  0  0  0  0  0  0  0
  145.8590  133.9325  154.0268 H   0  0  0  0  0  0  0  0  0  0  0  0
  147.3339  134.7979  153.7133 H   0  0  0  0  0  0  0  0  0  0  0  0
  145.9207  140.3003  153.0304 H   0  0  0  0  0  0  0  0  0  0  0  0
  150.4367  136.5780  155.7169 H   0  0  0  0  0  0  0  0  0  0  0  0
  151.2937  138.9189  155.7932 H   0  0  0  0  0  0  0  0  0  0  0  0
  150.9650  139.6147  154.2378 H   0  0  0  0  0  0  0  0  0  0  0  0
  149.2145  140.3452  156.5874 H   0  0  0  0  0  0  0  0  0  0  0  0
  150.0769  142.3050  154.4468 H   0  0  0  0  0  0  0  0  0  0  0  0
  148.9145  141.0539  154.0455 H   0  0  0  0  0  0  0  0  0  0  0  0
  148.4695  143.2817  155.3414 H   0  0  0  0  0  0  0  0  0  0  0  0
  152.0163  141.4551  156.1215 H   0  0  0  0  0  0  0  0  0  0  0  0
  150.5730  140.3299  158.5529 H   0  0  0  0  0  0  0  0  0  0  0  0
  152.0743  139.7201  157.8633 H   0  0  0  0  0  0  0  0  0  0  0  0
  152.1279  141.5529  159.8811 H   0  0  0  0  0  0  0  0  0  0  0  0
  153.2919  141.6652  158.5579 H   0  0  0  0  0  0  0  0  0  0  0  0
  150.8522  143.5218  156.5715 H   0  0  0  0  0  0  0  0  0  0  0  0
  149.7646  142.7311  157.7190 H   0  0  0  0  0  0  0  0  0  0  0  0
  144.1892  133.8574  152.0933 H   0  0  0  0  0  0  0  0  0  0  0  0
  1  2  1  0  0  0  0
  1 31  1  0  0  0  0
  1 32  1  0  0  0  0
  1 33  1  0  0  0  0
  2 12  1  0  0  0  0
  2  3  1  0  0  0  0
  2 34  1  0  0  0  0
  3  4  1  0  0  0  0
  3 35  1  0  0  0  0
  3 36  1  0  0  0  0
  4  5  1  0  0  0  0
  4 10  1  0  0  0  0
  4 65  1  0  0  0  0
  5  6  1  0  0  0  0
  5 37  1  0  0  0  0
  5 38  1  0  0  0  0
  6  7  1  0  0  0  0
  6  8  1  0  0  0  0
  6  9  1  0  0  0  0
  7 39  1  0  0  0  0
  7 40  1  0  0  0  0
  7 41  1  0  0  0  0
  8 42  1  0  0  0  0
  8 43  1  0  0  0  0
  8 44  1  0  0  0  0
  9 45  1  0  0  0  0
 10 11  1  0  0  0  0
 10 46  1  0  0  0  0
 10 47  1  0  0  0  0
 11 12  1  0  0  0  0
 11 48  1  0  0  0  0
 11 49  1  0  0  0  0
 12 13  1  0  0  0  0
 13 18  1  0  0  0  0
 13 14  2  0  0  0  0
 14 15  1  0  0  0  0
 15 16  2  0  0  0  0
 15 50  1  0  0  0  0
 16 17  1  0  0  0  0
 17 21  1  0  0  0  0
 17 18  2  0  0  0  0
 18 19  1  0  0  0  0
 19 20  2  0  0  0  0
 20 21  1  0  0  0  0
 20 51  1  0  0  0  0
 21 22  1  0  0  0  0
 22 23  1  0  0  0  0
 22 52  1  0  0  0  0
 22 53  1  0  0  0  0
 23 24  1  0  0  0  0
 23 26  1  0  0  0  0
 23 54  1  0  0  0  0
 24 25  1  0  0  0  0
 24 55  1  0  0  0  0
 24 56  1  0  0  0  0
 25 57  1  0  0  0  0
 26 30  1  0  0  0  0
 26 27  1  0  0  0  0
 26 58  1  0  0  0  0
 27 28  1  0  0  0  0
 27 59  1  0  0  0  0
 27 60  1  0  0  0  0
 28 29  1  0  0  0  0
 28 61  1  0  0  0  0
 28 62  1  0  0  0  0
 29 30  1  0  0  0  0
 30 63  1  0  0  0  0
 30 64  1  0  0  0  0
M  CHG  1   4   1
M  END
> <s_m_source_file>
AV-unprocessed.smi

> <i_m_source_file_index>
212

> <i_lp_mmshare_version>
43012

> <i_f3d_flags>
0

> <s_epik_input>
W0NIM11bQ0BASF0xW0NIMl1OKFtDSDJdQyhbQ0gzXSkoW0NIM10pW09IXSlbQ0gyXVtDSDJdTjFjKG5bY0hdbjIpYyhjMjMpbltjSF1uM1tDSDJdW0NASF0oW0NIMl1bT0hdKVtDQEBIXTRbQ0gyXVtDSDJdT1tDSDJdNA==

> <s_epik_cmdline>
J2VwaWtfcHl0aG9uJywgJy1waCcsICc3LjAnLCAnLXRuJywgJzgnLCAnLW1hJywgJzIwMCcsICctbWV0YWxfYmluZGluZycsICctaW1hZScsICc8aW5maWxlLm1hZT4nLCAnLW9tYWUnLCAnPG91dGZpbGUubWFlPic=

> <r_lp_tautomer_probability>
1

> <r_epik_Ionization_Penalty>
0.00182193

> <r_epik_Ionization_Penalty_Charging>
0.00173996

> <r_epik_Ionization_Penalty_Neutral>
8.19718e-05

> <r_epik_State_Penalty>
-0

> <r_epik_Charging_Adjusted_Penalty>
0.00173996

> <i_epik_Tot_Q>
1

> <i_epik_Tot_abs_Q>
1

> <r_epik_Metal_State_Penalty>
-0

> <b_epik_Metal_Only>
0

> <s_lp_Force_Field>
OPLS_2005

> <r_lp_Energy>
58.2747

> <b_lp_Chiralities_Consistent>
1

> <s_lp_Variant>
AV-unprocessed.smi:212-3

> <Gold.Version>
5.8.1

> <Gold.Id.Protein>
6NUR|6NUR_protein|mol2

> <Gold.PLP.Fitness>
48.8008

> <Gold.PLP.PLP>
-43.2171

> <Gold.PLP.part.hbond>
-2.5547

> <Gold.PLP.part.metal>
0.0000

> <Gold.PLP.part.buried>
-6.6458

> <Gold.PLP.part.nonpolar>
-36.2428

> <Gold.PLP.part.repulsive>
0.5061

> <Gold.PLP.ligand.clash>
0.0000

> <Gold.PLP.ligand.torsion>
1.9580

> <Gold.PLP.Chemscore.Hbond>
2.0000

> <Gold.PLP.Chemscore.CHOScore>
0.9367

> <Gold.PLP.Chemscore.Metal>
0.0000

> <Gold.Chemscore.Hbonds>
donor molecule, donor type, donor heavy atom, donor atom, acceptor molecule, acceptor atom, score
      L1  H     9    45       P1 10186  1.00
      L1  H    25    57       P1  8028  0.96
      L1  C    15    50       P1 10175  0.96

> <Gold.PLP.Chemscore.Internal.Correction>
0.6898

> <Gold.Rescore>
     Score         DG    S(hbond)    S(metal)    S(lipo)     H(rot)  DE(clash)    DE(int)     intcor
     12.59     -16.02       1.99        0.00     107.51       3.40       0.04       3.39       ----

> <Gold.Chemscore.Fitness>
12.5891

> <Gold.Chemscore.DG>
-16.0191

> <Gold.Chemscore.ZeroCoef>
-5.4800

> <Gold.Chemscore.Hbond>
1.9944

> <Gold.Chemscore.Metal>
0.0000

> <Gold.Chemscore.Lipo>
107.5064

> <Gold.Chemscore.Internal_Hbond>
0.0000

> <Gold.Chemscore.DEClash>
0.0358

> <Gold.Chemscore.DEInternal>
3.3942

> <Gold.Chemscore.Rot>
3.3986

> <Gold.Chemscore.Internal.Correction>
   9.000000E+99

> <Gold.Chemscore.Hbonds>
donor molecule, donor type, donor heavy atom, donor atom, acceptor molecule, acceptor atom, score
      L1  H     9    45       P1 10186  1.00
      L1  H    25    57       P1  8028  0.89

> <Gold.Chemscore.Hbond.Weighted>
-6.6613

> <Gold.Chemscore.Metal.Weighted>
-0.0000

> <Gold.Chemscore.Lipo.Weighted>
-12.5782

> <Gold.Chemscore.Internal_Hbond.Weighted>
0.0000

> <Gold.Chemscore.DEClash.Weighted>
0.0358

> <Gold.Chemscore.DEInternal.Weighted>
3.3942

> <Gold.Chemscore.Rot.Weighted>
8.7005

> <Gold.Chemscore.Internal.Correction.Weighted>
   9.000000E+99

> <Gold.Protein.RotatedTorsions>
[ 6907 6896 6895 6894 ] final -113.69 input  -60.11 | X-H torsion
[ 7974 7965 7964 7962 ] final -117.84 input  175.53 | X-H torsion
[ 8008 7997 7996 7995 ] final   80.86 input   59.86 | X-H torsion
[ 10167 10162 10161 10158 ] final    1.75 input  -65.29 | X-H torsion
[ 10718 10713 10712 10709 ] final    2.23 input   66.30 | X-H torsion
[ 10763 10752 10751 10750 ] final  119.81 input  -60.55 | X-H torsion
[ 11005 11000 10999 10996 ] final -152.02 input  -57.11 | X-H torsion

> <Gold.Protein.ActiveResidues>
 VAL166  LYS551  ARG553  GLY616  TRP617  ASP618  TYR619  PRO620  LYS621  CYS622 
 ASP623  PHE694  ASN695  SER759  ASP760  ASP761  ALA762  ILE779  LEU786  VAL792 
 PHE793  MET794  SER795  GLU796  ALA797  LYS798  CYS799  TRP800  GLU811  SER814 

> <Gold.Protein.RotatedAtoms>
  150.7847  133.8908  159.3312 H   0  0  0  0  0  0  0  0  0  0  0  0  # atno 6907 bound_to 6896
  151.6762  135.0967  160.0217 H   0  0  0  0  0  0  0  0  0  0  0  0  # atno 6908 bound_to 6896
  152.3908  133.6638  159.6272 H   0  0  0  0  0  0  0  0  0  0  0  0  # atno 6909 bound_to 6896
  145.0806  140.8423  143.4041 H   0  0  0  0  0  0  0  0  0  0  0  0  # atno 7974 bound_to 7965
  155.8892  140.3440  155.5944 H   0  0  0  0  0  0  0  0  0  0  0  0  # atno 8008 bound_to 7997
  155.7630  140.0835  157.2165 H   0  0  0  0  0  0  0  0  0  0  0  0  # atno 8009 bound_to 7997
  154.4031  140.1532  156.2842 H   0  0  0  0  0  0  0  0  0  0  0  0  # atno 8010 bound_to 7997
  140.6668  143.7157  150.7843 H   0  0  0  0  0  0  0  0  0  0  0  0  # atno 10167 bound_to 10162
  156.8599  130.5583  149.5663 H   0  0  0  0  0  0  0  0  0  0  0  0  # atno 10718 bound_to 10713
  153.5888  135.3470  155.2903 H   0  0  0  0  0  0  0  0  0  0  0  0  # atno 10763 bound_to 10752
  154.8656  135.4200  154.2539 H   0  0  0  0  0  0  0  0  0  0  0  0  # atno 10764 bound_to 10752
  153.3341  135.7046  153.6993 H   0  0  0  0  0  0  0  0  0  0  0  0  # atno 10765 bound_to 10752
  140.7233  134.3703  157.5179 H   0  0  0  0  0  0  0  0  0  0  0  0  # atno 11005 bound_to 11000
  145.1182  139.2711  143.5602 LP  0  0  0  0  0  0  0  0  0  0  0  0  # atno 17320 bound_to 7965
  146.3531  140.0798  142.8618 LP  0  0  0  0  0  0  0  0  0  0  0  0  # atno 17321 bound_to 7965
  140.0836  143.4945  152.2517 LP  0  0  0  0  0  0  0  0  0  0  0  0  # atno 17342 bound_to 10162
  139.5920  144.7553  151.3378 LP  0  0  0  0  0  0  0  0  0  0  0  0  # atno 17343 bound_to 10162
  156.0782  130.5799  150.9514 LP  0  0  0  0  0  0  0  0  0  0  0  0  # atno 17370 bound_to 10713
  157.6256  131.0926  150.8540 LP  0  0  0  0  0  0  0  0  0  0  0  0  # atno 17371 bound_to 10713
  139.8843  134.8969  156.2712 LP  0  0  0  0  0  0  0  0  0  0  0  0  # atno 17394 bound_to 11000
  140.9984  133.7166  156.0922 LP  0  0  0  0  0  0  0  0  0  0  0  0  # atno 17395 bound_to 11000

$$$$
