AV-unprocessed.smi:686|AV-procd|sdf|3342|dock2
  -GOLD-   22720 0313D 1   1.00000     0.00000
 Structure written by MMmdl.
 41 42  0  0  0  0  0  0  0  0  2 V2000
  150.0254  133.2122  155.5205 C   0  0  0  0  0  0  0  0  0  0  0  0
  149.3937  134.0886  154.4305 C   0  0  1  0  0  0  0  0  0  0  0  0
  148.2576  133.3984  153.6730 C   0  0  0  0  0  0  0  0  0  0  0  0
  147.4184  134.4967  153.1543 N   0  3  1  0  0  0  0  0  0  0  0  0
  146.0680  134.0957  152.6676 C   0  0  0  0  0  0  0  0  0  0  0  0
  146.1532  132.9543  151.6368 C   0  0  0  0  0  0  0  0  0  0  0  0
  145.3168  135.2917  152.0526 C   0  0  0  0  0  0  0  0  0  0  0  0
  147.4207  135.5198  154.2227 C   0  0  0  0  0  0  0  0  0  0  0  0
  148.7686  135.3932  154.9574 C   0  0  2  0  0  0  0  0  0  0  0  0
  149.6523  136.5303  154.6723 N   0  0  0  0  0  0  0  0  0  0  0  0
  150.7948  137.0795  155.8473 S   0  0  0  0  0  0  0  0  0  0  0  0
  150.0490  137.5988  157.0046 O   0  0  0  0  0  0  0  0  0  0  0  0
  151.7902  136.0117  156.0243 O   0  0  0  0  0  0  0  0  0  0  0  0
  151.6112  138.4889  154.9824 C   0  0  0  0  0  0  0  0  0  0  0  0
  150.7307  139.7026  155.0596 C   0  0  0  0  0  0  0  0  0  0  0  0
  150.3317  140.4354  156.2114 C   0  0  0  0  0  0  0  0  0  0  0  0
  149.5406  141.4239  155.7012 C   0  0  0  0  0  0  0  0  0  0  0  0
  149.4581  141.3173  154.3508 O   0  0  0  0  0  0  0  0  0  0  0  0
  150.2226  140.2157  153.9500 N   0  0  0  0  0  0  0  0  0  0  0  0
  149.2933  132.9274  156.2769 H   0  0  0  0  0  0  0  0  0  0  0  0
  150.8361  133.7398  156.0237 H   0  0  0  0  0  0  0  0  0  0  0  0
  150.4385  132.2968  155.0957 H   0  0  0  0  0  0  0  0  0  0  0  0
  150.1655  134.3311  153.6972 H   0  0  0  0  0  0  0  0  0  0  0  0
  148.6371  132.7583  152.8759 H   0  0  0  0  0  0  0  0  0  0  0  0
  147.6667  132.7815  154.3528 H   0  0  0  0  0  0  0  0  0  0  0  0
  145.4906  133.7360  153.5208 H   0  0  0  0  0  0  0  0  0  0  0  0
  145.1645  132.7018  151.2525 H   0  0  0  0  0  0  0  0  0  0  0  0
  146.5621  132.0415  152.0699 H   0  0  0  0  0  0  0  0  0  0  0  0
  146.7763  133.2324  150.7859 H   0  0  0  0  0  0  0  0  0  0  0  0
  144.3484  134.9839  151.6569 H   0  0  0  0  0  0  0  0  0  0  0  0
  145.8821  135.7352  151.2321 H   0  0  0  0  0  0  0  0  0  0  0  0
  145.1219  136.0736  152.7867 H   0  0  0  0  0  0  0  0  0  0  0  0
  147.2442  136.5137  153.8128 H   0  0  0  0  0  0  0  0  0  0  0  0
  146.6132  135.3115  154.9267 H   0  0  0  0  0  0  0  0  0  0  0  0
  148.6003  135.3370  156.0341 H   0  0  0  0  0  0  0  0  0  0  0  0
  150.0102  136.5604  153.7174 H   0  0  0  0  0  0  0  0  0  0  0  0
  152.5793  138.6692  155.4495 H   0  0  0  0  0  0  0  0  0  0  0  0
  151.7933  138.2050  153.9465 H   0  0  0  0  0  0  0  0  0  0  0  0
  150.5821  140.2609  157.2473 H   0  0  0  0  0  0  0  0  0  0  0  0
  148.9916  142.2399  156.1474 H   0  0  0  0  0  0  0  0  0  0  0  0
  147.9198  134.8947  152.3731 H   0  0  0  0  0  0  0  0  0  0  0  0
  1  2  1  0  0  0  0
  1 20  1  0  0  0  0
  1 21  1  0  0  0  0
  1 22  1  0  0  0  0
  2  9  1  0  0  0  0
  2  3  1  0  0  0  0
  2 23  1  0  0  0  0
  3  4  1  0  0  0  0
  3 24  1  0  0  0  0
  3 25  1  0  0  0  0
  4  5  1  0  0  0  0
  4  8  1  0  0  0  0
  4 41  1  0  0  0  0
  5  6  1  0  0  0  0
  5  7  1  0  0  0  0
  5 26  1  0  0  0  0
  6 27  1  0  0  0  0
  6 28  1  0  0  0  0
  6 29  1  0  0  0  0
  7 30  1  0  0  0  0
  7 31  1  0  0  0  0
  7 32  1  0  0  0  0
  8  9  1  0  0  0  0
  8 33  1  0  0  0  0
  8 34  1  0  0  0  0
  9 10  1  0  0  0  0
  9 35  1  0  0  0  0
 10 11  1  0  0  0  0
 10 36  1  0  0  0  0
 11 12  2  0  0  0  0
 11 13  2  0  0  0  0
 11 14  1  0  0  0  0
 14 15  1  0  0  0  0
 14 37  1  0  0  0  0
 14 38  1  0  0  0  0
 15 19  2  0  0  0  0
 15 16  1  0  0  0  0
 16 17  2  0  0  0  0
 16 39  1  0  0  0  0
 17 18  1  0  0  0  0
 17 40  1  0  0  0  0
 18 19  1  0  0  0  0
M  CHG  1   4   1
M  END
> <s_m_source_file>
AV-unprocessed.smi

> <i_m_source_file_index>
686

> <i_lp_mmshare_version>
43012

> <i_f3d_flags>
0

> <s_epik_input>
W0NIM11bQ0BASF0xW0NIMl1OKFtDSF0oW0NIM10pW0NIM10pW0NIMl1bQ0BIXTFbTkhdUyg9TykoPU8pW0NIMl1jMltjSF1bY0hdb24y

> <s_epik_cmdline>
J2VwaWtfcHl0aG9uJywgJy1waCcsICc3LjAnLCAnLXRuJywgJzgnLCAnLW1hJywgJzIwMCcsICctbWV0YWxfYmluZGluZycsICctaW1hZScsICc8aW5maWxlLm1hZT4nLCAnLW9tYWUnLCAnPG91dGZpbGUubWFlPic=

> <r_epik_Ionization_Penalty>
0.00200818

> <r_epik_Ionization_Penalty_Charging>
0.000701289

> <r_epik_Ionization_Penalty_Neutral>
0.00130689

> <r_epik_State_Penalty>
0.00131314

> <r_epik_Charging_Adjusted_Penalty>
0.00201443

> <i_epik_Tot_Q>
1

> <i_epik_Tot_abs_Q>
1

> <r_epik_Metal_State_Penalty>
0.310831

> <b_epik_Metal_Only>
0

> <s_lp_Force_Field>
OPLS_2005

> <r_lp_Energy>
19.8293

> <b_lp_Chiralities_Consistent>
1

> <s_lp_Variant>
AV-unprocessed.smi:686-6

> <Gold.Version>
5.8.1

> <Gold.Id.Protein>
6NUR|6NUR_protein|mol2

> <Gold.PLP.Fitness>
41.5193

> <Gold.PLP.PLP>
-27.5927

> <Gold.PLP.part.hbond>
-5.2576

> <Gold.PLP.part.metal>
0.0000

> <Gold.PLP.part.buried>
-1.5470

> <Gold.PLP.part.nonpolar>
-21.7630

> <Gold.PLP.part.repulsive>
1.0994

> <Gold.PLP.ligand.clash>
0.0000

> <Gold.PLP.ligand.torsion>
0.8746

> <Gold.PLP.Chemscore.Hbond>
4.3324

> <Gold.PLP.Chemscore.CHOScore>
0.8157

> <Gold.PLP.Chemscore.Metal>
0.0000

> <Gold.Chemscore.Hbonds>
donor molecule, donor type, donor heavy atom, donor atom, acceptor molecule, acceptor atom, score
      L1  H     4    41       P1  7948  1.86
      L1  H    10    36       P1  7948  0.45
      P1  H  7989  7998       L1    19  0.66
      P1  H  8011  8017       L1    18  0.12
      P1  H 10752 10765       L1    13  1.00
      L1  C    17    40       P1  8028  1.00

> <Gold.PLP.Chemscore.Internal.Correction>
0.2314

> <Gold.Rescore>
     Score         DG    S(hbond)    S(metal)    S(lipo)     H(rot)  DE(clash)    DE(int)     intcor
     14.57     -16.69       2.87        0.00      55.67       1.91       0.01       2.10       ----

> <Gold.Chemscore.Fitness>
14.5739

> <Gold.Chemscore.DG>
-16.6868

> <Gold.Chemscore.ZeroCoef>
-5.4800

> <Gold.Chemscore.Hbond>
2.8705

> <Gold.Chemscore.Metal>
0.0000

> <Gold.Chemscore.Lipo>
55.6661

> <Gold.Chemscore.Internal_Hbond>
0.0000

> <Gold.Chemscore.DEClash>
0.0108

> <Gold.Chemscore.DEInternal>
2.1022

> <Gold.Chemscore.Rot>
1.9115

> <Gold.Chemscore.Internal.Correction>
   9.000000E+99

> <Gold.Chemscore.Hbonds>
donor molecule, donor type, donor heavy atom, donor atom, acceptor molecule, acceptor atom, score
      L1  H     4    41       P1  7948  0.70
      L1  H    10    36       P1  7948  0.10
      P1  H  7989  7998       L1    19  0.03
      P1  H  8011  8017       L1    18  0.01
      P1  H 10752 10765       L1    13  1.00

> <Gold.Chemscore.Hbond.Weighted>
-9.5874

> <Gold.Chemscore.Metal.Weighted>
-0.0000

> <Gold.Chemscore.Lipo.Weighted>
-6.5129

> <Gold.Chemscore.Internal_Hbond.Weighted>
0.0000

> <Gold.Chemscore.DEClash.Weighted>
0.0108

> <Gold.Chemscore.DEInternal.Weighted>
2.1022

> <Gold.Chemscore.Rot.Weighted>
4.8935

> <Gold.Chemscore.Internal.Correction.Weighted>
   9.000000E+99

> <Gold.Protein.RotatedTorsions>
[ 6907 6896 6895 6894 ] final   24.43 input  -60.11 | X-H torsion
[ 7974 7965 7964 7962 ] final   63.13 input  175.53 | X-H torsion
[ 8008 7997 7996 7995 ] final  -55.61 input   59.86 | X-H torsion
[ 10167 10162 10161 10158 ] final   81.17 input  -65.29 | X-H torsion
[ 10718 10713 10712 10709 ] final -111.94 input   66.30 | X-H torsion
[ 10763 10752 10751 10750 ] final -163.81 input  -60.55 | X-H torsion
[ 11005 11000 10999 10996 ] final  179.09 input  -57.11 | X-H torsion

> <Gold.Protein.ActiveResidues>
 VAL166  LYS551  ARG553  GLY616  TRP617  ASP618  TYR619  PRO620  LYS621  CYS622 
 ASP623  PHE694  ASN695  SER759  ASP760  ASP761  ALA762  ILE779  LEU786  VAL792 
 PHE793  MET794  SER795  GLU796  ALA797  LYS798  CYS799  TRP800  GLU811  SER814 

> <Gold.Protein.RotatedAtoms>
  151.9574  135.0140  160.0545 H   0  0  0  0  0  0  0  0  0  0  0  0  # atno 6907 bound_to 6896
  152.1899  133.4761  159.5011 H   0  0  0  0  0  0  0  0  0  0  0  0  # atno 6908 bound_to 6896
  150.6933  134.1643  159.4231 H   0  0  0  0  0  0  0  0  0  0  0  0  # atno 6909 bound_to 6896
  145.8654  139.3342  143.0794 H   0  0  0  0  0  0  0  0  0  0  0  0  # atno 7974 bound_to 7965
  154.4201  140.1149  156.5504 H   0  0  0  0  0  0  0  0  0  0  0  0  # atno 8008 bound_to 7997
  155.6415  140.3496  155.4697 H   0  0  0  0  0  0  0  0  0  0  0  0  # atno 8009 bound_to 7997
  155.9866  140.1171  157.0666 H   0  0  0  0  0  0  0  0  0  0  0  0  # atno 8010 bound_to 7997
  139.9421  144.6083  150.8242 H   0  0  0  0  0  0  0  0  0  0  0  0  # atno 10167 bound_to 10162
  156.0676  130.5893  150.8441 H   0  0  0  0  0  0  0  0  0  0  0  0  # atno 10718 bound_to 10713
  154.7087  135.3002  154.9230 H   0  0  0  0  0  0  0  0  0  0  0  0  # atno 10763 bound_to 10752
  154.0139  135.6691  153.4771 H   0  0  0  0  0  0  0  0  0  0  0  0  # atno 10764 bound_to 10752
  153.0738  135.5046  154.8273 H   0  0  0  0  0  0  0  0  0  0  0  0  # atno 10765 bound_to 10752
  140.4023  134.6766  157.4568 H   0  0  0  0  0  0  0  0  0  0  0  0  # atno 11005 bound_to 11000
  145.9199  140.9122  143.0410 LP  0  0  0  0  0  0  0  0  0  0  0  0  # atno 17320 bound_to 7965
  144.6726  140.1274  143.7446 LP  0  0  0  0  0  0  0  0  0  0  0  0  # atno 17321 bound_to 7965
  140.7608  143.3159  151.2734 LP  0  0  0  0  0  0  0  0  0  0  0  0  # atno 17342 bound_to 10162
  139.6696  144.0043  152.2745 LP  0  0  0  0  0  0  0  0  0  0  0  0  # atno 17343 bound_to 10162
  157.5727  131.0946  150.9393 LP  0  0  0  0  0  0  0  0  0  0  0  0  # atno 17370 bound_to 10713
  156.9605  130.5453  149.5286 LP  0  0  0  0  0  0  0  0  0  0  0  0  # atno 17371 bound_to 10713
  140.0327  134.6382  155.9084 LP  0  0  0  0  0  0  0  0  0  0  0  0  # atno 17394 bound_to 11000
  141.1852  133.6554  156.5188 LP  0  0  0  0  0  0  0  0  0  0  0  0  # atno 17395 bound_to 11000

$$$$
