AV-unprocessed.smi:2829|AV-procd|sdf|10903|dock2
  -GOLD-   2272015353D 1   1.00000     0.00000
 Structure written by MMmdl.
 50 53  0  0  0  0  0  0  0  0  1 V2000
  145.9426  131.9504  149.5880 C   0  0  0  0  0  0  0  0  0  0  0  0
  145.2897  132.1706  150.9713 C   0  0  0  0  0  0  0  0  0  0  0  0
  143.7938  131.8153  150.8396 C   0  0  0  0  0  0  0  0  0  0  0  0
  145.9721  131.2079  151.9654 C   0  0  0  0  0  0  0  0  0  0  0  0
  145.4383  133.6202  151.4675 C   0  0  0  0  0  0  0  0  0  0  0  0
  144.8465  134.7257  150.8158 C   0  0  0  0  0  0  0  0  0  0  0  0
  145.0612  136.0008  151.3651 C   0  0  0  0  0  0  0  0  0  0  0  0
  145.8492  136.1069  152.5281 C   0  0  0  0  0  0  0  0  0  0  0  0
  146.0306  137.4251  153.0185 N   0  0  0  0  0  0  0  0  0  0  0  0
  146.9449  137.8689  153.9031 C   0  0  0  0  0  0  0  0  0  0  0  0
  147.7323  137.1521  154.5175 O   0  0  0  0  0  0  0  0  0  0  0  0
  146.9320  139.2021  154.0780 N   0  0  0  0  0  0  0  0  0  0  0  0
  147.7918  139.9906  154.9618 C   0  0  1  0  0  0  0  0  0  0  0  0
  149.2212  140.1388  154.4066 C   0  0  2  0  0  0  0  0  0  0  0  0
  150.3832  139.5478  155.1585 C   0  0  0  0  0  0  0  0  0  0  0  0
  150.9278  140.7453  155.9420 C   0  0  0  0  0  0  0  0  0  0  0  0
  149.8289  141.6499  156.0263 O   0  0  0  0  0  0  0  0  0  0  0  0
  149.1515  141.6167  154.7737 C   0  0  2  0  0  0  0  0  0  0  0  0
  147.6226  141.5216  154.8451 C   0  0  0  0  0  0  0  0  0  0  0  0
  146.7640  142.1929  153.7558 C   0  0  0  0  0  0  0  0  0  0  0  0
  145.7428  142.5616  154.8348 C   0  0  0  0  0  0  0  0  0  0  0  0
  146.8281  142.3202  155.8883 C   0  0  0  0  0  0  0  0  0  0  0  0
  146.3862  135.0022  153.1036 N   0  0  0  0  0  0  0  0  0  0  0  0
  146.1860  133.7868  152.5858 N   0  0  0  0  0  0  0  0  0  0  0  0
  145.8240  130.9185  149.2551 H   0  0  0  0  0  0  0  0  0  0  0  0
  147.0136  132.1562  149.6090 H   0  0  0  0  0  0  0  0  0  0  0  0
  145.4918  132.5851  148.8240 H   0  0  0  0  0  0  0  0  0  0  0  0
  143.2861  132.4907  150.1499 H   0  0  0  0  0  0  0  0  0  0  0  0
  143.2767  131.8756  151.7977 H   0  0  0  0  0  0  0  0  0  0  0  0
  143.6575  130.8000  150.4656 H   0  0  0  0  0  0  0  0  0  0  0  0
  145.8995  130.1729  151.6298 H   0  0  0  0  0  0  0  0  0  0  0  0
  145.5168  131.2568  152.9552 H   0  0  0  0  0  0  0  0  0  0  0  0
  147.0309  131.4432  152.0795 H   0  0  0  0  0  0  0  0  0  0  0  0
  144.2469  134.6274  149.9244 H   0  0  0  0  0  0  0  0  0  0  0  0
  144.6313  136.8759  150.8996 H   0  0  0  0  0  0  0  0  0  0  0  0
  145.4314  138.1267  152.6096 H   0  0  0  0  0  0  0  0  0  0  0  0
  146.2466  139.7218  153.5488 H   0  0  0  0  0  0  0  0  0  0  0  0
  147.8011  139.6556  156.0014 H   0  0  0  0  0  0  0  0  0  0  0  0
  149.2653  140.0044  153.3240 H   0  0  0  0  0  0  0  0  0  0  0  0
  150.0496  138.7607  155.8356 H   0  0  0  0  0  0  0  0  0  0  0  0
  151.1389  139.1227  154.4975 H   0  0  0  0  0  0  0  0  0  0  0  0
  151.2986  140.4699  156.9294 H   0  0  0  0  0  0  0  0  0  0  0  0
  151.7401  141.2247  155.3935 H   0  0  0  0  0  0  0  0  0  0  0  0
  149.5653  142.2877  154.0197 H   0  0  0  0  0  0  0  0  0  0  0  0
  147.2457  143.0734  153.3283 H   0  0  0  0  0  0  0  0  0  0  0  0
  146.3806  141.5379  152.9738 H   0  0  0  0  0  0  0  0  0  0  0  0
  145.3813  143.5889  154.7835 H   0  0  0  0  0  0  0  0  0  0  0  0
  144.9195  141.8498  154.9006 H   0  0  0  0  0  0  0  0  0  0  0  0
  146.4982  141.7418  156.7516 H   0  0  0  0  0  0  0  0  0  0  0  0
  147.3339  143.2392  156.1887 H   0  0  0  0  0  0  0  0  0  0  0  0
  1  2  1  0  0  0  0
  1 25  1  0  0  0  0
  1 26  1  0  0  0  0
  1 27  1  0  0  0  0
  2  3  1  0  0  0  0
  2  4  1  0  0  0  0
  2  5  1  0  0  0  0
  3 28  1  0  0  0  0
  3 29  1  0  0  0  0
  3 30  1  0  0  0  0
  4 31  1  0  0  0  0
  4 32  1  0  0  0  0
  4 33  1  0  0  0  0
  5 24  1  0  0  0  0
  5  6  2  0  0  0  0
  6  7  1  0  0  0  0
  6 34  1  0  0  0  0
  7  8  2  0  0  0  0
  7 35  1  0  0  0  0
  8  9  1  0  0  0  0
  8 23  1  0  0  0  0
  9 10  1  0  0  0  0
  9 36  1  0  0  0  0
 10 11  2  0  0  0  0
 10 12  1  0  0  0  0
 12 13  1  0  0  0  0
 12 37  1  0  0  0  0
 13 19  1  0  0  0  0
 13 14  1  0  0  0  0
 13 38  1  0  0  0  0
 14 18  1  0  0  0  0
 14 15  1  0  0  0  0
 14 39  1  0  0  0  0
 15 16  1  0  0  0  0
 15 40  1  0  0  0  0
 15 41  1  0  0  0  0
 16 17  1  0  0  0  0
 16 42  1  0  0  0  0
 16 43  1  0  0  0  0
 17 18  1  0  0  0  0
 18 19  1  0  0  0  0
 18 44  1  0  0  0  0
 19 22  1  0  0  0  0
 19 20  1  0  0  0  0
 20 21  1  0  0  0  0
 20 45  1  0  0  0  0
 20 46  1  0  0  0  0
 21 22  1  0  0  0  0
 21 47  1  0  0  0  0
 21 48  1  0  0  0  0
 22 49  1  0  0  0  0
 22 50  1  0  0  0  0
 23 24  2  0  0  0  0
M  END
> <s_m_source_file>
AV-unprocessed.smi

> <i_m_source_file_index>
2829

> <i_lp_mmshare_version>
43012

> <i_f3d_flags>
0

> <s_epik_input>
W0NIM11DKFtDSDNdKShbQ0gzXSljMVtjSF1bY0hdYyhubjEpW05IXUMoPU8pW05IXVtDQEBIXTJbQ0BIXShbQ0gyXVtDSDJdTzMpW0NAQEhdM0MyNFtDSDJdW0NIMl1bQ0gyXTQ=

> <s_epik_cmdline>
J2VwaWtfcHl0aG9uJywgJy1waCcsICc3LjAnLCAnLXRuJywgJzgnLCAnLW1hJywgJzIwMCcsICctbWV0YWxfYmluZGluZycsICctaW1hZScsICc8aW5maWxlLm1hZT4nLCAnLW9tYWUnLCAnPG91dGZpbGUubWFlPic=

> <r_lp_tautomer_probability>
1

> <r_epik_Ionization_Penalty>
0.011915

> <r_epik_Ionization_Penalty_Charging>
0

> <r_epik_Ionization_Penalty_Neutral>
0.011915

> <r_epik_State_Penalty>
0.00486223

> <r_epik_Charging_Adjusted_Penalty>
0.00486223

> <i_epik_Tot_Q>
0

> <i_epik_Tot_abs_Q>
0

> <r_epik_Metal_State_Penalty>
-0

> <b_epik_Metal_Only>
0

> <s_lp_Force_Field>
OPLS_2005

> <r_lp_Energy>
59.5844

> <b_lp_Chiralities_Consistent>
1

> <s_lp_Variant>
AV-unprocessed.smi:2829-6

> <Gold.Version>
5.8.1

> <Gold.Id.Protein>
6NUR|6NUR_protein|mol2

> <Gold.PLP.Fitness>
40.7733

> <Gold.PLP.PLP>
-41.0233

> <Gold.PLP.part.hbond>
0.0000

> <Gold.PLP.part.metal>
0.0000

> <Gold.PLP.part.buried>
-4.7108

> <Gold.PLP.part.nonpolar>
-37.3834

> <Gold.PLP.part.repulsive>
1.7049

> <Gold.PLP.ligand.clash>
0.0000

> <Gold.PLP.ligand.torsion>
0.2287

> <Gold.PLP.Chemscore.Hbond>
0.0000

> <Gold.PLP.Chemscore.CHOScore>
0.0000

> <Gold.PLP.Chemscore.Metal>
0.0000

> <Gold.PLP.Chemscore.Internal.Correction>
0.2074

> <Gold.Rescore>
     Score         DG    S(hbond)    S(metal)    S(lipo)     H(rot)  DE(clash)    DE(int)     intcor
     13.45     -15.19       0.00        0.00     108.41       1.16       0.30       1.44       ----

> <Gold.Chemscore.Fitness>
13.4544

> <Gold.Chemscore.DG>
-15.1894

> <Gold.Chemscore.ZeroCoef>
-5.4800

> <Gold.Chemscore.Hbond>
0.0000

> <Gold.Chemscore.Metal>
0.0000

> <Gold.Chemscore.Lipo>
108.4063

> <Gold.Chemscore.Internal_Hbond>
0.0000

> <Gold.Chemscore.DEClash>
0.2961

> <Gold.Chemscore.DEInternal>
1.4390

> <Gold.Chemscore.Rot>
1.1618

> <Gold.Chemscore.Internal.Correction>
   9.000000E+99

> <Gold.Chemscore.Hbond.Weighted>
-0.0000

> <Gold.Chemscore.Metal.Weighted>
-0.0000

> <Gold.Chemscore.Lipo.Weighted>
-12.6835

> <Gold.Chemscore.Internal_Hbond.Weighted>
0.0000

> <Gold.Chemscore.DEClash.Weighted>
0.2961

> <Gold.Chemscore.DEInternal.Weighted>
1.4390

> <Gold.Chemscore.Rot.Weighted>
2.9741

> <Gold.Chemscore.Internal.Correction.Weighted>
   9.000000E+99

> <Gold.Protein.RotatedTorsions>
[ 6907 6896 6895 6894 ] final  165.72 input  -60.11 | X-H torsion
[ 7974 7965 7964 7962 ] final   26.44 input  175.53 | X-H torsion
[ 8008 7997 7996 7995 ] final -134.60 input   59.86 | X-H torsion
[ 10167 10162 10161 10158 ] final  -71.60 input  -65.29 | X-H torsion
[ 10718 10713 10712 10709 ] final   77.64 input   66.30 | X-H torsion
[ 10763 10752 10751 10750 ] final  149.99 input  -60.55 | X-H torsion
[ 11005 11000 10999 10996 ] final  173.53 input  -57.11 | X-H torsion

> <Gold.Protein.ActiveResidues>
 VAL166  LYS551  ARG553  GLY616  TRP617  ASP618  TYR619  PRO620  LYS621  CYS622 
 ASP623  PHE694  ASN695  SER759  ASP760  ASP761  ALA762  ILE779  LEU786  VAL792 
 PHE793  MET794  SER795  GLU796  ALA797  LYS798  CYS799  TRP800  GLU811  SER814 

> <Gold.Protein.RotatedAtoms>
  151.8901  133.3514  159.3795 H   0  0  0  0  0  0  0  0  0  0  0  0  # atno 6907 bound_to 6896
  150.7105  134.4932  159.5535 H   0  0  0  0  0  0  0  0  0  0  0  0  # atno 6908 bound_to 6896
  152.2501  134.8142  160.0498 H   0  0  0  0  0  0  0  0  0  0  0  0  # atno 6909 bound_to 6896
  146.1837  139.7328  142.8882 H   0  0  0  0  0  0  0  0  0  0  0  0  # atno 7974 bound_to 7965
  155.3648  140.0485  157.3046 H   0  0  0  0  0  0  0  0  0  0  0  0  # atno 8008 bound_to 7997
  154.5160  140.2208  155.9029 H   0  0  0  0  0  0  0  0  0  0  0  0  # atno 8009 bound_to 7997
  156.1636  140.3111  155.8856 H   0  0  0  0  0  0  0  0  0  0  0  0  # atno 8010 bound_to 7997
  140.5260  143.2326  151.7347 H   0  0  0  0  0  0  0  0  0  0  0  0  # atno 10167 bound_to 10162
  157.6717  130.9831  150.1670 H   0  0  0  0  0  0  0  0  0  0  0  0  # atno 10718 bound_to 10713
  154.0802  135.2860  155.3292 H   0  0  0  0  0  0  0  0  0  0  0  0  # atno 10763 bound_to 10752
  154.6689  135.5307  153.8116 H   0  0  0  0  0  0  0  0  0  0  0  0  # atno 10764 bound_to 10752
  153.0452  135.6552  154.0977 H   0  0  0  0  0  0  0  0  0  0  0  0  # atno 10765 bound_to 10752
  140.3415  134.7273  157.4205 H   0  0  0  0  0  0  0  0  0  0  0  0  # atno 11005 bound_to 11000
  145.4000  141.0384  143.3076 LP  0  0  0  0  0  0  0  0  0  0  0  0  # atno 17320 bound_to 7965
  144.8360  139.5549  143.6922 LP  0  0  0  0  0  0  0  0  0  0  0  0  # atno 17321 bound_to 7965
  139.4938  144.4185  152.0003 LP  0  0  0  0  0  0  0  0  0  0  0  0  # atno 17342 bound_to 10162
  140.3285  144.3345  150.5993 LP  0  0  0  0  0  0  0  0  0  0  0  0  # atno 17343 bound_to 10162
  156.2433  130.3693  149.8313 LP  0  0  0  0  0  0  0  0  0  0  0  0  # atno 17370 bound_to 10713
  156.6106  130.8585  151.3453 LP  0  0  0  0  0  0  0  0  0  0  0  0  # atno 17371 bound_to 10713
  140.0777  134.5774  155.8573 LP  0  0  0  0  0  0  0  0  0  0  0  0  # atno 17394 bound_to 11000
  141.2037  133.6634  156.6079 LP  0  0  0  0  0  0  0  0  0  0  0  0  # atno 17395 bound_to 11000

$$$$
