AV-unprocessed.smi:3068|AV-procd|sdf|11709|dock10
  -GOLD-   2272017113D 1   1.00000     0.00000
 Structure written by MMmdl.
 39 41  0  0  0  0  0  0  0  0  1 V2000
  150.4710  136.8290  159.5263 N   0  0  0  0  0  0  0  0  0  0  0  0
  150.9036  137.2728  158.5490 C   0  0  0  0  0  0  0  0  0  0  0  0
  151.4478  137.8322  157.3183 C   0  0  0  0  0  0  0  0  0  0  0  0
  150.6029  137.9189  156.2647 N   0  0  0  0  0  0  0  0  0  0  0  0
  151.0948  138.4350  155.1184 C   0  0  0  0  0  0  0  0  0  0  0  0
  152.4310  138.8683  155.0183 C   0  0  0  0  0  0  0  0  0  0  0  0
  153.2801  138.7869  156.0644 N   0  0  0  0  0  0  0  0  0  0  0  0
  152.8002  138.2667  157.2220 C   0  0  0  0  0  0  0  0  0  0  0  0
  153.6728  138.1766  158.3225 N   0  0  0  0  0  0  0  0  0  0  0  0
  153.3597  138.8013  159.6026 C   0  0  0  0  0  0  0  0  0  0  0  0
  153.4860  140.3329  159.5557 C   0  0  1  0  0  0  0  0  0  0  0  0
  152.4111  140.9641  158.6520 C   0  0  0  0  0  0  0  0  0  0  0  0
  152.4796  142.4198  158.6622 N   0  0  0  0  0  0  0  0  0  0  0  0
  151.4502  143.0067  157.8062 C   0  0  0  0  0  0  0  0  0  0  0  0
  151.5230  144.5415  157.7713 C   0  0  0  0  0  0  0  0  0  0  0  0
  151.4214  145.1123  159.1930 C   0  0  0  0  0  0  0  0  0  0  0  0
  152.4692  144.4521  160.1023 C   0  0  0  0  0  0  0  0  0  0  0  0
  152.3661  142.9142  160.0376 C   0  0  2  0  0  0  0  0  0  0  0  0
  153.4243  142.2584  160.9481 C   0  0  0  0  0  0  0  0  0  0  0  0
  153.3139  140.8405  160.8766 O   0  0  0  0  0  0  0  0  0  0  0  0
  150.4195  138.5034  154.2783 H   0  0  0  0  0  0  0  0  0  0  0  0
  152.8192  139.2810  154.0990 H   0  0  0  0  0  0  0  0  0  0  0  0
  154.6212  137.8644  158.1693 H   0  0  0  0  0  0  0  0  0  0  0  0
  152.3548  138.5122  159.9124 H   0  0  0  0  0  0  0  0  0  0  0  0
  154.0358  138.3984  160.3572 H   0  0  0  0  0  0  0  0  0  0  0  0
  154.4731  140.6138  159.1848 H   0  0  0  0  0  0  0  0  0  0  0  0
  152.5357  140.5989  157.6318 H   0  0  0  0  0  0  0  0  0  0  0  0
  151.4232  140.6380  158.9812 H   0  0  0  0  0  0  0  0  0  0  0  0
  151.5556  142.6225  156.7909 H   0  0  0  0  0  0  0  0  0  0  0  0
  150.4619  142.6990  158.1512 H   0  0  0  0  0  0  0  0  0  0  0  0
  152.4637  144.8530  157.3153 H   0  0  0  0  0  0  0  0  0  0  0  0
  150.7250  144.9426  157.1464 H   0  0  0  0  0  0  0  0  0  0  0  0
  151.5582  146.1938  159.1788 H   0  0  0  0  0  0  0  0  0  0  0  0
  150.4230  144.9272  159.5910 H   0  0  0  0  0  0  0  0  0  0  0  0
  153.4672  144.7675  159.7946 H   0  0  0  0  0  0  0  0  0  0  0  0
  152.3367  144.7971  161.1284 H   0  0  0  0  0  0  0  0  0  0  0  0
  151.3852  142.6321  160.4248 H   0  0  0  0  0  0  0  0  0  0  0  0
  154.4317  142.5631  160.6597 H   0  0  0  0  0  0  0  0  0  0  0  0
  153.2809  142.5682  161.9834 H   0  0  0  0  0  0  0  0  0  0  0  0
  1  2  3  0  0  0  0
  2  3  1  0  0  0  0
  3  8  1  0  0  0  0
  3  4  2  0  0  0  0
  4  5  1  0  0  0  0
  5  6  2  0  0  0  0
  5 21  1  0  0  0  0
  6  7  1  0  0  0  0
  6 22  1  0  0  0  0
  7  8  2  0  0  0  0
  8  9  1  0  0  0  0
  9 10  1  0  0  0  0
  9 23  1  0  0  0  0
 10 11  1  0  0  0  0
 10 24  1  0  0  0  0
 10 25  1  0  0  0  0
 11 20  1  0  0  0  0
 11 12  1  0  0  0  0
 11 26  1  0  0  0  0
 12 13  1  0  0  0  0
 12 27  1  0  0  0  0
 12 28  1  0  0  0  0
 13 18  1  0  0  0  0
 13 14  1  0  0  0  0
 14 15  1  0  0  0  0
 14 29  1  0  0  0  0
 14 30  1  0  0  0  0
 15 16  1  0  0  0  0
 15 31  1  0  0  0  0
 15 32  1  0  0  0  0
 16 17  1  0  0  0  0
 16 33  1  0  0  0  0
 16 34  1  0  0  0  0
 17 18  1  0  0  0  0
 17 35  1  0  0  0  0
 17 36  1  0  0  0  0
 18 19  1  0  0  0  0
 18 37  1  0  0  0  0
 19 20  1  0  0  0  0
 19 38  1  0  0  0  0
 19 39  1  0  0  0  0
M  END
> <s_m_source_file>
AV-unprocessed.smi

> <i_m_source_file_index>
3068

> <i_lp_mmshare_version>
43012

> <i_f3d_flags>
0

> <s_epik_input>
TiNDYzFuW2NIXVtjSF1uYzFbTkhdW0NIMl1bQ0BIXShbQ0gyXTIpT1tDSDJdW0NAQEhdKE4yMylbQ0gyXVtDSDJdW0NIMl1bQ0gyXTM=

> <s_epik_cmdline>
J2VwaWtfcHl0aG9uJywgJy1waCcsICc3LjAnLCAnLXRuJywgJzgnLCAnLW1hJywgJzIwMCcsICctbWV0YWxfYmluZGluZycsICctaW1hZScsICc8aW5maWxlLm1hZT4nLCAnLW9tYWUnLCAnPG91dGZpbGUubWFlPic=

> <r_epik_Ionization_Penalty>
1.22359

> <r_epik_Ionization_Penalty_Charging>
0

> <r_epik_Ionization_Penalty_Neutral>
1.22359

> <r_epik_State_Penalty>
1.29103

> <r_epik_Charging_Adjusted_Penalty>
1.29103

> <i_epik_Tot_Q>
0

> <i_epik_Tot_abs_Q>
0

> <r_epik_Metal_State_Penalty>
1.29103

> <b_epik_Metal_Only>
0

> <s_lp_Force_Field>
OPLS_2005

> <r_lp_Energy>
45.8407

> <b_lp_Chiralities_Consistent>
1

> <s_lp_Variant>
AV-unprocessed.smi:3068-12

> <Gold.Version>
5.8.1

> <Gold.Id.Protein>
6NUR|6NUR_protein|mol2

> <Gold.PLP.Fitness>
43.2161

> <Gold.PLP.PLP>
-38.4417

> <Gold.PLP.part.hbond>
-2.0000

> <Gold.PLP.part.metal>
0.0000

> <Gold.PLP.part.buried>
-6.4723

> <Gold.PLP.part.nonpolar>
-30.1510

> <Gold.PLP.part.repulsive>
0.1003

> <Gold.PLP.ligand.clash>
0.0000

> <Gold.PLP.ligand.torsion>
0.6134

> <Gold.PLP.Chemscore.Hbond>
2.0000

> <Gold.PLP.Chemscore.CHOScore>
0.0000

> <Gold.PLP.Chemscore.Metal>
0.0000

> <Gold.Chemscore.Hbonds>
donor molecule, donor type, donor heavy atom, donor atom, acceptor molecule, acceptor atom, score
      P1  H  6896  6909       L1     1  1.00
      P1  H  7997  8010       L1     7  1.00

> <Gold.PLP.Chemscore.Internal.Correction>
0.0011

> <Gold.Rescore>
     Score         DG    S(hbond)    S(metal)    S(lipo)     H(rot)  DE(clash)    DE(int)     intcor
     20.83     -21.61       1.88        0.00     112.80       1.30       0.07       0.71       ----

> <Gold.Chemscore.Fitness>
20.8262

> <Gold.Chemscore.DG>
-21.6102

> <Gold.Chemscore.ZeroCoef>
-5.4800

> <Gold.Chemscore.Hbond>
1.8757

> <Gold.Chemscore.Metal>
0.0000

> <Gold.Chemscore.Lipo>
112.8039

> <Gold.Chemscore.Internal_Hbond>
0.0000

> <Gold.Chemscore.DEClash>
0.0747

> <Gold.Chemscore.DEInternal>
0.7093

> <Gold.Chemscore.Rot>
1.3019

> <Gold.Chemscore.Internal.Correction>
   9.000000E+99

> <Gold.Chemscore.Hbonds>
donor molecule, donor type, donor heavy atom, donor atom, acceptor molecule, acceptor atom, score
      P1  H  6896  6909       L1     1  0.82
      P1  H  7997  8010       L1     7  0.69

> <Gold.Chemscore.Hbond.Weighted>
-6.2649

> <Gold.Chemscore.Metal.Weighted>
-0.0000

> <Gold.Chemscore.Lipo.Weighted>
-13.1981

> <Gold.Chemscore.Internal_Hbond.Weighted>
0.0000

> <Gold.Chemscore.DEClash.Weighted>
0.0747

> <Gold.Chemscore.DEInternal.Weighted>
0.7093

> <Gold.Chemscore.Rot.Weighted>
3.3327

> <Gold.Chemscore.Internal.Correction.Weighted>
   9.000000E+99

> <Gold.Protein.RotatedTorsions>
[ 6907 6896 6895 6894 ] final   75.19 input  -60.11 | X-H torsion
[ 7974 7965 7964 7962 ] final  -19.80 input  175.53 | X-H torsion
[ 8008 7997 7996 7995 ] final   73.04 input   59.86 | X-H torsion
[ 10167 10162 10161 10158 ] final   18.89 input  -65.29 | X-H torsion
[ 10718 10713 10712 10709 ] final  -70.47 input   66.30 | X-H torsion
[ 10763 10752 10751 10750 ] final -169.13 input  -60.55 | X-H torsion
[ 11005 11000 10999 10996 ] final  -31.26 input  -57.11 | X-H torsion

> <Gold.Protein.ActiveResidues>
 VAL166  LYS551  ARG553  GLY616  TRP617  ASP618  TYR619  PRO620  LYS621  CYS622 
 ASP623  PHE694  ASN695  SER759  ASP760  ASP761  ALA762  ILE779  LEU786  VAL792 
 PHE793  MET794  SER795  GLU796  ALA797  LYS798  CYS799  TRP800  GLU811  SER814 

> <Gold.Protein.RotatedAtoms>
  152.5013  134.4158  159.9463 H   0  0  0  0  0  0  0  0  0  0  0  0  # atno 6907 bound_to 6896
  151.4128  133.3716  159.2754 H   0  0  0  0  0  0  0  0  0  0  0  0  # atno 6908 bound_to 6896
  150.9279  134.8717  159.7591 H   0  0  0  0  0  0  0  0  0  0  0  0  # atno 6909 bound_to 6896
  146.1822  140.4113  142.8490 H   0  0  0  0  0  0  0  0  0  0  0  0  # atno 7974 bound_to 7965
  155.7777  140.3482  155.5281 H   0  0  0  0  0  0  0  0  0  0  0  0  # atno 8008 bound_to 7997
  155.8759  140.0994  157.1539 H   0  0  0  0  0  0  0  0  0  0  0  0  # atno 8009 bound_to 7997
  154.4021  140.1331  156.4123 H   0  0  0  0  0  0  0  0  0  0  0  0  # atno 8010 bound_to 7997
  140.5619  143.9321  150.6649 H   0  0  0  0  0  0  0  0  0  0  0  0  # atno 10167 bound_to 10162
  156.0406  130.4332  150.2300 H   0  0  0  0  0  0  0  0  0  0  0  0  # atno 10718 bound_to 10713
  154.6556  135.2917  154.9932 H   0  0  0  0  0  0  0  0  0  0  0  0  # atno 10763 bound_to 10752
  154.1010  135.6577  153.4872 H   0  0  0  0  0  0  0  0  0  0  0  0  # atno 10764 bound_to 10752
  153.0400  135.5242  154.7483 H   0  0  0  0  0  0  0  0  0  0  0  0  # atno 10765 bound_to 10752
  140.9453  133.7254  156.1137 H   0  0  0  0  0  0  0  0  0  0  0  0  # atno 11005 bound_to 11000
  144.8335  140.6744  143.6276 LP  0  0  0  0  0  0  0  0  0  0  0  0  # atno 17320 bound_to 7965
  145.4043  139.1592  143.4160 LP  0  0  0  0  0  0  0  0  0  0  0  0  # atno 17321 bound_to 7965
  140.2774  143.3413  152.1183 LP  0  0  0  0  0  0  0  0  0  0  0  0  # atno 17342 bound_to 10162
  139.5074  144.6832  151.5955 LP  0  0  0  0  0  0  0  0  0  0  0  0  # atno 17343 bound_to 10162
  157.0395  131.0031  151.3288 LP  0  0  0  0  0  0  0  0  0  0  0  0  # atno 17370 bound_to 10713
  157.5219  130.8003  149.7819 LP  0  0  0  0  0  0  0  0  0  0  0  0  # atno 17371 bound_to 10713
  140.7678  134.3866  157.5513 LP  0  0  0  0  0  0  0  0  0  0  0  0  # atno 17394 bound_to 11000
  139.8831  134.9003  156.2785 LP  0  0  0  0  0  0  0  0  0  0  0  0  # atno 17395 bound_to 11000

$$$$
