AV-unprocessed.smi:2790|AV-procd|sdf|10770|dock2
  -GOLD-   2272015203D 1   1.00000     0.00000
 Structure written by MMmdl.
 46 47  0  0  0  0  0  0  0  0  4 V2000
  151.8134  144.7269  159.2378 C   0  0  0  0  0  0  0  0  0  0  0  0
  151.4653  143.3320  159.5887 N   0  3  0  0  0  0  0  0  0  0  0  0
  152.4386  142.7315  160.5261 C   0  0  0  0  0  0  0  0  0  0  0  0
  151.2009  142.4815  158.4003 C   0  0  0  0  0  0  0  0  0  0  0  0
  149.7029  142.1753  158.3144 C   0  0  0  0  0  0  0  0  0  0  0  0
  149.0014  142.3947  159.3061 O   0  0  0  0  0  0  0  0  0  0  0  0
  149.3743  141.6863  157.0881 N   0  5  0  0  0  0  0  0  0  0  0  0
  150.3510  141.2636  156.0817 C   0  0  0  0  0  0  0  0  0  0  0  0
  149.9995  139.8440  155.4887 C   0  0  0  0  0  0  0  0  0  0  0  0
  148.7433  139.9776  154.5781 C   0  0  0  0  0  0  0  0  0  0  0  0
  148.1750  138.8446  153.9316 C   0  0  0  0  0  0  0  0  0  0  0  0
  147.0440  138.9897  153.1044 C   0  0  0  0  0  0  0  0  0  0  0  0
  146.4971  140.2081  152.9202 N   0  3  0  0  0  0  0  0  0  0  0  0
  146.9923  141.3201  153.4993 C   0  0  0  0  0  0  0  0  0  0  0  0
  148.1221  141.2343  154.3369 C   0  0  0  0  0  0  0  0  0  0  0  0
  151.1854  139.2909  154.6162 C   0  0  0  0  0  0  0  0  0  0  0  0
  152.4269  138.7828  155.3836 C   0  0  0  0  0  0  0  0  0  0  0  0
  152.0530  137.7306  156.4298 C   0  0  0  0  0  0  0  0  0  0  0  0
  150.9940  138.2845  157.3852 C   0  0  0  0  0  0  0  0  0  0  0  0
  149.7478  138.7752  156.6172 C   0  0  0  0  0  0  0  0  0  0  0  0
  152.7589  144.7698  158.6959 H   0  0  0  0  0  0  0  0  0  0  0  0
  151.9053  145.3377  160.1361 H   0  0  0  0  0  0  0  0  0  0  0  0
  151.0395  145.1739  158.6128 H   0  0  0  0  0  0  0  0  0  0  0  0
  153.4204  142.6346  160.0608 H   0  0  0  0  0  0  0  0  0  0  0  0
  152.1070  141.7415  160.8412 H   0  0  0  0  0  0  0  0  0  0  0  0
  152.5419  143.3464  161.4207 H   0  0  0  0  0  0  0  0  0  0  0  0
  151.5429  142.9601  157.4803 H   0  0  0  0  0  0  0  0  0  0  0  0
  151.7471  141.5389  158.4671 H   0  0  0  0  0  0  0  0  0  0  0  0
  150.4199  141.9721  155.2548 H   0  0  0  0  0  0  0  0  0  0  0  0
  151.3514  141.2351  156.5125 H   0  0  0  0  0  0  0  0  0  0  0  0
  148.6031  137.8609  154.0447 H   0  0  0  0  0  0  0  0  0  0  0  0
  146.5683  138.1720  152.5829 H   0  0  0  0  0  0  0  0  0  0  0  0
  146.4766  142.2421  153.2734 H   0  0  0  0  0  0  0  0  0  0  0  0
  148.5015  142.1462  154.7698 H   0  0  0  0  0  0  0  0  0  0  0  0
  150.8120  138.4450  154.0366 H   0  0  0  0  0  0  0  0  0  0  0  0
  151.5263  140.0145  153.8737 H   0  0  0  0  0  0  0  0  0  0  0  0
  153.1399  138.3547  154.6785 H   0  0  0  0  0  0  0  0  0  0  0  0
  152.9456  139.6126  155.8645 H   0  0  0  0  0  0  0  0  0  0  0  0
  151.6720  136.8367  155.9346 H   0  0  0  0  0  0  0  0  0  0  0  0
  152.9388  137.4256  156.9876 H   0  0  0  0  0  0  0  0  0  0  0  0
  150.7025  137.5086  158.0934 H   0  0  0  0  0  0  0  0  0  0  0  0
  151.4183  139.0913  157.9835 H   0  0  0  0  0  0  0  0  0  0  0  0
  149.0102  139.1109  157.3484 H   0  0  0  0  0  0  0  0  0  0  0  0
  149.3078  137.8901  156.1548 H   0  0  0  0  0  0  0  0  0  0  0  0
  150.5852  143.3773  160.0832 H   0  0  0  0  0  0  0  0  0  0  0  0
  145.6805  140.2924  152.3145 H   0  0  0  0  0  0  0  0  0  0  0  0
  1  2  1  0  0  0  0
  1 21  1  0  0  0  0
  1 22  1  0  0  0  0
  1 23  1  0  0  0  0
  2  3  1  0  0  0  0
  2  4  1  0  0  0  0
  2 45  1  0  0  0  0
  3 24  1  0  0  0  0
  3 25  1  0  0  0  0
  3 26  1  0  0  0  0
  4  5  1  0  0  0  0
  4 27  1  0  0  0  0
  4 28  1  0  0  0  0
  5  6  2  0  0  0  0
  5  7  1  0  0  0  0
  7  8  1  0  0  0  0
  8  9  1  0  0  0  0
  8 29  1  0  0  0  0
  8 30  1  0  0  0  0
  9 20  1  0  0  0  0
  9 10  1  0  0  0  0
  9 16  1  0  0  0  0
 10 15  1  0  0  0  0
 10 11  2  0  0  0  0
 11 12  1  0  0  0  0
 11 31  1  0  0  0  0
 12 13  2  0  0  0  0
 12 32  1  0  0  0  0
 13 14  1  0  0  0  0
 13 46  1  0  0  0  0
 14 15  2  0  0  0  0
 14 33  1  0  0  0  0
 15 34  1  0  0  0  0
 16 17  1  0  0  0  0
 16 35  1  0  0  0  0
 16 36  1  0  0  0  0
 17 18  1  0  0  0  0
 17 37  1  0  0  0  0
 17 38  1  0  0  0  0
 18 19  1  0  0  0  0
 18 39  1  0  0  0  0
 18 40  1  0  0  0  0
 19 20  1  0  0  0  0
 19 41  1  0  0  0  0
 19 42  1  0  0  0  0
 20 43  1  0  0  0  0
 20 44  1  0  0  0  0
M  CHG  1   2   1
M  CHG  1   7  -1
M  CHG  1  13   1
M  END
> <s_m_source_file>
AV-unprocessed.smi

> <i_m_source_file_index>
2790

> <i_lp_mmshare_version>
43012

> <i_f3d_flags>
0

> <s_epik_input>
W0NIM11OKFtDSDNdKVtDSDJdQyg9TylbTkhdW0NIMl1DMShbQ0gyXVtDSDJdW0NIMl1bQ0gyXVtDSDJdMSljMltjSF1bY0hdbltjSF1bY0hdMg==

> <s_epik_cmdline>
J2VwaWtfcHl0aG9uJywgJy1waCcsICc3LjAnLCAnLXRuJywgJzgnLCAnLW1hJywgJzIwMCcsICctbWV0YWxfYmluZGluZycsICctaW1hZScsICc8aW5maWxlLm1hZT4nLCAnLW9tYWUnLCAnPG91dGZpbGUubWFlPic=

> <r_epik_Ionization_Penalty>
6.72126

> <r_epik_Ionization_Penalty_Charging>
6.72126

> <r_epik_Ionization_Penalty_Neutral>
0

> <r_epik_State_Penalty>
7.43246

> <r_epik_Charging_Adjusted_Penalty>
14.1537

> <i_epik_Tot_Q>
1

> <i_epik_Tot_abs_Q>
3

> <r_epik_Metal_State_Penalty>
3.42758

> <b_epik_Metal_Only>
1

> <s_lp_Force_Field>
OPLS_2005

> <r_lp_Energy>
31.5627

> <b_lp_Chiralities_Consistent>
1

> <s_lp_Variant>
AV-unprocessed.smi:2790-5

> <Gold.Version>
5.8.1

> <Gold.Id.Protein>
6NUR|6NUR_protein|mol2

> <Gold.PLP.Fitness>
41.7763

> <Gold.PLP.PLP>
-38.4848

> <Gold.PLP.part.hbond>
-2.0000

> <Gold.PLP.part.metal>
0.0000

> <Gold.PLP.part.buried>
-5.6479

> <Gold.PLP.part.nonpolar>
-32.3232

> <Gold.PLP.part.repulsive>
0.4446

> <Gold.PLP.ligand.clash>
0.0000

> <Gold.PLP.ligand.torsion>
1.1034

> <Gold.PLP.Chemscore.Hbond>
1.8037

> <Gold.PLP.Chemscore.CHOScore>
0.0000

> <Gold.PLP.Chemscore.Metal>
0.0000

> <Gold.Chemscore.Hbonds>
donor molecule, donor type, donor heavy atom, donor atom, acceptor molecule, acceptor atom, score
      L1  H    13    46       P1 10175  1.60
      P1  H  6933  6944       L1     6  0.03

> <Gold.PLP.Chemscore.Internal.Correction>
0.0873

> <Gold.Rescore>
     Score         DG    S(hbond)    S(metal)    S(lipo)     H(rot)  DE(clash)    DE(int)     intcor
     15.26     -16.54       1.11        0.00      99.42       1.67       0.01       1.27       ----

> <Gold.Chemscore.Fitness>
15.2599

> <Gold.Chemscore.DG>
-16.5374

> <Gold.Chemscore.ZeroCoef>
-5.4800

> <Gold.Chemscore.Hbond>
1.1111

> <Gold.Chemscore.Metal>
0.0000

> <Gold.Chemscore.Lipo>
99.4190

> <Gold.Chemscore.Internal_Hbond>
0.0000

> <Gold.Chemscore.DEClash>
0.0060

> <Gold.Chemscore.DEInternal>
1.2716

> <Gold.Chemscore.Rot>
1.6741

> <Gold.Chemscore.Internal.Correction>
   9.000000E+99

> <Gold.Chemscore.Hbonds>
donor molecule, donor type, donor heavy atom, donor atom, acceptor molecule, acceptor atom, score
      L1  H    13    46       P1 10175  0.42
      P1  H  6933  6944       L1     6  0.06

> <Gold.Chemscore.Hbond.Weighted>
-3.7112

> <Gold.Chemscore.Metal.Weighted>
-0.0000

> <Gold.Chemscore.Lipo.Weighted>
-11.6320

> <Gold.Chemscore.Internal_Hbond.Weighted>
0.0000

> <Gold.Chemscore.DEClash.Weighted>
0.0060

> <Gold.Chemscore.DEInternal.Weighted>
1.2716

> <Gold.Chemscore.Rot.Weighted>
4.2858

> <Gold.Chemscore.Internal.Correction.Weighted>
   9.000000E+99

> <Gold.Protein.RotatedTorsions>
[ 6907 6896 6895 6894 ] final  -34.92 input  -60.11 | X-H torsion
[ 7974 7965 7964 7962 ] final -155.83 input  175.53 | X-H torsion
[ 8008 7997 7996 7995 ] final   -7.88 input   59.86 | X-H torsion
[ 10167 10162 10161 10158 ] final -168.52 input  -65.29 | X-H torsion
[ 10718 10713 10712 10709 ] final   51.87 input   66.30 | X-H torsion
[ 10763 10752 10751 10750 ] final  -75.69 input  -60.55 | X-H torsion
[ 11005 11000 10999 10996 ] final   61.02 input  -57.11 | X-H torsion

> <Gold.Protein.ActiveResidues>
 VAL166  LYS551  ARG553  GLY616  TRP617  ASP618  TYR619  PRO620  LYS621  CYS622 
 ASP623  PHE694  ASN695  SER759  ASP760  ASP761  ALA762  ILE779  LEU786  VAL792 
 PHE793  MET794  SER795  GLU796  ALA797  LYS798  CYS799  TRP800  GLU811  SER814 

> <Gold.Protein.RotatedAtoms>
  151.0464  134.9643  159.8188 H   0  0  0  0  0  0  0  0  0  0  0  0  # atno 6907 bound_to 6896
  152.5373  134.2592  159.8939 H   0  0  0  0  0  0  0  0  0  0  0  0  # atno 6908 bound_to 6896
  151.2607  133.4261  159.2650 H   0  0  0  0  0  0  0  0  0  0  0  0  # atno 6909 bound_to 6896
  144.7621  140.4194  143.5969 H   0  0  0  0  0  0  0  0  0  0  0  0  # atno 7974 bound_to 7965
  154.5795  140.2395  155.8074 H   0  0  0  0  0  0  0  0  0  0  0  0  # atno 8008 bound_to 7997
  156.2168  140.3009  155.9815 H   0  0  0  0  0  0  0  0  0  0  0  0  # atno 8009 bound_to 7997
  155.2567  140.0413  157.2983 H   0  0  0  0  0  0  0  0  0  0  0  0  # atno 8010 bound_to 7997
  139.5980  144.1071  152.1711 H   0  0  0  0  0  0  0  0  0  0  0  0  # atno 10167 bound_to 10162
  157.5022  130.8445  149.8330 H   0  0  0  0  0  0  0  0  0  0  0  0  # atno 10718 bound_to 10713
  154.4900  135.5822  153.6452 H   0  0  0  0  0  0  0  0  0  0  0  0  # atno 10763 bound_to 10752
  152.9860  135.6110  154.3138 H   0  0  0  0  0  0  0  0  0  0  0  0  # atno 10764 bound_to 10752
  154.3036  135.2846  155.2578 H   0  0  0  0  0  0  0  0  0  0  0  0  # atno 10765 bound_to 10752
  140.0190  134.6181  155.9667 H   0  0  0  0  0  0  0  0  0  0  0  0  # atno 11005 bound_to 11000
  145.6586  139.1577  143.2821 LP  0  0  0  0  0  0  0  0  0  0  0  0  # atno 17320 bound_to 7965
  146.1694  140.6668  142.9240 LP  0  0  0  0  0  0  0  0  0  0  0  0  # atno 17321 bound_to 7965
  140.0661  144.5817  150.7226 LP  0  0  0  0  0  0  0  0  0  0  0  0  # atno 17342 bound_to 10162
  140.7227  143.2605  151.4224 LP  0  0  0  0  0  0  0  0  0  0  0  0  # atno 17343 bound_to 10162
  156.0236  130.3787  150.1888 LP  0  0  0  0  0  0  0  0  0  0  0  0  # atno 17370 bound_to 10713
  157.0078  130.9942  151.3374 LP  0  0  0  0  0  0  0  0  0  0  0  0  # atno 17371 bound_to 10713
  141.1762  133.6540  156.4837 LP  0  0  0  0  0  0  0  0  0  0  0  0  # atno 17394 bound_to 11000
  140.4420  134.7007  157.4996 LP  0  0  0  0  0  0  0  0  0  0  0  0  # atno 17395 bound_to 11000

$$$$
