AV-unprocessed.smi:1626|AV-procd|sdf|6511|dock2
  -GOLD-   22720 7183D 1   1.00000     0.00000
 Structure written by MMmdl.
 49 51  0  0  0  0  0  0  0  0  3 V2000
  154.8517  140.5390  161.7510 C   0  0  0  0  0  0  0  0  0  0  0  0
  153.8103  141.4794  161.1682 C   0  0  0  0  0  0  0  0  0  0  0  0
  153.3702  141.2602  159.8431 C   0  0  0  0  0  0  0  0  0  0  0  0
  152.4160  142.1358  159.3387 C   0  0  0  0  0  0  0  0  0  0  0  0
  151.7879  142.1870  158.0923 N   0  3  0  0  0  0  0  0  0  0  0  0
  150.9131  143.2304  158.0666 C   0  0  0  0  0  0  0  0  0  0  0  0
  150.9801  143.8515  159.2761 N   0  0  0  0  0  0  0  0  0  0  0  0
  150.2486  145.0222  159.7790 C   0  0  0  0  0  0  0  0  0  0  0  0
  148.9703  144.6480  160.5553 C   0  0  1  0  0  0  0  0  0  0  0  0
  149.3293  144.1511  161.8302 O   0  0  0  0  0  0  0  0  0  0  0  0
  148.0434  145.8655  160.7431 C   0  0  0  0  0  0  0  0  0  0  0  0
  146.7901  145.7553  159.9531 N   0  3  2  0  0  0  0  0  0  0  0  0
  146.0383  147.0358  159.8580 C   0  0  0  0  0  0  0  0  0  0  0  0
  144.8306  146.8998  158.9157 C   0  0  0  0  0  0  0  0  0  0  0  0
  143.9067  145.7613  159.3724 C   0  0  1  0  0  0  0  0  0  0  0  0
  142.8615  145.5892  158.4394 O   0  0  0  0  0  0  0  0  0  0  0  0
  144.7088  144.4575  159.4945 C   0  0  0  0  0  0  0  0  0  0  0  0
  145.9209  144.6446  160.4223 C   0  0  0  0  0  0  0  0  0  0  0  0
  151.9011  143.2005  160.1034 C   0  0  0  0  0  0  0  0  0  0  0  0
  152.3236  143.4314  161.4100 C   0  0  0  0  0  0  0  0  0  0  0  0
  153.2940  142.5516  161.9414 C   0  0  0  0  0  0  0  0  0  0  0  0
  153.7738  142.7769  163.3653 C   0  0  0  0  0  0  0  0  0  0  0  0
  155.1246  139.7571  161.0418 H   0  0  0  0  0  0  0  0  0  0  0  0
  154.4705  140.0536  162.6498 H   0  0  0  0  0  0  0  0  0  0  0  0
  155.7589  141.0856  162.0102 H   0  0  0  0  0  0  0  0  0  0  0  0
  153.7579  140.4453  159.2489 H   0  0  0  0  0  0  0  0  0  0  0  0
  150.2826  143.5145  157.2359 H   0  0  0  0  0  0  0  0  0  0  0  0
  150.9318  145.5807  160.4208 H   0  0  0  0  0  0  0  0  0  0  0  0
  150.0168  145.6729  158.9349 H   0  0  0  0  0  0  0  0  0  0  0  0
  148.4530  143.8544  160.0175 H   0  0  0  0  0  0  0  0  0  0  0  0
  148.6958  144.4573  162.4618 H   0  0  0  0  0  0  0  0  0  0  0  0
  147.8052  145.9540  161.8045 H   0  0  0  0  0  0  0  0  0  0  0  0
  148.5600  146.7876  160.4720 H   0  0  0  0  0  0  0  0  0  0  0  0
  145.7039  147.3379  160.8519 H   0  0  0  0  0  0  0  0  0  0  0  0
  146.6856  147.8308  159.4896 H   0  0  0  0  0  0  0  0  0  0  0  0
  144.2798  147.8405  158.8808 H   0  0  0  0  0  0  0  0  0  0  0  0
  145.1838  146.7089  157.9011 H   0  0  0  0  0  0  0  0  0  0  0  0
  143.4643  146.0111  160.3378 H   0  0  0  0  0  0  0  0  0  0  0  0
  142.5311  144.7063  158.5114 H   0  0  0  0  0  0  0  0  0  0  0  0
  144.0713  143.6577  159.8735 H   0  0  0  0  0  0  0  0  0  0  0  0
  145.0534  144.1383  158.5094 H   0  0  0  0  0  0  0  0  0  0  0  0
  146.4920  143.7157  160.4501 H   0  0  0  0  0  0  0  0  0  0  0  0
  145.5891  144.8451  161.4422 H   0  0  0  0  0  0  0  0  0  0  0  0
  151.9288  144.2454  161.9993 H   0  0  0  0  0  0  0  0  0  0  0  0
  153.3043  143.6543  163.8109 H   0  0  0  0  0  0  0  0  0  0  0  0
  154.8530  142.9302  163.3876 H   0  0  0  0  0  0  0  0  0  0  0  0
  153.5326  141.9168  163.9904 H   0  0  0  0  0  0  0  0  0  0  0  0
  147.0740  145.5081  159.0154 H   0  0  0  0  0  0  0  0  0  0  0  0
  151.9398  141.5552  157.3161 H   0  0  0  0  0  0  0  0  0  0  0  0
  1  2  1  0  0  0  0
  1 23  1  0  0  0  0
  1 24  1  0  0  0  0
  1 25  1  0  0  0  0
  2 21  1  0  0  0  0
  2  3  2  0  0  0  0
  3  4  1  0  0  0  0
  3 26  1  0  0  0  0
  4 19  2  0  0  0  0
  4  5  1  0  0  0  0
  5  6  2  0  0  0  0
  5 49  1  0  0  0  0
  6  7  1  0  0  0  0
  6 27  1  0  0  0  0
  7  8  1  0  0  0  0
  7 19  1  0  0  0  0
  8  9  1  0  0  0  0
  8 28  1  0  0  0  0
  8 29  1  0  0  0  0
  9 10  1  0  0  0  0
  9 11  1  0  0  0  0
  9 30  1  0  0  0  0
 10 31  1  0  0  0  0
 11 12  1  0  0  0  0
 11 32  1  0  0  0  0
 11 33  1  0  0  0  0
 12 18  1  0  0  0  0
 12 13  1  0  0  0  0
 12 48  1  0  0  0  0
 13 14  1  0  0  0  0
 13 34  1  0  0  0  0
 13 35  1  0  0  0  0
 14 15  1  0  0  0  0
 14 36  1  0  0  0  0
 14 37  1  0  0  0  0
 15 16  1  0  0  0  0
 15 17  1  0  0  0  0
 15 38  1  0  0  0  0
 16 39  1  0  0  0  0
 17 18  1  0  0  0  0
 17 40  1  0  0  0  0
 17 41  1  0  0  0  0
 18 42  1  0  0  0  0
 18 43  1  0  0  0  0
 19 20  1  0  0  0  0
 20 21  2  0  0  0  0
 20 44  1  0  0  0  0
 21 22  1  0  0  0  0
 22 45  1  0  0  0  0
 22 46  1  0  0  0  0
 22 47  1  0  0  0  0
M  CHG  1   5   1
M  CHG  1  12   1
M  END
> <s_m_source_file>
AV-unprocessed.smi

> <i_m_source_file_index>
1626

> <i_lp_mmshare_version>
43012

> <i_f3d_flags>
0

> <s_epik_input>
W0NIM11jKFtjSF0xKWMoW0NIM10pW2NIXWMoYzEyKW4oW2NIXW4yKVtDSDJdW0NASF0oW09IXSlbQ0gyXU4zW0NIMl1bQ0gyXVtDSF0oW09IXSlbQ0gyXVtDSDJdMw==

> <s_epik_cmdline>
J2VwaWtfcHl0aG9uJywgJy1waCcsICc3LjAnLCAnLXRuJywgJzgnLCAnLW1hJywgJzIwMCcsICctbWV0YWxfYmluZGluZycsICctaW1hZScsICc8aW5maWxlLm1hZT4nLCAnLW9tYWUnLCAnPG91dGZpbGUubWFlPic=

> <r_epik_Ionization_Penalty>
1.19369

> <r_epik_Ionization_Penalty_Charging>
1.19369

> <r_epik_Ionization_Penalty_Neutral>
1.68219e-06

> <r_epik_State_Penalty>
1.27429

> <r_epik_Charging_Adjusted_Penalty>
2.46798

> <i_epik_Tot_Q>
2

> <i_epik_Tot_abs_Q>
2

> <r_epik_Metal_State_Penalty>
5.29157

> <b_epik_Metal_Only>
0

> <s_lp_Force_Field>
OPLS_2005

> <r_lp_Energy>
30.226

> <b_lp_Chiralities_Consistent>
1

> <s_lp_Variant>
AV-unprocessed.smi:1626-6

> <Gold.Version>
5.8.1

> <Gold.Id.Protein>
6NUR|6NUR_protein|mol2

> <Gold.PLP.Fitness>
58.8591

> <Gold.PLP.PLP>
-51.6735

> <Gold.PLP.part.hbond>
-4.0000

> <Gold.PLP.part.metal>
0.0000

> <Gold.PLP.part.buried>
-5.6392

> <Gold.PLP.part.nonpolar>
-42.4330

> <Gold.PLP.part.repulsive>
0.2017

> <Gold.PLP.ligand.clash>
0.0000

> <Gold.PLP.ligand.torsion>
1.2346

> <Gold.PLP.Chemscore.Hbond>
2.2080

> <Gold.PLP.Chemscore.CHOScore>
1.0000

> <Gold.PLP.Chemscore.Metal>
0.0000

> <Gold.Chemscore.Hbonds>
donor molecule, donor type, donor heavy atom, donor atom, acceptor molecule, acceptor atom, score
      L1  H    12    48       P1  8029  2.00
      P1  H  6933  6944       L1    10  0.19
      L1  C     6    27       P1  8028  1.00

> <Gold.PLP.Chemscore.Internal.Correction>
0.0307

> <Gold.Rescore>
     Score         DG    S(hbond)    S(metal)    S(lipo)     H(rot)  DE(clash)    DE(int)     intcor
     15.09     -16.51       1.13        0.00     121.90       2.74       0.21       1.21       ----

> <Gold.Chemscore.Fitness>
15.0920

> <Gold.Chemscore.DG>
-16.5121

> <Gold.Chemscore.ZeroCoef>
-5.4800

> <Gold.Chemscore.Hbond>
1.1319

> <Gold.Chemscore.Metal>
0.0000

> <Gold.Chemscore.Lipo>
121.8964

> <Gold.Chemscore.Internal_Hbond>
0.0000

> <Gold.Chemscore.DEClash>
0.2129

> <Gold.Chemscore.DEInternal>
1.2072

> <Gold.Chemscore.Rot>
2.7384

> <Gold.Chemscore.Internal.Correction>
   9.000000E+99

> <Gold.Chemscore.Hbonds>
donor molecule, donor type, donor heavy atom, donor atom, acceptor molecule, acceptor atom, score
      L1  H    12    48       P1  8029  0.94

> <Gold.Chemscore.Hbond.Weighted>
-3.7806

> <Gold.Chemscore.Metal.Weighted>
-0.0000

> <Gold.Chemscore.Lipo.Weighted>
-14.2619

> <Gold.Chemscore.Internal_Hbond.Weighted>
0.0000

> <Gold.Chemscore.DEClash.Weighted>
0.2129

> <Gold.Chemscore.DEInternal.Weighted>
1.2072

> <Gold.Chemscore.Rot.Weighted>
7.0103

> <Gold.Chemscore.Internal.Correction.Weighted>
   9.000000E+99

> <Gold.Protein.RotatedTorsions>
[ 6907 6896 6895 6894 ] final  178.61 input  -60.11 | X-H torsion
[ 7974 7965 7964 7962 ] final  104.80 input  175.53 | X-H torsion
[ 8008 7997 7996 7995 ] final  -88.59 input   59.86 | X-H torsion
[ 10167 10162 10161 10158 ] final  -80.96 input  -65.29 | X-H torsion
[ 10718 10713 10712 10709 ] final -142.10 input   66.30 | X-H torsion
[ 10763 10752 10751 10750 ] final -115.50 input  -60.55 | X-H torsion
[ 11005 11000 10999 10996 ] final  -83.32 input  -57.11 | X-H torsion

> <Gold.Protein.ActiveResidues>
 VAL166  LYS551  ARG553  GLY616  TRP617  ASP618  TYR619  PRO620  LYS621  CYS622 
 ASP623  PHE694  ASN695  SER759  ASP760  ASP761  ALA762  ILE779  LEU786  VAL792 
 PHE793  MET794  SER795  GLU796  ALA797  LYS798  CYS799  TRP800  GLU811  SER814 

> <Gold.Protein.RotatedAtoms>
  151.6850  133.3311  159.3228 H   0  0  0  0  0  0  0  0  0  0  0  0  # atno 6907 bound_to 6896
  150.7805  134.6748  159.6421 H   0  0  0  0  0  0  0  0  0  0  0  0  # atno 6908 bound_to 6896
  152.3861  134.6518  160.0177 H   0  0  0  0  0  0  0  0  0  0  0  0  # atno 6909 bound_to 6896
  145.3280  139.2494  143.3676 H   0  0  0  0  0  0  0  0  0  0  0  0  # atno 7974 bound_to 7965
  154.6766  140.0552  157.0222 H   0  0  0  0  0  0  0  0  0  0  0  0  # atno 8008 bound_to 7997
  155.1011  140.3229  155.4528 H   0  0  0  0  0  0  0  0  0  0  0  0  # atno 8009 bound_to 7997
  156.2678  140.2031  156.6137 H   0  0  0  0  0  0  0  0  0  0  0  0  # atno 8010 bound_to 7997
  140.4456  143.2500  151.8563 H   0  0  0  0  0  0  0  0  0  0  0  0  # atno 10167 bound_to 10162
  156.3419  130.7642  151.1780 H   0  0  0  0  0  0  0  0  0  0  0  0  # atno 10718 bound_to 10713
  154.8484  135.4379  154.1674 H   0  0  0  0  0  0  0  0  0  0  0  0  # atno 10763 bound_to 10752
  153.2795  135.6952  153.7405 H   0  0  0  0  0  0  0  0  0  0  0  0  # atno 10764 bound_to 10752
  153.6614  135.3434  155.3103 H   0  0  0  0  0  0  0  0  0  0  0  0  # atno 10765 bound_to 10752
  141.1658  133.7288  156.8703 H   0  0  0  0  0  0  0  0  0  0  0  0  # atno 11005 bound_to 11000
  146.3057  140.3852  142.8688 LP  0  0  0  0  0  0  0  0  0  0  0  0  # atno 17320 bound_to 7965
  144.8886  140.7495  143.5941 LP  0  0  0  0  0  0  0  0  0  0  0  0  # atno 17321 bound_to 7965
  139.4792  144.5179  151.8842 LP  0  0  0  0  0  0  0  0  0  0  0  0  # atno 17342 bound_to 10162
  140.4268  144.2170  150.5887 LP  0  0  0  0  0  0  0  0  0  0  0  0  # atno 17343 bound_to 10162
  157.7448  131.0452  150.4831 LP  0  0  0  0  0  0  0  0  0  0  0  0  # atno 17370 bound_to 10713
  156.5013  130.4118  149.6352 LP  0  0  0  0  0  0  0  0  0  0  0  0  # atno 17371 bound_to 10713
  140.1786  134.9049  157.2921 LP  0  0  0  0  0  0  0  0  0  0  0  0  # atno 17394 bound_to 11000
  140.2420  134.3784  155.7476 LP  0  0  0  0  0  0  0  0  0  0  0  0  # atno 17395 bound_to 11000

$$$$
