AV-unprocessed.smi:3323|AV-procd|sdf|12778|dock1
  -GOLD-   2272019123D 1   1.00000     0.00000
 Structure written by MMmdl.
 37 38  0  0  0  0  0  0  0  0  1 V2000
  146.4875  129.1672  152.8762 C   0  0  0  0  0  0  0  0  0  0  0  0
  146.5751  130.6885  153.0406 C   0  0  1  0  0  0  0  0  0  0  0  0
  147.9028  131.1254  153.6876 C   0  0  0  0  0  0  0  0  0  0  0  0
  147.9946  132.6602  153.7716 C   0  0  1  0  0  0  0  0  0  0  0  0
  149.3409  133.1503  154.3442 C   0  0  0  0  0  0  0  0  0  0  0  0
  149.5696  134.5701  154.0963 N   0  0  0  0  0  0  0  0  0  0  0  0
  150.1569  135.4183  154.9517 C   0  0  0  0  0  0  0  0  0  0  0  0
  150.5636  135.0849  156.0643 O   0  0  0  0  0  0  0  0  0  0  0  0
  150.2240  136.6563  154.4323 N   0  0  0  0  0  0  0  0  0  0  0  0
  150.7417  137.8449  155.0156 C   0  0  0  0  0  0  0  0  0  0  0  0
  151.4611  137.8968  156.2345 C   0  0  0  0  0  0  0  0  0  0  0  0
  151.9270  139.1430  156.6961 C   0  0  0  0  0  0  0  0  0  0  0  0
  151.6643  140.2893  155.9214 C   0  0  0  0  0  0  0  0  0  0  0  0
  150.9923  140.2533  154.7516 N   0  0  0  0  0  0  0  0  0  0  0  0
  150.5487  139.0551  154.3157 C   0  0  0  0  0  0  0  0  0  0  0  0
  147.7357  133.2469  152.3752 C   0  0  0  0  0  0  0  0  0  0  0  0
  146.4226  132.7048  151.7888 C   0  0  0  0  0  0  0  0  0  0  0  0
  146.4577  131.2823  151.7510 O   0  0  0  0  0  0  0  0  0  0  0  0
  146.5617  128.6634  153.8401 H   0  0  0  0  0  0  0  0  0  0  0  0
  147.2886  128.7916  152.2389 H   0  0  0  0  0  0  0  0  0  0  0  0
  145.5385  128.8784  152.4238 H   0  0  0  0  0  0  0  0  0  0  0  0
  145.7399  131.0179  153.6614 H   0  0  0  0  0  0  0  0  0  0  0  0
  147.9851  130.6845  154.6816 H   0  0  0  0  0  0  0  0  0  0  0  0
  148.7398  130.7390  153.1043 H   0  0  0  0  0  0  0  0  0  0  0  0
  147.1976  133.0099  154.4298 H   0  0  0  0  0  0  0  0  0  0  0  0
  149.3669  132.9900  155.4224 H   0  0  0  0  0  0  0  0  0  0  0  0
  150.1646  132.5675  153.9286 H   0  0  0  0  0  0  0  0  0  0  0  0
  149.2615  134.9307  153.2052 H   0  0  0  0  0  0  0  0  0  0  0  0
  149.7970  136.7754  153.5254 H   0  0  0  0  0  0  0  0  0  0  0  0
  151.6752  137.0154  156.8180 H   0  0  0  0  0  0  0  0  0  0  0  0
  152.4763  139.2177  157.6227 H   0  0  0  0  0  0  0  0  0  0  0  0
  152.0069  141.2602  156.2475 H   0  0  0  0  0  0  0  0  0  0  0  0
  150.0156  139.0641  153.3760 H   0  0  0  0  0  0  0  0  0  0  0  0
  147.6977  134.3356  152.4244 H   0  0  0  0  0  0  0  0  0  0  0  0
  148.5602  132.9930  151.7076 H   0  0  0  0  0  0  0  0  0  0  0  0
  145.5654  133.0439  152.3725 H   0  0  0  0  0  0  0  0  0  0  0  0
  146.2839  133.0793  150.7745 H   0  0  0  0  0  0  0  0  0  0  0  0
  1  2  1  0  0  0  0
  1 19  1  0  0  0  0
  1 20  1  0  0  0  0
  1 21  1  0  0  0  0
  2 18  1  0  0  0  0
  2  3  1  0  0  0  0
  2 22  1  0  0  0  0
  3  4  1  0  0  0  0
  3 23  1  0  0  0  0
  3 24  1  0  0  0  0
  4  5  1  0  0  0  0
  4 16  1  0  0  0  0
  4 25  1  0  0  0  0
  5  6  1  0  0  0  0
  5 26  1  0  0  0  0
  5 27  1  0  0  0  0
  6  7  1  0  0  0  0
  6 28  1  0  0  0  0
  7  8  2  0  0  0  0
  7  9  1  0  0  0  0
  9 10  1  0  0  0  0
  9 29  1  0  0  0  0
 10 15  1  0  0  0  0
 10 11  2  0  0  0  0
 11 12  1  0  0  0  0
 11 30  1  0  0  0  0
 12 13  2  0  0  0  0
 12 31  1  0  0  0  0
 13 14  1  0  0  0  0
 13 32  1  0  0  0  0
 14 15  2  0  0  0  0
 15 33  1  0  0  0  0
 16 17  1  0  0  0  0
 16 34  1  0  0  0  0
 16 35  1  0  0  0  0
 17 18  1  0  0  0  0
 17 36  1  0  0  0  0
 17 37  1  0  0  0  0
M  END
> <s_m_source_file>
AV-unprocessed.smi

> <i_m_source_file_index>
3323

> <i_lp_mmshare_version>
43012

> <i_f3d_flags>
0

> <s_epik_input>
W0NIM11bQ0BASF0xW0NIMl1bQ0BIXShbQ0gyXVtDSDJdTzEpW0NIMl1bTkhdQyg9TylbTkhdYzJbY0hdW2NIXVtjSF1uW2NIXTI=

> <s_epik_cmdline>
J2VwaWtfcHl0aG9uJywgJy1waCcsICc3LjAnLCAnLXRuJywgJzgnLCAnLW1hJywgJzIwMCcsICctbWV0YWxfYmluZGluZycsICctaW1hZScsICc8aW5maWxlLm1hZT4nLCAnLW9tYWUnLCAnPG91dGZpbGUubWFlPic=

> <r_epik_Ionization_Penalty>
0.00485293

> <r_epik_Ionization_Penalty_Charging>
0

> <r_epik_Ionization_Penalty_Neutral>
0.00485293

> <r_epik_State_Penalty>
0.00349083

> <r_epik_Charging_Adjusted_Penalty>
0.00349083

> <i_epik_Tot_Q>
0

> <i_epik_Tot_abs_Q>
0

> <r_epik_Metal_State_Penalty>
-0

> <b_epik_Metal_Only>
0

> <s_lp_Force_Field>
OPLS_2005

> <r_lp_Energy>
10.9361

> <b_lp_Chiralities_Consistent>
1

> <s_lp_Variant>
AV-unprocessed.smi:3323-2

> <Gold.Version>
5.8.1

> <Gold.Id.Protein>
6NUR|6NUR_protein|mol2

> <Gold.PLP.Fitness>
42.4317

> <Gold.PLP.PLP>
-32.4117

> <Gold.PLP.part.hbond>
-4.7400

> <Gold.PLP.part.metal>
0.0000

> <Gold.PLP.part.buried>
-1.8492

> <Gold.PLP.part.nonpolar>
-25.8453

> <Gold.PLP.part.repulsive>
0.7810

> <Gold.PLP.ligand.clash>
0.0000

> <Gold.PLP.ligand.torsion>
0.3077

> <Gold.PLP.Chemscore.Hbond>
2.5500

> <Gold.PLP.Chemscore.CHOScore>
0.9940

> <Gold.PLP.Chemscore.Metal>
0.0000

> <Gold.Chemscore.Hbonds>
donor molecule, donor type, donor heavy atom, donor atom, acceptor molecule, acceptor atom, score
      L1  H     6    28       P1  7948  0.60
      L1  H     9    29       P1  7948  1.00
      P1  H  7989  7998       L1    14  1.00
      L1  C    15    33       P1  7957  1.00

> <Gold.PLP.Chemscore.Internal.Correction>
0.0033

> <Gold.Rescore>
     Score         DG    S(hbond)    S(metal)    S(lipo)     H(rot)  DE(clash)    DE(int)     intcor
     13.33     -14.73       1.31        0.00      68.43       1.23       0.07       1.32       ----

> <Gold.Chemscore.Fitness>
13.3348

> <Gold.Chemscore.DG>
-14.7313

> <Gold.Chemscore.ZeroCoef>
-5.4800

> <Gold.Chemscore.Hbond>
1.3134

> <Gold.Chemscore.Metal>
0.0000

> <Gold.Chemscore.Lipo>
68.4301

> <Gold.Chemscore.Internal_Hbond>
0.0000

> <Gold.Chemscore.DEClash>
0.0727

> <Gold.Chemscore.DEInternal>
1.3238

> <Gold.Chemscore.Rot>
1.2273

> <Gold.Chemscore.Internal.Correction>
   9.000000E+99

> <Gold.Chemscore.Hbonds>
donor molecule, donor type, donor heavy atom, donor atom, acceptor molecule, acceptor atom, score
      L1  H     6    28       P1  7948  0.04
      L1  H     9    29       P1  7948  0.44
      P1  H  7989  7998       L1    14  0.40

> <Gold.Chemscore.Hbond.Weighted>
-4.3868

> <Gold.Chemscore.Metal.Weighted>
-0.0000

> <Gold.Chemscore.Lipo.Weighted>
-8.0063

> <Gold.Chemscore.Internal_Hbond.Weighted>
0.0000

> <Gold.Chemscore.DEClash.Weighted>
0.0727

> <Gold.Chemscore.DEInternal.Weighted>
1.3238

> <Gold.Chemscore.Rot.Weighted>
3.1418

> <Gold.Chemscore.Internal.Correction.Weighted>
   9.000000E+99

> <Gold.Protein.RotatedTorsions>
[ 6907 6896 6895 6894 ] final   47.19 input  -60.11 | X-H torsion
[ 7974 7965 7964 7962 ] final -146.96 input  175.53 | X-H torsion
[ 8008 7997 7996 7995 ] final   18.11 input   59.86 | X-H torsion
[ 10167 10162 10161 10158 ] final   54.75 input  -65.29 | X-H torsion
[ 10718 10713 10712 10709 ] final   84.03 input   66.30 | X-H torsion
[ 10763 10752 10751 10750 ] final  -77.18 input  -60.55 | X-H torsion
[ 11005 11000 10999 10996 ] final   45.26 input  -57.11 | X-H torsion

> <Gold.Protein.ActiveResidues>
 VAL166  LYS551  ARG553  GLY616  TRP617  ASP618  TYR619  PRO620  LYS621  CYS622 
 ASP623  PHE694  ASN695  SER759  ASP760  ASP761  ALA762  ILE779  LEU786  VAL792 
 PHE793  MET794  SER795  GLU796  ALA797  LYS798  CYS799  TRP800  GLU811  SER814 

> <Gold.Protein.RotatedAtoms>
  152.2651  134.7992  160.0423 H   0  0  0  0  0  0  0  0  0  0  0  0  # atno 6907 bound_to 6896
  151.8625  133.3455  159.3716 H   0  0  0  0  0  0  0  0  0  0  0  0  # atno 6908 bound_to 6896
  150.7131  134.5120  159.5656 H   0  0  0  0  0  0  0  0  0  0  0  0  # atno 6909 bound_to 6896
  144.8124  140.5388  143.5633 H   0  0  0  0  0  0  0  0  0  0  0  0  # atno 7974 bound_to 7965
  154.9012  140.3001  155.5316 H   0  0  0  0  0  0  0  0  0  0  0  0  # atno 8008 bound_to 7997
  156.3018  140.2406  156.3975 H   0  0  0  0  0  0  0  0  0  0  0  0  # atno 8009 bound_to 7997
  154.8519  140.0409  157.1598 H   0  0  0  0  0  0  0  0  0  0  0  0  # atno 8010 bound_to 7997
  140.2267  144.3730  150.6429 H   0  0  0  0  0  0  0  0  0  0  0  0  # atno 10167 bound_to 10162
  157.6890  131.0116  150.2612 H   0  0  0  0  0  0  0  0  0  0  0  0  # atno 10718 bound_to 10713
  154.5095  135.5773  153.6594 H   0  0  0  0  0  0  0  0  0  0  0  0  # atno 10763 bound_to 10752
  152.9894  135.6155  154.2897 H   0  0  0  0  0  0  0  0  0  0  0  0  # atno 10764 bound_to 10752
  154.2811  135.2851  155.2676 H   0  0  0  0  0  0  0  0  0  0  0  0  # atno 10765 bound_to 10752
  140.1476  134.4502  155.8404 H   0  0  0  0  0  0  0  0  0  0  0  0  # atno 11005 bound_to 11000
  145.5292  139.1475  143.3509 LP  0  0  0  0  0  0  0  0  0  0  0  0  # atno 17320 bound_to 7965
  146.2424  140.5433  142.8928 LP  0  0  0  0  0  0  0  0  0  0  0  0  # atno 17321 bound_to 7965
  140.6215  143.2177  151.6684 LP  0  0  0  0  0  0  0  0  0  0  0  0  # atno 17342 bound_to 10162
  139.5124  144.3476  152.0682 LP  0  0  0  0  0  0  0  0  0  0  0  0  # atno 17343 bound_to 10162
  156.3191  130.3783  149.7591 LP  0  0  0  0  0  0  0  0  0  0  0  0  # atno 17370 bound_to 10713
  156.5167  130.8196  151.3189 LP  0  0  0  0  0  0  0  0  0  0  0  0  # atno 17371 bound_to 10713
  141.2195  133.6859  156.7363 LP  0  0  0  0  0  0  0  0  0  0  0  0  # atno 17394 bound_to 11000
  140.2644  134.8441  157.3789 LP  0  0  0  0  0  0  0  0  0  0  0  0  # atno 17395 bound_to 11000

$$$$
