AV-unprocessed.smi:639|AV-procd|sdf|3144|dock8
  -GOLD-   22720 0 73D 1   1.00000     0.00000
 Structure written by MMmdl.
 24 25  0  0  0  0  0  0  0  0  1 V2000
  152.1711  144.2095  159.9728 C   0  0  0  0  0  0  0  0  0  0  0  0
  152.6143  142.8362  160.0825 N   0  0  0  0  0  0  0  0  0  0  0  0
  152.4481  141.8059  159.1836 C   0  0  0  0  0  0  0  0  0  0  0  0
  153.0344  140.6893  159.7148 C   0  0  0  0  0  0  0  0  0  0  0  0
  153.1228  139.2962  159.1230 C   0  0  1  0  0  0  0  0  0  0  0  0
  154.5791  138.8333  158.9322 C   0  0  0  0  0  0  0  0  0  0  0  0
  152.3642  138.3144  159.8842 N   0  0  0  0  0  0  0  0  0  0  0  0
  151.3205  137.8214  159.2035 C   0  0  0  0  0  0  0  0  0  0  0  0
  150.5098  136.9976  159.6204 O   0  0  0  0  0  0  0  0  0  0  0  0
  151.3224  138.3788  157.9888 N   0  0  0  0  0  0  0  0  0  0  0  0
  152.3308  139.2332  157.8229 C   0  0  0  0  0  0  0  0  0  0  0  0
  152.5943  139.8717  156.8049 O   0  0  0  0  0  0  0  0  0  0  0  0
  153.5401  141.1579  160.9640 C   0  0  0  0  0  0  0  0  0  0  0  0
  153.2897  142.4387  161.1791 N   0  0  0  0  0  0  0  0  0  0  0  0
  151.3601  144.2821  159.2475 H   0  0  0  0  0  0  0  0  0  0  0  0
  153.0001  144.8367  159.6441 H   0  0  0  0  0  0  0  0  0  0  0  0
  151.8123  144.5663  160.9389 H   0  0  0  0  0  0  0  0  0  0  0  0
  151.9284  141.9479  158.2476 H   0  0  0  0  0  0  0  0  0  0  0  0
  155.1347  139.5151  158.2874 H   0  0  0  0  0  0  0  0  0  0  0  0
  154.6303  137.8415  158.4807 H   0  0  0  0  0  0  0  0  0  0  0  0
  155.1016  138.7858  159.8881 H   0  0  0  0  0  0  0  0  0  0  0  0
  152.5989  138.0566  160.8318 H   0  0  0  0  0  0  0  0  0  0  0  0
  150.6425  138.1673  157.2731 H   0  0  0  0  0  0  0  0  0  0  0  0
  154.0800  140.6059  161.7192 H   0  0  0  0  0  0  0  0  0  0  0  0
  1  2  1  0  0  0  0
  1 15  1  0  0  0  0
  1 16  1  0  0  0  0
  1 17  1  0  0  0  0
  2 14  1  0  0  0  0
  2  3  1  0  0  0  0
  3  4  2  0  0  0  0
  3 18  1  0  0  0  0
  4  5  1  0  0  0  0
  4 13  1  0  0  0  0
  5 11  1  0  0  0  0
  5  6  1  0  0  0  0
  5  7  1  0  0  0  0
  6 19  1  0  0  0  0
  6 20  1  0  0  0  0
  6 21  1  0  0  0  0
  7  8  1  0  0  0  0
  7 22  1  0  0  0  0
  8  9  2  0  0  0  0
  8 10  1  0  0  0  0
 10 11  1  0  0  0  0
 10 23  1  0  0  0  0
 11 12  2  0  0  0  0
 13 14  2  0  0  0  0
 13 24  1  0  0  0  0
M  END
> <s_m_source_file>
AV-unprocessed.smi

> <i_m_source_file_index>
639

> <i_lp_mmshare_version>
43012

> <i_f3d_flags>
0

> <s_epik_input>
W0NIM11uMVtjSF1jKFtjSF1uMSlbQ0BAXTIoW0NIM10pW05IXUMoPU8pW05IXUMyPU8=

> <s_epik_cmdline>
J2VwaWtfcHl0aG9uJywgJy1waCcsICc3LjAnLCAnLXRuJywgJzgnLCAnLW1hJywgJzIwMCcsICctbWV0YWxfYmluZGluZycsICctaW1hZScsICc8aW5maWxlLm1hZT4nLCAnLW9tYWUnLCAnPG91dGZpbGUubWFlPic=

> <r_lp_tautomer_probability>
1

> <r_epik_Ionization_Penalty>
0.0282779

> <r_epik_Ionization_Penalty_Charging>
0

> <r_epik_Ionization_Penalty_Neutral>
0.0282779

> <r_epik_State_Penalty>
0.022996

> <r_epik_Charging_Adjusted_Penalty>
0.022996

> <i_epik_Tot_Q>
0

> <i_epik_Tot_abs_Q>
0

> <r_epik_Metal_State_Penalty>
0.428533

> <b_epik_Metal_Only>
0

> <s_lp_Force_Field>
OPLS_2005

> <r_lp_Energy>
13.4697

> <b_lp_Chiralities_Consistent>
1

> <s_lp_Variant>
AV-unprocessed.smi:639-1

> <Gold.Version>
5.8.1

> <Gold.Id.Protein>
6NUR|6NUR_protein|mol2

> <Gold.PLP.Fitness>
29.2123

> <Gold.PLP.PLP>
-23.2137

> <Gold.PLP.part.hbond>
-1.9804

> <Gold.PLP.part.metal>
0.0000

> <Gold.PLP.part.buried>
-1.8351

> <Gold.PLP.part.nonpolar>
-19.6472

> <Gold.PLP.part.repulsive>
0.1772

> <Gold.PLP.ligand.clash>
0.0000

> <Gold.PLP.ligand.torsion>
0.0641

> <Gold.PLP.Chemscore.Hbond>
2.0000

> <Gold.PLP.Chemscore.CHOScore>
0.0000

> <Gold.PLP.Chemscore.Metal>
0.0000

> <Gold.Chemscore.Hbonds>
donor molecule, donor type, donor heavy atom, donor atom, acceptor molecule, acceptor atom, score
      P1  H  6896  6907       L1     9  1.00
      P1  H  7997  8010       L1    12  1.00

> <Gold.PLP.Chemscore.Internal.Correction>
0.1268

> <Gold.Rescore>
     Score         DG    S(hbond)    S(metal)    S(lipo)     H(rot)  DE(clash)    DE(int)     intcor
     14.70     -15.43       1.99        0.00      50.24       1.00       0.04       0.69       ----

> <Gold.Chemscore.Fitness>
14.7002

> <Gold.Chemscore.DG>
-15.4292

> <Gold.Chemscore.ZeroCoef>
-5.4800

> <Gold.Chemscore.Hbond>
1.9855

> <Gold.Chemscore.Metal>
0.0000

> <Gold.Chemscore.Lipo>
50.2364

> <Gold.Chemscore.Internal_Hbond>
0.0000

> <Gold.Chemscore.DEClash>
0.0428

> <Gold.Chemscore.DEInternal>
0.6861

> <Gold.Chemscore.Rot>
1.0000

> <Gold.Chemscore.Internal.Correction>
   9.000000E+99

> <Gold.Chemscore.Hbonds>
donor molecule, donor type, donor heavy atom, donor atom, acceptor molecule, acceptor atom, score
      P1  H  6896  6907       L1     9  0.90
      P1  H  7997  8010       L1    12  0.96

> <Gold.Chemscore.Hbond.Weighted>
-6.6315

> <Gold.Chemscore.Metal.Weighted>
-0.0000

> <Gold.Chemscore.Lipo.Weighted>
-5.8777

> <Gold.Chemscore.Internal_Hbond.Weighted>
0.0000

> <Gold.Chemscore.DEClash.Weighted>
0.0428

> <Gold.Chemscore.DEInternal.Weighted>
0.6861

> <Gold.Chemscore.Rot.Weighted>
2.5600

> <Gold.Chemscore.Internal.Correction.Weighted>
   9.000000E+99

> <Gold.Protein.RotatedTorsions>
[ 6907 6896 6895 6894 ] final  -27.68 input  -60.11 | X-H torsion
[ 7974 7965 7964 7962 ] final -135.20 input  175.53 | X-H torsion
[ 8008 7997 7996 7995 ] final   77.72 input   59.86 | X-H torsion
[ 10167 10162 10161 10158 ] final  -38.99 input  -65.29 | X-H torsion
[ 10718 10713 10712 10709 ] final   15.25 input   66.30 | X-H torsion
[ 10763 10752 10751 10750 ] final   16.37 input  -60.55 | X-H torsion
[ 11005 11000 10999 10996 ] final  -89.87 input  -57.11 | X-H torsion

> <Gold.Protein.ActiveResidues>
 VAL166  LYS551  ARG553  GLY616  TRP617  ASP618  TYR619  PRO620  LYS621  CYS622 
 ASP623  PHE694  ASN695  SER759  ASP760  ASP761  ALA762  ILE779  LEU786  VAL792 
 PHE793  MET794  SER795  GLU796  ALA797  LYS798  CYS799  TRP800  GLU811  SER814 

> <Gold.Protein.RotatedAtoms>
  151.1435  135.0191  159.8636 H   0  0  0  0  0  0  0  0  0  0  0  0  # atno 6907 bound_to 6896
  152.5452  134.1471  159.8513 H   0  0  0  0  0  0  0  0  0  0  0  0  # atno 6908 bound_to 6896
  151.1549  133.4837  159.2627 H   0  0  0  0  0  0  0  0  0  0  0  0  # atno 6909 bound_to 6896
  144.9035  140.6802  143.5070 H   0  0  0  0  0  0  0  0  0  0  0  0  # atno 7974 bound_to 7965
  155.8456  140.3460  155.5660 H   0  0  0  0  0  0  0  0  0  0  0  0  # atno 8008 bound_to 7997
  155.8093  140.0896  157.1932 H   0  0  0  0  0  0  0  0  0  0  0  0  # atno 8009 bound_to 7997
  154.4006  140.1451  156.3355 H   0  0  0  0  0  0  0  0  0  0  0  0  # atno 8010 bound_to 7997
  140.7077  143.3242  151.2719 H   0  0  0  0  0  0  0  0  0  0  0  0  # atno 10167 bound_to 10162
  157.0509  130.6269  149.5767 H   0  0  0  0  0  0  0  0  0  0  0  0  # atno 10718 bound_to 10713
  153.1437  135.6765  153.8988 H   0  0  0  0  0  0  0  0  0  0  0  0  # atno 10763 bound_to 10752
  153.8436  135.3102  155.3429 H   0  0  0  0  0  0  0  0  0  0  0  0  # atno 10764 bound_to 10752
  154.7808  135.4889  153.9925 H   0  0  0  0  0  0  0  0  0  0  0  0  # atno 10765 bound_to 10752
  141.1576  133.7657  156.9657 H   0  0  0  0  0  0  0  0  0  0  0  0  # atno 11005 bound_to 11000
  145.3576  139.1690  143.4400 LP  0  0  0  0  0  0  0  0  0  0  0  0  # atno 17320 bound_to 7965
  146.3121  140.3635  142.8667 LP  0  0  0  0  0  0  0  0  0  0  0  0  # atno 17321 bound_to 7965
  139.6705  144.0028  152.2750 LP  0  0  0  0  0  0  0  0  0  0  0  0  # atno 17342 bound_to 10162
  139.9625  144.6548  150.8066 LP  0  0  0  0  0  0  0  0  0  0  0  0  # atno 17343 bound_to 10162
  156.0008  130.5087  150.7655 LP  0  0  0  0  0  0  0  0  0  0  0  0  # atno 17370 bound_to 10713
  157.5031  131.0920  151.0290 LP  0  0  0  0  0  0  0  0  0  0  0  0  # atno 17371 bound_to 10713
  140.1163  134.9445  157.2139 LP  0  0  0  0  0  0  0  0  0  0  0  0  # atno 17394 bound_to 11000
  140.3129  134.3004  155.7263 LP  0  0  0  0  0  0  0  0  0  0  0  0  # atno 17395 bound_to 11000

$$$$
