AV-unprocessed.smi:173|AV-procd|sdf|1424|dock5
  -GOLD-   2262019193D 1   1.00000     0.00000
 Structure written by MMmdl.
 60 64  0  0  0  0  0  0  0  0  1 V2000
  147.6274  133.0033  150.6372 O   0  0  0  0  0  0  0  0  0  0  0  0
  146.7411  132.9260  151.7393 C   0  0  0  0  0  0  0  0  0  0  0  0
  147.6287  132.5487  152.9529 C   0  0  0  0  0  0  0  0  0  0  0  0
  147.3369  133.2950  154.1667 N   0  0  0  0  0  0  0  0  0  0  0  0
  146.1274  133.3638  154.8207 C   0  0  0  0  0  0  0  0  0  0  0  0
  146.1178  134.1006  155.8972 N   0  0  0  0  0  0  0  0  0  0  0  0
  147.4163  134.5881  155.9870 C   0  0  0  0  0  0  0  0  0  0  0  0
  148.1033  135.4322  156.9054 C   0  0  0  0  0  0  0  0  0  0  0  0
  147.5465  135.9913  158.0057 N   0  0  0  0  0  0  0  0  0  0  0  0
  148.4117  135.9595  159.1859 C   0  0  0  0  0  0  0  0  0  0  0  0
  147.6278  135.9338  160.5082 C   0  0  1  0  0  0  0  0  0  0  0  0
  147.5216  134.5399  161.1187 C   0  0  0  0  0  0  0  0  0  0  0  0
  147.1957  134.8411  162.5685 C   0  0  0  0  0  0  0  0  0  0  0  0
  147.8288  136.2162  162.7980 C   0  0  0  0  0  0  0  0  0  0  0  0
  148.3183  136.6393  161.5296 O   0  0  0  0  0  0  0  0  0  0  0  0
  146.6760  137.1596  157.8028 C   0  0  0  0  0  0  0  0  0  0  0  0
  145.6889  137.0936  156.6294 C   0  0  0  0  0  0  0  0  0  0  0  0
  145.1884  138.5346  156.5008 C   0  0  0  0  0  0  0  0  0  0  0  0
  146.3337  139.4285  157.0070 C   0  0  0  0  0  0  0  0  0  0  0  0
  147.4076  138.4858  157.5670 C   0  0  0  0  0  0  0  0  0  0  0  0
  149.4066  135.7142  156.6543 N   0  0  0  0  0  0  0  0  0  0  0  0
  150.0105  135.1921  155.5828 C   0  0  0  0  0  0  0  0  0  0  0  0
  149.5040  134.3819  154.6509 N   0  0  0  0  0  0  0  0  0  0  0  0
  148.1916  134.1023  154.8969 C   0  0  0  0  0  0  0  0  0  0  0  0
  146.0504  134.2977  151.9030 C   0  0  0  0  0  0  0  0  0  0  0  0
  145.1020  134.6067  150.7302 C   0  0  0  0  0  0  0  0  0  0  0  0
  144.1449  133.5634  150.5898 O   0  0  0  0  0  0  0  0  0  0  0  0
  144.7393  132.3090  150.2771 C   0  0  0  0  0  0  0  0  0  0  0  0
  145.6641  131.8652  151.4246 C   0  0  0  0  0  0  0  0  0  0  0  0
  148.0707  132.1731  150.5497 H   0  0  0  0  0  0  0  0  0  0  0  0
  147.5270  131.4859  153.1782 H   0  0  0  0  0  0  0  0  0  0  0  0
  148.6808  132.7062  152.7096 H   0  0  0  0  0  0  0  0  0  0  0  0
  145.2484  132.8386  154.4761 H   0  0  0  0  0  0  0  0  0  0  0  0
  149.0269  135.0591  159.1399 H   0  0  0  0  0  0  0  0  0  0  0  0
  149.1010  136.8042  159.1737 H   0  0  0  0  0  0  0  0  0  0  0  0
  146.6283  136.3541  160.3783 H   0  0  0  0  0  0  0  0  0  0  0  0
  146.7696  133.9175  160.6332 H   0  0  0  0  0  0  0  0  0  0  0  0
  148.4818  134.0257  161.0549 H   0  0  0  0  0  0  0  0  0  0  0  0
  146.1156  134.9001  162.7078 H   0  0  0  0  0  0  0  0  0  0  0  0
  147.5821  134.0802  163.2470 H   0  0  0  0  0  0  0  0  0  0  0  0
  147.0896  136.9271  163.1686 H   0  0  0  0  0  0  0  0  0  0  0  0
  148.6494  136.1740  163.5143 H   0  0  0  0  0  0  0  0  0  0  0  0
  146.0704  137.2681  158.7023 H   0  0  0  0  0  0  0  0  0  0  0  0
  146.1904  136.8227  155.6995 H   0  0  0  0  0  0  0  0  0  0  0  0
  144.8808  136.3809  156.7965 H   0  0  0  0  0  0  0  0  0  0  0  0
  144.8983  138.7739  155.4774 H   0  0  0  0  0  0  0  0  0  0  0  0
  144.3091  138.6758  157.1307 H   0  0  0  0  0  0  0  0  0  0  0  0
  146.7413  140.0501  156.2089 H   0  0  0  0  0  0  0  0  0  0  0  0
  145.9671  140.0984  157.7858 H   0  0  0  0  0  0  0  0  0  0  0  0
  147.8714  138.8758  158.4735 H   0  0  0  0  0  0  0  0  0  0  0  0
  148.1913  138.3627  156.8202 H   0  0  0  0  0  0  0  0  0  0  0  0
  151.0488  135.4606  155.4552 H   0  0  0  0  0  0  0  0  0  0  0  0
  145.4588  134.3088  152.8179 H   0  0  0  0  0  0  0  0  0  0  0  0
  146.7917  135.0912  152.0060 H   0  0  0  0  0  0  0  0  0  0  0  0
  144.5740  135.5422  150.9163 H   0  0  0  0  0  0  0  0  0  0  0  0
  145.6540  134.7373  149.7983 H   0  0  0  0  0  0  0  0  0  0  0  0
  143.9478  131.5737  150.1323 H   0  0  0  0  0  0  0  0  0  0  0  0
  145.2833  132.3756  149.3338 H   0  0  0  0  0  0  0  0  0  0  0  0
  146.1264  130.9065  151.1867 H   0  0  0  0  0  0  0  0  0  0  0  0
  145.0416  131.6967  152.3032 H   0  0  0  0  0  0  0  0  0  0  0  0
  1  2  1  0  0  0  0
  1 30  1  0  0  0  0
  2 29  1  0  0  0  0
  2  3  1  0  0  0  0
  2 25  1  0  0  0  0
  3  4  1  0  0  0  0
  3 31  1  0  0  0  0
  3 32  1  0  0  0  0
  4 24  1  0  0  0  0
  4  5  1  0  0  0  0
  5  6  2  0  0  0  0
  5 33  1  0  0  0  0
  6  7  1  0  0  0  0
  7 24  2  0  0  0  0
  7  8  1  0  0  0  0
  8  9  1  0  0  0  0
  8 21  2  0  0  0  0
  9 10  1  0  0  0  0
  9 16  1  0  0  0  0
 10 11  1  0  0  0  0
 10 34  1  0  0  0  0
 10 35  1  0  0  0  0
 11 15  1  0  0  0  0
 11 12  1  0  0  0  0
 11 36  1  0  0  0  0
 12 13  1  0  0  0  0
 12 37  1  0  0  0  0
 12 38  1  0  0  0  0
 13 14  1  0  0  0  0
 13 39  1  0  0  0  0
 13 40  1  0  0  0  0
 14 15  1  0  0  0  0
 14 41  1  0  0  0  0
 14 42  1  0  0  0  0
 16 20  1  0  0  0  0
 16 17  1  0  0  0  0
 16 43  1  0  0  0  0
 17 18  1  0  0  0  0
 17 44  1  0  0  0  0
 17 45  1  0  0  0  0
 18 19  1  0  0  0  0
 18 46  1  0  0  0  0
 18 47  1  0  0  0  0
 19 20  1  0  0  0  0
 19 48  1  0  0  0  0
 19 49  1  0  0  0  0
 20 50  1  0  0  0  0
 20 51  1  0  0  0  0
 21 22  1  0  0  0  0
 22 23  2  0  0  0  0
 22 52  1  0  0  0  0
 23 24  1  0  0  0  0
 25 26  1  0  0  0  0
 25 53  1  0  0  0  0
 25 54  1  0  0  0  0
 26 27  1  0  0  0  0
 26 55  1  0  0  0  0
 26 56  1  0  0  0  0
 27 28  1  0  0  0  0
 28 29  1  0  0  0  0
 28 57  1  0  0  0  0
 28 58  1  0  0  0  0
 29 59  1  0  0  0  0
 29 60  1  0  0  0  0
M  END
> <s_m_source_file>
AV-unprocessed.smi

> <i_m_source_file_index>
173

> <i_lp_mmshare_version>
43012

> <i_f3d_flags>
0

> <s_epik_input>
W0NIMl0xW0NIMl1PW0NIMl1bQ0gyXUMxKFtPSF0pW0NIMl1uKFtjSF1uMiljKGMyMyluW2NIXW5jM04oW0NIMl1bQ0BASF00W0NIMl1bQ0gyXVtDSDJdTzQpW0NIXTVbQ0gyXVtDSDJdW0NIMl1bQ0gyXTU=

> <s_epik_cmdline>
J2VwaWtfcHl0aG9uJywgJy1waCcsICc3LjAnLCAnLXRuJywgJzgnLCAnLW1hJywgJzIwMCcsICctbWV0YWxfYmluZGluZycsICctaW1hZScsICc8aW5maWxlLm1hZT4nLCAnLW9tYWUnLCAnPG91dGZpbGUubWFlPic=

> <r_lp_tautomer_probability>
1

> <r_epik_Ionization_Penalty>
0.0053129

> <r_epik_Ionization_Penalty_Charging>
0

> <r_epik_Ionization_Penalty_Neutral>
0.0053129

> <r_epik_State_Penalty>
0.00367355

> <r_epik_Charging_Adjusted_Penalty>
0.00367355

> <i_epik_Tot_Q>
0

> <i_epik_Tot_abs_Q>
0

> <r_epik_Metal_State_Penalty>
-0

> <b_epik_Metal_Only>
0

> <s_lp_Force_Field>
OPLS_2005

> <r_lp_Energy>
59.0129

> <b_lp_Chiralities_Consistent>
1

> <s_lp_Variant>
AV-unprocessed.smi:173-2

> <Gold.Version>
5.8.1

> <Gold.Id.Protein>
6NUR|6NUR_protein|mol2

> <Gold.PLP.Fitness>
42.5945

> <Gold.PLP.PLP>
-36.9258

> <Gold.PLP.part.hbond>
-1.7779

> <Gold.PLP.part.metal>
0.0000

> <Gold.PLP.part.buried>
-7.7660

> <Gold.PLP.part.nonpolar>
-27.7767

> <Gold.PLP.part.repulsive>
0.3457

> <Gold.PLP.ligand.clash>
0.0000

> <Gold.PLP.ligand.torsion>
2.2427

> <Gold.PLP.Chemscore.Hbond>
2.0000

> <Gold.PLP.Chemscore.CHOScore>
0.9974

> <Gold.PLP.Chemscore.Metal>
0.0000

> <Gold.Chemscore.Hbonds>
donor molecule, donor type, donor heavy atom, donor atom, acceptor molecule, acceptor atom, score
      L1  H     1    30       P1 10747  1.00
      P1  H  6931  6943       L1    15  1.00
      L1  C     5    33       P1 10957  0.33

> <Gold.PLP.Chemscore.Internal.Correction>
1.1620

> <Gold.Rescore>
     Score         DG    S(hbond)    S(metal)    S(lipo)     H(rot)  DE(clash)    DE(int)     intcor
     11.85     -14.41       1.93        0.00      77.99       2.59       0.25       2.31       ----

> <Gold.Chemscore.Fitness>
11.8471

> <Gold.Chemscore.DG>
-14.4053

> <Gold.Chemscore.ZeroCoef>
-5.4800

> <Gold.Chemscore.Hbond>
1.9267

> <Gold.Chemscore.Metal>
0.0000

> <Gold.Chemscore.Lipo>
77.9891

> <Gold.Chemscore.Internal_Hbond>
0.0000

> <Gold.Chemscore.DEClash>
0.2456

> <Gold.Chemscore.DEInternal>
2.3126

> <Gold.Chemscore.Rot>
2.5916

> <Gold.Chemscore.Internal.Correction>
   9.000000E+99

> <Gold.Chemscore.Hbonds>
donor molecule, donor type, donor heavy atom, donor atom, acceptor molecule, acceptor atom, score
      L1  H     1    30       P1 10747  0.99
      P1  H  6931  6943       L1    15  0.35

> <Gold.Chemscore.Hbond.Weighted>
-6.4352

> <Gold.Chemscore.Metal.Weighted>
-0.0000

> <Gold.Chemscore.Lipo.Weighted>
-9.1247

> <Gold.Chemscore.Internal_Hbond.Weighted>
0.0000

> <Gold.Chemscore.DEClash.Weighted>
0.2456

> <Gold.Chemscore.DEInternal.Weighted>
2.3126

> <Gold.Chemscore.Rot.Weighted>
6.6346

> <Gold.Chemscore.Internal.Correction.Weighted>
   9.000000E+99

> <Gold.Protein.RotatedTorsions>
[ 6907 6896 6895 6894 ] final -118.63 input  -60.11 | X-H torsion
[ 7974 7965 7964 7962 ] final   81.97 input  175.53 | X-H torsion
[ 8008 7997 7996 7995 ] final  -95.38 input   59.86 | X-H torsion
[ 10167 10162 10161 10158 ] final  162.82 input  -65.29 | X-H torsion
[ 10718 10713 10712 10709 ] final -135.78 input   66.30 | X-H torsion
[ 10763 10752 10751 10750 ] final -149.32 input  -60.55 | X-H torsion
[ 11005 11000 10999 10996 ] final   28.56 input  -57.11 | X-H torsion

> <Gold.Protein.ActiveResidues>
 VAL166  LYS551  ARG553  GLY616  TRP617  ASP618  TYR619  PRO620  LYS621  CYS622 
 ASP623  PHE694  ASN695  SER759  ASP760  ASP761  ALA762  ILE779  LEU786  VAL792 
 PHE793  MET794  SER795  GLU796  ALA797  LYS798  CYS799  TRP800  GLU811  SER814 

> <Gold.Protein.RotatedAtoms>
  150.8236  133.8210  159.3128 H   0  0  0  0  0  0  0  0  0  0  0  0  # atno 6907 bound_to 6896
  151.5961  135.1048  160.0059 H   0  0  0  0  0  0  0  0  0  0  0  0  # atno 6908 bound_to 6896
  152.4323  133.7258  159.6616 H   0  0  0  0  0  0  0  0  0  0  0  0  # atno 6909 bound_to 6896
  145.6312  139.2405  143.2083 H   0  0  0  0  0  0  0  0  0  0  0  0  # atno 7974 bound_to 7965
  154.7606  140.0480  157.0970 H   0  0  0  0  0  0  0  0  0  0  0  0  # atno 8008 bound_to 7997
  154.9943  140.3117  155.4874 H   0  0  0  0  0  0  0  0  0  0  0  0  # atno 8009 bound_to 7997
  156.2903  140.2213  156.5049 H   0  0  0  0  0  0  0  0  0  0  0  0  # atno 8010 bound_to 7997
  139.4865  144.4399  151.8964 H   0  0  0  0  0  0  0  0  0  0  0  0  # atno 10167 bound_to 10162
  156.2699  130.7259  151.1223 H   0  0  0  0  0  0  0  0  0  0  0  0  # atno 10718 bound_to 10713
  154.8183  135.3312  154.7111 H   0  0  0  0  0  0  0  0  0  0  0  0  # atno 10763 bound_to 10752
  153.7748  135.6923  153.4904 H   0  0  0  0  0  0  0  0  0  0  0  0  # atno 10764 bound_to 10752
  153.2020  135.4513  155.0226 H   0  0  0  0  0  0  0  0  0  0  0  0  # atno 10765 bound_to 10752
  140.3143  134.2614  155.7728 H   0  0  0  0  0  0  0  0  0  0  0  0  # atno 11005 bound_to 11000
  146.1355  140.7128  142.9392 LP  0  0  0  0  0  0  0  0  0  0  0  0  # atno 17320 bound_to 7965
  144.7193  140.4318  143.7020 LP  0  0  0  0  0  0  0  0  0  0  0  0  # atno 17321 bound_to 7965
  140.3851  144.2687  150.5905 LP  0  0  0  0  0  0  0  0  0  0  0  0  # atno 17342 bound_to 10162
  140.5198  143.2269  151.8407 LP  0  0  0  0  0  0  0  0  0  0  0  0  # atno 17343 bound_to 10162
  157.7280  131.0635  150.5839 LP  0  0  0  0  0  0  0  0  0  0  0  0  # atno 17370 bound_to 10713
  156.5934  130.4335  149.5927 LP  0  0  0  0  0  0  0  0  0  0  0  0  # atno 17371 bound_to 10713
  141.2101  133.7729  156.9953 LP  0  0  0  0  0  0  0  0  0  0  0  0  # atno 17394 bound_to 11000
  140.0997  134.9543  157.1904 LP  0  0  0  0  0  0  0  0  0  0  0  0  # atno 17395 bound_to 11000

$$$$
