AV-unprocessed.smi:35|AV-procd|sdf|259|dock9
  -GOLD-   2262016 23D 1   1.00000     0.00000
 Structure written by MMmdl.
 29 30  0  0  0  0  0  0  0  0  1 V2000
  150.5969  134.9441  157.3988 O   0  0  0  0  0  0  0  0  0  0  0  0
  149.7602  135.5618  156.7437 C   0  0  0  0  0  0  0  0  0  0  0  0
  149.2448  136.7710  157.2183 N   0  0  0  0  0  0  0  0  0  0  0  0
  148.2951  137.5590  156.5654 C   0  0  0  0  0  0  0  0  0  0  0  0
  147.9185  138.6163  157.0695 O   0  0  0  0  0  0  0  0  0  0  0  0
  147.8111  137.0939  155.3223 N   0  0  0  0  0  0  0  0  0  0  0  0
  146.7779  137.9325  154.5927 C   0  0  2  0  0  0  0  0  0  0  0  0
  145.7577  137.1067  154.1097 O   0  0  0  0  0  0  0  0  0  0  0  0
  145.8397  137.0009  152.6907 C   0  0  1  0  0  0  0  0  0  0  0  0
  144.4623  136.6370  152.1172 C   0  0  0  0  0  0  0  0  0  0  0  0
  143.5560  137.6975  152.3323 O   0  0  0  0  0  0  0  0  0  0  0  0
  146.3182  138.4001  152.3061 C   0  0  2  0  0  0  0  0  0  0  0  0
  146.8269  138.4728  150.9868 O   0  0  0  0  0  0  0  0  0  0  0  0
  147.3595  138.6990  153.3799 C   0  0  2  0  0  0  0  0  0  0  0  0
  148.6569  138.2635  152.9999 O   0  0  0  0  0  0  0  0  0  0  0  0
  148.2975  135.8974  154.8085 C   0  0  0  0  0  0  0  0  0  0  0  0
  149.2201  135.1455  155.4541 C   0  0  0  0  0  0  0  0  0  0  0  0
  149.7852  133.4729  154.5559 Br  0  0  0  0  0  0  0  0  0  0  0  0
  149.5911  137.1032  158.1067 H   0  0  0  0  0  0  0  0  0  0  0  0
  146.3354  138.5859  155.3471 H   0  0  0  0  0  0  0  0  0  0  0  0
  146.5939  136.2643  152.4077 H   0  0  0  0  0  0  0  0  0  0  0  0
  144.5236  136.3977  151.0552 H   0  0  0  0  0  0  0  0  0  0  0  0
  144.0638  135.7585  152.6253 H   0  0  0  0  0  0  0  0  0  0  0  0
  143.5323  138.2351  151.5555 H   0  0  0  0  0  0  0  0  0  0  0  0
  145.4922  139.1065  152.4048 H   0  0  0  0  0  0  0  0  0  0  0  0
  146.1107  138.6567  150.3984 H   0  0  0  0  0  0  0  0  0  0  0  0
  147.4062  139.7642  153.6082 H   0  0  0  0  0  0  0  0  0  0  0  0
  148.9170  138.7423  152.2277 H   0  0  0  0  0  0  0  0  0  0  0  0
  147.9410  135.5329  153.8576 H   0  0  0  0  0  0  0  0  0  0  0  0
  1  2  2  0  0  0  0
  2 17  1  0  0  0  0
  2  3  1  0  0  0  0
  3 19  1  0  0  0  0
  3  4  1  0  0  0  0
  4  5  2  0  0  0  0
  4  6  1  0  0  0  0
  6  7  1  0  0  0  0
  6 16  1  0  0  0  0
  7 14  1  0  0  0  0
  7  8  1  0  0  0  0
  7 20  1  0  0  0  0
  8  9  1  0  0  0  0
  9 10  1  0  0  0  0
  9 12  1  0  0  0  0
  9 21  1  0  0  0  0
 10 11  1  0  0  0  0
 10 22  1  0  0  0  0
 10 23  1  0  0  0  0
 11 24  1  0  0  0  0
 12 13  1  0  0  0  0
 12 14  1  0  0  0  0
 12 25  1  0  0  0  0
 13 26  1  0  0  0  0
 14 15  1  0  0  0  0
 14 27  1  0  0  0  0
 15 28  1  0  0  0  0
 16 17  2  0  0  0  0
 16 29  1  0  0  0  0
 17 18  1  0  0  0  0
M  END
> <s_m_source_file>
AV-unprocessed.smi

> <i_m_source_file_index>
35

> <i_lp_mmshare_version>
43012

> <i_f3d_flags>
0

> <s_epik_input>
Tz1jMVtuSF1jKD1PKW4oW2NIXWMxQnIpW0NAQEhdMk9bQ0BASF0oW0NIMl1bT0hdKVtDQEBIXShbT0hdKVtDQEhdMltPSF0=

> <s_epik_cmdline>
J2VwaWtfcHl0aG9uJywgJy1waCcsICc3LjAnLCAnLXRuJywgJzgnLCAnLW1hJywgJzIwMCcsICctbWV0YWxfYmluZGluZycsICctaW1hZScsICc8aW5maWxlLm1hZT4nLCAnLW9tYWUnLCAnPG91dGZpbGUubWFlPic=

> <r_lp_tautomer_probability>
0.999537

> <r_epik_Ionization_Penalty>
0.10812

> <r_epik_Ionization_Penalty_Charging>
0.108119

> <r_epik_Ionization_Penalty_Neutral>
4.93006e-07

> <r_epik_State_Penalty>
0.0979238

> <r_epik_Charging_Adjusted_Penalty>
0.206043

> <i_epik_Tot_Q>
0

> <i_epik_Tot_abs_Q>
0

> <r_epik_Metal_State_Penalty>
3.07911

> <b_epik_Metal_Only>
0

> <s_epik_Chemistry_Notes>
This compound contains an acetal/aminal-like group ( X-CH(R)-Y where X, Y are N, S, or O) that may be acid/base labile, releasing an aldehyde.

> <s_lp_Force_Field>
OPLS_2005

> <r_lp_Energy>
37.6264

> <b_lp_Chiralities_Consistent>
1

> <s_lp_Variant>
AV-unprocessed.smi:35-13

> <Gold.Version>
5.8.1

> <Gold.Id.Protein>
6NUR|6NUR_protein|mol2

> <Gold.PLP.Fitness>
35.4099

> <Gold.PLP.PLP>
-21.5678

> <Gold.PLP.part.hbond>
-7.5751

> <Gold.PLP.part.metal>
0.0000

> <Gold.PLP.part.buried>
-4.0631

> <Gold.PLP.part.nonpolar>
-10.9972

> <Gold.PLP.part.repulsive>
0.1060

> <Gold.PLP.ligand.clash>
0.0067

> <Gold.PLP.ligand.torsion>
0.4204

> <Gold.PLP.Chemscore.Hbond>
3.9617

> <Gold.PLP.Chemscore.CHOScore>
0.9053

> <Gold.PLP.Chemscore.Metal>
0.0000

> <Gold.Chemscore.Hbonds>
donor molecule, donor type, donor heavy atom, donor atom, acceptor molecule, acceptor atom, score
      L1  H    11    24       P1 10171  1.00
      L1  H    13    26       P1 10171  0.34
      L1  H    15    28       P1  7957  1.00
      P1  H  6896  6908       L1     1  0.30
      P1  H  7954  7966       L1    13  1.00
      L1  C    16    29       P1  7948  0.81

> <Gold.PLP.Chemscore.Internal.Correction>
0.0886

> <Gold.Rescore>
     Score         DG    S(hbond)    S(metal)    S(lipo)     H(rot)  DE(clash)    DE(int)     intcor
     11.84     -12.56       3.77        0.00      33.11       3.67       0.00       0.71       ----

> <Gold.Chemscore.Fitness>
11.8429

> <Gold.Chemscore.DG>
-12.5554

> <Gold.Chemscore.ZeroCoef>
-5.4800

> <Gold.Chemscore.Hbond>
3.7715

> <Gold.Chemscore.Metal>
0.0000

> <Gold.Chemscore.Lipo>
33.1104

> <Gold.Chemscore.Internal_Hbond>
0.0000

> <Gold.Chemscore.DEClash>
0.0019

> <Gold.Chemscore.DEInternal>
0.7106

> <Gold.Chemscore.Rot>
3.6701

> <Gold.Chemscore.Internal.Correction>
   9.000000E+99

> <Gold.Chemscore.Hbonds>
donor molecule, donor type, donor heavy atom, donor atom, acceptor molecule, acceptor atom, score
      L1  H    11    24       P1 10171  0.81
      L1  H    13    26       P1 10171  0.34
      L1  H    15    28       P1  7957  0.85
      P1  H  6896  6908       L1     1  0.30
      P1  H  7954  7966       L1    13  0.43

> <Gold.Chemscore.Hbond.Weighted>
-12.5969

> <Gold.Chemscore.Metal.Weighted>
-0.0000

> <Gold.Chemscore.Lipo.Weighted>
-3.8739

> <Gold.Chemscore.Internal_Hbond.Weighted>
0.0000

> <Gold.Chemscore.DEClash.Weighted>
0.0019

> <Gold.Chemscore.DEInternal.Weighted>
0.7106

> <Gold.Chemscore.Rot.Weighted>
9.3955

> <Gold.Chemscore.Internal.Correction.Weighted>
   9.000000E+99

> <Gold.Protein.RotatedTorsions>
[ 6907 6896 6895 6894 ] final  168.50 input  -60.11 | X-H torsion
[ 7974 7965 7964 7962 ] final  154.80 input  175.53 | X-H torsion
[ 8008 7997 7996 7995 ] final  -70.62 input   59.86 | X-H torsion
[ 10167 10162 10161 10158 ] final  -34.46 input  -65.29 | X-H torsion
[ 10718 10713 10712 10709 ] final -108.62 input   66.30 | X-H torsion
[ 10763 10752 10751 10750 ] final  -15.87 input  -60.55 | X-H torsion
[ 11005 11000 10999 10996 ] final -142.35 input  -57.11 | X-H torsion

> <Gold.Protein.ActiveResidues>
 VAL166  LYS551  ARG553  GLY616  TRP617  ASP618  TYR619  PRO620  LYS621  CYS622 
 ASP623  PHE694  ASN695  SER759  ASP760  ASP761  ALA762  ILE779  LEU786  VAL792 
 PHE793  MET794  SER795  GLU796  ALA797  LYS798  CYS799  TRP800  GLU811  SER814 

> <Gold.Protein.RotatedAtoms>
  151.8467  133.3433  159.3659 H   0  0  0  0  0  0  0  0  0  0  0  0  # atno 6907 bound_to 6896
  150.7218  134.5339  159.5723 H   0  0  0  0  0  0  0  0  0  0  0  0  # atno 6908 bound_to 6896
  152.2824  134.7814  160.0445 H   0  0  0  0  0  0  0  0  0  0  0  0  # atno 6909 bound_to 6896
  144.8065  139.6982  143.6159 H   0  0  0  0  0  0  0  0  0  0  0  0  # atno 7974 bound_to 7965
  154.5026  140.0831  156.7828 H   0  0  0  0  0  0  0  0  0  0  0  0  # atno 8008 bound_to 7997
  155.3968  140.3435  155.4236 H   0  0  0  0  0  0  0  0  0  0  0  0  # atno 8009 bound_to 7997
  156.1475  140.1548  156.8811 H   0  0  0  0  0  0  0  0  0  0  0  0  # atno 8010 bound_to 7997
  140.7185  143.3546  151.2085 H   0  0  0  0  0  0  0  0  0  0  0  0  # atno 10167 bound_to 10162
  156.0495  130.5722  150.7986 H   0  0  0  0  0  0  0  0  0  0  0  0  # atno 10718 bound_to 10713
  153.5499  135.7012  153.5596 H   0  0  0  0  0  0  0  0  0  0  0  0  # atno 10763 bound_to 10752
  153.3524  135.3991  155.1656 H   0  0  0  0  0  0  0  0  0  0  0  0  # atno 10764 bound_to 10752
  154.8662  135.3769  154.5010 H   0  0  0  0  0  0  0  0  0  0  0  0  # atno 10765 bound_to 10752
  140.8234  134.2604  157.4890 H   0  0  0  0  0  0  0  0  0  0  0  0  # atno 11005 bound_to 11000
  146.2357  139.5901  142.9525 LP  0  0  0  0  0  0  0  0  0  0  0  0  # atno 17320 bound_to 7965
  145.5425  141.0420  143.2323 LP  0  0  0  0  0  0  0  0  0  0  0  0  # atno 17321 bound_to 7965
  139.7085  143.9415  152.2937 LP  0  0  0  0  0  0  0  0  0  0  0  0  # atno 17342 bound_to 10162
  139.9132  144.6844  150.8539 LP  0  0  0  0  0  0  0  0  0  0  0  0  # atno 17343 bound_to 10162
  157.5406  131.0940  150.9832 LP  0  0  0  0  0  0  0  0  0  0  0  0  # atno 17370 bound_to 10713
  157.0116  130.5639  149.5321 LP  0  0  0  0  0  0  0  0  0  0  0  0  # atno 17371 bound_to 10713
  139.8707  134.9547  156.4185 LP  0  0  0  0  0  0  0  0  0  0  0  0  # atno 17394 bound_to 11000
  140.9075  133.7735  155.9752 LP  0  0  0  0  0  0  0  0  0  0  0  0  # atno 17395 bound_to 11000

$$$$
