AV-unprocessed.smi:1689|AV-procd|sdf|6772|dock2
  -GOLD-   22720 7533D 1   1.00000     0.00000
 Structure written by MMmdl.
 40 42  0  0  0  0  0  0  0  0  1 V2000
  152.5536  136.9212  159.8517 N   0  0  0  0  0  0  0  0  0  0  0  0
  152.2900  138.0361  159.6882 C   0  0  0  0  0  0  0  0  0  0  0  0
  151.9343  139.4012  159.4835 C   0  0  0  0  0  0  0  0  0  0  0  0
  152.0059  140.3107  160.4790 C   0  0  0  0  0  0  0  0  0  0  0  0
  151.6590  141.6348  160.3083 N   0  0  0  0  0  0  0  0  0  0  0  0
  151.8926  142.6071  161.3386 C   0  0  0  0  0  0  0  0  0  0  0  0
  151.2506  142.4088  162.6946 C   0  0  0  0  0  0  0  0  0  0  0  0
  150.7735  143.5230  161.7954 C   0  0  0  0  0  0  0  0  0  0  0  0
  151.2849  142.1138  159.0336 C   0  0  0  0  0  0  0  0  0  0  0  0
  151.0666  143.3132  158.8424 O   0  0  0  0  0  0  0  0  0  0  0  0
  151.1926  141.1583  157.9903 N   0  0  0  0  0  0  0  0  0  0  0  0
  150.7855  141.6154  156.6662 C   0  0  0  0  0  0  0  0  0  0  0  0
  149.2696  141.4841  156.3235 C   0  0  0  0  0  0  0  0  0  0  0  0
  148.5793  142.3973  157.1571 O   0  0  0  0  0  0  0  0  0  0  0  0
  149.0303  141.9554  154.8681 C   0  0  0  0  0  0  0  0  0  0  0  0
  147.5620  141.8324  154.4205 C   0  0  0  0  0  0  0  0  0  0  0  0
  147.0347  140.4053  154.6215 C   0  0  0  0  0  0  0  0  0  0  0  0
  147.2040  139.9599  156.0803 C   0  0  0  0  0  0  0  0  0  0  0  0
  148.6715  140.0678  156.5320 C   0  0  0  0  0  0  0  0  0  0  0  0
  151.4926  139.7806  158.1435 C   0  0  0  0  0  0  0  0  0  0  0  0
  151.3892  138.9821  157.2108 O   0  0  0  0  0  0  0  0  0  0  0  0
  152.3435  139.9889  161.4538 H   0  0  0  0  0  0  0  0  0  0  0  0
  152.8909  143.0409  161.3475 H   0  0  0  0  0  0  0  0  0  0  0  0
  150.5853  141.5578  162.8280 H   0  0  0  0  0  0  0  0  0  0  0  0
  151.8334  142.6853  163.5706 H   0  0  0  0  0  0  0  0  0  0  0  0
  151.0405  144.5415  162.0692 H   0  0  0  0  0  0  0  0  0  0  0  0
  149.7923  143.4060  161.3388 H   0  0  0  0  0  0  0  0  0  0  0  0
  151.1436  142.6408  156.5513 H   0  0  0  0  0  0  0  0  0  0  0  0
  151.3892  141.0628  155.9453 H   0  0  0  0  0  0  0  0  0  0  0  0
  148.6880  143.2665  156.8026 H   0  0  0  0  0  0  0  0  0  0  0  0
  149.3662  142.9859  154.7435 H   0  0  0  0  0  0  0  0  0  0  0  0
  149.6440  141.3566  154.1935 H   0  0  0  0  0  0  0  0  0  0  0  0
  146.9422  142.5343  154.9795 H   0  0  0  0  0  0  0  0  0  0  0  0
  147.4718  142.1154  153.3714 H   0  0  0  0  0  0  0  0  0  0  0  0
  145.9842  140.3521  154.3344 H   0  0  0  0  0  0  0  0  0  0  0  0
  147.5710  139.7198  153.9641 H   0  0  0  0  0  0  0  0  0  0  0  0
  146.5706  140.5690  156.7261 H   0  0  0  0  0  0  0  0  0  0  0  0
  146.8583  138.9322  156.1952 H   0  0  0  0  0  0  0  0  0  0  0  0
  149.2536  139.3424  155.9635 H   0  0  0  0  0  0  0  0  0  0  0  0
  148.7450  139.7698  157.5785 H   0  0  0  0  0  0  0  0  0  0  0  0
  1  2  3  0  0  0  0
  2  3  1  0  0  0  0
  3 20  1  0  0  0  0
  3  4  2  0  0  0  0
  4  5  1  0  0  0  0
  4 22  1  0  0  0  0
  5  6  1  0  0  0  0
  5  9  1  0  0  0  0
  6  8  1  0  0  0  0
  6  7  1  0  0  0  0
  6 23  1  0  0  0  0
  7  8  1  0  0  0  0
  7 24  1  0  0  0  0
  7 25  1  0  0  0  0
  8 26  1  0  0  0  0
  8 27  1  0  0  0  0
  9 10  2  0  0  0  0
  9 11  1  0  0  0  0
 11 12  1  0  0  0  0
 11 20  1  0  0  0  0
 12 13  1  0  0  0  0
 12 28  1  0  0  0  0
 12 29  1  0  0  0  0
 13 19  1  0  0  0  0
 13 14  1  0  0  0  0
 13 15  1  0  0  0  0
 14 30  1  0  0  0  0
 15 16  1  0  0  0  0
 15 31  1  0  0  0  0
 15 32  1  0  0  0  0
 16 17  1  0  0  0  0
 16 33  1  0  0  0  0
 16 34  1  0  0  0  0
 17 18  1  0  0  0  0
 17 35  1  0  0  0  0
 17 36  1  0  0  0  0
 18 19  1  0  0  0  0
 18 37  1  0  0  0  0
 18 38  1  0  0  0  0
 19 39  1  0  0  0  0
 19 40  1  0  0  0  0
 20 21  2  0  0  0  0
M  END
> <s_m_source_file>
AV-unprocessed.smi

> <i_m_source_file_index>
1689

> <i_lp_mmshare_version>
43012

> <i_f3d_flags>
0

> <s_epik_input>
TiNDYzFbY0hdbihbQ0hdMltDSDJdW0NIMl0yKWMoPU8pbihjMT1PKVtDSDJdQzMoW09IXSlbQ0gyXVtDSDJdW0NIMl1bQ0gyXVtDSDJdMw==

> <s_epik_cmdline>
J2VwaWtfcHl0aG9uJywgJy1waCcsICc3LjAnLCAnLXRuJywgJzgnLCAnLW1hJywgJzIwMCcsICctbWV0YWxfYmluZGluZycsICctaW1hZScsICc8aW5maWxlLm1hZT4nLCAnLW9tYWUnLCAnPG91dGZpbGUubWFlPic=

> <r_lp_tautomer_probability>
1

> <r_epik_Ionization_Penalty>
3.88729e-07

> <r_epik_Ionization_Penalty_Charging>
1.71084e-09

> <r_epik_Ionization_Penalty_Neutral>
3.87018e-07

> <r_epik_State_Penalty>
-0

> <r_epik_Charging_Adjusted_Penalty>
1.71084e-09

> <i_epik_Tot_Q>
0

> <i_epik_Tot_abs_Q>
0

> <r_epik_Metal_State_Penalty>
-0

> <b_epik_Metal_Only>
0

> <s_lp_Force_Field>
OPLS_2005

> <r_lp_Energy>
46.863

> <b_lp_Chiralities_Consistent>
1

> <s_lp_Variant>
AV-unprocessed.smi:1689-1

> <Gold.Version>
5.8.1

> <Gold.Id.Protein>
6NUR|6NUR_protein|mol2

> <Gold.PLP.Fitness>
45.5467

> <Gold.PLP.PLP>
-39.9998

> <Gold.PLP.part.hbond>
-1.9902

> <Gold.PLP.part.metal>
0.0000

> <Gold.PLP.part.buried>
-4.4770

> <Gold.PLP.part.nonpolar>
-33.1179

> <Gold.PLP.part.repulsive>
0.0527

> <Gold.PLP.ligand.clash>
0.0000

> <Gold.PLP.ligand.torsion>
0.4852

> <Gold.PLP.Chemscore.Hbond>
1.9913

> <Gold.PLP.Chemscore.CHOScore>
0.0000

> <Gold.PLP.Chemscore.Metal>
0.0000

> <Gold.Chemscore.Hbonds>
donor molecule, donor type, donor heavy atom, donor atom, acceptor molecule, acceptor atom, score
      L1  H    14    30       P1  8028  1.00
      P1  H  6896  6909       L1     1  1.00

> <Gold.PLP.Chemscore.Internal.Correction>
0.5435

> <Gold.Rescore>
     Score         DG    S(hbond)    S(metal)    S(lipo)     H(rot)  DE(clash)    DE(int)     intcor
     16.09     -17.23       1.99        0.00      86.17       1.94       0.51       0.63       ----

> <Gold.Chemscore.Fitness>
16.0900

> <Gold.Chemscore.DG>
-17.2297

> <Gold.Chemscore.ZeroCoef>
-5.4800

> <Gold.Chemscore.Hbond>
1.9885

> <Gold.Chemscore.Metal>
0.0000

> <Gold.Chemscore.Lipo>
86.1677

> <Gold.Chemscore.Internal_Hbond>
0.0000

> <Gold.Chemscore.DEClash>
0.5087

> <Gold.Chemscore.DEInternal>
0.6311

> <Gold.Chemscore.Rot>
1.9428

> <Gold.Chemscore.Internal.Correction>
   9.000000E+99

> <Gold.Chemscore.Hbonds>
donor molecule, donor type, donor heavy atom, donor atom, acceptor molecule, acceptor atom, score
      L1  H    14    30       P1  8028  0.65
      P1  H  6896  6909       L1     1  0.99

> <Gold.Chemscore.Hbond.Weighted>
-6.6416

> <Gold.Chemscore.Metal.Weighted>
-0.0000

> <Gold.Chemscore.Lipo.Weighted>
-10.0816

> <Gold.Chemscore.Internal_Hbond.Weighted>
0.0000

> <Gold.Chemscore.DEClash.Weighted>
0.5087

> <Gold.Chemscore.DEInternal.Weighted>
0.6311

> <Gold.Chemscore.Rot.Weighted>
4.9735

> <Gold.Chemscore.Internal.Correction.Weighted>
   9.000000E+99

> <Gold.Protein.RotatedTorsions>
[ 6907 6896 6895 6894 ] final  142.54 input  -60.11 | X-H torsion
[ 7974 7965 7964 7962 ] final  146.86 input  175.53 | X-H torsion
[ 8008 7997 7996 7995 ] final  161.38 input   59.86 | X-H torsion
[ 10167 10162 10161 10158 ] final -140.03 input  -65.29 | X-H torsion
[ 10718 10713 10712 10709 ] final   23.49 input   66.30 | X-H torsion
[ 10763 10752 10751 10750 ] final  157.98 input  -60.55 | X-H torsion
[ 11005 11000 10999 10996 ] final  -24.28 input  -57.11 | X-H torsion

> <Gold.Protein.ActiveResidues>
 VAL166  LYS551  ARG553  GLY616  TRP617  ASP618  TYR619  PRO620  LYS621  CYS622 
 ASP623  PHE694  ASN695  SER759  ASP760  ASP761  ALA762  ILE779  LEU786  VAL792 
 PHE793  MET794  SER795  GLU796  ALA797  LYS798  CYS799  TRP800  GLU811  SER814 

> <Gold.Protein.RotatedAtoms>
  152.2174  133.4957  159.5143 H   0  0  0  0  0  0  0  0  0  0  0  0  # atno 6907 bound_to 6896
  150.7004  134.1387  159.4106 H   0  0  0  0  0  0  0  0  0  0  0  0  # atno 6908 bound_to 6896
  151.9307  135.0257  160.0579 H   0  0  0  0  0  0  0  0  0  0  0  0  # atno 6909 bound_to 6896
  144.8637  139.5958  143.5919 H   0  0  0  0  0  0  0  0  0  0  0  0  # atno 7974 bound_to 7965
  156.2107  140.1779  156.7701 H   0  0  0  0  0  0  0  0  0  0  0  0  # atno 8008 bound_to 7997
  154.5719  140.0681  156.9006 H   0  0  0  0  0  0  0  0  0  0  0  0  # atno 8009 bound_to 7997
  155.2658  140.3339  155.4271 H   0  0  0  0  0  0  0  0  0  0  0  0  # atno 8010 bound_to 7997
  139.8321  143.7433  152.2665 H   0  0  0  0  0  0  0  0  0  0  0  0  # atno 10167 bound_to 10162
  157.1668  130.6742  149.6063 H   0  0  0  0  0  0  0  0  0  0  0  0  # atno 10718 bound_to 10713
  154.2089  135.2787  155.2965 H   0  0  0  0  0  0  0  0  0  0  0  0  # atno 10763 bound_to 10752
  154.5795  135.5594  153.7175 H   0  0  0  0  0  0  0  0  0  0  0  0  # atno 10764 bound_to 10752
  153.0069  135.6341  154.2227 H   0  0  0  0  0  0  0  0  0  0  0  0  # atno 10765 bound_to 10752
  140.8831  133.7640  156.0326 H   0  0  0  0  0  0  0  0  0  0  0  0  # atno 11005 bound_to 11000
  146.2880  139.7057  142.9182 LP  0  0  0  0  0  0  0  0  0  0  0  0  # atno 17320 bound_to 7965
  145.4263  141.0411  143.2936 LP  0  0  0  0  0  0  0  0  0  0  0  0  # atno 17321 bound_to 7965
  139.7644  144.7496  151.0317 LP  0  0  0  0  0  0  0  0  0  0  0  0  # atno 17342 bound_to 10162
  140.7806  143.4715  151.0140 LP  0  0  0  0  0  0  0  0  0  0  0  0  # atno 17343 bound_to 10162
  155.9745  130.4692  150.6389 LP  0  0  0  0  0  0  0  0  0  0  0  0  # atno 17370 bound_to 10713
  157.4081  131.0819  151.1247 LP  0  0  0  0  0  0  0  0  0  0  0  0  # atno 17371 bound_to 10713
  140.8438  134.3036  157.5303 LP  0  0  0  0  0  0  0  0  0  0  0  0  # atno 17394 bound_to 11000
  139.8721  134.9430  156.3841 LP  0  0  0  0  0  0  0  0  0  0  0  0  # atno 17395 bound_to 11000

$$$$
