AV-unprocessed.smi:481|AV-procd|sdf|2682|dock1
  -GOLD-   2262023103D 1   1.00000     0.00000
 Structure written by MMmdl.
 42 44  0  0  0  0  0  0  0  0  2 V2000
  159.6804  134.7301  160.8425 C   0  0  0  0  0  0  0  0  0  0  0  0
  159.1231  135.9992  161.1362 O   0  0  0  0  0  0  0  0  0  0  0  0
  158.8867  136.7703  159.9704 C   0  0  0  0  0  0  0  0  0  0  0  0
  158.0247  135.9537  158.9998 C   0  0  0  0  0  0  0  0  0  0  0  0
  157.5726  136.7619  157.8713 N   0  0  0  0  0  0  0  0  0  0  0  0
  156.8087  137.8829  157.9134 C   0  0  0  0  0  0  0  0  0  0  0  0
  156.3599  138.3721  159.1400 N   0  0  0  0  0  0  0  0  0  0  0  0
  155.6151  139.4619  159.2024 N   0  0  0  0  0  0  0  0  0  0  0  0
  155.0649  139.7055  160.3373 C   0  0  0  0  0  0  0  0  0  0  0  0
  154.2076  140.8793  160.5603 C   0  0  0  0  0  0  0  0  0  0  0  0
  153.6479  141.6122  159.4866 C   0  0  0  0  0  0  0  0  0  0  0  0
  152.8318  142.7327  159.7379 C   0  0  0  0  0  0  0  0  0  0  0  0
  152.5679  143.1305  161.0621 C   0  0  0  0  0  0  0  0  0  0  0  0
  153.1206  142.4066  162.1353 C   0  0  0  0  0  0  0  0  0  0  0  0
  153.9364  141.2860  161.8850 C   0  0  0  0  0  0  0  0  0  0  0  0
  156.5461  138.4255  156.7200 N   0  0  0  0  0  0  0  0  0  0  0  0
  157.1938  137.5654  155.8450 C   0  0  0  0  0  0  0  0  0  0  0  0
  157.8108  136.5533  156.5107 C   0  0  0  0  0  0  0  0  0  0  0  0
  158.5640  135.4693  155.8464 C   0  0  0  0  0  0  0  0  0  0  0  0
  159.0798  134.5637  156.4987 O   0  0  0  0  0  0  0  0  0  0  0  0
  158.5885  135.6199  154.4839 N   0  5  0  0  0  0  0  0  0  0  0  0
  157.9848  136.6323  153.7676 C   0  0  0  0  0  0  0  0  0  0  0  0
  158.0617  136.6861  152.5400 O   0  0  0  0  0  0  0  0  0  0  0  0
  157.2796  137.6067  154.4281 N   0  0  0  0  0  0  0  0  0  0  0  0
  156.5981  138.7073  153.7396 C   0  0  0  0  0  0  0  0  0  0  0  0
  159.8464  134.1796  161.7683 H   0  0  0  0  0  0  0  0  0  0  0  0
  160.6397  134.8278  160.3327 H   0  0  0  0  0  0  0  0  0  0  0  0
  159.0088  134.1410  160.2167 H   0  0  0  0  0  0  0  0  0  0  0  0
  158.3824  137.7017  160.2323 H   0  0  0  0  0  0  0  0  0  0  0  0
  159.8359  137.0304  159.4991 H   0  0  0  0  0  0  0  0  0  0  0  0
  158.5885  135.0974  158.6293 H   0  0  0  0  0  0  0  0  0  0  0  0
  157.1603  135.5315  159.5109 H   0  0  0  0  0  0  0  0  0  0  0  0
  156.6071  137.8661  159.9781 H   0  0  0  0  0  0  0  0  0  0  0  0
  155.2257  139.0297  161.1802 H   0  0  0  0  0  0  0  0  0  0  0  0
  153.8370  141.3255  158.4622 H   0  0  0  0  0  0  0  0  0  0  0  0
  152.4089  143.2868  158.9127 H   0  0  0  0  0  0  0  0  0  0  0  0
  151.9426  143.9898  161.2543 H   0  0  0  0  0  0  0  0  0  0  0  0
  152.9196  142.7106  163.1521 H   0  0  0  0  0  0  0  0  0  0  0  0
  154.3532  140.7417  162.7202 H   0  0  0  0  0  0  0  0  0  0  0  0
  156.7074  138.6972  152.6549 H   0  0  0  0  0  0  0  0  0  0  0  0
  156.9844  139.6628  154.0955 H   0  0  0  0  0  0  0  0  0  0  0  0
  155.5303  138.6757  153.9586 H   0  0  0  0  0  0  0  0  0  0  0  0
  1  2  1  0  0  0  0
  1 26  1  0  0  0  0
  1 27  1  0  0  0  0
  1 28  1  0  0  0  0
  2  3  1  0  0  0  0
  3  4  1  0  0  0  0
  3 29  1  0  0  0  0
  3 30  1  0  0  0  0
  4  5  1  0  0  0  0
  4 31  1  0  0  0  0
  4 32  1  0  0  0  0
  5 18  1  0  0  0  0
  5  6  1  0  0  0  0
  6  7  1  0  0  0  0
  6 16  2  0  0  0  0
  7  8  1  0  0  0  0
  7 33  1  0  0  0  0
  8  9  2  0  0  0  0
  9 10  1  0  0  0  0
  9 34  1  0  0  0  0
 10 15  1  0  0  0  0
 10 11  2  0  0  0  0
 11 12  1  0  0  0  0
 11 35  1  0  0  0  0
 12 13  2  0  0  0  0
 12 36  1  0  0  0  0
 13 14  1  0  0  0  0
 13 37  1  0  0  0  0
 14 15  2  0  0  0  0
 14 38  1  0  0  0  0
 15 39  1  0  0  0  0
 16 17  1  0  0  0  0
 17 24  1  0  0  0  0
 17 18  2  0  0  0  0
 18 19  1  0  0  0  0
 19 20  2  0  0  0  0
 19 21  1  0  0  0  0
 21 22  1  0  0  0  0
 22 23  2  0  0  0  0
 22 24  1  0  0  0  0
 24 25  1  0  0  0  0
 25 40  1  0  0  0  0
 25 41  1  0  0  0  0
 25 42  1  0  0  0  0
M  CHG  1  21  -1
M  END
> <s_m_source_file>
AV-unprocessed.smi

> <i_m_source_file_index>
481

> <i_lp_mmshare_version>
43012

> <i_f3d_flags>
0

> <s_epik_input>
W0NIM11uMWMoPU8pW25IXWMoPU8pYyhjMTIpbihbQ0gyXVtDSDJdT1tDSDNdKWMobjIpW05IXS9OPVtDSF0vYzNbY0hdW2NIXVtjSF1bY0hdW2NIXTM=

> <s_epik_cmdline>
J2VwaWtfcHl0aG9uJywgJy1waCcsICc3LjAnLCAnLXRuJywgJzgnLCAnLW1hJywgJzIwMCcsICctbWV0YWxfYmluZGluZycsICctaW1hZScsICc8aW5maWxlLm1hZT4nLCAnLW9tYWUnLCAnPG91dGZpbGUubWFlPic=

> <r_epik_Ionization_Penalty>
4.48471

> <r_epik_Ionization_Penalty_Charging>
4.58449e-09

> <r_epik_Ionization_Penalty_Neutral>
4.48471

> <r_epik_State_Penalty>
4.48428

> <r_epik_Charging_Adjusted_Penalty>
4.48428

> <i_epik_Tot_Q>
-1

> <i_epik_Tot_abs_Q>
1

> <r_epik_Metal_State_Penalty>
0.811551

> <b_epik_Metal_Only>
1

> <s_epik_Chemistry_Notes>
This compound has an imine and may undergo hydrolysis.

> <s_lp_Force_Field>
OPLS_2005

> <r_lp_Energy>
36.4971

> <b_lp_Chiralities_Consistent>
1

> <s_lp_Variant>
AV-unprocessed.smi:481-3

> <Gold.Version>
5.8.1

> <Gold.Id.Protein>
6NUR|6NUR_protein|mol2

> <Gold.PLP.Fitness>
43.2520

> <Gold.PLP.PLP>
-40.0777

> <Gold.PLP.part.hbond>
-1.4698

> <Gold.PLP.part.metal>
0.0000

> <Gold.PLP.part.buried>
-4.1797

> <Gold.PLP.part.nonpolar>
-33.9554

> <Gold.PLP.part.repulsive>
0.4519

> <Gold.PLP.ligand.clash>
0.0000

> <Gold.PLP.ligand.torsion>
0.1073

> <Gold.PLP.Chemscore.Hbond>
1.1120

> <Gold.PLP.Chemscore.CHOScore>
0.0000

> <Gold.PLP.Chemscore.Metal>
0.0000

> <Gold.Chemscore.Hbonds>
donor molecule, donor type, donor heavy atom, donor atom, acceptor molecule, acceptor atom, score
      P1  H  7997  8008       L1     8  1.00
      P1  H  7997  8010       L1    16  0.08

> <Gold.PLP.Chemscore.Internal.Correction>
0.0528

> <Gold.Rescore>
     Score         DG    S(hbond)    S(metal)    S(lipo)     H(rot)  DE(clash)    DE(int)     intcor
     15.39     -15.52       1.08        0.00      88.33       1.52       0.05       0.08       ----

> <Gold.Chemscore.Fitness>
15.3895

> <Gold.Chemscore.DG>
-15.5196

> <Gold.Chemscore.ZeroCoef>
-5.4800

> <Gold.Chemscore.Hbond>
1.0791

> <Gold.Chemscore.Metal>
0.0000

> <Gold.Chemscore.Lipo>
88.3258

> <Gold.Chemscore.Internal_Hbond>
0.0000

> <Gold.Chemscore.DEClash>
0.0515

> <Gold.Chemscore.DEInternal>
0.0785

> <Gold.Chemscore.Rot>
1.5230

> <Gold.Chemscore.Internal.Correction>
   9.000000E+99

> <Gold.Chemscore.Hbonds>
donor molecule, donor type, donor heavy atom, donor atom, acceptor molecule, acceptor atom, score
      P1  H  7997  8008       L1     8  0.62
      P1  H  7997  8010       L1    16  0.10

> <Gold.Chemscore.Hbond.Weighted>
-3.6043

> <Gold.Chemscore.Metal.Weighted>
-0.0000

> <Gold.Chemscore.Lipo.Weighted>
-10.3341

> <Gold.Chemscore.Internal_Hbond.Weighted>
0.0000

> <Gold.Chemscore.DEClash.Weighted>
0.0515

> <Gold.Chemscore.DEInternal.Weighted>
0.0785

> <Gold.Chemscore.Rot.Weighted>
3.8989

> <Gold.Chemscore.Internal.Correction.Weighted>
   9.000000E+99

> <Gold.Protein.RotatedTorsions>
[ 6907 6896 6895 6894 ] final   24.17 input  -60.11 | X-H torsion
[ 7974 7965 7964 7962 ] final  114.24 input  175.53 | X-H torsion
[ 8008 7997 7996 7995 ] final -121.84 input   59.86 | X-H torsion
[ 10167 10162 10161 10158 ] final   31.81 input  -65.29 | X-H torsion
[ 10718 10713 10712 10709 ] final  178.27 input   66.30 | X-H torsion
[ 10763 10752 10751 10750 ] final   34.20 input  -60.55 | X-H torsion
[ 11005 11000 10999 10996 ] final -154.60 input  -57.11 | X-H torsion

> <Gold.Protein.ActiveResidues>
 VAL166  LYS551  ARG553  GLY616  TRP617  ASP618  TYR619  PRO620  LYS621  CYS622 
 ASP623  PHE694  ASN695  SER759  ASP760  ASP761  ALA762  ILE779  LEU786  VAL792 
 PHE793  MET794  SER795  GLU796  ALA797  LYS798  CYS799  TRP800  GLU811  SER814 

> <Gold.Protein.RotatedAtoms>
  151.9534  135.0158  160.0543 H   0  0  0  0  0  0  0  0  0  0  0  0  # atno 6907 bound_to 6896
  152.1933  133.4784  159.5027 H   0  0  0  0  0  0  0  0  0  0  0  0  # atno 6908 bound_to 6896
  150.6939  134.1602  159.4216 H   0  0  0  0  0  0  0  0  0  0  0  0  # atno 6909 bound_to 6896
  145.2069  139.2925  143.4289 H   0  0  0  0  0  0  0  0  0  0  0  0  # atno 7974 bound_to 7965
  155.1546  140.0404  157.2829 H   0  0  0  0  0  0  0  0  0  0  0  0  # atno 8008 bound_to 7997
  154.6380  140.2540  155.7329 H   0  0  0  0  0  0  0  0  0  0  0  0  # atno 8009 bound_to 7997
  156.2518  140.2861  156.0761 H   0  0  0  0  0  0  0  0  0  0  0  0  # atno 8010 bound_to 7997
  140.4555  144.0984  150.6201 H   0  0  0  0  0  0  0  0  0  0  0  0  # atno 10167 bound_to 10162
  156.8930  130.9854  151.3046 H   0  0  0  0  0  0  0  0  0  0  0  0  # atno 10718 bound_to 10713
  153.0175  135.6366  154.1632 H   0  0  0  0  0  0  0  0  0  0  0  0  # atno 10763 bound_to 10752
  154.1369  135.2837  155.3172 H   0  0  0  0  0  0  0  0  0  0  0  0  # atno 10764 bound_to 10752
  154.6153  135.5543  153.7578 H   0  0  0  0  0  0  0  0  0  0  0  0  # atno 10765 bound_to 10752
  140.6956  134.3993  157.5215 H   0  0  0  0  0  0  0  0  0  0  0  0  # atno 11005 bound_to 11000
  146.3406  140.2332  142.8594 LP  0  0  0  0  0  0  0  0  0  0  0  0  # atno 17320 bound_to 7965
  144.9893  140.8532  143.5349 LP  0  0  0  0  0  0  0  0  0  0  0  0  # atno 17321 bound_to 7965
  140.4156  143.2636  151.9779 LP  0  0  0  0  0  0  0  0  0  0  0  0  # atno 17342 bound_to 10162
  139.4801  144.5877  151.7826 LP  0  0  0  0  0  0  0  0  0  0  0  0  # atno 17343 bound_to 10162
  157.6072  130.8556  149.8894 LP  0  0  0  0  0  0  0  0  0  0  0  0  # atno 17370 bound_to 10713
  156.0619  130.3698  150.0963 LP  0  0  0  0  0  0  0  0  0  0  0  0  # atno 17371 bound_to 10713
  139.8911  134.8788  156.2337 LP  0  0  0  0  0  0  0  0  0  0  0  0  # atno 17394 bound_to 11000
  141.0206  133.7044  156.1261 LP  0  0  0  0  0  0  0  0  0  0  0  0  # atno 17395 bound_to 11000

$$$$
