AV-unprocessed.smi:1745|AV-procd|sdf|7030|dock10
  -GOLD-   22720 8253D 1   1.00000     0.00000
 Structure written by MMmdl.
 47 49  0  0  0  0  0  0  0  0  1 V2000
  149.7882  132.3061  154.5074 C   0  0  0  0  0  0  0  0  0  0  0  0
  148.5421  133.1033  154.0958 C   0  0  1  0  0  0  0  0  0  0  0  0
  148.9152  134.5046  153.9089 N   0  0  0  0  0  0  0  0  0  0  0  0
  149.3535  135.3383  154.8636 C   0  0  0  0  0  0  0  0  0  0  0  0
  149.4943  135.0130  156.0419 O   0  0  0  0  0  0  0  0  0  0  0  0
  149.6236  136.5522  154.3535 N   0  0  0  0  0  0  0  0  0  0  0  0
  150.1352  137.7011  155.0157 C   0  0  0  0  0  0  0  0  0  0  0  0
  150.3232  137.6267  156.4103 C   0  0  0  0  0  0  0  0  0  0  0  0
  150.8367  138.7429  157.0962 C   0  0  0  0  0  0  0  0  0  0  0  0
  151.1561  139.9046  156.3570 C   0  0  0  0  0  0  0  0  0  0  0  0
  151.6638  141.0536  156.9782 N   0  0  0  0  0  0  0  0  0  0  0  0
  150.7877  142.2116  156.8561 C   0  0  0  0  0  0  0  0  0  0  0  0
  151.4706  143.4539  157.4544 C   0  0  0  0  0  0  0  0  0  0  0  0
  151.8419  143.1910  158.8049 O   0  0  0  0  0  0  0  0  0  0  0  0
  152.7601  142.1060  158.9052 C   0  0  0  0  0  0  0  0  0  0  0  0
  152.1105  140.8281  158.3470 C   0  0  0  0  0  0  0  0  0  0  0  0
  150.9947  139.9799  155.0183 N   0  0  0  0  0  0  0  0  0  0  0  0
  150.5010  138.9055  154.3660 C   0  0  0  0  0  0  0  0  0  0  0  0
  147.9046  132.5480  152.8071 C   0  0  2  0  0  0  0  0  0  0  0  0
  146.8107  133.4269  152.1987 C   0  0  0  0  0  0  0  0  0  0  0  0
  145.9684  132.4446  151.4005 C   0  0  0  0  0  0  0  0  0  0  0  0
  146.3786  131.0725  151.9435 C   0  0  0  0  0  0  0  0  0  0  0  0
  147.1996  131.3452  153.0707 O   0  0  0  0  0  0  0  0  0  0  0  0
  149.5435  131.2586  154.6849 H   0  0  0  0  0  0  0  0  0  0  0  0
  150.2204  132.7009  155.4274 H   0  0  0  0  0  0  0  0  0  0  0  0
  150.5570  132.3415  153.7349 H   0  0  0  0  0  0  0  0  0  0  0  0
  147.8131  133.0132  154.9030 H   0  0  0  0  0  0  0  0  0  0  0  0
  148.8319  134.8679  152.9709 H   0  0  0  0  0  0  0  0  0  0  0  0
  149.5143  136.6440  153.3543 H   0  0  0  0  0  0  0  0  0  0  0  0
  150.0716  136.7270  156.9527 H   0  0  0  0  0  0  0  0  0  0  0  0
  150.9784  138.7040  158.1664 H   0  0  0  0  0  0  0  0  0  0  0  0
  150.5485  142.3852  155.8060 H   0  0  0  0  0  0  0  0  0  0  0  0
  149.8474  142.0219  157.3753 H   0  0  0  0  0  0  0  0  0  0  0  0
  152.3504  143.7330  156.8722 H   0  0  0  0  0  0  0  0  0  0  0  0
  150.7903  144.3052  157.4318 H   0  0  0  0  0  0  0  0  0  0  0  0
  153.6795  142.3427  158.3669 H   0  0  0  0  0  0  0  0  0  0  0  0
  153.0306  141.9641  159.9516 H   0  0  0  0  0  0  0  0  0  0  0  0
  151.2636  140.5425  158.9722 H   0  0  0  0  0  0  0  0  0  0  0  0
  152.8237  140.0033  158.3711 H   0  0  0  0  0  0  0  0  0  0  0  0
  150.4219  139.0285  153.2973 H   0  0  0  0  0  0  0  0  0  0  0  0
  148.6741  132.3477  152.0586 H   0  0  0  0  0  0  0  0  0  0  0  0
  146.2031  133.8711  152.9886 H   0  0  0  0  0  0  0  0  0  0  0  0
  147.2110  134.2364  151.5874 H   0  0  0  0  0  0  0  0  0  0  0  0
  144.9043  132.6361  151.5426 H   0  0  0  0  0  0  0  0  0  0  0  0
  146.1823  132.5127  150.3333 H   0  0  0  0  0  0  0  0  0  0  0  0
  145.5218  130.4597  152.2244 H   0  0  0  0  0  0  0  0  0  0  0  0
  146.9599  130.5247  151.2003 H   0  0  0  0  0  0  0  0  0  0  0  0
  1  2  1  0  0  0  0
  1 24  1  0  0  0  0
  1 25  1  0  0  0  0
  1 26  1  0  0  0  0
  2  3  1  0  0  0  0
  2 19  1  0  0  0  0
  2 27  1  0  0  0  0
  3  4  1  0  0  0  0
  3 28  1  0  0  0  0
  4  5  2  0  0  0  0
  4  6  1  0  0  0  0
  6  7  1  0  0  0  0
  6 29  1  0  0  0  0
  7 18  1  0  0  0  0
  7  8  2  0  0  0  0
  8  9  1  0  0  0  0
  8 30  1  0  0  0  0
  9 10  2  0  0  0  0
  9 31  1  0  0  0  0
 10 11  1  0  0  0  0
 10 17  1  0  0  0  0
 11 16  1  0  0  0  0
 11 12  1  0  0  0  0
 12 13  1  0  0  0  0
 12 32  1  0  0  0  0
 12 33  1  0  0  0  0
 13 14  1  0  0  0  0
 13 34  1  0  0  0  0
 13 35  1  0  0  0  0
 14 15  1  0  0  0  0
 15 16  1  0  0  0  0
 15 36  1  0  0  0  0
 15 37  1  0  0  0  0
 16 38  1  0  0  0  0
 16 39  1  0  0  0  0
 17 18  2  0  0  0  0
 18 40  1  0  0  0  0
 19 23  1  0  0  0  0
 19 20  1  0  0  0  0
 19 41  1  0  0  0  0
 20 21  1  0  0  0  0
 20 42  1  0  0  0  0
 20 43  1  0  0  0  0
 21 22  1  0  0  0  0
 21 44  1  0  0  0  0
 21 45  1  0  0  0  0
 22 23  1  0  0  0  0
 22 46  1  0  0  0  0
 22 47  1  0  0  0  0
M  END
> <s_m_source_file>
AV-unprocessed.smi

> <i_m_source_file_index>
1745

> <i_lp_mmshare_version>
43012

> <i_f3d_flags>
0

> <s_epik_input>
TzFbQ0gyXVtDSDJdW0NIMl1bQ0BIXTFbQ0BIXShbQ0gzXSlbTkhdQyg9TylbTkhdYzJbY0hdW2NIXWMobltjSF0yKU4zW0NIMl1bQ0gyXU9bQ0gyXVtDSDJdMw==

> <s_epik_cmdline>
J2VwaWtfcHl0aG9uJywgJy1waCcsICc3LjAnLCAnLXRuJywgJzgnLCAnLW1hJywgJzIwMCcsICctbWV0YWxfYmluZGluZycsICctaW1hZScsICc8aW5maWxlLm1hZT4nLCAnLW9tYWUnLCAnPG91dGZpbGUubWFlPic=

> <r_lp_tautomer_probability>
1

> <r_epik_Ionization_Penalty>
0.00206005

> <r_epik_Ionization_Penalty_Charging>
0

> <r_epik_Ionization_Penalty_Neutral>
0.00206005

> <r_epik_State_Penalty>
0.00138459

> <r_epik_Charging_Adjusted_Penalty>
0.00138459

> <i_epik_Tot_Q>
0

> <i_epik_Tot_abs_Q>
0

> <r_epik_Metal_State_Penalty>
-0

> <b_epik_Metal_Only>
0

> <s_lp_Force_Field>
OPLS_2005

> <r_lp_Energy>
36.4473

> <b_lp_Chiralities_Consistent>
1

> <s_lp_Variant>
AV-unprocessed.smi:1745-2

> <Gold.Version>
5.8.1

> <Gold.Id.Protein>
6NUR|6NUR_protein|mol2

> <Gold.PLP.Fitness>
46.5703

> <Gold.PLP.PLP>
-35.7125

> <Gold.PLP.part.hbond>
-3.0000

> <Gold.PLP.part.metal>
0.0000

> <Gold.PLP.part.buried>
-4.3228

> <Gold.PLP.part.nonpolar>
-28.7541

> <Gold.PLP.part.repulsive>
0.2530

> <Gold.PLP.ligand.clash>
0.1825

> <Gold.PLP.ligand.torsion>
0.3973

> <Gold.PLP.Chemscore.Hbond>
2.9000

> <Gold.PLP.Chemscore.CHOScore>
1.0000

> <Gold.PLP.Chemscore.Metal>
0.0000

> <Gold.Chemscore.Hbonds>
donor molecule, donor type, donor heavy atom, donor atom, acceptor molecule, acceptor atom, score
      L1  H     3    28       P1  7948  0.90
      L1  H     6    29       P1  7948  1.00
      P1  H  7989  7998       L1    17  0.85
      L1  C    18    40       P1  7957  1.00

> <Gold.PLP.Chemscore.Internal.Correction>
0.1348

> <Gold.Rescore>
     Score         DG    S(hbond)    S(metal)    S(lipo)     H(rot)  DE(clash)    DE(int)     intcor
     17.00     -18.85       1.96        0.00      88.69       1.40       0.10       1.75       ----

> <Gold.Chemscore.Fitness>
16.9986

> <Gold.Chemscore.DG>
-18.8484

> <Gold.Chemscore.ZeroCoef>
-5.4800

> <Gold.Chemscore.Hbond>
1.9649

> <Gold.Chemscore.Metal>
0.0000

> <Gold.Chemscore.Lipo>
88.6923

> <Gold.Chemscore.Internal_Hbond>
0.0000

> <Gold.Chemscore.DEClash>
0.1023

> <Gold.Chemscore.DEInternal>
1.7475

> <Gold.Chemscore.Rot>
1.3950

> <Gold.Chemscore.Internal.Correction>
   9.000000E+99

> <Gold.Chemscore.Hbonds>
donor molecule, donor type, donor heavy atom, donor atom, acceptor molecule, acceptor atom, score
      L1  H     3    28       P1  7948  0.17
      L1  H     6    29       P1  7948  0.69
      P1  H  7989  7998       L1    17  0.15

> <Gold.Chemscore.Hbond.Weighted>
-6.5627

> <Gold.Chemscore.Metal.Weighted>
-0.0000

> <Gold.Chemscore.Lipo.Weighted>
-10.3770

> <Gold.Chemscore.Internal_Hbond.Weighted>
0.0000

> <Gold.Chemscore.DEClash.Weighted>
0.1023

> <Gold.Chemscore.DEInternal.Weighted>
1.7475

> <Gold.Chemscore.Rot.Weighted>
3.5712

> <Gold.Chemscore.Internal.Correction.Weighted>
   9.000000E+99

> <Gold.Protein.RotatedTorsions>
[ 6907 6896 6895 6894 ] final   35.85 input  -60.11 | X-H torsion
[ 7974 7965 7964 7962 ] final  -48.74 input  175.53 | X-H torsion
[ 8008 7997 7996 7995 ] final  153.89 input   59.86 | X-H torsion
[ 10167 10162 10161 10158 ] final  -99.06 input  -65.29 | X-H torsion
[ 10718 10713 10712 10709 ] final  175.96 input   66.30 | X-H torsion
[ 10763 10752 10751 10750 ] final -147.94 input  -60.55 | X-H torsion
[ 11005 11000 10999 10996 ] final  -57.52 input  -57.11 | X-H torsion

> <Gold.Protein.ActiveResidues>
 VAL166  LYS551  ARG553  GLY616  TRP617  ASP618  TYR619  PRO620  LYS621  CYS622 
 ASP623  PHE694  ASN695  SER759  ASP760  ASP761  ALA762  ILE779  LEU786  VAL792 
 PHE793  MET794  SER795  GLU796  ALA797  LYS798  CYS799  TRP800  GLU811  SER814 

> <Gold.Protein.RotatedAtoms>
  152.1218  134.9200  160.0562 H   0  0  0  0  0  0  0  0  0  0  0  0  # atno 6907 bound_to 6896
  152.0338  133.3943  159.4316 H   0  0  0  0  0  0  0  0  0  0  0  0  # atno 6908 bound_to 6896
  150.6849  134.3413  159.4912 H   0  0  0  0  0  0  0  0  0  0  0  0  # atno 6909 bound_to 6896
  145.9480  140.7599  142.9519 H   0  0  0  0  0  0  0  0  0  0  0  0  # atno 7974 bound_to 7965
  156.2559  140.1981  156.6561 H   0  0  0  0  0  0  0  0  0  0  0  0  # atno 8008 bound_to 7997
  154.6500  140.0573  156.9969 H   0  0  0  0  0  0  0  0  0  0  0  0  # atno 8009 bound_to 7997
  155.1433  140.3244  155.4450 H   0  0  0  0  0  0  0  0  0  0  0  0  # atno 8010 bound_to 7997
  140.2664  143.3373  152.0577 H   0  0  0  0  0  0  0  0  0  0  0  0  # atno 10167 bound_to 10162
  156.9272  130.9959  151.2994 H   0  0  0  0  0  0  0  0  0  0  0  0  # atno 10718 bound_to 10713
  154.8259  135.3347  154.6896 H   0  0  0  0  0  0  0  0  0  0  0  0  # atno 10763 bound_to 10752
  153.7522  135.6938  153.4947 H   0  0  0  0  0  0  0  0  0  0  0  0  # atno 10764 bound_to 10752
  153.2168  135.4463  155.0394 H   0  0  0  0  0  0  0  0  0  0  0  0  # atno 10765 bound_to 10752
  141.1168  133.6610  156.4783 H   0  0  0  0  0  0  0  0  0  0  0  0  # atno 11005 bound_to 11000
  144.6790  140.2388  143.7346 LP  0  0  0  0  0  0  0  0  0  0  0  0  # atno 17320 bound_to 7965
  145.8210  139.2043  143.1938 LP  0  0  0  0  0  0  0  0  0  0  0  0  # atno 17321 bound_to 7965
  139.5001  144.6685  151.6299 LP  0  0  0  0  0  0  0  0  0  0  0  0  # atno 17342 bound_to 10162
  140.5925  143.9754  150.6333 LP  0  0  0  0  0  0  0  0  0  0  0  0  # atno 17343 bound_to 10162
  157.5870  130.8416  149.8604 LP  0  0  0  0  0  0  0  0  0  0  0  0  # atno 17370 bound_to 10713
  156.0464  130.3727  150.1308 LP  0  0  0  0  0  0  0  0  0  0  0  0  # atno 17371 bound_to 10713
  140.4622  134.6831  157.5090 LP  0  0  0  0  0  0  0  0  0  0  0  0  # atno 17394 bound_to 11000
  140.0096  134.6710  155.9401 LP  0  0  0  0  0  0  0  0  0  0  0  0  # atno 17395 bound_to 11000

$$$$
