AV-unprocessed.smi:1696|AV-procd|sdf|6799|dock8
  -GOLD-   22720 7563D 1   1.00000     0.00000
 Structure written by MMmdl.
 39 40  0  0  0  0  0  0  0  0  2 V2000
  143.3879  137.1253  152.5818 C   0  0  0  0  0  0  0  0  0  0  0  0
  144.6044  136.9893  153.5122 C   0  0  0  0  0  0  0  0  0  0  0  0
  145.9725  136.8774  152.7853 C   0  0  2  0  0  0  0  0  0  0  0  0
  146.2838  138.1174  151.9056 C   0  0  0  0  0  0  0  0  0  0  0  0
  147.5160  138.7903  152.3110 N   0  0  0  0  0  0  0  0  0  0  0  0
  147.8109  139.1976  153.5544 C   0  0  0  0  0  0  0  0  0  0  0  0
  147.0505  139.0618  154.5129 O   0  0  0  0  0  0  0  0  0  0  0  0
  149.0320  139.7579  153.6055 N   0  0  0  0  0  0  0  0  0  0  0  0
  149.7084  140.2846  154.7372 C   0  0  0  0  0  0  0  0  0  0  0  0
  151.0011  140.0725  155.0101 N   0  0  0  0  0  0  0  0  0  0  0  0
  151.4007  140.7134  156.1856 C   0  0  0  0  0  0  0  0  0  0  0  0
  150.3922  141.4144  156.7987 C   0  0  0  0  0  0  0  0  0  0  0  0
  148.8913  141.2962  155.9196 S   0  0  0  0  0  0  0  0  0  0  0  0
  146.0783  135.6133  151.9974 N   0  3  0  0  0  0  0  0  0  0  0  0
  145.8490  134.3621  152.7636 C   0  0  0  0  0  0  0  0  0  0  0  0
  145.1563  133.3684  151.8198 C   0  0  0  0  0  0  0  0  0  0  0  0
  145.1704  134.0447  150.4533 C   0  0  0  0  0  0  0  0  0  0  0  0
  145.2175  135.5285  150.7974 C   0  0  0  0  0  0  0  0  0  0  0  0
  142.4678  137.1904  153.1627 H   0  0  0  0  0  0  0  0  0  0  0  0
  143.2932  136.2689  151.9146 H   0  0  0  0  0  0  0  0  0  0  0  0
  143.4463  138.0224  151.9667 H   0  0  0  0  0  0  0  0  0  0  0  0
  144.6178  137.8407  154.1929 H   0  0  0  0  0  0  0  0  0  0  0  0
  144.4555  136.1279  154.1633 H   0  0  0  0  0  0  0  0  0  0  0  0
  146.7397  136.8301  153.5602 H   0  0  0  0  0  0  0  0  0  0  0  0
  146.4278  137.8268  150.8656 H   0  0  0  0  0  0  0  0  0  0  0  0
  145.4347  138.8023  151.9048 H   0  0  0  0  0  0  0  0  0  0  0  0
  148.2021  138.9512  151.5879 H   0  0  0  0  0  0  0  0  0  0  0  0
  149.5433  139.8044  152.7366 H   0  0  0  0  0  0  0  0  0  0  0  0
  152.4252  140.6174  156.5137 H   0  0  0  0  0  0  0  0  0  0  0  0
  150.4415  141.9907  157.7106 H   0  0  0  0  0  0  0  0  0  0  0  0
  146.8023  133.9742  153.1241 H   0  0  0  0  0  0  0  0  0  0  0  0
  145.2113  134.5389  153.6309 H   0  0  0  0  0  0  0  0  0  0  0  0
  145.6496  132.3964  151.8018 H   0  0  0  0  0  0  0  0  0  0  0  0
  144.1268  133.2103  152.1433 H   0  0  0  0  0  0  0  0  0  0  0  0
  146.0735  133.7629  149.9100 H   0  0  0  0  0  0  0  0  0  0  0  0
  144.3104  133.7786  149.8379 H   0  0  0  0  0  0  0  0  0  0  0  0
  144.2141  135.8849  151.0366 H   0  0  0  0  0  0  0  0  0  0  0  0
  145.6029  136.1225  149.9684 H   0  0  0  0  0  0  0  0  0  0  0  0
  147.0277  135.5589  151.6565 H   0  0  0  0  0  0  0  0  0  0  0  0
  1  2  1  0  0  0  0
  1 19  1  0  0  0  0
  1 20  1  0  0  0  0
  1 21  1  0  0  0  0
  2  3  1  0  0  0  0
  2 22  1  0  0  0  0
  2 23  1  0  0  0  0
  3  4  1  0  0  0  0
  3 14  1  0  0  0  0
  3 24  1  0  0  0  0
  4  5  1  0  0  0  0
  4 25  1  0  0  0  0
  4 26  1  0  0  0  0
  5  6  1  0  0  0  0
  5 27  1  0  0  0  0
  6  7  2  0  0  0  0
  6  8  1  0  0  0  0
  8  9  1  0  0  0  0
  8 28  1  0  0  0  0
  9 13  1  0  0  0  0
  9 10  2  0  0  0  0
 10 11  1  0  0  0  0
 11 12  2  0  0  0  0
 11 29  1  0  0  0  0
 12 13  1  0  0  0  0
 12 30  1  0  0  0  0
 14 18  1  0  0  0  0
 14 15  1  0  0  0  0
 14 39  1  0  0  0  0
 15 16  1  0  0  0  0
 15 31  1  0  0  0  0
 15 32  1  0  0  0  0
 16 17  1  0  0  0  0
 16 33  1  0  0  0  0
 16 34  1  0  0  0  0
 17 18  1  0  0  0  0
 17 35  1  0  0  0  0
 17 36  1  0  0  0  0
 18 37  1  0  0  0  0
 18 38  1  0  0  0  0
M  CHG  1  14   1
M  END
> <s_m_source_file>
AV-unprocessed.smi

> <i_m_source_file_index>
1696

> <i_lp_mmshare_version>
43012

> <i_f3d_flags>
0

> <s_epik_input>
W0NIMl0xW0NIMl1bQ0gyXVtDSDJdTjFbQ0BIXShbQ0gyXVtDSDNdKVtDSDJdW05IXUMoPU8pW05IXWMybltjSF1bY0hdczI=

> <s_epik_cmdline>
J2VwaWtfcHl0aG9uJywgJy1waCcsICc3LjAnLCAnLXRuJywgJzgnLCAnLW1hJywgJzIwMCcsICctbWV0YWxfYmluZGluZycsICctaW1hZScsICc8aW5maWxlLm1hZT4nLCAnLW9tYWUnLCAnPG91dGZpbGUubWFlPic=

> <r_lp_tautomer_probability>
1

> <r_epik_Ionization_Penalty>
0.0013883

> <r_epik_Ionization_Penalty_Charging>
0.00115997

> <r_epik_Ionization_Penalty_Neutral>
0.000228323

> <r_epik_State_Penalty>
-0

> <r_epik_Charging_Adjusted_Penalty>
0.00115997

> <i_epik_Tot_Q>
1

> <i_epik_Tot_abs_Q>
1

> <r_epik_Metal_State_Penalty>
0.0131845

> <b_epik_Metal_Only>
0

> <s_lp_Force_Field>
OPLS_2005

> <r_lp_Energy>
31.4712

> <b_lp_Chiralities_Consistent>
1

> <s_lp_Variant>
AV-unprocessed.smi:1696-1

> <Gold.Version>
5.8.1

> <Gold.Id.Protein>
6NUR|6NUR_protein|mol2

> <Gold.PLP.Fitness>
44.4615

> <Gold.PLP.PLP>
-32.0531

> <Gold.PLP.part.hbond>
-4.9537

> <Gold.PLP.part.metal>
0.0000

> <Gold.PLP.part.buried>
-2.8118

> <Gold.PLP.part.nonpolar>
-24.9307

> <Gold.PLP.part.repulsive>
0.3923

> <Gold.PLP.ligand.clash>
0.0000

> <Gold.PLP.ligand.torsion>
1.1648

> <Gold.PLP.Chemscore.Hbond>
4.8800

> <Gold.PLP.Chemscore.CHOScore>
0.0000

> <Gold.PLP.Chemscore.Metal>
0.0000

> <Gold.Chemscore.Hbonds>
donor molecule, donor type, donor heavy atom, donor atom, acceptor molecule, acceptor atom, score
      L1  H     5    27       P1  7957  0.86
      L1  H     8    28       P1  7957  1.00
      L1  H    14    39       P1  7948  1.92
      P1  H  7989  7998       L1    10  0.80

> <Gold.PLP.Chemscore.Internal.Correction>
0.0980

> <Gold.Rescore>
     Score         DG    S(hbond)    S(metal)    S(lipo)     H(rot)  DE(clash)    DE(int)     intcor
     17.32     -19.89       3.69        0.00      56.52       1.77       0.09       2.49       ----

> <Gold.Chemscore.Fitness>
17.3153

> <Gold.Chemscore.DG>
-19.8881

> <Gold.Chemscore.ZeroCoef>
-5.4800

> <Gold.Chemscore.Hbond>
3.6908

> <Gold.Chemscore.Metal>
0.0000

> <Gold.Chemscore.Lipo>
56.5232

> <Gold.Chemscore.Internal_Hbond>
0.0000

> <Gold.Chemscore.DEClash>
0.0854

> <Gold.Chemscore.DEInternal>
2.4874

> <Gold.Chemscore.Rot>
1.7705

> <Gold.Chemscore.Internal.Correction>
   9.000000E+99

> <Gold.Chemscore.Hbonds>
donor molecule, donor type, donor heavy atom, donor atom, acceptor molecule, acceptor atom, score
      L1  H     5    27       P1  7957  0.68
      L1  H     8    28       P1  7957  0.95
      L1  H    14    39       P1  7948  0.88
      P1  H  7989  7998       L1    10  0.10

> <Gold.Chemscore.Hbond.Weighted>
-12.3273

> <Gold.Chemscore.Metal.Weighted>
-0.0000

> <Gold.Chemscore.Lipo.Weighted>
-6.6132

> <Gold.Chemscore.Internal_Hbond.Weighted>
0.0000

> <Gold.Chemscore.DEClash.Weighted>
0.0854

> <Gold.Chemscore.DEInternal.Weighted>
2.4874

> <Gold.Chemscore.Rot.Weighted>
4.5324

> <Gold.Chemscore.Internal.Correction.Weighted>
   9.000000E+99

> <Gold.Protein.RotatedTorsions>
[ 6907 6896 6895 6894 ] final   39.09 input  -60.11 | X-H torsion
[ 7974 7965 7964 7962 ] final  -39.17 input  175.53 | X-H torsion
[ 8008 7997 7996 7995 ] final  -12.86 input   59.86 | X-H torsion
[ 10167 10162 10161 10158 ] final   95.87 input  -65.29 | X-H torsion
[ 10718 10713 10712 10709 ] final -126.35 input   66.30 | X-H torsion
[ 10763 10752 10751 10750 ] final  -66.76 input  -60.55 | X-H torsion
[ 11005 11000 10999 10996 ] final   31.18 input  -57.11 | X-H torsion

> <Gold.Protein.ActiveResidues>
 VAL166  LYS551  ARG553  GLY616  TRP617  ASP618  TYR619  PRO620  LYS621  CYS622 
 ASP623  PHE694  ASN695  SER759  ASP760  ASP761  ALA762  ILE779  LEU786  VAL792 
 PHE793  MET794  SER795  GLU796  ALA797  LYS798  CYS799  TRP800  GLU811  SER814 

> <Gold.Protein.RotatedAtoms>
  152.1650  134.8881  160.0538 H   0  0  0  0  0  0  0  0  0  0  0  0  # atno 6907 bound_to 6896
  151.9862  133.3770  159.4135 H   0  0  0  0  0  0  0  0  0  0  0  0  # atno 6908 bound_to 6896
  150.6893  134.3908  159.5119 H   0  0  0  0  0  0  0  0  0  0  0  0  # atno 6909 bound_to 6896
  146.0421  140.6595  142.9082 H   0  0  0  0  0  0  0  0  0  0  0  0  # atno 7974 bound_to 7965
  154.5341  140.2265  155.8752 H   0  0  0  0  0  0  0  0  0  0  0  0  # atno 8008 bound_to 7997
  156.1794  140.3103  155.9083 H   0  0  0  0  0  0  0  0  0  0  0  0  # atno 8009 bound_to 7997
  155.3390  140.0449  157.3035 H   0  0  0  0  0  0  0  0  0  0  0  0  # atno 8010 bound_to 7997
  139.7947  144.6838  150.9844 H   0  0  0  0  0  0  0  0  0  0  0  0  # atno 10167 bound_to 10162
  156.1757  130.6698  151.0239 H   0  0  0  0  0  0  0  0  0  0  0  0  # atno 10718 bound_to 10713
  154.3645  135.6109  153.5708 H   0  0  0  0  0  0  0  0  0  0  0  0  # atno 10763 bound_to 10752
  152.9792  135.5823  154.4594 H   0  0  0  0  0  0  0  0  0  0  0  0  # atno 10764 bound_to 10752
  154.4338  135.2848  155.1872 H   0  0  0  0  0  0  0  0  0  0  0  0  # atno 10765 bound_to 10752
  140.2866  134.2912  155.7786 H   0  0  0  0  0  0  0  0  0  0  0  0  # atno 11005 bound_to 11000
  144.7079  140.3927  143.7103 LP  0  0  0  0  0  0  0  0  0  0  0  0  # atno 17320 bound_to 7965
  145.6867  139.1630  143.2670 LP  0  0  0  0  0  0  0  0  0  0  0  0  # atno 17321 bound_to 7965
  140.7820  143.4343  151.0646 LP  0  0  0  0  0  0  0  0  0  0  0  0  # atno 17342 bound_to 10162
  139.8018  143.8073  152.3163 LP  0  0  0  0  0  0  0  0  0  0  0  0  # atno 17343 bound_to 10162
  157.6834  131.0832  150.7308 LP  0  0  0  0  0  0  0  0  0  0  0  0  # atno 17370 bound_to 10713
  156.7366  130.4726  149.5487 LP  0  0  0  0  0  0  0  0  0  0  0  0  # atno 17371 bound_to 10713
  141.2154  133.7558  156.9561 LP  0  0  0  0  0  0  0  0  0  0  0  0  # atno 17394 bound_to 11000
  140.1234  134.9402  157.2236 LP  0  0  0  0  0  0  0  0  0  0  0  0  # atno 17395 bound_to 11000

$$$$
