AV-unprocessed.smi:2667|AV-procd|sdf|10335|dock1
  -GOLD-   2272014353D 1   1.00000     0.00000
 Structure written by MMmdl.
 44 46  0  0  0  0  0  0  0  0  1 V2000
  150.7159  132.8495  152.9478 C   0  0  0  0  0  0  0  0  0  0  0  0
  151.3452  133.7544  154.0188 C   0  0  0  0  0  0  0  0  0  0  0  0
  150.3204  134.5310  154.8602 C   0  0  0  0  0  0  0  0  0  0  0  0
  149.4315  133.9221  155.4573 O   0  0  0  0  0  0  0  0  0  0  0  0
  150.4541  136.0161  154.9036 C   0  0  0  0  0  0  0  0  0  0  0  0
  151.6515  136.6705  154.5319 C   0  0  0  0  0  0  0  0  0  0  0  0
  151.7425  138.0747  154.5802 C   0  0  0  0  0  0  0  0  0  0  0  0
  150.6488  138.8583  154.9969 C   0  0  0  0  0  0  0  0  0  0  0  0
  150.8238  140.2254  155.0023 O   0  0  0  0  0  0  0  0  0  0  0  0
  149.7974  141.0322  155.5643 C   0  0  0  0  0  0  0  0  0  0  0  0
  150.2178  141.4439  156.9870 C   0  0  1  0  0  0  0  0  0  0  0  0
  151.1414  140.4898  157.4689 O   0  0  0  0  0  0  0  0  0  0  0  0
  150.9111  142.8189  157.0577 C   0  0  0  0  0  0  0  0  0  0  0  0
  150.8718  143.4029  158.3863 N   0  0  0  0  0  0  0  0  0  0  0  0
  149.9938  144.3173  158.8410 C   0  0  0  0  0  0  0  0  0  0  0  0
  150.1320  144.7218  160.1004 N   0  0  0  0  0  0  0  0  0  0  0  0
  151.2266  143.9815  160.5129 C   0  0  0  0  0  0  0  0  0  0  0  0
  151.8903  143.9434  161.7600 C   0  0  0  0  0  0  0  0  0  0  0  0
  153.0033  143.0983  161.9512 C   0  0  0  0  0  0  0  0  0  0  0  0
  153.4696  142.2807  160.9012 C   0  0  0  0  0  0  0  0  0  0  0  0
  152.8241  142.3011  159.6500 C   0  0  0  0  0  0  0  0  0  0  0  0
  151.7130  143.1445  159.4635 C   0  0  0  0  0  0  0  0  0  0  0  0
  149.4520  138.2045  155.3798 C   0  0  0  0  0  0  0  0  0  0  0  0
  149.3598  136.8000  155.3338 C   0  0  0  0  0  0  0  0  0  0  0  0
  151.4904  132.3427  152.3722 H   0  0  0  0  0  0  0  0  0  0  0  0
  150.1088  133.4245  152.2473 H   0  0  0  0  0  0  0  0  0  0  0  0
  150.0830  132.0819  153.3948 H   0  0  0  0  0  0  0  0  0  0  0  0
  151.9585  133.1499  154.6875 H   0  0  0  0  0  0  0  0  0  0  0  0
  152.0098  134.4699  153.5341 H   0  0  0  0  0  0  0  0  0  0  0  0
  152.5182  136.1161  154.2047 H   0  0  0  0  0  0  0  0  0  0  0  0
  152.6644  138.5568  154.2893 H   0  0  0  0  0  0  0  0  0  0  0  0
  149.5940  141.9139  154.9540 H   0  0  0  0  0  0  0  0  0  0  0  0
  148.8870  140.4337  155.5998 H   0  0  0  0  0  0  0  0  0  0  0  0
  149.3456  141.4502  157.6423 H   0  0  0  0  0  0  0  0  0  0  0  0
  151.7565  140.9301  158.0356 H   0  0  0  0  0  0  0  0  0  0  0  0
  151.9573  142.7289  156.7611 H   0  0  0  0  0  0  0  0  0  0  0  0
  150.4494  143.5147  156.3559 H   0  0  0  0  0  0  0  0  0  0  0  0
  149.2091  144.7087  158.2100 H   0  0  0  0  0  0  0  0  0  0  0  0
  151.5422  144.5652  162.5713 H   0  0  0  0  0  0  0  0  0  0  0  0
  153.5022  143.0777  162.9091 H   0  0  0  0  0  0  0  0  0  0  0  0
  154.3232  141.6374  161.0569 H   0  0  0  0  0  0  0  0  0  0  0  0
  153.1801  141.6776  158.8433 H   0  0  0  0  0  0  0  0  0  0  0  0
  148.5874  138.7577  155.7136 H   0  0  0  0  0  0  0  0  0  0  0  0
  148.4318  136.3326  155.6298 H   0  0  0  0  0  0  0  0  0  0  0  0
  1  2  1  0  0  0  0
  1 25  1  0  0  0  0
  1 26  1  0  0  0  0
  1 27  1  0  0  0  0
  2  3  1  0  0  0  0
  2 28  1  0  0  0  0
  2 29  1  0  0  0  0
  3  4  2  0  0  0  0
  3  5  1  0  0  0  0
  5 24  1  0  0  0  0
  5  6  2  0  0  0  0
  6  7  1  0  0  0  0
  6 30  1  0  0  0  0
  7  8  2  0  0  0  0
  7 31  1  0  0  0  0
  8  9  1  0  0  0  0
  8 23  1  0  0  0  0
  9 10  1  0  0  0  0
 10 11  1  0  0  0  0
 10 32  1  0  0  0  0
 10 33  1  0  0  0  0
 11 12  1  0  0  0  0
 11 13  1  0  0  0  0
 11 34  1  0  0  0  0
 12 35  1  0  0  0  0
 13 14  1  0  0  0  0
 13 36  1  0  0  0  0
 13 37  1  0  0  0  0
 14 22  1  0  0  0  0
 14 15  1  0  0  0  0
 15 16  2  0  0  0  0
 15 38  1  0  0  0  0
 16 17  1  0  0  0  0
 17 22  2  0  0  0  0
 17 18  1  0  0  0  0
 18 19  2  0  0  0  0
 18 39  1  0  0  0  0
 19 20  1  0  0  0  0
 19 40  1  0  0  0  0
 20 21  2  0  0  0  0
 20 41  1  0  0  0  0
 21 22  1  0  0  0  0
 21 42  1  0  0  0  0
 23 24  2  0  0  0  0
 23 43  1  0  0  0  0
 24 44  1  0  0  0  0
M  END
> <s_m_source_file>
AV-unprocessed.smi

> <i_m_source_file_index>
2667

> <i_lp_mmshare_version>
43012

> <i_f3d_flags>
0

> <s_epik_input>
W0NIM11bQ0gyXUMoPU8pYzFbY0hdW2NIXWMoW2NIXVtjSF0xKU9bQ0gyXVtDQEhdKFtPSF0pW0NIMl1uKFtjSF1uMiljKGMyMylbY0hdW2NIXVtjSF1bY0hdMw==

> <s_epik_cmdline>
J2VwaWtfcHl0aG9uJywgJy1waCcsICc3LjAnLCAnLXRuJywgJzgnLCAnLW1hJywgJzIwMCcsICctbWV0YWxfYmluZGluZycsICctaW1hZScsICc8aW5maWxlLm1hZT4nLCAnLW9tYWUnLCAnPG91dGZpbGUubWFlPic=

> <r_lp_tautomer_probability>
0.9999

> <r_epik_Ionization_Penalty>
0.0583018

> <r_epik_Ionization_Penalty_Charging>
0

> <r_epik_Ionization_Penalty_Neutral>
0.0583018

> <r_epik_State_Penalty>
0.0504087

> <r_epik_Charging_Adjusted_Penalty>
0.0504087

> <i_epik_Tot_Q>
0

> <i_epik_Tot_abs_Q>
0

> <r_epik_Metal_State_Penalty>
5.26129e-05

> <b_epik_Metal_Only>
0

> <s_lp_Force_Field>
OPLS_2005

> <r_lp_Energy>
23.9231

> <b_lp_Chiralities_Consistent>
1

> <s_lp_Variant>
AV-unprocessed.smi:2667-2

> <Gold.Version>
5.8.1

> <Gold.Id.Protein>
6NUR|6NUR_protein|mol2

> <Gold.PLP.Fitness>
54.8794

> <Gold.PLP.PLP>
-51.7293

> <Gold.PLP.part.hbond>
-1.0000

> <Gold.PLP.part.metal>
0.0000

> <Gold.PLP.part.buried>
-7.2449

> <Gold.PLP.part.nonpolar>
-44.5345

> <Gold.PLP.part.repulsive>
0.2409

> <Gold.PLP.ligand.clash>
0.0000

> <Gold.PLP.ligand.torsion>
1.4888

> <Gold.PLP.Chemscore.Hbond>
1.0000

> <Gold.PLP.Chemscore.CHOScore>
0.9499

> <Gold.PLP.Chemscore.Metal>
0.0000

> <Gold.Chemscore.Hbonds>
donor molecule, donor type, donor heavy atom, donor atom, acceptor molecule, acceptor atom, score
      P1  H  7989  7998       L1     9  1.00
      L1  C    15    38       P1  8029  0.99

> <Gold.PLP.Chemscore.Internal.Correction>
0.2783

> <Gold.Rescore>
     Score         DG    S(hbond)    S(metal)    S(lipo)     H(rot)  DE(clash)    DE(int)     intcor
     15.21     -16.95       0.78        0.00     130.47       2.49       0.11       1.63       ----

> <Gold.Chemscore.Fitness>
15.2115

> <Gold.Chemscore.DG>
-16.9513

> <Gold.Chemscore.ZeroCoef>
-5.4800

> <Gold.Chemscore.Hbond>
0.7752

> <Gold.Chemscore.Metal>
0.0000

> <Gold.Chemscore.Lipo>
130.4692

> <Gold.Chemscore.Internal_Hbond>
0.0000

> <Gold.Chemscore.DEClash>
0.1108

> <Gold.Chemscore.DEInternal>
1.6291

> <Gold.Chemscore.Rot>
2.4932

> <Gold.Chemscore.Internal.Correction>
   9.000000E+99

> <Gold.Chemscore.Hbonds>
donor molecule, donor type, donor heavy atom, donor atom, acceptor molecule, acceptor atom, score
      P1  H  7989  7998       L1     9  0.81

> <Gold.Chemscore.Hbond.Weighted>
-2.5891

> <Gold.Chemscore.Metal.Weighted>
-0.0000

> <Gold.Chemscore.Lipo.Weighted>
-15.2649

> <Gold.Chemscore.Internal_Hbond.Weighted>
0.0000

> <Gold.Chemscore.DEClash.Weighted>
0.1108

> <Gold.Chemscore.DEInternal.Weighted>
1.6291

> <Gold.Chemscore.Rot.Weighted>
6.3826

> <Gold.Chemscore.Internal.Correction.Weighted>
   9.000000E+99

> <Gold.Protein.RotatedTorsions>
[ 6907 6896 6895 6894 ] final  106.58 input  -60.11 | X-H torsion
[ 7974 7965 7964 7962 ] final   97.97 input  175.53 | X-H torsion
[ 8008 7997 7996 7995 ] final  -96.22 input   59.86 | X-H torsion
[ 10167 10162 10161 10158 ] final -118.51 input  -65.29 | X-H torsion
[ 10718 10713 10712 10709 ] final  162.71 input   66.30 | X-H torsion
[ 10763 10752 10751 10750 ] final -110.64 input  -60.55 | X-H torsion
[ 11005 11000 10999 10996 ] final   51.96 input  -57.11 | X-H torsion

> <Gold.Protein.ActiveResidues>
 VAL166  LYS551  ARG553  GLY616  TRP617  ASP618  TYR619  PRO620  LYS621  CYS622 
 ASP623  PHE694  ASN695  SER759  ASP760  ASP761  ALA762  ILE779  LEU786  VAL792 
 PHE793  MET794  SER795  GLU796  ALA797  LYS798  CYS799  TRP800  GLU811  SER814 

> <Gold.Protein.RotatedAtoms>
  152.5188  133.9359  159.7602 H   0  0  0  0  0  0  0  0  0  0  0  0  # atno 6907 bound_to 6896
  150.9700  133.6346  159.2746 H   0  0  0  0  0  0  0  0  0  0  0  0  # atno 6908 bound_to 6896
  151.3561  135.0900  159.9472 H   0  0  0  0  0  0  0  0  0  0  0  0  # atno 6909 bound_to 6896
  145.4184  139.2324  143.3210 H   0  0  0  0  0  0  0  0  0  0  0  0  # atno 7974 bound_to 7965
  154.7717  140.0473  157.1056 H   0  0  0  0  0  0  0  0  0  0  0  0  # atno 8008 bound_to 7997
  154.9813  140.3102  155.4926 H   0  0  0  0  0  0  0  0  0  0  0  0  # atno 8009 bound_to 7997
  156.2922  140.2235  156.4912 H   0  0  0  0  0  0  0  0  0  0  0  0  # atno 8010 bound_to 7997
  140.0567  143.5007  152.2053 H   0  0  0  0  0  0  0  0  0  0  0  0  # atno 10167 bound_to 10162
  157.1188  131.0487  151.2424 H   0  0  0  0  0  0  0  0  0  0  0  0  # atno 10718 bound_to 10713
  154.8259  135.4556  154.0917 H   0  0  0  0  0  0  0  0  0  0  0  0  # atno 10763 bound_to 10752
  153.2231  135.6896  153.7983 H   0  0  0  0  0  0  0  0  0  0  0  0  # atno 10764 bound_to 10752
  153.7392  135.3315  155.3277 H   0  0  0  0  0  0  0  0  0  0  0  0  # atno 10765 bound_to 10752
  140.0889  134.5236  155.8871 H   0  0  0  0  0  0  0  0  0  0  0  0  # atno 11005 bound_to 11000
  146.2669  140.4905  142.8830 LP  0  0  0  0  0  0  0  0  0  0  0  0  # atno 17320 bound_to 7965
  144.8262  140.6632  143.6321 LP  0  0  0  0  0  0  0  0  0  0  0  0  # atno 17321 bound_to 7965
  139.5919  144.7553  151.3380 LP  0  0  0  0  0  0  0  0  0  0  0  0  # atno 17342 bound_to 10162
  140.7191  143.7185  150.7714 LP  0  0  0  0  0  0  0  0  0  0  0  0  # atno 17343 bound_to 10162
  157.4495  130.7590  149.7139 LP  0  0  0  0  0  0  0  0  0  0  0  0  # atno 17370 bound_to 10713
  155.9833  130.4001  150.3369 LP  0  0  0  0  0  0  0  0  0  0  0  0  # atno 17371 bound_to 10713
  141.2071  133.6661  156.6287 LP  0  0  0  0  0  0  0  0  0  0  0  0  # atno 17394 bound_to 11000
  140.3380  134.7873  157.4376 LP  0  0  0  0  0  0  0  0  0  0  0  0  # atno 17395 bound_to 11000

$$$$
