AV-unprocessed.smi:2243|AV-procd|sdf|9065|dock7
  -GOLD-   2272012273D 1   1.00000     0.00000
 Structure written by MMmdl.
 35 36  0  0  0  0  0  0  0  0  2 V2000
  152.5150  145.0517  158.0725 C   0  0  0  0  0  0  0  0  0  0  0  0
  151.8709  144.8933  159.4606 C   0  0  1  0  0  0  0  0  0  0  0  0
  150.4197  144.9966  159.2993 N   0  0  0  0  0  0  0  0  0  0  0  0
  149.4973  144.5768  160.1795 C   0  0  0  0  0  0  0  0  0  0  0  0
  149.7663  144.0332  161.2512 O   0  0  0  0  0  0  0  0  0  0  0  0
  148.2524  144.8217  159.7430 N   0  0  0  0  0  0  0  0  0  0  0  0
  147.0594  144.5016  160.4313 C   0  0  0  0  0  0  0  0  0  0  0  0
  145.8700  145.0301  160.1470 N   0  3  0  0  0  0  0  0  0  0  0  0
  144.9366  144.5016  161.0040 C   0  0  0  0  0  0  0  0  0  0  0  0
  145.6247  143.6312  161.8150 C   0  0  0  0  0  0  0  0  0  0  0  0
  146.9607  143.6204  161.4671 O   0  0  0  0  0  0  0  0  0  0  0  0
  152.2487  143.5626  160.1651 C   0  0  0  0  0  0  0  0  0  0  0  0
  152.4858  143.7392  161.6806 C   0  0  0  0  0  0  0  0  0  0  0  0
  152.9360  142.4235  162.3354 C   0  0  0  0  0  0  0  0  0  0  0  0
  154.1120  141.9406  161.6988 O   0  0  0  0  0  0  0  0  0  0  0  0
  153.9052  141.6372  160.3252 C   0  0  0  0  0  0  0  0  0  0  0  0
  153.5071  142.9088  159.5581 C   0  0  0  0  0  0  0  0  0  0  0  0
  153.6008  145.1180  158.1355 H   0  0  0  0  0  0  0  0  0  0  0  0
  152.1726  145.9650  157.5844 H   0  0  0  0  0  0  0  0  0  0  0  0
  152.2671  144.2141  157.4197 H   0  0  0  0  0  0  0  0  0  0  0  0
  152.2326  145.7150  160.0813 H   0  0  0  0  0  0  0  0  0  0  0  0
  150.0974  145.4303  158.4463 H   0  0  0  0  0  0  0  0  0  0  0  0
  145.6482  145.7091  159.4295 H   0  0  0  0  0  0  0  0  0  0  0  0
  143.8969  144.7914  160.9527 H   0  0  0  0  0  0  0  0  0  0  0  0
  145.3364  142.9857  162.6320 H   0  0  0  0  0  0  0  0  0  0  0  0
  151.4179  142.8663  160.0398 H   0  0  0  0  0  0  0  0  0  0  0  0
  153.2454  144.5042  161.8471 H   0  0  0  0  0  0  0  0  0  0  0  0
  151.5804  144.0869  162.1779 H   0  0  0  0  0  0  0  0  0  0  0  0
  153.1508  142.5860  163.3918 H   0  0  0  0  0  0  0  0  0  0  0  0
  152.1458  141.6725  162.2837 H   0  0  0  0  0  0  0  0  0  0  0  0
  154.8282  141.2276  159.9144 H   0  0  0  0  0  0  0  0  0  0  0  0
  153.1413  140.8648  160.2220 H   0  0  0  0  0  0  0  0  0  0  0  0
  153.3430  142.6477  158.5131 H   0  0  0  0  0  0  0  0  0  0  0  0
  154.3374  143.6159  159.5779 H   0  0  0  0  0  0  0  0  0  0  0  0
  148.1496  145.2738  158.8465 H   0  0  0  0  0  0  0  0  0  0  0  0
  1  2  1  0  0  0  0
  1 18  1  0  0  0  0
  1 19  1  0  0  0  0
  1 20  1  0  0  0  0
  2  3  1  0  0  0  0
  2 12  1  0  0  0  0
  2 21  1  0  0  0  0
  3 22  1  0  0  0  0
  3  4  1  0  0  0  0
  4  6  1  0  0  0  0
  4  5  2  0  0  0  0
  6  7  1  0  0  0  0
  6 35  1  0  0  0  0
  7 11  1  0  0  0  0
  7  8  2  0  0  0  0
  8 23  1  0  0  0  0
  8  9  1  0  0  0  0
  9 24  1  0  0  0  0
  9 10  2  0  0  0  0
 10 25  1  0  0  0  0
 10 11  1  0  0  0  0
 12 17  1  0  0  0  0
 12 13  1  0  0  0  0
 12 26  1  0  0  0  0
 13 14  1  0  0  0  0
 13 27  1  0  0  0  0
 13 28  1  0  0  0  0
 14 15  1  0  0  0  0
 14 29  1  0  0  0  0
 14 30  1  0  0  0  0
 15 16  1  0  0  0  0
 16 17  1  0  0  0  0
 16 31  1  0  0  0  0
 16 32  1  0  0  0  0
 17 33  1  0  0  0  0
 17 34  1  0  0  0  0
M  CHG  1   8   1
M  END
> <s_m_source_file>
AV-unprocessed.smi

> <i_m_source_file_index>
2243

> <i_lp_mmshare_version>
43012

> <i_f3d_flags>
0

> <s_epik_input>
W0NIMl0xW0NIMl1PW0NIMl1bQ0gyXVtDSF0xW0NASF0oW0NIM10pW05IXUMoPU8pW05IXWMybltjSF1bY0hdbzI=

> <s_epik_cmdline>
J2VwaWtfcHl0aG9uJywgJy1waCcsICc3LjAnLCAnLXRuJywgJzgnLCAnLW1hJywgJzIwMCcsICctbWV0YWxfYmluZGluZycsICctaW1hZScsICc8aW5maWxlLm1hZT4nLCAnLW9tYWUnLCAnPG91dGZpbGUubWFlPic=

> <r_epik_Ionization_Penalty>
6.61405

> <r_epik_Ionization_Penalty_Charging>
6.55981

> <r_epik_Ionization_Penalty_Neutral>
0.0542461

> <r_epik_State_Penalty>
1.79186

> <r_epik_Charging_Adjusted_Penalty>
8.35167

> <i_epik_Tot_Q>
1

> <i_epik_Tot_abs_Q>
1

> <r_epik_Metal_State_Penalty>
1.80655

> <b_epik_Metal_Only>
0

> <s_lp_Force_Field>
OPLS_2005

> <r_lp_Energy>
19.6033

> <b_lp_Chiralities_Consistent>
1

> <s_lp_Variant>
AV-unprocessed.smi:2243-4

> <Gold.Version>
5.8.1

> <Gold.Id.Protein>
6NUR|6NUR_protein|mol2

> <Gold.PLP.Fitness>
45.5374

> <Gold.PLP.PLP>
-42.4875

> <Gold.PLP.part.hbond>
-4.0000

> <Gold.PLP.part.metal>
0.0000

> <Gold.PLP.part.buried>
-5.3675

> <Gold.PLP.part.nonpolar>
-32.7686

> <Gold.PLP.part.repulsive>
0.6841

> <Gold.PLP.ligand.clash>
0.0000

> <Gold.PLP.ligand.torsion>
1.4698

> <Gold.PLP.Chemscore.Hbond>
1.9913

> <Gold.PLP.Chemscore.CHOScore>
0.0000

> <Gold.PLP.Chemscore.Metal>
0.0000

> <Gold.Chemscore.Hbonds>
donor molecule, donor type, donor heavy atom, donor atom, acceptor molecule, acceptor atom, score
      L1  H     6    35       P1  8029  1.00
      P1  H  6933  6944       L1    11  1.00

> <Gold.PLP.Chemscore.Internal.Correction>
0.0158

> <Gold.Rescore>
     Score         DG    S(hbond)    S(metal)    S(lipo)     H(rot)  DE(clash)    DE(int)     intcor
     13.93     -20.00       1.91        0.00      98.75       1.33       0.21       5.86       ----

> <Gold.Chemscore.Fitness>
13.9305

> <Gold.Chemscore.DG>
-20.0038

> <Gold.Chemscore.ZeroCoef>
-5.4800

> <Gold.Chemscore.Hbond>
1.9102

> <Gold.Chemscore.Metal>
0.0000

> <Gold.Chemscore.Lipo>
98.7512

> <Gold.Chemscore.Internal_Hbond>
0.0000

> <Gold.Chemscore.DEClash>
0.2116

> <Gold.Chemscore.DEInternal>
5.8617

> <Gold.Chemscore.Rot>
1.3321

> <Gold.Chemscore.Internal.Correction>
   9.000000E+99

> <Gold.Chemscore.Hbonds>
donor molecule, donor type, donor heavy atom, donor atom, acceptor molecule, acceptor atom, score
      L1  H     6    35       P1  8029  1.00
      P1  H  6933  6944       L1    11  0.76

> <Gold.Chemscore.Hbond.Weighted>
-6.3802

> <Gold.Chemscore.Metal.Weighted>
-0.0000

> <Gold.Chemscore.Lipo.Weighted>
-11.5539

> <Gold.Chemscore.Internal_Hbond.Weighted>
0.0000

> <Gold.Chemscore.DEClash.Weighted>
0.2116

> <Gold.Chemscore.DEInternal.Weighted>
5.8617

> <Gold.Chemscore.Rot.Weighted>
3.4103

> <Gold.Chemscore.Internal.Correction.Weighted>
   9.000000E+99

> <Gold.Protein.RotatedTorsions>
[ 6907 6896 6895 6894 ] final   37.03 input  -60.11 | X-H torsion
[ 7974 7965 7964 7962 ] final  167.71 input  175.53 | X-H torsion
[ 8008 7997 7996 7995 ] final -108.43 input   59.86 | X-H torsion
[ 10167 10162 10161 10158 ] final -168.95 input  -65.29 | X-H torsion
[ 10718 10713 10712 10709 ] final   59.95 input   66.30 | X-H torsion
[ 10763 10752 10751 10750 ] final   30.23 input  -60.55 | X-H torsion
[ 11005 11000 10999 10996 ] final  110.50 input  -57.11 | X-H torsion

> <Gold.Protein.ActiveResidues>
 VAL166  LYS551  ARG553  GLY616  TRP617  ASP618  TYR619  PRO620  LYS621  CYS622 
 ASP623  PHE694  ASN695  SER759  ASP760  ASP761  ALA762  ILE779  LEU786  VAL792 
 PHE793  MET794  SER795  GLU796  ALA797  LYS798  CYS799  TRP800  GLU811  SER814 

> <Gold.Protein.RotatedAtoms>
  152.1377  134.9087  160.0555 H   0  0  0  0  0  0  0  0  0  0  0  0  # atno 6907 bound_to 6896
  152.0167  133.3877  159.4249 H   0  0  0  0  0  0  0  0  0  0  0  0  # atno 6908 bound_to 6896
  150.6862  134.3593  159.4987 H   0  0  0  0  0  0  0  0  0  0  0  0  # atno 6909 bound_to 6896
  144.7414  139.8800  143.6395 H   0  0  0  0  0  0  0  0  0  0  0  0  # atno 7974 bound_to 7965
  154.9442  140.0402  157.2112 H   0  0  0  0  0  0  0  0  0  0  0  0  # atno 8008 bound_to 7997
  154.8040  140.2856  155.5879 H   0  0  0  0  0  0  0  0  0  0  0  0  # atno 8009 bound_to 7997
  156.2964  140.2549  156.2914 H   0  0  0  0  0  0  0  0  0  0  0  0  # atno 8010 bound_to 7997
  139.5953  144.1125  152.1682 H   0  0  0  0  0  0  0  0  0  0  0  0  # atno 10167 bound_to 10162
  157.5715  130.8911  149.9275 H   0  0  0  0  0  0  0  0  0  0  0  0  # atno 10718 bound_to 10713
  153.0383  135.6469  154.1013 H   0  0  0  0  0  0  0  0  0  0  0  0  # atno 10763 bound_to 10752
  154.0724  135.2879  155.3307 H   0  0  0  0  0  0  0  0  0  0  0  0  # atno 10764 bound_to 10752
  154.6585  135.5400  153.8053 H   0  0  0  0  0  0  0  0  0  0  0  0  # atno 10765 bound_to 10752
  139.8883  134.9485  156.6288 H   0  0  0  0  0  0  0  0  0  0  0  0  # atno 11005 bound_to 11000
  146.1218  139.4237  143.0223 LP  0  0  0  0  0  0  0  0  0  0  0  0  # atno 17320 bound_to 7965
  145.7293  141.0048  143.1360 LP  0  0  0  0  0  0  0  0  0  0  0  0  # atno 17321 bound_to 7965
  140.0709  144.5780  150.7192 LP  0  0  0  0  0  0  0  0  0  0  0  0  # atno 17342 bound_to 10162
  140.7207  143.2586  151.4288 LP  0  0  0  0  0  0  0  0  0  0  0  0  # atno 17343 bound_to 10162
  156.0761  130.3679  150.0676 LP  0  0  0  0  0  0  0  0  0  0  0  0  # atno 17370 bound_to 10713
  156.8828  130.9562  151.3597 LP  0  0  0  0  0  0  0  0  0  0  0  0  # atno 17371 bound_to 10713
  140.7682  133.8760  155.8471 LP  0  0  0  0  0  0  0  0  0  0  0  0  # atno 17394 bound_to 11000
  140.9864  134.1337  157.4448 LP  0  0  0  0  0  0  0  0  0  0  0  0  # atno 17395 bound_to 11000

$$$$
