AV-unprocessed.smi:2845|AV-procd|sdf|10948|dock4
  -GOLD-   2272015403D 1   1.00000     0.00000
 Structure written by MMmdl.
 43 45  0  0  0  0  0  0  0  0  2 V2000
  152.0769  143.8938  161.3007 C   0  0  0  0  0  0  0  0  0  0  0  0
  151.9985  142.9978  160.0763 C   0  0  0  0  0  0  0  0  0  0  0  0
  151.1922  143.4081  158.9900 C   0  0  0  0  0  0  0  0  0  0  0  0
  151.1425  142.5678  157.8839 C   0  0  0  0  0  0  0  0  0  0  0  0
  150.4541  142.6841  156.6737 N   0  3  0  0  0  0  0  0  0  0  0  0
  150.7222  141.6013  155.8916 C   0  0  0  0  0  0  0  0  0  0  0  0
  151.5689  140.7948  156.5871 N   0  0  0  0  0  0  0  0  0  0  0  0
  152.1760  139.5104  156.2181 C   0  0  0  0  0  0  0  0  0  0  0  0
  151.7771  139.0542  154.7979 C   0  0  1  0  0  0  0  0  0  0  0  0
  152.3723  137.8025  154.5229 O   0  0  0  0  0  0  0  0  0  0  0  0
  150.2526  138.9375  154.5922 C   0  0  0  0  0  0  0  0  0  0  0  0
  149.6359  137.9459  155.4577 N   0  0  0  0  0  0  0  0  0  0  0  0
  149.0747  136.7680  155.1672 C   0  0  0  0  0  0  0  0  0  0  0  0
  148.6005  136.1204  156.2243 N   0  0  0  0  0  0  0  0  0  0  0  0
  148.9154  137.0310  157.1903 C   0  0  0  0  0  0  0  0  0  0  0  0
  148.5656  136.7205  158.9490 S   0  0  1  0  0  0  0  0  0  0  0  0
  148.1672  134.9230  158.7286 C   0  0  0  0  0  0  0  0  0  0  0  0
  149.9160  136.7884  159.6657 O   0  0  0  0  0  0  0  0  0  0  0  0
  149.5151  138.1497  156.7914 N   0  0  0  0  0  0  0  0  0  0  0  0
  151.8598  141.3574  157.8342 C   0  0  0  0  0  0  0  0  0  0  0  0
  152.6577  140.9374  158.8957 C   0  0  0  0  0  0  0  0  0  0  0  0
  152.7211  141.7774  160.0298 C   0  0  0  0  0  0  0  0  0  0  0  0
  153.5826  141.3442  161.2036 C   0  0  0  0  0  0  0  0  0  0  0  0
  151.4583  144.7843  161.1845 H   0  0  0  0  0  0  0  0  0  0  0  0
  153.1031  144.2209  161.4699 H   0  0  0  0  0  0  0  0  0  0  0  0
  151.7317  143.3623  162.1879 H   0  0  0  0  0  0  0  0  0  0  0  0
  150.6391  144.3356  159.0191 H   0  0  0  0  0  0  0  0  0  0  0  0
  150.3334  141.4160  154.9004 H   0  0  0  0  0  0  0  0  0  0  0  0
  153.2589  139.6181  156.2939 H   0  0  0  0  0  0  0  0  0  0  0  0
  151.8884  138.7784  156.9735 H   0  0  0  0  0  0  0  0  0  0  0  0
  152.1727  139.7604  154.0668 H   0  0  0  0  0  0  0  0  0  0  0  0
  152.7274  137.8258  153.6476 H   0  0  0  0  0  0  0  0  0  0  0  0
  149.7696  139.8972  154.7802 H   0  0  0  0  0  0  0  0  0  0  0  0
  150.0331  138.6713  153.5570 H   0  0  0  0  0  0  0  0  0  0  0  0
  149.0207  136.3716  154.1639 H   0  0  0  0  0  0  0  0  0  0  0  0
  147.4552  134.7839  157.9149 H   0  0  0  0  0  0  0  0  0  0  0  0
  147.7299  134.5214  159.6423 H   0  0  0  0  0  0  0  0  0  0  0  0
  149.0709  134.3585  158.4995 H   0  0  0  0  0  0  0  0  0  0  0  0
  153.2062  140.0080  158.8615 H   0  0  0  0  0  0  0  0  0  0  0  0
  154.0681  140.3879  161.0101 H   0  0  0  0  0  0  0  0  0  0  0  0
  152.9769  141.2320  162.1031 H   0  0  0  0  0  0  0  0  0  0  0  0
  154.3630  142.0797  161.3991 H   0  0  0  0  0  0  0  0  0  0  0  0
  149.8472  143.4459  156.3986 H   0  0  0  0  0  0  0  0  0  0  0  0
  1  2  1  0  0  0  0
  1 24  1  0  0  0  0
  1 25  1  0  0  0  0
  1 26  1  0  0  0  0
  2 22  1  0  0  0  0
  2  3  2  0  0  0  0
  3  4  1  0  0  0  0
  3 27  1  0  0  0  0
  4 20  2  0  0  0  0
  4  5  1  0  0  0  0
  5  6  2  0  0  0  0
  5 43  1  0  0  0  0
  6  7  1  0  0  0  0
  6 28  1  0  0  0  0
  7  8  1  0  0  0  0
  7 20  1  0  0  0  0
  8  9  1  0  0  0  0
  8 29  1  0  0  0  0
  8 30  1  0  0  0  0
  9 10  1  0  0  0  0
  9 11  1  0  0  0  0
  9 31  1  0  0  0  0
 10 32  1  0  0  0  0
 11 12  1  0  0  0  0
 11 33  1  0  0  0  0
 11 34  1  0  0  0  0
 12 19  1  0  0  0  0
 12 13  1  0  0  0  0
 13 14  2  0  0  0  0
 13 35  1  0  0  0  0
 14 15  1  0  0  0  0
 15 16  1  0  0  0  0
 15 19  2  0  0  0  0
 16 17  1  0  0  0  0
 16 18  2  0  0  0  0
 17 36  1  0  0  0  0
 17 37  1  0  0  0  0
 17 38  1  0  0  0  0
 20 21  1  0  0  0  0
 21 22  2  0  0  0  0
 21 39  1  0  0  0  0
 22 23  1  0  0  0  0
 23 40  1  0  0  0  0
 23 41  1  0  0  0  0
 23 42  1  0  0  0  0
M  CHG  1   5   1
M  END
> <s_m_source_file>
AV-unprocessed.smi

> <i_m_source_file_index>
2845

> <i_lp_mmshare_version>
43012

> <i_f3d_flags>
0

> <s_epik_input>
W0NIM11jKFtjSF0xKWMoW0NIM10pW2NIXWMoYzEyKW4oW2NIXW4yKVtDSDJdW0NASF0oW09IXSlbQ0gyXW4zW2NIXW5jKG4zKVtTQF0oPU8pW0NIM10=

> <s_epik_cmdline>
J2VwaWtfcHl0aG9uJywgJy1waCcsICc3LjAnLCAnLXRuJywgJzgnLCAnLW1hJywgJzIwMCcsICctbWV0YWxfYmluZGluZycsICctaW1hZScsICc8aW5maWxlLm1hZT4nLCAnLW9tYWUnLCAnPG91dGZpbGUubWFlPic=

> <r_lp_tautomer_probability>
1

> <r_epik_Ionization_Penalty>
1.12076

> <r_epik_Ionization_Penalty_Charging>
1.12075

> <r_epik_Ionization_Penalty_Neutral>
1.54566e-06

> <r_epik_State_Penalty>
1.17957

> <r_epik_Charging_Adjusted_Penalty>
2.30033

> <i_epik_Tot_Q>
1

> <i_epik_Tot_abs_Q>
1

> <r_epik_Metal_State_Penalty>
1.26402

> <b_epik_Metal_Only>
0

> <s_lp_Force_Field>
OPLS_2005

> <r_lp_Energy>
13.65

> <b_lp_Chiralities_Consistent>
1

> <s_lp_Variant>
AV-unprocessed.smi:2845-6

> <Gold.Version>
5.8.1

> <Gold.Id.Protein>
6NUR|6NUR_protein|mol2

> <Gold.PLP.Fitness>
56.4261

> <Gold.PLP.PLP>
-44.5042

> <Gold.PLP.part.hbond>
-3.1654

> <Gold.PLP.part.metal>
0.0000

> <Gold.PLP.part.buried>
-5.9510

> <Gold.PLP.part.nonpolar>
-34.6228

> <Gold.PLP.part.repulsive>
0.0744

> <Gold.PLP.ligand.clash>
0.0000

> <Gold.PLP.ligand.torsion>
0.6726

> <Gold.PLP.Chemscore.Hbond>
3.0804

> <Gold.PLP.Chemscore.CHOScore>
1.0000

> <Gold.PLP.Chemscore.Metal>
0.0000

> <Gold.Chemscore.Hbonds>
donor molecule, donor type, donor heavy atom, donor atom, acceptor molecule, acceptor atom, score
      L1  H     5    43       P1  8028  2.00
      P1  H  6896  6908       L1    18  0.88
      P1  H 10752 10765       L1    10  0.09
      L1  C    13    35       P1  7948  1.00

> <Gold.PLP.Chemscore.Internal.Correction>
1.0258

> <Gold.Rescore>
     Score         DG    S(hbond)    S(metal)    S(lipo)     H(rot)  DE(clash)    DE(int)     intcor
     17.56     -19.33       2.92        0.00      95.52       2.77       0.30       1.48       ----

> <Gold.Chemscore.Fitness>
17.5579

> <Gold.Chemscore.DG>
-19.3331

> <Gold.Chemscore.ZeroCoef>
-5.4800

> <Gold.Chemscore.Hbond>
2.9231

> <Gold.Chemscore.Metal>
0.0000

> <Gold.Chemscore.Lipo>
95.5228

> <Gold.Chemscore.Internal_Hbond>
0.0000

> <Gold.Chemscore.DEClash>
0.2975

> <Gold.Chemscore.DEInternal>
1.4777

> <Gold.Chemscore.Rot>
2.7681

> <Gold.Chemscore.Internal.Correction>
   9.000000E+99

> <Gold.Chemscore.Hbonds>
donor molecule, donor type, donor heavy atom, donor atom, acceptor molecule, acceptor atom, score
      L1  H     5    43       P1  8028  1.00
      P1  H  6896  6908       L1    18  0.82

> <Gold.Chemscore.Hbond.Weighted>
-9.7631

> <Gold.Chemscore.Metal.Weighted>
-0.0000

> <Gold.Chemscore.Lipo.Weighted>
-11.1762

> <Gold.Chemscore.Internal_Hbond.Weighted>
0.0000

> <Gold.Chemscore.DEClash.Weighted>
0.2975

> <Gold.Chemscore.DEInternal.Weighted>
1.4777

> <Gold.Chemscore.Rot.Weighted>
7.0863

> <Gold.Chemscore.Internal.Correction.Weighted>
   9.000000E+99

> <Gold.Protein.RotatedTorsions>
[ 6907 6896 6895 6894 ] final -154.72 input  -60.11 | X-H torsion
[ 7974 7965 7964 7962 ] final -108.31 input  175.53 | X-H torsion
[ 8008 7997 7996 7995 ] final -126.16 input   59.86 | X-H torsion
[ 10167 10162 10161 10158 ] final   88.44 input  -65.29 | X-H torsion
[ 10718 10713 10712 10709 ] final  -16.65 input   66.30 | X-H torsion
[ 10763 10752 10751 10750 ] final -177.98 input  -60.55 | X-H torsion
[ 11005 11000 10999 10996 ] final  143.34 input  -57.11 | X-H torsion

> <Gold.Protein.ActiveResidues>
 VAL166  LYS551  ARG553  GLY616  TRP617  ASP618  TYR619  PRO620  LYS621  CYS622 
 ASP623  PHE694  ASN695  SER759  ASP760  ASP761  ALA762  ILE779  LEU786  VAL792 
 PHE793  MET794  SER795  GLU796  ALA797  LYS798  CYS799  TRP800  GLU811  SER814 

> <Gold.Protein.RotatedAtoms>
  151.2618  133.4298  159.2616 H   0  0  0  0  0  0  0  0  0  0  0  0  # atno 6907 bound_to 6896
  151.0524  134.9682  159.8228 H   0  0  0  0  0  0  0  0  0  0  0  0  # atno 6908 bound_to 6896
  152.5385  134.2571  159.8974 H   0  0  0  0  0  0  0  0  0  0  0  0  # atno 6909 bound_to 6896
  145.1945  140.9029  143.3405 H   0  0  0  0  0  0  0  0  0  0  0  0  # atno 7974 bound_to 7965
  155.2251  140.0423  157.2954 H   0  0  0  0  0  0  0  0  0  0  0  0  # atno 8008 bound_to 7997
  154.5924  140.2430  155.7873 H   0  0  0  0  0  0  0  0  0  0  0  0  # atno 8009 bound_to 7997
  156.2268  140.2952  156.0095 H   0  0  0  0  0  0  0  0  0  0  0  0  # atno 8010 bound_to 7997
  139.8672  144.6512  150.8990 H   0  0  0  0  0  0  0  0  0  0  0  0  # atno 10167 bound_to 10162
  156.5846  130.4783  149.6305 H   0  0  0  0  0  0  0  0  0  0  0  0  # atno 10718 bound_to 10713
  154.5534  135.2814  155.0987 H   0  0  0  0  0  0  0  0  0  0  0  0  # atno 10763 bound_to 10752
  154.2424  135.6354  153.5215 H   0  0  0  0  0  0  0  0  0  0  0  0  # atno 10764 bound_to 10752
  153.0009  135.5563  154.6107 H   0  0  0  0  0  0  0  0  0  0  0  0  # atno 10765 bound_to 10752
  140.0546  134.9237  157.1078 H   0  0  0  0  0  0  0  0  0  0  0  0  # atno 11005 bound_to 11000
  145.0008  139.3600  143.6168 LP  0  0  0  0  0  0  0  0  0  0  0  0  # atno 17320 bound_to 7965
  146.3430  139.9230  142.8764 LP  0  0  0  0  0  0  0  0  0  0  0  0  # atno 17321 bound_to 7965
  140.7766  143.3694  151.1678 LP  0  0  0  0  0  0  0  0  0  0  0  0  # atno 17342 bound_to 10162
  139.7317  143.9061  152.3022 LP  0  0  0  0  0  0  0  0  0  0  0  0  # atno 17343 bound_to 10162
  156.2602  130.6958  151.1724 LP  0  0  0  0  0  0  0  0  0  0  0  0  # atno 17370 bound_to 10713
  157.7318  131.0605  150.5658 LP  0  0  0  0  0  0  0  0  0  0  0  0  # atno 17371 bound_to 10713
  140.3863  134.2232  155.7168 LP  0  0  0  0  0  0  0  0  0  0  0  0  # atno 17394 bound_to 11000
  141.1946  133.8124  157.0749 LP  0  0  0  0  0  0  0  0  0  0  0  0  # atno 17395 bound_to 11000

$$$$
