AV-unprocessed.smi:730|AV-procd|sdf|3525|dock9
  -GOLD-   22720 0523D 1   1.00000     0.00000
 Structure written by MMmdl.
 40 41  0  0  0  0  0  0  0  0  1 V2000
  143.5299  132.7208  149.7363 C   0  0  0  0  0  0  0  0  0  0  0  0
  144.3965  133.0352  150.9721 C   0  0  0  0  0  0  0  0  0  0  0  0
  144.6849  131.7152  151.7115 C   0  0  0  0  0  0  0  0  0  0  0  0
  145.7253  133.6467  150.4897 C   0  0  0  0  0  0  0  0  0  0  0  0
  143.6914  133.9945  151.8903 C   0  0  0  0  0  0  0  0  0  0  0  0
  142.5615  133.9063  152.6579 C   0  0  0  0  0  0  0  0  0  0  0  0
  142.4826  135.1848  153.2704 C   0  0  0  0  0  0  0  0  0  0  0  0
  141.4247  135.5015  154.1604 N   0  0  0  0  0  0  0  0  0  0  0  0
  140.6966  136.6305  154.1978 C   0  0  0  0  0  0  0  0  0  0  0  0
  140.8529  137.6007  153.4559 O   0  0  0  0  0  0  0  0  0  0  0  0
  139.7601  136.5747  155.1558 N   0  0  0  0  0  0  0  0  0  0  0  0
  138.8024  137.6367  155.4574 C   0  0  1  0  0  0  0  0  0  0  0  0
  138.0084  138.0231  154.1948 C   0  0  0  0  0  0  0  0  0  0  0  0
  136.6695  137.2976  154.3163 C   0  0  0  0  0  0  0  0  0  0  0  0
  136.3806  137.3241  155.8132 C   0  0  0  0  0  0  0  0  0  0  0  0
  137.7521  137.1409  156.4778 C   0  0  2  0  0  0  0  0  0  0  0  0
  137.8093  137.8760  157.6828 O   0  0  0  0  0  0  0  0  0  0  0  0
  143.4720  135.9869  152.9119 N   0  0  0  0  0  0  0  0  0  0  0  0
  144.2493  135.2305  152.0280 O   0  0  0  0  0  0  0  0  0  0  0  0
  144.0318  132.0236  149.0645 H   0  0  0  0  0  0  0  0  0  0  0  0
  143.3093  133.6228  149.1641 H   0  0  0  0  0  0  0  0  0  0  0  0
  142.5782  132.2701  150.0211 H   0  0  0  0  0  0  0  0  0  0  0  0
  143.7635  131.2492  152.0629 H   0  0  0  0  0  0  0  0  0  0  0  0
  145.3231  131.8755  152.5814 H   0  0  0  0  0  0  0  0  0  0  0  0
  145.1910  130.9977  151.0648 H   0  0  0  0  0  0  0  0  0  0  0  0
  146.2505  132.9738  149.8109 H   0  0  0  0  0  0  0  0  0  0  0  0
  146.3957  133.8559  151.3242 H   0  0  0  0  0  0  0  0  0  0  0  0
  145.5594  134.5851  149.9592 H   0  0  0  0  0  0  0  0  0  0  0  0
  141.8981  133.0609  152.7639 H   0  0  0  0  0  0  0  0  0  0  0  0
  141.1925  134.7886  154.8357 H   0  0  0  0  0  0  0  0  0  0  0  0
  139.7017  135.7383  155.7177 H   0  0  0  0  0  0  0  0  0  0  0  0
  139.3364  138.5101  155.8383 H   0  0  0  0  0  0  0  0  0  0  0  0
  137.8316  139.0995  154.1996 H   0  0  0  0  0  0  0  0  0  0  0  0
  138.5242  137.7893  153.2625 H   0  0  0  0  0  0  0  0  0  0  0  0
  135.8815  137.7670  153.7269 H   0  0  0  0  0  0  0  0  0  0  0  0
  136.7746  136.2663  153.9771 H   0  0  0  0  0  0  0  0  0  0  0  0
  135.9584  138.2967  156.0720 H   0  0  0  0  0  0  0  0  0  0  0  0
  135.6619  136.5625  156.1172 H   0  0  0  0  0  0  0  0  0  0  0  0
  137.9024  136.0849  156.7086 H   0  0  0  0  0  0  0  0  0  0  0  0
  137.6108  137.2925  158.3992 H   0  0  0  0  0  0  0  0  0  0  0  0
  1  2  1  0  0  0  0
  1 20  1  0  0  0  0
  1 21  1  0  0  0  0
  1 22  1  0  0  0  0
  2  3  1  0  0  0  0
  2  4  1  0  0  0  0
  2  5  1  0  0  0  0
  3 23  1  0  0  0  0
  3 24  1  0  0  0  0
  3 25  1  0  0  0  0
  4 26  1  0  0  0  0
  4 27  1  0  0  0  0
  4 28  1  0  0  0  0
  5 19  1  0  0  0  0
  5  6  2  0  0  0  0
  6  7  1  0  0  0  0
  6 29  1  0  0  0  0
  7  8  1  0  0  0  0
  7 18  2  0  0  0  0
  8  9  1  0  0  0  0
  8 30  1  0  0  0  0
  9 10  2  0  0  0  0
  9 11  1  0  0  0  0
 11 12  1  0  0  0  0
 11 31  1  0  0  0  0
 12 16  1  0  0  0  0
 12 13  1  0  0  0  0
 12 32  1  0  0  0  0
 13 14  1  0  0  0  0
 13 33  1  0  0  0  0
 13 34  1  0  0  0  0
 14 15  1  0  0  0  0
 14 35  1  0  0  0  0
 14 36  1  0  0  0  0
 15 16  1  0  0  0  0
 15 37  1  0  0  0  0
 15 38  1  0  0  0  0
 16 17  1  0  0  0  0
 16 39  1  0  0  0  0
 17 40  1  0  0  0  0
 18 19  1  0  0  0  0
M  END
> <s_m_source_file>
AV-unprocessed.smi

> <i_m_source_file_index>
730

> <i_lp_mmshare_version>
43012

> <i_f3d_flags>
0

> <s_epik_input>
W0NIM11DKFtDSDNdKShbQ0gzXSljMVtjSF1jKG5vMSlbTkhdQyg9TylbTkhdW0NAQEhdMltDSDJdW0NIMl1bQ0gyXVtDQEhdMltPSF0=

> <s_epik_cmdline>
J2VwaWtfcHl0aG9uJywgJy1waCcsICc3LjAnLCAnLXRuJywgJzgnLCAnLW1hJywgJzIwMCcsICctbWV0YWxfYmluZGluZycsICctaW1hZScsICc8aW5maWxlLm1hZT4nLCAnLW9tYWUnLCAnPG91dGZpbGUubWFlPic=

> <r_lp_tautomer_probability>
1

> <r_epik_Ionization_Penalty>
2.23071e-05

> <r_epik_Ionization_Penalty_Charging>
0

> <r_epik_Ionization_Penalty_Neutral>
2.23071e-05

> <r_epik_State_Penalty>
-0

> <r_epik_Charging_Adjusted_Penalty>
0

> <i_epik_Tot_Q>
0

> <i_epik_Tot_abs_Q>
0

> <r_epik_Metal_State_Penalty>
-0

> <b_epik_Metal_Only>
0

> <s_lp_Force_Field>
OPLS_2005

> <r_lp_Energy>
16.5613

> <b_lp_Chiralities_Consistent>
1

> <s_lp_Variant>
AV-unprocessed.smi:730-4

> <Gold.Version>
5.8.1

> <Gold.Id.Protein>
6NUR|6NUR_protein|mol2

> <Gold.PLP.Fitness>
34.0021

> <Gold.PLP.PLP>
-29.4224

> <Gold.PLP.part.hbond>
-2.0000

> <Gold.PLP.part.metal>
0.0000

> <Gold.PLP.part.buried>
-2.5689

> <Gold.PLP.part.nonpolar>
-25.7351

> <Gold.PLP.part.repulsive>
0.5432

> <Gold.PLP.ligand.clash>
0.0000

> <Gold.PLP.ligand.torsion>
0.5296

> <Gold.PLP.Chemscore.Hbond>
1.8775

> <Gold.PLP.Chemscore.CHOScore>
0.0000

> <Gold.PLP.Chemscore.Metal>
0.0000

> <Gold.Chemscore.Hbonds>
donor molecule, donor type, donor heavy atom, donor atom, acceptor molecule, acceptor atom, score
      L1  H     8    30       P1 11000  0.81
      L1  H    11    31       P1 11000  1.00

> <Gold.PLP.Chemscore.Internal.Correction>
0.0064

> <Gold.Rescore>
     Score         DG    S(hbond)    S(metal)    S(lipo)     H(rot)  DE(clash)    DE(int)     intcor
     12.89     -14.82       1.58        0.00      72.17       1.71       0.14       1.79       ----

> <Gold.Chemscore.Fitness>
12.8947

> <Gold.Chemscore.DG>
-14.8212

> <Gold.Chemscore.ZeroCoef>
-5.4800

> <Gold.Chemscore.Hbond>
1.5811

> <Gold.Chemscore.Metal>
0.0000

> <Gold.Chemscore.Lipo>
72.1732

> <Gold.Chemscore.Internal_Hbond>
0.0000

> <Gold.Chemscore.DEClash>
0.1384

> <Gold.Chemscore.DEInternal>
1.7881

> <Gold.Chemscore.Rot>
1.7125

> <Gold.Chemscore.Internal.Correction>
   9.000000E+99

> <Gold.Chemscore.Hbonds>
donor molecule, donor type, donor heavy atom, donor atom, acceptor molecule, acceptor atom, score
      L1  H     8    30       P1 11000  0.46
      L1  H    11    31       P1 11000  0.93

> <Gold.Chemscore.Hbond.Weighted>
-5.2810

> <Gold.Chemscore.Metal.Weighted>
-0.0000

> <Gold.Chemscore.Lipo.Weighted>
-8.4443

> <Gold.Chemscore.Internal_Hbond.Weighted>
0.0000

> <Gold.Chemscore.DEClash.Weighted>
0.1384

> <Gold.Chemscore.DEInternal.Weighted>
1.7881

> <Gold.Chemscore.Rot.Weighted>
4.3841

> <Gold.Chemscore.Internal.Correction.Weighted>
   9.000000E+99

> <Gold.Protein.RotatedTorsions>
[ 6907 6896 6895 6894 ] final   53.02 input  -60.11 | X-H torsion
[ 7974 7965 7964 7962 ] final  -41.10 input  175.53 | X-H torsion
[ 8008 7997 7996 7995 ] final -135.08 input   59.86 | X-H torsion
[ 10167 10162 10161 10158 ] final -173.25 input  -65.29 | X-H torsion
[ 10718 10713 10712 10709 ] final  -80.26 input   66.30 | X-H torsion
[ 10763 10752 10751 10750 ] final  -65.09 input  -60.55 | X-H torsion
[ 11005 11000 10999 10996 ] final -119.20 input  -57.11 | X-H torsion

> <Gold.Protein.ActiveResidues>
 VAL166  LYS551  ARG553  GLY616  TRP617  ASP618  TYR619  PRO620  LYS621  CYS622 
 ASP623  PHE694  ASN695  SER759  ASP760  ASP761  ALA762  ILE779  LEU786  VAL792 
 PHE793  MET794  SER795  GLU796  ALA797  LYS798  CYS799  TRP800  GLU811  SER814 

> <Gold.Protein.RotatedAtoms>
  152.3294  134.7279  160.0293 H   0  0  0  0  0  0  0  0  0  0  0  0  # atno 6907 bound_to 6896
  151.7701  133.3335  159.3450 H   0  0  0  0  0  0  0  0  0  0  0  0  # atno 6908 bound_to 6896
  150.7414  134.5958  159.6055 H   0  0  0  0  0  0  0  0  0  0  0  0  # atno 6909 bound_to 6896
  146.0242  140.6812  142.9163 H   0  0  0  0  0  0  0  0  0  0  0  0  # atno 7974 bound_to 7965
  155.3728  140.0489  157.3045 H   0  0  0  0  0  0  0  0  0  0  0  0  # atno 8008 bound_to 7997
  154.5121  140.2195  155.9098 H   0  0  0  0  0  0  0  0  0  0  0  0  # atno 8009 bound_to 7997
  156.1595  140.3119  155.8788 H   0  0  0  0  0  0  0  0  0  0  0  0  # atno 8010 bound_to 7997
  139.5699  144.1666  152.1368 H   0  0  0  0  0  0  0  0  0  0  0  0  # atno 10167 bound_to 10162
  156.0074  130.4569  150.3773 H   0  0  0  0  0  0  0  0  0  0  0  0  # atno 10718 bound_to 10713
  154.3398  135.6159  153.5591 H   0  0  0  0  0  0  0  0  0  0  0  0  # atno 10763 bound_to 10752
  152.9805  135.5767  154.4865 H   0  0  0  0  0  0  0  0  0  0  0  0  # atno 10764 bound_to 10752
  154.4567  135.2854  155.1719 H   0  0  0  0  0  0  0  0  0  0  0  0  # atno 10765 bound_to 10752
  141.0232  134.0093  157.3252 H   0  0  0  0  0  0  0  0  0  0  0  0  # atno 11005 bound_to 11000
  144.7002  140.3620  143.7162 LP  0  0  0  0  0  0  0  0  0  0  0  0  # atno 17320 bound_to 7965
  145.7144  139.1693  143.2520 LP  0  0  0  0  0  0  0  0  0  0  0  0  # atno 17321 bound_to 7965
  140.1197  144.5384  150.6871 LP  0  0  0  0  0  0  0  0  0  0  0  0  # atno 17342 bound_to 10162
  140.6983  143.2418  151.4937 LP  0  0  0  0  0  0  0  0  0  0  0  0  # atno 17343 bound_to 10162
  157.1854  131.0402  151.2727 LP  0  0  0  0  0  0  0  0  0  0  0  0  # atno 17370 bound_to 10713
  157.4109  130.7384  149.6838 LP  0  0  0  0  0  0  0  0  0  0  0  0  # atno 17371 bound_to 10713
  139.9159  135.0196  156.7879 LP  0  0  0  0  0  0  0  0  0  0  0  0  # atno 17394 bound_to 11000
  140.6537  133.9708  155.7768 LP  0  0  0  0  0  0  0  0  0  0  0  0  # atno 17395 bound_to 11000

$$$$
