AV-unprocessed.smi:3141|AV-procd|sdf|11963|dock7
  -GOLD-   2272017363D 1   1.00000     0.00000
 Structure written by MMmdl.
 36 38  0  0  0  0  0  0  0  0  2 V2000
  148.7622  134.7724  156.1535 O   0  0  0  0  0  0  0  0  0  0  0  0
  148.8349  135.1625  154.9879 C   0  0  0  0  0  0  0  0  0  0  0  0
  148.4249  134.4538  153.9283 N   0  0  0  0  0  0  0  0  0  0  0  0
  147.8383  133.1539  153.9813 C   0  0  0  0  0  0  0  0  0  0  0  0
  148.6495  131.9938  153.4468 C   0  0  0  0  0  0  0  0  0  0  0  0
  147.4658  132.4988  152.6692 C   0  0  0  0  0  0  0  0  0  0  0  0
  149.3153  136.3615  154.6275 N   0  0  0  0  0  0  0  0  0  0  0  0
  149.8469  137.3755  155.5414 C   0  0  1  0  0  0  0  0  0  0  0  0
  151.3677  137.5229  155.3253 C   0  0  0  0  0  0  0  0  0  0  0  0
  151.6038  138.9124  154.7114 C   0  0  0  0  0  0  0  0  0  0  0  0
  150.2311  139.4024  154.2518 C   0  0  0  0  0  0  0  0  0  0  0  0
  149.2778  138.7882  155.2801 C   0  0  1  0  0  0  0  0  0  0  0  0
  147.8466  138.8452  154.9294 N   0  0  0  0  0  0  0  0  0  0  0  0
  146.7663  138.3772  155.6388 C   0  0  0  0  0  0  0  0  0  0  0  0
  145.6483  138.7124  154.9197 C   0  0  0  0  0  0  0  0  0  0  0  0
  146.0877  139.3779  153.8081 N   0  3  0  0  0  0  0  0  0  0  0  0
  147.4215  139.4609  153.8177 C   0  0  0  0  0  0  0  0  0  0  0  0
  148.5299  134.8650  153.0122 H   0  0  0  0  0  0  0  0  0  0  0  0
  147.1885  132.9324  154.8267 H   0  0  0  0  0  0  0  0  0  0  0  0
  149.6395  132.2048  153.0471 H   0  0  0  0  0  0  0  0  0  0  0  0
  148.5468  131.0358  153.9525 H   0  0  0  0  0  0  0  0  0  0  0  0
  146.5726  131.8776  152.6548 H   0  0  0  0  0  0  0  0  0  0  0  0
  147.6663  133.0466  151.7504 H   0  0  0  0  0  0  0  0  0  0  0  0
  149.3292  136.5885  153.6437 H   0  0  0  0  0  0  0  0  0  0  0  0
  149.6487  137.0765  156.5726 H   0  0  0  0  0  0  0  0  0  0  0  0
  151.9051  137.4344  156.2704 H   0  0  0  0  0  0  0  0  0  0  0  0
  151.7589  136.7432  154.6692 H   0  0  0  0  0  0  0  0  0  0  0  0
  151.9937  139.5861  155.4756 H   0  0  0  0  0  0  0  0  0  0  0  0
  152.3278  138.8892  153.8964 H   0  0  0  0  0  0  0  0  0  0  0  0
  150.1665  140.4900  154.2117 H   0  0  0  0  0  0  0  0  0  0  0  0
  150.0338  139.0148  153.2521 H   0  0  0  0  0  0  0  0  0  0  0  0
  149.3910  139.3653  156.2002 H   0  0  0  0  0  0  0  0  0  0  0  0
  146.8614  137.8586  156.5811 H   0  0  0  0  0  0  0  0  0  0  0  0
  144.6001  138.5381  155.1144 H   0  0  0  0  0  0  0  0  0  0  0  0
  148.0356  139.9422  153.0774 H   0  0  0  0  0  0  0  0  0  0  0  0
  145.4913  139.7621  153.0859 H   0  0  0  0  0  0  0  0  0  0  0  0
  1  2  2  0  0  0  0
  2  3  1  0  0  0  0
  2  7  1  0  0  0  0
  3  4  1  0  0  0  0
  3 18  1  0  0  0  0
  4  6  1  0  0  0  0
  4  5  1  0  0  0  0
  4 19  1  0  0  0  0
  5  6  1  0  0  0  0
  5 20  1  0  0  0  0
  5 21  1  0  0  0  0
  6 22  1  0  0  0  0
  6 23  1  0  0  0  0
  7  8  1  0  0  0  0
  7 24  1  0  0  0  0
  8 12  1  0  0  0  0
  8  9  1  0  0  0  0
  8 25  1  0  0  0  0
  9 10  1  0  0  0  0
  9 26  1  0  0  0  0
  9 27  1  0  0  0  0
 10 11  1  0  0  0  0
 10 28  1  0  0  0  0
 10 29  1  0  0  0  0
 11 12  1  0  0  0  0
 11 30  1  0  0  0  0
 11 31  1  0  0  0  0
 12 13  1  0  0  0  0
 12 32  1  0  0  0  0
 13 17  1  0  0  0  0
 13 14  1  0  0  0  0
 14 15  2  0  0  0  0
 14 33  1  0  0  0  0
 15 16  1  0  0  0  0
 15 34  1  0  0  0  0
 16 17  2  0  0  0  0
 16 36  1  0  0  0  0
 17 35  1  0  0  0  0
M  CHG  1  16   1
M  END
> <s_m_source_file>
AV-unprocessed.smi

> <i_m_source_file_index>
3141

> <i_lp_mmshare_version>
43012

> <i_f3d_flags>
0

> <s_epik_input>
W0NIMl0xW0NIMl1bQ0hdMVtOSF1DKD1PKVtOSF1bQ0BASF0yW0NIMl1bQ0gyXVtDSDJdW0NASF0ybjNbY0hdW2NIXW5bY0hdMw==

> <s_epik_cmdline>
J2VwaWtfcHl0aG9uJywgJy1waCcsICc3LjAnLCAnLXRuJywgJzgnLCAnLW1hJywgJzIwMCcsICctbWV0YWxfYmluZGluZycsICctaW1hZScsICc8aW5maWxlLm1hZT4nLCAnLW9tYWUnLCAnPG91dGZpbGUubWFlPic=

> <r_lp_tautomer_probability>
1

> <r_epik_Ionization_Penalty>
0.205063

> <r_epik_Ionization_Penalty_Charging>
0

> <r_epik_Ionization_Penalty_Neutral>
0.205063

> <r_epik_State_Penalty>
0.194948

> <r_epik_Charging_Adjusted_Penalty>
0.194948

> <i_epik_Tot_Q>
1

> <i_epik_Tot_abs_Q>
1

> <r_epik_Metal_State_Penalty>
0.500882

> <b_epik_Metal_Only>
0

> <s_lp_Force_Field>
OPLS_2005

> <r_lp_Energy>
36.92

> <b_lp_Chiralities_Consistent>
1

> <s_lp_Variant>
AV-unprocessed.smi:3141-2

> <Gold.Version>
5.8.1

> <Gold.Id.Protein>
6NUR|6NUR_protein|mol2

> <Gold.PLP.Fitness>
36.1410

> <Gold.PLP.PLP>
-21.4762

> <Gold.PLP.part.hbond>
-3.0000

> <Gold.PLP.part.metal>
0.0000

> <Gold.PLP.part.buried>
-0.9320

> <Gold.PLP.part.nonpolar>
-17.7534

> <Gold.PLP.part.repulsive>
0.0376

> <Gold.PLP.ligand.clash>
0.0000

> <Gold.PLP.ligand.torsion>
0.1729

> <Gold.PLP.Chemscore.Hbond>
3.9840

> <Gold.PLP.Chemscore.CHOScore>
1.0000

> <Gold.PLP.Chemscore.Metal>
0.0000

> <Gold.Chemscore.Hbonds>
donor molecule, donor type, donor heavy atom, donor atom, acceptor molecule, acceptor atom, score
      L1  H     3    18       P1  7948  1.00
      L1  H     7    24       P1  7948  1.00
      L1  H    16    36       P1 10175  1.95
      L1  C    17    35       P1  7957  1.00

> <Gold.PLP.Chemscore.Internal.Correction>
0.0586

> <Gold.Rescore>
     Score         DG    S(hbond)    S(metal)    S(lipo)     H(rot)  DE(clash)    DE(int)     intcor
     15.64     -15.83       2.75        0.00      45.27       1.61       0.03       0.16       ----

> <Gold.Chemscore.Fitness>
15.6370

> <Gold.Chemscore.DG>
-15.8300

> <Gold.Chemscore.ZeroCoef>
-5.4800

> <Gold.Chemscore.Hbond>
2.7460

> <Gold.Chemscore.Metal>
0.0000

> <Gold.Chemscore.Lipo>
45.2737

> <Gold.Chemscore.Internal_Hbond>
0.0000

> <Gold.Chemscore.DEClash>
0.0343

> <Gold.Chemscore.DEInternal>
0.1586

> <Gold.Chemscore.Rot>
1.6088

> <Gold.Chemscore.Internal.Correction>
   9.000000E+99

> <Gold.Chemscore.Hbonds>
donor molecule, donor type, donor heavy atom, donor atom, acceptor molecule, acceptor atom, score
      L1  H     3    18       P1  7948  0.49
      L1  H     7    24       P1  7948  0.90
      L1  H    16    36       P1 10175  0.88

> <Gold.Chemscore.Hbond.Weighted>
-9.1716

> <Gold.Chemscore.Metal.Weighted>
-0.0000

> <Gold.Chemscore.Lipo.Weighted>
-5.2970

> <Gold.Chemscore.Internal_Hbond.Weighted>
0.0000

> <Gold.Chemscore.DEClash.Weighted>
0.0343

> <Gold.Chemscore.DEInternal.Weighted>
0.1586

> <Gold.Chemscore.Rot.Weighted>
4.1186

> <Gold.Chemscore.Internal.Correction.Weighted>
   9.000000E+99

> <Gold.Protein.RotatedTorsions>
[ 6907 6896 6895 6894 ] final   54.31 input  -60.11 | X-H torsion
[ 7974 7965 7964 7962 ] final  -92.21 input  175.53 | X-H torsion
[ 8008 7997 7996 7995 ] final -156.95 input   59.86 | X-H torsion
[ 10167 10162 10161 10158 ] final -118.70 input  -65.29 | X-H torsion
[ 10718 10713 10712 10709 ] final -142.49 input   66.30 | X-H torsion
[ 10763 10752 10751 10750 ] final  -98.51 input  -60.55 | X-H torsion
[ 11005 11000 10999 10996 ] final  -25.62 input  -57.11 | X-H torsion

> <Gold.Protein.ActiveResidues>
 VAL166  LYS551  ARG553  GLY616  TRP617  ASP618  TYR619  PRO620  LYS621  CYS622 
 ASP623  PHE694  ASN695  SER759  ASP760  ASP761  ALA762  ILE779  LEU786  VAL792 
 PHE793  MET794  SER795  GLU796  ALA797  LYS798  CYS799  TRP800  GLU811  SER814 

> <Gold.Protein.RotatedAtoms>
  152.3426  134.7114  160.0259 H   0  0  0  0  0  0  0  0  0  0  0  0  # atno 6907 bound_to 6896
  151.7494  133.3321  159.3395 H   0  0  0  0  0  0  0  0  0  0  0  0  # atno 6908 bound_to 6896
  150.7489  134.6138  159.6145 H   0  0  0  0  0  0  0  0  0  0  0  0  # atno 6909 bound_to 6896
  145.4029  140.9539  143.2277 H   0  0  0  0  0  0  0  0  0  0  0  0  # atno 7974 bound_to 7965
  155.7250  140.0795  157.2314 H   0  0  0  0  0  0  0  0  0  0  0  0  # atno 8008 bound_to 7997
  154.4040  140.1605  156.2499 H   0  0  0  0  0  0  0  0  0  0  0  0  # atno 8009 bound_to 7997
  155.9161  140.3401  155.6139 H   0  0  0  0  0  0  0  0  0  0  0  0  # atno 8010 bound_to 7997
  140.0546  143.5026  152.2064 H   0  0  0  0  0  0  0  0  0  0  0  0  # atno 10167 bound_to 10162
  156.3465  130.7665  151.1811 H   0  0  0  0  0  0  0  0  0  0  0  0  # atno 10718 bound_to 10713
  154.7421  135.5006  153.9140 H   0  0  0  0  0  0  0  0  0  0  0  0  # atno 10763 bound_to 10752
  153.1053  135.6695  153.9605 H   0  0  0  0  0  0  0  0  0  0  0  0  # atno 10764 bound_to 10752
  153.9380  135.3071  155.3423 H   0  0  0  0  0  0  0  0  0  0  0  0  # atno 10765 bound_to 10752
  140.8954  133.7560  156.0475 H   0  0  0  0  0  0  0  0  0  0  0  0  # atno 11005 bound_to 11000
  144.8362  139.5547  143.6921 LP  0  0  0  0  0  0  0  0  0  0  0  0  # atno 17320 bound_to 7965
  146.2743  139.6713  142.9274 LP  0  0  0  0  0  0  0  0  0  0  0  0  # atno 17321 bound_to 7965
  139.5931  144.7557  151.3351 LP  0  0  0  0  0  0  0  0  0  0  0  0  # atno 17342 bound_to 10162
  140.7200  143.7161  150.7732 LP  0  0  0  0  0  0  0  0  0  0  0  0  # atno 17343 bound_to 10162
  157.7455  131.0439  150.4769 LP  0  0  0  0  0  0  0  0  0  0  0  0  # atno 17370 bound_to 10713
  156.4958  130.4105  149.6381 LP  0  0  0  0  0  0  0  0  0  0  0  0  # atno 17371 bound_to 10713
  140.8295  134.3195  157.5354 LP  0  0  0  0  0  0  0  0  0  0  0  0  # atno 17394 bound_to 11000
  139.8735  134.9355  156.3636 LP  0  0  0  0  0  0  0  0  0  0  0  0  # atno 17395 bound_to 11000

$$$$
