AV-unprocessed.smi:461|AV-procd|sdf|2631|dock5
  -GOLD-   2262023 33D 1   1.00000     0.00000
 Structure written by MMmdl.
 33 34  0  0  0  0  0  0  0  0  1 V2000
  152.4796  137.6552  159.2421 C   0  0  0  0  0  0  0  0  0  0  0  0
  152.0829  138.3091  157.9942 N   0  0  0  0  0  0  0  0  0  0  0  0
  151.4759  139.5404  158.1808 N   0  0  0  0  0  0  0  0  0  0  0  0
  151.0918  140.1780  157.1137 C   0  0  0  0  0  0  0  0  0  0  0  0
  150.4605  141.4149  157.0896 N   0  0  0  0  0  0  0  0  0  0  0  0
  150.1242  142.2039  158.2657 C   0  0  0  0  0  0  0  0  0  0  0  0
  151.2962  143.0828  158.7326 C   0  0  1  0  0  0  0  0  0  0  0  0
  151.6026  144.2464  157.7962 C   0  0  0  0  0  0  0  0  0  0  0  0
  152.3802  145.1802  158.7010 C   0  0  0  0  0  0  0  0  0  0  0  0
  151.7906  144.9014  160.0864 C   0  0  0  0  0  0  0  0  0  0  0  0
  150.9714  143.7437  159.9474 O   0  0  0  0  0  0  0  0  0  0  0  0
  151.3107  139.5890  155.7291 C   0  0  0  0  0  0  0  0  0  0  0  0
  150.9389  140.2010  154.7233 O   0  0  0  0  0  0  0  0  0  0  0  0
  151.9249  138.3742  155.6877 N   0  0  0  0  0  0  0  0  0  0  0  0
  152.1439  137.7842  154.3545 C   0  0  0  0  0  0  0  0  0  0  0  0
  152.3237  137.6909  156.8006 C   0  0  0  0  0  0  0  0  0  0  0  0
  152.8665  136.5845  156.7472 O   0  0  0  0  0  0  0  0  0  0  0  0
  153.5581  137.4930  159.2655 H   0  0  0  0  0  0  0  0  0  0  0  0
  151.9857  136.6879  159.3442 H   0  0  0  0  0  0  0  0  0  0  0  0
  152.2186  138.2487  160.1201 H   0  0  0  0  0  0  0  0  0  0  0  0
  149.8186  141.5271  159.0641 H   0  0  0  0  0  0  0  0  0  0  0  0
  149.2569  142.8266  158.0408 H   0  0  0  0  0  0  0  0  0  0  0  0
  152.2008  142.4897  158.8788 H   0  0  0  0  0  0  0  0  0  0  0  0
  152.1631  143.9448  156.9110 H   0  0  0  0  0  0  0  0  0  0  0  0
  150.6792  144.7268  157.4697 H   0  0  0  0  0  0  0  0  0  0  0  0
  153.4384  144.9158  158.6880 H   0  0  0  0  0  0  0  0  0  0  0  0
  152.2895  146.2254  158.4041 H   0  0  0  0  0  0  0  0  0  0  0  0
  152.5783  144.7217  160.8188 H   0  0  0  0  0  0  0  0  0  0  0  0
  151.1822  145.7338  160.4407 H   0  0  0  0  0  0  0  0  0  0  0  0
  152.7467  136.8755  154.3520 H   0  0  0  0  0  0  0  0  0  0  0  0
  152.6573  138.4893  153.6984 H   0  0  0  0  0  0  0  0  0  0  0  0
  151.1875  137.5335  153.8931 H   0  0  0  0  0  0  0  0  0  0  0  0
  150.1274  141.8053  156.2195 H   0  0  0  0  0  0  0  0  0  0  0  0
  1 18  1  0  0  0  0
  1 19  1  0  0  0  0
  1 20  1  0  0  0  0
  1  2  1  0  0  0  0
  2 16  1  0  0  0  0
  2  3  1  0  0  0  0
  3  4  2  0  0  0  0
  4 12  1  0  0  0  0
  4  5  1  0  0  0  0
  5  6  1  0  0  0  0
  5 33  1  0  0  0  0
  6  7  1  0  0  0  0
  6 21  1  0  0  0  0
  6 22  1  0  0  0  0
  7 11  1  0  0  0  0
  7  8  1  0  0  0  0
  7 23  1  0  0  0  0
  8  9  1  0  0  0  0
  8 24  1  0  0  0  0
  8 25  1  0  0  0  0
  9 10  1  0  0  0  0
  9 26  1  0  0  0  0
  9 27  1  0  0  0  0
 10 11  1  0  0  0  0
 10 28  1  0  0  0  0
 10 29  1  0  0  0  0
 12 13  2  0  0  0  0
 12 14  1  0  0  0  0
 14 15  1  0  0  0  0
 14 16  1  0  0  0  0
 15 30  1  0  0  0  0
 15 31  1  0  0  0  0
 15 32  1  0  0  0  0
 16 17  2  0  0  0  0
M  END
> <s_m_source_file>
AV-unprocessed.smi

> <i_m_source_file_index>
461

> <i_lp_mmshare_version>
43012

> <i_f3d_flags>
0

> <s_epik_input>
Tz1jMW4oW0NIM10pYyg9TyljKG5uMVtDSDNdKVtOSF1bQ0gyXVtDQEBIXTJbQ0gyXVtDSDJdW0NIMl1PMg==

> <s_epik_cmdline>
J2VwaWtfcHl0aG9uJywgJy1waCcsICc3LjAnLCAnLXRuJywgJzgnLCAnLW1hJywgJzIwMCcsICctbWV0YWxfYmluZGluZycsICctaW1hZScsICc8aW5maWxlLm1hZT4nLCAnLW9tYWUnLCAnPG91dGZpbGUubWFlPic=

> <r_lp_tautomer_probability>
1

> <r_epik_Ionization_Penalty>
0.000103292

> <r_epik_Ionization_Penalty_Charging>
5.59445e-09

> <r_epik_Ionization_Penalty_Neutral>
0.000103287

> <r_epik_State_Penalty>
-0

> <r_epik_Charging_Adjusted_Penalty>
5.59445e-09

> <i_epik_Tot_Q>
0

> <i_epik_Tot_abs_Q>
0

> <r_epik_Metal_State_Penalty>
-0

> <b_epik_Metal_Only>
0

> <s_lp_Force_Field>
OPLS_2005

> <r_lp_Energy>
40.9993

> <b_lp_Chiralities_Consistent>
1

> <s_lp_Variant>
AV-unprocessed.smi:461-2

> <Gold.Version>
5.8.1

> <Gold.Id.Protein>
6NUR|6NUR_protein|mol2

> <Gold.PLP.Fitness>
37.2793

> <Gold.PLP.PLP>
-31.7669

> <Gold.PLP.part.hbond>
-2.4768

> <Gold.PLP.part.metal>
0.0000

> <Gold.PLP.part.buried>
-4.8708

> <Gold.PLP.part.nonpolar>
-25.8467

> <Gold.PLP.part.repulsive>
0.1833

> <Gold.PLP.ligand.clash>
0.0000

> <Gold.PLP.ligand.torsion>
0.2114

> <Gold.PLP.Chemscore.Hbond>
1.9760

> <Gold.PLP.Chemscore.CHOScore>
0.0000

> <Gold.PLP.Chemscore.Metal>
0.0000

> <Gold.Chemscore.Hbonds>
donor molecule, donor type, donor heavy atom, donor atom, acceptor molecule, acceptor atom, score
      P1  H  7989  7998       L1    13  1.00
      P1  H 10752 10764       L1    17  1.00

> <Gold.PLP.Chemscore.Internal.Correction>
0.0073

> <Gold.Rescore>
     Score         DG    S(hbond)    S(metal)    S(lipo)     H(rot)  DE(clash)    DE(int)     intcor
     16.70     -17.02       1.98        0.00      70.34       1.30       0.08       0.23       ----

> <Gold.Chemscore.Fitness>
16.7038

> <Gold.Chemscore.DG>
-17.0163

> <Gold.Chemscore.ZeroCoef>
-5.4800

> <Gold.Chemscore.Hbond>
1.9829

> <Gold.Chemscore.Metal>
0.0000

> <Gold.Chemscore.Lipo>
70.3406

> <Gold.Chemscore.Internal_Hbond>
0.0000

> <Gold.Chemscore.DEClash>
0.0817

> <Gold.Chemscore.DEInternal>
0.2307

> <Gold.Chemscore.Rot>
1.2954

> <Gold.Chemscore.Internal.Correction>
   9.000000E+99

> <Gold.Chemscore.Hbonds>
donor molecule, donor type, donor heavy atom, donor atom, acceptor molecule, acceptor atom, score
      P1  H  7989  7998       L1    13  0.96
      P1  H 10752 10764       L1    17  0.96

> <Gold.Chemscore.Hbond.Weighted>
-6.6227

> <Gold.Chemscore.Metal.Weighted>
-0.0000

> <Gold.Chemscore.Lipo.Weighted>
-8.2299

> <Gold.Chemscore.Internal_Hbond.Weighted>
0.0000

> <Gold.Chemscore.DEClash.Weighted>
0.0817

> <Gold.Chemscore.DEInternal.Weighted>
0.2307

> <Gold.Chemscore.Rot.Weighted>
3.3163

> <Gold.Chemscore.Internal.Correction.Weighted>
   9.000000E+99

> <Gold.Protein.RotatedTorsions>
[ 6907 6896 6895 6894 ] final   24.04 input  -60.11 | X-H torsion
[ 7974 7965 7964 7962 ] final  119.97 input  175.53 | X-H torsion
[ 8008 7997 7996 7995 ] final  113.24 input   59.86 | X-H torsion
[ 10167 10162 10161 10158 ] final  -12.63 input  -65.29 | X-H torsion
[ 10718 10713 10712 10709 ] final   10.73 input   66.30 | X-H torsion
[ 10763 10752 10751 10750 ] final   -3.31 input  -60.55 | X-H torsion
[ 11005 11000 10999 10996 ] final -164.34 input  -57.11 | X-H torsion

> <Gold.Protein.ActiveResidues>
 VAL166  LYS551  ARG553  GLY616  TRP617  ASP618  TYR619  PRO620  LYS621  CYS622 
 ASP623  PHE694  ASN695  SER759  ASP760  ASP761  ALA762  ILE779  LEU786  VAL792 
 PHE793  MET794  SER795  GLU796  ALA797  LYS798  CYS799  TRP800  GLU811  SER814 

> <Gold.Protein.RotatedAtoms>
  151.9515  135.0167  160.0542 H   0  0  0  0  0  0  0  0  0  0  0  0  # atno 6907 bound_to 6896
  152.1949  133.4794  159.5035 H   0  0  0  0  0  0  0  0  0  0  0  0  # atno 6908 bound_to 6896
  150.6942  134.1583  159.4209 H   0  0  0  0  0  0  0  0  0  0  0  0  # atno 6909 bound_to 6896
  145.1367  139.3293  143.4637 H   0  0  0  0  0  0  0  0  0  0  0  0  # atno 7974 bound_to 7965
  156.2245  140.2983  156.0033 H   0  0  0  0  0  0  0  0  0  0  0  0  # atno 8008 bound_to 7997
  155.2393  140.0422  157.2990 H   0  0  0  0  0  0  0  0  0  0  0  0  # atno 8009 bound_to 7997
  154.5893  140.2397  155.7951 H   0  0  0  0  0  0  0  0  0  0  0  0  # atno 8010 bound_to 7997
  140.7165  143.5512  150.9299 H   0  0  0  0  0  0  0  0  0  0  0  0  # atno 10167 bound_to 10162
  156.9852  130.6021  149.5680 H   0  0  0  0  0  0  0  0  0  0  0  0  # atno 10718 bound_to 10713
  153.3697  135.6994  153.6647 H   0  0  0  0  0  0  0  0  0  0  0  0  # atno 10763 bound_to 10752
  153.5303  135.3594  155.2673 H   0  0  0  0  0  0  0  0  0  0  0  0  # atno 10764 bound_to 10752
  154.8679  135.4179  154.2972 H   0  0  0  0  0  0  0  0  0  0  0  0  # atno 10765 bound_to 10752
  140.5880  134.5074  157.5188 H   0  0  0  0  0  0  0  0  0  0  0  0  # atno 11005 bound_to 11000
  146.3509  140.1388  142.8595 LP  0  0  0  0  0  0  0  0  0  0  0  0  # atno 17320 bound_to 7965
  145.0576  140.9064  143.4958 LP  0  0  0  0  0  0  0  0  0  0  0  0  # atno 17321 bound_to 7965
  139.9236  143.6576  152.3091 LP  0  0  0  0  0  0  0  0  0  0  0  0  # atno 17342 bound_to 10162
  139.7002  144.7636  151.1287 LP  0  0  0  0  0  0  0  0  0  0  0  0  # atno 17343 bound_to 10162
  156.0228  130.5323  150.8325 LP  0  0  0  0  0  0  0  0  0  0  0  0  # atno 17370 bound_to 10713
  157.5498  131.0943  150.9712 LP  0  0  0  0  0  0  0  0  0  0  0  0  # atno 17371 bound_to 10713
  139.9287  134.8006  156.0994 LP  0  0  0  0  0  0  0  0  0  0  0  0  # atno 17394 bound_to 11000
  141.0953  133.6698  156.2632 LP  0  0  0  0  0  0  0  0  0  0  0  0  # atno 17395 bound_to 11000

$$$$
