AV-unprocessed.smi:1830|AV-procd|sdf|7443|dock1
  -GOLD-   22720 9133D 1   1.00000     0.00000
 Structure written by MMmdl.
 52 55  0  0  0  0  0  0  0  0  1 V2000
  151.4498  135.4642  155.6475 O   0  0  0  0  0  0  0  0  0  0  0  0
  150.6938  135.7766  154.7279 C   0  0  0  0  0  0  0  0  0  0  0  0
  150.7194  136.9717  154.1216 N   0  0  0  0  0  0  0  0  0  0  0  0
  151.6215  138.0730  154.4487 C   0  0  0  0  0  0  0  0  0  0  0  0
  150.9983  139.0693  155.4432 C   0  0  1  0  0  0  0  0  0  0  0  0
  151.9500  139.5046  156.5842 C   0  0  0  0  0  0  0  0  0  0  0  0
  151.2919  140.4915  157.4179 N   0  0  0  0  0  0  0  0  0  0  0  0
  152.0683  141.0631  158.4933 C   0  0  0  0  0  0  0  0  0  0  0  0
  151.2768  142.3168  158.9053 C   0  0  0  0  0  0  0  0  0  0  0  0
  150.3948  142.6364  157.6776 C   0  0  0  0  0  0  0  0  0  0  0  0
  150.8841  141.6279  156.6363 C   0  0  2  0  0  0  0  0  0  0  0  0
  149.8980  141.2065  155.5366 C   0  0  0  0  0  0  0  0  0  0  0  0
  150.5321  140.2169  154.7213 O   0  0  0  0  0  0  0  0  0  0  0  0
  149.7368  134.9918  154.2052 N   0  0  0  0  0  0  0  0  0  0  0  0
  149.3606  133.6691  154.5803 C   0  0  0  0  0  0  0  0  0  0  0  0
  150.1498  132.8605  155.4350 C   0  0  0  0  0  0  0  0  0  0  0  0
  149.7124  131.5617  155.7502 C   0  0  0  0  0  0  0  0  0  0  0  0
  148.5044  131.1103  155.1915 C   0  0  0  0  0  0  0  0  0  0  0  0
  147.7507  131.8596  154.3623 N   0  0  0  0  0  0  0  0  0  0  0  0
  148.1610  133.1149  154.0564 C   0  0  0  0  0  0  0  0  0  0  0  0
  147.3703  133.8594  153.1561 N   0  0  0  0  0  0  0  0  0  0  0  0
  147.3408  133.2954  151.8089 C   0  0  0  0  0  0  0  0  0  0  0  0
  145.9161  133.4910  151.2862 C   0  0  0  0  0  0  0  0  0  0  0  0
  145.0819  133.5213  152.5609 C   0  0  0  0  0  0  0  0  0  0  0  0
  146.0105  134.2319  153.5435 C   0  0  0  0  0  0  0  0  0  0  0  0
  150.0626  137.1369  153.3729 H   0  0  0  0  0  0  0  0  0  0  0  0
  152.5245  137.6444  154.8843 H   0  0  0  0  0  0  0  0  0  0  0  0
  151.9430  138.5968  153.5472 H   0  0  0  0  0  0  0  0  0  0  0  0
  150.1271  138.5865  155.8896 H   0  0  0  0  0  0  0  0  0  0  0  0
  152.2390  138.6416  157.1848 H   0  0  0  0  0  0  0  0  0  0  0  0
  152.8672  139.9271  156.1728 H   0  0  0  0  0  0  0  0  0  0  0  0
  152.1988  140.3586  159.3151 H   0  0  0  0  0  0  0  0  0  0  0  0
  153.0575  141.3506  158.1329 H   0  0  0  0  0  0  0  0  0  0  0  0
  150.6524  142.1148  159.7763 H   0  0  0  0  0  0  0  0  0  0  0  0
  151.9460  143.1403  159.1562 H   0  0  0  0  0  0  0  0  0  0  0  0
  149.3437  142.4676  157.9160 H   0  0  0  0  0  0  0  0  0  0  0  0
  150.5046  143.6663  157.3369 H   0  0  0  0  0  0  0  0  0  0  0  0
  151.7644  142.0559  156.1513 H   0  0  0  0  0  0  0  0  0  0  0  0
  148.9799  140.8017  155.9654 H   0  0  0  0  0  0  0  0  0  0  0  0
  149.6211  142.0606  154.9185 H   0  0  0  0  0  0  0  0  0  0  0  0
  149.1457  135.4229  153.5096 H   0  0  0  0  0  0  0  0  0  0  0  0
  151.0874  133.2033  155.8441 H   0  0  0  0  0  0  0  0  0  0  0  0
  150.2925  130.9250  156.4015 H   0  0  0  0  0  0  0  0  0  0  0  0
  148.1372  130.1183  155.4087 H   0  0  0  0  0  0  0  0  0  0  0  0
  148.0708  133.7841  151.1635 H   0  0  0  0  0  0  0  0  0  0  0  0
  147.5823  132.2312  151.8390 H   0  0  0  0  0  0  0  0  0  0  0  0
  145.8379  134.4500  150.7718 H   0  0  0  0  0  0  0  0  0  0  0  0
  145.6082  132.7083  150.5924 H   0  0  0  0  0  0  0  0  0  0  0  0
  144.1254  134.0298  152.4360 H   0  0  0  0  0  0  0  0  0  0  0  0
  144.8860  132.5039  152.9028 H   0  0  0  0  0  0  0  0  0  0  0  0
  145.7580  134.0044  154.5792 H   0  0  0  0  0  0  0  0  0  0  0  0
  145.9180  135.3121  153.4259 H   0  0  0  0  0  0  0  0  0  0  0  0
  1  2  2  0  0  0  0
  2  3  1  0  0  0  0
  2 14  1  0  0  0  0
  3  4  1  0  0  0  0
  3 26  1  0  0  0  0
  4  5  1  0  0  0  0
  4 27  1  0  0  0  0
  4 28  1  0  0  0  0
  5 13  1  0  0  0  0
  5  6  1  0  0  0  0
  5 29  1  0  0  0  0
  6  7  1  0  0  0  0
  6 30  1  0  0  0  0
  6 31  1  0  0  0  0
  7 11  1  0  0  0  0
  7  8  1  0  0  0  0
  8  9  1  0  0  0  0
  8 32  1  0  0  0  0
  8 33  1  0  0  0  0
  9 10  1  0  0  0  0
  9 34  1  0  0  0  0
  9 35  1  0  0  0  0
 10 11  1  0  0  0  0
 10 36  1  0  0  0  0
 10 37  1  0  0  0  0
 11 12  1  0  0  0  0
 11 38  1  0  0  0  0
 12 13  1  0  0  0  0
 12 39  1  0  0  0  0
 12 40  1  0  0  0  0
 14 15  1  0  0  0  0
 14 41  1  0  0  0  0
 15 20  1  0  0  0  0
 15 16  2  0  0  0  0
 16 17  1  0  0  0  0
 16 42  1  0  0  0  0
 17 18  2  0  0  0  0
 17 43  1  0  0  0  0
 18 19  1  0  0  0  0
 18 44  1  0  0  0  0
 19 20  2  0  0  0  0
 20 21  1  0  0  0  0
 21 25  1  0  0  0  0
 21 22  1  0  0  0  0
 22 23  1  0  0  0  0
 22 45  1  0  0  0  0
 22 46  1  0  0  0  0
 23 24  1  0  0  0  0
 23 47  1  0  0  0  0
 23 48  1  0  0  0  0
 24 25  1  0  0  0  0
 24 49  1  0  0  0  0
 24 50  1  0  0  0  0
 25 51  1  0  0  0  0
 25 52  1  0  0  0  0
M  END
> <s_m_source_file>
AV-unprocessed.smi

> <i_m_source_file_index>
1830

> <i_lp_mmshare_version>
43012

> <i_f3d_flags>
0

> <s_epik_input>
W0NIMl0xW0NIMl1bQ0gyXVtDQEhdKE4xMilbQ0gyXU9bQ0BASF0oW0NIMl0yKVtDSDJdW05IXUMoPU8pW05IXWMzW2NIXVtjSF1bY0hdbmMzTjRbQ0gyXVtDSDJdW0NIMl1bQ0gyXTQ=

> <s_epik_cmdline>
J2VwaWtfcHl0aG9uJywgJy1waCcsICc3LjAnLCAnLXRuJywgJzgnLCAnLW1hJywgJzIwMCcsICctbWV0YWxfYmluZGluZycsICctaW1hZScsICc8aW5maWxlLm1hZT4nLCAnLW9tYWUnLCAnPG91dGZpbGUubWFlPic=

> <r_lp_tautomer_probability>
1

> <r_epik_Ionization_Penalty>
1.16487

> <r_epik_Ionization_Penalty_Charging>
0

> <r_epik_Ionization_Penalty_Neutral>
1.16487

> <r_epik_State_Penalty>
1.21807

> <r_epik_Charging_Adjusted_Penalty>
1.21807

> <i_epik_Tot_Q>
0

> <i_epik_Tot_abs_Q>
0

> <r_epik_Metal_State_Penalty>
1.19922

> <b_epik_Metal_Only>
0

> <s_lp_Force_Field>
OPLS_2005

> <r_lp_Energy>
78.4181

> <b_lp_Chiralities_Consistent>
1

> <s_lp_Variant>
AV-unprocessed.smi:1830-12

> <Gold.Version>
5.8.1

> <Gold.Id.Protein>
6NUR|6NUR_protein|mol2

> <Gold.PLP.Fitness>
49.2838

> <Gold.PLP.PLP>
-39.5187

> <Gold.PLP.part.hbond>
-5.5333

> <Gold.PLP.part.metal>
0.0000

> <Gold.PLP.part.buried>
-2.6524

> <Gold.PLP.part.nonpolar>
-31.9500

> <Gold.PLP.part.repulsive>
0.7274

> <Gold.PLP.ligand.clash>
0.0000

> <Gold.PLP.ligand.torsion>
0.8755

> <Gold.PLP.Chemscore.Hbond>
3.7960

> <Gold.PLP.Chemscore.CHOScore>
0.0000

> <Gold.PLP.Chemscore.Metal>
0.0000

> <Gold.Chemscore.Hbonds>
donor molecule, donor type, donor heavy atom, donor atom, acceptor molecule, acceptor atom, score
      L1  H     3    26       P1  7948  0.83
      L1  H    14    41       P1  7948  0.96
      P1  H  7989  7998       L1    13  1.00
      P1  H 10752 10764       L1     1  0.95

> <Gold.PLP.Chemscore.Internal.Correction>
0.1281

> <Gold.Rescore>
     Score         DG    S(hbond)    S(metal)    S(lipo)     H(rot)  DE(clash)    DE(int)     intcor
     19.15     -21.69       2.57        0.00      95.28       1.37       0.39       2.15       ----

> <Gold.Chemscore.Fitness>
19.1474

> <Gold.Chemscore.DG>
-21.6879

> <Gold.Chemscore.ZeroCoef>
-5.4800

> <Gold.Chemscore.Hbond>
2.5684

> <Gold.Chemscore.Metal>
0.0000

> <Gold.Chemscore.Lipo>
95.2849

> <Gold.Chemscore.Internal_Hbond>
0.0000

> <Gold.Chemscore.DEClash>
0.3915

> <Gold.Chemscore.DEInternal>
2.1490

> <Gold.Chemscore.Rot>
1.3746

> <Gold.Chemscore.Internal.Correction>
   9.000000E+99

> <Gold.Chemscore.Hbonds>
donor molecule, donor type, donor heavy atom, donor atom, acceptor molecule, acceptor atom, score
      L1  H     3    26       P1  7948  0.17
      L1  H    14    41       P1  7948  0.46
      P1  H  7989  7998       L1    13  0.83
      P1  H 10752 10764       L1     1  0.21

> <Gold.Chemscore.Hbond.Weighted>
-8.5784

> <Gold.Chemscore.Metal.Weighted>
-0.0000

> <Gold.Chemscore.Lipo.Weighted>
-11.1483

> <Gold.Chemscore.Internal_Hbond.Weighted>
0.0000

> <Gold.Chemscore.DEClash.Weighted>
0.3915

> <Gold.Chemscore.DEInternal.Weighted>
2.1490

> <Gold.Chemscore.Rot.Weighted>
3.5189

> <Gold.Chemscore.Internal.Correction.Weighted>
   9.000000E+99

> <Gold.Protein.RotatedTorsions>
[ 6907 6896 6895 6894 ] final  141.29 input  -60.11 | X-H torsion
[ 7974 7965 7964 7962 ] final  111.26 input  175.53 | X-H torsion
[ 8008 7997 7996 7995 ] final -133.15 input   59.86 | X-H torsion
[ 10167 10162 10161 10158 ] final -171.90 input  -65.29 | X-H torsion
[ 10718 10713 10712 10709 ] final -112.39 input   66.30 | X-H torsion
[ 10763 10752 10751 10750 ] final  -49.19 input  -60.55 | X-H torsion
[ 11005 11000 10999 10996 ] final    9.45 input  -57.11 | X-H torsion

> <Gold.Protein.ActiveResidues>
 VAL166  LYS551  ARG553  GLY616  TRP617  ASP618  TYR619  PRO620  LYS621  CYS622 
 ASP623  PHE694  ASN695  SER759  ASP760  ASP761  ALA762  ILE779  LEU786  VAL792 
 PHE793  MET794  SER795  GLU796  ALA797  LYS798  CYS799  TRP800  GLU811  SER814 

> <Gold.Protein.RotatedAtoms>
  152.2327  133.5071  159.5224 H   0  0  0  0  0  0  0  0  0  0  0  0  # atno 6907 bound_to 6896
  150.7042  134.1194  159.4038 H   0  0  0  0  0  0  0  0  0  0  0  0  # atno 6908 bound_to 6896
  151.9116  135.0336  160.0565 H   0  0  0  0  0  0  0  0  0  0  0  0  # atno 6909 bound_to 6896
  145.2445  139.2765  143.4100 H   0  0  0  0  0  0  0  0  0  0  0  0  # atno 7974 bound_to 7965
  155.3407  140.0472  157.3045 H   0  0  0  0  0  0  0  0  0  0  0  0  # atno 8008 bound_to 7997
  154.5279  140.2247  155.8822 H   0  0  0  0  0  0  0  0  0  0  0  0  # atno 8009 bound_to 7997
  156.1758  140.3085  155.9063 H   0  0  0  0  0  0  0  0  0  0  0  0  # atno 8010 bound_to 7997
  139.5775  144.1498  152.1471 H   0  0  0  0  0  0  0  0  0  0  0  0  # atno 10167 bound_to 10162
  156.0703  130.5917  150.8502 H   0  0  0  0  0  0  0  0  0  0  0  0  # atno 10718 bound_to 10713
  154.0901  135.6578  153.4851 H   0  0  0  0  0  0  0  0  0  0  0  0  # atno 10763 bound_to 10752
  153.0325  135.5200  154.7389 H   0  0  0  0  0  0  0  0  0  0  0  0  # atno 10764 bound_to 10752
  154.6510  135.3001  154.9955 H   0  0  0  0  0  0  0  0  0  0  0  0  # atno 10765 bound_to 10752
  140.5256  134.0516  155.7858 H   0  0  0  0  0  0  0  0  0  0  0  0  # atno 11005 bound_to 11000
  146.3319  140.2818  142.8610 LP  0  0  0  0  0  0  0  0  0  0  0  0  # atno 17320 bound_to 7965
  144.9559  140.8226  143.5543 LP  0  0  0  0  0  0  0  0  0  0  0  0  # atno 17321 bound_to 7965
  140.1044  144.5511  150.6967 LP  0  0  0  0  0  0  0  0  0  0  0  0  # atno 17342 bound_to 10162
  140.7057  143.2466  151.4734 LP  0  0  0  0  0  0  0  0  0  0  0  0  # atno 17343 bound_to 10162
  157.5770  131.0946  150.9331 LP  0  0  0  0  0  0  0  0  0  0  0  0  # atno 17370 bound_to 10713
  156.9535  130.5428  149.5283 LP  0  0  0  0  0  0  0  0  0  0  0  0  # atno 17371 bound_to 10713
  141.1310  133.9302  157.2536 LP  0  0  0  0  0  0  0  0  0  0  0  0  # atno 17394 bound_to 11000
  139.9582  135.0160  156.9187 LP  0  0  0  0  0  0  0  0  0  0  0  0  # atno 17395 bound_to 11000

$$$$
