AV-unprocessed.smi:2149|AV-procd|sdf|8753|dock7
  -GOLD-   2272011533D 1   1.00000     0.00000
 Structure written by MMmdl.
 42 43  0  0  0  0  0  0  0  0  1 V2000
  157.1484  134.5244  160.0356 C   0  0  0  0  0  0  0  0  0  0  0  0
  155.5557  134.4524  160.9549 S   0  0  0  0  0  0  0  0  0  0  0  0
  154.4699  134.6119  159.9751 O   0  0  0  0  0  0  0  0  0  0  0  0
  155.5689  133.2885  161.8537 O   0  0  0  0  0  0  0  0  0  0  0  0
  155.5991  135.8814  161.9378 N   0  0  0  0  0  0  0  0  0  0  0  0
  154.8163  135.8708  163.1904 C   0  0  0  0  0  0  0  0  0  0  0  0
  155.2564  136.9964  164.1402 C   0  0  0  0  0  0  0  0  0  0  0  0
  155.2000  138.3598  163.4457 C   0  0  0  0  0  0  0  0  0  0  0  0
  156.0754  138.3213  162.1832 C   0  0  2  0  0  0  0  0  0  0  0  0
  156.0604  139.6753  161.4609 C   0  0  0  0  0  0  0  0  0  0  0  0
  157.0779  140.3672  161.4149 O   0  0  0  0  0  0  0  0  0  0  0  0
  154.8962  140.0406  160.9018 N   0  0  0  0  0  0  0  0  0  0  0  0
  154.6655  141.2828  160.1739 C   0  0  0  0  0  0  0  0  0  0  0  0
  153.1845  141.4520  159.7965 C   0  0  0  0  0  0  0  0  0  0  0  0
  152.7270  142.8948  159.9027 C   0  0  0  0  0  0  0  0  0  0  0  0
  152.3990  143.6330  158.7453 C   0  0  0  0  0  0  0  0  0  0  0  0
  151.9877  144.9715  158.8973 C   0  0  0  0  0  0  0  0  0  0  0  0
  151.9220  145.5178  160.1936 C   0  0  0  0  0  0  0  0  0  0  0  0
  152.2717  144.6976  161.2850 C   0  0  0  0  0  0  0  0  0  0  0  0
  152.6675  143.4134  161.1500 N   0  0  0  0  0  0  0  0  0  0  0  0
  155.6111  137.1869  161.2449 C   0  0  0  0  0  0  0  0  0  0  0  0
  157.1813  133.7105  159.3118 H   0  0  0  0  0  0  0  0  0  0  0  0
  157.9849  134.4197  160.7249 H   0  0  0  0  0  0  0  0  0  0  0  0
  157.2229  135.4765  159.5109 H   0  0  0  0  0  0  0  0  0  0  0  0
  153.7582  135.9751  162.9464 H   0  0  0  0  0  0  0  0  0  0  0  0
  154.9294  134.9107  163.6914 H   0  0  0  0  0  0  0  0  0  0  0  0
  154.6208  137.0039  165.0259 H   0  0  0  0  0  0  0  0  0  0  0  0
  156.2714  136.8039  164.4907 H   0  0  0  0  0  0  0  0  0  0  0  0
  154.1666  138.5994  163.1897 H   0  0  0  0  0  0  0  0  0  0  0  0
  155.5446  139.1381  164.1279 H   0  0  0  0  0  0  0  0  0  0  0  0
  157.1023  138.1079  162.4870 H   0  0  0  0  0  0  0  0  0  0  0  0
  154.1116  139.4107  160.9881 H   0  0  0  0  0  0  0  0  0  0  0  0
  155.0133  142.1340  160.7620 H   0  0  0  0  0  0  0  0  0  0  0  0
  155.2760  141.2595  159.2708 H   0  0  0  0  0  0  0  0  0  0  0  0
  153.0167  141.0977  158.7784 H   0  0  0  0  0  0  0  0  0  0  0  0
  152.5571  140.8356  160.4419 H   0  0  0  0  0  0  0  0  0  0  0  0
  152.4618  143.1869  157.7635 H   0  0  0  0  0  0  0  0  0  0  0  0
  151.7287  145.5683  158.0351 H   0  0  0  0  0  0  0  0  0  0  0  0
  151.6116  146.5405  160.3480 H   0  0  0  0  0  0  0  0  0  0  0  0
  152.2335  145.0836  162.2931 H   0  0  0  0  0  0  0  0  0  0  0  0
  156.2792  137.1388  160.3849 H   0  0  0  0  0  0  0  0  0  0  0  0
  154.6107  137.3841  160.8558 H   0  0  0  0  0  0  0  0  0  0  0  0
  1  2  1  0  0  0  0
  1 22  1  0  0  0  0
  1 23  1  0  0  0  0
  1 24  1  0  0  0  0
  2  3  2  0  0  0  0
  2  4  2  0  0  0  0
  2  5  1  0  0  0  0
  5 21  1  0  0  0  0
  5  6  1  0  0  0  0
  6  7  1  0  0  0  0
  6 25  1  0  0  0  0
  6 26  1  0  0  0  0
  7  8  1  0  0  0  0
  7 27  1  0  0  0  0
  7 28  1  0  0  0  0
  8  9  1  0  0  0  0
  8 29  1  0  0  0  0
  8 30  1  0  0  0  0
  9 10  1  0  0  0  0
  9 21  1  0  0  0  0
  9 31  1  0  0  0  0
 10 11  2  0  0  0  0
 10 12  1  0  0  0  0
 12 13  1  0  0  0  0
 12 32  1  0  0  0  0
 13 14  1  0  0  0  0
 13 33  1  0  0  0  0
 13 34  1  0  0  0  0
 14 15  1  0  0  0  0
 14 35  1  0  0  0  0
 14 36  1  0  0  0  0
 15 20  1  0  0  0  0
 15 16  2  0  0  0  0
 16 17  1  0  0  0  0
 16 37  1  0  0  0  0
 17 18  2  0  0  0  0
 17 38  1  0  0  0  0
 18 19  1  0  0  0  0
 18 39  1  0  0  0  0
 19 20  2  0  0  0  0
 19 40  1  0  0  0  0
 21 41  1  0  0  0  0
 21 42  1  0  0  0  0
M  END
> <s_m_source_file>
AV-unprocessed.smi

> <i_m_source_file_index>
2149

> <i_lp_mmshare_version>
43012

> <i_f3d_flags>
0

> <s_epik_input>
W0NIM11TKD1PKSg9TylOMVtDSDJdW0NIMl1bQ0gyXVtDQEhdKFtDSDJdMSlDKD1PKVtOSF1bQ0gyXVtDSDJdYzJbY0hdW2NIXVtjSF1bY0hdbjI=

> <s_epik_cmdline>
J2VwaWtfcHl0aG9uJywgJy1waCcsICc3LjAnLCAnLXRuJywgJzgnLCAnLW1hJywgJzIwMCcsICctbWV0YWxfYmluZGluZycsICctaW1hZScsICc8aW5maWxlLm1hZT4nLCAnLW9tYWUnLCAnPG91dGZpbGUubWFlPic=

> <r_epik_Ionization_Penalty>
0.0273806

> <r_epik_Ionization_Penalty_Charging>
0

> <r_epik_Ionization_Penalty_Neutral>
0.0273806

> <r_epik_State_Penalty>
0.0224071

> <r_epik_Charging_Adjusted_Penalty>
0.0224071

> <i_epik_Tot_Q>
0

> <i_epik_Tot_abs_Q>
0

> <r_epik_Metal_State_Penalty>
0.0214134

> <b_epik_Metal_Only>
0

> <s_lp_Force_Field>
OPLS_2005

> <r_lp_Energy>
5.16122

> <b_lp_Chiralities_Consistent>
1

> <s_lp_Variant>
AV-unprocessed.smi:2149-2

> <Gold.Version>
5.8.1

> <Gold.Id.Protein>
6NUR|6NUR_protein|mol2

> <Gold.PLP.Fitness>
43.2426

> <Gold.PLP.PLP>
-41.4432

> <Gold.PLP.part.hbond>
-2.0000

> <Gold.PLP.part.metal>
0.0000

> <Gold.PLP.part.buried>
-5.2945

> <Gold.PLP.part.nonpolar>
-34.3726

> <Gold.PLP.part.repulsive>
0.0943

> <Gold.PLP.ligand.clash>
0.0000

> <Gold.PLP.ligand.torsion>
0.9942

> <Gold.PLP.Chemscore.Hbond>
1.0000

> <Gold.PLP.Chemscore.CHOScore>
0.0000

> <Gold.PLP.Chemscore.Metal>
0.0000

> <Gold.Chemscore.Hbonds>
donor molecule, donor type, donor heavy atom, donor atom, acceptor molecule, acceptor atom, score
      P1  H  6896  6908       L1     3  1.00

> <Gold.PLP.Chemscore.Internal.Correction>
0.7878

> <Gold.Rescore>
     Score         DG    S(hbond)    S(metal)    S(lipo)     H(rot)  DE(clash)    DE(int)     intcor
     15.53     -16.64       0.94        0.00     108.88       1.84       0.34       0.77       ----

> <Gold.Chemscore.Fitness>
15.5333

> <Gold.Chemscore.DG>
-16.6434

> <Gold.Chemscore.ZeroCoef>
-5.4800

> <Gold.Chemscore.Hbond>
0.9399

> <Gold.Chemscore.Metal>
0.0000

> <Gold.Chemscore.Lipo>
108.8838

> <Gold.Chemscore.Internal_Hbond>
0.0000

> <Gold.Chemscore.DEClash>
0.3449

> <Gold.Chemscore.DEInternal>
0.7652

> <Gold.Chemscore.Rot>
1.8419

> <Gold.Chemscore.Internal.Correction>
   9.000000E+99

> <Gold.Chemscore.Hbonds>
donor molecule, donor type, donor heavy atom, donor atom, acceptor molecule, acceptor atom, score
      P1  H  6896  6908       L1     3  0.98

> <Gold.Chemscore.Hbond.Weighted>
-3.1393

> <Gold.Chemscore.Metal.Weighted>
-0.0000

> <Gold.Chemscore.Lipo.Weighted>
-12.7394

> <Gold.Chemscore.Internal_Hbond.Weighted>
0.0000

> <Gold.Chemscore.DEClash.Weighted>
0.3449

> <Gold.Chemscore.DEInternal.Weighted>
0.7652

> <Gold.Chemscore.Rot.Weighted>
4.7153

> <Gold.Chemscore.Internal.Correction.Weighted>
   9.000000E+99

> <Gold.Protein.RotatedTorsions>
[ 6907 6896 6895 6894 ] final  -52.97 input  -60.11 | X-H torsion
[ 7974 7965 7964 7962 ] final -130.95 input  175.53 | X-H torsion
[ 8008 7997 7996 7995 ] final  -20.47 input   59.86 | X-H torsion
[ 10167 10162 10161 10158 ] final  115.52 input  -65.29 | X-H torsion
[ 10718 10713 10712 10709 ] final   43.24 input   66.30 | X-H torsion
[ 10763 10752 10751 10750 ] final   75.71 input  -60.55 | X-H torsion
[ 11005 11000 10999 10996 ] final   31.85 input  -57.11 | X-H torsion

> <Gold.Protein.ActiveResidues>
 VAL166  LYS551  ARG553  GLY616  TRP617  ASP618  TYR619  PRO620  LYS621  CYS622 
 ASP623  PHE694  ASN695  SER759  ASP760  ASP761  ALA762  ILE779  LEU786  VAL792 
 PHE793  MET794  SER795  GLU796  ALA797  LYS798  CYS799  TRP800  GLU811  SER814 

> <Gold.Protein.RotatedAtoms>
  150.8469  134.7781  159.6977 H   0  0  0  0  0  0  0  0  0  0  0  0  # atno 6907 bound_to 6896
  152.4543  134.5321  159.9824 H   0  0  0  0  0  0  0  0  0  0  0  0  # atno 6908 bound_to 6896
  151.5450  133.3388  159.2978 H   0  0  0  0  0  0  0  0  0  0  0  0  # atno 6909 bound_to 6896
  144.9426  140.7256  143.4837 H   0  0  0  0  0  0  0  0  0  0  0  0  # atno 7974 bound_to 7965
  154.4768  140.2061  155.9860 H   0  0  0  0  0  0  0  0  0  0  0  0  # atno 8008 bound_to 7997
  156.1101  140.3230  155.8031 H   0  0  0  0  0  0  0  0  0  0  0  0  # atno 8009 bound_to 7997
  155.4649  140.0527  157.2977 H   0  0  0  0  0  0  0  0  0  0  0  0  # atno 8010 bound_to 7997
  139.6311  144.7115  151.2430 H   0  0  0  0  0  0  0  0  0  0  0  0  # atno 10167 bound_to 10162
  157.4137  130.7929  149.7453 H   0  0  0  0  0  0  0  0  0  0  0  0  # atno 10718 bound_to 10713
  153.0673  135.4978  154.8229 H   0  0  0  0  0  0  0  0  0  0  0  0  # atno 10763 bound_to 10752
  154.6973  135.2995  154.9396 H   0  0  0  0  0  0  0  0  0  0  0  0  # atno 10764 bound_to 10752
  154.0131  135.6752  153.4819 H   0  0  0  0  0  0  0  0  0  0  0  0  # atno 10765 bound_to 10752
  140.2796  134.2988  155.7804 H   0  0  0  0  0  0  0  0  0  0  0  0  # atno 11005 bound_to 11000
  145.2967  139.1864  143.4711 LP  0  0  0  0  0  0  0  0  0  0  0  0  # atno 17320 bound_to 7965
  146.3291  140.2952  142.8617 LP  0  0  0  0  0  0  0  0  0  0  0  0  # atno 17321 bound_to 7965
  140.7440  143.6478  150.8276 LP  0  0  0  0  0  0  0  0  0  0  0  0  # atno 17342 bound_to 10162
  140.0103  143.5650  152.2841 LP  0  0  0  0  0  0  0  0  0  0  0  0  # atno 17343 bound_to 10162
  155.9858  130.3979  150.3241 LP  0  0  0  0  0  0  0  0  0  0  0  0  # atno 17370 bound_to 10713
  157.1382  131.0289  151.2939 LP  0  0  0  0  0  0  0  0  0  0  0  0  # atno 17371 bound_to 10713
  141.2165  133.7517  156.9459 LP  0  0  0  0  0  0  0  0  0  0  0  0  # atno 17394 bound_to 11000
  140.1296  134.9364  157.2319 LP  0  0  0  0  0  0  0  0  0  0  0  0  # atno 17395 bound_to 11000

$$$$
