AV-unprocessed.smi:37|AV-procd|sdf|315|dock6
  -GOLD-   2262016133D 1   1.00000     0.00000
 Structure written by MMmdl.
 44 45  0  0  0  0  0  0  0  0  1 V2000
  153.0543  141.5747  159.8525 C   0  0  0  0  0  0  0  0  0  0  0  0
  152.3509  141.5716  158.4886 C   0  0  0  0  0  0  0  0  0  0  0  0
  152.1937  140.1610  157.9251 C   0  0  0  0  0  0  0  0  0  0  0  0
  152.7329  139.8280  156.8695 O   0  0  0  0  0  0  0  0  0  0  0  0
  151.4233  139.3781  158.6968 O   0  0  0  0  0  0  0  0  0  0  0  0
  151.1784  138.0367  158.3093 C   0  0  0  0  0  0  0  0  0  0  0  0
  150.0043  137.4798  159.1310 C   0  0  2  0  0  0  0  0  0  0  0  0
  150.0551  136.0514  159.0352 O   0  0  0  0  0  0  0  0  0  0  0  0
  148.8305  135.5247  158.6187 C   0  0  1  0  0  0  0  0  0  0  0  0
  147.9994  135.1048  159.8197 N   0  0  0  0  0  0  0  0  0  0  0  0
  147.9791  135.8215  161.0121 C   0  0  0  0  0  0  0  0  0  0  0  0
  147.2513  135.4420  162.0893 C   0  0  0  0  0  0  0  0  0  0  0  0
  147.2818  136.1886  163.2063 F   0  0  0  0  0  0  0  0  0  0  0  0
  146.4418  134.2281  162.0532 C   0  0  0  0  0  0  0  0  0  0  0  0
  145.7456  133.8070  162.9747 O   0  0  0  0  0  0  0  0  0  0  0  0
  146.5100  133.5269  160.8467 N   0  0  0  0  0  0  0  0  0  0  0  0
  147.2589  133.9041  159.7311 C   0  0  0  0  0  0  0  0  0  0  0  0
  147.2561  133.1990  158.7229 O   0  0  0  0  0  0  0  0  0  0  0  0
  148.1435  136.6499  157.8438 C   0  0  2  0  0  0  0  0  0  0  0  0
  148.8311  136.6653  155.9700 Br  0  0  0  0  0  0  0  0  0  0  0  0
  148.6090  137.8765  158.6153 C   0  0  2  0  0  0  0  0  0  0  0  0
  148.5993  139.0628  157.8298 O   0  0  0  0  0  0  0  0  0  0  0  0
  147.4408  139.5612  157.3621 C   0  0  0  0  0  0  0  0  0  0  0  0
  146.3219  139.0804  157.5416 O   0  0  0  0  0  0  0  0  0  0  0  0
  147.6398  140.8342  156.5436 C   0  0  0  0  0  0  0  0  0  0  0  0
  149.1187  141.2346  156.4524 C   0  0  0  0  0  0  0  0  0  0  0  0
  145.9758  132.6729  160.7788 H   0  0  0  0  0  0  0  0  0  0  0  0
  153.2107  142.5953  160.2016 H   0  0  0  0  0  0  0  0  0  0  0  0
  154.0308  141.0921  159.7966 H   0  0  0  0  0  0  0  0  0  0  0  0
  152.4639  141.0551  160.6080 H   0  0  0  0  0  0  0  0  0  0  0  0
  151.3658  142.0307  158.5742 H   0  0  0  0  0  0  0  0  0  0  0  0
  152.9197  142.1722  157.7784 H   0  0  0  0  0  0  0  0  0  0  0  0
  150.9380  138.0244  157.2456 H   0  0  0  0  0  0  0  0  0  0  0  0
  152.0725  137.4294  158.4527 H   0  0  0  0  0  0  0  0  0  0  0  0
  150.1086  137.7967  160.1692 H   0  0  0  0  0  0  0  0  0  0  0  0
  148.9820  134.6083  158.0451 H   0  0  0  0  0  0  0  0  0  0  0  0
  148.5628  136.7223  161.1176 H   0  0  0  0  0  0  0  0  0  0  0  0
  147.0595  136.5452  157.8043 H   0  0  0  0  0  0  0  0  0  0  0  0
  147.9661  138.0006  159.4885 H   0  0  0  0  0  0  0  0  0  0  0  0
  147.2356  140.6777  155.5432 H   0  0  0  0  0  0  0  0  0  0  0  0
  147.0613  141.6394  156.9970 H   0  0  0  0  0  0  0  0  0  0  0  0
  149.2384  142.1231  155.8327 H   0  0  0  0  0  0  0  0  0  0  0  0
  149.7185  140.4388  156.0092 H   0  0  0  0  0  0  0  0  0  0  0  0
  149.5336  141.4608  157.4353 H   0  0  0  0  0  0  0  0  0  0  0  0
  1  2  1  0  0  0  0
  1 28  1  0  0  0  0
  1 29  1  0  0  0  0
  1 30  1  0  0  0  0
  2  3  1  0  0  0  0
  2 31  1  0  0  0  0
  2 32  1  0  0  0  0
  3  4  2  0  0  0  0
  3  5  1  0  0  0  0
  5  6  1  0  0  0  0
  6  7  1  0  0  0  0
  6 33  1  0  0  0  0
  6 34  1  0  0  0  0
  7 21  1  0  0  0  0
  7  8  1  0  0  0  0
  7 35  1  0  0  0  0
  8  9  1  0  0  0  0
  9 10  1  0  0  0  0
  9 19  1  0  0  0  0
  9 36  1  0  0  0  0
 10 17  1  0  0  0  0
 10 11  1  0  0  0  0
 11 12  2  0  0  0  0
 11 37  1  0  0  0  0
 12 13  1  0  0  0  0
 12 14  1  0  0  0  0
 14 15  2  0  0  0  0
 14 16  1  0  0  0  0
 16 27  1  0  0  0  0
 16 17  1  0  0  0  0
 17 18  2  0  0  0  0
 19 20  1  0  0  0  0
 19 21  1  0  0  0  0
 19 38  1  0  0  0  0
 21 22  1  0  0  0  0
 21 39  1  0  0  0  0
 22 23  1  0  0  0  0
 23 24  2  0  0  0  0
 23 25  1  0  0  0  0
 25 26  1  0  0  0  0
 25 40  1  0  0  0  0
 25 41  1  0  0  0  0
 26 42  1  0  0  0  0
 26 43  1  0  0  0  0
 26 44  1  0  0  0  0
M  END
> <s_m_source_file>
AV-unprocessed.smi

> <i_m_source_file_index>
37

> <i_lp_mmshare_version>
43012

> <i_f3d_flags>
0

> <s_epik_input>
W0NIM11bQ0gyXUMoPU8pT1tDSDJdW0NAQEhdMU9bQ0BASF0objJbY0hdYyhGKWMoPU8pW25IXWMyPU8pW0NAQEhdKEJyKVtDQEhdMU9DKD1PKVtDSDJdW0NIM10=

> <s_epik_cmdline>
J2VwaWtfcHl0aG9uJywgJy1waCcsICc3LjAnLCAnLXRuJywgJzgnLCAnLW1hJywgJzIwMCcsICctbWV0YWxfYmluZGluZycsICctaW1hZScsICc8aW5maWxlLm1hZT4nLCAnLW9tYWUnLCAnPG91dGZpbGUubWFlPic=

> <r_lp_tautomer_probability>
0.999537

> <r_epik_Ionization_Penalty>
0.104106

> <r_epik_Ionization_Penalty_Charging>
0.104106

> <r_epik_Ionization_Penalty_Neutral>
3.94675e-16

> <r_epik_State_Penalty>
0.0940182

> <r_epik_Charging_Adjusted_Penalty>
0.198124

> <i_epik_Tot_Q>
0

> <i_epik_Tot_abs_Q>
0

> <r_epik_Metal_State_Penalty>
3.05314

> <b_epik_Metal_Only>
0

> <s_epik_Chemistry_Notes>
This compound has an ester and may undergo hydrolysis at high or low pH. This compound contains an acetal/aminal-like group ( X-CH(R)-Y where X, Y are N, S, or O) that may be acid/base labile, releasing an aldehyde.

> <s_lp_Force_Field>
OPLS_2005

> <r_lp_Energy>
24.3846

> <b_lp_Chiralities_Consistent>
1

> <s_lp_Variant>
AV-unprocessed.smi:37-13

> <Gold.Version>
5.8.1

> <Gold.Id.Protein>
6NUR|6NUR_protein|mol2

> <Gold.PLP.Fitness>
37.8846

> <Gold.PLP.PLP>
-33.2883

> <Gold.PLP.part.hbond>
-3.0000

> <Gold.PLP.part.metal>
0.0000

> <Gold.PLP.part.buried>
-6.3218

> <Gold.PLP.part.nonpolar>
-24.8902

> <Gold.PLP.part.repulsive>
0.0445

> <Gold.PLP.ligand.clash>
0.0000

> <Gold.PLP.ligand.torsion>
0.7966

> <Gold.PLP.Chemscore.Hbond>
2.0000

> <Gold.PLP.Chemscore.CHOScore>
0.0000

> <Gold.PLP.Chemscore.Metal>
0.0000

> <Gold.Chemscore.Hbonds>
donor molecule, donor type, donor heavy atom, donor atom, acceptor molecule, acceptor atom, score
      P1  H  6896  6909       L1     8  0.83
      P1  H  7997  8009       L1     4  1.00

> <Gold.PLP.Chemscore.Internal.Correction>
0.1896

> <Gold.Rescore>
     Score         DG    S(hbond)    S(metal)    S(lipo)     H(rot)  DE(clash)    DE(int)     intcor
      8.62      -9.43       1.96        0.00      50.60       3.33       0.09       0.72       ----

> <Gold.Chemscore.Fitness>
8.6170

> <Gold.Chemscore.DG>
-9.4295

> <Gold.Chemscore.ZeroCoef>
-5.4800

> <Gold.Chemscore.Hbond>
1.9627

> <Gold.Chemscore.Metal>
0.0000

> <Gold.Chemscore.Lipo>
50.5965

> <Gold.Chemscore.Internal_Hbond>
0.0000

> <Gold.Chemscore.DEClash>
0.0945

> <Gold.Chemscore.DEInternal>
0.7181

> <Gold.Chemscore.Rot>
3.3303

> <Gold.Chemscore.Internal.Correction>
   9.000000E+99

> <Gold.Chemscore.Hbonds>
donor molecule, donor type, donor heavy atom, donor atom, acceptor molecule, acceptor atom, score
      P1  H  6896  6909       L1     8  0.14
      P1  H  7997  8009       L1     4  0.98

> <Gold.Chemscore.Hbond.Weighted>
-6.5553

> <Gold.Chemscore.Metal.Weighted>
-0.0000

> <Gold.Chemscore.Lipo.Weighted>
-5.9198

> <Gold.Chemscore.Internal_Hbond.Weighted>
0.0000

> <Gold.Chemscore.DEClash.Weighted>
0.0945

> <Gold.Chemscore.DEInternal.Weighted>
0.7181

> <Gold.Chemscore.Rot.Weighted>
8.5256

> <Gold.Chemscore.Internal.Correction.Weighted>
   9.000000E+99

> <Gold.Protein.RotatedTorsions>
[ 6907 6896 6895 6894 ] final   53.00 input  -60.11 | X-H torsion
[ 7974 7965 7964 7962 ] final  -89.24 input  175.53 | X-H torsion
[ 8008 7997 7996 7995 ] final -161.13 input   59.86 | X-H torsion
[ 10167 10162 10161 10158 ] final -168.88 input  -65.29 | X-H torsion
[ 10718 10713 10712 10709 ] final -152.86 input   66.30 | X-H torsion
[ 10763 10752 10751 10750 ] final  -33.91 input  -60.55 | X-H torsion
[ 11005 11000 10999 10996 ] final  119.92 input  -57.11 | X-H torsion

> <Gold.Protein.ActiveResidues>
 VAL166  LYS551  ARG553  GLY616  TRP617  ASP618  TYR619  PRO620  LYS621  CYS622 
 ASP623  PHE694  ASN695  SER759  ASP760  ASP761  ALA762  ILE779  LEU786  VAL792 
 PHE793  MET794  SER795  GLU796  ALA797  LYS798  CYS799  TRP800  GLU811  SER814 

> <Gold.Protein.RotatedAtoms>
  152.3292  134.7281  160.0293 H   0  0  0  0  0  0  0  0  0  0  0  0  # atno 6907 bound_to 6896
  151.7704  133.3335  159.3451 H   0  0  0  0  0  0  0  0  0  0  0  0  # atno 6908 bound_to 6896
  150.7413  134.5956  159.6054 H   0  0  0  0  0  0  0  0  0  0  0  0  # atno 6909 bound_to 6896
  145.4425  140.9559  143.2067 H   0  0  0  0  0  0  0  0  0  0  0  0  # atno 7974 bound_to 7965
  155.7877  140.0874  157.2026 H   0  0  0  0  0  0  0  0  0  0  0  0  # atno 8008 bound_to 7997
  154.3987  140.1496  156.3184 H   0  0  0  0  0  0  0  0  0  0  0  0  # atno 8009 bound_to 7997
  155.8590  140.3431  155.5746 H   0  0  0  0  0  0  0  0  0  0  0  0  # atno 8010 bound_to 7997
  139.5957  144.1116  152.1687 H   0  0  0  0  0  0  0  0  0  0  0  0  # atno 10167 bound_to 10162
  156.4781  130.8290  151.2518 H   0  0  0  0  0  0  0  0  0  0  0  0  # atno 10718 bound_to 10713
  153.8381  135.6860  153.4806 H   0  0  0  0  0  0  0  0  0  0  0  0  # atno 10763 bound_to 10752
  153.1470  135.4633  154.9579 H   0  0  0  0  0  0  0  0  0  0  0  0  # atno 10764 bound_to 10752
  154.7857  135.3284  154.7837 H   0  0  0  0  0  0  0  0  0  0  0  0  # atno 10765 bound_to 10752
  139.9165  134.9631  156.7729 H   0  0  0  0  0  0  0  0  0  0  0  0  # atno 11005 bound_to 11000
  144.8112  139.5958  143.7028 LP  0  0  0  0  0  0  0  0  0  0  0  0  # atno 17320 bound_to 7965
  146.2548  139.6279  142.9402 LP  0  0  0  0  0  0  0  0  0  0  0  0  # atno 17321 bound_to 7965
  140.0701  144.5786  150.7198 LP  0  0  0  0  0  0  0  0  0  0  0  0  # atno 17342 bound_to 10162
  140.7210  143.2589  151.4278 LP  0  0  0  0  0  0  0  0  0  0  0  0  # atno 17343 bound_to 10162
  157.7485  131.0054  150.3111 LP  0  0  0  0  0  0  0  0  0  0  0  0  # atno 17370 bound_to 10713
  156.3549  130.3837  149.7298 LP  0  0  0  0  0  0  0  0  0  0  0  0  # atno 17371 bound_to 10713
  140.6606  133.9648  155.7803 LP  0  0  0  0  0  0  0  0  0  0  0  0  # atno 17394 bound_to 11000
  141.0646  134.0296  157.3612 LP  0  0  0  0  0  0  0  0  0  0  0  0  # atno 17395 bound_to 11000

$$$$
