AV-unprocessed.smi:674|AV-procd|sdf|3300|dock7
  -GOLD-   22720 0263D 1   1.00000     0.00000
 Structure written by MMmdl.
 47 48  0  0  0  0  0  0  0  0  1 V2000
  151.3270  141.8321  157.6899 C   0  0  0  0  0  0  0  0  0  0  0  0
  150.7309  142.1044  156.3041 C   0  0  0  0  0  0  0  0  0  0  0  0
  150.4354  140.8344  155.5564 C   0  0  0  0  0  0  0  0  0  0  0  0
  149.1669  140.3504  155.1230 C   0  0  0  0  0  0  0  0  0  0  0  0
  149.4866  139.1700  154.5095 C   0  0  0  0  0  0  0  0  0  0  0  0
  148.6610  138.2707  153.9110 N   0  0  0  0  0  0  0  0  0  0  0  0
  147.3526  138.0542  154.1307 C   0  0  0  0  0  0  0  0  0  0  0  0
  146.6429  138.6888  154.9115 O   0  0  0  0  0  0  0  0  0  0  0  0
  146.8984  137.0413  153.3807 N   0  0  0  0  0  0  0  0  0  0  0  0
  145.5222  136.5573  153.3972 C   0  0  1  0  0  0  0  0  0  0  0  0
  144.8608  136.6162  152.0220 C   0  0  0  0  0  0  0  0  0  0  0  0
  144.1526  135.3035  152.4050 C   0  0  1  0  0  0  0  0  0  0  0  0
  142.7471  135.3969  153.0189 C   0  0  0  0  0  0  0  0  0  0  0  0
  144.1550  134.3533  151.3383 O   0  0  0  0  0  0  0  0  0  0  0  0
  143.7941  133.0211  151.6794 C   0  0  0  0  0  0  0  0  0  0  0  0
  145.3697  135.0151  153.3434 C   0  0  0  0  0  0  0  0  0  0  0  0
  146.5354  134.2225  152.7182 C   0  0  0  0  0  0  0  0  0  0  0  0
  145.0642  134.3268  154.6777 C   0  0  0  0  0  0  0  0  0  0  0  0
  150.8501  138.9833  154.5881 N   0  0  0  0  0  0  0  0  0  0  0  0
  151.6765  137.8990  154.0935 C   0  0  0  0  0  0  0  0  0  0  0  0
  151.4316  140.0162  155.2344 N   0  0  0  0  0  0  0  0  0  0  0  0
  151.5239  142.7648  158.2186 H   0  0  0  0  0  0  0  0  0  0  0  0
  152.2687  141.2876  157.6145 H   0  0  0  0  0  0  0  0  0  0  0  0
  150.6454  141.2401  158.3013 H   0  0  0  0  0  0  0  0  0  0  0  0
  149.8170  142.6889  156.4143 H   0  0  0  0  0  0  0  0  0  0  0  0
  151.4180  142.7261  155.7287 H   0  0  0  0  0  0  0  0  0  0  0  0
  148.1980  140.8079  155.2544 H   0  0  0  0  0  0  0  0  0  0  0  0
  149.0977  137.6821  153.2172 H   0  0  0  0  0  0  0  0  0  0  0  0
  147.5441  136.5696  152.7647 H   0  0  0  0  0  0  0  0  0  0  0  0
  144.9006  137.0224  154.1654 H   0  0  0  0  0  0  0  0  0  0  0  0
  144.1965  137.4687  151.8771 H   0  0  0  0  0  0  0  0  0  0  0  0
  145.5619  136.5112  151.1917 H   0  0  0  0  0  0  0  0  0  0  0  0
  142.7371  136.0078  153.9213 H   0  0  0  0  0  0  0  0  0  0  0  0
  142.3662  134.4114  153.2876 H   0  0  0  0  0  0  0  0  0  0  0  0
  142.0332  135.8527  152.3335 H   0  0  0  0  0  0  0  0  0  0  0  0
  143.7532  132.4199  150.7713 H   0  0  0  0  0  0  0  0  0  0  0  0
  142.8126  132.9719  152.1506 H   0  0  0  0  0  0  0  0  0  0  0  0
  144.5250  132.5567  152.3408 H   0  0  0  0  0  0  0  0  0  0  0  0
  146.2638  133.1794  152.5533 H   0  0  0  0  0  0  0  0  0  0  0  0
  147.4167  134.2270  153.3603 H   0  0  0  0  0  0  0  0  0  0  0  0
  146.8422  134.6280  151.7540 H   0  0  0  0  0  0  0  0  0  0  0  0
  144.6594  133.3259  154.5257 H   0  0  0  0  0  0  0  0  0  0  0  0
  144.3389  134.8852  155.2691 H   0  0  0  0  0  0  0  0  0  0  0  0
  145.9589  134.2298  155.2937 H   0  0  0  0  0  0  0  0  0  0  0  0
  151.0591  137.0655  153.7589 H   0  0  0  0  0  0  0  0  0  0  0  0
  152.3380  137.5472  154.8859 H   0  0  0  0  0  0  0  0  0  0  0  0
  152.2787  138.2518  153.2559 H   0  0  0  0  0  0  0  0  0  0  0  0
  1  2  1  0  0  0  0
  1 22  1  0  0  0  0
  1 23  1  0  0  0  0
  1 24  1  0  0  0  0
  2  3  1  0  0  0  0
  2 25  1  0  0  0  0
  2 26  1  0  0  0  0
  3 21  2  0  0  0  0
  3  4  1  0  0  0  0
  4  5  2  0  0  0  0
  4 27  1  0  0  0  0
  5  6  1  0  0  0  0
  5 19  1  0  0  0  0
  6  7  1  0  0  0  0
  6 28  1  0  0  0  0
  7  8  2  0  0  0  0
  7  9  1  0  0  0  0
  9 10  1  0  0  0  0
  9 29  1  0  0  0  0
 10 16  1  0  0  0  0
 10 11  1  0  0  0  0
 10 30  1  0  0  0  0
 11 12  1  0  0  0  0
 11 31  1  0  0  0  0
 11 32  1  0  0  0  0
 12 13  1  0  0  0  0
 12 14  1  0  0  0  0
 12 16  1  0  0  0  0
 13 33  1  0  0  0  0
 13 34  1  0  0  0  0
 13 35  1  0  0  0  0
 14 15  1  0  0  0  0
 15 36  1  0  0  0  0
 15 37  1  0  0  0  0
 15 38  1  0  0  0  0
 16 17  1  0  0  0  0
 16 18  1  0  0  0  0
 17 39  1  0  0  0  0
 17 40  1  0  0  0  0
 17 41  1  0  0  0  0
 18 42  1  0  0  0  0
 18 43  1  0  0  0  0
 18 44  1  0  0  0  0
 19 20  1  0  0  0  0
 19 21  1  0  0  0  0
 20 45  1  0  0  0  0
 20 46  1  0  0  0  0
 20 47  1  0  0  0  0
M  END
> <s_m_source_file>
AV-unprocessed.smi

> <i_m_source_file_index>
674

> <i_lp_mmshare_version>
43012

> <i_f3d_flags>
0

> <s_epik_input>
W0NIM11bQ0gyXWMxW2NIXWMobihuMSlbQ0gzXSlbTkhdQyg9TylbTkhdW0NAQEhdKEMyKFtDSDNdKVtDSDNdKVtDSDJdW0NAQF0yKFtDSDNdKU9bQ0gzXQ==

> <s_epik_cmdline>
J2VwaWtfcHl0aG9uJywgJy1waCcsICc3LjAnLCAnLXRuJywgJzgnLCAnLW1hJywgJzIwMCcsICctbWV0YWxfYmluZGluZycsICctaW1hZScsICc8aW5maWxlLm1hZT4nLCAnLW9tYWUnLCAnPG91dGZpbGUubWFlPic=

> <r_lp_tautomer_probability>
1

> <r_epik_Ionization_Penalty>
0.000101626

> <r_epik_Ionization_Penalty_Charging>
0

> <r_epik_Ionization_Penalty_Neutral>
0.000101626

> <r_epik_State_Penalty>
-0

> <r_epik_Charging_Adjusted_Penalty>
0

> <i_epik_Tot_Q>
0

> <i_epik_Tot_abs_Q>
0

> <r_epik_Metal_State_Penalty>
-0

> <b_epik_Metal_Only>
0

> <s_lp_Force_Field>
OPLS_2005

> <r_lp_Energy>
22.8754

> <b_lp_Chiralities_Consistent>
1

> <s_lp_Variant>
AV-unprocessed.smi:674-2

> <Gold.Version>
5.8.1

> <Gold.Id.Protein>
6NUR|6NUR_protein|mol2

> <Gold.PLP.Fitness>
38.1912

> <Gold.PLP.PLP>
-31.8010

> <Gold.PLP.part.hbond>
-3.0000

> <Gold.PLP.part.metal>
0.0000

> <Gold.PLP.part.buried>
-4.1808

> <Gold.PLP.part.nonpolar>
-24.8940

> <Gold.PLP.part.repulsive>
0.2685

> <Gold.PLP.ligand.clash>
0.0000

> <Gold.PLP.ligand.torsion>
0.3566

> <Gold.PLP.Chemscore.Hbond>
2.2400

> <Gold.PLP.Chemscore.CHOScore>
0.0000

> <Gold.PLP.Chemscore.Metal>
0.0000

> <Gold.Chemscore.Hbonds>
donor molecule, donor type, donor heavy atom, donor atom, acceptor molecule, acceptor atom, score
      L1  H     6    28       P1  7948  1.00
      L1  H     9    29       P1  7948  1.00
      P1  H  7989  7998       L1    21  0.24

> <Gold.PLP.Chemscore.Internal.Correction>
0.3833

> <Gold.Rescore>
     Score         DG    S(hbond)    S(metal)    S(lipo)     H(rot)  DE(clash)    DE(int)     intcor
     15.14     -16.32       1.95        0.00      66.80       1.37       0.00       1.18       ----

> <Gold.Chemscore.Fitness>
15.1387

> <Gold.Chemscore.DG>
-16.3203

> <Gold.Chemscore.ZeroCoef>
-5.4800

> <Gold.Chemscore.Hbond>
1.9523

> <Gold.Chemscore.Metal>
0.0000

> <Gold.Chemscore.Lipo>
66.8038

> <Gold.Chemscore.Internal_Hbond>
0.0000

> <Gold.Chemscore.DEClash>
0.0038

> <Gold.Chemscore.DEInternal>
1.1779

> <Gold.Chemscore.Rot>
1.3658

> <Gold.Chemscore.Internal.Correction>
   9.000000E+99

> <Gold.Chemscore.Hbonds>
donor molecule, donor type, donor heavy atom, donor atom, acceptor molecule, acceptor atom, score
      L1  H     6    28       P1  7948  0.94
      L1  H     9    29       P1  7948  1.00

> <Gold.Chemscore.Hbond.Weighted>
-6.5206

> <Gold.Chemscore.Metal.Weighted>
-0.0000

> <Gold.Chemscore.Lipo.Weighted>
-7.8160

> <Gold.Chemscore.Internal_Hbond.Weighted>
0.0000

> <Gold.Chemscore.DEClash.Weighted>
0.0038

> <Gold.Chemscore.DEInternal.Weighted>
1.1779

> <Gold.Chemscore.Rot.Weighted>
3.4963

> <Gold.Chemscore.Internal.Correction.Weighted>
   9.000000E+99

> <Gold.Protein.RotatedTorsions>
[ 6907 6896 6895 6894 ] final -177.66 input  -60.11 | X-H torsion
[ 7974 7965 7964 7962 ] final  160.08 input  175.53 | X-H torsion
[ 8008 7997 7996 7995 ] final  103.33 input   59.86 | X-H torsion
[ 10167 10162 10161 10158 ] final  155.83 input  -65.29 | X-H torsion
[ 10718 10713 10712 10709 ] final  129.15 input   66.30 | X-H torsion
[ 10763 10752 10751 10750 ] final -131.47 input  -60.55 | X-H torsion
[ 11005 11000 10999 10996 ] final   47.74 input  -57.11 | X-H torsion

> <Gold.Protein.ActiveResidues>
 VAL166  LYS551  ARG553  GLY616  TRP617  ASP618  TYR619  PRO620  LYS621  CYS622 
 ASP623  PHE694  ASN695  SER759  ASP760  ASP761  ALA762  ILE779  LEU786  VAL792 
 PHE793  MET794  SER795  GLU796  ALA797  LYS798  CYS799  TRP800  GLU811  SER814 

> <Gold.Protein.RotatedAtoms>
  151.6246  133.3336  159.3095 H   0  0  0  0  0  0  0  0  0  0  0  0  # atno 6907 bound_to 6896
  150.8088  134.7234  159.6680 H   0  0  0  0  0  0  0  0  0  0  0  0  # atno 6908 bound_to 6896
  152.4184  134.6004  160.0050 H   0  0  0  0  0  0  0  0  0  0  0  0  # atno 6909 bound_to 6896
  144.7756  139.7707  143.6280 H   0  0  0  0  0  0  0  0  0  0  0  0  # atno 7974 bound_to 7965
  156.1474  140.3166  155.8592 H   0  0  0  0  0  0  0  0  0  0  0  0  # atno 8008 bound_to 7997
  155.4037  140.0501  157.3052 H   0  0  0  0  0  0  0  0  0  0  0  0  # atno 8009 bound_to 7997
  154.5028  140.2136  155.9323 H   0  0  0  0  0  0  0  0  0  0  0  0  # atno 8010 bound_to 7997
  139.4821  144.5064  151.8091 H   0  0  0  0  0  0  0  0  0  0  0  0  # atno 10167 bound_to 10162
  157.5180  131.1098  150.9195 H   0  0  0  0  0  0  0  0  0  0  0  0  # atno 10718 bound_to 10713
  154.8750  135.3829  154.4251 H   0  0  0  0  0  0  0  0  0  0  0  0  # atno 10763 bound_to 10752
  153.4950  135.7030  153.5868 H   0  0  0  0  0  0  0  0  0  0  0  0  # atno 10764 bound_to 10752
  153.4225  135.3898  155.2087 H   0  0  0  0  0  0  0  0  0  0  0  0  # atno 10765 bound_to 10752
  140.1252  134.4777  155.8565 H   0  0  0  0  0  0  0  0  0  0  0  0  # atno 11005 bound_to 11000
  146.1932  139.5184  142.9791 LP  0  0  0  0  0  0  0  0  0  0  0  0  # atno 17320 bound_to 7965
  145.6197  141.0325  143.1921 LP  0  0  0  0  0  0  0  0  0  0  0  0  # atno 17321 bound_to 7965
  140.4562  144.1786  150.5902 LP  0  0  0  0  0  0  0  0  0  0  0  0  # atno 17342 bound_to 10162
  140.4533  143.2478  151.9319 LP  0  0  0  0  0  0  0  0  0  0  0  0  # atno 17343 bound_to 10162
  156.9815  130.5528  149.5296 LP  0  0  0  0  0  0  0  0  0  0  0  0  # atno 17370 bound_to 10713
  156.0334  130.5423  150.8592 LP  0  0  0  0  0  0  0  0  0  0  0  0  # atno 17371 bound_to 10713
  141.2160  133.6775  156.6965 LP  0  0  0  0  0  0  0  0  0  0  0  0  # atno 17394 bound_to 11000
  140.2913  134.8238  157.4019 LP  0  0  0  0  0  0  0  0  0  0  0  0  # atno 17395 bound_to 11000

$$$$
