AV-unprocessed.smi:1399|AV-procd|sdf|5685|dock2
  -GOLD-   22720 5313D 1   1.00000     0.00000
 Structure written by MMmdl.
 37 38  0  0  0  0  0  0  0  0  3 V2000
  152.9870  139.1254  156.6681 N   0  5  0  0  0  0  0  0  0  0  0  0
  151.9816  139.3359  155.7968 C   0  0  0  0  0  0  0  0  0  0  0  0
  151.4960  140.4101  155.4483 O   0  0  0  0  0  0  0  0  0  0  0  0
  151.4465  138.0334  155.1922 C   0  0  0  0  0  0  0  0  0  0  0  0
  149.9809  137.9307  155.4058 N   0  3  2  0  0  0  0  0  0  0  0  0
  149.5368  136.5250  155.5850 C   0  0  0  0  0  0  0  0  0  0  0  0
  148.0428  136.4536  155.9465 C   0  0  0  0  0  0  0  0  0  0  0  0
  147.1614  137.1737  154.9067 C   0  0  2  0  0  0  0  0  0  0  0  0
  147.1143  136.4503  153.6362 N   0  0  0  0  0  0  0  0  0  0  0  0
  146.0156  135.9053  153.0943 C   0  0  0  0  0  0  0  0  0  0  0  0
  144.9057  135.9418  153.6249 O   0  0  0  0  0  0  0  0  0  0  0  0
  146.2910  135.3225  151.9165 N   0  0  0  0  0  0  0  0  0  0  0  0
  145.3834  134.6535  151.0580 C   0  0  0  0  0  0  0  0  0  0  0  0
  145.4266  133.3166  150.5636 C   0  0  0  0  0  0  0  0  0  0  0  0
  144.3871  133.0610  149.7818 N   0  0  0  0  0  0  0  0  0  0  0  0
  143.6837  134.2156  149.7727 N   0  0  0  0  0  0  0  0  0  0  0  0
  144.2542  135.2102  150.5359 C   0  0  0  0  0  0  0  0  0  0  0  0
  147.6828  138.6047  154.6910 C   0  0  0  0  0  0  0  0  0  0  0  0
  149.1858  138.6284  154.3591 C   0  0  0  0  0  0  0  0  0  0  0  0
  142.8266  134.3078  149.2462 H   0  0  0  0  0  0  0  0  0  0  0  0
  152.8421  139.3509  157.6596 H   0  0  0  0  0  0  0  0  0  0  0  0
  151.6860  137.9283  154.1317 H   0  0  0  0  0  0  0  0  0  0  0  0
  151.9556  137.2165  155.7057 H   0  0  0  0  0  0  0  0  0  0  0  0
  149.7353  135.9592  154.6735 H   0  0  0  0  0  0  0  0  0  0  0  0
  150.1166  136.0555  156.3806 H   0  0  0  0  0  0  0  0  0  0  0  0
  147.7343  135.4138  156.0600 H   0  0  0  0  0  0  0  0  0  0  0  0
  147.8926  136.9177  156.9220 H   0  0  0  0  0  0  0  0  0  0  0  0
  146.1428  137.2399  155.2931 H   0  0  0  0  0  0  0  0  0  0  0  0
  147.9812  136.3726  153.1247 H   0  0  0  0  0  0  0  0  0  0  0  0
  147.2482  135.3626  151.5988 H   0  0  0  0  0  0  0  0  0  0  0  0
  146.1532  132.5364  150.7345 H   0  0  0  0  0  0  0  0  0  0  0  0
  143.8191  136.1939  150.6354 H   0  0  0  0  0  0  0  0  0  0  0  0
  147.1162  139.0998  153.9013 H   0  0  0  0  0  0  0  0  0  0  0  0
  147.5113  139.1882  155.5967 H   0  0  0  0  0  0  0  0  0  0  0  0
  149.5083  139.6659  154.2690 H   0  0  0  0  0  0  0  0  0  0  0  0
  149.3676  138.1606  153.3904 H   0  0  0  0  0  0  0  0  0  0  0  0
  149.7972  138.4030  156.2799 H   0  0  0  0  0  0  0  0  0  0  0  0
  1  2  1  0  0  0  0
  1 21  1  0  0  0  0
  2  3  2  0  0  0  0
  2  4  1  0  0  0  0
  4  5  1  0  0  0  0
  4 22  1  0  0  0  0
  4 23  1  0  0  0  0
  5 19  1  0  0  0  0
  5  6  1  0  0  0  0
  5 37  1  0  0  0  0
  6  7  1  0  0  0  0
  6 24  1  0  0  0  0
  6 25  1  0  0  0  0
  7  8  1  0  0  0  0
  7 26  1  0  0  0  0
  7 27  1  0  0  0  0
  8  9  1  0  0  0  0
  8 18  1  0  0  0  0
  8 28  1  0  0  0  0
  9 10  1  0  0  0  0
  9 29  1  0  0  0  0
 10 11  2  0  0  0  0
 10 12  1  0  0  0  0
 12 13  1  0  0  0  0
 12 30  1  0  0  0  0
 13 17  2  0  0  0  0
 13 14  1  0  0  0  0
 14 15  2  0  0  0  0
 14 31  1  0  0  0  0
 15 16  1  0  0  0  0
 16 20  1  0  0  0  0
 16 17  1  0  0  0  0
 17 32  1  0  0  0  0
 18 19  1  0  0  0  0
 18 33  1  0  0  0  0
 18 34  1  0  0  0  0
 19 35  1  0  0  0  0
 19 36  1  0  0  0  0
M  CHG  1   1  -1
M  CHG  1   5   1
M  END
> <s_m_source_file>
AV-unprocessed.smi

> <i_m_source_file_index>
1399

> <i_lp_mmshare_version>
43012

> <i_f3d_flags>
0

> <s_epik_input>
W05IMl1DKD1PKVtDSDJdTjFbQ0gyXVtDSDJdW0NIXShbQ0gyXVtDSDJdMSlbTkhdQyg9TylbTkhdYzJbY0hdbltuSF1bY0hdMg==

> <s_epik_cmdline>
J2VwaWtfcHl0aG9uJywgJy1waCcsICc3LjAnLCAnLXRuJywgJzgnLCAnLW1hJywgJzIwMCcsICctbWV0YWxfYmluZGluZycsICctaW1hZScsICc8aW5maWxlLm1hZT4nLCAnLW9tYWUnLCAnPG91dGZpbGUubWFlPic=

> <r_lp_tautomer_probability>
0.5

> <r_epik_Ionization_Penalty>
5.72885

> <r_epik_Ionization_Penalty_Charging>
5.7288

> <r_epik_Ionization_Penalty_Neutral>
4.21226e-05

> <r_epik_State_Penalty>
6.54882

> <r_epik_Charging_Adjusted_Penalty>
12.2776

> <i_epik_Tot_Q>
0

> <i_epik_Tot_abs_Q>
2

> <r_epik_Metal_State_Penalty>
2.51297

> <b_epik_Metal_Only>
1

> <s_lp_Force_Field>
OPLS_2005

> <r_lp_Energy>
10.897

> <b_lp_Chiralities_Consistent>
1

> <s_lp_Variant>
AV-unprocessed.smi:1399-5

> <Gold.Version>
5.8.1

> <Gold.Id.Protein>
6NUR|6NUR_protein|mol2

> <Gold.PLP.Fitness>
42.1325

> <Gold.PLP.PLP>
-24.3918

> <Gold.PLP.part.hbond>
-5.1811

> <Gold.PLP.part.metal>
0.0000

> <Gold.PLP.part.buried>
-4.8219

> <Gold.PLP.part.nonpolar>
-15.6630

> <Gold.PLP.part.repulsive>
0.3872

> <Gold.PLP.ligand.clash>
0.0000

> <Gold.PLP.ligand.torsion>
0.9169

> <Gold.PLP.Chemscore.Hbond>
5.5120

> <Gold.PLP.Chemscore.CHOScore>
1.0000

> <Gold.PLP.Chemscore.Metal>
0.0000

> <Gold.Chemscore.Hbonds>
donor molecule, donor type, donor heavy atom, donor atom, acceptor molecule, acceptor atom, score
      L1  H     9    29       P1  7948  1.00
      L1  H    12    30       P1  7948  0.93
      L1  H    16    20       P1 10186  0.80
      P1  H  7989  7998       L1     3  0.86
      P1  H  7997  8009       L1     1  2.00
      L1  C    17    32       P1 10171  1.00

> <Gold.PLP.Chemscore.Internal.Correction>
0.0386

> <Gold.Rescore>
     Score         DG    S(hbond)    S(metal)    S(lipo)     H(rot)  DE(clash)    DE(int)     intcor
     18.54     -19.39       4.44        0.00      37.17       2.06       0.02       0.83       ----

> <Gold.Chemscore.Fitness>
18.5362

> <Gold.Chemscore.DG>
-19.3872

> <Gold.Chemscore.ZeroCoef>
-5.4800

> <Gold.Chemscore.Hbond>
4.4393

> <Gold.Chemscore.Metal>
0.0000

> <Gold.Chemscore.Lipo>
37.1740

> <Gold.Chemscore.Internal_Hbond>
0.0000

> <Gold.Chemscore.DEClash>
0.0241

> <Gold.Chemscore.DEInternal>
0.8269

> <Gold.Chemscore.Rot>
2.0584

> <Gold.Chemscore.Internal.Correction>
   9.000000E+99

> <Gold.Chemscore.Hbonds>
donor molecule, donor type, donor heavy atom, donor atom, acceptor molecule, acceptor atom, score
      L1  H     9    29       P1  7948  0.98
      L1  H    12    30       P1  7948  0.86
      L1  H    16    20       P1 10186  0.80
      P1  H  7989  7998       L1     3  0.77
      P1  H  7997  8009       L1     1  0.28

> <Gold.Chemscore.Hbond.Weighted>
-14.8273

> <Gold.Chemscore.Metal.Weighted>
-0.0000

> <Gold.Chemscore.Lipo.Weighted>
-4.3494

> <Gold.Chemscore.Internal_Hbond.Weighted>
0.0000

> <Gold.Chemscore.DEClash.Weighted>
0.0241

> <Gold.Chemscore.DEInternal.Weighted>
0.8269

> <Gold.Chemscore.Rot.Weighted>
5.2695

> <Gold.Chemscore.Internal.Correction.Weighted>
   9.000000E+99

> <Gold.Protein.RotatedTorsions>
[ 6907 6896 6895 6894 ] final  -58.14 input  -60.11 | X-H torsion
[ 7974 7965 7964 7962 ] final   64.01 input  175.53 | X-H torsion
[ 8008 7997 7996 7995 ] final -155.89 input   59.86 | X-H torsion
[ 10167 10162 10161 10158 ] final   97.67 input  -65.29 | X-H torsion
[ 10718 10713 10712 10709 ] final -150.19 input   66.30 | X-H torsion
[ 10763 10752 10751 10750 ] final  -83.99 input  -60.55 | X-H torsion
[ 11005 11000 10999 10996 ] final -118.46 input  -57.11 | X-H torsion

> <Gold.Protein.ActiveResidues>
 VAL166  LYS551  ARG553  GLY616  TRP617  ASP618  TYR619  PRO620  LYS621  CYS622 
 ASP623  PHE694  ASN695  SER759  ASP760  ASP761  ALA762  ILE779  LEU786  VAL792 
 PHE793  MET794  SER795  GLU796  ALA797  LYS798  CYS799  TRP800  GLU811  SER814 

> <Gold.Protein.RotatedAtoms>
  150.8030  134.7137  159.6618 H   0  0  0  0  0  0  0  0  0  0  0  0  # atno 6907 bound_to 6896
  152.4148  134.6057  160.0022 H   0  0  0  0  0  0  0  0  0  0  0  0  # atno 6908 bound_to 6896
  151.6289  133.3296  159.3140 H   0  0  0  0  0  0  0  0  0  0  0  0  # atno 6909 bound_to 6896
  145.8551  139.3279  143.0852 H   0  0  0  0  0  0  0  0  0  0  0  0  # atno 7974 bound_to 7965
  155.7088  140.0776  157.2380 H   0  0  0  0  0  0  0  0  0  0  0  0  # atno 8008 bound_to 7997
  154.4061  140.1634  156.2327 H   0  0  0  0  0  0  0  0  0  0  0  0  # atno 8009 bound_to 7997
  155.9301  140.3392  155.6245 H   0  0  0  0  0  0  0  0  0  0  0  0  # atno 8010 bound_to 7997
  139.7779  144.6899  151.0063 H   0  0  0  0  0  0  0  0  0  0  0  0  # atno 10167 bound_to 10162
  156.4429  130.8130  151.2360 H   0  0  0  0  0  0  0  0  0  0  0  0  # atno 10718 bound_to 10713
  154.5943  135.5536  153.7309 H   0  0  0  0  0  0  0  0  0  0  0  0  # atno 10763 bound_to 10752
  153.0129  135.6351  154.1805 H   0  0  0  0  0  0  0  0  0  0  0  0  # atno 10764 bound_to 10752
  154.1746  135.2890  155.3050 H   0  0  0  0  0  0  0  0  0  0  0  0  # atno 10765 bound_to 10752
  141.0284  134.0019  157.3180 H   0  0  0  0  0  0  0  0  0  0  0  0  # atno 11005 bound_to 11000
  145.9312  140.9047  143.0355 LP  0  0  0  0  0  0  0  0  0  0  0  0  # atno 17320 bound_to 7965
  144.6728  140.1421  143.7436 LP  0  0  0  0  0  0  0  0  0  0  0  0  # atno 17321 bound_to 7965
  140.7817  143.4515  151.0406 LP  0  0  0  0  0  0  0  0  0  0  0  0  # atno 17342 bound_to 10162
  139.8196  143.7838  152.3176 LP  0  0  0  0  0  0  0  0  0  0  0  0  # atno 17343 bound_to 10162
  157.7505  131.0162  150.3537 LP  0  0  0  0  0  0  0  0  0  0  0  0  # atno 17370 bound_to 10713
  156.3898  130.3896  149.7038 LP  0  0  0  0  0  0  0  0  0  0  0  0  # atno 17371 bound_to 10713
  139.9191  135.0199  156.7996 LP  0  0  0  0  0  0  0  0  0  0  0  0  # atno 17394 bound_to 11000
  140.6451  133.9783  155.7726 LP  0  0  0  0  0  0  0  0  0  0  0  0  # atno 17395 bound_to 11000

$$$$
