AV-unprocessed.smi:798|AV-procd|sdf|3780|dock8
  -GOLD-   22720 1213D 1   1.00000     0.00000
 Structure written by MMmdl.
 33 35  0  0  0  0  0  0  0  0  2 V2000
  147.9087  138.5190  158.5740 O   0  0  0  0  0  0  0  0  0  0  0  0
  148.4495  137.4896  158.1637 C   0  0  0  0  0  0  0  0  0  0  0  0
  148.3673  136.2626  158.7259 N   0  5  0  0  0  0  0  0  0  0  0  0
  148.0868  136.1402  160.0337 C   0  0  0  0  0  0  0  0  0  0  0  0
  148.0030  137.2012  160.8524 N   0  0  0  0  0  0  0  0  0  0  0  0
  147.7104  136.8561  162.1650 N   0  0  0  0  0  0  0  0  0  0  0  0
  147.5884  135.5360  162.3047 C   0  0  0  0  0  0  0  0  0  0  0  0
  147.8218  134.5948  160.8466 S   0  0  0  0  0  0  0  0  0  0  0  0
  149.1959  137.5222  157.0506 N   0  0  0  0  0  0  0  0  0  0  0  0
  149.4673  138.6999  156.2228 C   0  0  1  0  0  0  0  0  0  0  0  0
  150.1234  139.8480  157.0292 C   0  0  1  0  0  0  0  0  0  0  0  0
  151.3439  139.3476  157.8311 C   0  0  0  0  0  0  0  0  0  0  0  0
  152.3762  139.0611  156.7262 C   0  0  0  0  0  0  0  0  0  0  0  0
  151.6260  139.4641  155.4392 C   0  0  2  0  0  0  0  0  0  0  0  0
  150.8114  140.6543  155.9321 C   0  0  0  0  0  0  0  0  0  0  0  0
  150.5003  138.4623  155.0822 C   0  0  1  0  0  0  0  0  0  0  0  0
  150.9497  137.0072  154.8182 C   0  0  0  0  0  0  0  0  0  0  0  0
  151.9743  136.9767  153.8468 O   0  0  0  0  0  0  0  0  0  0  0  0
  147.3631  135.1138  163.2725 H   0  0  0  0  0  0  0  0  0  0  0  0
  149.6147  136.6538  156.7523 H   0  0  0  0  0  0  0  0  0  0  0  0
  148.5346  139.0701  155.7925 H   0  0  0  0  0  0  0  0  0  0  0  0
  149.4130  140.4137  157.6329 H   0  0  0  0  0  0  0  0  0  0  0  0
  151.7102  140.1326  158.4939 H   0  0  0  0  0  0  0  0  0  0  0  0
  151.1373  138.4751  158.4508 H   0  0  0  0  0  0  0  0  0  0  0  0
  153.2586  139.6871  156.8650 H   0  0  0  0  0  0  0  0  0  0  0  0
  152.7132  138.0255  156.7239 H   0  0  0  0  0  0  0  0  0  0  0  0
  152.2886  139.6875  154.6026 H   0  0  0  0  0  0  0  0  0  0  0  0
  150.1196  141.0484  155.1855 H   0  0  0  0  0  0  0  0  0  0  0  0
  151.4252  141.4722  156.3141 H   0  0  0  0  0  0  0  0  0  0  0  0
  150.0377  138.8131  154.1577 H   0  0  0  0  0  0  0  0  0  0  0  0
  151.2967  136.5111  155.7239 H   0  0  0  0  0  0  0  0  0  0  0  0
  150.1126  136.4201  154.4395 H   0  0  0  0  0  0  0  0  0  0  0  0
  151.5737  136.9216  152.9927 H   0  0  0  0  0  0  0  0  0  0  0  0
  1  2  2  0  0  0  0
  2  3  1  0  0  0  0
  2  9  1  0  0  0  0
  3  4  1  0  0  0  0
  4  8  1  0  0  0  0
  4  5  2  0  0  0  0
  5  6  1  0  0  0  0
  6  7  2  0  0  0  0
  7  8  1  0  0  0  0
  7 19  1  0  0  0  0
  9 10  1  0  0  0  0
  9 20  1  0  0  0  0
 10 16  1  0  0  0  0
 10 11  1  0  0  0  0
 10 21  1  0  0  0  0
 11 15  1  0  0  0  0
 11 12  1  0  0  0  0
 11 22  1  0  0  0  0
 12 13  1  0  0  0  0
 12 23  1  0  0  0  0
 12 24  1  0  0  0  0
 13 14  1  0  0  0  0
 13 25  1  0  0  0  0
 13 26  1  0  0  0  0
 14 15  1  0  0  0  0
 14 16  1  0  0  0  0
 14 27  1  0  0  0  0
 15 28  1  0  0  0  0
 15 29  1  0  0  0  0
 16 17  1  0  0  0  0
 16 30  1  0  0  0  0
 17 18  1  0  0  0  0
 17 31  1  0  0  0  0
 17 32  1  0  0  0  0
 18 33  1  0  0  0  0
M  CHG  1   3  -1
M  END
> <s_m_source_file>
AV-unprocessed.smi

> <i_m_source_file_index>
798

> <i_lp_mmshare_version>
43012

> <i_f3d_flags>
0

> <s_epik_input>
W0NIMl0xW0NIMl1bQ0BASF0oW0NIMl0yKVtDQEBIXShbQ0gyXVtPSF0pW0NAQEhdKFtDQEhdMTIpW05IXUMoPU8pW05IXWMzbm5bY0hdczM=

> <s_epik_cmdline>
J2VwaWtfcHl0aG9uJywgJy1waCcsICc3LjAnLCAnLXRuJywgJzgnLCAnLW1hJywgJzIwMCcsICctbWV0YWxfYmluZGluZycsICctaW1hZScsICc8aW5maWxlLm1hZT4nLCAnLW9tYWUnLCAnPG91dGZpbGUubWFlPic=

> <r_lp_tautomer_probability>
1

> <r_epik_Ionization_Penalty>
4.53732

> <r_epik_Ionization_Penalty_Charging>
4.48632

> <r_epik_Ionization_Penalty_Neutral>
0.0510007

> <r_epik_State_Penalty>
4.48602

> <r_epik_Charging_Adjusted_Penalty>
8.97234

> <i_epik_Tot_Q>
-1

> <i_epik_Tot_abs_Q>
1

> <r_epik_Metal_State_Penalty>
0.812492

> <b_epik_Metal_Only>
1

> <s_lp_Force_Field>
OPLS_2005

> <r_lp_Energy>
48.4262

> <b_lp_Chiralities_Consistent>
1

> <s_lp_Variant>
AV-unprocessed.smi:798-12

> <Gold.Version>
5.8.1

> <Gold.Id.Protein>
6NUR|6NUR_protein|mol2

> <Gold.PLP.Fitness>
36.7806

> <Gold.PLP.PLP>
-29.1979

> <Gold.PLP.part.hbond>
-6.1063

> <Gold.PLP.part.metal>
0.0000

> <Gold.PLP.part.buried>
-4.7218

> <Gold.PLP.part.nonpolar>
-19.3969

> <Gold.PLP.part.repulsive>
0.0000

> <Gold.PLP.ligand.clash>
0.0000

> <Gold.PLP.ligand.torsion>
0.1774

> <Gold.PLP.Chemscore.Hbond>
2.6392

> <Gold.PLP.Chemscore.CHOScore>
0.0000

> <Gold.PLP.Chemscore.Metal>
0.0000

> <Gold.Chemscore.Hbonds>
donor molecule, donor type, donor heavy atom, donor atom, acceptor molecule, acceptor atom, score
      L1  H    18    33       P1  7949  1.00
      P1  H  6934  6947       L1     5  0.60
      P1  H 10752 10765       L1    18  1.00

> <Gold.PLP.Chemscore.Internal.Correction>
0.0199

> <Gold.Rescore>
     Score         DG    S(hbond)    S(metal)    S(lipo)     H(rot)  DE(clash)    DE(int)     intcor
     10.49     -13.39       1.84        0.00      57.03       1.92       0.00       2.90       ----

> <Gold.Chemscore.Fitness>
10.4892

> <Gold.Chemscore.DG>
-13.3924

> <Gold.Chemscore.ZeroCoef>
-5.4800

> <Gold.Chemscore.Hbond>
1.8432

> <Gold.Chemscore.Metal>
0.0000

> <Gold.Chemscore.Lipo>
57.0345

> <Gold.Chemscore.Internal_Hbond>
0.0000

> <Gold.Chemscore.DEClash>
0.0000

> <Gold.Chemscore.DEInternal>
2.9032

> <Gold.Chemscore.Rot>
1.9207

> <Gold.Chemscore.Internal.Correction>
   9.000000E+99

> <Gold.Chemscore.Hbonds>
donor molecule, donor type, donor heavy atom, donor atom, acceptor molecule, acceptor atom, score
      L1  H    18    33       P1  7949  0.91
      P1  H  6934  6947       L1     5  0.08
      P1  H 10752 10765       L1    18  0.56

> <Gold.Chemscore.Hbond.Weighted>
-6.1563

> <Gold.Chemscore.Metal.Weighted>
-0.0000

> <Gold.Chemscore.Lipo.Weighted>
-6.6730

> <Gold.Chemscore.Internal_Hbond.Weighted>
0.0000

> <Gold.Chemscore.DEClash.Weighted>
0.0000

> <Gold.Chemscore.DEInternal.Weighted>
2.9032

> <Gold.Chemscore.Rot.Weighted>
4.9169

> <Gold.Chemscore.Internal.Correction.Weighted>
   9.000000E+99

> <Gold.Protein.RotatedTorsions>
[ 6907 6896 6895 6894 ] final   70.39 input  -60.11 | X-H torsion
[ 7974 7965 7964 7962 ] final   19.82 input  175.53 | X-H torsion
[ 8008 7997 7996 7995 ] final -140.91 input   59.86 | X-H torsion
[ 10167 10162 10161 10158 ] final  -50.96 input  -65.29 | X-H torsion
[ 10718 10713 10712 10709 ] final   51.90 input   66.30 | X-H torsion
[ 10763 10752 10751 10750 ] final  139.42 input  -60.55 | X-H torsion
[ 11005 11000 10999 10996 ] final   -8.32 input  -57.11 | X-H torsion

> <Gold.Protein.ActiveResidues>
 VAL166  LYS551  ARG553  GLY616  TRP617  ASP618  TYR619  PRO620  LYS621  CYS622 
 ASP623  PHE694  ASN695  SER759  ASP760  ASP761  ALA762  ILE779  LEU786  VAL792 
 PHE793  MET794  SER795  GLU796  ALA797  LYS798  CYS799  TRP800  GLU811  SER814 

> <Gold.Protein.RotatedAtoms>
  152.4746  134.4875  159.9684 H   0  0  0  0  0  0  0  0  0  0  0  0  # atno 6907 bound_to 6896
  151.4894  133.3522  159.2859 H   0  0  0  0  0  0  0  0  0  0  0  0  # atno 6908 bound_to 6896
  150.8777  134.8189  159.7263 H   0  0  0  0  0  0  0  0  0  0  0  0  # atno 6909 bound_to 6896
  146.2135  139.8258  142.8670 H   0  0  0  0  0  0  0  0  0  0  0  0  # atno 7974 bound_to 7965
  155.4691  140.0551  157.2982 H   0  0  0  0  0  0  0  0  0  0  0  0  # atno 8008 bound_to 7997
  154.4706  140.2038  155.9959 H   0  0  0  0  0  0  0  0  0  0  0  0  # atno 8009 bound_to 7997
  156.1049  140.3213  155.7996 H   0  0  0  0  0  0  0  0  0  0  0  0  # atno 8010 bound_to 7997
  140.6612  143.2638  151.4434 H   0  0  0  0  0  0  0  0  0  0  0  0  # atno 10167 bound_to 10162
  157.5024  130.8446  149.8333 H   0  0  0  0  0  0  0  0  0  0  0  0  # atno 10718 bound_to 10713
  153.9058  135.3017  155.3448 H   0  0  0  0  0  0  0  0  0  0  0  0  # atno 10763 bound_to 10752
  154.7648  135.4916  153.9536 H   0  0  0  0  0  0  0  0  0  0  0  0  # atno 10764 bound_to 10752
  153.1220  135.6784  153.9421 H   0  0  0  0  0  0  0  0  0  0  0  0  # atno 10765 bound_to 10752
  140.7222  133.8819  155.8829 H   0  0  0  0  0  0  0  0  0  0  0  0  # atno 11005 bound_to 11000
  145.3048  141.0204  143.3588 LP  0  0  0  0  0  0  0  0  0  0  0  0  # atno 17320 bound_to 7965
  144.8979  139.4688  143.6646 LP  0  0  0  0  0  0  0  0  0  0  0  0  # atno 17321 bound_to 7965
  139.5847  144.1632  152.2013 LP  0  0  0  0  0  0  0  0  0  0  0  0  # atno 17342 bound_to 10162
  140.0968  144.5574  150.7016 LP  0  0  0  0  0  0  0  0  0  0  0  0  # atno 17343 bound_to 10162
  156.0237  130.3786  150.1885 LP  0  0  0  0  0  0  0  0  0  0  0  0  # atno 17370 bound_to 10713
  157.0075  130.9941  151.3375 LP  0  0  0  0  0  0  0  0  0  0  0  0  # atno 17371 bound_to 10713
  140.9994  134.1171  157.4332 LP  0  0  0  0  0  0  0  0  0  0  0  0  # atno 17394 bound_to 11000
  139.8845  135.0064  156.6376 LP  0  0  0  0  0  0  0  0  0  0  0  0  # atno 17395 bound_to 11000

$$$$
