AV-unprocessed.smi:221|AV-procd|sdf|1687|dock1
  -GOLD-   2262020123D 1   1.00000     0.00000
 Structure written by MMmdl.
 50 53  0  0  0  0  0  0  0  0  1 V2000
  145.8016  136.5632  162.6212 N   0  0  0  0  0  0  0  0  0  0  0  0
  146.6545  136.8266  161.6262 C   0  0  0  0  0  0  0  0  0  0  0  0
  147.2448  137.9023  161.5510 O   0  0  0  0  0  0  0  0  0  0  0  0
  146.8714  135.7382  160.5542 C   0  0  1  0  0  0  0  0  0  0  0  0
  145.6410  135.3869  159.7048 C   0  0  0  0  0  0  0  0  0  0  0  0
  146.2362  134.6596  158.4933 C   0  0  1  0  0  0  0  0  0  0  0  0
  145.7232  135.1437  157.3616 F   0  0  0  0  0  0  0  0  0  0  0  0
  147.7519  134.9115  158.5691 C   0  0  0  0  0  0  0  0  0  0  0  0
  147.9582  135.9383  159.5860 N   0  0  0  0  0  0  0  0  0  0  0  0
  148.1738  137.1582  159.0276 C   0  0  0  0  0  0  0  0  0  0  0  0
  147.1806  137.8230  158.3793 N   0  0  0  0  0  0  0  0  0  0  0  0
  147.4233  139.0119  157.8196 C   0  0  0  0  0  0  0  0  0  0  0  0
  148.5661  139.7014  157.7877 N   0  0  0  0  0  0  0  0  0  0  0  0
  149.5649  139.0340  158.4334 C   0  0  0  0  0  0  0  0  0  0  0  0
  149.4543  137.7682  159.0732 C   0  0  0  0  0  0  0  0  0  0  0  0
  150.6751  137.4021  159.6252 N   0  0  0  0  0  0  0  0  0  0  0  0
  151.4652  138.3983  159.3302 C   0  0  0  0  0  0  0  0  0  0  0  0
  150.8801  139.4223  158.6202 N   0  0  0  0  0  0  0  0  0  0  0  0
  151.5300  140.6401  158.1692 C   0  0  0  0  0  0  0  0  0  0  0  0
  150.9868  141.9104  158.8689 C   0  0  2  0  0  0  0  0  0  0  0  0
  150.4191  142.9438  157.8655 C   0  0  0  0  0  0  0  0  0  0  0  0
  151.3298  143.2000  156.8161 O   0  0  0  0  0  0  0  0  0  0  0  0
  152.0369  142.5331  159.8235 C   0  0  2  0  0  0  0  0  0  0  0  0
  152.3730  141.6874  161.0396 C   0  0  0  0  0  0  0  0  0  0  0  0
  153.0111  142.7071  161.9761 C   0  0  0  0  0  0  0  0  0  0  0  0
  152.3630  143.9431  161.6985 O   0  0  0  0  0  0  0  0  0  0  0  0
  151.5926  143.8315  160.5059 C   0  0  0  0  0  0  0  0  0  0  0  0
  147.1463  134.8443  161.1170 H   0  0  0  0  0  0  0  0  0  0  0  0
  146.0170  133.5917  158.5134 H   0  0  0  0  0  0  0  0  0  0  0  0
  145.6385  137.2556  163.3376 H   0  0  0  0  0  0  0  0  0  0  0  0
  145.3241  135.6741  162.6527 H   0  0  0  0  0  0  0  0  0  0  0  0
  144.9301  134.7642  160.2486 H   0  0  0  0  0  0  0  0  0  0  0  0
  145.1121  136.2873  159.3887 H   0  0  0  0  0  0  0  0  0  0  0  0
  148.2677  134.0074  158.8949 H   0  0  0  0  0  0  0  0  0  0  0  0
  148.1679  135.1755  157.5943 H   0  0  0  0  0  0  0  0  0  0  0  0
  146.5827  139.4754  157.3248 H   0  0  0  0  0  0  0  0  0  0  0  0
  152.5040  138.4165  159.6269 H   0  0  0  0  0  0  0  0  0  0  0  0
  152.5977  140.5250  158.3552 H   0  0  0  0  0  0  0  0  0  0  0  0
  151.4151  140.7204  157.0876 H   0  0  0  0  0  0  0  0  0  0  0  0
  150.1456  141.5920  159.4867 H   0  0  0  0  0  0  0  0  0  0  0  0
  149.4790  142.5981  157.4359 H   0  0  0  0  0  0  0  0  0  0  0  0
  150.1907  143.8853  158.3646 H   0  0  0  0  0  0  0  0  0  0  0  0
  150.8609  143.6028  156.1013 H   0  0  0  0  0  0  0  0  0  0  0  0
  152.9611  142.7266  159.2763 H   0  0  0  0  0  0  0  0  0  0  0  0
  151.4637  141.2852  161.4888 H   0  0  0  0  0  0  0  0  0  0  0  0
  153.0415  140.8554  160.8167 H   0  0  0  0  0  0  0  0  0  0  0  0
  152.9105  142.4293  163.0254 H   0  0  0  0  0  0  0  0  0  0  0  0
  154.0735  142.8151  161.7537 H   0  0  0  0  0  0  0  0  0  0  0  0
  151.7302  144.7057  159.8689 H   0  0  0  0  0  0  0  0  0  0  0  0
  150.5395  143.7811  160.7860 H   0  0  0  0  0  0  0  0  0  0  0  0
  1  2  1  0  0  0  0
  1 30  1  0  0  0  0
  1 31  1  0  0  0  0
  2  3  2  0  0  0  0
  2  4  1  0  0  0  0
  4 28  1  0  0  0  0
  4  9  1  0  0  0  0
  4  5  1  0  0  0  0
  5  6  1  0  0  0  0
  5 32  1  0  0  0  0
  5 33  1  0  0  0  0
  6 29  1  0  0  0  0
  6  7  1  0  0  0  0
  6  8  1  0  0  0  0
  8  9  1  0  0  0  0
  8 34  1  0  0  0  0
  8 35  1  0  0  0  0
  9 10  1  0  0  0  0
 10 15  1  0  0  0  0
 10 11  2  0  0  0  0
 11 12  1  0  0  0  0
 12 13  2  0  0  0  0
 12 36  1  0  0  0  0
 13 14  1  0  0  0  0
 14 18  1  0  0  0  0
 14 15  2  0  0  0  0
 15 16  1  0  0  0  0
 16 17  2  0  0  0  0
 17 18  1  0  0  0  0
 17 37  1  0  0  0  0
 18 19  1  0  0  0  0
 19 20  1  0  0  0  0
 19 38  1  0  0  0  0
 19 39  1  0  0  0  0
 20 21  1  0  0  0  0
 20 23  1  0  0  0  0
 20 40  1  0  0  0  0
 21 22  1  0  0  0  0
 21 41  1  0  0  0  0
 21 42  1  0  0  0  0
 22 43  1  0  0  0  0
 23 27  1  0  0  0  0
 23 24  1  0  0  0  0
 23 44  1  0  0  0  0
 24 25  1  0  0  0  0
 24 45  1  0  0  0  0
 24 46  1  0  0  0  0
 25 26  1  0  0  0  0
 25 47  1  0  0  0  0
 25 48  1  0  0  0  0
 26 27  1  0  0  0  0
 27 49  1  0  0  0  0
 27 50  1  0  0  0  0
M  END
> <s_m_source_file>
AV-unprocessed.smi

> <i_m_source_file_index>
221

> <i_lp_mmshare_version>
43012

> <i_f3d_flags>
0

> <s_epik_input>
W05IMl1DKD1PKVtDQEBIXTFbQ0gyXVtDQEBIXShGKVtDSDJdTjFjKG5bY0hdbjIpYyhjMjMpbltjSF1uM1tDSDJdW0NASF0oW0NIMl1bT0hdKVtDQEBIXTRbQ0gyXVtDSDJdT1tDSDJdNA==

> <s_epik_cmdline>
J2VwaWtfcHl0aG9uJywgJy1waCcsICc3LjAnLCAnLXRuJywgJzgnLCAnLW1hJywgJzIwMCcsICctbWV0YWxfYmluZGluZycsICctaW1hZScsICc8aW5maWxlLm1hZT4nLCAnLW9tYWUnLCAnPG91dGZpbGUubWFlPic=

> <r_lp_tautomer_probability>
1

> <r_epik_Ionization_Penalty>
0.000818822

> <r_epik_Ionization_Penalty_Charging>
0

> <r_epik_Ionization_Penalty_Neutral>
0.000818822

> <r_epik_State_Penalty>
0.000440551

> <r_epik_Charging_Adjusted_Penalty>
0.000440551

> <i_epik_Tot_Q>
0

> <i_epik_Tot_abs_Q>
0

> <r_epik_Metal_State_Penalty>
-0

> <b_epik_Metal_Only>
0

> <s_lp_Force_Field>
OPLS_2005

> <r_lp_Energy>
55.6777

> <b_lp_Chiralities_Consistent>
1

> <s_lp_Variant>
AV-unprocessed.smi:221-2

> <Gold.Version>
5.8.1

> <Gold.Id.Protein>
6NUR|6NUR_protein|mol2

> <Gold.PLP.Fitness>
44.1703

> <Gold.PLP.PLP>
-36.5441

> <Gold.PLP.part.hbond>
-3.9035

> <Gold.PLP.part.metal>
0.0000

> <Gold.PLP.part.buried>
-6.1242

> <Gold.PLP.part.nonpolar>
-26.1205

> <Gold.PLP.part.repulsive>
0.2458

> <Gold.PLP.ligand.clash>
0.0000

> <Gold.PLP.ligand.torsion>
1.2028

> <Gold.PLP.Chemscore.Hbond>
3.1760

> <Gold.PLP.Chemscore.CHOScore>
0.0000

> <Gold.PLP.Chemscore.Metal>
0.0000

> <Gold.Chemscore.Hbonds>
donor molecule, donor type, donor heavy atom, donor atom, acceptor molecule, acceptor atom, score
      L1  H    22    43       P1  8028  0.28
      P1  H  6931  6943       L1     3  0.50
      P1  H  6934  6947       L1     3  0.28

> <Gold.PLP.Chemscore.Internal.Correction>
0.5037

> <Gold.Rescore>
     Score         DG    S(hbond)    S(metal)    S(lipo)     H(rot)  DE(clash)    DE(int)     intcor
     10.77     -13.63       2.61        0.00      76.65       3.72       0.09       2.78       ----

> <Gold.Chemscore.Fitness>
10.7672

> <Gold.Chemscore.DG>
-13.6333

> <Gold.Chemscore.ZeroCoef>
-5.4800

> <Gold.Chemscore.Hbond>
2.6076

> <Gold.Chemscore.Metal>
0.0000

> <Gold.Chemscore.Lipo>
76.6476

> <Gold.Chemscore.Internal_Hbond>
0.0000

> <Gold.Chemscore.DEClash>
0.0863

> <Gold.Chemscore.DEInternal>
2.7798

> <Gold.Chemscore.Rot>
3.7202

> <Gold.Chemscore.Internal.Correction>
   9.000000E+99

> <Gold.Chemscore.Hbonds>
donor molecule, donor type, donor heavy atom, donor atom, acceptor molecule, acceptor atom, score
      L1  H    22    43       P1  8028  0.27
      P1  H  6931  6943       L1     3  0.50
      P1  H  6934  6947       L1     3  0.27

> <Gold.Chemscore.Hbond.Weighted>
-8.7093

> <Gold.Chemscore.Metal.Weighted>
-0.0000

> <Gold.Chemscore.Lipo.Weighted>
-8.9678

> <Gold.Chemscore.Internal_Hbond.Weighted>
0.0000

> <Gold.Chemscore.DEClash.Weighted>
0.0863

> <Gold.Chemscore.DEInternal.Weighted>
2.7798

> <Gold.Chemscore.Rot.Weighted>
9.5237

> <Gold.Chemscore.Internal.Correction.Weighted>
   9.000000E+99

> <Gold.Protein.RotatedTorsions>
[ 6907 6896 6895 6894 ] final  179.07 input  -60.11 | X-H torsion
[ 7974 7965 7964 7962 ] final  148.96 input  175.53 | X-H torsion
[ 8008 7997 7996 7995 ] final    5.52 input   59.86 | X-H torsion
[ 10167 10162 10161 10158 ] final   30.33 input  -65.29 | X-H torsion
[ 10718 10713 10712 10709 ] final  109.48 input   66.30 | X-H torsion
[ 10763 10752 10751 10750 ] final -119.31 input  -60.55 | X-H torsion
[ 11005 11000 10999 10996 ] final   43.96 input  -57.11 | X-H torsion

> <Gold.Protein.ActiveResidues>
 VAL166  LYS551  ARG553  GLY616  TRP617  ASP618  TYR619  PRO620  LYS621  CYS622 
 ASP623  PHE694  ASN695  SER759  ASP760  ASP761  ALA762  ILE779  LEU786  VAL792 
 PHE793  MET794  SER795  GLU796  ALA797  LYS798  CYS799  TRP800  GLU811  SER814 

> <Gold.Protein.RotatedAtoms>
  151.6776  133.3312  159.3211 H   0  0  0  0  0  0  0  0  0  0  0  0  # atno 6907 bound_to 6896
  150.7838  134.6808  159.6452 H   0  0  0  0  0  0  0  0  0  0  0  0  # atno 6908 bound_to 6896
  152.3902  134.6457  160.0162 H   0  0  0  0  0  0  0  0  0  0  0  0  # atno 6909 bound_to 6896
  144.8474  139.6220  143.5989 H   0  0  0  0  0  0  0  0  0  0  0  0  # atno 7974 bound_to 7965
  154.7295  140.2727  155.6469 H   0  0  0  0  0  0  0  0  0  0  0  0  # atno 8008 bound_to 7997
  156.2846  140.2718  156.1915 H   0  0  0  0  0  0  0  0  0  0  0  0  # atno 8009 bound_to 7997
  155.0401  140.0371  157.2496 H   0  0  0  0  0  0  0  0  0  0  0  0  # atno 8010 bound_to 7997
  140.4687  144.0796  150.6231 H   0  0  0  0  0  0  0  0  0  0  0  0  # atno 10167 bound_to 10162
  157.6539  131.0914  150.6460 H   0  0  0  0  0  0  0  0  0  0  0  0  # atno 10718 bound_to 10713
  154.8613  135.4243  154.2278 H   0  0  0  0  0  0  0  0  0  0  0  0  # atno 10763 bound_to 10752
  153.3270  135.6986  153.6987 H   0  0  0  0  0  0  0  0  0  0  0  0  # atno 10764 bound_to 10752
  153.6019  135.3535  155.2922 H   0  0  0  0  0  0  0  0  0  0  0  0  # atno 10765 bound_to 10752
  140.1596  134.4358  155.8326 H   0  0  0  0  0  0  0  0  0  0  0  0  # atno 11005 bound_to 11000
  146.2756  139.6744  142.9265 LP  0  0  0  0  0  0  0  0  0  0  0  0  # atno 17320 bound_to 7965
  145.4569  141.0431  143.2773 LP  0  0  0  0  0  0  0  0  0  0  0  0  # atno 17321 bound_to 7965
  140.4004  143.2707  151.9954 LP  0  0  0  0  0  0  0  0  0  0  0  0  # atno 17342 bound_to 10162
  139.4815  144.6002  151.7619 LP  0  0  0  0  0  0  0  0  0  0  0  0  # atno 17343 bound_to 10162
  156.6768  130.4555  149.5640 LP  0  0  0  0  0  0  0  0  0  0  0  0  # atno 17370 bound_to 10713
  156.1957  130.6588  151.1112 LP  0  0  0  0  0  0  0  0  0  0  0  0  # atno 17371 bound_to 10713
  141.2208  133.6907  156.7570 LP  0  0  0  0  0  0  0  0  0  0  0  0  # atno 17394 bound_to 11000
  140.2506  134.8544  157.3663 LP  0  0  0  0  0  0  0  0  0  0  0  0  # atno 17395 bound_to 11000

$$$$
