AV-unprocessed.smi:3308|AV-procd|sdf|12713|dock7
  -GOLD-   2272019 53D 1   1.00000     0.00000
 Structure written by MMmdl.
 40 41  0  0  0  0  0  0  0  0  1 V2000
  150.1403  138.2543  154.3677 C   0  0  0  0  0  0  0  0  0  0  0  0
  149.5340  139.5257  155.0012 C   0  0  1  0  0  0  0  0  0  0  0  0
  150.6199  140.4382  155.3471 N   0  0  0  0  0  0  0  0  0  0  0  0
  151.1856  140.1584  156.6729 C   0  0  0  0  0  0  0  0  0  0  0  0
  151.5540  141.4523  157.4054 C   0  0  0  0  0  0  0  0  0  0  0  0
  151.3184  142.5289  156.8568 O   0  0  0  0  0  0  0  0  0  0  0  0
  152.1267  141.3730  158.6256 N   0  0  0  0  0  0  0  0  0  0  0  0
  152.4509  140.1404  159.3440 C   0  0  0  0  0  0  0  0  0  0  0  0
  153.2906  140.5698  160.5473 C   0  0  0  0  0  0  0  0  0  0  0  0
  152.8716  142.0116  160.7989 C   0  0  0  0  0  0  0  0  0  0  0  0
  152.5119  142.5435  159.4116 C   0  0  0  0  0  0  0  0  0  0  0  0
  148.5525  140.2689  154.0555 C   0  0  2  0  0  0  0  0  0  0  0  0
  147.9981  141.5661  154.6740 C   0  0  0  0  0  0  0  0  0  0  0  0
  147.4446  139.4148  153.6448 N   0  0  0  0  0  0  0  0  0  0  0  0
  147.1000  139.0008  152.3732 C   0  0  0  0  0  0  0  0  0  0  0  0
  145.9925  138.2104  152.4864 C   0  0  0  0  0  0  0  0  0  0  0  0
  145.7323  138.1926  153.8851 C   0  0  0  0  0  0  0  0  0  0  0  0
  146.6031  138.9111  154.5749 N   0  0  0  0  0  0  0  0  0  0  0  0
  149.3747  137.5122  154.1423 H   0  0  0  0  0  0  0  0  0  0  0  0
  150.8576  137.7670  155.0271 H   0  0  0  0  0  0  0  0  0  0  0  0
  150.6568  138.4880  153.4360 H   0  0  0  0  0  0  0  0  0  0  0  0
  148.9874  139.2463  155.9041 H   0  0  0  0  0  0  0  0  0  0  0  0
  150.2747  141.3865  155.3026 H   0  0  0  0  0  0  0  0  0  0  0  0
  150.4516  139.6125  157.2679 H   0  0  0  0  0  0  0  0  0  0  0  0
  152.0612  139.5142  156.6000 H   0  0  0  0  0  0  0  0  0  0  0  0
  151.5257  139.6671  159.6759 H   0  0  0  0  0  0  0  0  0  0  0  0
  152.9953  139.4275  158.7236 H   0  0  0  0  0  0  0  0  0  0  0  0
  153.1432  139.9284  161.4165 H   0  0  0  0  0  0  0  0  0  0  0  0
  154.3491  140.5383  160.2846 H   0  0  0  0  0  0  0  0  0  0  0  0
  151.9873  142.0279  161.4375 H   0  0  0  0  0  0  0  0  0  0  0  0
  153.6484  142.5994  161.2889 H   0  0  0  0  0  0  0  0  0  0  0  0
  153.3790  143.0130  158.9449 H   0  0  0  0  0  0  0  0  0  0  0  0
  151.7128  143.2845  159.4660 H   0  0  0  0  0  0  0  0  0  0  0  0
  149.0998  140.5437  153.1511 H   0  0  0  0  0  0  0  0  0  0  0  0
  148.7934  142.2783  154.8940 H   0  0  0  0  0  0  0  0  0  0  0  0
  147.4642  141.3687  155.6039 H   0  0  0  0  0  0  0  0  0  0  0  0
  147.3046  142.0581  153.9910 H   0  0  0  0  0  0  0  0  0  0  0  0
  147.6642  139.3034  151.5029 H   0  0  0  0  0  0  0  0  0  0  0  0
  145.4515  137.7190  151.6916 H   0  0  0  0  0  0  0  0  0  0  0  0
  144.9424  137.6822  154.4161 H   0  0  0  0  0  0  0  0  0  0  0  0
  1  2  1  0  0  0  0
  1 19  1  0  0  0  0
  1 20  1  0  0  0  0
  1 21  1  0  0  0  0
  2  3  1  0  0  0  0
  2 12  1  0  0  0  0
  2 22  1  0  0  0  0
  3  4  1  0  0  0  0
  3 23  1  0  0  0  0
  4  5  1  0  0  0  0
  4 24  1  0  0  0  0
  4 25  1  0  0  0  0
  5  6  2  0  0  0  0
  5  7  1  0  0  0  0
  7 11  1  0  0  0  0
  7  8  1  0  0  0  0
  8  9  1  0  0  0  0
  8 26  1  0  0  0  0
  8 27  1  0  0  0  0
  9 10  1  0  0  0  0
  9 28  1  0  0  0  0
  9 29  1  0  0  0  0
 10 11  1  0  0  0  0
 10 30  1  0  0  0  0
 10 31  1  0  0  0  0
 11 32  1  0  0  0  0
 11 33  1  0  0  0  0
 12 13  1  0  0  0  0
 12 14  1  0  0  0  0
 12 34  1  0  0  0  0
 13 35  1  0  0  0  0
 13 36  1  0  0  0  0
 13 37  1  0  0  0  0
 14 18  1  0  0  0  0
 14 15  1  0  0  0  0
 15 16  2  0  0  0  0
 15 38  1  0  0  0  0
 16 17  1  0  0  0  0
 16 39  1  0  0  0  0
 17 18  2  0  0  0  0
 17 40  1  0  0  0  0
M  END
> <s_m_source_file>
AV-unprocessed.smi

> <i_m_source_file_index>
3308

> <i_lp_mmshare_version>
43012

> <i_f3d_flags>
0

> <s_epik_input>
bjFbY0hdW2NIXVtjSF1uMVtDQEBIXShbQ0gzXSlbQ0BIXShbQ0gzXSlbTkhdW0NIMl1DKD1PKU4yW0NIMl1bQ0gyXVtDSDJdW0NIMl0y

> <s_epik_cmdline>
J2VwaWtfcHl0aG9uJywgJy1waCcsICc3LjAnLCAnLXRuJywgJzgnLCAnLW1hJywgJzIwMCcsICctbWV0YWxfYmluZGluZycsICctaW1hZScsICc8aW5maWxlLm1hZT4nLCAnLW9tYWUnLCAnPG91dGZpbGUubWFlPic=

> <r_lp_tautomer_probability>
1

> <r_epik_Ionization_Penalty>
0.918676

> <r_epik_Ionization_Penalty_Charging>
0

> <r_epik_Ionization_Penalty_Neutral>
0.918676

> <r_epik_State_Penalty>
0.958258

> <r_epik_Charging_Adjusted_Penalty>
0.958258

> <i_epik_Tot_Q>
0

> <i_epik_Tot_abs_Q>
0

> <r_epik_Metal_State_Penalty>
0.956879

> <b_epik_Metal_Only>
0

> <s_lp_Force_Field>
OPLS_2005

> <r_lp_Energy>
35.768

> <b_lp_Chiralities_Consistent>
1

> <s_lp_Variant>
AV-unprocessed.smi:3308-6

> <Gold.Version>
5.8.1

> <Gold.Id.Protein>
6NUR|6NUR_protein|mol2

> <Gold.PLP.Fitness>
40.5145

> <Gold.PLP.PLP>
-36.2553

> <Gold.PLP.part.hbond>
-1.0000

> <Gold.PLP.part.metal>
0.0000

> <Gold.PLP.part.buried>
-1.4364

> <Gold.PLP.part.nonpolar>
-34.7420

> <Gold.PLP.part.repulsive>
1.1403

> <Gold.PLP.ligand.clash>
0.0000

> <Gold.PLP.ligand.torsion>
0.6188

> <Gold.PLP.Chemscore.Hbond>
0.8160

> <Gold.PLP.Chemscore.CHOScore>
0.9943

> <Gold.PLP.Chemscore.Metal>
0.0000

> <Gold.Chemscore.Hbonds>
donor molecule, donor type, donor heavy atom, donor atom, acceptor molecule, acceptor atom, score
      P1  H  7989  7998       L1     3  0.21
      L1  C    15    38       P1  7957  1.00

> <Gold.PLP.Chemscore.Internal.Correction>
0.0659

> <Gold.Rescore>
     Score         DG    S(hbond)    S(metal)    S(lipo)     H(rot)  DE(clash)    DE(int)     intcor
     10.78     -11.77       0.06        0.00      89.77       1.72       0.36       0.63       ----

> <Gold.Chemscore.Fitness>
10.7840

> <Gold.Chemscore.DG>
-11.7655

> <Gold.Chemscore.ZeroCoef>
-5.4800

> <Gold.Chemscore.Hbond>
0.0556

> <Gold.Chemscore.Metal>
0.0000

> <Gold.Chemscore.Lipo>
89.7682

> <Gold.Chemscore.Internal_Hbond>
0.0000

> <Gold.Chemscore.DEClash>
0.3555

> <Gold.Chemscore.DEInternal>
0.6261

> <Gold.Chemscore.Rot>
1.7200

> <Gold.Chemscore.Internal.Correction>
   9.000000E+99

> <Gold.Chemscore.Hbond.Weighted>
-0.1858

> <Gold.Chemscore.Metal.Weighted>
-0.0000

> <Gold.Chemscore.Lipo.Weighted>
-10.5029

> <Gold.Chemscore.Internal_Hbond.Weighted>
0.0000

> <Gold.Chemscore.DEClash.Weighted>
0.3555

> <Gold.Chemscore.DEInternal.Weighted>
0.6261

> <Gold.Chemscore.Rot.Weighted>
4.4031

> <Gold.Chemscore.Internal.Correction.Weighted>
   9.000000E+99

> <Gold.Protein.RotatedTorsions>
[ 6907 6896 6895 6894 ] final  -21.79 input  -60.11 | X-H torsion
[ 7974 7965 7964 7962 ] final  143.73 input  175.53 | X-H torsion
[ 8008 7997 7996 7995 ] final -163.41 input   59.86 | X-H torsion
[ 10167 10162 10161 10158 ] final  134.52 input  -65.29 | X-H torsion
[ 10718 10713 10712 10709 ] final -120.55 input   66.30 | X-H torsion
[ 10763 10752 10751 10750 ] final  117.00 input  -60.55 | X-H torsion
[ 11005 11000 10999 10996 ] final  -59.60 input  -57.11 | X-H torsion

> <Gold.Protein.ActiveResidues>
 VAL166  LYS551  ARG553  GLY616  TRP617  ASP618  TYR619  PRO620  LYS621  CYS622 
 ASP623  PHE694  ASN695  SER759  ASP760  ASP761  ALA762  ILE779  LEU786  VAL792 
 PHE793  MET794  SER795  GLU796  ALA797  LYS798  CYS799  TRP800  GLU811  SER814 

> <Gold.Protein.RotatedAtoms>
  151.2282  135.0544  159.8976 H   0  0  0  0  0  0  0  0  0  0  0  0  # atno 6907 bound_to 6896
  152.5408  134.0566  159.8144 H   0  0  0  0  0  0  0  0  0  0  0  0  # atno 6908 bound_to 6896
  151.0742  133.5393  159.2656 H   0  0  0  0  0  0  0  0  0  0  0  0  # atno 6909 bound_to 6896
  144.8896  139.5578  143.5805 H   0  0  0  0  0  0  0  0  0  0  0  0  # atno 7974 bound_to 7965
  155.8209  140.0919  157.1849 H   0  0  0  0  0  0  0  0  0  0  0  0  # atno 8008 bound_to 7997
  154.3979  140.1437  156.3559 H   0  0  0  0  0  0  0  0  0  0  0  0  # atno 8009 bound_to 7997
  155.8267  140.3444  155.5550 H   0  0  0  0  0  0  0  0  0  0  0  0  # atno 8010 bound_to 7997
  139.5253  144.6563  151.5152 H   0  0  0  0  0  0  0  0  0  0  0  0  # atno 10167 bound_to 10162
  156.1267  130.6364  150.9553 H   0  0  0  0  0  0  0  0  0  0  0  0  # atno 10718 bound_to 10713
  153.5458  135.3549  155.2738 H   0  0  0  0  0  0  0  0  0  0  0  0  # atno 10763 bound_to 10752
  154.8712  135.4102  154.2993 H   0  0  0  0  0  0  0  0  0  0  0  0  # atno 10764 bound_to 10752
  153.3709  135.7064  153.6707 H   0  0  0  0  0  0  0  0  0  0  0  0  # atno 10765 bound_to 10752
  141.1255  133.6617  156.5096 H   0  0  0  0  0  0  0  0  0  0  0  0  # atno 11005 bound_to 11000
  146.3045  139.7535  142.9066 LP  0  0  0  0  0  0  0  0  0  0  0  0  # atno 17320 bound_to 7965
  145.3807  141.0358  143.3179 LP  0  0  0  0  0  0  0  0  0  0  0  0  # atno 17321 bound_to 7965
  140.6390  143.8926  150.6674 LP  0  0  0  0  0  0  0  0  0  0  0  0  # atno 17342 bound_to 10162
  140.2255  143.3776  152.1608 LP  0  0  0  0  0  0  0  0  0  0  0  0  # atno 17343 bound_to 10162
  157.6448  131.0905  150.8177 LP  0  0  0  0  0  0  0  0  0  0  0  0  # atno 17370 bound_to 10713
  156.8267  130.5002  149.5336 LP  0  0  0  0  0  0  0  0  0  0  0  0  # atno 17371 bound_to 10713
  140.4379  134.7042  157.4976 LP  0  0  0  0  0  0  0  0  0  0  0  0  # atno 17394 bound_to 11000
  140.0249  134.6492  155.9187 LP  0  0  0  0  0  0  0  0  0  0  0  0  # atno 17395 bound_to 11000

$$$$
