AV-unprocessed.smi:1406|AV-procd|sdf|5720|dock9
  -GOLD-   22720 5353D 1   1.00000     0.00000
 Structure written by MMmdl.
 41 43  0  0  0  0  0  0  0  0  2 V2000
  151.7594  137.7681  158.5216 C   0  0  0  0  0  0  0  0  0  0  0  0
  151.1659  138.6064  157.3711 C   0  0  1  0  0  0  0  0  0  0  0  0
  151.0984  140.1071  157.6980 C   0  0  0  0  0  0  0  0  0  0  0  0
  150.0143  140.6816  157.8034 O   0  0  0  0  0  0  0  0  0  0  0  0
  152.2753  140.7341  157.8545 N   0  0  0  0  0  0  0  0  0  0  0  0
  152.4393  142.1449  158.1909 C   0  0  1  0  0  0  0  0  0  0  0  0
  151.4209  143.0519  157.4780 C   0  0  0  0  0  0  0  0  0  0  0  0
  151.0533  144.1404  158.5058 C   0  0  0  0  0  0  0  0  0  0  0  0
  151.9116  143.8787  159.6767 N   0  3  1  0  0  0  0  0  0  0  0  0
  151.4349  144.3737  160.9864 C   0  0  0  0  0  0  0  0  0  0  0  0
  152.5039  144.0826  162.0587 C   0  0  0  0  0  0  0  0  0  0  0  0
  152.9096  142.5947  162.0726 C   0  0  0  0  0  0  0  0  0  0  0  0
  153.3052  142.1119  160.6639 C   0  0  0  0  0  0  0  0  0  0  0  0
  152.1739  142.4314  159.6714 C   0  0  2  0  0  0  0  0  0  0  0  0
  151.8764  138.3930  156.1163 N   0  0  0  0  0  0  0  0  0  0  0  0
  151.4693  137.8072  154.9880 C   0  0  0  0  0  0  0  0  0  0  0  0
  152.3699  137.8260  154.0156 N   0  0  0  0  0  0  0  0  0  0  0  0
  153.3790  138.4914  154.6523 C   0  0  0  0  0  0  0  0  0  0  0  0
  153.1320  138.8625  155.9085 N   0  0  0  0  0  0  0  0  0  0  0  0
  151.1843  137.8964  159.4393 H   0  0  0  0  0  0  0  0  0  0  0  0
  152.7928  138.0423  158.7381 H   0  0  0  0  0  0  0  0  0  0  0  0
  151.7458  136.7061  158.2747 H   0  0  0  0  0  0  0  0  0  0  0  0
  150.1404  138.2647  157.2204 H   0  0  0  0  0  0  0  0  0  0  0  0
  153.1183  140.1878  157.7512 H   0  0  0  0  0  0  0  0  0  0  0  0
  153.4428  142.4870  157.9285 H   0  0  0  0  0  0  0  0  0  0  0  0
  151.8450  143.4782  156.5682 H   0  0  0  0  0  0  0  0  0  0  0  0
  150.5248  142.4987  157.1926 H   0  0  0  0  0  0  0  0  0  0  0  0
  151.2195  145.1478  158.1232 H   0  0  0  0  0  0  0  0  0  0  0  0
  150.0018  144.0526  158.7837 H   0  0  0  0  0  0  0  0  0  0  0  0
  151.2445  145.4458  160.9261 H   0  0  0  0  0  0  0  0  0  0  0  0
  150.4911  143.8915  161.2458 H   0  0  0  0  0  0  0  0  0  0  0  0
  153.3865  144.6928  161.8619 H   0  0  0  0  0  0  0  0  0  0  0  0
  152.1383  144.3797  163.0421 H   0  0  0  0  0  0  0  0  0  0  0  0
  153.7336  142.4361  162.7691 H   0  0  0  0  0  0  0  0  0  0  0  0
  152.0751  141.9957  162.4399 H   0  0  0  0  0  0  0  0  0  0  0  0
  154.2304  142.5973  160.3497 H   0  0  0  0  0  0  0  0  0  0  0  0
  153.5040  141.0401  160.6832 H   0  0  0  0  0  0  0  0  0  0  0  0
  151.2633  141.9116  159.9793 H   0  0  0  0  0  0  0  0  0  0  0  0
  150.4920  137.3613  154.8737 H   0  0  0  0  0  0  0  0  0  0  0  0
  154.3209  138.7148  154.1735 H   0  0  0  0  0  0  0  0  0  0  0  0
  152.7965  144.3285  159.4894 H   0  0  0  0  0  0  0  0  0  0  0  0
  1  2  1  0  0  0  0
  1 20  1  0  0  0  0
  1 21  1  0  0  0  0
  1 22  1  0  0  0  0
  2  3  1  0  0  0  0
  2 15  1  0  0  0  0
  2 23  1  0  0  0  0
  3  4  2  0  0  0  0
  3  5  1  0  0  0  0
  5  6  1  0  0  0  0
  5 24  1  0  0  0  0
  6 14  1  0  0  0  0
  6  7  1  0  0  0  0
  6 25  1  0  0  0  0
  7  8  1  0  0  0  0
  7 26  1  0  0  0  0
  7 27  1  0  0  0  0
  8  9  1  0  0  0  0
  8 28  1  0  0  0  0
  8 29  1  0  0  0  0
  9 14  1  0  0  0  0
  9 10  1  0  0  0  0
  9 41  1  0  0  0  0
 10 11  1  0  0  0  0
 10 30  1  0  0  0  0
 10 31  1  0  0  0  0
 11 12  1  0  0  0  0
 11 32  1  0  0  0  0
 11 33  1  0  0  0  0
 12 13  1  0  0  0  0
 12 34  1  0  0  0  0
 12 35  1  0  0  0  0
 13 14  1  0  0  0  0
 13 36  1  0  0  0  0
 13 37  1  0  0  0  0
 14 38  1  0  0  0  0
 15 19  1  0  0  0  0
 15 16  1  0  0  0  0
 16 17  2  0  0  0  0
 16 39  1  0  0  0  0
 17 18  1  0  0  0  0
 18 19  2  0  0  0  0
 18 40  1  0  0  0  0
M  CHG  1   9   1
M  END
> <s_m_source_file>
AV-unprocessed.smi

> <i_m_source_file_index>
1406

> <i_lp_mmshare_version>
43012

> <i_f3d_flags>
0

> <s_epik_input>
bjFbY0hdbltjSF1uMVtDQEhdKFtDSDNdKUMoPU8pW05IXVtDQEhdKFtDSDJdW0NIMl0yKVtDQEBIXShOMjMpW0NIMl1bQ0gyXVtDSDJdW0NIMl0z

> <s_epik_cmdline>
J2VwaWtfcHl0aG9uJywgJy1waCcsICc3LjAnLCAnLXRuJywgJzgnLCAnLW1hJywgJzIwMCcsICctbWV0YWxfYmluZGluZycsICctaW1hZScsICc8aW5maWxlLm1hZT4nLCAnLW9tYWUnLCAnPG91dGZpbGUubWFlPic=

> <r_lp_tautomer_probability>
1

> <r_epik_Ionization_Penalty>
0.00197066

> <r_epik_Ionization_Penalty_Charging>
0.00196223

> <r_epik_Ionization_Penalty_Neutral>
8.43107e-06

> <r_epik_State_Penalty>
0.00133866

> <r_epik_Charging_Adjusted_Penalty>
0.00330089

> <i_epik_Tot_Q>
1

> <i_epik_Tot_abs_Q>
1

> <r_epik_Metal_State_Penalty>
-0

> <b_epik_Metal_Only>
0

> <s_lp_Force_Field>
OPLS_2005

> <r_lp_Energy>
39.8871

> <b_lp_Chiralities_Consistent>
1

> <s_lp_Variant>
AV-unprocessed.smi:1406-12

> <Gold.Version>
5.8.1

> <Gold.Id.Protein>
6NUR|6NUR_protein|mol2

> <Gold.PLP.Fitness>
40.1062

> <Gold.PLP.PLP>
-36.6578

> <Gold.PLP.part.hbond>
-2.0000

> <Gold.PLP.part.metal>
0.0000

> <Gold.PLP.part.buried>
-5.3942

> <Gold.PLP.part.nonpolar>
-28.8768

> <Gold.PLP.part.repulsive>
0.2947

> <Gold.PLP.ligand.clash>
0.0000

> <Gold.PLP.ligand.torsion>
0.3874

> <Gold.PLP.Chemscore.Hbond>
1.3731

> <Gold.PLP.Chemscore.CHOScore>
0.0000

> <Gold.PLP.Chemscore.Metal>
0.0000

> <Gold.Chemscore.Hbonds>
donor molecule, donor type, donor heavy atom, donor atom, acceptor molecule, acceptor atom, score
      P1  H  7997  8010       L1    19  1.00
      P1  H 10752 10763       L1    17  0.32

> <Gold.PLP.Chemscore.Internal.Correction>
0.1039

> <Gold.Rescore>
     Score         DG    S(hbond)    S(metal)    S(lipo)     H(rot)  DE(clash)    DE(int)     intcor
     10.34     -14.51       0.81        0.00      95.44       1.89       1.01       3.16       ----

> <Gold.Chemscore.Fitness>
10.3419

> <Gold.Chemscore.DG>
-14.5071

> <Gold.Chemscore.ZeroCoef>
-5.4800

> <Gold.Chemscore.Hbond>
0.8055

> <Gold.Chemscore.Metal>
0.0000

> <Gold.Chemscore.Lipo>
95.4365

> <Gold.Chemscore.Internal_Hbond>
0.0000

> <Gold.Chemscore.DEClash>
1.0090

> <Gold.Chemscore.DEInternal>
3.1562

> <Gold.Chemscore.Rot>
1.8865

> <Gold.Chemscore.Internal.Correction>
   9.000000E+99

> <Gold.Chemscore.Hbonds>
donor molecule, donor type, donor heavy atom, donor atom, acceptor molecule, acceptor atom, score
      P1  H  7997  8010       L1    19  0.70
      P1  H 10752 10763       L1    17  0.08

> <Gold.Chemscore.Hbond.Weighted>
-2.6905

> <Gold.Chemscore.Metal.Weighted>
-0.0000

> <Gold.Chemscore.Lipo.Weighted>
-11.1661

> <Gold.Chemscore.Internal_Hbond.Weighted>
0.0000

> <Gold.Chemscore.DEClash.Weighted>
1.0090

> <Gold.Chemscore.DEInternal.Weighted>
3.1562

> <Gold.Chemscore.Rot.Weighted>
4.8295

> <Gold.Chemscore.Internal.Correction.Weighted>
   9.000000E+99

> <Gold.Protein.RotatedTorsions>
[ 6907 6896 6895 6894 ] final   32.73 input  -60.11 | X-H torsion
[ 7974 7965 7964 7962 ] final -173.69 input  175.53 | X-H torsion
[ 8008 7997 7996 7995 ] final   69.06 input   59.86 | X-H torsion
[ 10167 10162 10161 10158 ] final  151.95 input  -65.29 | X-H torsion
[ 10718 10713 10712 10709 ] final   57.13 input   66.30 | X-H torsion
[ 10763 10752 10751 10750 ] final   10.20 input  -60.55 | X-H torsion
[ 11005 11000 10999 10996 ] final    2.14 input  -57.11 | X-H torsion

> <Gold.Protein.ActiveResidues>
 VAL166  LYS551  ARG553  GLY616  TRP617  ASP618  TYR619  PRO620  LYS621  CYS622 
 ASP623  PHE694  ASN695  SER759  ASP760  ASP761  ALA762  ILE779  LEU786  VAL792 
 PHE793  MET794  SER795  GLU796  ALA797  LYS798  CYS799  TRP800  GLU811  SER814 

> <Gold.Protein.RotatedAtoms>
  152.0786  134.9486  160.0573 H   0  0  0  0  0  0  0  0  0  0  0  0  # atno 6907 bound_to 6896
  152.0784  133.4136  159.4498 H   0  0  0  0  0  0  0  0  0  0  0  0  # atno 6908 bound_to 6896
  150.6836  134.2930  159.4718 H   0  0  0  0  0  0  0  0  0  0  0  0  # atno 6909 bound_to 6896
  144.7136  140.1584  143.6378 H   0  0  0  0  0  0  0  0  0  0  0  0  # atno 7974 bound_to 7965
  155.7179  140.3493  155.5003 H   0  0  0  0  0  0  0  0  0  0  0  0  # atno 8008 bound_to 7997
  155.9296  140.1082  157.1164 H   0  0  0  0  0  0  0  0  0  0  0  0  # atno 8009 bound_to 7997
  154.4083  140.1233  156.4772 H   0  0  0  0  0  0  0  0  0  0  0  0  # atno 8010 bound_to 7997
  139.4836  144.5398  151.7583 H   0  0  0  0  0  0  0  0  0  0  0  0  # atno 10167 bound_to 10162
  157.5489  130.8751  149.8933 H   0  0  0  0  0  0  0  0  0  0  0  0  # atno 10718 bound_to 10713
  153.2057  135.6862  153.8175 H   0  0  0  0  0  0  0  0  0  0  0  0  # atno 10763 bound_to 10752
  153.7425  135.3236  155.3308 H   0  0  0  0  0  0  0  0  0  0  0  0  # atno 10764 bound_to 10752
  154.8196  135.4662  154.0843 H   0  0  0  0  0  0  0  0  0  0  0  0  # atno 10765 bound_to 10752
  140.6076  133.9778  155.8162 H   0  0  0  0  0  0  0  0  0  0  0  0  # atno 11005 bound_to 11000
  145.9053  139.2454  143.1470 LP  0  0  0  0  0  0  0  0  0  0  0  0  # atno 17320 bound_to 7965
  145.9770  140.8713  143.0133 LP  0  0  0  0  0  0  0  0  0  0  0  0  # atno 17321 bound_to 7965
  140.4936  144.1274  150.5955 LP  0  0  0  0  0  0  0  0  0  0  0  0  # atno 17342 bound_to 10162
  140.4143  143.2642  151.9794 LP  0  0  0  0  0  0  0  0  0  0  0  0  # atno 17343 bound_to 10162
  156.0559  130.3708  150.1092 LP  0  0  0  0  0  0  0  0  0  0  0  0  # atno 17370 bound_to 10713
  156.9266  130.9700  151.3540 LP  0  0  0  0  0  0  0  0  0  0  0  0  # atno 17371 bound_to 10713
  141.0830  134.0034  157.3357 LP  0  0  0  0  0  0  0  0  0  0  0  0  # atno 17394 bound_to 11000
  139.9205  135.0200  156.8047 LP  0  0  0  0  0  0  0  0  0  0  0  0  # atno 17395 bound_to 11000

$$$$
