AV-unprocessed.smi:35|AV-procd|sdf|267|dock1
  -GOLD-   2262016 33D 1   1.00000     0.00000
 Structure written by MMmdl.
 28 29  0  0  0  0  0  0  0  0  2 V2000
  148.6460  136.5217  160.8036 O   0  0  0  0  0  0  0  0  0  0  0  0
  149.2065  136.9281  159.7874 C   0  0  0  0  0  0  0  0  0  0  0  0
  150.5633  136.9507  159.6484 N   0  5  0  0  0  0  0  0  0  0  0  0
  151.1805  137.3919  158.5133 C   0  0  0  0  0  0  0  0  0  0  0  0
  152.4049  137.4371  158.3896 O   0  0  0  0  0  0  0  0  0  0  0  0
  150.3842  137.8238  157.4153 N   0  0  0  0  0  0  0  0  0  0  0  0
  151.0831  138.3266  156.1629 C   0  0  2  0  0  0  0  0  0  0  0  0
  150.8661  139.6979  156.0114 O   0  0  0  0  0  0  0  0  0  0  0  0
  149.7491  139.9112  155.1577 C   0  0  1  0  0  0  0  0  0  0  0  0
  149.7862  141.3395  154.5937 C   0  0  0  0  0  0  0  0  0  0  0  0
  149.0625  141.4007  153.3829 O   0  0  0  0  0  0  0  0  0  0  0  0
  149.9496  138.8268  154.0980 C   0  0  2  0  0  0  0  0  0  0  0  0
  148.7134  138.4818  153.5052 O   0  0  0  0  0  0  0  0  0  0  0  0
  150.5134  137.6527  154.8945 C   0  0  1  0  0  0  0  0  0  0  0  0
  151.5241  136.9994  154.1544 O   0  0  0  0  0  0  0  0  0  0  0  0
  149.0036  137.8453  157.5440 C   0  0  0  0  0  0  0  0  0  0  0  0
  148.4016  137.4161  158.6714 C   0  0  0  0  0  0  0  0  0  0  0  0
  146.4221  137.5015  158.7114 Br  0  0  0  0  0  0  0  0  0  0  0  0
  152.1434  138.1383  156.3418 H   0  0  0  0  0  0  0  0  0  0  0  0
  148.8201  139.7276  155.7014 H   0  0  0  0  0  0  0  0  0  0  0  0
  149.3918  142.0603  155.3104 H   0  0  0  0  0  0  0  0  0  0  0  0
  150.8144  141.6291  154.3749 H   0  0  0  0  0  0  0  0  0  0  0  0
  149.1685  140.5798  152.9274 H   0  0  0  0  0  0  0  0  0  0  0  0
  150.6588  139.1650  153.3403 H   0  0  0  0  0  0  0  0  0  0  0  0
  148.6495  138.9259  152.6733 H   0  0  0  0  0  0  0  0  0  0  0  0
  149.7303  136.9425  155.1653 H   0  0  0  0  0  0  0  0  0  0  0  0
  151.1413  136.6896  153.3468 H   0  0  0  0  0  0  0  0  0  0  0  0
  148.3807  138.2125  156.7431 H   0  0  0  0  0  0  0  0  0  0  0  0
  1  2  2  0  0  0  0
  2 17  1  0  0  0  0
  2  3  1  0  0  0  0
  3  4  1  0  0  0  0
  4  5  2  0  0  0  0
  4  6  1  0  0  0  0
  6  7  1  0  0  0  0
  6 16  1  0  0  0  0
  7 14  1  0  0  0  0
  7  8  1  0  0  0  0
  7 19  1  0  0  0  0
  8  9  1  0  0  0  0
  9 10  1  0  0  0  0
  9 12  1  0  0  0  0
  9 20  1  0  0  0  0
 10 11  1  0  0  0  0
 10 21  1  0  0  0  0
 10 22  1  0  0  0  0
 11 23  1  0  0  0  0
 12 13  1  0  0  0  0
 12 14  1  0  0  0  0
 12 24  1  0  0  0  0
 13 25  1  0  0  0  0
 14 15  1  0  0  0  0
 14 26  1  0  0  0  0
 15 27  1  0  0  0  0
 16 17  2  0  0  0  0
 16 28  1  0  0  0  0
 17 18  1  0  0  0  0
M  CHG  1   3  -1
M  END
> <s_m_source_file>
AV-unprocessed.smi

> <i_m_source_file_index>
35

> <i_lp_mmshare_version>
43012

> <i_f3d_flags>
0

> <s_epik_input>
Tz1jMVtuSF1jKD1PKW4oW2NIXWMxQnIpW0NAQEhdMk9bQ0BASF0oW0NIMl1bT0hdKVtDQEBIXShbT0hdKVtDQEhdMltPSF0=

> <s_epik_cmdline>
J2VwaWtfcHl0aG9uJywgJy1waCcsICc3LjAnLCAnLXRuJywgJzgnLCAnLW1hJywgJzIwMCcsICctbWV0YWxfYmluZGluZycsICctaW1hZScsICc8aW5maWxlLm1hZT4nLCAnLW9tYWUnLCAnPG91dGZpbGUubWFlPic=

> <r_epik_Ionization_Penalty>
1.06112

> <r_epik_Ionization_Penalty_Charging>
2.1796e-09

> <r_epik_Ionization_Penalty_Neutral>
1.06112

> <r_epik_State_Penalty>
1.11484

> <r_epik_Charging_Adjusted_Penalty>
1.11484

> <i_epik_Tot_Q>
-1

> <i_epik_Tot_abs_Q>
1

> <r_epik_Metal_State_Penalty>
0.0032876

> <b_epik_Metal_Only>
0

> <s_epik_Chemistry_Notes>
This compound contains an acetal/aminal-like group ( X-CH(R)-Y where X, Y are N, S, or O) that may be acid/base labile, releasing an aldehyde.

> <s_lp_Force_Field>
OPLS_2005

> <r_lp_Energy>
34.7757

> <b_lp_Chiralities_Consistent>
1

> <s_lp_Variant>
AV-unprocessed.smi:35-21

> <Gold.Version>
5.8.1

> <Gold.Id.Protein>
6NUR|6NUR_protein|mol2

> <Gold.PLP.Fitness>
44.6415

> <Gold.PLP.PLP>
-22.6473

> <Gold.PLP.part.hbond>
-8.7893

> <Gold.PLP.part.metal>
0.0000

> <Gold.PLP.part.buried>
1.0701

> <Gold.PLP.part.nonpolar>
-12.9776

> <Gold.PLP.part.repulsive>
0.0000

> <Gold.PLP.ligand.clash>
0.0000

> <Gold.PLP.ligand.torsion>
0.3259

> <Gold.PLP.Chemscore.Hbond>
7.5386

> <Gold.PLP.Chemscore.CHOScore>
0.0000

> <Gold.PLP.Chemscore.Metal>
0.0000

> <Gold.Chemscore.Hbonds>
donor molecule, donor type, donor heavy atom, donor atom, acceptor molecule, acceptor atom, score
      L1  H    11    23       P1  7957  0.70
      L1  H    13    25       P1  7957  0.81
      L1  H    15    27       P1  7949  1.00
      P1  H  6896  6907       L1     3  2.00
      P1  H  6931  6943       L1     1  0.61
      P1  H  8011  8017       L1    11  0.93
      P1  H 10752 10764       L1    15  0.95

> <Gold.PLP.Chemscore.Internal.Correction>
0.0303

> <Gold.Rescore>
     Score         DG    S(hbond)    S(metal)    S(lipo)     H(rot)  DE(clash)    DE(int)     intcor
     10.50     -10.88       3.25        0.00      32.82       3.63       0.12       0.26       ----

> <Gold.Chemscore.Fitness>
10.5012

> <Gold.Chemscore.DG>
-10.8796

> <Gold.Chemscore.ZeroCoef>
-5.4800

> <Gold.Chemscore.Hbond>
3.2461

> <Gold.Chemscore.Metal>
0.0000

> <Gold.Chemscore.Lipo>
32.8234

> <Gold.Chemscore.Internal_Hbond>
0.0000

> <Gold.Chemscore.DEClash>
0.1209

> <Gold.Chemscore.DEInternal>
0.2575

> <Gold.Chemscore.Rot>
3.6261

> <Gold.Chemscore.Internal.Correction>
   9.000000E+99

> <Gold.Chemscore.Hbonds>
donor molecule, donor type, donor heavy atom, donor atom, acceptor molecule, acceptor atom, score
      L1  H    11    23       P1  7957  0.72
      L1  H    13    25       P1  7957  0.77
      L1  H    15    27       P1  7949  0.43
      P1  H  6896  6907       L1     3  0.32
      P1  H  6931  6943       L1     1  0.06
      P1  H  8011  8017       L1    11  0.18
      P1  H 10752 10764       L1    15  0.21

> <Gold.Chemscore.Hbond.Weighted>
-10.8420

> <Gold.Chemscore.Metal.Weighted>
-0.0000

> <Gold.Chemscore.Lipo.Weighted>
-3.8403

> <Gold.Chemscore.Internal_Hbond.Weighted>
0.0000

> <Gold.Chemscore.DEClash.Weighted>
0.1209

> <Gold.Chemscore.DEInternal.Weighted>
0.2575

> <Gold.Chemscore.Rot.Weighted>
9.2828

> <Gold.Chemscore.Internal.Correction.Weighted>
   9.000000E+99

> <Gold.Protein.RotatedTorsions>
[ 6907 6896 6895 6894 ] final  -20.39 input  -60.11 | X-H torsion
[ 7974 7965 7964 7962 ] final -177.28 input  175.53 | X-H torsion
[ 8008 7997 7996 7995 ] final   47.35 input   59.86 | X-H torsion
[ 10167 10162 10161 10158 ] final   31.67 input  -65.29 | X-H torsion
[ 10718 10713 10712 10709 ] final -123.45 input   66.30 | X-H torsion
[ 10763 10752 10751 10750 ] final  -70.73 input  -60.55 | X-H torsion
[ 11005 11000 10999 10996 ] final   36.52 input  -57.11 | X-H torsion

> <Gold.Protein.ActiveResidues>
 VAL166  LYS551  ARG553  GLY616  TRP617  ASP618  TYR619  PRO620  LYS621  CYS622 
 ASP623  PHE694  ASN695  SER759  ASP760  ASP761  ALA762  ILE779  LEU786  VAL792 
 PHE793  MET794  SER795  GLU796  ALA797  LYS798  CYS799  TRP800  GLU811  SER814 

> <Gold.Protein.RotatedAtoms>
  151.2489  135.0615  159.9053 H   0  0  0  0  0  0  0  0  0  0  0  0  # atno 6907 bound_to 6896
  152.5383  134.0354  159.8054 H   0  0  0  0  0  0  0  0  0  0  0  0  # atno 6908 bound_to 6896
  151.0559  133.5535  159.2669 H   0  0  0  0  0  0  0  0  0  0  0  0  # atno 6909 bound_to 6896
  144.7127  140.1043  143.6415 H   0  0  0  0  0  0  0  0  0  0  0  0  # atno 7974 bound_to 7965
  155.3676  140.3422  155.4242 H   0  0  0  0  0  0  0  0  0  0  0  0  # atno 8008 bound_to 7997
  156.1680  140.1622  156.8532 H   0  0  0  0  0  0  0  0  0  0  0  0  # atno 8009 bound_to 7997
  154.5204  140.0768  156.8144 H   0  0  0  0  0  0  0  0  0  0  0  0  # atno 8010 bound_to 7997
  140.4568  144.0966  150.6203 H   0  0  0  0  0  0  0  0  0  0  0  0  # atno 10167 bound_to 10162
  156.1503  130.6530  150.9903 H   0  0  0  0  0  0  0  0  0  0  0  0  # atno 10718 bound_to 10713
  154.4218  135.5985  153.6015 H   0  0  0  0  0  0  0  0  0  0  0  0  # atno 10763 bound_to 10752
  152.9794  135.5954  154.3945 H   0  0  0  0  0  0  0  0  0  0  0  0  # atno 10764 bound_to 10752
  154.3772  135.2841  155.2211 H   0  0  0  0  0  0  0  0  0  0  0  0  # atno 10765 bound_to 10752
  140.2317  134.3520  155.7961 H   0  0  0  0  0  0  0  0  0  0  0  0  # atno 11005 bound_to 11000
  145.9510  139.2734  143.1212 LP  0  0  0  0  0  0  0  0  0  0  0  0  # atno 17320 bound_to 7965
  145.9323  140.9040  143.0350 LP  0  0  0  0  0  0  0  0  0  0  0  0  # atno 17321 bound_to 7965
  140.4141  143.2642  151.9796 LP  0  0  0  0  0  0  0  0  0  0  0  0  # atno 17342 bound_to 10162
  139.4802  144.5889  151.7806 LP  0  0  0  0  0  0  0  0  0  0  0  0  # atno 17343 bound_to 10162
  157.6651  131.0873  150.7747 LP  0  0  0  0  0  0  0  0  0  0  0  0  # atno 17370 bound_to 10713
  156.7816  130.4861  149.5400 LP  0  0  0  0  0  0  0  0  0  0  0  0  # atno 17371 bound_to 10713
  141.2217  133.7249  156.8742 LP  0  0  0  0  0  0  0  0  0  0  0  0  # atno 17394 bound_to 11000
  140.1744  134.9077  157.2872 LP  0  0  0  0  0  0  0  0  0  0  0  0  # atno 17395 bound_to 11000

$$$$
