AV-unprocessed.smi:1994|AV-procd|sdf|8072|dock4
  -GOLD-   2272010283D 1   1.00000     0.00000
 Structure written by MMmdl.
 39 41  0  0  0  0  0  0  0  0  1 V2000
  152.3528  138.3284  155.7890 C   0  0  0  0  0  0  0  0  0  0  0  0
  151.0205  138.9933  155.6466 C   0  0  0  0  0  0  0  0  0  0  0  0
  150.8648  140.1384  154.9819 N   0  0  0  0  0  0  0  0  0  0  0  0
  149.5114  140.3831  155.1129 C   0  0  0  0  0  0  0  0  0  0  0  0
  148.7199  141.4496  154.6295 C   0  0  0  0  0  0  0  0  0  0  0  0
  147.3351  141.4880  154.8946 C   0  0  0  0  0  0  0  0  0  0  0  0
  146.7230  140.4621  155.6435 C   0  0  0  0  0  0  0  0  0  0  0  0
  147.4929  139.3893  156.1326 C   0  0  0  0  0  0  0  0  0  0  0  0
  148.8750  139.3564  155.8670 C   0  0  0  0  0  0  0  0  0  0  0  0
  149.8960  138.4680  156.1917 N   0  0  0  0  0  0  0  0  0  0  0  0
  149.7644  137.2386  156.9623 C   0  0  0  0  0  0  0  0  0  0  0  0
  149.4369  137.4970  158.4471 C   0  0  2  0  0  0  0  0  0  0  0  0
  150.1651  136.6021  159.2643 O   0  0  0  0  0  0  0  0  0  0  0  0
  147.9426  137.3258  158.7560 C   0  0  0  0  0  0  0  0  0  0  0  0
  147.7751  137.1618  160.1581 O   0  0  0  0  0  0  0  0  0  0  0  0
  147.5999  135.8860  160.6511 C   0  0  0  0  0  0  0  0  0  0  0  0
  147.8087  134.7051  159.8935 C   0  0  0  0  0  0  0  0  0  0  0  0
  147.6086  133.4385  160.4763 C   0  0  0  0  0  0  0  0  0  0  0  0
  147.1976  133.3348  161.8179 C   0  0  0  0  0  0  0  0  0  0  0  0
  146.9875  134.5003  162.5774 C   0  0  0  0  0  0  0  0  0  0  0  0
  147.1885  135.7675  161.9961 C   0  0  0  0  0  0  0  0  0  0  0  0
  146.9830  136.8818  162.7383 F   0  0  0  0  0  0  0  0  0  0  0  0
  153.1191  138.8907  155.2543 H   0  0  0  0  0  0  0  0  0  0  0  0
  152.3214  137.3192  155.3794 H   0  0  0  0  0  0  0  0  0  0  0  0
  152.6382  138.2759  156.8398 H   0  0  0  0  0  0  0  0  0  0  0  0
  149.1794  142.2400  154.0545 H   0  0  0  0  0  0  0  0  0  0  0  0
  146.7399  142.3087  154.5214 H   0  0  0  0  0  0  0  0  0  0  0  0
  145.6618  140.4992  155.8423 H   0  0  0  0  0  0  0  0  0  0  0  0
  147.0266  138.6007  156.7041 H   0  0  0  0  0  0  0  0  0  0  0  0
  148.9922  136.6202  156.5044 H   0  0  0  0  0  0  0  0  0  0  0  0
  150.6924  136.6723  156.8736 H   0  0  0  0  0  0  0  0  0  0  0  0
  149.7402  138.5076  158.7213 H   0  0  0  0  0  0  0  0  0  0  0  0
  150.5143  137.0842  159.9985 H   0  0  0  0  0  0  0  0  0  0  0  0
  147.3852  138.1938  158.3991 H   0  0  0  0  0  0  0  0  0  0  0  0
  147.5614  136.4426  158.2405 H   0  0  0  0  0  0  0  0  0  0  0  0
  148.1246  134.7429  158.8621 H   0  0  0  0  0  0  0  0  0  0  0  0
  147.7715  132.5446  159.8921 H   0  0  0  0  0  0  0  0  0  0  0  0
  147.0441  132.3630  162.2638 H   0  0  0  0  0  0  0  0  0  0  0  0
  146.6720  134.4234  163.6075 H   0  0  0  0  0  0  0  0  0  0  0  0
  1  2  1  0  0  0  0
  1 23  1  0  0  0  0
  1 24  1  0  0  0  0
  1 25  1  0  0  0  0
  2 10  1  0  0  0  0
  2  3  2  0  0  0  0
  3  4  1  0  0  0  0
  4  9  2  0  0  0  0
  4  5  1  0  0  0  0
  5  6  2  0  0  0  0
  5 26  1  0  0  0  0
  6  7  1  0  0  0  0
  6 27  1  0  0  0  0
  7  8  2  0  0  0  0
  7 28  1  0  0  0  0
  8  9  1  0  0  0  0
  8 29  1  0  0  0  0
  9 10  1  0  0  0  0
 10 11  1  0  0  0  0
 11 12  1  0  0  0  0
 11 30  1  0  0  0  0
 11 31  1  0  0  0  0
 12 13  1  0  0  0  0
 12 14  1  0  0  0  0
 12 32  1  0  0  0  0
 13 33  1  0  0  0  0
 14 15  1  0  0  0  0
 14 34  1  0  0  0  0
 14 35  1  0  0  0  0
 15 16  1  0  0  0  0
 16 21  1  0  0  0  0
 16 17  2  0  0  0  0
 17 18  1  0  0  0  0
 17 36  1  0  0  0  0
 18 19  2  0  0  0  0
 18 37  1  0  0  0  0
 19 20  1  0  0  0  0
 19 38  1  0  0  0  0
 20 21  2  0  0  0  0
 20 39  1  0  0  0  0
 21 22  1  0  0  0  0
M  END
> <s_m_source_file>
AV-unprocessed.smi

> <i_m_source_file_index>
1994

> <i_lp_mmshare_version>
43012

> <i_f3d_flags>
0

> <s_epik_input>
W2NIXTFbY0hdW2NIXVtjSF1jKGMxMiluKGMobjIpW0NIM10pW0NIMl1bQ0BIXShbT0hdKVtDSDJdT2MzW2NIXVtjSF1bY0hdW2NIXWMzRg==

> <s_epik_cmdline>
J2VwaWtfcHl0aG9uJywgJy1waCcsICc3LjAnLCAnLXRuJywgJzgnLCAnLW1hJywgJzIwMCcsICctbWV0YWxfYmluZGluZycsICctaW1hZScsICc8aW5maWxlLm1hZT4nLCAnLW9tYWUnLCAnPG91dGZpbGUubWFlPic=

> <r_lp_tautomer_probability>
1

> <r_epik_Ionization_Penalty>
0.112614

> <r_epik_Ionization_Penalty_Charging>
0

> <r_epik_Ionization_Penalty_Neutral>
0.112614

> <r_epik_State_Penalty>
0.10231

> <r_epik_Charging_Adjusted_Penalty>
0.10231

> <i_epik_Tot_Q>
0

> <i_epik_Tot_abs_Q>
0

> <r_epik_Metal_State_Penalty>
0.000111664

> <b_epik_Metal_Only>
0

> <s_lp_Force_Field>
OPLS_2005

> <r_lp_Energy>
14.6988

> <b_lp_Chiralities_Consistent>
1

> <s_lp_Variant>
AV-unprocessed.smi:1994-1

> <Gold.Version>
5.8.1

> <Gold.Id.Protein>
6NUR|6NUR_protein|mol2

> <Gold.PLP.Fitness>
47.8234

> <Gold.PLP.PLP>
-40.3148

> <Gold.PLP.part.hbond>
-4.0000

> <Gold.PLP.part.metal>
0.0000

> <Gold.PLP.part.buried>
-3.9507

> <Gold.PLP.part.nonpolar>
-33.6170

> <Gold.PLP.part.repulsive>
0.0450

> <Gold.PLP.ligand.clash>
0.0000

> <Gold.PLP.ligand.torsion>
1.2087

> <Gold.PLP.Chemscore.Hbond>
3.2960

> <Gold.PLP.Chemscore.CHOScore>
0.0000

> <Gold.PLP.Chemscore.Metal>
0.0000

> <Gold.Chemscore.Hbonds>
donor molecule, donor type, donor heavy atom, donor atom, acceptor molecule, acceptor atom, score
      P1  H  6896  6907       L1    13  0.90
      P1  H  6931  6943       L1    15  0.04
      P1  H  6934  6947       L1    15  0.72
      P1  H  7989  7998       L1     3  1.00

> <Gold.PLP.Chemscore.Internal.Correction>
0.0379

> <Gold.Rescore>
     Score         DG    S(hbond)    S(metal)    S(lipo)     H(rot)  DE(clash)    DE(int)     intcor
     14.30     -15.62       1.92        0.00      79.75       2.19       0.05       1.27       ----

> <Gold.Chemscore.Fitness>
14.3015

> <Gold.Chemscore.DG>
-15.6182

> <Gold.Chemscore.ZeroCoef>
-5.4800

> <Gold.Chemscore.Hbond>
1.9194

> <Gold.Chemscore.Metal>
0.0000

> <Gold.Chemscore.Lipo>
79.7463

> <Gold.Chemscore.Internal_Hbond>
0.0000

> <Gold.Chemscore.DEClash>
0.0499

> <Gold.Chemscore.DEInternal>
1.2669

> <Gold.Chemscore.Rot>
2.1886

> <Gold.Chemscore.Internal.Correction>
   9.000000E+99

> <Gold.Chemscore.Hbonds>
donor molecule, donor type, donor heavy atom, donor atom, acceptor molecule, acceptor atom, score
      P1  H  6896  6907       L1    13  0.18
      P1  H  6931  6943       L1    15  0.03
      P1  H  6934  6947       L1    15  0.39
      P1  H  7989  7998       L1     3  0.90

> <Gold.Chemscore.Hbond.Weighted>
-6.4108

> <Gold.Chemscore.Metal.Weighted>
-0.0000

> <Gold.Chemscore.Lipo.Weighted>
-9.3303

> <Gold.Chemscore.Internal_Hbond.Weighted>
0.0000

> <Gold.Chemscore.DEClash.Weighted>
0.0499

> <Gold.Chemscore.DEInternal.Weighted>
1.2669

> <Gold.Chemscore.Rot.Weighted>
5.6028

> <Gold.Chemscore.Internal.Correction.Weighted>
   9.000000E+99

> <Gold.Protein.RotatedTorsions>
[ 6907 6896 6895 6894 ] final  -48.49 input  -60.11 | X-H torsion
[ 7974 7965 7964 7962 ] final  -68.15 input  175.53 | X-H torsion
[ 8008 7997 7996 7995 ] final   -7.09 input   59.86 | X-H torsion
[ 10167 10162 10161 10158 ] final    3.79 input  -65.29 | X-H torsion
[ 10718 10713 10712 10709 ] final    0.17 input   66.30 | X-H torsion
[ 10763 10752 10751 10750 ] final    3.44 input  -60.55 | X-H torsion
[ 11005 11000 10999 10996 ] final   37.52 input  -57.11 | X-H torsion

> <Gold.Protein.ActiveResidues>
 VAL166  LYS551  ARG553  GLY616  TRP617  ASP618  TYR619  PRO620  LYS621  CYS622 
 ASP623  PHE694  ASN695  SER759  ASP760  ASP761  ALA762  ILE779  LEU786  VAL792 
 PHE793  MET794  SER795  GLU796  ALA797  LYS798  CYS799  TRP800  GLU811  SER814 

> <Gold.Protein.RotatedAtoms>
  150.8900  134.8303  159.7286 H   0  0  0  0  0  0  0  0  0  0  0  0  # atno 6907 bound_to 6896
  152.4831  134.4662  159.9631 H   0  0  0  0  0  0  0  0  0  0  0  0  # atno 6908 bound_to 6896
  151.4726  133.3526  159.2861 H   0  0  0  0  0  0  0  0  0  0  0  0  # atno 6909 bound_to 6896
  145.7202  140.9042  143.0634 H   0  0  0  0  0  0  0  0  0  0  0  0  # atno 7974 bound_to 7965
  154.5873  140.2416  155.7970 H   0  0  0  0  0  0  0  0  0  0  0  0  # atno 8008 bound_to 7997
  156.2222  140.2994  155.9935 H   0  0  0  0  0  0  0  0  0  0  0  0  # atno 8009 bound_to 7997
  155.2436  140.0408  157.2968 H   0  0  0  0  0  0  0  0  0  0  0  0  # atno 8010 bound_to 7997
  140.6568  143.7407  150.7667 H   0  0  0  0  0  0  0  0  0  0  0  0  # atno 10167 bound_to 10162
  156.8295  130.5483  149.5688 H   0  0  0  0  0  0  0  0  0  0  0  0  # atno 10718 bound_to 10713
  153.2833  135.6942  153.7364 H   0  0  0  0  0  0  0  0  0  0  0  0  # atno 10763 bound_to 10752
  153.6343  135.3404  155.3052 H   0  0  0  0  0  0  0  0  0  0  0  0  # atno 10764 bound_to 10752
  154.8502  135.4416  154.1893 H   0  0  0  0  0  0  0  0  0  0  0  0  # atno 10765 bound_to 10752
  140.2218  134.3632  155.8002 H   0  0  0  0  0  0  0  0  0  0  0  0  # atno 11005 bound_to 11000
  144.6919  139.9191  143.7467 LP  0  0  0  0  0  0  0  0  0  0  0  0  # atno 17320 bound_to 7965
  146.0633  139.3625  143.0568 LP  0  0  0  0  0  0  0  0  0  0  0  0  # atno 17321 bound_to 7965
  140.1068  143.4736  152.2393 LP  0  0  0  0  0  0  0  0  0  0  0  0  # atno 17342 bound_to 10162
  139.5792  144.7502  151.3684 LP  0  0  0  0  0  0  0  0  0  0  0  0  # atno 17343 bound_to 10162
  156.0942  130.5920  150.9786 LP  0  0  0  0  0  0  0  0  0  0  0  0  # atno 17370 bound_to 10713
  157.6414  131.0909  150.8242 LP  0  0  0  0  0  0  0  0  0  0  0  0  # atno 17371 bound_to 10713
  141.2222  133.7197  156.8588 LP  0  0  0  0  0  0  0  0  0  0  0  0  # atno 17394 bound_to 11000
  140.1842  134.9012  157.2984 LP  0  0  0  0  0  0  0  0  0  0  0  0  # atno 17395 bound_to 11000

$$$$
