AV-unprocessed.smi:109|AV-procd|sdf|1034|dock1
  -GOLD-   2262018 43D 1   1.00000     0.00000
 Structure written by MMmdl.
 58 61  0  0  0  0  0  0  0  0  1 V2000
  150.1112  140.1327  153.9358 O   0  0  0  0  0  0  0  0  0  0  0  0
  149.7058  140.2535  155.2821 C   0  0  0  0  0  0  0  0  0  0  0  0
  150.6049  141.2657  156.0099 C   0  0  0  0  0  0  0  0  0  0  0  0
  151.0377  140.7849  157.4127 C   0  0  1  0  0  0  0  0  0  0  0  0
  151.6556  139.4626  157.3133 N   0  0  0  0  0  0  0  0  0  0  0  0
  151.0149  138.3460  157.7259 C   0  0  0  0  0  0  0  0  0  0  0  0
  150.6859  138.1603  159.0308 N   0  0  0  0  0  0  0  0  0  0  0  0
  150.0453  137.0501  159.4073 C   0  0  0  0  0  0  0  0  0  0  0  0
  149.6459  136.0227  158.6554 N   0  0  0  0  0  0  0  0  0  0  0  0
  149.9736  136.2015  157.3426 C   0  0  0  0  0  0  0  0  0  0  0  0
  150.6545  137.3291  156.8039 C   0  0  0  0  0  0  0  0  0  0  0  0
  150.8150  137.1725  155.4337 N   0  0  0  0  0  0  0  0  0  0  0  0
  150.2574  136.0193  155.1807 C   0  0  0  0  0  0  0  0  0  0  0  0
  149.7214  135.3679  156.2694 N   0  0  0  0  0  0  0  0  0  0  0  0
  149.0180  134.0432  156.2749 C   0  0  1  0  0  0  0  0  0  0  0  0
  148.8013  133.6259  154.9574 O   0  0  0  0  0  0  0  0  0  0  0  0
  149.3966  132.3477  154.7518 C   0  0  2  0  0  0  0  0  0  0  0  0
  148.6412  131.5614  153.6657 C   0  0  0  0  0  0  0  0  0  0  0  0
  147.9964  132.4152  152.7430 O   0  0  0  0  0  0  0  0  0  0  0  0
  149.4681  131.7232  156.1476 C   0  0  1  0  0  0  0  0  0  0  0  0
  150.4146  130.6757  156.2503 O   0  0  0  0  0  0  0  0  0  0  0  0
  149.8105  132.9360  157.0031 C   0  0  1  0  0  0  0  0  0  0  0  0
  151.2064  133.1875  157.0682 O   0  0  0  0  0  0  0  0  0  0  0  0
  151.9695  141.7751  158.1646 C   0  0  0  0  0  0  0  0  0  0  0  0
  152.4607  141.2201  159.5195 C   0  0  0  0  0  0  0  0  0  0  0  0
  153.4594  142.1774  160.1902 C   0  0  0  0  0  0  0  0  0  0  0  0
  152.8533  143.5782  160.3675 C   0  0  0  0  0  0  0  0  0  0  0  0
  152.3577  144.1415  159.0264 C   0  0  0  0  0  0  0  0  0  0  0  0
  151.3611  143.1835  158.3528 C   0  0  0  0  0  0  0  0  0  0  0  0
  148.0527  134.2445  156.7409 H   0  0  0  0  0  0  0  0  0  0  0  0
  150.4117  132.5312  154.3966 H   0  0  0  0  0  0  0  0  0  0  0  0
  148.4903  131.3476  156.4507 H   0  0  0  0  0  0  0  0  0  0  0  0
  149.4370  132.8304  158.0220 H   0  0  0  0  0  0  0  0  0  0  0  0
  149.3685  140.3179  153.3813 H   0  0  0  0  0  0  0  0  0  0  0  0
  148.6639  140.5738  155.3118 H   0  0  0  0  0  0  0  0  0  0  0  0
  149.7589  139.2717  155.7535 H   0  0  0  0  0  0  0  0  0  0  0  0
  151.4829  141.4765  155.3980 H   0  0  0  0  0  0  0  0  0  0  0  0
  150.0576  142.2039  156.0903 H   0  0  0  0  0  0  0  0  0  0  0  0
  150.1224  140.6918  157.9983 H   0  0  0  0  0  0  0  0  0  0  0  0
  152.5887  139.4449  156.9271 H   0  0  0  0  0  0  0  0  0  0  0  0
  149.8183  136.9751  160.4604 H   0  0  0  0  0  0  0  0  0  0  0  0
  150.2172  135.6099  154.1819 H   0  0  0  0  0  0  0  0  0  0  0  0
  149.3201  130.8935  153.1352 H   0  0  0  0  0  0  0  0  0  0  0  0
  147.8782  130.9361  154.1296 H   0  0  0  0  0  0  0  0  0  0  0  0
  148.3141  132.2142  151.8760 H   0  0  0  0  0  0  0  0  0  0  0  0
  150.7848  130.6901  157.1195 H   0  0  0  0  0  0  0  0  0  0  0  0
  151.5373  133.2691  156.1870 H   0  0  0  0  0  0  0  0  0  0  0  0
  152.8637  141.8965  157.5513 H   0  0  0  0  0  0  0  0  0  0  0  0
  151.6207  141.0599  160.1950 H   0  0  0  0  0  0  0  0  0  0  0  0
  152.9314  140.2471  159.3751 H   0  0  0  0  0  0  0  0  0  0  0  0
  153.7631  141.7788  161.1585 H   0  0  0  0  0  0  0  0  0  0  0  0
  154.3650  142.2441  159.5859 H   0  0  0  0  0  0  0  0  0  0  0  0
  152.0228  143.5300  161.0730 H   0  0  0  0  0  0  0  0  0  0  0  0
  153.5919  144.2510  160.8039 H   0  0  0  0  0  0  0  0  0  0  0  0
  151.8903  145.1141  159.1824 H   0  0  0  0  0  0  0  0  0  0  0  0
  153.2077  144.3100  158.3638 H   0  0  0  0  0  0  0  0  0  0  0  0
  151.0580  143.5962  157.3902 H   0  0  0  0  0  0  0  0  0  0  0  0
  150.4596  143.1258  158.9634 H   0  0  0  0  0  0  0  0  0  0  0  0
  1  2  1  0  0  0  0
  1 34  1  0  0  0  0
  2  3  1  0  0  0  0
  2 35  1  0  0  0  0
  2 36  1  0  0  0  0
  3  4  1  0  0  0  0
  3 37  1  0  0  0  0
  3 38  1  0  0  0  0
  4  5  1  0  0  0  0
  4 24  1  0  0  0  0
  4 39  1  0  0  0  0
  5  6  1  0  0  0  0
  5 40  1  0  0  0  0
  6 11  1  0  0  0  0
  6  7  2  0  0  0  0
  7  8  1  0  0  0  0
  8  9  2  0  0  0  0
  8 41  1  0  0  0  0
  9 10  1  0  0  0  0
 10 14  1  0  0  0  0
 10 11  2  0  0  0  0
 11 12  1  0  0  0  0
 12 13  2  0  0  0  0
 13 14  1  0  0  0  0
 13 42  1  0  0  0  0
 14 15  1  0  0  0  0
 15 30  1  0  0  0  0
 15 22  1  0  0  0  0
 15 16  1  0  0  0  0
 16 17  1  0  0  0  0
 17 31  1  0  0  0  0
 17 18  1  0  0  0  0
 17 20  1  0  0  0  0
 18 19  1  0  0  0  0
 18 43  1  0  0  0  0
 18 44  1  0  0  0  0
 19 45  1  0  0  0  0
 20 32  1  0  0  0  0
 20 21  1  0  0  0  0
 20 22  1  0  0  0  0
 21 46  1  0  0  0  0
 22 33  1  0  0  0  0
 22 23  1  0  0  0  0
 23 47  1  0  0  0  0
 24 29  1  0  0  0  0
 24 25  1  0  0  0  0
 24 48  1  0  0  0  0
 25 26  1  0  0  0  0
 25 49  1  0  0  0  0
 25 50  1  0  0  0  0
 26 27  1  0  0  0  0
 26 51  1  0  0  0  0
 26 52  1  0  0  0  0
 27 28  1  0  0  0  0
 27 53  1  0  0  0  0
 27 54  1  0  0  0  0
 28 29  1  0  0  0  0
 28 55  1  0  0  0  0
 28 56  1  0  0  0  0
 29 57  1  0  0  0  0
 29 58  1  0  0  0  0
M  END
> <s_m_source_file>
AV-unprocessed.smi

> <i_m_source_file_index>
109

> <i_lp_mmshare_version>
43012

> <i_f3d_flags>
0

> <s_epik_input>
W0NIMl0xW0NIMl1bQ0gyXVtDSDJdW0NIMl1bQ0hdMVtDQEhdKFtDSDJdW0NIMl1bT0hdKVtOSF1jKG5bY0hdbjIpYyhjMjMpbltjSF1uM1tDQEBIXTRPW0NASF0oW0NIMl1bT0hdKVtDQEBIXShbT0hdKVtDQEhdNFtPSF0=

> <s_epik_cmdline>
J2VwaWtfcHl0aG9uJywgJy1waCcsICc3LjAnLCAnLXRuJywgJzgnLCAnLW1hJywgJzIwMCcsICctbWV0YWxfYmluZGluZycsICctaW1hZScsICc8aW5maWxlLm1hZT4nLCAnLW9tYWUnLCAnPG91dGZpbGUubWFlPic=

> <r_lp_tautomer_probability>
1

> <r_epik_Ionization_Penalty>
0.000793976

> <r_epik_Ionization_Penalty_Charging>
0

> <r_epik_Ionization_Penalty_Neutral>
0.000793976

> <r_epik_State_Penalty>
-0

> <r_epik_Charging_Adjusted_Penalty>
0

> <i_epik_Tot_Q>
0

> <i_epik_Tot_abs_Q>
0

> <r_epik_Metal_State_Penalty>
-0

> <b_epik_Metal_Only>
0

> <s_epik_Chemistry_Notes>
This compound contains an acetal/aminal-like group ( X-CH(R)-Y where X, Y are N, S, or O) that may be acid/base labile, releasing an aldehyde.

> <s_lp_Force_Field>
OPLS_2005

> <r_lp_Energy>
63.9822

> <b_lp_Chiralities_Consistent>
1

> <s_lp_Variant>
AV-unprocessed.smi:109-4

> <Gold.Version>
5.8.1

> <Gold.Id.Protein>
6NUR|6NUR_protein|mol2

> <Gold.PLP.Fitness>
54.0093

> <Gold.PLP.PLP>
-45.0617

> <Gold.PLP.part.hbond>
-4.7617

> <Gold.PLP.part.metal>
0.0000

> <Gold.PLP.part.buried>
-5.7660

> <Gold.PLP.part.nonpolar>
-34.2347

> <Gold.PLP.part.repulsive>
0.2088

> <Gold.PLP.ligand.clash>
0.0000

> <Gold.PLP.ligand.torsion>
1.6268

> <Gold.PLP.Chemscore.Hbond>
3.7765

> <Gold.PLP.Chemscore.CHOScore>
0.1686

> <Gold.PLP.Chemscore.Metal>
0.0000

> <Gold.Chemscore.Hbonds>
donor molecule, donor type, donor heavy atom, donor atom, acceptor molecule, acceptor atom, score
      L1  H     1    34       P1  7957  0.16
      L1  H    19    45       P1 10747  0.60
      P1  H  6896  6907       L1    23  0.03
      P1  H  6896  6908       L1     9  0.94
      P1  H  7989  7998       L1     1  0.88
      L1  C    13    42       P1  7948  0.37
      L1  C    13    42       P1  7949  0.02

> <Gold.PLP.Chemscore.Internal.Correction>
0.3660

> <Gold.Rescore>
     Score         DG    S(hbond)    S(metal)    S(lipo)     H(rot)  DE(clash)    DE(int)     intcor
     11.34     -12.96       2.85        0.00     102.30       5.47       0.01       1.61       ----

> <Gold.Chemscore.Fitness>
11.3361

> <Gold.Chemscore.DG>
-12.9601

> <Gold.Chemscore.ZeroCoef>
-5.4800

> <Gold.Chemscore.Hbond>
2.8458

> <Gold.Chemscore.Metal>
0.0000

> <Gold.Chemscore.Lipo>
102.2955

> <Gold.Chemscore.Internal_Hbond>
0.0000

> <Gold.Chemscore.DEClash>
0.0149

> <Gold.Chemscore.DEInternal>
1.6091

> <Gold.Chemscore.Rot>
5.4662

> <Gold.Chemscore.Internal.Correction>
   9.000000E+99

> <Gold.Chemscore.Hbonds>
donor molecule, donor type, donor heavy atom, donor atom, acceptor molecule, acceptor atom, score
      L1  H     1    34       P1  7957  0.16
      L1  H    19    45       P1 10747  0.59
      P1  H  6896  6907       L1    23  0.03
      P1  H  6896  6908       L1     9  0.24
      P1  H  7989  7998       L1     1  0.77

> <Gold.Chemscore.Hbond.Weighted>
-9.5050

> <Gold.Chemscore.Metal.Weighted>
-0.0000

> <Gold.Chemscore.Lipo.Weighted>
-11.9686

> <Gold.Chemscore.Internal_Hbond.Weighted>
0.0000

> <Gold.Chemscore.DEClash.Weighted>
0.0149

> <Gold.Chemscore.DEInternal.Weighted>
1.6091

> <Gold.Chemscore.Rot.Weighted>
13.9935

> <Gold.Chemscore.Internal.Correction.Weighted>
   9.000000E+99

> <Gold.Protein.RotatedTorsions>
[ 6907 6896 6895 6894 ] final  160.30 input  -60.11 | X-H torsion
[ 7974 7965 7964 7962 ] final  145.02 input  175.53 | X-H torsion
[ 8008 7997 7996 7995 ] final -120.44 input   59.86 | X-H torsion
[ 10167 10162 10161 10158 ] final  -27.43 input  -65.29 | X-H torsion
[ 10718 10713 10712 10709 ] final  -92.28 input   66.30 | X-H torsion
[ 10763 10752 10751 10750 ] final  106.43 input  -60.55 | X-H torsion
[ 11005 11000 10999 10996 ] final  110.10 input  -57.11 | X-H torsion

> <Gold.Protein.ActiveResidues>
 VAL166  LYS551  ARG553  GLY616  TRP617  ASP618  TYR619  PRO620  LYS621  CYS622 
 ASP623  PHE694  ASN695  SER759  ASP760  ASP761  ALA762  ILE779  LEU786  VAL792 
 PHE793  MET794  SER795  GLU796  ALA797  LYS798  CYS799  TRP800  GLU811  SER814 

> <Gold.Protein.RotatedAtoms>
  151.9727  133.3731  159.4076 H   0  0  0  0  0  0  0  0  0  0  0  0  # atno 6907 bound_to 6896
  150.6946  134.4123  159.5177 H   0  0  0  0  0  0  0  0  0  0  0  0  # atno 6908 bound_to 6896
  152.1830  134.8738  160.0575 H   0  0  0  0  0  0  0  0  0  0  0  0  # atno 6909 bound_to 6896
  144.8787  139.5732  143.5853 H   0  0  0  0  0  0  0  0  0  0  0  0  # atno 7974 bound_to 7965
  155.1318  140.0400  157.2777 H   0  0  0  0  0  0  0  0  0  0  0  0  # atno 8008 bound_to 7997
  154.6537  140.2575  155.7159 H   0  0  0  0  0  0  0  0  0  0  0  0  # atno 8009 bound_to 7997
  156.2588  140.2831  156.0981 H   0  0  0  0  0  0  0  0  0  0  0  0  # atno 8010 bound_to 7997
  140.7277  143.4094  151.1131 H   0  0  0  0  0  0  0  0  0  0  0  0  # atno 10167 bound_to 10162
  156.0001  130.4981  150.5601 H   0  0  0  0  0  0  0  0  0  0  0  0  # atno 10718 bound_to 10713
  153.3929  135.3877  155.1935 H   0  0  0  0  0  0  0  0  0  0  0  0  # atno 10763 bound_to 10752
  154.8721  135.3753  154.4714 H   0  0  0  0  0  0  0  0  0  0  0  0  # atno 10764 bound_to 10752
  153.5203  135.7087  153.5796 H   0  0  0  0  0  0  0  0  0  0  0  0  # atno 10765 bound_to 10752
  139.8875  134.9475  156.6227 H   0  0  0  0  0  0  0  0  0  0  0  0  # atno 11005 bound_to 11000
  146.2980  139.7338  142.9112 LP  0  0  0  0  0  0  0  0  0  0  0  0  # atno 17320 bound_to 7965
  145.3994  141.0383  143.3079 LP  0  0  0  0  0  0  0  0  0  0  0  0  # atno 17321 bound_to 7965
  139.7725  143.8473  152.3123 LP  0  0  0  0  0  0  0  0  0  0  0  0  # atno 17342 bound_to 10162
  139.8397  144.7216  150.9347 LP  0  0  0  0  0  0  0  0  0  0  0  0  # atno 17343 bound_to 10162
  157.3512  131.0734  151.1712 LP  0  0  0  0  0  0  0  0  0  0  0  0  # atno 17370 bound_to 10713
  157.2528  130.6622  149.5939 LP  0  0  0  0  0  0  0  0  0  0  0  0  # atno 17371 bound_to 10713
  140.7727  133.8725  155.8504 LP  0  0  0  0  0  0  0  0  0  0  0  0  # atno 17394 bound_to 11000
  140.9828  134.1383  157.4479 LP  0  0  0  0  0  0  0  0  0  0  0  0  # atno 17395 bound_to 11000

$$$$
