AV-unprocessed.smi:249|AV-procd|sdf|1901|dock10
  -GOLD-   2262020573D 1   1.00000     0.00000
 Structure written by MMmdl.
 64 67  0  0  0  0  0  0  0  0  2 V2000
  148.7007  145.3111  160.6097 C   0  0  0  0  0  0  0  0  0  0  0  0
  150.1844  145.1815  160.2348 C   0  0  0  0  0  0  0  0  0  0  0  0
  150.5383  143.8477  159.6775 N   0  3  1  0  0  0  0  0  0  0  0  0
  149.6768  143.4798  158.5215 C   0  0  0  0  0  0  0  0  0  0  0  0
  149.8876  142.0162  158.1039 C   0  0  0  0  0  0  0  0  0  0  0  0
  151.3728  141.7443  157.7974 C   0  0  2  0  0  0  0  0  0  0  0  0
  151.6385  140.3877  157.2985 N   0  0  0  0  0  0  0  0  0  0  0  0
  151.5046  140.1510  155.8649 C   0  0  0  0  0  0  0  0  0  0  0  0
  151.4652  139.2757  158.0618 C   0  0  0  0  0  0  0  0  0  0  0  0
  152.4751  138.8164  158.8465 N   0  0  0  0  0  0  0  0  0  0  0  0
  152.2999  137.7376  159.6153 C   0  0  0  0  0  0  0  0  0  0  0  0
  151.2112  136.9795  159.7523 N   0  0  0  0  0  0  0  0  0  0  0  0
  150.1911  137.4343  158.9707 C   0  0  0  0  0  0  0  0  0  0  0  0
  150.2319  138.5644  158.1055 C   0  0  0  0  0  0  0  0  0  0  0  0
  149.0064  138.7140  157.4666 N   0  0  0  0  0  0  0  0  0  0  0  0
  148.2813  137.7337  157.9316 C   0  0  0  0  0  0  0  0  0  0  0  0
  148.9119  136.9210  158.8453 N   0  0  0  0  0  0  0  0  0  0  0  0
  148.3375  135.7666  159.5143 C   0  0  0  0  0  0  0  0  0  0  0  0
  147.0669  136.1077  160.3316 C   0  0  2  0  0  0  0  0  0  0  0  0
  147.3952  136.6872  161.7294 C   0  0  0  0  0  0  0  0  0  0  0  0
  146.4949  137.7156  162.0869 O   0  0  0  0  0  0  0  0  0  0  0  0
  146.0953  134.9028  160.4086 C   0  0  2  0  0  0  0  0  0  0  0  0
  144.7876  135.1828  161.1281 C   0  0  0  0  0  0  0  0  0  0  0  0
  144.2910  133.7782  161.4504 C   0  0  0  0  0  0  0  0  0  0  0  0
  145.4613  132.9987  161.6675 O   0  0  0  0  0  0  0  0  0  0  0  0
  146.6114  133.7135  161.2259 C   0  0  0  0  0  0  0  0  0  0  0  0
  152.2474  142.1591  159.0005 C   0  0  0  0  0  0  0  0  0  0  0  0
  151.9954  143.6231  159.4178 C   0  0  1  0  0  0  0  0  0  0  0  0
  152.6129  144.6311  158.4241 C   0  0  0  0  0  0  0  0  0  0  0  0
  148.4644  146.3406  160.8796 H   0  0  0  0  0  0  0  0  0  0  0  0
  148.4400  144.6897  161.4663 H   0  0  0  0  0  0  0  0  0  0  0  0
  148.0550  145.0324  159.7766 H   0  0  0  0  0  0  0  0  0  0  0  0
  150.3995  145.9369  159.4779 H   0  0  0  0  0  0  0  0  0  0  0  0
  150.8185  145.4246  161.0875 H   0  0  0  0  0  0  0  0  0  0  0  0
  148.6283  143.6183  158.7884 H   0  0  0  0  0  0  0  0  0  0  0  0
  149.8713  144.1472  157.6815 H   0  0  0  0  0  0  0  0  0  0  0  0
  149.5285  141.3677  158.9022 H   0  0  0  0  0  0  0  0  0  0  0  0
  149.2731  141.7965  157.2305 H   0  0  0  0  0  0  0  0  0  0  0  0
  151.6504  142.4002  156.9717 H   0  0  0  0  0  0  0  0  0  0  0  0
  152.4642  139.8574  155.4397 H   0  0  0  0  0  0  0  0  0  0  0  0
  151.1742  141.0498  155.3441 H   0  0  0  0  0  0  0  0  0  0  0  0
  150.7798  139.3629  155.6565 H   0  0  0  0  0  0  0  0  0  0  0  0
  153.1530  137.4405  160.2073 H   0  0  0  0  0  0  0  0  0  0  0  0
  147.2581  137.5767  157.6220 H   0  0  0  0  0  0  0  0  0  0  0  0
  148.1137  135.0245  158.7480 H   0  0  0  0  0  0  0  0  0  0  0  0
  149.0950  135.3213  160.1603 H   0  0  0  0  0  0  0  0  0  0  0  0
  146.5487  136.8996  159.7889 H   0  0  0  0  0  0  0  0  0  0  0  0
  147.3616  135.9110  162.4938 H   0  0  0  0  0  0  0  0  0  0  0  0
  148.4086  137.0874  161.7558 H   0  0  0  0  0  0  0  0  0  0  0  0
  145.9929  137.4301  162.8349 H   0  0  0  0  0  0  0  0  0  0  0  0
  145.8618  134.5556  159.4007 H   0  0  0  0  0  0  0  0  0  0  0  0
  144.9690  135.7360  162.0509 H   0  0  0  0  0  0  0  0  0  0  0  0
  144.0750  135.7462  160.5253 H   0  0  0  0  0  0  0  0  0  0  0  0
  143.6299  133.7576  162.3169 H   0  0  0  0  0  0  0  0  0  0  0  0
  143.7493  133.3622  160.6000 H   0  0  0  0  0  0  0  0  0  0  0  0
  147.2746  133.0683  160.6491 H   0  0  0  0  0  0  0  0  0  0  0  0
  147.1569  134.0560  162.1065 H   0  0  0  0  0  0  0  0  0  0  0  0
  152.0440  141.5254  159.8628 H   0  0  0  0  0  0  0  0  0  0  0  0
  153.3022  142.0140  158.7636 H   0  0  0  0  0  0  0  0  0  0  0  0
  152.5225  143.7521  160.3626 H   0  0  0  0  0  0  0  0  0  0  0  0
  153.6660  144.4057  158.2533 H   0  0  0  0  0  0  0  0  0  0  0  0
  152.5704  145.6513  158.8041 H   0  0  0  0  0  0  0  0  0  0  0  0
  152.1189  144.6167  157.4533 H   0  0  0  0  0  0  0  0  0  0  0  0
  150.2948  143.1876  160.4023 H   0  0  0  0  0  0  0  0  0  0  0  0
  1  2  1  0  0  0  0
  1 30  1  0  0  0  0
  1 31  1  0  0  0  0
  1 32  1  0  0  0  0
  2  3  1  0  0  0  0
  2 33  1  0  0  0  0
  2 34  1  0  0  0  0
  3 28  1  0  0  0  0
  3  4  1  0  0  0  0
  3 64  1  0  0  0  0
  4  5  1  0  0  0  0
  4 35  1  0  0  0  0
  4 36  1  0  0  0  0
  5  6  1  0  0  0  0
  5 37  1  0  0  0  0
  5 38  1  0  0  0  0
  6  7  1  0  0  0  0
  6 27  1  0  0  0  0
  6 39  1  0  0  0  0
  7  8  1  0  0  0  0
  7  9  1  0  0  0  0
  8 40  1  0  0  0  0
  8 41  1  0  0  0  0
  8 42  1  0  0  0  0
  9 14  1  0  0  0  0
  9 10  2  0  0  0  0
 10 11  1  0  0  0  0
 11 12  2  0  0  0  0
 11 43  1  0  0  0  0
 12 13  1  0  0  0  0
 13 17  1  0  0  0  0
 13 14  2  0  0  0  0
 14 15  1  0  0  0  0
 15 16  2  0  0  0  0
 16 17  1  0  0  0  0
 16 44  1  0  0  0  0
 17 18  1  0  0  0  0
 18 19  1  0  0  0  0
 18 45  1  0  0  0  0
 18 46  1  0  0  0  0
 19 20  1  0  0  0  0
 19 22  1  0  0  0  0
 19 47  1  0  0  0  0
 20 21  1  0  0  0  0
 20 48  1  0  0  0  0
 20 49  1  0  0  0  0
 21 50  1  0  0  0  0
 22 26  1  0  0  0  0
 22 23  1  0  0  0  0
 22 51  1  0  0  0  0
 23 24  1  0  0  0  0
 23 52  1  0  0  0  0
 23 53  1  0  0  0  0
 24 25  1  0  0  0  0
 24 54  1  0  0  0  0
 24 55  1  0  0  0  0
 25 26  1  0  0  0  0
 26 56  1  0  0  0  0
 26 57  1  0  0  0  0
 27 28  1  0  0  0  0
 27 58  1  0  0  0  0
 27 59  1  0  0  0  0
 28 29  1  0  0  0  0
 28 60  1  0  0  0  0
 29 61  1  0  0  0  0
 29 62  1  0  0  0  0
 29 63  1  0  0  0  0
M  CHG  1   3   1
M  END
> <s_m_source_file>
AV-unprocessed.smi

> <i_m_source_file_index>
249

> <i_lp_mmshare_version>
43012

> <i_f3d_flags>
0

> <s_epik_input>
W0NIM11bQ0gyXU4xW0NIMl1bQ0gyXVtDQEhdKFtDSDJdW0NASF0xW0NIM10pTihbQ0gzXSljKG5bY0hdbjIpYyhjMjMpbltjSF1uM1tDSDJdW0NASF0oW0NIMl1bT0hdKVtDQEBIXTRbQ0gyXVtDSDJdT1tDSDJdNA==

> <s_epik_cmdline>
J2VwaWtfcHl0aG9uJywgJy1waCcsICc3LjAnLCAnLXRuJywgJzgnLCAnLW1hJywgJzIwMCcsICctbWV0YWxfYmluZGluZycsICctaW1hZScsICc8aW5maWxlLm1hZT4nLCAnLW9tYWUnLCAnPG91dGZpbGUubWFlPic=

> <r_lp_tautomer_probability>
1

> <r_epik_Ionization_Penalty>
0.00294688

> <r_epik_Ionization_Penalty_Charging>
0.00169971

> <r_epik_Ionization_Penalty_Neutral>
0.00124717

> <r_epik_State_Penalty>
-0

> <r_epik_Charging_Adjusted_Penalty>
0.00169971

> <i_epik_Tot_Q>
1

> <i_epik_Tot_abs_Q>
1

> <r_epik_Metal_State_Penalty>
-0

> <b_epik_Metal_Only>
0

> <s_lp_Force_Field>
OPLS_2005

> <r_lp_Energy>
54.0004

> <b_lp_Chiralities_Consistent>
1

> <s_lp_Variant>
AV-unprocessed.smi:249-4

> <Gold.Version>
5.8.1

> <Gold.Id.Protein>
6NUR|6NUR_protein|mol2

> <Gold.PLP.Fitness>
51.8376

> <Gold.PLP.PLP>
-51.2571

> <Gold.PLP.part.hbond>
-3.0000

> <Gold.PLP.part.metal>
0.0000

> <Gold.PLP.part.buried>
-4.7462

> <Gold.PLP.part.nonpolar>
-43.4180

> <Gold.PLP.part.repulsive>
0.1571

> <Gold.PLP.ligand.clash>
0.0000

> <Gold.PLP.ligand.torsion>
2.5190

> <Gold.PLP.Chemscore.Hbond>
1.4960

> <Gold.PLP.Chemscore.CHOScore>
0.0000

> <Gold.PLP.Chemscore.Metal>
0.0000

> <Gold.Chemscore.Hbonds>
donor molecule, donor type, donor heavy atom, donor atom, acceptor molecule, acceptor atom, score
      P1  H  6896  6909       L1    12  1.00
      P1  H  6934  6947       L1    21  0.63

> <Gold.PLP.Chemscore.Internal.Correction>
1.1306

> <Gold.Rescore>
     Score         DG    S(hbond)    S(metal)    S(lipo)     H(rot)  DE(clash)    DE(int)     intcor
     14.78     -17.58       1.61        0.00     115.48       2.65       0.00       2.79       ----

> <Gold.Chemscore.Fitness>
14.7843

> <Gold.Chemscore.DG>
-17.5825

> <Gold.Chemscore.ZeroCoef>
-5.4800

> <Gold.Chemscore.Hbond>
1.6105

> <Gold.Chemscore.Metal>
0.0000

> <Gold.Chemscore.Lipo>
115.4830

> <Gold.Chemscore.Internal_Hbond>
0.0000

> <Gold.Chemscore.DEClash>
0.0044

> <Gold.Chemscore.DEInternal>
2.7938

> <Gold.Chemscore.Rot>
2.6515

> <Gold.Chemscore.Internal.Correction>
   9.000000E+99

> <Gold.Chemscore.Hbonds>
donor molecule, donor type, donor heavy atom, donor atom, acceptor molecule, acceptor atom, score
      P1  H  6896  6909       L1    12  0.92
      P1  H  6934  6947       L1    21  0.13

> <Gold.Chemscore.Hbond.Weighted>
-5.3789

> <Gold.Chemscore.Metal.Weighted>
-0.0000

> <Gold.Chemscore.Lipo.Weighted>
-13.5115

> <Gold.Chemscore.Internal_Hbond.Weighted>
0.0000

> <Gold.Chemscore.DEClash.Weighted>
0.0044

> <Gold.Chemscore.DEInternal.Weighted>
2.7938

> <Gold.Chemscore.Rot.Weighted>
6.7880

> <Gold.Chemscore.Internal.Correction.Weighted>
   9.000000E+99

> <Gold.Protein.RotatedTorsions>
[ 6907 6896 6895 6894 ] final  114.68 input  -60.11 | X-H torsion
[ 7974 7965 7964 7962 ] final  -78.46 input  175.53 | X-H torsion
[ 8008 7997 7996 7995 ] final   58.48 input   59.86 | X-H torsion
[ 10167 10162 10161 10158 ] final  152.42 input  -65.29 | X-H torsion
[ 10718 10713 10712 10709 ] final  155.05 input   66.30 | X-H torsion
[ 10763 10752 10751 10750 ] final -128.45 input  -60.55 | X-H torsion
[ 11005 11000 10999 10996 ] final   96.66 input  -57.11 | X-H torsion

> <Gold.Protein.ActiveResidues>
 VAL166  LYS551  ARG553  GLY616  TRP617  ASP618  TYR619  PRO620  LYS621  CYS622 
 ASP623  PHE694  ASN695  SER759  ASP760  ASP761  ALA762  ILE779  LEU786  VAL792 
 PHE793  MET794  SER795  GLU796  ALA797  LYS798  CYS799  TRP800  GLU811  SER814 

> <Gold.Protein.RotatedAtoms>
  152.4788  133.8202  159.7049 H   0  0  0  0  0  0  0  0  0  0  0  0  # atno 6907 bound_to 6896
  150.8822  133.7347  159.2935 H   0  0  0  0  0  0  0  0  0  0  0  0  # atno 6908 bound_to 6896
  151.4847  135.1058  159.9839 H   0  0  0  0  0  0  0  0  0  0  0  0  # atno 6909 bound_to 6896
  145.5862  140.9439  143.1317 H   0  0  0  0  0  0  0  0  0  0  0  0  # atno 7974 bound_to 7965
  155.5507  140.3486  155.4468 H   0  0  0  0  0  0  0  0  0  0  0  0  # atno 8008 bound_to 7997
  156.0585  140.1334  156.9995 H   0  0  0  0  0  0  0  0  0  0  0  0  # atno 8009 bound_to 7997
  154.4468  140.0990  156.6466 H   0  0  0  0  0  0  0  0  0  0  0  0  # atno 8010 bound_to 7997
  139.4833  144.5359  151.7646 H   0  0  0  0  0  0  0  0  0  0  0  0  # atno 10167 bound_to 10162
  157.2235  131.0723  151.1897 H   0  0  0  0  0  0  0  0  0  0  0  0  # atno 10718 bound_to 10713
  154.8756  135.3928  154.3759 H   0  0  0  0  0  0  0  0  0  0  0  0  # atno 10763 bound_to 10752
  153.4513  135.7028  153.6112 H   0  0  0  0  0  0  0  0  0  0  0  0  # atno 10764 bound_to 10752
  153.4651  135.3803  155.2329 H   0  0  0  0  0  0  0  0  0  0  0  0  # atno 10765 bound_to 10752
  139.8780  134.8962  156.4192 H   0  0  0  0  0  0  0  0  0  0  0  0  # atno 11005 bound_to 11000
  144.7372  139.7552  143.7325 LP  0  0  0  0  0  0  0  0  0  0  0  0  # atno 17320 bound_to 7965
  146.1680  139.4820  142.9945 LP  0  0  0  0  0  0  0  0  0  0  0  0  # atno 17321 bound_to 7965
  140.4892  144.1336  150.5947 LP  0  0  0  0  0  0  0  0  0  0  0  0  # atno 17342 bound_to 10162
  140.4191  143.2620  151.9738 LP  0  0  0  0  0  0  0  0  0  0  0  0  # atno 17343 bound_to 10162
  157.3552  130.7102  149.6466 LP  0  0  0  0  0  0  0  0  0  0  0  0  # atno 17370 bound_to 10713
  155.9680  130.4241  150.4594 LP  0  0  0  0  0  0  0  0  0  0  0  0  # atno 17371 bound_to 10713
  140.9146  133.7688  155.9832 LP  0  0  0  0  0  0  0  0  0  0  0  0  # atno 17394 bound_to 11000
  140.8508  134.2956  157.5276 LP  0  0  0  0  0  0  0  0  0  0  0  0  # atno 17395 bound_to 11000

$$$$
