AV-unprocessed.smi:3343|AV-procd|sdf|12894|dock3
  -GOLD-   2272019303D 1   1.00000     0.00000
 Structure written by MMmdl.
 41 42  0  0  0  0  0  0  0  0  1 V2000
  148.2980  138.6737  155.3640 C   0  0  0  0  0  0  0  0  0  0  0  0
  149.3890  139.5598  154.7289 C   0  0  1  0  0  0  0  0  0  0  0  0
  149.5175  140.9204  155.4303 C   0  0  0  0  0  0  0  0  0  0  0  0
  149.6183  141.9557  154.7713 O   0  0  0  0  0  0  0  0  0  0  0  0
  149.5128  140.8996  156.7728 N   0  0  0  0  0  0  0  0  0  0  0  0
  149.6521  142.0670  157.6373 C   0  0  0  0  0  0  0  0  0  0  0  0
  151.0000  142.7803  157.4133 C   0  0  0  0  0  0  0  0  0  0  0  0
  151.7509  143.1069  158.6254 N   0  0  0  0  0  0  0  0  0  0  0  0
  151.0544  144.0760  159.4771 C   0  0  0  0  0  0  0  0  0  0  0  0
  151.8745  144.4096  160.7372 C   0  0  0  0  0  0  0  0  0  0  0  0
  152.1533  143.2109  161.5255 N   0  0  0  0  0  0  0  0  0  0  0  0
  152.9250  143.5239  162.7183 C   0  0  0  0  0  0  0  0  0  0  0  0
  152.8421  142.2381  160.6801 C   0  0  0  0  0  0  0  0  0  0  0  0
  152.0203  141.9082  159.4200 C   0  0  0  0  0  0  0  0  0  0  0  0
  150.6859  138.8957  154.6790 N   0  0  0  0  0  0  0  0  0  0  0  0
  150.9971  137.6520  154.3074 C   0  0  0  0  0  0  0  0  0  0  0  0
  152.2958  137.3884  154.3382 N   0  0  0  0  0  0  0  0  0  0  0  0
  152.7644  138.6022  154.7540 C   0  0  0  0  0  0  0  0  0  0  0  0
  151.8441  139.5433  154.9620 N   0  0  0  0  0  0  0  0  0  0  0  0
  147.3282  139.1720  155.3433 H   0  0  0  0  0  0  0  0  0  0  0  0
  148.5193  138.4284  156.4036 H   0  0  0  0  0  0  0  0  0  0  0  0
  148.1944  137.7353  154.8185 H   0  0  0  0  0  0  0  0  0  0  0  0
  149.0876  139.7470  153.6966 H   0  0  0  0  0  0  0  0  0  0  0  0
  149.4266  140.0044  157.2312 H   0  0  0  0  0  0  0  0  0  0  0  0
  148.8077  142.7486  157.5295 H   0  0  0  0  0  0  0  0  0  0  0  0
  149.6103  141.7107  158.6667 H   0  0  0  0  0  0  0  0  0  0  0  0
  151.6215  142.1700  156.7565 H   0  0  0  0  0  0  0  0  0  0  0  0
  150.8004  143.6987  156.8596 H   0  0  0  0  0  0  0  0  0  0  0  0
  150.8710  145.0002  158.9309 H   0  0  0  0  0  0  0  0  0  0  0  0
  150.0774  143.6863  159.7671 H   0  0  0  0  0  0  0  0  0  0  0  0
  152.8087  144.8931  160.4465 H   0  0  0  0  0  0  0  0  0  0  0  0
  151.3259  145.1305  161.3445 H   0  0  0  0  0  0  0  0  0  0  0  0
  153.1055  142.6248  163.3084 H   0  0  0  0  0  0  0  0  0  0  0  0
  152.3887  144.2332  163.3493 H   0  0  0  0  0  0  0  0  0  0  0  0
  153.8907  143.9604  162.4601 H   0  0  0  0  0  0  0  0  0  0  0  0
  153.8206  142.6229  160.3874 H   0  0  0  0  0  0  0  0  0  0  0  0
  153.0224  141.3222  161.2440 H   0  0  0  0  0  0  0  0  0  0  0  0
  151.0822  141.4307  159.7081 H   0  0  0  0  0  0  0  0  0  0  0  0
  152.5677  141.1820  158.8178 H   0  0  0  0  0  0  0  0  0  0  0  0
  150.2581  136.9245  154.0046 H   0  0  0  0  0  0  0  0  0  0  0  0
  153.8158  138.8002  154.9023 H   0  0  0  0  0  0  0  0  0  0  0  0
  1  2  1  0  0  0  0
  1 20  1  0  0  0  0
  1 21  1  0  0  0  0
  1 22  1  0  0  0  0
  2  3  1  0  0  0  0
  2 15  1  0  0  0  0
  2 23  1  0  0  0  0
  3  4  2  0  0  0  0
  3  5  1  0  0  0  0
  5  6  1  0  0  0  0
  5 24  1  0  0  0  0
  6  7  1  0  0  0  0
  6 25  1  0  0  0  0
  6 26  1  0  0  0  0
  7  8  1  0  0  0  0
  7 27  1  0  0  0  0
  7 28  1  0  0  0  0
  8 14  1  0  0  0  0
  8  9  1  0  0  0  0
  9 10  1  0  0  0  0
  9 29  1  0  0  0  0
  9 30  1  0  0  0  0
 10 11  1  0  0  0  0
 10 31  1  0  0  0  0
 10 32  1  0  0  0  0
 11 12  1  0  0  0  0
 11 13  1  0  0  0  0
 12 33  1  0  0  0  0
 12 34  1  0  0  0  0
 12 35  1  0  0  0  0
 13 14  1  0  0  0  0
 13 36  1  0  0  0  0
 13 37  1  0  0  0  0
 14 38  1  0  0  0  0
 14 39  1  0  0  0  0
 15 19  1  0  0  0  0
 15 16  1  0  0  0  0
 16 17  2  0  0  0  0
 16 40  1  0  0  0  0
 17 18  1  0  0  0  0
 18 19  2  0  0  0  0
 18 41  1  0  0  0  0
M  END
> <s_m_source_file>
AV-unprocessed.smi

> <i_m_source_file_index>
3343

> <i_lp_mmshare_version>
43012

> <i_f3d_flags>
0

> <s_epik_input>
bjFbY0hdbltjSF1uMVtDQEhdKFtDSDNdKUMoPU8pW05IXVtDSDJdW0NIMl1OMltDSDJdW0NIMl1OKFtDSDNdKVtDSDJdW0NIMl0y

> <s_epik_cmdline>
J2VwaWtfcHl0aG9uJywgJy1waCcsICc3LjAnLCAnLXRuJywgJzgnLCAnLW1hJywgJzIwMCcsICctbWV0YWxfYmluZGluZycsICctaW1hZScsICc8aW5maWxlLm1hZT4nLCAnLW9tYWUnLCAnPG91dGZpbGUubWFlPic=

> <r_lp_tautomer_probability>
1

> <r_epik_Ionization_Penalty>
1.97295

> <r_epik_Ionization_Penalty_Charging>
0

> <r_epik_Ionization_Penalty_Neutral>
1.97295

> <r_epik_State_Penalty>
1.8027

> <r_epik_Charging_Adjusted_Penalty>
1.8027

> <i_epik_Tot_Q>
0

> <i_epik_Tot_abs_Q>
0

> <r_epik_Metal_State_Penalty>
1.8027

> <b_epik_Metal_Only>
0

> <s_lp_Force_Field>
OPLS_2005

> <r_lp_Energy>
40.9653

> <b_lp_Chiralities_Consistent>
1

> <s_lp_Variant>
AV-unprocessed.smi:3343-4

> <Gold.Version>
5.8.1

> <Gold.Id.Protein>
6NUR|6NUR_protein|mol2

> <Gold.PLP.Fitness>
44.1190

> <Gold.PLP.PLP>
-38.6040

> <Gold.PLP.part.hbond>
-3.5879

> <Gold.PLP.part.metal>
0.0000

> <Gold.PLP.part.buried>
-6.6584

> <Gold.PLP.part.nonpolar>
-31.0713

> <Gold.PLP.part.repulsive>
1.9431

> <Gold.PLP.ligand.clash>
0.0000

> <Gold.PLP.ligand.torsion>
1.1833

> <Gold.PLP.Chemscore.Hbond>
1.5520

> <Gold.PLP.Chemscore.CHOScore>
1.0303

> <Gold.PLP.Chemscore.Metal>
0.0000

> <Gold.Chemscore.Hbonds>
donor molecule, donor type, donor heavy atom, donor atom, acceptor molecule, acceptor atom, score
      P1  H  7989  7998       L1    19  0.75
      P1  H 10752 10765       L1    17  0.75
      L1  C    16    40       P1  7948  0.89
      L1  C    16    40       P1  7949  0.04

> <Gold.PLP.Chemscore.Internal.Correction>
0.1347

> <Gold.Rescore>
     Score         DG    S(hbond)    S(metal)    S(lipo)     H(rot)  DE(clash)    DE(int)     intcor
     12.01     -13.72       1.92        0.00      71.59       2.56       0.33       1.38       ----

> <Gold.Chemscore.Fitness>
12.0127

> <Gold.Chemscore.DG>
-13.7175

> <Gold.Chemscore.ZeroCoef>
-5.4800

> <Gold.Chemscore.Hbond>
1.9191

> <Gold.Chemscore.Metal>
0.0000

> <Gold.Chemscore.Lipo>
71.5852

> <Gold.Chemscore.Internal_Hbond>
0.0000

> <Gold.Chemscore.DEClash>
0.3266

> <Gold.Chemscore.DEInternal>
1.3782

> <Gold.Chemscore.Rot>
2.5577

> <Gold.Chemscore.Internal.Correction>
   9.000000E+99

> <Gold.Chemscore.Hbonds>
donor molecule, donor type, donor heavy atom, donor atom, acceptor molecule, acceptor atom, score
      P1  H  7989  7998       L1    19  0.08
      P1  H  8011  8017       L1     4  0.01
      P1  H 10752 10765       L1    17  0.73

> <Gold.Chemscore.Hbond.Weighted>
-6.4097

> <Gold.Chemscore.Metal.Weighted>
-0.0000

> <Gold.Chemscore.Lipo.Weighted>
-8.3755

> <Gold.Chemscore.Internal_Hbond.Weighted>
0.0000

> <Gold.Chemscore.DEClash.Weighted>
0.3266

> <Gold.Chemscore.DEInternal.Weighted>
1.3782

> <Gold.Chemscore.Rot.Weighted>
6.5477

> <Gold.Chemscore.Internal.Correction.Weighted>
   9.000000E+99

> <Gold.Protein.RotatedTorsions>
[ 6907 6896 6895 6894 ] final -130.68 input  -60.11 | X-H torsion
[ 7974 7965 7964 7962 ] final  -81.39 input  175.53 | X-H torsion
[ 8008 7997 7996 7995 ] final  155.63 input   59.86 | X-H torsion
[ 10167 10162 10161 10158 ] final   69.37 input  -65.29 | X-H torsion
[ 10718 10713 10712 10709 ] final  106.17 input   66.30 | X-H torsion
[ 10763 10752 10751 10750 ] final  166.18 input  -60.55 | X-H torsion
[ 11005 11000 10999 10996 ] final   86.75 input  -57.11 | X-H torsion

> <Gold.Protein.ActiveResidues>
 VAL166  LYS551  ARG553  GLY616  TRP617  ASP618  TYR619  PRO620  LYS621  CYS622 
 ASP623  PHE694  ASN695  SER759  ASP760  ASP761  ALA762  ILE779  LEU786  VAL792 
 PHE793  MET794  SER795  GLU796  ALA797  LYS798  CYS799  TRP800  GLU811  SER814 

> <Gold.Protein.RotatedAtoms>
  150.9424  133.6641  159.2787 H   0  0  0  0  0  0  0  0  0  0  0  0  # atno 6907 bound_to 6896
  151.4025  135.0972  159.9570 H   0  0  0  0  0  0  0  0  0  0  0  0  # atno 6908 bound_to 6896
  152.5075  133.8915  159.7451 H   0  0  0  0  0  0  0  0  0  0  0  0  # atno 6909 bound_to 6896
  145.5473  140.9501  143.1518 H   0  0  0  0  0  0  0  0  0  0  0  0  # atno 7974 bound_to 7965
  156.2468  140.1934  156.6830 H   0  0  0  0  0  0  0  0  0  0  0  0  # atno 8008 bound_to 7997
  154.6307  140.0596  156.9755 H   0  0  0  0  0  0  0  0  0  0  0  0  # atno 8009 bound_to 7997
  155.1715  140.3268  155.4394 H   0  0  0  0  0  0  0  0  0  0  0  0  # atno 8010 bound_to 7997
  140.0686  144.5172  150.7243 H   0  0  0  0  0  0  0  0  0  0  0  0  # atno 10167 bound_to 10162
  157.6678  131.0844  150.5967 H   0  0  0  0  0  0  0  0  0  0  0  0  # atno 10718 bound_to 10713
  154.3352  135.2754  155.2451 H   0  0  0  0  0  0  0  0  0  0  0  0  # atno 10763 bound_to 10752
  154.4746  135.5874  153.6349 H   0  0  0  0  0  0  0  0  0  0  0  0  # atno 10764 bound_to 10752
  152.9862  135.6096  154.3548 H   0  0  0  0  0  0  0  0  0  0  0  0  # atno 10765 bound_to 10752
  139.8936  134.8376  156.2764 H   0  0  0  0  0  0  0  0  0  0  0  0  # atno 11005 bound_to 11000
  144.7547  139.7105  143.7259 LP  0  0  0  0  0  0  0  0  0  0  0  0  # atno 17320 bound_to 7965
  146.1941  139.5197  142.9786 LP  0  0  0  0  0  0  0  0  0  0  0  0  # atno 17321 bound_to 7965
  140.7137  143.2526  151.4502 LP  0  0  0  0  0  0  0  0  0  0  0  0  # atno 17342 bound_to 10162
  139.5850  144.1625  152.2017 LP  0  0  0  0  0  0  0  0  0  0  0  0  # atno 17343 bound_to 10162
  156.6267  130.4420  149.5802 LP  0  0  0  0  0  0  0  0  0  0  0  0  # atno 17370 bound_to 10713
  156.2313  130.6796  151.1466 LP  0  0  0  0  0  0  0  0  0  0  0  0  # atno 17371 bound_to 10713
  141.0067  133.7119  156.1046 LP  0  0  0  0  0  0  0  0  0  0  0  0  # atno 17394 bound_to 11000
  140.7424  134.4136  157.5553 LP  0  0  0  0  0  0  0  0  0  0  0  0  # atno 17395 bound_to 11000

$$$$
