AV-unprocessed.smi:1563|AV-procd|sdf|6291|dock4
  -GOLD-   22720 6493D 1   1.00000     0.00000
 Structure written by MMmdl.
 44 45  0  0  0  0  0  0  0  0  2 V2000
  150.5490  134.9964  154.8746 C   0  0  0  0  0  0  0  0  0  0  0  0
  150.2672  136.3327  155.5525 C   0  0  0  0  0  0  0  0  0  0  0  0
  150.4352  136.4581  156.7658 O   0  0  0  0  0  0  0  0  0  0  0  0
  149.8378  137.3225  154.7548 N   0  0  0  0  0  0  0  0  0  0  0  0
  149.5195  138.6754  155.1977 C   0  0  2  0  0  0  0  0  0  0  0  0
  148.1714  139.1342  154.6028 C   0  0  0  0  0  0  0  0  0  0  0  0
  147.8778  140.6128  154.9285 C   0  0  0  0  0  0  0  0  0  0  0  0
  149.0853  141.5054  154.5862 C   0  0  0  0  0  0  0  0  0  0  0  0
  150.2663  140.9891  155.2969 N   0  0  0  0  0  0  0  0  0  0  0  0
  150.8320  141.5199  156.4087 C   0  0  0  0  0  0  0  0  0  0  0  0
  151.6847  140.9329  157.0763 O   0  0  0  0  0  0  0  0  0  0  0  0
  150.3186  142.7040  156.7882 N   0  0  0  0  0  0  0  0  0  0  0  0
  150.5961  143.3809  158.0536 C   0  0  0  0  0  0  0  0  0  0  0  0
  152.1095  143.5358  158.3162 C   0  0  0  0  0  0  0  0  0  0  0  0
  152.5013  143.3870  159.7777 C   0  0  0  0  0  0  0  0  0  0  0  0
  152.0124  144.2553  160.7791 C   0  0  0  0  0  0  0  0  0  0  0  0
  152.3784  144.0331  162.1229 C   0  0  0  0  0  0  0  0  0  0  0  0
  153.2234  142.9493  162.4380 C   0  0  0  0  0  0  0  0  0  0  0  0
  153.6883  142.1183  161.3987 C   0  0  0  0  0  0  0  0  0  0  0  0
  153.3188  142.3657  160.1226 N   0  3  0  0  0  0  0  0  0  0  0  0
  150.6425  139.6592  154.8052 C   0  0  0  0  0  0  0  0  0  0  0  0
  151.2905  135.1188  154.0845 H   0  0  0  0  0  0  0  0  0  0  0  0
  149.6368  134.5934  154.4341 H   0  0  0  0  0  0  0  0  0  0  0  0
  150.9322  134.2699  155.5921 H   0  0  0  0  0  0  0  0  0  0  0  0
  149.7297  137.1261  153.7701 H   0  0  0  0  0  0  0  0  0  0  0  0
  149.4188  138.6792  156.2843 H   0  0  0  0  0  0  0  0  0  0  0  0
  148.1937  139.0110  153.5190 H   0  0  0  0  0  0  0  0  0  0  0  0
  147.3606  138.5031  154.9684 H   0  0  0  0  0  0  0  0  0  0  0  0
  146.9952  140.9472  154.3827 H   0  0  0  0  0  0  0  0  0  0  0  0
  147.6420  140.7126  155.9888 H   0  0  0  0  0  0  0  0  0  0  0  0
  149.2737  141.4777  153.5119 H   0  0  0  0  0  0  0  0  0  0  0  0
  148.8645  142.5492  154.8107 H   0  0  0  0  0  0  0  0  0  0  0  0
  149.6214  143.1251  156.1912 H   0  0  0  0  0  0  0  0  0  0  0  0
  150.1124  144.3588  158.0746 H   0  0  0  0  0  0  0  0  0  0  0  0
  150.1419  142.8043  158.8594 H   0  0  0  0  0  0  0  0  0  0  0  0
  152.6620  142.8042  157.7254 H   0  0  0  0  0  0  0  0  0  0  0  0
  152.4377  144.5152  157.9656 H   0  0  0  0  0  0  0  0  0  0  0  0
  151.3528  145.0722  160.5249 H   0  0  0  0  0  0  0  0  0  0  0  0
  152.0066  144.6799  162.9042 H   0  0  0  0  0  0  0  0  0  0  0  0
  153.5064  142.7550  163.4624 H   0  0  0  0  0  0  0  0  0  0  0  0
  154.3333  141.2648  161.5489 H   0  0  0  0  0  0  0  0  0  0  0  0
  151.6006  139.3204  155.2025 H   0  0  0  0  0  0  0  0  0  0  0  0
  150.7657  139.6885  153.7214 H   0  0  0  0  0  0  0  0  0  0  0  0
  153.6562  141.7421  159.3890 H   0  0  0  0  0  0  0  0  0  0  0  0
  1  2  1  0  0  0  0
  1 22  1  0  0  0  0
  1 23  1  0  0  0  0
  1 24  1  0  0  0  0
  2  3  2  0  0  0  0
  2  4  1  0  0  0  0
  4  5  1  0  0  0  0
  4 25  1  0  0  0  0
  5 21  1  0  0  0  0
  5  6  1  0  0  0  0
  5 26  1  0  0  0  0
  6  7  1  0  0  0  0
  6 27  1  0  0  0  0
  6 28  1  0  0  0  0
  7  8  1  0  0  0  0
  7 29  1  0  0  0  0
  7 30  1  0  0  0  0
  8  9  1  0  0  0  0
  8 31  1  0  0  0  0
  8 32  1  0  0  0  0
  9 10  1  0  0  0  0
  9 21  1  0  0  0  0
 10 11  2  0  0  0  0
 10 12  1  0  0  0  0
 12 13  1  0  0  0  0
 12 33  1  0  0  0  0
 13 14  1  0  0  0  0
 13 34  1  0  0  0  0
 13 35  1  0  0  0  0
 14 15  1  0  0  0  0
 14 36  1  0  0  0  0
 14 37  1  0  0  0  0
 15 20  1  0  0  0  0
 15 16  2  0  0  0  0
 16 17  1  0  0  0  0
 16 38  1  0  0  0  0
 17 18  2  0  0  0  0
 17 39  1  0  0  0  0
 18 19  1  0  0  0  0
 18 40  1  0  0  0  0
 19 20  2  0  0  0  0
 19 41  1  0  0  0  0
 20 44  1  0  0  0  0
 21 42  1  0  0  0  0
 21 43  1  0  0  0  0
M  CHG  1  20   1
M  END
> <s_m_source_file>
AV-unprocessed.smi

> <i_m_source_file_index>
1563

> <i_lp_mmshare_version>
43012

> <i_f3d_flags>
0

> <s_epik_input>
W0NIM11DKD1PKVtOSF1bQ0BASF0xW0NIMl1bQ0gyXVtDSDJdTihbQ0gyXTEpQyg9TylbTkhdW0NIMl1bQ0gyXWMyW2NIXVtjSF1bY0hdW2NIXW4y

> <s_epik_cmdline>
J2VwaWtfcHl0aG9uJywgJy1waCcsICc3LjAnLCAnLXRuJywgJzgnLCAnLW1hJywgJzIwMCcsICctbWV0YWxfYmluZGluZycsICctaW1hZScsICc8aW5maWxlLm1hZT4nLCAnLW9tYWUnLCAnPG91dGZpbGUubWFlPic=

> <r_epik_Ionization_Penalty>
1.56048

> <r_epik_Ionization_Penalty_Charging>
1.56043

> <r_epik_Ionization_Penalty_Neutral>
4.90601e-05

> <r_epik_State_Penalty>
1.65539

> <r_epik_Charging_Adjusted_Penalty>
3.21583

> <i_epik_Tot_Q>
1

> <i_epik_Tot_abs_Q>
1

> <r_epik_Metal_State_Penalty>
1.6969

> <b_epik_Metal_Only>
0

> <s_lp_Force_Field>
OPLS_2005

> <r_lp_Energy>
29.9669

> <b_lp_Chiralities_Consistent>
1

> <s_lp_Variant>
AV-unprocessed.smi:1563-3

> <Gold.Version>
5.8.1

> <Gold.Id.Protein>
6NUR|6NUR_protein|mol2

> <Gold.PLP.Fitness>
50.5540

> <Gold.PLP.PLP>
-45.5845

> <Gold.PLP.part.hbond>
-2.0000

> <Gold.PLP.part.metal>
0.0000

> <Gold.PLP.part.buried>
-3.7428

> <Gold.PLP.part.nonpolar>
-39.3323

> <Gold.PLP.part.repulsive>
0.1122

> <Gold.PLP.ligand.clash>
0.0000

> <Gold.PLP.ligand.torsion>
0.4845

> <Gold.PLP.Chemscore.Hbond>
1.9440

> <Gold.PLP.Chemscore.CHOScore>
0.0000

> <Gold.PLP.Chemscore.Metal>
0.0000

> <Gold.Chemscore.Hbonds>
donor molecule, donor type, donor heavy atom, donor atom, acceptor molecule, acceptor atom, score
      L1  H     4    25       P1  7948  0.54
      L1  H    12    33       P1  8028  0.88

> <Gold.PLP.Chemscore.Internal.Correction>
0.1066

> <Gold.Rescore>
     Score         DG    S(hbond)    S(metal)    S(lipo)     H(rot)  DE(clash)    DE(int)     intcor
     17.95     -19.78       1.74        0.00     111.11       1.77       0.13       1.70       ----

> <Gold.Chemscore.Fitness>
17.9523

> <Gold.Chemscore.DG>
-19.7818

> <Gold.Chemscore.ZeroCoef>
-5.4800

> <Gold.Chemscore.Hbond>
1.7434

> <Gold.Chemscore.Metal>
0.0000

> <Gold.Chemscore.Lipo>
111.1116

> <Gold.Chemscore.Internal_Hbond>
0.0000

> <Gold.Chemscore.DEClash>
0.1290

> <Gold.Chemscore.DEInternal>
1.7004

> <Gold.Chemscore.Rot>
1.7661

> <Gold.Chemscore.Internal.Correction>
   9.000000E+99

> <Gold.Chemscore.Hbonds>
donor molecule, donor type, donor heavy atom, donor atom, acceptor molecule, acceptor atom, score
      L1  H     4    25       P1  7948  0.40
      L1  H    12    33       P1  8028  0.87

> <Gold.Chemscore.Hbond.Weighted>
-5.8229

> <Gold.Chemscore.Metal.Weighted>
-0.0000

> <Gold.Chemscore.Lipo.Weighted>
-13.0001

> <Gold.Chemscore.Internal_Hbond.Weighted>
0.0000

> <Gold.Chemscore.DEClash.Weighted>
0.1290

> <Gold.Chemscore.DEInternal.Weighted>
1.7004

> <Gold.Chemscore.Rot.Weighted>
4.5211

> <Gold.Chemscore.Internal.Correction.Weighted>
   9.000000E+99

> <Gold.Protein.RotatedTorsions>
[ 6907 6896 6895 6894 ] final  -36.88 input  -60.11 | X-H torsion
[ 7974 7965 7964 7962 ] final  100.59 input  175.53 | X-H torsion
[ 8008 7997 7996 7995 ] final -123.98 input   59.86 | X-H torsion
[ 10167 10162 10161 10158 ] final    9.25 input  -65.29 | X-H torsion
[ 10718 10713 10712 10709 ] final  108.07 input   66.30 | X-H torsion
[ 10763 10752 10751 10750 ] final   -2.61 input  -60.55 | X-H torsion
[ 11005 11000 10999 10996 ] final -105.94 input  -57.11 | X-H torsion

> <Gold.Protein.ActiveResidues>
 VAL166  LYS551  ARG553  GLY616  TRP617  ASP618  TYR619  PRO620  LYS621  CYS622 
 ASP623  PHE694  ASN695  SER759  ASP760  ASP761  ALA762  ILE779  LEU786  VAL792 
 PHE793  MET794  SER795  GLU796  ALA797  LYS798  CYS799  TRP800  GLU811  SER814 

> <Gold.Protein.RotatedAtoms>
  151.0216  134.9473  159.8062 H   0  0  0  0  0  0  0  0  0  0  0  0  # atno 6907 bound_to 6896
  152.5326  134.2896  159.9048 H   0  0  0  0  0  0  0  0  0  0  0  0  # atno 6908 bound_to 6896
  151.2903  133.4126  159.2667 H   0  0  0  0  0  0  0  0  0  0  0  0  # atno 6909 bound_to 6896
  145.3835  139.2375  143.3390 H   0  0  0  0  0  0  0  0  0  0  0  0  # atno 7974 bound_to 7965
  155.1895  140.0413  157.2897 H   0  0  0  0  0  0  0  0  0  0  0  0  # atno 8008 bound_to 7997
  154.6149  140.2486  155.7594 H   0  0  0  0  0  0  0  0  0  0  0  0  # atno 8009 bound_to 7997
  156.2400  140.2907  156.0428 H   0  0  0  0  0  0  0  0  0  0  0  0  # atno 8010 bound_to 7997
  140.6266  143.8087  150.7241 H   0  0  0  0  0  0  0  0  0  0  0  0  # atno 10167 bound_to 10162
  157.6602  131.0886  150.6250 H   0  0  0  0  0  0  0  0  0  0  0  0  # atno 10718 bound_to 10713
  153.3603  135.6990  153.6717 H   0  0  0  0  0  0  0  0  0  0  0  0  # atno 10763 bound_to 10752
  153.5408  135.3573  155.2718 H   0  0  0  0  0  0  0  0  0  0  0  0  # atno 10764 bound_to 10752
  154.8667  135.4203  154.2859 H   0  0  0  0  0  0  0  0  0  0  0  0  # atno 10765 bound_to 10752
  141.1029  133.8851  157.1795 H   0  0  0  0  0  0  0  0  0  0  0  0  # atno 11005 bound_to 11000
  146.2831  140.4506  142.8768 LP  0  0  0  0  0  0  0  0  0  0  0  0  # atno 17320 bound_to 7965
  144.8490  140.6973  143.6180 LP  0  0  0  0  0  0  0  0  0  0  0  0  # atno 17321 bound_to 7965
  140.1689  143.4211  152.2015 LP  0  0  0  0  0  0  0  0  0  0  0  0  # atno 17342 bound_to 10162
  139.5485  144.7319  151.4507 LP  0  0  0  0  0  0  0  0  0  0  0  0  # atno 17343 bound_to 10162
  156.6553  130.4497  149.5705 LP  0  0  0  0  0  0  0  0  0  0  0  0  # atno 17370 bound_to 10713
  156.2107  130.6677  151.1266 LP  0  0  0  0  0  0  0  0  0  0  0  0  # atno 17371 bound_to 10713
  139.9887  135.0072  156.9924 LP  0  0  0  0  0  0  0  0  0  0  0  0  # atno 17394 bound_to 11000
  140.4977  134.1129  155.7244 LP  0  0  0  0  0  0  0  0  0  0  0  0  # atno 17395 bound_to 11000

$$$$
