AV-unprocessed.smi:2021|AV-procd|sdf|8178|dock2
  -GOLD-   2272010423D 1   1.00000     0.00000
 Structure written by MMmdl.
 42 43  0  0  0  0  0  0  0  0  2 V2000
  145.7309  134.4838  150.7833 C   0  0  0  0  0  0  0  0  0  0  0  0
  146.3557  133.0858  150.6399 C   0  0  0  0  0  0  0  0  0  0  0  0
  145.7052  132.3243  149.4750 C   0  0  0  0  0  0  0  0  0  0  0  0
  146.2457  132.2709  151.9464 C   0  0  0  0  0  0  0  0  0  0  0  0
  147.5622  131.9970  152.5773 N   0  3  2  0  0  0  0  0  0  0  0  0
  147.6167  130.7047  153.3044 C   0  0  0  0  0  0  0  0  0  0  0  0
  149.0158  130.4849  153.9015 C   0  0  0  0  0  0  0  0  0  0  0  0
  149.3469  131.5792  154.7453 O   0  0  0  0  0  0  0  0  0  0  0  0
  149.4055  132.8133  154.0372 C   0  0  2  0  0  0  0  0  0  0  0  0
  149.8644  133.9235  154.9994 C   0  0  0  0  0  0  0  0  0  0  0  0
  149.6099  135.2535  154.4550 N   0  0  0  0  0  0  0  0  0  0  0  0
  149.9396  136.4063  155.0555 C   0  0  0  0  0  0  0  0  0  0  0  0
  150.5028  136.4632  156.1489 O   0  0  0  0  0  0  0  0  0  0  0  0
  149.5786  137.4655  154.3101 N   0  0  0  0  0  0  0  0  0  0  0  0
  149.7518  138.8450  154.6002 C   0  0  0  0  0  0  0  0  0  0  0  0
  150.8659  139.3570  155.1467 N   0  0  0  0  0  0  0  0  0  0  0  0
  150.7722  140.7310  155.3264 N   0  0  0  0  0  0  0  0  0  0  0  0
  149.5934  141.2007  154.9087 C   0  0  0  0  0  0  0  0  0  0  0  0
  148.4828  140.0106  154.2523 S   0  0  0  0  0  0  0  0  0  0  0  0
  148.0079  133.1045  153.4562 C   0  0  0  0  0  0  0  0  0  0  0  0
  144.6752  134.4202  151.0492 H   0  0  0  0  0  0  0  0  0  0  0  0
  145.8046  135.0446  149.8511 H   0  0  0  0  0  0  0  0  0  0  0  0
  146.2338  135.0694  151.5531 H   0  0  0  0  0  0  0  0  0  0  0  0
  147.4071  133.2127  150.3833 H   0  0  0  0  0  0  0  0  0  0  0  0
  144.6419  132.1595  149.6524 H   0  0  0  0  0  0  0  0  0  0  0  0
  146.1733  131.3500  149.3316 H   0  0  0  0  0  0  0  0  0  0  0  0
  145.8044  132.8753  148.5393 H   0  0  0  0  0  0  0  0  0  0  0  0
  145.6202  132.8303  152.6440 H   0  0  0  0  0  0  0  0  0  0  0  0
  145.7296  131.3260  151.7690 H   0  0  0  0  0  0  0  0  0  0  0  0
  146.8698  130.6991  154.0997 H   0  0  0  0  0  0  0  0  0  0  0  0
  147.3787  129.8779  152.6363 H   0  0  0  0  0  0  0  0  0  0  0  0
  149.0341  129.5676  154.4902 H   0  0  0  0  0  0  0  0  0  0  0  0
  149.7645  130.3743  153.1156 H   0  0  0  0  0  0  0  0  0  0  0  0
  150.1283  132.7315  153.2231 H   0  0  0  0  0  0  0  0  0  0  0  0
  149.3132  133.8453  155.9368 H   0  0  0  0  0  0  0  0  0  0  0  0
  150.9189  133.8023  155.2539 H   0  0  0  0  0  0  0  0  0  0  0  0
  149.1483  135.2984  153.5581 H   0  0  0  0  0  0  0  0  0  0  0  0
  149.1220  137.2631  153.4331 H   0  0  0  0  0  0  0  0  0  0  0  0
  149.3766  142.2557  154.9871 H   0  0  0  0  0  0  0  0  0  0  0  0
  148.0353  134.0347  152.8870 H   0  0  0  0  0  0  0  0  0  0  0  0
  147.2847  133.2427  154.2622 H   0  0  0  0  0  0  0  0  0  0  0  0
  148.2360  131.9440  151.8266 H   0  0  0  0  0  0  0  0  0  0  0  0
  1  2  1  0  0  0  0
  1 21  1  0  0  0  0
  1 22  1  0  0  0  0
  1 23  1  0  0  0  0
  2  3  1  0  0  0  0
  2  4  1  0  0  0  0
  2 24  1  0  0  0  0
  3 25  1  0  0  0  0
  3 26  1  0  0  0  0
  3 27  1  0  0  0  0
  4  5  1  0  0  0  0
  4 28  1  0  0  0  0
  4 29  1  0  0  0  0
  5 20  1  0  0  0  0
  5  6  1  0  0  0  0
  5 42  1  0  0  0  0
  6  7  1  0  0  0  0
  6 30  1  0  0  0  0
  6 31  1  0  0  0  0
  7  8  1  0  0  0  0
  7 32  1  0  0  0  0
  7 33  1  0  0  0  0
  8  9  1  0  0  0  0
  9 10  1  0  0  0  0
  9 20  1  0  0  0  0
  9 34  1  0  0  0  0
 10 11  1  0  0  0  0
 10 35  1  0  0  0  0
 10 36  1  0  0  0  0
 11 12  1  0  0  0  0
 11 37  1  0  0  0  0
 12 13  2  0  0  0  0
 12 14  1  0  0  0  0
 14 15  1  0  0  0  0
 14 38  1  0  0  0  0
 15 19  1  0  0  0  0
 15 16  2  0  0  0  0
 16 17  1  0  0  0  0
 17 18  2  0  0  0  0
 18 19  1  0  0  0  0
 18 39  1  0  0  0  0
 20 40  1  0  0  0  0
 20 41  1  0  0  0  0
M  CHG  1   5   1
M  END
> <s_m_source_file>
AV-unprocessed.smi

> <i_m_source_file_index>
2021

> <i_lp_mmshare_version>
43012

> <i_f3d_flags>
0

> <s_epik_input>
W0NIM11bQ0hdKFtDSDNdKVtDSDJdTjFbQ0gyXVtDSDJdT1tDQEhdKFtDSDJdMSlbQ0gyXVtOSF1DKD1PKVtOSF1jMm5uW2NIXXMy

> <s_epik_cmdline>
J2VwaWtfcHl0aG9uJywgJy1waCcsICc3LjAnLCAnLXRuJywgJzgnLCAnLW1hJywgJzIwMCcsICctbWV0YWxfYmluZGluZycsICctaW1hZScsICc8aW5maWxlLm1hZT4nLCAnLW9tYWUnLCAnPG91dGZpbGUubWFlPic=

> <r_lp_tautomer_probability>
1

> <r_epik_Ionization_Penalty>
0.102019

> <r_epik_Ionization_Penalty_Charging>
0.098413

> <r_epik_Ionization_Penalty_Neutral>
0.00360555

> <r_epik_State_Penalty>
0.0884988

> <r_epik_Charging_Adjusted_Penalty>
0.186912

> <i_epik_Tot_Q>
1

> <i_epik_Tot_abs_Q>
1

> <r_epik_Metal_State_Penalty>
0.454709

> <b_epik_Metal_Only>
0

> <s_lp_Force_Field>
OPLS_2005

> <r_lp_Energy>
16.3226

> <b_lp_Chiralities_Consistent>
1

> <s_lp_Variant>
AV-unprocessed.smi:2021-4

> <Gold.Version>
5.8.1

> <Gold.Id.Protein>
6NUR|6NUR_protein|mol2

> <Gold.PLP.Fitness>
45.8756

> <Gold.PLP.PLP>
-37.2968

> <Gold.PLP.part.hbond>
-4.0000

> <Gold.PLP.part.metal>
0.0000

> <Gold.PLP.part.buried>
-4.0304

> <Gold.PLP.part.nonpolar>
-28.6486

> <Gold.PLP.part.repulsive>
0.2341

> <Gold.PLP.ligand.clash>
0.0000

> <Gold.PLP.ligand.torsion>
1.5255

> <Gold.PLP.Chemscore.Hbond>
3.1766

> <Gold.PLP.Chemscore.CHOScore>
0.6667

> <Gold.PLP.Chemscore.Metal>
0.0000

> <Gold.Chemscore.Hbonds>
donor molecule, donor type, donor heavy atom, donor atom, acceptor molecule, acceptor atom, score
      L1  H     5    42       P1 10747  0.94
      L1  H    11    37       P1  7948  0.94
      L1  H    14    38       P1  7948  1.00
      P1  H  7989  7998       L1    17  0.18
      L1  C    18    39       P1  8028  0.84

> <Gold.PLP.Chemscore.Internal.Correction>
0.0996

> <Gold.Rescore>
     Score         DG    S(hbond)    S(metal)    S(lipo)     H(rot)  DE(clash)    DE(int)     intcor
     14.88     -16.16       2.12        0.00      71.87       1.88       0.06       1.22       ----

> <Gold.Chemscore.Fitness>
14.8797

> <Gold.Chemscore.DG>
-16.1589

> <Gold.Chemscore.ZeroCoef>
-5.4800

> <Gold.Chemscore.Hbond>
2.1214

> <Gold.Chemscore.Metal>
0.0000

> <Gold.Chemscore.Lipo>
71.8744

> <Gold.Chemscore.Internal_Hbond>
0.0000

> <Gold.Chemscore.DEClash>
0.0628

> <Gold.Chemscore.DEInternal>
1.2164

> <Gold.Chemscore.Rot>
1.8812

> <Gold.Chemscore.Internal.Correction>
   9.000000E+99

> <Gold.Chemscore.Hbonds>
donor molecule, donor type, donor heavy atom, donor atom, acceptor molecule, acceptor atom, score
      L1  H     5    42       P1 10747  0.86
      L1  H    11    37       P1  7948  0.36
      L1  H    14    38       P1  7948  0.94

> <Gold.Chemscore.Hbond.Weighted>
-7.0855

> <Gold.Chemscore.Metal.Weighted>
-0.0000

> <Gold.Chemscore.Lipo.Weighted>
-8.4093

> <Gold.Chemscore.Internal_Hbond.Weighted>
0.0000

> <Gold.Chemscore.DEClash.Weighted>
0.0628

> <Gold.Chemscore.DEInternal.Weighted>
1.2164

> <Gold.Chemscore.Rot.Weighted>
4.8159

> <Gold.Chemscore.Internal.Correction.Weighted>
   9.000000E+99

> <Gold.Protein.RotatedTorsions>
[ 6907 6896 6895 6894 ] final -134.60 input  -60.11 | X-H torsion
[ 7974 7965 7964 7962 ] final  -29.79 input  175.53 | X-H torsion
[ 8008 7997 7996 7995 ] final -110.52 input   59.86 | X-H torsion
[ 10167 10162 10161 10158 ] final   20.87 input  -65.29 | X-H torsion
[ 10718 10713 10712 10709 ] final  -26.70 input   66.30 | X-H torsion
[ 10763 10752 10751 10750 ] final   95.48 input  -60.55 | X-H torsion
[ 11005 11000 10999 10996 ] final  125.48 input  -57.11 | X-H torsion

> <Gold.Protein.ActiveResidues>
 VAL166  LYS551  ARG553  GLY616  TRP617  ASP618  TYR619  PRO620  LYS621  CYS622 
 ASP623  PHE694  ASN695  SER759  ASP760  ASP761  ALA762  ILE779  LEU786  VAL792 
 PHE793  MET794  SER795  GLU796  ALA797  LYS798  CYS799  TRP800  GLU811  SER814 

> <Gold.Protein.RotatedAtoms>
  150.9878  133.6180  159.2712 H   0  0  0  0  0  0  0  0  0  0  0  0  # atno 6907 bound_to 6896
  151.3411  135.0863  159.9381 H   0  0  0  0  0  0  0  0  0  0  0  0  # atno 6908 bound_to 6896
  152.5236  133.9489  159.7717 H   0  0  0  0  0  0  0  0  0  0  0  0  # atno 6909 bound_to 6896
  146.1191  140.5457  142.8743 H   0  0  0  0  0  0  0  0  0  0  0  0  # atno 7974 bound_to 7965
  154.9758  140.0397  157.2255 H   0  0  0  0  0  0  0  0  0  0  0  0  # atno 8008 bound_to 7997
  154.7759  140.2810  155.6078 H   0  0  0  0  0  0  0  0  0  0  0  0  # atno 8009 bound_to 7997
  156.2928  140.2601  156.2573 H   0  0  0  0  0  0  0  0  0  0  0  0  # atno 8010 bound_to 7997
  140.5470  143.9576  150.6554 H   0  0  0  0  0  0  0  0  0  0  0  0  # atno 10167 bound_to 10162
  156.4478  130.4477  149.7010 H   0  0  0  0  0  0  0  0  0  0  0  0  # atno 10718 bound_to 10713
  153.2537  135.4252  155.0824 H   0  0  0  0  0  0  0  0  0  0  0  0  # atno 10763 bound_to 10752
  154.8392  135.3432  154.6476 H   0  0  0  0  0  0  0  0  0  0  0  0  # atno 10764 bound_to 10752
  153.6897  135.7034  153.5150 H   0  0  0  0  0  0  0  0  0  0  0  0  # atno 10765 bound_to 10752
  139.9408  134.9635  156.8564 H   0  0  0  0  0  0  0  0  0  0  0  0  # atno 11005 bound_to 11000
  144.7580  140.5354  143.6755 LP  0  0  0  0  0  0  0  0  0  0  0  0  # atno 17320 bound_to 7965
  145.5504  139.1476  143.3397 LP  0  0  0  0  0  0  0  0  0  0  0  0  # atno 17321 bound_to 7965
  140.2992  143.3272  152.0988 LP  0  0  0  0  0  0  0  0  0  0  0  0  # atno 17342 bound_to 10162
  139.5011  144.6707  151.6249 LP  0  0  0  0  0  0  0  0  0  0  0  0  # atno 17343 bound_to 10162
  156.3848  130.7597  151.2593 LP  0  0  0  0  0  0  0  0  0  0  0  0  # atno 17370 bound_to 10713
  157.7504  131.0285  150.4051 LP  0  0  0  0  0  0  0  0  0  0  0  0  # atno 17371 bound_to 10713
  140.5956  134.0220  155.7517 LP  0  0  0  0  0  0  0  0  0  0  0  0  # atno 17394 bound_to 11000
  141.1042  133.9720  157.3026 LP  0  0  0  0  0  0  0  0  0  0  0  0  # atno 17395 bound_to 11000

$$$$
