AV-unprocessed.smi:1245|AV-procd|sdf|5240|dock9
  -GOLD-   22720 4353D 1   1.00000     0.00000
 Structure written by MMmdl.
 44 45  0  0  0  0  0  0  0  0  2 V2000
  150.7874  139.9098  154.4218 O   0  0  0  0  0  0  0  0  0  0  0  0
  150.1523  139.2515  155.2465 C   0  0  0  0  0  0  0  0  0  0  0  0
  150.1009  137.7234  155.1614 C   0  0  0  0  0  0  0  0  0  0  0  0
  151.4672  137.0553  155.3992 C   0  0  0  0  0  0  0  0  0  0  0  0
  151.3202  135.5414  156.4575 S   0  0  0  0  0  0  0  0  0  0  0  0
  152.6050  134.8282  156.3948 O   0  0  0  0  0  0  0  0  0  0  0  0
  150.7598  135.9298  157.7612 O   0  0  0  0  0  0  0  0  0  0  0  0
  150.0592  134.5072  155.5729 C   0  0  0  0  0  0  0  0  0  0  0  0
  149.8498  133.1275  156.2258 C   0  0  0  0  0  0  0  0  0  0  0  0
  150.1978  132.0893  155.1535 C   0  0  0  0  0  0  0  0  0  0  0  0
  149.9890  132.8131  153.8247 C   0  0  0  0  0  0  0  0  0  0  0  0
  150.4290  134.2500  154.1029 C   0  0  0  0  0  0  0  0  0  0  0  0
  149.4716  139.8070  156.2606 N   0  0  0  0  0  0  0  0  0  0  0  0
  149.3911  141.2373  156.5345 C   0  0  0  0  0  0  0  0  0  0  0  0
  150.7436  141.9368  156.3163 C   0  0  0  0  0  0  0  0  0  0  0  0
  151.2416  142.6299  157.5699 C   0  0  0  0  0  0  0  0  0  0  0  0
  152.0336  141.9655  158.5317 C   0  0  0  0  0  0  0  0  0  0  0  0
  152.4590  142.6686  159.6784 C   0  0  0  0  0  0  0  0  0  0  0  0
  152.0834  144.0183  159.8396 C   0  0  0  0  0  0  0  0  0  0  0  0
  151.2895  144.6318  158.8493 C   0  0  0  0  0  0  0  0  0  0  0  0
  150.9013  143.9247  157.7651 N   0  3  0  0  0  0  0  0  0  0  0  0
  149.3786  137.3611  155.8937 H   0  0  0  0  0  0  0  0  0  0  0  0
  149.7202  137.4432  154.1786 H   0  0  0  0  0  0  0  0  0  0  0  0
  151.9399  136.7891  154.4559 H   0  0  0  0  0  0  0  0  0  0  0  0
  152.1413  137.7445  155.9088 H   0  0  0  0  0  0  0  0  0  0  0  0
  149.1184  135.0577  155.6129 H   0  0  0  0  0  0  0  0  0  0  0  0
  150.4462  132.9865  157.1276 H   0  0  0  0  0  0  0  0  0  0  0  0
  148.8041  133.0199  156.5165 H   0  0  0  0  0  0  0  0  0  0  0  0
  151.2426  131.7925  155.2479 H   0  0  0  0  0  0  0  0  0  0  0  0
  149.5926  131.1861  155.2362 H   0  0  0  0  0  0  0  0  0  0  0  0
  150.5442  132.3555  153.0054 H   0  0  0  0  0  0  0  0  0  0  0  0
  148.9308  132.7975  153.5600 H   0  0  0  0  0  0  0  0  0  0  0  0
  149.9613  134.9658  153.4263 H   0  0  0  0  0  0  0  0  0  0  0  0
  151.5055  134.3241  153.9563 H   0  0  0  0  0  0  0  0  0  0  0  0
  148.9817  139.1918  156.8943 H   0  0  0  0  0  0  0  0  0  0  0  0
  148.6390  141.6632  155.8699 H   0  0  0  0  0  0  0  0  0  0  0  0
  149.0346  141.4028  157.5528 H   0  0  0  0  0  0  0  0  0  0  0  0
  151.4951  141.2164  155.9906 H   0  0  0  0  0  0  0  0  0  0  0  0
  150.6580  142.6735  155.5162 H   0  0  0  0  0  0  0  0  0  0  0  0
  152.3118  140.9304  158.3957 H   0  0  0  0  0  0  0  0  0  0  0  0
  153.0658  142.1779  160.4255 H   0  0  0  0  0  0  0  0  0  0  0  0
  152.3990  144.5740  160.7107 H   0  0  0  0  0  0  0  0  0  0  0  0
  150.9557  145.6584  158.8909 H   0  0  0  0  0  0  0  0  0  0  0  0
  150.3272  144.3892  157.0611 H   0  0  0  0  0  0  0  0  0  0  0  0
  1  2  2  0  0  0  0
  2  3  1  0  0  0  0
  2 13  1  0  0  0  0
  3  4  1  0  0  0  0
  3 22  1  0  0  0  0
  3 23  1  0  0  0  0
  4  5  1  0  0  0  0
  4 24  1  0  0  0  0
  4 25  1  0  0  0  0
  5  6  2  0  0  0  0
  5  7  2  0  0  0  0
  5  8  1  0  0  0  0
  8 12  1  0  0  0  0
  8  9  1  0  0  0  0
  8 26  1  0  0  0  0
  9 10  1  0  0  0  0
  9 27  1  0  0  0  0
  9 28  1  0  0  0  0
 10 11  1  0  0  0  0
 10 29  1  0  0  0  0
 10 30  1  0  0  0  0
 11 12  1  0  0  0  0
 11 31  1  0  0  0  0
 11 32  1  0  0  0  0
 12 33  1  0  0  0  0
 12 34  1  0  0  0  0
 13 14  1  0  0  0  0
 13 35  1  0  0  0  0
 14 15  1  0  0  0  0
 14 36  1  0  0  0  0
 14 37  1  0  0  0  0
 15 16  1  0  0  0  0
 15 38  1  0  0  0  0
 15 39  1  0  0  0  0
 16 21  1  0  0  0  0
 16 17  2  0  0  0  0
 17 18  1  0  0  0  0
 17 40  1  0  0  0  0
 18 19  2  0  0  0  0
 18 41  1  0  0  0  0
 19 20  1  0  0  0  0
 19 42  1  0  0  0  0
 20 21  2  0  0  0  0
 20 43  1  0  0  0  0
 21 44  1  0  0  0  0
M  CHG  1  21   1
M  END
> <s_m_source_file>
AV-unprocessed.smi

> <i_m_source_file_index>
1245

> <i_lp_mmshare_version>
43012

> <i_f3d_flags>
0

> <s_epik_input>
W0NIMl0xW0NIMl1bQ0gyXVtDSDJdW0NIXTFTKD1PKSg9TylbQ0gyXVtDSDJdQyg9TylbTkhdW0NIMl1bQ0gyXWMyW2NIXVtjSF1bY0hdW2NIXW4y

> <s_epik_cmdline>
J2VwaWtfcHl0aG9uJywgJy1waCcsICc3LjAnLCAnLXRuJywgJzgnLCAnLW1hJywgJzIwMCcsICctbWV0YWxfYmluZGluZycsICctaW1hZScsICc8aW5maWxlLm1hZT4nLCAnLW9tYWUnLCAnPG91dGZpbGUubWFlPic=

> <r_epik_Ionization_Penalty>
1.90383

> <r_epik_Ionization_Penalty_Charging>
1.90383

> <r_epik_Ionization_Penalty_Neutral>
6.52612e-08

> <r_epik_State_Penalty>
2.02532

> <r_epik_Charging_Adjusted_Penalty>
3.92915

> <i_epik_Tot_Q>
1

> <i_epik_Tot_abs_Q>
1

> <r_epik_Metal_State_Penalty>
2.0489

> <b_epik_Metal_Only>
0

> <s_lp_Force_Field>
OPLS_2005

> <r_lp_Energy>
22.4311

> <b_lp_Chiralities_Consistent>
1

> <s_lp_Variant>
AV-unprocessed.smi:1245-2

> <Gold.Version>
5.8.1

> <Gold.Id.Protein>
6NUR|6NUR_protein|mol2

> <Gold.PLP.Fitness>
51.3882

> <Gold.PLP.PLP>
-39.9524

> <Gold.PLP.part.hbond>
-4.3438

> <Gold.PLP.part.metal>
0.0000

> <Gold.PLP.part.buried>
-6.5887

> <Gold.PLP.part.nonpolar>
-29.4728

> <Gold.PLP.part.repulsive>
0.1490

> <Gold.PLP.ligand.clash>
0.0000

> <Gold.PLP.ligand.torsion>
1.4011

> <Gold.PLP.Chemscore.Hbond>
4.6448

> <Gold.PLP.Chemscore.CHOScore>
0.0000

> <Gold.PLP.Chemscore.Metal>
0.0000

> <Gold.Chemscore.Hbonds>
donor molecule, donor type, donor heavy atom, donor atom, acceptor molecule, acceptor atom, score
      L1  H    21    44       P1  8028  2.00
      P1  H  6896  6909       L1     7  0.32
      P1  H  7989  7998       L1     1  1.00
      P1  H 10752 10763       L1     6  0.79

> <Gold.PLP.Chemscore.Internal.Correction>
0.3037

> <Gold.Rescore>
     Score         DG    S(hbond)    S(metal)    S(lipo)     H(rot)  DE(clash)    DE(int)     intcor
     19.86     -22.91       3.25        0.00     102.99       2.14       0.15       2.90       ----

> <Gold.Chemscore.Fitness>
19.8648

> <Gold.Chemscore.DG>
-22.9121

> <Gold.Chemscore.ZeroCoef>
-5.4800

> <Gold.Chemscore.Hbond>
3.2522

> <Gold.Chemscore.Metal>
0.0000

> <Gold.Chemscore.Lipo>
102.9938

> <Gold.Chemscore.Internal_Hbond>
0.0000

> <Gold.Chemscore.DEClash>
0.1481

> <Gold.Chemscore.DEInternal>
2.8992

> <Gold.Chemscore.Rot>
2.1408

> <Gold.Chemscore.Internal.Correction>
   9.000000E+99

> <Gold.Chemscore.Hbonds>
donor molecule, donor type, donor heavy atom, donor atom, acceptor molecule, acceptor atom, score
      L1  H    21    44       P1  8028  0.78
      P1  H  6896  6909       L1     7  0.31
      P1  H  7989  7998       L1     1  0.97
      P1  H 10752 10763       L1     6  0.49

> <Gold.Chemscore.Hbond.Weighted>
-10.8623

> <Gold.Chemscore.Metal.Weighted>
-0.0000

> <Gold.Chemscore.Lipo.Weighted>
-12.0503

> <Gold.Chemscore.Internal_Hbond.Weighted>
0.0000

> <Gold.Chemscore.DEClash.Weighted>
0.1481

> <Gold.Chemscore.DEInternal.Weighted>
2.8992

> <Gold.Chemscore.Rot.Weighted>
5.4805

> <Gold.Chemscore.Internal.Correction.Weighted>
   9.000000E+99

> <Gold.Protein.RotatedTorsions>
[ 6907 6896 6895 6894 ] final   61.74 input  -60.11 | X-H torsion
[ 7974 7965 7964 7962 ] final   27.36 input  175.53 | X-H torsion
[ 8008 7997 7996 7995 ] final   86.94 input   59.86 | X-H torsion
[ 10167 10162 10161 10158 ] final -151.60 input  -65.29 | X-H torsion
[ 10718 10713 10712 10709 ] final -138.64 input   66.30 | X-H torsion
[ 10763 10752 10751 10750 ] final  106.54 input  -60.55 | X-H torsion
[ 11005 11000 10999 10996 ] final  169.33 input  -57.11 | X-H torsion

> <Gold.Protein.ActiveResidues>
 VAL166  LYS551  ARG553  GLY616  TRP617  ASP618  TYR619  PRO620  LYS621  CYS622 
 ASP623  PHE694  ASN695  SER759  ASP760  ASP761  ALA762  ILE779  LEU786  VAL792 
 PHE793  MET794  SER795  GLU796  ALA797  LYS798  CYS799  TRP800  GLU811  SER814 

> <Gold.Protein.RotatedAtoms>
  152.4114  134.6117  160.0027 H   0  0  0  0  0  0  0  0  0  0  0  0  # atno 6907 bound_to 6896
  151.6293  133.3327  159.3113 H   0  0  0  0  0  0  0  0  0  0  0  0  # atno 6908 bound_to 6896
  150.8005  134.7135  159.6662 H   0  0  0  0  0  0  0  0  0  0  0  0  # atno 6909 bound_to 6896
  146.1788  139.7203  142.8915 H   0  0  0  0  0  0  0  0  0  0  0  0  # atno 7974 bound_to 7965
  155.9691  140.3387  155.6559 H   0  0  0  0  0  0  0  0  0  0  0  0  # atno 8008 bound_to 7997
  155.6698  140.0725  157.2542 H   0  0  0  0  0  0  0  0  0  0  0  0  # atno 8009 bound_to 7997
  154.4162  140.1693  156.1854 H   0  0  0  0  0  0  0  0  0  0  0  0  # atno 8010 bound_to 7997
  139.7253  143.8892  152.2517 H   0  0  0  0  0  0  0  0  0  0  0  0  # atno 10167 bound_to 10162
  156.3017  130.7432  151.1485 H   0  0  0  0  0  0  0  0  0  0  0  0  # atno 10718 bound_to 10713
  153.3944  135.3873  155.1945 H   0  0  0  0  0  0  0  0  0  0  0  0  # atno 10763 bound_to 10752
  154.8723  135.3756  154.4697 H   0  0  0  0  0  0  0  0  0  0  0  0  # atno 10764 bound_to 10752
  153.5187  135.7087  153.5804 H   0  0  0  0  0  0  0  0  0  0  0  0  # atno 10765 bound_to 10752
  140.2967  134.7629  157.3882 H   0  0  0  0  0  0  0  0  0  0  0  0  # atno 11005 bound_to 11000
  145.4134  141.0399  143.3004 LP  0  0  0  0  0  0  0  0  0  0  0  0  # atno 17320 bound_to 7965
  144.8281  139.5675  143.6956 LP  0  0  0  0  0  0  0  0  0  0  0  0  # atno 17321 bound_to 7965
  139.8800  144.7023  150.8889 LP  0  0  0  0  0  0  0  0  0  0  0  0  # atno 17342 bound_to 10162
  140.7761  143.3669  151.1723 LP  0  0  0  0  0  0  0  0  0  0  0  0  # atno 17343 bound_to 10162
  157.7369  131.0557  150.5385 LP  0  0  0  0  0  0  0  0  0  0  0  0  # atno 17370 bound_to 10713
  156.5513  130.4232  149.6106 LP  0  0  0  0  0  0  0  0  0  0  0  0  # atno 17371 bound_to 10713
  140.1146  134.5299  155.8236 LP  0  0  0  0  0  0  0  0  0  0  0  0  # atno 17394 bound_to 11000
  141.2136  133.6736  156.6754 LP  0  0  0  0  0  0  0  0  0  0  0  0  # atno 17395 bound_to 11000

$$$$
