AV-unprocessed.smi:73|AV-procd|sdf|760|dock6
  -GOLD-   2262017 93D 1   1.00000     0.00000
 Structure written by MMmdl.
 35 36  0  0  0  0  0  0  0  0  2 V2000
  144.8050  135.2288  153.7044 C   0  0  0  0  0  0  0  0  0  0  0  0
  146.0427  134.8964  152.8568 C   0  0  0  0  0  0  0  0  0  0  0  0
  146.1642  133.5085  152.3682 N   0  0  0  0  0  0  0  0  0  0  0  0
  146.2873  132.5557  153.4884 C   0  0  0  0  0  0  0  0  0  0  0  0
  146.9180  131.2465  153.1394 C   0  0  0  0  0  0  0  0  0  0  0  0
  148.0906  130.7737  153.5682 N   0  0  0  0  0  0  0  0  0  0  0  0
  148.2335  129.5372  152.9790 N   0  0  0  0  0  0  0  0  0  0  0  0
  147.1323  129.3542  152.2464 C   0  0  0  0  0  0  0  0  0  0  0  0
  146.7873  128.1726  151.4068 C   0  0  0  0  0  0  0  0  0  0  0  0
  146.2603  130.3929  152.3118 O   0  0  0  0  0  0  0  0  0  0  0  0
  145.0134  133.1598  151.5079 C   0  0  1  0  0  0  0  0  0  0  0  0
  144.3775  134.3409  150.7338 C   0  0  0  0  0  0  0  0  0  0  0  0
  143.9550  133.8481  149.4089 N   0  3  0  0  0  0  0  0  0  0  0  0
  144.1995  132.4003  149.3579 C   0  0  0  0  0  0  0  0  0  0  0  0
  145.3077  132.1488  150.3764 C   0  0  1  0  0  0  0  0  0  0  0  0
  146.5514  132.4085  149.7483 O   0  0  0  0  0  0  0  0  0  0  0  0
  145.2917  131.1149  150.7226 H   0  0  0  0  0  0  0  0  0  0  0  0
  144.9340  136.1913  154.1997 H   0  0  0  0  0  0  0  0  0  0  0  0
  144.6412  134.4797  154.4797 H   0  0  0  0  0  0  0  0  0  0  0  0
  143.9007  135.3085  153.1033 H   0  0  0  0  0  0  0  0  0  0  0  0
  146.1061  135.5923  152.0187 H   0  0  0  0  0  0  0  0  0  0  0  0
  146.8923  135.1353  153.4940 H   0  0  0  0  0  0  0  0  0  0  0  0
  146.8388  133.0111  154.3123 H   0  0  0  0  0  0  0  0  0  0  0  0
  145.3103  132.3003  153.8926 H   0  0  0  0  0  0  0  0  0  0  0  0
  147.6357  127.4909  151.3438 H   0  0  0  0  0  0  0  0  0  0  0  0
  146.5211  128.4942  150.3997 H   0  0  0  0  0  0  0  0  0  0  0  0
  145.9413  127.6405  151.8422 H   0  0  0  0  0  0  0  0  0  0  0  0
  144.2294  132.7244  152.1304 H   0  0  0  0  0  0  0  0  0  0  0  0
  143.5274  134.7605  151.2725 H   0  0  0  0  0  0  0  0  0  0  0  0
  145.0982  135.1425  150.5676 H   0  0  0  0  0  0  0  0  0  0  0  0
  142.9831  134.0566  149.2304 H   0  0  0  0  0  0  0  0  0  0  0  0
  143.2877  131.8905  149.6718 H   0  0  0  0  0  0  0  0  0  0  0  0
  144.4436  132.0608  148.3504 H   0  0  0  0  0  0  0  0  0  0  0  0
  147.1738  131.7551  150.0314 H   0  0  0  0  0  0  0  0  0  0  0  0
  144.5330  134.2939  148.7106 H   0  0  0  0  0  0  0  0  0  0  0  0
  1  2  1  0  0  0  0
  1 18  1  0  0  0  0
  1 19  1  0  0  0  0
  1 20  1  0  0  0  0
  2  3  1  0  0  0  0
  2 21  1  0  0  0  0
  2 22  1  0  0  0  0
  3  4  1  0  0  0  0
  3 11  1  0  0  0  0
  4  5  1  0  0  0  0
  4 23  1  0  0  0  0
  4 24  1  0  0  0  0
  5 10  1  0  0  0  0
  5  6  2  0  0  0  0
  6  7  1  0  0  0  0
  7  8  2  0  0  0  0
  8  9  1  0  0  0  0
  8 10  1  0  0  0  0
  9 25  1  0  0  0  0
  9 26  1  0  0  0  0
  9 27  1  0  0  0  0
 11 15  1  0  0  0  0
 11 12  1  0  0  0  0
 11 28  1  0  0  0  0
 12 13  1  0  0  0  0
 12 29  1  0  0  0  0
 12 30  1  0  0  0  0
 13 14  1  0  0  0  0
 13 31  1  0  0  0  0
 13 35  1  0  0  0  0
 14 15  1  0  0  0  0
 14 32  1  0  0  0  0
 14 33  1  0  0  0  0
 15 17  1  0  0  0  0
 15 16  1  0  0  0  0
 16 34  1  0  0  0  0
M  CHG  1  13   1
M  END
> <s_m_source_file>
AV-unprocessed.smi

> <i_m_source_file_index>
73

> <i_lp_mmshare_version>
43012

> <i_f3d_flags>
0

> <s_epik_input>
W09IXVtDQEBIXTFbQ0gyXVtOSF1bQ0gyXVtDQEhdMU4oW0NIMl1bQ0gzXSlbQ0gyXWMybm5jKG8yKVtDSDNd

> <s_epik_cmdline>
J2VwaWtfcHl0aG9uJywgJy1waCcsICc3LjAnLCAnLXRuJywgJzgnLCAnLW1hJywgJzIwMCcsICctbWV0YWxfYmluZGluZycsICctaW1hZScsICc8aW5maWxlLm1hZT4nLCAnLW9tYWUnLCAnPG91dGZpbGUubWFlPic=

> <r_lp_tautomer_probability>
1

> <r_epik_Ionization_Penalty>
0.00160433

> <r_epik_Ionization_Penalty_Charging>
0.000122314

> <r_epik_Ionization_Penalty_Neutral>
0.00148202

> <r_epik_State_Penalty>
-0

> <r_epik_Charging_Adjusted_Penalty>
0.000122314

> <i_epik_Tot_Q>
1

> <i_epik_Tot_abs_Q>
1

> <r_epik_Metal_State_Penalty>
-0

> <b_epik_Metal_Only>
0

> <s_lp_Force_Field>
OPLS_2005

> <r_lp_Energy>
44.8836

> <b_lp_Chiralities_Consistent>
1

> <s_lp_Variant>
AV-unprocessed.smi:73-2

> <Gold.Version>
5.8.1

> <Gold.Id.Protein>
6NUR|6NUR_protein|mol2

> <Gold.PLP.Fitness>
34.5533

> <Gold.PLP.PLP>
-24.4496

> <Gold.PLP.part.hbond>
-3.4597

> <Gold.PLP.part.metal>
0.0000

> <Gold.PLP.part.buried>
-4.3920

> <Gold.PLP.part.nonpolar>
-17.6656

> <Gold.PLP.part.repulsive>
1.0181

> <Gold.PLP.ligand.clash>
0.0000

> <Gold.PLP.ligand.torsion>
0.9588

> <Gold.PLP.Chemscore.Hbond>
4.0000

> <Gold.PLP.Chemscore.CHOScore>
0.0000

> <Gold.PLP.Chemscore.Metal>
0.0000

> <Gold.Chemscore.Hbonds>
donor molecule, donor type, donor heavy atom, donor atom, acceptor molecule, acceptor atom, score
      L1  H    13    31       P1 10186  2.00
      L1  H    13    35       P1  7921  1.00
      L1  H    16    34       P1 10747  1.00

> <Gold.PLP.Chemscore.Internal.Correction>
0.0214

> <Gold.Rescore>
     Score         DG    S(hbond)    S(metal)    S(lipo)     H(rot)  DE(clash)    DE(int)     intcor
     12.42     -14.82       2.83        0.00      53.90       2.51       0.02       2.38       ----

> <Gold.Chemscore.Fitness>
12.4203

> <Gold.Chemscore.DG>
-14.8242

> <Gold.Chemscore.ZeroCoef>
-5.4800

> <Gold.Chemscore.Hbond>
2.8295

> <Gold.Chemscore.Metal>
0.0000

> <Gold.Chemscore.Lipo>
53.9041

> <Gold.Chemscore.Internal_Hbond>
0.0000

> <Gold.Chemscore.DEClash>
0.0212

> <Gold.Chemscore.DEInternal>
2.3827

> <Gold.Chemscore.Rot>
2.5051

> <Gold.Chemscore.Internal.Correction>
   9.000000E+99

> <Gold.Chemscore.Hbonds>
donor molecule, donor type, donor heavy atom, donor atom, acceptor molecule, acceptor atom, score
      L1  H    13    31       P1 10186  0.93
      L1  H    13    35       P1  7921  0.97
      L1  H    16    34       P1 10747  0.93

> <Gold.Chemscore.Hbond.Weighted>
-9.4505

> <Gold.Chemscore.Metal.Weighted>
-0.0000

> <Gold.Chemscore.Lipo.Weighted>
-6.3068

> <Gold.Chemscore.Internal_Hbond.Weighted>
0.0000

> <Gold.Chemscore.DEClash.Weighted>
0.0212

> <Gold.Chemscore.DEInternal.Weighted>
2.3827

> <Gold.Chemscore.Rot.Weighted>
6.4131

> <Gold.Chemscore.Internal.Correction.Weighted>
   9.000000E+99

> <Gold.Protein.RotatedTorsions>
[ 6907 6896 6895 6894 ] final  -55.31 input  -60.11 | X-H torsion
[ 7974 7965 7964 7962 ] final  -95.01 input  175.53 | X-H torsion
[ 8008 7997 7996 7995 ] final   11.51 input   59.86 | X-H torsion
[ 10167 10162 10161 10158 ] final -163.86 input  -65.29 | X-H torsion
[ 10718 10713 10712 10709 ] final   35.21 input   66.30 | X-H torsion
[ 10763 10752 10751 10750 ] final -123.84 input  -60.55 | X-H torsion
[ 11005 11000 10999 10996 ] final  -86.70 input  -57.11 | X-H torsion

> <Gold.Protein.ActiveResidues>
 VAL166  LYS551  ARG553  GLY616  TRP617  ASP618  TYR619  PRO620  LYS621  CYS622 
 ASP623  PHE694  ASN695  SER759  ASP760  ASP761  ALA762  ILE779  LEU786  VAL792 
 PHE793  MET794  SER795  GLU796  ALA797  LYS798  CYS799  TRP800  GLU811  SER814 

> <Gold.Protein.RotatedAtoms>
  150.8263  134.7495  159.6815 H   0  0  0  0  0  0  0  0  0  0  0  0  # atno 6907 bound_to 6896
  152.4373  134.5657  159.9917 H   0  0  0  0  0  0  0  0  0  0  0  0  # atno 6908 bound_to 6896
  151.5829  133.3338  159.3048 H   0  0  0  0  0  0  0  0  0  0  0  0  # atno 6909 bound_to 6896
  145.3657  140.9498  143.2475 H   0  0  0  0  0  0  0  0  0  0  0  0  # atno 7974 bound_to 7965
  154.8079  140.2863  155.5874 H   0  0  0  0  0  0  0  0  0  0  0  0  # atno 8008 bound_to 7997
  156.2985  140.2574  156.2891 H   0  0  0  0  0  0  0  0  0  0  0  0  # atno 8009 bound_to 7997
  154.9481  140.0380  157.2120 H   0  0  0  0  0  0  0  0  0  0  0  0  # atno 8010 bound_to 7997
  139.6291  144.0475  152.2000 H   0  0  0  0  0  0  0  0  0  0  0  0  # atno 10167 bound_to 10162
  157.3199  130.7442  149.6778 H   0  0  0  0  0  0  0  0  0  0  0  0  # atno 10718 bound_to 10713
  154.8714  135.4084  154.3009 H   0  0  0  0  0  0  0  0  0  0  0  0  # atno 10763 bound_to 10752
  153.3869  135.7013  153.6529 H   0  0  0  0  0  0  0  0  0  0  0  0  # atno 10764 bound_to 10752
  153.5328  135.3664  155.2655 H   0  0  0  0  0  0  0  0  0  0  0  0  # atno 10765 bound_to 10752
  141.1627  133.7469  156.9199 H   0  0  0  0  0  0  0  0  0  0  0  0  # atno 11005 bound_to 11000
  144.8613  139.5173  143.6811 LP  0  0  0  0  0  0  0  0  0  0  0  0  # atno 17320 bound_to 7965
  146.2908  139.7133  142.9162 LP  0  0  0  0  0  0  0  0  0  0  0  0  # atno 17321 bound_to 7965
  140.0135  144.6206  150.7626 LP  0  0  0  0  0  0  0  0  0  0  0  0  # atno 17342 bound_to 10162
  140.7428  143.2838  151.3523 LP  0  0  0  0  0  0  0  0  0  0  0  0  # atno 17343 bound_to 10162
  155.9685  130.4226  150.4525 LP  0  0  0  0  0  0  0  0  0  0  0  0  # atno 17370 bound_to 10713
  157.2538  131.0552  151.2362 LP  0  0  0  0  0  0  0  0  0  0  0  0  # atno 17371 bound_to 10713
  140.1459  134.9263  157.2528 LP  0  0  0  0  0  0  0  0  0  0  0  0  # atno 17394 bound_to 11000
  140.2781  134.3382  155.7352 LP  0  0  0  0  0  0  0  0  0  0  0  0  # atno 17395 bound_to 11000

$$$$
