AV-unprocessed.smi:2032|AV-procd|sdf|8247|dock4
  -GOLD-   2272010513D 1   1.00000     0.00000
 Structure written by MMmdl.
 41 42  0  0  0  0  0  0  0  0  2 V2000
  153.9994  140.7938  160.3518 C   0  0  0  0  0  0  0  0  0  0  0  0
  152.6573  141.3336  159.8465 C   0  0  2  0  0  0  0  0  0  0  0  0
  152.0166  140.4051  158.7996 C   0  0  0  0  0  0  0  0  0  0  0  0
  150.7656  140.9398  158.2548 N   0  0  0  0  0  0  0  0  0  0  0  0
  150.1375  140.0310  157.2652 C   0  0  1  0  0  0  0  0  0  0  0  0
  150.7846  140.1341  155.8599 C   0  0  0  0  0  0  0  0  0  0  0  0
  150.1427  138.5425  157.7108 C   0  0  0  0  0  0  0  0  0  0  0  0
  149.1908  138.2727  158.7840 N   0  0  0  0  0  0  0  0  0  0  0  0
  148.9473  137.0665  159.3136 C   0  0  0  0  0  0  0  0  0  0  0  0
  149.5563  136.0792  158.8948 O   0  0  0  0  0  0  0  0  0  0  0  0
  148.0170  137.0775  160.2956 N   0  5  0  0  0  0  0  0  0  0  0  0
  147.6994  135.9369  160.9298 C   0  0  0  0  0  0  0  0  0  0  0  0
  147.5918  134.7587  160.3047 N   0  0  0  0  0  0  0  0  0  0  0  0
  147.2539  133.7063  161.1575 C   0  0  0  0  0  0  0  0  0  0  0  0
  147.0894  134.0943  162.4608 C   0  0  0  0  0  0  0  0  0  0  0  0
  147.3560  135.8032  162.6570 S   0  0  0  0  0  0  0  0  0  0  0  0
  151.0458  142.2710  157.7035 C   0  0  0  0  0  0  0  0  0  0  0  0
  151.7313  143.2264  158.7014 C   0  0  1  0  0  0  0  0  0  0  0  0
  150.7794  143.7645  159.7835 C   0  0  0  0  0  0  0  0  0  0  0  0
  152.8870  142.6135  159.2683 O   0  0  0  0  0  0  0  0  0  0  0  0
  153.8799  139.8135  160.8138 H   0  0  0  0  0  0  0  0  0  0  0  0
  154.4312  141.4610  161.0981 H   0  0  0  0  0  0  0  0  0  0  0  0
  154.7178  140.6954  159.5376 H   0  0  0  0  0  0  0  0  0  0  0  0
  151.9881  141.4345  160.7014 H   0  0  0  0  0  0  0  0  0  0  0  0
  152.7230  140.2203  157.9889 H   0  0  0  0  0  0  0  0  0  0  0  0
  151.8423  139.4502  159.2915 H   0  0  0  0  0  0  0  0  0  0  0  0
  149.0926  140.3254  157.1555 H   0  0  0  0  0  0  0  0  0  0  0  0
  150.3625  139.4220  155.1516 H   0  0  0  0  0  0  0  0  0  0  0  0
  151.8585  139.9500  155.9061 H   0  0  0  0  0  0  0  0  0  0  0  0
  150.6274  141.1102  155.4033 H   0  0  0  0  0  0  0  0  0  0  0  0
  149.9226  137.8968  156.8588 H   0  0  0  0  0  0  0  0  0  0  0  0
  151.1162  138.2447  158.0973 H   0  0  0  0  0  0  0  0  0  0  0  0
  148.6742  139.0585  159.1508 H   0  0  0  0  0  0  0  0  0  0  0  0
  147.1497  132.7116  160.7504 H   0  0  0  0  0  0  0  0  0  0  0  0
  146.8286  133.4841  163.3121 H   0  0  0  0  0  0  0  0  0  0  0  0
  151.6794  142.1687  156.8211 H   0  0  0  0  0  0  0  0  0  0  0  0
  150.1305  142.7584  157.3746 H   0  0  0  0  0  0  0  0  0  0  0  0
  152.0907  144.0898  158.1410 H   0  0  0  0  0  0  0  0  0  0  0  0
  149.9700  144.3407  159.3346 H   0  0  0  0  0  0  0  0  0  0  0  0
  151.3083  144.4214  160.4742 H   0  0  0  0  0  0  0  0  0  0  0  0
  150.3235  142.9636  160.3650 H   0  0  0  0  0  0  0  0  0  0  0  0
  1  2  1  0  0  0  0
  1 21  1  0  0  0  0
  1 22  1  0  0  0  0
  1 23  1  0  0  0  0
  2 20  1  0  0  0  0
  2  3  1  0  0  0  0
  2 24  1  0  0  0  0
  3  4  1  0  0  0  0
  3 25  1  0  0  0  0
  3 26  1  0  0  0  0
  4  5  1  0  0  0  0
  4 17  1  0  0  0  0
  5  6  1  0  0  0  0
  5  7  1  0  0  0  0
  5 27  1  0  0  0  0
  6 28  1  0  0  0  0
  6 29  1  0  0  0  0
  6 30  1  0  0  0  0
  7  8  1  0  0  0  0
  7 31  1  0  0  0  0
  7 32  1  0  0  0  0
  8  9  1  0  0  0  0
  8 33  1  0  0  0  0
  9 10  2  0  0  0  0
  9 11  1  0  0  0  0
 11 12  1  0  0  0  0
 12 16  1  0  0  0  0
 12 13  2  0  0  0  0
 13 14  1  0  0  0  0
 14 15  2  0  0  0  0
 14 34  1  0  0  0  0
 15 16  1  0  0  0  0
 15 35  1  0  0  0  0
 17 18  1  0  0  0  0
 17 36  1  0  0  0  0
 17 37  1  0  0  0  0
 18 19  1  0  0  0  0
 18 20  1  0  0  0  0
 18 38  1  0  0  0  0
 19 39  1  0  0  0  0
 19 40  1  0  0  0  0
 19 41  1  0  0  0  0
M  CHG  1  11  -1
M  END
> <s_m_source_file>
AV-unprocessed.smi

> <i_m_source_file_index>
2032

> <i_lp_mmshare_version>
43012

> <i_f3d_flags>
0

> <s_epik_input>
W0NIM11bQ0BASF0xW0NIMl1OKFtDSDJdW0NASF0oTzEpW0NIM10pW0NASF0oW0NIM10pW0NIMl1bTkhdQyg9TylbTkhdYzJuW2NIXVtjSF1zMg==

> <s_epik_cmdline>
J2VwaWtfcHl0aG9uJywgJy1waCcsICc3LjAnLCAnLXRuJywgJzgnLCAnLW1hJywgJzIwMCcsICctbWV0YWxfYmluZGluZycsICctaW1hZScsICc8aW5maWxlLm1hZT4nLCAnLW9tYWUnLCAnPG91dGZpbGUubWFlPic=

> <r_lp_tautomer_probability>
0.999

> <r_epik_Ionization_Penalty>
7.22375

> <r_epik_Ionization_Penalty_Charging>
5.82415

> <r_epik_Ionization_Penalty_Neutral>
1.39959

> <r_epik_State_Penalty>
6.03347

> <r_epik_Charging_Adjusted_Penalty>
11.8576

> <i_epik_Tot_Q>
-1

> <i_epik_Tot_abs_Q>
1

> <r_epik_Metal_State_Penalty>
2.01024

> <b_epik_Metal_Only>
1

> <s_lp_Force_Field>
OPLS_2005

> <r_lp_Energy>
26.6576

> <b_lp_Chiralities_Consistent>
1

> <s_lp_Variant>
AV-unprocessed.smi:2032-17

> <Gold.Version>
5.8.1

> <Gold.Id.Protein>
6NUR|6NUR_protein|mol2

> <Gold.PLP.Fitness>
49.0148

> <Gold.PLP.PLP>
-38.8953

> <Gold.PLP.part.hbond>
-3.0000

> <Gold.PLP.part.metal>
0.0000

> <Gold.PLP.part.buried>
-5.7931

> <Gold.PLP.part.nonpolar>
-32.9431

> <Gold.PLP.part.repulsive>
0.2358

> <Gold.PLP.ligand.clash>
0.0000

> <Gold.PLP.ligand.torsion>
0.7019

> <Gold.PLP.Chemscore.Hbond>
3.8037

> <Gold.PLP.Chemscore.CHOScore>
0.0000

> <Gold.PLP.Chemscore.Metal>
0.0000

> <Gold.Chemscore.Hbonds>
donor molecule, donor type, donor heavy atom, donor atom, acceptor molecule, acceptor atom, score
      P1  H  6896  6908       L1    10  1.00
      P1  H  6931  6943       L1    11  0.74
      P1  H  6934  6947       L1    11  0.87

> <Gold.PLP.Chemscore.Internal.Correction>
0.1122

> <Gold.Rescore>
     Score         DG    S(hbond)    S(metal)    S(lipo)     H(rot)  DE(clash)    DE(int)     intcor
     16.17     -18.27       1.75        0.00      93.17       1.54       0.02       2.08       ----

> <Gold.Chemscore.Fitness>
16.1739

> <Gold.Chemscore.DG>
-18.2696

> <Gold.Chemscore.ZeroCoef>
-5.4800

> <Gold.Chemscore.Hbond>
1.7480

> <Gold.Chemscore.Metal>
0.0000

> <Gold.Chemscore.Lipo>
93.1748

> <Gold.Chemscore.Internal_Hbond>
0.0000

> <Gold.Chemscore.DEClash>
0.0174

> <Gold.Chemscore.DEInternal>
2.0782

> <Gold.Chemscore.Rot>
1.5431

> <Gold.Chemscore.Internal.Correction>
   9.000000E+99

> <Gold.Chemscore.Hbonds>
donor molecule, donor type, donor heavy atom, donor atom, acceptor molecule, acceptor atom, score
      P1  H  6896  6908       L1    10  0.99
      P1  H  6931  6943       L1    11  0.05
      P1  H  6934  6947       L1    11  0.41

> <Gold.Chemscore.Hbond.Weighted>
-5.8384

> <Gold.Chemscore.Metal.Weighted>
-0.0000

> <Gold.Chemscore.Lipo.Weighted>
-10.9015

> <Gold.Chemscore.Internal_Hbond.Weighted>
0.0000

> <Gold.Chemscore.DEClash.Weighted>
0.0174

> <Gold.Chemscore.DEInternal.Weighted>
2.0782

> <Gold.Chemscore.Rot.Weighted>
3.9503

> <Gold.Chemscore.Internal.Correction.Weighted>
   9.000000E+99

> <Gold.Protein.RotatedTorsions>
[ 6907 6896 6895 6894 ] final  176.58 input  -60.11 | X-H torsion
[ 7974 7965 7964 7962 ] final   93.75 input  175.53 | X-H torsion
[ 8008 7997 7996 7995 ] final  -31.20 input   59.86 | X-H torsion
[ 10167 10162 10161 10158 ] final   -5.62 input  -65.29 | X-H torsion
[ 10718 10713 10712 10709 ] final  -67.15 input   66.30 | X-H torsion
[ 10763 10752 10751 10750 ] final  150.94 input  -60.55 | X-H torsion
[ 11005 11000 10999 10996 ] final  -76.30 input  -57.11 | X-H torsion

> <Gold.Protein.ActiveResidues>
 VAL166  LYS551  ARG553  GLY616  TRP617  ASP618  TYR619  PRO620  LYS621  CYS622 
 ASP623  PHE694  ASN695  SER759  ASP760  ASP761  ALA762  ILE779  LEU786  VAL792 
 PHE793  MET794  SER795  GLU796  ALA797  LYS798  CYS799  TRP800  GLU811  SER814 

> <Gold.Protein.RotatedAtoms>
  151.7178  133.3313  159.3307 H   0  0  0  0  0  0  0  0  0  0  0  0  # atno 6907 bound_to 6896
  150.7666  134.6475  159.6279 H   0  0  0  0  0  0  0  0  0  0  0  0  # atno 6908 bound_to 6896
  152.3671  134.6791  160.0240 H   0  0  0  0  0  0  0  0  0  0  0  0  # atno 6909 bound_to 6896
  145.4748  139.2280  143.2915 H   0  0  0  0  0  0  0  0  0  0  0  0  # atno 7974 bound_to 7965
  154.4222  140.1770  156.1529 H   0  0  0  0  0  0  0  0  0  0  0  0  # atno 8008 bound_to 7997
  155.9900  140.3370  155.6719 H   0  0  0  0  0  0  0  0  0  0  0  0  # atno 8009 bound_to 7997
  155.6385  140.0677  157.2617 H   0  0  0  0  0  0  0  0  0  0  0  0  # atno 8010 bound_to 7997
  140.6969  143.6287  150.8543 H   0  0  0  0  0  0  0  0  0  0  0  0  # atno 10167 bound_to 10162
  156.0573  130.4273  150.1812 H   0  0  0  0  0  0  0  0  0  0  0  0  # atno 10718 bound_to 10713
  154.0957  135.2849  155.3262 H   0  0  0  0  0  0  0  0  0  0  0  0  # atno 10763 bound_to 10752
  154.6589  135.5341  153.7997 H   0  0  0  0  0  0  0  0  0  0  0  0  # atno 10764 bound_to 10752
  153.0397  135.6529  154.1124 H   0  0  0  0  0  0  0  0  0  0  0  0  # atno 10765 bound_to 10752
  141.1653  133.6978  156.7648 H   0  0  0  0  0  0  0  0  0  0  0  0  # atno 11005 bound_to 11000
  146.2376  140.5529  142.8948 LP  0  0  0  0  0  0  0  0  0  0  0  0  # atno 17320 bound_to 7965
  144.7924  140.6057  143.6533 LP  0  0  0  0  0  0  0  0  0  0  0  0  # atno 17321 bound_to 7965
  140.0006  143.5748  152.2877 LP  0  0  0  0  0  0  0  0  0  0  0  0  # atno 17342 bound_to 10162
  139.6436  144.7656  151.2289 LP  0  0  0  0  0  0  0  0  0  0  0  0  # atno 17343 bound_to 10162
  156.9886  130.9886  151.3420 LP  0  0  0  0  0  0  0  0  0  0  0  0  # atno 17370 bound_to 10713
  157.5554  130.8210  149.8197 LP  0  0  0  0  0  0  0  0  0  0  0  0  # atno 17371 bound_to 10713
  140.2507  134.8542  157.3665 LP  0  0  0  0  0  0  0  0  0  0  0  0  # atno 17394 bound_to 11000
  140.1705  134.4614  155.7835 LP  0  0  0  0  0  0  0  0  0  0  0  0  # atno 17395 bound_to 11000

$$$$
