AV-unprocessed.smi:354|AV-procd|sdf|2403|dock4
  -GOLD-   2262022333D 1   1.00000     0.00000
 Structure written by MMmdl.
 36 38  0  0  0  0  0  0  0  0  1 V2000
  153.2354  139.4591  154.8650 O   0  0  0  0  0  0  0  0  0  0  0  0
  152.1202  138.7589  155.3720 C   0  0  0  0  0  0  0  0  0  0  0  0
  150.8118  139.3071  154.8872 C   0  0  0  0  0  0  0  0  0  0  0  0
  149.9919  138.5837  154.1233 N   0  0  0  0  0  0  0  0  0  0  0  0
  148.9207  139.4341  153.9342 C   0  0  0  0  0  0  0  0  0  0  0  0
  147.7176  139.2499  153.2159 C   0  0  0  0  0  0  0  0  0  0  0  0
  146.7492  140.2742  153.1705 C   0  0  0  0  0  0  0  0  0  0  0  0
  146.9685  141.4939  153.8427 C   0  0  0  0  0  0  0  0  0  0  0  0
  148.1609  141.6984  154.5630 C   0  0  0  0  0  0  0  0  0  0  0  0
  149.1265  140.6740  154.6022 C   0  0  0  0  0  0  0  0  0  0  0  0
  150.3774  140.5556  155.2005 N   0  0  0  0  0  0  0  0  0  0  0  0
  151.0360  141.5781  156.0046 C   0  0  0  0  0  0  0  0  0  0  0  0
  150.4615  141.6804  157.4327 C   0  0  2  0  0  0  0  0  0  0  0  0
  149.4240  142.6411  157.4713 O   0  0  0  0  0  0  0  0  0  0  0  0
  151.5610  141.9697  158.4454 C   0  0  0  0  0  0  0  0  0  0  0  0
  151.9885  140.9650  159.3426 C   0  0  0  0  0  0  0  0  0  0  0  0
  152.9970  141.2359  160.2873 C   0  0  0  0  0  0  0  0  0  0  0  0
  153.5836  142.5143  160.3443 C   0  0  0  0  0  0  0  0  0  0  0  0
  153.1585  143.5220  159.4579 C   0  0  0  0  0  0  0  0  0  0  0  0
  152.1490  143.2535  158.5126 C   0  0  0  0  0  0  0  0  0  0  0  0
  151.7459  144.2381  157.6737 F   0  0  0  0  0  0  0  0  0  0  0  0
  152.9858  139.8738  154.0537 H   0  0  0  0  0  0  0  0  0  0  0  0
  152.2058  137.7142  155.0709 H   0  0  0  0  0  0  0  0  0  0  0  0
  152.1431  138.7683  156.4616 H   0  0  0  0  0  0  0  0  0  0  0  0
  147.5383  138.3178  152.7006 H   0  0  0  0  0  0  0  0  0  0  0  0
  145.8329  140.1226  152.6192 H   0  0  0  0  0  0  0  0  0  0  0  0
  146.2210  142.2726  153.8053 H   0  0  0  0  0  0  0  0  0  0  0  0
  148.3307  142.6316  155.0791 H   0  0  0  0  0  0  0  0  0  0  0  0
  152.0969  141.3295  156.0505 H   0  0  0  0  0  0  0  0  0  0  0  0
  150.9737  142.5437  155.5045 H   0  0  0  0  0  0  0  0  0  0  0  0
  149.9951  140.7315  157.6972 H   0  0  0  0  0  0  0  0  0  0  0  0
  149.4498  143.1428  156.6710 H   0  0  0  0  0  0  0  0  0  0  0  0
  151.5415  139.9821  159.3117 H   0  0  0  0  0  0  0  0  0  0  0  0
  153.3193  140.4632  160.9697 H   0  0  0  0  0  0  0  0  0  0  0  0
  154.3567  142.7228  161.0692 H   0  0  0  0  0  0  0  0  0  0  0  0
  153.6059  144.5040  159.5047 H   0  0  0  0  0  0  0  0  0  0  0  0
  1  2  1  0  0  0  0
  1 22  1  0  0  0  0
  2  3  1  0  0  0  0
  2 23  1  0  0  0  0
  2 24  1  0  0  0  0
  3 11  1  0  0  0  0
  3  4  2  0  0  0  0
  4  5  1  0  0  0  0
  5 10  2  0  0  0  0
  5  6  1  0  0  0  0
  6  7  2  0  0  0  0
  6 25  1  0  0  0  0
  7  8  1  0  0  0  0
  7 26  1  0  0  0  0
  8  9  2  0  0  0  0
  8 27  1  0  0  0  0
  9 10  1  0  0  0  0
  9 28  1  0  0  0  0
 10 11  1  0  0  0  0
 11 12  1  0  0  0  0
 12 13  1  0  0  0  0
 12 29  1  0  0  0  0
 12 30  1  0  0  0  0
 13 14  1  0  0  0  0
 13 15  1  0  0  0  0
 13 31  1  0  0  0  0
 14 32  1  0  0  0  0
 15 20  1  0  0  0  0
 15 16  2  0  0  0  0
 16 17  1  0  0  0  0
 16 33  1  0  0  0  0
 17 18  2  0  0  0  0
 17 34  1  0  0  0  0
 18 19  1  0  0  0  0
 18 35  1  0  0  0  0
 19 20  2  0  0  0  0
 19 36  1  0  0  0  0
 20 21  1  0  0  0  0
M  END
> <s_m_source_file>
AV-unprocessed.smi

> <i_m_source_file_index>
354

> <i_lp_mmshare_version>
43012

> <i_f3d_flags>
0

> <s_epik_input>
W2NIXTFbY0hdW2NIXVtjSF1jKGMxMiluKGMobjIpW0NIMl1bT0hdKVtDSDJdW0NASF0oW09IXSljM1tjSF1bY0hdW2NIXVtjSF1jM0Y=

> <s_epik_cmdline>
J2VwaWtfcHl0aG9uJywgJy1waCcsICc3LjAnLCAnLXRuJywgJzgnLCAnLW1hJywgJzIwMCcsICctbWV0YWxfYmluZGluZycsICctaW1hZScsICc8aW5maWxlLm1hZT4nLCAnLW9tYWUnLCAnPG91dGZpbGUubWFlPic=

> <r_epik_Ionization_Penalty>
0.0634722

> <r_epik_Ionization_Penalty_Charging>
0

> <r_epik_Ionization_Penalty_Neutral>
0.0634722

> <r_epik_State_Penalty>
0.0551572

> <r_epik_Charging_Adjusted_Penalty>
0.0551572

> <i_epik_Tot_Q>
0

> <i_epik_Tot_abs_Q>
0

> <r_epik_Metal_State_Penalty>
5.78034e-05

> <b_epik_Metal_Only>
0

> <s_lp_Force_Field>
OPLS_2005

> <r_lp_Energy>
13.1732

> <b_lp_Chiralities_Consistent>
1

> <s_lp_Variant>
AV-unprocessed.smi:354-1

> <Gold.Version>
5.8.1

> <Gold.Id.Protein>
6NUR|6NUR_protein|mol2

> <Gold.PLP.Fitness>
53.6748

> <Gold.PLP.PLP>
-49.4989

> <Gold.PLP.part.hbond>
-2.9260

> <Gold.PLP.part.metal>
0.0000

> <Gold.PLP.part.buried>
0.6122

> <Gold.PLP.part.nonpolar>
-46.9337

> <Gold.PLP.part.repulsive>
0.2320

> <Gold.PLP.ligand.clash>
0.0000

> <Gold.PLP.ligand.torsion>
0.9273

> <Gold.PLP.Chemscore.Hbond>
1.9920

> <Gold.PLP.Chemscore.CHOScore>
0.0000

> <Gold.PLP.Chemscore.Metal>
0.0000

> <Gold.Chemscore.Hbonds>
donor molecule, donor type, donor heavy atom, donor atom, acceptor molecule, acceptor atom, score
      L1  H    14    32       P1  8028  0.98
      P1  H  7997  8008       L1     1  1.00

> <Gold.PLP.Chemscore.Internal.Correction>
0.0545

> <Gold.Rescore>
     Score         DG    S(hbond)    S(metal)    S(lipo)     H(rot)  DE(clash)    DE(int)     intcor
     16.74     -19.36       1.91        0.00     124.16       2.75       0.40       2.22       ----

> <Gold.Chemscore.Fitness>
16.7366

> <Gold.Chemscore.DG>
-19.3581

> <Gold.Chemscore.ZeroCoef>
-5.4800

> <Gold.Chemscore.Hbond>
1.9135

> <Gold.Chemscore.Metal>
0.0000

> <Gold.Chemscore.Lipo>
124.1619

> <Gold.Chemscore.Internal_Hbond>
0.0000

> <Gold.Chemscore.DEClash>
0.4009

> <Gold.Chemscore.DEInternal>
2.2206

> <Gold.Chemscore.Rot>
2.7500

> <Gold.Chemscore.Internal.Correction>
   9.000000E+99

> <Gold.Chemscore.Hbonds>
donor molecule, donor type, donor heavy atom, donor atom, acceptor molecule, acceptor atom, score
      L1  H    14    32       P1  8028  0.92
      P1  H  7997  8008       L1     1  0.97

> <Gold.Chemscore.Hbond.Weighted>
-6.3911

> <Gold.Chemscore.Metal.Weighted>
-0.0000

> <Gold.Chemscore.Lipo.Weighted>
-14.5269

> <Gold.Chemscore.Internal_Hbond.Weighted>
0.0000

> <Gold.Chemscore.DEClash.Weighted>
0.4009

> <Gold.Chemscore.DEInternal.Weighted>
2.2206

> <Gold.Chemscore.Rot.Weighted>
7.0399

> <Gold.Chemscore.Internal.Correction.Weighted>
   9.000000E+99

> <Gold.Protein.RotatedTorsions>
[ 6907 6896 6895 6894 ] final   48.16 input  -60.11 | X-H torsion
[ 7974 7965 7964 7962 ] final   57.54 input  175.53 | X-H torsion
[ 8008 7997 7996 7995 ] final  -13.25 input   59.86 | X-H torsion
[ 10167 10162 10161 10158 ] final -126.18 input  -65.29 | X-H torsion
[ 10718 10713 10712 10709 ] final  -32.26 input   66.30 | X-H torsion
[ 10763 10752 10751 10750 ] final  172.03 input  -60.55 | X-H torsion
[ 11005 11000 10999 10996 ] final -158.39 input  -57.11 | X-H torsion

> <Gold.Protein.ActiveResidues>
 VAL166  LYS551  ARG553  GLY616  TRP617  ASP618  TYR619  PRO620  LYS621  CYS622 
 ASP623  PHE694  ASN695  SER759  ASP760  ASP761  ALA762  ILE779  LEU786  VAL792 
 PHE793  MET794  SER795  GLU796  ALA797  LYS798  CYS799  TRP800  GLU811  SER814 

> <Gold.Protein.RotatedAtoms>
  152.2764  134.7877  160.0404 H   0  0  0  0  0  0  0  0  0  0  0  0  # atno 6907 bound_to 6896
  151.8471  133.3428  159.3669 H   0  0  0  0  0  0  0  0  0  0  0  0  # atno 6908 bound_to 6896
  150.7172  134.5263  159.5722 H   0  0  0  0  0  0  0  0  0  0  0  0  # atno 6909 bound_to 6896
  145.9279  139.3783  143.0439 H   0  0  0  0  0  0  0  0  0  0  0  0  # atno 7974 bound_to 7965
  154.5308  140.2254  155.8807 H   0  0  0  0  0  0  0  0  0  0  0  0  # atno 8008 bound_to 7997
  156.1762  140.3110  155.9027 H   0  0  0  0  0  0  0  0  0  0  0  0  # atno 8009 bound_to 7997
  155.3455  140.0453  157.3036 H   0  0  0  0  0  0  0  0  0  0  0  0  # atno 8010 bound_to 7997
  139.9742  143.5812  152.2402 H   0  0  0  0  0  0  0  0  0  0  0  0  # atno 10167 bound_to 10162
  156.3771  130.4349  149.7499 H   0  0  0  0  0  0  0  0  0  0  0  0  # atno 10718 bound_to 10713
  154.4202  135.2757  155.1980 H   0  0  0  0  0  0  0  0  0  0  0  0  # atno 10763 bound_to 10752
  154.3929  135.6062  153.5857 H   0  0  0  0  0  0  0  0  0  0  0  0  # atno 10764 bound_to 10752
  152.9833  135.5907  154.4497 H   0  0  0  0  0  0  0  0  0  0  0  0  # atno 10765 bound_to 10752
  140.6542  134.4418  157.5235 H   0  0  0  0  0  0  0  0  0  0  0  0  # atno 11005 bound_to 11000
  145.8464  140.9553  143.0772 LP  0  0  0  0  0  0  0  0  0  0  0  0  # atno 17320 bound_to 7965
  144.6761  140.0351  143.7482 LP  0  0  0  0  0  0  0  0  0  0  0  0  # atno 17321 bound_to 7965
  139.6458  144.7658  151.2247 LP  0  0  0  0  0  0  0  0  0  0  0  0  # atno 17342 bound_to 10162
  140.7511  143.6241  150.8485 LP  0  0  0  0  0  0  0  0  0  0  0  0  # atno 17343 bound_to 10162
  156.4604  130.7949  151.2969 LP  0  0  0  0  0  0  0  0  0  0  0  0  # atno 17370 bound_to 10713
  157.7489  131.0068  150.3164 LP  0  0  0  0  0  0  0  0  0  0  0  0  # atno 17371 bound_to 10713
  139.9035  134.8501  156.1798 LP  0  0  0  0  0  0  0  0  0  0  0  0  # atno 17394 bound_to 11000
  141.0514  133.6887  156.1779 LP  0  0  0  0  0  0  0  0  0  0  0  0  # atno 17395 bound_to 11000

$$$$
