AV-unprocessed.smi:3184|AV-procd|sdf|12162|dock5
  -GOLD-   2272017593D 1   1.00000     0.00000
 Structure written by MMmdl.
 35 36  0  0  0  0  0  0  0  0  2 V2000
  147.0864  141.7659  156.8790 C   0  0  0  0  0  0  0  0  0  0  0  0
  148.4510  141.4437  156.2556 C   0  0  1  0  0  0  0  0  0  0  0  0
  148.4394  141.6843  154.7309 C   0  0  0  0  0  0  0  0  0  0  0  0
  148.0962  140.4814  153.9649 N   0  0  0  0  0  0  0  0  0  0  0  0
  146.9599  140.2622  153.2291 C   0  0  0  0  0  0  0  0  0  0  0  0
  147.0713  139.0004  152.7046 C   0  0  0  0  0  0  0  0  0  0  0  0
  148.2730  138.5058  153.1357 N   0  3  0  0  0  0  0  0  0  0  0  0
  148.8969  139.4096  153.8983 C   0  0  0  0  0  0  0  0  0  0  0  0
  149.4730  142.2592  156.9104 N   0  0  0  0  0  0  0  0  0  0  0  0
  150.5046  141.7967  157.6391 C   0  0  0  0  0  0  0  0  0  0  0  0
  150.7114  140.5964  157.8209 O   0  0  0  0  0  0  0  0  0  0  0  0
  151.3115  142.7631  158.1272 N   0  0  0  0  0  0  0  0  0  0  0  0
  151.3939  144.1502  157.6602 C   0  0  0  0  0  0  0  0  0  0  0  0
  152.2571  144.8834  158.6871 C   0  0  0  0  0  0  0  0  0  0  0  0
  153.1168  143.7883  159.3021 C   0  0  0  0  0  0  0  0  0  0  0  0
  152.2349  142.5416  159.2383 C   0  0  0  0  0  0  0  0  0  0  0  0
  146.3000  141.1511  156.4404 H   0  0  0  0  0  0  0  0  0  0  0  0
  146.8149  142.8112  156.7262 H   0  0  0  0  0  0  0  0  0  0  0  0
  147.0895  141.5759  157.9529 H   0  0  0  0  0  0  0  0  0  0  0  0
  148.6485  140.3869  156.4450 H   0  0  0  0  0  0  0  0  0  0  0  0
  147.7003  142.4447  154.4753 H   0  0  0  0  0  0  0  0  0  0  0  0
  149.4060  142.0565  154.3873 H   0  0  0  0  0  0  0  0  0  0  0  0
  146.1732  140.9977  153.1434 H   0  0  0  0  0  0  0  0  0  0  0  0
  146.4030  138.4321  152.0744 H   0  0  0  0  0  0  0  0  0  0  0  0
  149.8536  139.2913  154.3748 H   0  0  0  0  0  0  0  0  0  0  0  0
  149.3850  143.2602  156.8112 H   0  0  0  0  0  0  0  0  0  0  0  0
  151.8711  144.1676  156.6790 H   0  0  0  0  0  0  0  0  0  0  0  0
  150.4116  144.6172  157.5708 H   0  0  0  0  0  0  0  0  0  0  0  0
  152.8465  145.6884  158.2473 H   0  0  0  0  0  0  0  0  0  0  0  0
  151.6182  145.3192  159.4564 H   0  0  0  0  0  0  0  0  0  0  0  0
  154.0075  143.6381  158.6906 H   0  0  0  0  0  0  0  0  0  0  0  0
  153.4429  144.0246  160.3153 H   0  0  0  0  0  0  0  0  0  0  0  0
  151.6612  142.4301  160.1595 H   0  0  0  0  0  0  0  0  0  0  0  0
  152.8339  141.6400  159.1009 H   0  0  0  0  0  0  0  0  0  0  0  0
  148.6385  137.5886  152.9124 H   0  0  0  0  0  0  0  0  0  0  0  0
  1  2  1  0  0  0  0
  1 17  1  0  0  0  0
  1 18  1  0  0  0  0
  1 19  1  0  0  0  0
  2  3  1  0  0  0  0
  2  9  1  0  0  0  0
  2 20  1  0  0  0  0
  3  4  1  0  0  0  0
  3 21  1  0  0  0  0
  3 22  1  0  0  0  0
  4  8  1  0  0  0  0
  4  5  1  0  0  0  0
  5  6  2  0  0  0  0
  5 23  1  0  0  0  0
  6  7  1  0  0  0  0
  6 24  1  0  0  0  0
  7  8  2  0  0  0  0
  7 35  1  0  0  0  0
  8 25  1  0  0  0  0
  9 10  1  0  0  0  0
  9 26  1  0  0  0  0
 10 11  2  0  0  0  0
 10 12  1  0  0  0  0
 12 16  1  0  0  0  0
 12 13  1  0  0  0  0
 13 14  1  0  0  0  0
 13 27  1  0  0  0  0
 13 28  1  0  0  0  0
 14 15  1  0  0  0  0
 14 29  1  0  0  0  0
 14 30  1  0  0  0  0
 15 16  1  0  0  0  0
 15 31  1  0  0  0  0
 15 32  1  0  0  0  0
 16 33  1  0  0  0  0
 16 34  1  0  0  0  0
M  CHG  1   7   1
M  END
> <s_m_source_file>
AV-unprocessed.smi

> <i_m_source_file_index>
3184

> <i_lp_mmshare_version>
43012

> <i_f3d_flags>
0

> <s_epik_input>
W2NIXTFuW2NIXVtjSF1uMVtDSDJdW0NAQEhdKFtDSDNdKVtOSF1DKD1PKU4yW0NIMl1bQ0gyXVtDSDJdW0NIMl0y

> <s_epik_cmdline>
J2VwaWtfcHl0aG9uJywgJy1waCcsICc3LjAnLCAnLXRuJywgJzgnLCAnLW1hJywgJzIwMCcsICctbWV0YWxfYmluZGluZycsICctaW1hZScsICc8aW5maWxlLm1hZT4nLCAnLW9tYWUnLCAnPG91dGZpbGUubWFlPic=

> <r_lp_tautomer_probability>
1

> <r_epik_Ionization_Penalty>
0.25331

> <r_epik_Ionization_Penalty_Charging>
0

> <r_epik_Ionization_Penalty_Neutral>
0.25331

> <r_epik_State_Penalty>
0.244676

> <r_epik_Charging_Adjusted_Penalty>
0.244676

> <i_epik_Tot_Q>
1

> <i_epik_Tot_abs_Q>
1

> <r_epik_Metal_State_Penalty>
0.535078

> <b_epik_Metal_Only>
0

> <s_lp_Force_Field>
OPLS_2005

> <r_lp_Energy>
36.5644

> <b_lp_Chiralities_Consistent>
1

> <s_lp_Variant>
AV-unprocessed.smi:3184-2

> <Gold.Version>
5.8.1

> <Gold.Id.Protein>
6NUR|6NUR_protein|mol2

> <Gold.PLP.Fitness>
44.7285

> <Gold.PLP.PLP>
-35.2206

> <Gold.PLP.part.hbond>
-3.0000

> <Gold.PLP.part.metal>
0.0000

> <Gold.PLP.part.buried>
0.2179

> <Gold.PLP.part.nonpolar>
-32.7586

> <Gold.PLP.part.repulsive>
0.0607

> <Gold.PLP.ligand.clash>
0.0000

> <Gold.PLP.ligand.torsion>
0.6614

> <Gold.PLP.Chemscore.Hbond>
2.9440

> <Gold.PLP.Chemscore.CHOScore>
0.6607

> <Gold.PLP.Chemscore.Metal>
0.0000

> <Gold.Chemscore.Hbonds>
donor molecule, donor type, donor heavy atom, donor atom, acceptor molecule, acceptor atom, score
      L1  H     7    35       P1  7948  2.00
      L1  H     9    26       P1  8028  0.94
      L1  C     5    23       P1 10175  0.71

> <Gold.PLP.Chemscore.Internal.Correction>
0.0167

> <Gold.Rescore>
     Score         DG    S(hbond)    S(metal)    S(lipo)     H(rot)  DE(clash)    DE(int)     intcor
     15.81     -16.46       1.85        0.00      77.25       1.65       0.09       0.56       ----

> <Gold.Chemscore.Fitness>
15.8136

> <Gold.Chemscore.DG>
-16.4605

> <Gold.Chemscore.ZeroCoef>
-5.4800

> <Gold.Chemscore.Hbond>
1.8473

> <Gold.Chemscore.Metal>
0.0000

> <Gold.Chemscore.Lipo>
77.2468

> <Gold.Chemscore.Internal_Hbond>
0.0000

> <Gold.Chemscore.DEClash>
0.0917

> <Gold.Chemscore.DEInternal>
0.5552

> <Gold.Chemscore.Rot>
1.6513

> <Gold.Chemscore.Internal.Correction>
   9.000000E+99

> <Gold.Chemscore.Hbonds>
donor molecule, donor type, donor heavy atom, donor atom, acceptor molecule, acceptor atom, score
      L1  H     7    35       P1  7948  0.98
      L1  H     9    26       P1  8028  0.90

> <Gold.Chemscore.Hbond.Weighted>
-6.1698

> <Gold.Chemscore.Metal.Weighted>
-0.0000

> <Gold.Chemscore.Lipo.Weighted>
-9.0379

> <Gold.Chemscore.Internal_Hbond.Weighted>
0.0000

> <Gold.Chemscore.DEClash.Weighted>
0.0917

> <Gold.Chemscore.DEInternal.Weighted>
0.5552

> <Gold.Chemscore.Rot.Weighted>
4.2273

> <Gold.Chemscore.Internal.Correction.Weighted>
   9.000000E+99

> <Gold.Protein.RotatedTorsions>
[ 6907 6896 6895 6894 ] final   60.46 input  -60.11 | X-H torsion
[ 7974 7965 7964 7962 ] final  156.52 input  175.53 | X-H torsion
[ 8008 7997 7996 7995 ] final   54.57 input   59.86 | X-H torsion
[ 10167 10162 10161 10158 ] final -163.72 input  -65.29 | X-H torsion
[ 10718 10713 10712 10709 ] final  -13.58 input   66.30 | X-H torsion
[ 10763 10752 10751 10750 ] final   76.86 input  -60.55 | X-H torsion
[ 11005 11000 10999 10996 ] final -103.28 input  -57.11 | X-H torsion

> <Gold.Protein.ActiveResidues>
 VAL166  LYS551  ARG553  GLY616  TRP617  ASP618  TYR619  PRO620  LYS621  CYS622 
 ASP623  PHE694  ASN695  SER759  ASP760  ASP761  ALA762  ILE779  LEU786  VAL792 
 PHE793  MET794  SER795  GLU796  ALA797  LYS798  CYS799  TRP800  GLU811  SER814 

> <Gold.Protein.RotatedAtoms>
  152.4004  134.6295  160.0071 H   0  0  0  0  0  0  0  0  0  0  0  0  # atno 6907 bound_to 6896
  151.6502  133.3316  159.3158 H   0  0  0  0  0  0  0  0  0  0  0  0  # atno 6908 bound_to 6896
  150.7906  134.6968  159.6572 H   0  0  0  0  0  0  0  0  0  0  0  0  # atno 6909 bound_to 6896
  144.7958  139.7215  143.6202 H   0  0  0  0  0  0  0  0  0  0  0  0  # atno 7974 bound_to 7965
  155.4869  140.3470  155.4348 H   0  0  0  0  0  0  0  0  0  0  0  0  # atno 8008 bound_to 7997
  156.1002  140.1433  156.9506 H   0  0  0  0  0  0  0  0  0  0  0  0  # atno 8009 bound_to 7997
  154.4689  140.0908  156.7071 H   0  0  0  0  0  0  0  0  0  0  0  0  # atno 8010 bound_to 7997
  139.6301  144.0457  152.2008 H   0  0  0  0  0  0  0  0  0  0  0  0  # atno 10167 bound_to 10162
  156.6282  130.4894  149.6139 H   0  0  0  0  0  0  0  0  0  0  0  0  # atno 10718 bound_to 10713
  153.0756  135.4936  154.8397 H   0  0  0  0  0  0  0  0  0  0  0  0  # atno 10763 bound_to 10752
  154.7082  135.3015  154.9240 H   0  0  0  0  0  0  0  0  0  0  0  0  # atno 10764 bound_to 10752
  153.9942  135.6774  153.4808 H   0  0  0  0  0  0  0  0  0  0  0  0  # atno 10765 bound_to 10752
  141.1152  133.8627  157.1467 H   0  0  0  0  0  0  0  0  0  0  0  0  # atno 11005 bound_to 11000
  146.2226  139.5663  142.9608 LP  0  0  0  0  0  0  0  0  0  0  0  0  # atno 17320 bound_to 7965
  145.5677  141.0397  143.2191 LP  0  0  0  0  0  0  0  0  0  0  0  0  # atno 17321 bound_to 7965
  140.0120  144.6217  150.7639 LP  0  0  0  0  0  0  0  0  0  0  0  0  # atno 17342 bound_to 10162
  140.7434  143.2845  151.3502 LP  0  0  0  0  0  0  0  0  0  0  0  0  # atno 17343 bound_to 10162
  156.2256  130.6763  151.1412 LP  0  0  0  0  0  0  0  0  0  0  0  0  # atno 17370 bound_to 10713
  157.7208  131.0683  150.6145 LP  0  0  0  0  0  0  0  0  0  0  0  0  # atno 17371 bound_to 10713
  140.0070  135.0004  157.0314 LP  0  0  0  0  0  0  0  0  0  0  0  0  # atno 17394 bound_to 11000
  140.4664  134.1431  155.7197 LP  0  0  0  0  0  0  0  0  0  0  0  0  # atno 17395 bound_to 11000

$$$$
