AV-unprocessed.smi:2883|AV-procd|sdf|11078|dock1
  -GOLD-   2272015553D 1   1.00000     0.00000
 Structure written by MMmdl.
 40 42  0  0  0  0  0  0  0  0  2 V2000
  151.9061  138.3080  157.0694 C   0  0  0  0  0  0  0  0  0  0  0  0
  151.7694  138.3962  155.5313 C   0  0  0  0  0  0  0  0  0  0  0  0
  153.2086  138.4287  154.9685 C   0  0  0  0  0  0  0  0  0  0  0  0
  151.0366  137.1501  155.0017 C   0  0  0  0  0  0  0  0  0  0  0  0
  150.9935  139.6564  155.1225 C   0  0  0  0  0  0  0  0  0  0  0  0
  149.9918  139.5520  154.2305 N   0  3  0  0  0  0  0  0  0  0  0  0
  149.2206  140.6288  153.9431 C   0  0  0  0  0  0  0  0  0  0  0  0
  149.4365  141.8544  154.5982 C   0  0  0  0  0  0  0  0  0  0  0  0
  150.4671  141.8905  155.5514 C   0  0  0  0  0  0  0  0  0  0  0  0
  150.7239  143.0775  156.2512 N   0  0  0  0  0  0  0  0  0  0  0  0
  151.6616  143.1048  157.3692 C   0  0  1  0  0  0  0  0  0  0  0  0
  152.3500  144.4651  157.5449 C   0  0  0  0  0  0  0  0  0  0  0  0
  151.9984  144.8128  158.9966 C   0  0  2  0  0  0  0  0  0  0  0  0
  152.7105  143.8990  160.0034 C   0  0  0  0  0  0  0  0  0  0  0  0
  151.9444  142.5878  159.8317 C   0  0  0  0  0  0  0  0  0  0  0  0
  150.9471  142.9475  158.7219 C   0  0  1  0  0  0  0  0  0  0  0  0
  150.6802  144.2988  159.0603 O   0  0  0  0  0  0  0  0  0  0  0  0
  151.2077  140.7904  155.8074 N   0  0  0  0  0  0  0  0  0  0  0  0
  152.4902  137.4364  157.3665 H   0  0  0  0  0  0  0  0  0  0  0  0
  150.9370  138.2201  157.5623 H   0  0  0  0  0  0  0  0  0  0  0  0
  152.4042  139.1892  157.4759 H   0  0  0  0  0  0  0  0  0  0  0  0
  153.7492  139.3130  155.3088 H   0  0  0  0  0  0  0  0  0  0  0  0
  153.2220  138.4304  153.8780 H   0  0  0  0  0  0  0  0  0  0  0  0
  153.7782  137.5551  155.2883 H   0  0  0  0  0  0  0  0  0  0  0  0
  151.5598  136.2336  155.2767 H   0  0  0  0  0  0  0  0  0  0  0  0
  150.9562  137.1693  153.9142 H   0  0  0  0  0  0  0  0  0  0  0  0
  150.0251  137.0837  155.4040 H   0  0  0  0  0  0  0  0  0  0  0  0
  148.4484  140.4707  153.2043 H   0  0  0  0  0  0  0  0  0  0  0  0
  148.8287  142.7214  154.3826 H   0  0  0  0  0  0  0  0  0  0  0  0
  150.4029  143.9581  155.8753 H   0  0  0  0  0  0  0  0  0  0  0  0
  152.3902  142.3025  157.2440 H   0  0  0  0  0  0  0  0  0  0  0  0
  153.4263  144.4156  157.3763 H   0  0  0  0  0  0  0  0  0  0  0  0
  151.9373  145.2167  156.8701 H   0  0  0  0  0  0  0  0  0  0  0  0
  152.0778  145.8753  159.2282 H   0  0  0  0  0  0  0  0  0  0  0  0
  153.7753  143.8001  159.7899 H   0  0  0  0  0  0  0  0  0  0  0  0
  152.5983  144.2766  161.0204 H   0  0  0  0  0  0  0  0  0  0  0  0
  152.5893  141.7514  159.5601 H   0  0  0  0  0  0  0  0  0  0  0  0
  151.4200  142.3287  160.7521 H   0  0  0  0  0  0  0  0  0  0  0  0
  150.0687  142.3011  158.6997 H   0  0  0  0  0  0  0  0  0  0  0  0
  149.8092  138.6646  153.7613 H   0  0  0  0  0  0  0  0  0  0  0  0
  1  2  1  0  0  0  0
  1 19  1  0  0  0  0
  1 20  1  0  0  0  0
  1 21  1  0  0  0  0
  2  3  1  0  0  0  0
  2  4  1  0  0  0  0
  2  5  1  0  0  0  0
  3 22  1  0  0  0  0
  3 23  1  0  0  0  0
  3 24  1  0  0  0  0
  4 25  1  0  0  0  0
  4 26  1  0  0  0  0
  4 27  1  0  0  0  0
  5 18  1  0  0  0  0
  5  6  2  0  0  0  0
  6  7  1  0  0  0  0
  6 40  1  0  0  0  0
  7  8  2  0  0  0  0
  7 28  1  0  0  0  0
  8  9  1  0  0  0  0
  8 29  1  0  0  0  0
  9 10  1  0  0  0  0
  9 18  2  0  0  0  0
 10 11  1  0  0  0  0
 10 30  1  0  0  0  0
 11 16  1  0  0  0  0
 11 12  1  0  0  0  0
 11 31  1  0  0  0  0
 12 13  1  0  0  0  0
 12 32  1  0  0  0  0
 12 33  1  0  0  0  0
 13 17  1  0  0  0  0
 13 14  1  0  0  0  0
 13 34  1  0  0  0  0
 14 15  1  0  0  0  0
 14 35  1  0  0  0  0
 14 36  1  0  0  0  0
 15 16  1  0  0  0  0
 15 37  1  0  0  0  0
 15 38  1  0  0  0  0
 16 17  1  0  0  0  0
 16 39  1  0  0  0  0
M  CHG  1   6   1
M  END
> <s_m_source_file>
AV-unprocessed.smi

> <i_m_source_file_index>
2883

> <i_lp_mmshare_version>
43012

> <i_f3d_flags>
0

> <s_epik_input>
W0NIM11DKFtDSDNdKShbQ0gzXSljMW5bY0hdW2NIXWMobjEpW05IXVtDQEhdKFtDSDJdW0NAQEhdMjMpW0NAQEhdKE8zKVtDSDJdW0NIMl0y

> <s_epik_cmdline>
J2VwaWtfcHl0aG9uJywgJy1waCcsICc3LjAnLCAnLXRuJywgJzgnLCAnLW1hJywgJzIwMCcsICctbWV0YWxfYmluZGluZycsICctaW1hZScsICc8aW5maWxlLm1hZT4nLCAnLW9tYWUnLCAnPG91dGZpbGUubWFlPic=

> <r_lp_tautomer_probability>
0.999336

> <r_epik_Ionization_Penalty>
0.371831

> <r_epik_Ionization_Penalty_Charging>
0.371821

> <r_epik_Ionization_Penalty_Neutral>
1.06897e-05

> <r_epik_State_Penalty>
0.369311

> <r_epik_Charging_Adjusted_Penalty>
0.741132

> <i_epik_Tot_Q>
1

> <i_epik_Tot_abs_Q>
1

> <r_epik_Metal_State_Penalty>
0.621338

> <b_epik_Metal_Only>
0

> <s_lp_Force_Field>
OPLS_2005

> <r_lp_Energy>
38.7214

> <b_lp_Chiralities_Consistent>
1

> <s_lp_Variant>
AV-unprocessed.smi:2883-4

> <Gold.Version>
5.8.1

> <Gold.Id.Protein>
6NUR|6NUR_protein|mol2

> <Gold.PLP.Fitness>
42.3444

> <Gold.PLP.PLP>
-41.9059

> <Gold.PLP.part.hbond>
-2.1694

> <Gold.PLP.part.metal>
0.0000

> <Gold.PLP.part.buried>
-3.1477

> <Gold.PLP.part.nonpolar>
-36.1174

> <Gold.PLP.part.repulsive>
0.3333

> <Gold.PLP.ligand.clash>
0.7058

> <Gold.PLP.ligand.torsion>
0.9707

> <Gold.PLP.Chemscore.Hbond>
0.9750

> <Gold.PLP.Chemscore.CHOScore>
0.0000

> <Gold.PLP.Chemscore.Metal>
0.0000

> <Gold.Chemscore.Hbonds>
donor molecule, donor type, donor heavy atom, donor atom, acceptor molecule, acceptor atom, score
      L1  H    10    30       P1  8028  0.75

> <Gold.PLP.Chemscore.Internal.Correction>
0.1607

> <Gold.Rescore>
     Score         DG    S(hbond)    S(metal)    S(lipo)     H(rot)  DE(clash)    DE(int)     intcor
     18.76     -19.28       0.98        0.00     115.36       1.16       0.14       0.38       ----

> <Gold.Chemscore.Fitness>
18.7550

> <Gold.Chemscore.DG>
-19.2839

> <Gold.Chemscore.ZeroCoef>
-5.4800

> <Gold.Chemscore.Hbond>
0.9831

> <Gold.Chemscore.Metal>
0.0000

> <Gold.Chemscore.Lipo>
115.3557

> <Gold.Chemscore.Internal_Hbond>
0.0000

> <Gold.Chemscore.DEClash>
0.1444

> <Gold.Chemscore.DEInternal>
0.3844

> <Gold.Chemscore.Rot>
1.1626

> <Gold.Chemscore.Internal.Correction>
   9.000000E+99

> <Gold.Chemscore.Hbonds>
donor molecule, donor type, donor heavy atom, donor atom, acceptor molecule, acceptor atom, score
      L1  H    10    30       P1  8028  0.74

> <Gold.Chemscore.Hbond.Weighted>
-3.2836

> <Gold.Chemscore.Metal.Weighted>
-0.0000

> <Gold.Chemscore.Lipo.Weighted>
-13.4966

> <Gold.Chemscore.Internal_Hbond.Weighted>
0.0000

> <Gold.Chemscore.DEClash.Weighted>
0.1444

> <Gold.Chemscore.DEInternal.Weighted>
0.3844

> <Gold.Chemscore.Rot.Weighted>
2.9763

> <Gold.Chemscore.Internal.Correction.Weighted>
   9.000000E+99

> <Gold.Protein.RotatedTorsions>
[ 6907 6896 6895 6894 ] final  -22.18 input  -60.11 | X-H torsion
[ 7974 7965 7964 7962 ] final  -73.72 input  175.53 | X-H torsion
[ 8008 7997 7996 7995 ] final   15.45 input   59.86 | X-H torsion
[ 10167 10162 10161 10158 ] final  149.98 input  -65.29 | X-H torsion
[ 10718 10713 10712 10709 ] final   37.03 input   66.30 | X-H torsion
[ 10763 10752 10751 10750 ] final   98.98 input  -60.55 | X-H torsion
[ 11005 11000 10999 10996 ] final  129.29 input  -57.11 | X-H torsion

> <Gold.Protein.ActiveResidues>
 VAL166  LYS551  ARG553  GLY616  TRP617  ASP618  TYR619  PRO620  LYS621  CYS622 
 ASP623  PHE694  ASN695  SER759  ASP760  ASP761  ALA762  ILE779  LEU786  VAL792 
 PHE793  MET794  SER795  GLU796  ALA797  LYS798  CYS799  TRP800  GLU811  SER814 

> <Gold.Protein.RotatedAtoms>
  151.2223  135.0523  159.8954 H   0  0  0  0  0  0  0  0  0  0  0  0  # atno 6907 bound_to 6896
  152.5414  134.0627  159.8169 H   0  0  0  0  0  0  0  0  0  0  0  0  # atno 6908 bound_to 6896
  151.0795  133.5353  159.2653 H   0  0  0  0  0  0  0  0  0  0  0  0  # atno 6909 bound_to 6896
  145.6485  140.9290  143.0997 H   0  0  0  0  0  0  0  0  0  0  0  0  # atno 7974 bound_to 7965
  154.8629  140.2947  155.5528 H   0  0  0  0  0  0  0  0  0  0  0  0  # atno 8008 bound_to 7997
  156.3020  140.2474  156.3538 H   0  0  0  0  0  0  0  0  0  0  0  0  # atno 8009 bound_to 7997
  154.8899  140.0395  157.1821 H   0  0  0  0  0  0  0  0  0  0  0  0  # atno 8010 bound_to 7997
  139.4855  144.5559  151.7319 H   0  0  0  0  0  0  0  0  0  0  0  0  # atno 10167 bound_to 10162
  157.3420  130.7553  149.6919 H   0  0  0  0  0  0  0  0  0  0  0  0  # atno 10718 bound_to 10713
  153.2957  135.4129  155.1208 H   0  0  0  0  0  0  0  0  0  0  0  0  # atno 10763 bound_to 10752
  154.8534  135.3529  154.5920 H   0  0  0  0  0  0  0  0  0  0  0  0  # atno 10764 bound_to 10752
  153.6343  135.7059  153.5322 H   0  0  0  0  0  0  0  0  0  0  0  0  # atno 10765 bound_to 10752
  139.9607  134.9603  156.9126 H   0  0  0  0  0  0  0  0  0  0  0  0  # atno 11005 bound_to 11000
  144.7131  139.8296  143.7408 LP  0  0  0  0  0  0  0  0  0  0  0  0  # atno 17320 bound_to 7965
  146.1223  139.4243  143.0220 LP  0  0  0  0  0  0  0  0  0  0  0  0  # atno 17321 bound_to 7965
  140.5120  144.1010  150.5998 LP  0  0  0  0  0  0  0  0  0  0  0  0  # atno 17342 bound_to 10162
  140.3939  143.2738  152.0028 LP  0  0  0  0  0  0  0  0  0  0  0  0  # atno 17343 bound_to 10162
  155.9709  130.4165  150.4233 LP  0  0  0  0  0  0  0  0  0  0  0  0  # atno 17370 bound_to 10713
  157.2282  131.0498  151.2507 LP  0  0  0  0  0  0  0  0  0  0  0  0  # atno 17371 bound_to 10713
  140.5507  134.0630  155.7368 LP  0  0  0  0  0  0  0  0  0  0  0  0  # atno 17394 bound_to 11000
  141.1284  133.9344  157.2588 LP  0  0  0  0  0  0  0  0  0  0  0  0  # atno 17395 bound_to 11000

$$$$
