AV-unprocessed.smi:17|AV-procd|sdf|105|dock4
  -GOLD-   2262015263D 1   1.00000     0.00000
 Structure written by MMmdl.
 57 59  0  0  0  0  0  0  0  0  1 V2000
  147.5157  136.7637  163.0411 C   0  0  0  0  0  0  0  0  0  0  0  0
  148.0806  136.0051  161.8286 C   0  0  0  0  0  0  0  0  0  0  0  0
  147.1380  135.9187  160.7086 N   0  0  0  0  0  0  0  0  0  0  0  0
  147.4566  136.5820  159.5627 C   0  0  0  0  0  0  0  0  0  0  0  0
  146.4633  136.9334  158.7024 N   0  0  0  0  0  0  0  0  0  0  0  0
  146.7435  137.5641  157.5589 C   0  0  0  0  0  0  0  0  0  0  0  0
  147.9319  137.9350  157.0814 N   0  0  0  0  0  0  0  0  0  0  0  0
  148.9348  137.5922  157.9385 C   0  0  0  0  0  0  0  0  0  0  0  0
  148.7899  136.9213  159.1870 C   0  0  0  0  0  0  0  0  0  0  0  0
  150.0397  136.7582  159.7749 N   0  0  0  0  0  0  0  0  0  0  0  0
  150.8715  137.2919  158.9234 C   0  0  0  0  0  0  0  0  0  0  0  0
  150.2921  137.8104  157.7889 N   0  0  0  0  0  0  0  0  0  0  0  0
  150.9720  138.4545  156.6793 C   0  0  0  0  0  0  0  0  0  0  0  0
  150.1241  138.4659  155.3804 C   0  0  2  0  0  0  0  0  0  0  0  0
  150.9628  138.2466  154.0990 C   0  0  0  0  0  0  0  0  0  0  0  0
  151.3479  136.8960  153.9448 O   0  0  0  0  0  0  0  0  0  0  0  0
  149.1528  139.6698  155.2445 C   0  0  1  0  0  0  0  0  0  0  0  0
  149.8028  141.0357  155.1199 C   0  0  0  0  0  0  0  0  0  0  0  0
  148.6239  141.8916  154.6703 C   0  0  0  0  0  0  0  0  0  0  0  0
  147.8254  141.0416  153.8527 O   0  0  0  0  0  0  0  0  0  0  0  0
  148.1995  139.6791  154.0438 C   0  0  0  0  0  0  0  0  0  0  0  0
  146.1256  134.8535  160.6611 C   0  0  1  0  0  0  0  0  0  0  0  0
  146.0719  134.0582  161.9770 C   0  0  0  0  0  0  0  0  0  0  0  0
  144.7298  135.3768  160.2571 C   0  0  0  0  0  0  0  0  0  0  0  0
  143.5766  134.0340  159.7113 S   0  0  0  0  0  0  0  0  0  0  0  0
  142.8013  133.4921  161.2902 C   0  0  0  0  0  0  0  0  0  0  0  0
  142.5248  134.6118  158.8604 O   0  0  0  0  0  0  0  0  0  0  0  0
  144.3901  132.9156  159.2107 O   0  0  0  0  0  0  0  0  0  0  0  0
  148.2672  136.8437  163.8264 H   0  0  0  0  0  0  0  0  0  0  0  0
  146.6511  136.2546  163.4677 H   0  0  0  0  0  0  0  0  0  0  0  0
  147.2093  137.7747  162.7736 H   0  0  0  0  0  0  0  0  0  0  0  0
  148.9844  136.5155  161.4993 H   0  0  0  0  0  0  0  0  0  0  0  0
  148.4074  135.0102  162.1260 H   0  0  0  0  0  0  0  0  0  0  0  0
  145.8938  137.8031  156.9368 H   0  0  0  0  0  0  0  0  0  0  0  0
  151.9376  137.3164  159.0967 H   0  0  0  0  0  0  0  0  0  0  0  0
  151.2214  139.4674  156.9930 H   0  0  0  0  0  0  0  0  0  0  0  0
  151.9180  137.9374  156.5216 H   0  0  0  0  0  0  0  0  0  0  0  0
  149.4754  137.5909  155.4413 H   0  0  0  0  0  0  0  0  0  0  0  0
  150.4027  138.5488  153.2137 H   0  0  0  0  0  0  0  0  0  0  0  0
  151.8591  138.8670  154.1181 H   0  0  0  0  0  0  0  0  0  0  0  0
  150.9390  136.5542  153.1642 H   0  0  0  0  0  0  0  0  0  0  0  0
  148.5387  139.7019  156.1463 H   0  0  0  0  0  0  0  0  0  0  0  0
  150.2476  141.3858  156.0517 H   0  0  0  0  0  0  0  0  0  0  0  0
  150.5723  141.0456  154.3485 H   0  0  0  0  0  0  0  0  0  0  0  0
  148.0309  142.2031  155.5312 H   0  0  0  0  0  0  0  0  0  0  0  0
  148.9363  142.7867  154.1320 H   0  0  0  0  0  0  0  0  0  0  0  0
  148.6884  139.3392  153.1320 H   0  0  0  0  0  0  0  0  0  0  0  0
  147.3214  139.0540  154.2070 H   0  0  0  0  0  0  0  0  0  0  0  0
  146.4022  134.1384  159.8863 H   0  0  0  0  0  0  0  0  0  0  0  0
  145.3933  133.2093  161.8918 H   0  0  0  0  0  0  0  0  0  0  0  0
  145.7249  134.6744  162.8067 H   0  0  0  0  0  0  0  0  0  0  0  0
  147.0537  133.6640  162.2404 H   0  0  0  0  0  0  0  0  0  0  0  0
  144.2630  135.8388  161.1274 H   0  0  0  0  0  0  0  0  0  0  0  0
  144.7701  136.1452  159.4863 H   0  0  0  0  0  0  0  0  0  0  0  0
  142.1884  132.6105  161.1042 H   0  0  0  0  0  0  0  0  0  0  0  0
  142.1672  134.2821  161.6860 H   0  0  0  0  0  0  0  0  0  0  0  0
  143.5761  133.2447  162.0153 H   0  0  0  0  0  0  0  0  0  0  0  0
  1  2  1  0  0  0  0
  1 29  1  0  0  0  0
  1 30  1  0  0  0  0
  1 31  1  0  0  0  0
  2  3  1  0  0  0  0
  2 32  1  0  0  0  0
  2 33  1  0  0  0  0
  3  4  1  0  0  0  0
  3 22  1  0  0  0  0
  4  9  1  0  0  0  0
  4  5  2  0  0  0  0
  5  6  1  0  0  0  0
  6  7  2  0  0  0  0
  6 34  1  0  0  0  0
  7  8  1  0  0  0  0
  8 12  1  0  0  0  0
  8  9  2  0  0  0  0
  9 10  1  0  0  0  0
 10 11  2  0  0  0  0
 11 12  1  0  0  0  0
 11 35  1  0  0  0  0
 12 13  1  0  0  0  0
 13 14  1  0  0  0  0
 13 36  1  0  0  0  0
 13 37  1  0  0  0  0
 14 15  1  0  0  0  0
 14 17  1  0  0  0  0
 14 38  1  0  0  0  0
 15 16  1  0  0  0  0
 15 39  1  0  0  0  0
 15 40  1  0  0  0  0
 16 41  1  0  0  0  0
 17 21  1  0  0  0  0
 17 18  1  0  0  0  0
 17 42  1  0  0  0  0
 18 19  1  0  0  0  0
 18 43  1  0  0  0  0
 18 44  1  0  0  0  0
 19 20  1  0  0  0  0
 19 45  1  0  0  0  0
 19 46  1  0  0  0  0
 20 21  1  0  0  0  0
 21 47  1  0  0  0  0
 21 48  1  0  0  0  0
 22 23  1  0  0  0  0
 22 24  1  0  0  0  0
 22 49  1  0  0  0  0
 23 50  1  0  0  0  0
 23 51  1  0  0  0  0
 23 52  1  0  0  0  0
 24 25  1  0  0  0  0
 24 53  1  0  0  0  0
 24 54  1  0  0  0  0
 25 26  1  0  0  0  0
 25 27  2  0  0  0  0
 25 28  2  0  0  0  0
 26 55  1  0  0  0  0
 26 56  1  0  0  0  0
 26 57  1  0  0  0  0
M  END
> <s_m_source_file>
AV-unprocessed.smi

> <i_m_source_file_index>
17

> <i_lp_mmshare_version>
43012

> <i_f3d_flags>
0

> <s_epik_input>
W0NIM11TKD1PKSg9TylbQ0gyXVtDQEBIXShbQ0gzXSlOKFtDSDJdW0NIM10pYyhuW2NIXW4xKWMoYzEyKW5bY0hdbjJbQ0gyXVtDQEhdKFtDSDJdW09IXSlbQ0BASF0zW0NIMl1bQ0gyXU9bQ0gyXTM=

> <s_epik_cmdline>
J2VwaWtfcHl0aG9uJywgJy1waCcsICc3LjAnLCAnLXRuJywgJzgnLCAnLW1hJywgJzIwMCcsICctbWV0YWxfYmluZGluZycsICctaW1hZScsICc8aW5maWxlLm1hZT4nLCAnLW9tYWUnLCAnPG91dGZpbGUubWFlPic=

> <r_lp_tautomer_probability>
1

> <r_epik_Ionization_Penalty>
0.00119955

> <r_epik_Ionization_Penalty_Charging>
0

> <r_epik_Ionization_Penalty_Neutral>
0.00119955

> <r_epik_State_Penalty>
0.000665399

> <r_epik_Charging_Adjusted_Penalty>
0.000665399

> <i_epik_Tot_Q>
0

> <i_epik_Tot_abs_Q>
0

> <r_epik_Metal_State_Penalty>
-0

> <b_epik_Metal_Only>
0

> <s_lp_Force_Field>
OPLS_2005

> <r_lp_Energy>
34.6832

> <b_lp_Chiralities_Consistent>
1

> <s_lp_Variant>
AV-unprocessed.smi:17-7

> <Gold.Version>
5.8.1

> <Gold.Id.Protein>
6NUR|6NUR_protein|mol2

> <Gold.PLP.Fitness>
43.9620

> <Gold.PLP.PLP>
-37.1125

> <Gold.PLP.part.hbond>
-4.0985

> <Gold.PLP.part.metal>
0.0000

> <Gold.PLP.part.buried>
-3.4629

> <Gold.PLP.part.nonpolar>
-28.3862

> <Gold.PLP.part.repulsive>
0.5137

> <Gold.PLP.ligand.clash>
0.0000

> <Gold.PLP.ligand.torsion>
2.4149

> <Gold.PLP.Chemscore.Hbond>
3.5210

> <Gold.PLP.Chemscore.CHOScore>
0.0000

> <Gold.PLP.Chemscore.Metal>
0.0000

> <Gold.Chemscore.Hbonds>
donor molecule, donor type, donor heavy atom, donor atom, acceptor molecule, acceptor atom, score
      L1  H    16    41       P1  7949  0.85
      P1  H  6896  6908       L1    10  0.75
      P1  H 10752 10763       L1    16  0.84
      P1  H 11000 11005       L1    27  0.68

> <Gold.PLP.Chemscore.Internal.Correction>
1.1163

> <Gold.Rescore>
     Score         DG    S(hbond)    S(metal)    S(lipo)     H(rot)  DE(clash)    DE(int)     intcor
      5.97     -14.66       2.51        0.00      83.42       3.51       0.95       7.74       ----

> <Gold.Chemscore.Fitness>
5.9726

> <Gold.Chemscore.DG>
-14.6609

> <Gold.Chemscore.ZeroCoef>
-5.4800

> <Gold.Chemscore.Hbond>
2.5138

> <Gold.Chemscore.Metal>
0.0000

> <Gold.Chemscore.Lipo>
83.4155

> <Gold.Chemscore.Internal_Hbond>
0.0000

> <Gold.Chemscore.DEClash>
0.9470

> <Gold.Chemscore.DEInternal>
7.7413

> <Gold.Chemscore.Rot>
3.5059

> <Gold.Chemscore.Internal.Correction>
   9.000000E+99

> <Gold.Chemscore.Hbonds>
donor molecule, donor type, donor heavy atom, donor atom, acceptor molecule, acceptor atom, score
      L1  H    16    41       P1  7949  0.16
      P1  H  6896  6908       L1    10  0.09
      P1  H 10752 10763       L1    16  0.53
      P1  H 11000 11005       L1    27  0.66

> <Gold.Chemscore.Hbond.Weighted>
-8.3962

> <Gold.Chemscore.Metal.Weighted>
-0.0000

> <Gold.Chemscore.Lipo.Weighted>
-9.7596

> <Gold.Chemscore.Internal_Hbond.Weighted>
0.0000

> <Gold.Chemscore.DEClash.Weighted>
0.9470

> <Gold.Chemscore.DEInternal.Weighted>
7.7413

> <Gold.Chemscore.Rot.Weighted>
8.9750

> <Gold.Chemscore.Internal.Correction.Weighted>
   9.000000E+99

> <Gold.Protein.RotatedTorsions>
[ 6907 6896 6895 6894 ] final -161.39 input  -60.11 | X-H torsion
[ 7974 7965 7964 7962 ] final -103.69 input  175.53 | X-H torsion
[ 8008 7997 7996 7995 ] final -130.17 input   59.86 | X-H torsion
[ 10167 10162 10161 10158 ] final   12.98 input  -65.29 | X-H torsion
[ 10718 10713 10712 10709 ] final  147.82 input   66.30 | X-H torsion
[ 10763 10752 10751 10750 ] final   53.07 input  -60.55 | X-H torsion
[ 11005 11000 10999 10996 ] final -119.26 input  -57.11 | X-H torsion

> <Gold.Protein.ActiveResidues>
 VAL166  LYS551  ARG553  GLY616  TRP617  ASP618  TYR619  PRO620  LYS621  CYS622 
 ASP623  PHE694  ASN695  SER759  ASP760  ASP761  ALA762  ILE779  LEU786  VAL792 
 PHE793  MET794  SER795  GLU796  ALA797  LYS798  CYS799  TRP800  GLU811  SER814 

> <Gold.Protein.RotatedAtoms>
  151.3638  133.3879  159.2692 H   0  0  0  0  0  0  0  0  0  0  0  0  # atno 6907 bound_to 6896
  150.9704  134.9079  159.7795 H   0  0  0  0  0  0  0  0  0  0  0  0  # atno 6908 bound_to 6896
  152.5182  134.3600  159.9333 H   0  0  0  0  0  0  0  0  0  0  0  0  # atno 6909 bound_to 6896
  145.2527  140.9243  143.3086 H   0  0  0  0  0  0  0  0  0  0  0  0  # atno 7974 bound_to 7965
  155.2913  140.0448  157.3023 H   0  0  0  0  0  0  0  0  0  0  0  0  # atno 8008 bound_to 7997
  154.5539  140.2326  155.8408 H   0  0  0  0  0  0  0  0  0  0  0  0  # atno 8009 bound_to 7997
  156.1991  140.3030  155.9495 H   0  0  0  0  0  0  0  0  0  0  0  0  # atno 8010 bound_to 7997
  140.6032  143.8561  150.6987 H   0  0  0  0  0  0  0  0  0  0  0  0  # atno 10167 bound_to 10162
  157.3163  131.0896  151.1277 H   0  0  0  0  0  0  0  0  0  0  0  0  # atno 10718 bound_to 10713
  152.9792  135.5791  154.4681 H   0  0  0  0  0  0  0  0  0  0  0  0  # atno 10763 bound_to 10752
  154.4248  135.2772  155.1954 H   0  0  0  0  0  0  0  0  0  0  0  0  # atno 10764 bound_to 10752
  154.3687  135.6172  153.5782 H   0  0  0  0  0  0  0  0  0  0  0  0  # atno 10765 bound_to 10752
  141.0228  134.0099  157.3258 H   0  0  0  0  0  0  0  0  0  0  0  0  # atno 11005 bound_to 11000
  144.9488  139.4106  143.6412 LP  0  0  0  0  0  0  0  0  0  0  0  0  # atno 17320 bound_to 7965
  146.3298  139.8485  142.8877 LP  0  0  0  0  0  0  0  0  0  0  0  0  # atno 17321 bound_to 7965
  140.2112  143.3882  152.1716 LP  0  0  0  0  0  0  0  0  0  0  0  0  # atno 17342 bound_to 10162
  139.5306  144.7154  151.5070 LP  0  0  0  0  0  0  0  0  0  0  0  0  # atno 17343 bound_to 10162
  157.2579  130.6645  149.5961 LP  0  0  0  0  0  0  0  0  0  0  0  0  # atno 17370 bound_to 10713
  155.9682  130.4518  150.5748 LP  0  0  0  0  0  0  0  0  0  0  0  0  # atno 17371 bound_to 10713
  139.9156  135.0196  156.7869 LP  0  0  0  0  0  0  0  0  0  0  0  0  # atno 17394 bound_to 11000
  140.6544  133.9702  155.7772 LP  0  0  0  0  0  0  0  0  0  0  0  0  # atno 17395 bound_to 11000

$$$$
