AV-unprocessed.smi:3335|AV-procd|sdf|12842|dock9
  -GOLD-   2272019233D 1   1.00000     0.00000
 Structure written by MMmdl.
 47 48  0  0  0  0  0  0  0  0  2 V2000
  151.0662  143.3253  158.1941 C   0  0  0  0  0  0  0  0  0  0  0  0
  150.9625  142.0169  157.4646 C   0  0  0  0  0  0  0  0  0  0  0  0
  151.2826  140.7177  157.9500 C   0  0  0  0  0  0  0  0  0  0  0  0
  151.0825  139.7701  157.0492 N   0  0  0  0  0  0  0  0  0  0  0  0
  150.6178  140.4249  155.9618 N   0  0  0  0  0  0  0  0  0  0  0  0
  150.2928  139.6944  154.7415 C   0  0  1  0  0  0  0  0  0  0  0  0
  151.4715  138.7773  154.3652 C   0  0  0  0  0  0  0  0  0  0  0  0
  148.9420  138.9373  154.8642 C   0  0  2  0  0  0  0  0  0  0  0  0
  149.0822  137.6106  155.6348 C   0  0  0  0  0  0  0  0  0  0  0  0
  148.3887  138.6713  153.5135 N   0  3  0  0  0  0  0  0  0  0  0  0
  146.9373  138.9147  153.3357 C   0  0  1  0  0  0  0  0  0  0  0  0
  146.6718  140.3991  153.0200 C   0  0  0  0  0  0  0  0  0  0  0  0
  146.3864  138.0322  152.1990 C   0  0  0  0  0  0  0  0  0  0  0  0
  146.6225  138.3517  151.0323 O   0  0  0  0  0  0  0  0  0  0  0  0
  145.6418  136.9447  152.4994 N   0  0  0  0  0  0  0  0  0  0  0  0
  145.3690  136.5221  153.8728 C   0  0  0  0  0  0  0  0  0  0  0  0
  144.7922  135.1109  153.7682 C   0  0  0  0  0  0  0  0  0  0  0  0
  144.1591  135.0728  152.3856 C   0  0  0  0  0  0  0  0  0  0  0  0
  145.0197  136.0208  151.5488 C   0  0  0  0  0  0  0  0  0  0  0  0
  150.5469  141.7844  156.1842 C   0  0  0  0  0  0  0  0  0  0  0  0
  151.8396  143.2999  158.9620 H   0  0  0  0  0  0  0  0  0  0  0  0
  150.1300  143.5845  158.6885 H   0  0  0  0  0  0  0  0  0  0  0  0
  151.3124  144.1459  157.5197 H   0  0  0  0  0  0  0  0  0  0  0  0
  151.6547  140.4369  158.9243 H   0  0  0  0  0  0  0  0  0  0  0  0
  150.1905  140.4383  153.9495 H   0  0  0  0  0  0  0  0  0  0  0  0
  151.3468  138.3438  153.3735 H   0  0  0  0  0  0  0  0  0  0  0  0
  151.5838  137.9589  155.0772 H   0  0  0  0  0  0  0  0  0  0  0  0
  152.4093  139.3337  154.3516 H   0  0  0  0  0  0  0  0  0  0  0  0
  148.2469  139.5741  155.4114 H   0  0  0  0  0  0  0  0  0  0  0  0
  149.3973  137.7752  156.6646 H   0  0  0  0  0  0  0  0  0  0  0  0
  149.8136  136.9538  155.1630 H   0  0  0  0  0  0  0  0  0  0  0  0
  148.1372  137.0701  155.6820 H   0  0  0  0  0  0  0  0  0  0  0  0
  148.8711  139.2607  152.8498 H   0  0  0  0  0  0  0  0  0  0  0  0
  146.4432  138.6511  154.2684 H   0  0  0  0  0  0  0  0  0  0  0  0
  145.6125  140.5892  152.8468 H   0  0  0  0  0  0  0  0  0  0  0  0
  147.2136  140.7192  152.1287 H   0  0  0  0  0  0  0  0  0  0  0  0
  146.9795  141.0478  153.8400 H   0  0  0  0  0  0  0  0  0  0  0  0
  146.2639  136.5359  154.4971 H   0  0  0  0  0  0  0  0  0  0  0  0
  144.6382  137.2023  154.3131 H   0  0  0  0  0  0  0  0  0  0  0  0
  145.6004  134.3798  153.8199 H   0  0  0  0  0  0  0  0  0  0  0  0
  144.0839  134.8830  154.5654 H   0  0  0  0  0  0  0  0  0  0  0  0
  144.1115  134.0659  151.9695 H   0  0  0  0  0  0  0  0  0  0  0  0
  143.1400  135.4583  152.4426 H   0  0  0  0  0  0  0  0  0  0  0  0
  144.4032  136.5345  150.8106 H   0  0  0  0  0  0  0  0  0  0  0  0
  145.7953  135.4636  151.0223 H   0  0  0  0  0  0  0  0  0  0  0  0
  150.2082  142.4693  155.4205 H   0  0  0  0  0  0  0  0  0  0  0  0
  148.5858  137.7087  153.2798 H   0  0  0  0  0  0  0  0  0  0  0  0
  1  2  1  0  0  0  0
  1 21  1  0  0  0  0
  1 22  1  0  0  0  0
  1 23  1  0  0  0  0
  2 20  2  0  0  0  0
  2  3  1  0  0  0  0
  3  4  2  0  0  0  0
  3 24  1  0  0  0  0
  4  5  1  0  0  0  0
  5  6  1  0  0  0  0
  5 20  1  0  0  0  0
  6  7  1  0  0  0  0
  6  8  1  0  0  0  0
  6 25  1  0  0  0  0
  7 26  1  0  0  0  0
  7 27  1  0  0  0  0
  7 28  1  0  0  0  0
  8  9  1  0  0  0  0
  8 10  1  0  0  0  0
  8 29  1  0  0  0  0
  9 30  1  0  0  0  0
  9 31  1  0  0  0  0
  9 32  1  0  0  0  0
 10 11  1  0  0  0  0
 10 33  1  0  0  0  0
 10 47  1  0  0  0  0
 11 12  1  0  0  0  0
 11 13  1  0  0  0  0
 11 34  1  0  0  0  0
 12 35  1  0  0  0  0
 12 36  1  0  0  0  0
 12 37  1  0  0  0  0
 13 14  2  0  0  0  0
 13 15  1  0  0  0  0
 15 19  1  0  0  0  0
 15 16  1  0  0  0  0
 16 17  1  0  0  0  0
 16 38  1  0  0  0  0
 16 39  1  0  0  0  0
 17 18  1  0  0  0  0
 17 40  1  0  0  0  0
 17 41  1  0  0  0  0
 18 19  1  0  0  0  0
 18 42  1  0  0  0  0
 18 43  1  0  0  0  0
 19 44  1  0  0  0  0
 19 45  1  0  0  0  0
 20 46  1  0  0  0  0
M  CHG  1  10   1
M  END
> <s_m_source_file>
AV-unprocessed.smi

> <i_m_source_file_index>
3335

> <i_lp_mmshare_version>
43012

> <i_f3d_flags>
0

> <s_epik_input>
W0NIM11jMVtjSF1ubihbY0hdMSlbQ0BIXShbQ0gzXSlbQ0BIXShbQ0gzXSlbTkhdW0NASF0oW0NIM10pQyg9TylOMltDSDJdW0NIMl1bQ0gyXVtDSDJdMg==

> <s_epik_cmdline>
J2VwaWtfcHl0aG9uJywgJy1waCcsICc3LjAnLCAnLXRuJywgJzgnLCAnLW1hJywgJzIwMCcsICctbWV0YWxfYmluZGluZycsICctaW1hZScsICc8aW5maWxlLm1hZT4nLCAnLW9tYWUnLCAnPG91dGZpbGUubWFlPic=

> <r_lp_tautomer_probability>
1

> <r_epik_Ionization_Penalty>
0.14175

> <r_epik_Ionization_Penalty_Charging>
0.141731

> <r_epik_Ionization_Penalty_Neutral>
1.91261e-05

> <r_epik_State_Penalty>
0.131043

> <r_epik_Charging_Adjusted_Penalty>
0.272773

> <i_epik_Tot_Q>
1

> <i_epik_Tot_abs_Q>
1

> <r_epik_Metal_State_Penalty>
0.131408

> <b_epik_Metal_Only>
0

> <s_lp_Force_Field>
OPLS_2005

> <r_lp_Energy>
36.2431

> <b_lp_Chiralities_Consistent>
1

> <s_lp_Variant>
AV-unprocessed.smi:3335-6

> <Gold.Version>
5.8.1

> <Gold.Id.Protein>
6NUR|6NUR_protein|mol2

> <Gold.PLP.Fitness>
45.0604

> <Gold.PLP.PLP>
-34.7834

> <Gold.PLP.part.hbond>
-3.0000

> <Gold.PLP.part.metal>
0.0000

> <Gold.PLP.part.buried>
-2.0013

> <Gold.PLP.part.nonpolar>
-31.5462

> <Gold.PLP.part.repulsive>
0.6647

> <Gold.PLP.ligand.clash>
0.0000

> <Gold.PLP.ligand.torsion>
1.8596

> <Gold.PLP.Chemscore.Hbond>
4.0000

> <Gold.PLP.Chemscore.CHOScore>
0.6297

> <Gold.PLP.Chemscore.Metal>
0.0000

> <Gold.Chemscore.Hbonds>
donor molecule, donor type, donor heavy atom, donor atom, acceptor molecule, acceptor atom, score
      L1  H    10    33       P1  7957  1.00
      L1  H    10    47       P1  7948  1.81
      P1  H  7954  7966       L1    14  1.00
      L1  C    20    46       P1  8028  0.78

> <Gold.PLP.Chemscore.Internal.Correction>
0.1073

> <Gold.Rescore>
     Score         DG    S(hbond)    S(metal)    S(lipo)     H(rot)  DE(clash)    DE(int)     intcor
     18.14     -20.12       2.91        0.00      78.62       1.68       0.38       1.60       ----

> <Gold.Chemscore.Fitness>
18.1378

> <Gold.Chemscore.DG>
-20.1184

> <Gold.Chemscore.ZeroCoef>
-5.4800

> <Gold.Chemscore.Hbond>
2.9145

> <Gold.Chemscore.Metal>
0.0000

> <Gold.Chemscore.Lipo>
78.6242

> <Gold.Chemscore.Internal_Hbond>
0.0000

> <Gold.Chemscore.DEClash>
0.3784

> <Gold.Chemscore.DEInternal>
1.6021

> <Gold.Chemscore.Rot>
1.6778

> <Gold.Chemscore.Internal.Correction>
   9.000000E+99

> <Gold.Chemscore.Hbonds>
donor molecule, donor type, donor heavy atom, donor atom, acceptor molecule, acceptor atom, score
      L1  H    10    33       P1  7957  0.97
      L1  H    10    47       P1  7948  0.82
      P1  H  7954  7966       L1    14  0.96

> <Gold.Chemscore.Hbond.Weighted>
-9.7345

> <Gold.Chemscore.Metal.Weighted>
-0.0000

> <Gold.Chemscore.Lipo.Weighted>
-9.1990

> <Gold.Chemscore.Internal_Hbond.Weighted>
0.0000

> <Gold.Chemscore.DEClash.Weighted>
0.3784

> <Gold.Chemscore.DEInternal.Weighted>
1.6021

> <Gold.Chemscore.Rot.Weighted>
4.2952

> <Gold.Chemscore.Internal.Correction.Weighted>
   9.000000E+99

> <Gold.Protein.RotatedTorsions>
[ 6907 6896 6895 6894 ] final   15.68 input  -60.11 | X-H torsion
[ 7974 7965 7964 7962 ] final   -4.70 input  175.53 | X-H torsion
[ 8008 7997 7996 7995 ] final  173.71 input   59.86 | X-H torsion
[ 10167 10162 10161 10158 ] final  107.20 input  -65.29 | X-H torsion
[ 10718 10713 10712 10709 ] final -160.27 input   66.30 | X-H torsion
[ 10763 10752 10751 10750 ] final   35.13 input  -60.55 | X-H torsion
[ 11005 11000 10999 10996 ] final  -64.91 input  -57.11 | X-H torsion

> <Gold.Protein.ActiveResidues>
 VAL166  LYS551  ARG553  GLY616  TRP617  ASP618  TYR619  PRO620  LYS621  CYS622 
 ASP623  PHE694  ASN695  SER759  ASP760  ASP761  ALA762  ILE779  LEU786  VAL792 
 PHE793  MET794  SER795  GLU796  ALA797  LYS798  CYS799  TRP800  GLU811  SER814 

> <Gold.Protein.RotatedAtoms>
  151.8219  135.0649  160.0425 H   0  0  0  0  0  0  0  0  0  0  0  0  # atno 6907 bound_to 6896
  152.2945  133.5589  159.5587 H   0  0  0  0  0  0  0  0  0  0  0  0  # atno 6908 bound_to 6896
  150.7245  134.0297  159.3771 H   0  0  0  0  0  0  0  0  0  0  0  0  # atno 6909 bound_to 6896
  146.2367  140.1910  142.8332 H   0  0  0  0  0  0  0  0  0  0  0  0  # atno 7974 bound_to 7965
  156.1048  140.1453  156.9419 H   0  0  0  0  0  0  0  0  0  0  0  0  # atno 8008 bound_to 7997
  154.4726  140.0905  156.7228 H   0  0  0  0  0  0  0  0  0  0  0  0  # atno 8009 bound_to 7997
  155.4698  140.3441  155.4326 H   0  0  0  0  0  0  0  0  0  0  0  0  # atno 8010 bound_to 7997
  139.6947  144.7103  151.1288 H   0  0  0  0  0  0  0  0  0  0  0  0  # atno 10167 bound_to 10162
  156.5798  130.8724  151.2861 H   0  0  0  0  0  0  0  0  0  0  0  0  # atno 10718 bound_to 10713
  153.0133  135.6342  154.1778 H   0  0  0  0  0  0  0  0  0  0  0  0  # atno 10763 bound_to 10752
  154.1518  135.2828  155.3135 H   0  0  0  0  0  0  0  0  0  0  0  0  # atno 10764 bound_to 10752
  154.6047  135.5576  153.7472 H   0  0  0  0  0  0  0  0  0  0  0  0  # atno 10765 bound_to 10752
  141.1439  133.6673  156.5906 H   0  0  0  0  0  0  0  0  0  0  0  0  # atno 11005 bound_to 11000
  144.9858  140.8501  143.5370 LP  0  0  0  0  0  0  0  0  0  0  0  0  # atno 17320 bound_to 7965
  145.1909  139.2301  143.5243 LP  0  0  0  0  0  0  0  0  0  0  0  0  # atno 17321 bound_to 7965
  140.7693  143.5509  150.9205 LP  0  0  0  0  0  0  0  0  0  0  0  0  # atno 17342 bound_to 10162
  139.9188  143.6631  152.3101 LP  0  0  0  0  0  0  0  0  0  0  0  0  # atno 17343 bound_to 10162
  157.7329  130.9722  150.1952 LP  0  0  0  0  0  0  0  0  0  0  0  0  # atno 17370 bound_to 10713
  156.2642  130.3714  149.8099 LP  0  0  0  0  0  0  0  0  0  0  0  0  # atno 17371 bound_to 10713
  140.3766  134.7559  157.4634 LP  0  0  0  0  0  0  0  0  0  0  0  0  # atno 17394 bound_to 11000
  140.0669  134.5916  155.8685 LP  0  0  0  0  0  0  0  0  0  0  0  0  # atno 17395 bound_to 11000

$$$$
