AV-unprocessed.smi:1554|AV-procd|sdf|6263|dock3
  -GOLD-   22720 6453D 1   1.00000     0.00000
 Structure written by MMmdl.
 49 51  0  0  0  0  0  0  0  0  3 V2000
  146.4798  130.7328  152.0842 C   0  0  0  0  0  0  0  0  0  0  0  0
  146.0913  132.2004  152.1478 C   0  0  0  0  0  0  0  0  0  0  0  0
  144.9630  132.6318  151.4142 C   0  0  0  0  0  0  0  0  0  0  0  0
  144.6309  133.9789  151.4956 C   0  0  0  0  0  0  0  0  0  0  0  0
  143.5941  134.7039  150.9037 N   0  3  0  0  0  0  0  0  0  0  0  0
  143.6763  136.0087  151.2854 C   0  0  0  0  0  0  0  0  0  0  0  0
  144.7525  136.1275  152.1099 N   0  0  0  0  0  0  0  0  0  0  0  0
  145.2898  137.3101  152.7966 C   0  0  0  0  0  0  0  0  0  0  0  0
  146.6053  137.8199  152.1746 C   0  0  1  0  0  0  0  0  0  0  0  0
  146.5640  137.6015  150.7766 O   0  0  0  0  0  0  0  0  0  0  0  0
  146.8128  139.3241  152.4483 C   0  0  0  0  0  0  0  0  0  0  0  0
  147.6793  139.5945  153.6248 N   0  3  2  0  0  0  0  0  0  0  0  0
  147.9414  141.0370  153.8563 C   0  0  0  0  0  0  0  0  0  0  0  0
  148.8158  141.2300  155.1062 C   0  0  0  0  0  0  0  0  0  0  0  0
  150.0266  140.4990  154.9595 O   0  0  0  0  0  0  0  0  0  0  0  0
  149.7995  139.1000  154.8302 C   0  0  2  0  0  0  0  0  0  0  0  0
  151.1608  138.3977  154.7717 C   0  0  0  0  0  0  0  0  0  0  0  0
  148.9561  138.8425  153.5662 C   0  0  0  0  0  0  0  0  0  0  0  0
  145.3781  134.8869  152.2707 C   0  0  0  0  0  0  0  0  0  0  0  0
  146.4941  134.4797  152.9975 C   0  0  0  0  0  0  0  0  0  0  0  0
  146.8473  133.1128  152.9288 C   0  0  0  0  0  0  0  0  0  0  0  0
  148.0570  132.6363  153.7148 C   0  0  0  0  0  0  0  0  0  0  0  0
  145.8092  130.1695  151.4344 H   0  0  0  0  0  0  0  0  0  0  0  0
  146.4379  130.2829  153.0766 H   0  0  0  0  0  0  0  0  0  0  0  0
  147.4919  130.6208  151.6951 H   0  0  0  0  0  0  0  0  0  0  0  0
  144.3829  131.9430  150.8174 H   0  0  0  0  0  0  0  0  0  0  0  0
  143.0106  136.8052  150.9851 H   0  0  0  0  0  0  0  0  0  0  0  0
  144.5244  138.0865  152.7551 H   0  0  0  0  0  0  0  0  0  0  0  0
  145.4235  137.0653  153.8512 H   0  0  0  0  0  0  0  0  0  0  0  0
  147.4290  137.2382  152.5861 H   0  0  0  0  0  0  0  0  0  0  0  0
  145.9129  138.1703  150.3957 H   0  0  0  0  0  0  0  0  0  0  0  0
  147.2543  139.7783  151.5595 H   0  0  0  0  0  0  0  0  0  0  0  0
  145.8515  139.8195  152.5946 H   0  0  0  0  0  0  0  0  0  0  0  0
  148.4416  141.4629  152.9850 H   0  0  0  0  0  0  0  0  0  0  0  0
  147.0082  141.5831  153.9872 H   0  0  0  0  0  0  0  0  0  0  0  0
  149.0544  142.2854  155.2384 H   0  0  0  0  0  0  0  0  0  0  0  0
  148.2880  140.9085  156.0056 H   0  0  0  0  0  0  0  0  0  0  0  0
  149.2623  138.7410  155.7101 H   0  0  0  0  0  0  0  0  0  0  0  0
  151.0423  137.3176  154.6807 H   0  0  0  0  0  0  0  0  0  0  0  0
  151.7388  138.5928  155.6754 H   0  0  0  0  0  0  0  0  0  0  0  0
  151.7480  138.7436  153.9205 H   0  0  0  0  0  0  0  0  0  0  0  0
  148.7492  137.7751  153.4767 H   0  0  0  0  0  0  0  0  0  0  0  0
  149.5115  139.1377  152.6741 H   0  0  0  0  0  0  0  0  0  0  0  0
  147.0684  135.1738  153.5929 H   0  0  0  0  0  0  0  0  0  0  0  0
  148.5275  133.4551  154.2601 H   0  0  0  0  0  0  0  0  0  0  0  0
  148.8047  132.2082  153.0466 H   0  0  0  0  0  0  0  0  0  0  0  0
  147.7658  131.8769  154.4409 H   0  0  0  0  0  0  0  0  0  0  0  0
  147.1868  139.2462  154.4347 H   0  0  0  0  0  0  0  0  0  0  0  0
  142.8806  134.3380  150.2861 H   0  0  0  0  0  0  0  0  0  0  0  0
  1  2  1  0  0  0  0
  1 23  1  0  0  0  0
  1 24  1  0  0  0  0
  1 25  1  0  0  0  0
  2 21  1  0  0  0  0
  2  3  2  0  0  0  0
  3  4  1  0  0  0  0
  3 26  1  0  0  0  0
  4 19  2  0  0  0  0
  4  5  1  0  0  0  0
  5  6  2  0  0  0  0
  5 49  1  0  0  0  0
  6  7  1  0  0  0  0
  6 27  1  0  0  0  0
  7  8  1  0  0  0  0
  7 19  1  0  0  0  0
  8  9  1  0  0  0  0
  8 28  1  0  0  0  0
  8 29  1  0  0  0  0
  9 10  1  0  0  0  0
  9 11  1  0  0  0  0
  9 30  1  0  0  0  0
 10 31  1  0  0  0  0
 11 12  1  0  0  0  0
 11 32  1  0  0  0  0
 11 33  1  0  0  0  0
 12 18  1  0  0  0  0
 12 13  1  0  0  0  0
 12 48  1  0  0  0  0
 13 14  1  0  0  0  0
 13 34  1  0  0  0  0
 13 35  1  0  0  0  0
 14 15  1  0  0  0  0
 14 36  1  0  0  0  0
 14 37  1  0  0  0  0
 15 16  1  0  0  0  0
 16 17  1  0  0  0  0
 16 18  1  0  0  0  0
 16 38  1  0  0  0  0
 17 39  1  0  0  0  0
 17 40  1  0  0  0  0
 17 41  1  0  0  0  0
 18 42  1  0  0  0  0
 18 43  1  0  0  0  0
 19 20  1  0  0  0  0
 20 21  2  0  0  0  0
 20 44  1  0  0  0  0
 21 22  1  0  0  0  0
 22 45  1  0  0  0  0
 22 46  1  0  0  0  0
 22 47  1  0  0  0  0
M  CHG  1   5   1
M  CHG  1  12   1
M  END
> <s_m_source_file>
AV-unprocessed.smi

> <i_m_source_file_index>
1554

> <i_lp_mmshare_version>
43012

> <i_f3d_flags>
0

> <s_epik_input>
W0NIM11jKFtjSF0xKWMoW0NIM10pW2NIXWMoYzEyKW4oW2NIXW4yKVtDSDJdW0NASF0oW09IXSlbQ0gyXU4zW0NIMl1bQ0gyXU9bQ0BASF0oW0NIM10pW0NIMl0z

> <s_epik_cmdline>
J2VwaWtfcHl0aG9uJywgJy1waCcsICc3LjAnLCAnLXRuJywgJzgnLCAnLW1hJywgJzIwMCcsICctbWV0YWxfYmluZGluZycsICctaW1hZScsICc8aW5maWxlLm1hZT4nLCAnLW9tYWUnLCAnPG91dGZpbGUubWFlPic=

> <r_epik_Ionization_Penalty>
1.8848

> <r_epik_Ionization_Penalty_Charging>
1.88479

> <r_epik_Ionization_Penalty_Neutral>
1.42224e-05

> <r_epik_State_Penalty>
1.94551

> <r_epik_Charging_Adjusted_Penalty>
3.8303

> <i_epik_Tot_Q>
2

> <i_epik_Tot_abs_Q>
2

> <r_epik_Metal_State_Penalty>
5.95849

> <b_epik_Metal_Only>
0

> <s_lp_Force_Field>
OPLS_2005

> <r_lp_Energy>
30.4692

> <b_lp_Chiralities_Consistent>
1

> <s_lp_Variant>
AV-unprocessed.smi:1554-24

> <Gold.Version>
5.8.1

> <Gold.Id.Protein>
6NUR|6NUR_protein|mol2

> <Gold.PLP.Fitness>
50.7645

> <Gold.PLP.PLP>
-35.6885

> <Gold.PLP.part.hbond>
-6.0000

> <Gold.PLP.part.metal>
0.0000

> <Gold.PLP.part.buried>
5.7704

> <Gold.PLP.part.nonpolar>
-35.4263

> <Gold.PLP.part.repulsive>
0.1450

> <Gold.PLP.ligand.clash>
0.0000

> <Gold.PLP.ligand.torsion>
0.9559

> <Gold.PLP.Chemscore.Hbond>
4.8960

> <Gold.PLP.Chemscore.CHOScore>
0.7443

> <Gold.PLP.Chemscore.Metal>
0.0000

> <Gold.Chemscore.Hbonds>
donor molecule, donor type, donor heavy atom, donor atom, acceptor molecule, acceptor atom, score
      L1  H     5    49       P1 10186  1.95
      L1  H    10    31       P1 10171  0.71
      P1  H  7954  7966       L1    10  1.00
      P1  H  7989  7998       L1    15  0.54
      L1  C     6    27       P1 10171  0.80

> <Gold.PLP.Chemscore.Internal.Correction>
0.0667

> <Gold.Rescore>
     Score         DG    S(hbond)    S(metal)    S(lipo)     H(rot)  DE(clash)    DE(int)     intcor
     17.90     -22.58       3.15        0.00     102.53       2.11       3.61       1.07       ----

> <Gold.Chemscore.Fitness>
17.9005

> <Gold.Chemscore.DG>
-22.5818

> <Gold.Chemscore.ZeroCoef>
-5.4800

> <Gold.Chemscore.Hbond>
3.1478

> <Gold.Chemscore.Metal>
0.0000

> <Gold.Chemscore.Lipo>
102.5258

> <Gold.Chemscore.Internal_Hbond>
0.0000

> <Gold.Chemscore.DEClash>
3.6121

> <Gold.Chemscore.DEInternal>
1.0693

> <Gold.Chemscore.Rot>
2.1122

> <Gold.Chemscore.Internal.Correction>
   9.000000E+99

> <Gold.Chemscore.Hbonds>
donor molecule, donor type, donor heavy atom, donor atom, acceptor molecule, acceptor atom, score
      L1  H     5    49       P1 10186  0.73
      L1  H    10    31       P1 10171  0.68
      P1  H  7954  7966       L1    10  0.60
      P1  H  7989  7998       L1    15  0.21

> <Gold.Chemscore.Hbond.Weighted>
-10.5136

> <Gold.Chemscore.Metal.Weighted>
-0.0000

> <Gold.Chemscore.Lipo.Weighted>
-11.9955

> <Gold.Chemscore.Internal_Hbond.Weighted>
0.0000

> <Gold.Chemscore.DEClash.Weighted>
3.6121

> <Gold.Chemscore.DEInternal.Weighted>
1.0693

> <Gold.Chemscore.Rot.Weighted>
5.4073

> <Gold.Chemscore.Internal.Correction.Weighted>
   9.000000E+99

> <Gold.Protein.RotatedTorsions>
[ 6907 6896 6895 6894 ] final -154.43 input  -60.11 | X-H torsion
[ 7974 7965 7964 7962 ] final  -33.16 input  175.53 | X-H torsion
[ 8008 7997 7996 7995 ] final   71.48 input   59.86 | X-H torsion
[ 10167 10162 10161 10158 ] final  169.05 input  -65.29 | X-H torsion
[ 10718 10713 10712 10709 ] final  159.22 input   66.30 | X-H torsion
[ 10763 10752 10751 10750 ] final -144.67 input  -60.55 | X-H torsion
[ 11005 11000 10999 10996 ] final -155.69 input  -57.11 | X-H torsion

> <Gold.Protein.ActiveResidues>
 VAL166  LYS551  ARG553  GLY616  TRP617  ASP618  TYR619  PRO620  LYS621  CYS622 
 ASP623  PHE694  ASN695  SER759  ASP760  ASP761  ALA762  ILE779  LEU786  VAL792 
 PHE793  MET794  SER795  GLU796  ALA797  LYS798  CYS799  TRP800  GLU811  SER814 

> <Gold.Protein.RotatedAtoms>
  151.2573  133.4319  159.2614 H   0  0  0  0  0  0  0  0  0  0  0  0  # atno 6907 bound_to 6896
  151.0562  134.9706  159.8247 H   0  0  0  0  0  0  0  0  0  0  0  0  # atno 6908 bound_to 6896
  152.5391  134.2526  159.8957 H   0  0  0  0  0  0  0  0  0  0  0  0  # atno 6909 bound_to 6896
  146.0933  140.5882  142.8854 H   0  0  0  0  0  0  0  0  0  0  0  0  # atno 7974 bound_to 7965
  155.7546  140.3488  155.5167 H   0  0  0  0  0  0  0  0  0  0  0  0  # atno 8008 bound_to 7997
  155.8972  140.1028  157.1397 H   0  0  0  0  0  0  0  0  0  0  0  0  # atno 8009 bound_to 7997
  154.4040  140.1293  156.4377 H   0  0  0  0  0  0  0  0  0  0  0  0  # atno 8010 bound_to 7997
  139.4983  144.3748  151.9686 H   0  0  0  0  0  0  0  0  0  0  0  0  # atno 10167 bound_to 10162
  157.1671  131.0601  151.2202 H   0  0  0  0  0  0  0  0  0  0  0  0  # atno 10718 bound_to 10713
  154.8418  135.3434  154.6382 H   0  0  0  0  0  0  0  0  0  0  0  0  # atno 10763 bound_to 10752
  153.6993  135.6970  153.5072 H   0  0  0  0  0  0  0  0  0  0  0  0  # atno 10764 bound_to 10752
  153.2535  135.4345  155.0776 H   0  0  0  0  0  0  0  0  0  0  0  0  # atno 10765 bound_to 10752
  140.6838  134.4116  157.5224 H   0  0  0  0  0  0  0  0  0  0  0  0  # atno 11005 bound_to 11000
  144.7376  140.4852  143.6892 LP  0  0  0  0  0  0  0  0  0  0  0  0  # atno 17320 bound_to 7965
  145.5998  139.1503  143.3135 LP  0  0  0  0  0  0  0  0  0  0  0  0  # atno 17321 bound_to 7965
  140.3184  144.3456  150.6015 LP  0  0  0  0  0  0  0  0  0  0  0  0  # atno 17342 bound_to 10162
  140.5742  143.2178  151.7544 LP  0  0  0  0  0  0  0  0  0  0  0  0  # atno 17343 bound_to 10162
  157.4078  130.7368  149.6815 LP  0  0  0  0  0  0  0  0  0  0  0  0  # atno 17370 bound_to 10713
  155.9744  130.4103  150.3925 LP  0  0  0  0  0  0  0  0  0  0  0  0  # atno 17371 bound_to 10713
  139.8944  134.8708  156.2180 LP  0  0  0  0  0  0  0  0  0  0  0  0  # atno 17394 bound_to 11000
  141.0296  133.6996  156.1408 LP  0  0  0  0  0  0  0  0  0  0  0  0  # atno 17395 bound_to 11000

$$$$
