AV-unprocessed.smi:44|AV-procd|sdf|401|dock7
  -GOLD-   2262016253D 1   1.00000     0.00000
 Structure written by MMmdl.
 29 31  0  0  0  0  0  0  0  0  3 V2000
  141.1401  138.5100  153.9855 O   0  0  0  0  0  0  0  0  0  0  0  0
  141.3292  137.3402  153.6583 C   0  0  0  0  0  0  0  0  0  0  0  0
  140.5388  136.2513  153.9250 N   0  5  0  0  0  0  0  0  0  0  0  0
  140.8793  134.9762  153.4879 C   0  0  0  0  0  0  0  0  0  0  0  0
  141.9175  134.6334  152.8116 N   0  0  0  0  0  0  0  0  0  0  0  0
  142.7926  135.6817  152.4883 C   0  0  0  0  0  0  0  0  0  0  0  0
  142.5537  136.9821  152.8681 C   0  0  0  0  0  0  0  0  0  0  0  0
  143.5616  137.7873  152.4106 N   0  3  0  0  0  0  0  0  0  0  0  0
  144.3673  136.9385  151.7724 C   0  0  0  0  0  0  0  0  0  0  0  0
  143.9693  135.6323  151.7807 N   0  0  0  0  0  0  0  0  0  0  0  0
  144.6759  134.4923  151.1267 C   0  0  1  0  0  0  0  0  0  0  0  0
  144.3469  133.1679  151.8261 C   0  0  0  0  0  0  0  0  0  0  0  0
  144.3317  132.2116  150.6544 C   0  0  0  0  0  0  0  0  0  0  0  0
  143.6999  133.0960  149.5778 C   0  0  2  0  0  0  0  0  0  0  0  0
  143.8949  132.6624  148.1150 C   0  0  0  0  0  0  0  0  0  0  0  0
  143.7426  133.7447  147.2203 O   0  0  0  0  0  0  0  0  0  0  0  0
  144.2284  134.3986  149.8062 O   0  0  0  0  0  0  0  0  0  0  0  0
  143.6669  138.7875  152.5241 H   0  0  0  0  0  0  0  0  0  0  0  0
  145.7367  134.7456  151.1484 H   0  0  0  0  0  0  0  0  0  0  0  0
  142.6282  133.1602  149.7714 H   0  0  0  0  0  0  0  0  0  0  0  0
  140.1381  134.2309  153.7873 H   0  0  0  0  0  0  0  0  0  0  0  0
  145.2694  137.2566  151.2815 H   0  0  0  0  0  0  0  0  0  0  0  0
  145.0901  132.9257  152.5860 H   0  0  0  0  0  0  0  0  0  0  0  0
  143.3610  133.2143  152.2911 H   0  0  0  0  0  0  0  0  0  0  0  0
  145.3529  131.9287  150.3976 H   0  0  0  0  0  0  0  0  0  0  0  0
  143.7605  131.3037  150.8497 H   0  0  0  0  0  0  0  0  0  0  0  0
  144.8987  132.2580  147.9821 H   0  0  0  0  0  0  0  0  0  0  0  0
  143.1938  131.8692  147.8538 H   0  0  0  0  0  0  0  0  0  0  0  0
  144.5843  134.1586  147.1051 H   0  0  0  0  0  0  0  0  0  0  0  0
  1  2  2  0  0  0  0
  2  7  1  0  0  0  0
  2  3  1  0  0  0  0
  3  4  1  0  0  0  0
  4 21  1  0  0  0  0
  4  5  2  0  0  0  0
  5  6  1  0  0  0  0
  6 10  1  0  0  0  0
  6  7  2  0  0  0  0
  7  8  1  0  0  0  0
  8  9  2  0  0  0  0
  8 18  1  0  0  0  0
  9 10  1  0  0  0  0
  9 22  1  0  0  0  0
 10 11  1  0  0  0  0
 11 19  1  0  0  0  0
 11 17  1  0  0  0  0
 11 12  1  0  0  0  0
 12 13  1  0  0  0  0
 12 23  1  0  0  0  0
 12 24  1  0  0  0  0
 13 14  1  0  0  0  0
 13 25  1  0  0  0  0
 13 26  1  0  0  0  0
 14 20  1  0  0  0  0
 14 15  1  0  0  0  0
 14 17  1  0  0  0  0
 15 16  1  0  0  0  0
 15 27  1  0  0  0  0
 15 28  1  0  0  0  0
 16 29  1  0  0  0  0
M  CHG  1   3  -1
M  CHG  1   8   1
M  END
> <s_m_source_file>
AV-unprocessed.smi

> <i_m_source_file_index>
44

> <i_lp_mmshare_version>
43012

> <i_f3d_flags>
0

> <s_epik_input>
bjFbY0hdW25IXWMoPU8pYyhjMTIpbltjSF1uMltDQEhdM1tDSDJdW0NIMl1bQ0BIXShPMylbQ0gyXVtPSF0=

> <s_epik_cmdline>
J2VwaWtfcHl0aG9uJywgJy1waCcsICc3LjAnLCAnLXRuJywgJzgnLCAnLW1hJywgJzIwMCcsICctbWV0YWxfYmluZGluZycsICctaW1hZScsICc8aW5maWxlLm1hZT4nLCAnLW9tYWUnLCAnPG91dGZpbGUubWFlPic=

> <r_lp_tautomer_probability>
0.144281

> <r_epik_Ionization_Penalty>
5.63685

> <r_epik_Ionization_Penalty_Charging>
5.58669

> <r_epik_Ionization_Penalty_Neutral>
0.0501585

> <r_epik_State_Penalty>
1.20809

> <r_epik_Charging_Adjusted_Penalty>
6.79478

> <i_epik_Tot_Q>
0

> <i_epik_Tot_abs_Q>
2

> <r_epik_Metal_State_Penalty>
1.52487

> <b_epik_Metal_Only>
0

> <s_epik_Chemistry_Notes>
This compound contains an acetal/aminal-like group ( X-CH(R)-Y where X, Y are N, S, or O) that may be acid/base labile, releasing an aldehyde.

> <s_lp_Force_Field>
OPLS_2005

> <r_lp_Energy>
46.8975

> <b_lp_Chiralities_Consistent>
1

> <s_lp_Variant>
AV-unprocessed.smi:44-7

> <Gold.Version>
5.8.1

> <Gold.Id.Protein>
6NUR|6NUR_protein|mol2

> <Gold.PLP.Fitness>
42.1904

> <Gold.PLP.PLP>
-29.8186

> <Gold.PLP.part.hbond>
-6.6600

> <Gold.PLP.part.metal>
0.0000

> <Gold.PLP.part.buried>
-0.6364

> <Gold.PLP.part.nonpolar>
-24.7730

> <Gold.PLP.part.repulsive>
2.0307

> <Gold.PLP.ligand.clash>
0.0000

> <Gold.PLP.ligand.torsion>
0.9728

> <Gold.PLP.Chemscore.Hbond>
3.9750

> <Gold.PLP.Chemscore.CHOScore>
0.7949

> <Gold.PLP.Chemscore.Metal>
0.0000

> <Gold.Chemscore.Hbonds>
donor molecule, donor type, donor heavy atom, donor atom, acceptor molecule, acceptor atom, score
      L1  H     8    18       P1 10175  2.00
      L1  H    16    29       P1  7921  1.00
      P1  H 10192 10197       L1    16  0.52
      L1  C     4    21       P1 11000  0.09
      L1  C     9    22       P1 10171  0.15

> <Gold.PLP.Chemscore.Internal.Correction>
0.0077

> <Gold.Rescore>
     Score         DG    S(hbond)    S(metal)    S(lipo)     H(rot)  DE(clash)    DE(int)     intcor
     10.49     -13.73       2.67        0.00      43.89       2.27       2.22       1.02       ----

> <Gold.Chemscore.Fitness>
10.4946

> <Gold.Chemscore.DG>
-13.7290

> <Gold.Chemscore.ZeroCoef>
-5.4800

> <Gold.Chemscore.Hbond>
2.6737

> <Gold.Chemscore.Metal>
0.0000

> <Gold.Chemscore.Lipo>
43.8921

> <Gold.Chemscore.Internal_Hbond>
0.0000

> <Gold.Chemscore.DEClash>
2.2175

> <Gold.Chemscore.DEInternal>
1.0169

> <Gold.Chemscore.Rot>
2.2720

> <Gold.Chemscore.Internal.Correction>
   9.000000E+99

> <Gold.Chemscore.Hbonds>
donor molecule, donor type, donor heavy atom, donor atom, acceptor molecule, acceptor atom, score
      L1  H     8    18       P1 10175  1.00
      L1  H    16    29       P1  7921  0.98
      P1  H 10192 10197       L1    16  0.46

> <Gold.Chemscore.Hbond.Weighted>
-8.9300

> <Gold.Chemscore.Metal.Weighted>
-0.0000

> <Gold.Chemscore.Lipo.Weighted>
-5.1354

> <Gold.Chemscore.Internal_Hbond.Weighted>
0.0000

> <Gold.Chemscore.DEClash.Weighted>
2.2175

> <Gold.Chemscore.DEInternal.Weighted>
1.0169

> <Gold.Chemscore.Rot.Weighted>
5.8164

> <Gold.Chemscore.Internal.Correction.Weighted>
   9.000000E+99

> <Gold.Protein.RotatedTorsions>
[ 6907 6896 6895 6894 ] final  111.10 input  -60.11 | X-H torsion
[ 7974 7965 7964 7962 ] final   71.03 input  175.53 | X-H torsion
[ 8008 7997 7996 7995 ] final  -97.49 input   59.86 | X-H torsion
[ 10167 10162 10161 10158 ] final   42.73 input  -65.29 | X-H torsion
[ 10718 10713 10712 10709 ] final  -90.08 input   66.30 | X-H torsion
[ 10763 10752 10751 10750 ] final -155.18 input  -60.55 | X-H torsion
[ 11005 11000 10999 10996 ] final -129.40 input  -57.11 | X-H torsion

> <Gold.Protein.ActiveResidues>
 VAL166  LYS551  ARG553  GLY616  TRP617  ASP618  TYR619  PRO620  LYS621  CYS622 
 ASP623  PHE694  ASN695  SER759  ASP760  ASP761  ALA762  ILE779  LEU786  VAL792 
 PHE793  MET794  SER795  GLU796  ALA797  LYS798  CYS799  TRP800  GLU811  SER814 

> <Gold.Protein.RotatedAtoms>
  152.4987  133.8706  159.7296 H   0  0  0  0  0  0  0  0  0  0  0  0  # atno 6907 bound_to 6896
  150.9194  133.6890  159.2842 H   0  0  0  0  0  0  0  0  0  0  0  0  # atno 6908 bound_to 6896
  151.4272  135.1009  159.9684 H   0  0  0  0  0  0  0  0  0  0  0  0  # atno 6909 bound_to 6896
  145.7708  139.2842  143.1322 H   0  0  0  0  0  0  0  0  0  0  0  0  # atno 7974 bound_to 7965
  154.7885  140.0462  157.1182 H   0  0  0  0  0  0  0  0  0  0  0  0  # atno 8008 bound_to 7997
  154.9619  140.3078  155.5007 H   0  0  0  0  0  0  0  0  0  0  0  0  # atno 8009 bound_to 7997
  156.2946  140.2269  156.4706 H   0  0  0  0  0  0  0  0  0  0  0  0  # atno 8010 bound_to 7997
  140.3514  144.2345  150.6145 H   0  0  0  0  0  0  0  0  0  0  0  0  # atno 10167 bound_to 10162
  155.9986  130.4896  150.5269 H   0  0  0  0  0  0  0  0  0  0  0  0  # atno 10718 bound_to 10713
  154.7805  135.3173  154.7999 H   0  0  0  0  0  0  0  0  0  0  0  0  # atno 10763 bound_to 10752
  153.8712  135.6844  153.4778 H   0  0  0  0  0  0  0  0  0  0  0  0  # atno 10764 bound_to 10752
  153.1441  135.4727  154.9477 H   0  0  0  0  0  0  0  0  0  0  0  0  # atno 10765 bound_to 10752
  140.9434  134.1162  157.4129 H   0  0  0  0  0  0  0  0  0  0  0  0  # atno 11005 bound_to 11000
  146.0172  140.8382  142.9941 LP  0  0  0  0  0  0  0  0  0  0  0  0  # atno 17320 bound_to 7965
  144.6813  140.2575  143.7323 LP  0  0  0  0  0  0  0  0  0  0  0  0  # atno 17321 bound_to 7965
  140.5215  143.2264  151.8381 LP  0  0  0  0  0  0  0  0  0  0  0  0  # atno 17342 bound_to 10162
  139.4826  144.4831  151.9281 LP  0  0  0  0  0  0  0  0  0  0  0  0  # atno 17343 bound_to 10162
  157.3223  131.0684  151.1922 LP  0  0  0  0  0  0  0  0  0  0  0  0  # atno 17370 bound_to 10713
  157.2831  130.6760  149.6076 LP  0  0  0  0  0  0  0  0  0  0  0  0  # atno 17371 bound_to 10713
  139.8827  135.0044  156.6246 LP  0  0  0  0  0  0  0  0  0  0  0  0  # atno 17394 bound_to 11000
  140.7702  133.8745  155.8486 LP  0  0  0  0  0  0  0  0  0  0  0  0  # atno 17395 bound_to 11000

$$$$
