AV-unprocessed.smi:2276|AV-procd|sdf|9173|dock4
  -GOLD-   2272012383D 1   1.00000     0.00000
 Structure written by MMmdl.
 53 54  0  0  0  0  0  0  0  0  2 V2000
  151.8313  145.8963  160.4141 C   0  0  0  0  0  0  0  0  0  0  0  0
  151.8564  144.5354  159.7502 C   0  0  0  0  0  0  0  0  0  0  0  0
  152.6646  143.5058  160.2680 C   0  0  0  0  0  0  0  0  0  0  0  0
  152.6513  142.2576  159.6163 C   0  0  0  0  0  0  0  0  0  0  0  0
  153.5011  141.1081  160.1151 C   0  0  0  0  0  0  0  0  0  0  0  0
  151.9060  142.0088  158.5189 N   0  0  0  0  0  0  0  0  0  0  0  0
  151.1217  142.9923  158.0112 C   0  0  0  0  0  0  0  0  0  0  0  0
  150.3365  142.8399  156.8378 N   0  0  0  0  0  0  0  0  0  0  0  0
  150.0403  141.6947  156.2000 C   0  0  0  0  0  0  0  0  0  0  0  0
  150.4397  140.5782  156.5310 O   0  0  0  0  0  0  0  0  0  0  0  0
  149.2742  141.9241  155.1229 N   0  0  0  0  0  0  0  0  0  0  0  0
  148.9476  140.9549  154.0761 C   0  0  0  0  0  0  0  0  0  0  0  0
  147.9363  139.8639  154.5155 C   0  0  1  0  0  0  0  0  0  0  0  0
  147.2937  139.2053  153.2848 C   0  0  0  0  0  0  0  0  0  0  0  0
  148.5721  138.8046  155.4538 C   0  0  0  0  0  0  0  0  0  0  0  0
  149.2630  137.7108  154.7585 N   0  0  0  0  0  0  0  0  0  0  0  0
  150.4295  138.1987  154.0153 C   0  0  0  0  0  0  0  0  0  0  0  0
  151.5822  138.6404  154.9494 C   0  0  0  0  0  0  0  0  0  0  0  0
  151.9830  137.5375  155.8555 N   0  3  0  0  0  0  0  0  0  0  0  0
  153.0881  137.9158  156.7623 C   0  0  0  0  0  0  0  0  0  0  0  0
  150.8125  137.0030  156.5870 C   0  0  0  0  0  0  0  0  0  0  0  0
  149.7028  136.5897  155.6000 C   0  0  0  0  0  0  0  0  0  0  0  0
  151.0761  144.2733  158.6054 C   0  0  0  0  0  0  0  0  0  0  0  0
  151.3194  145.8366  161.3748 H   0  0  0  0  0  0  0  0  0  0  0  0
  151.3141  146.6300  159.7951 H   0  0  0  0  0  0  0  0  0  0  0  0
  152.8466  146.2538  160.5874 H   0  0  0  0  0  0  0  0  0  0  0  0
  153.2764  143.6700  161.1431 H   0  0  0  0  0  0  0  0  0  0  0  0
  153.8834  141.3068  161.1167 H   0  0  0  0  0  0  0  0  0  0  0  0
  154.3497  140.9504  159.4493 H   0  0  0  0  0  0  0  0  0  0  0  0
  152.9173  140.1878  160.1521 H   0  0  0  0  0  0  0  0  0  0  0  0
  150.1216  143.6962  156.3487 H   0  0  0  0  0  0  0  0  0  0  0  0
  148.9720  142.8732  154.9587 H   0  0  0  0  0  0  0  0  0  0  0  0
  148.5706  141.4896  153.2031 H   0  0  0  0  0  0  0  0  0  0  0  0
  149.8824  140.4848  153.7692 H   0  0  0  0  0  0  0  0  0  0  0  0
  147.1418  140.3881  155.0406 H   0  0  0  0  0  0  0  0  0  0  0  0
  148.0331  138.6668  152.6912 H   0  0  0  0  0  0  0  0  0  0  0  0
  146.8278  139.9504  152.6393 H   0  0  0  0  0  0  0  0  0  0  0  0
  146.5189  138.4954  153.5750 H   0  0  0  0  0  0  0  0  0  0  0  0
  149.2826  139.3066  156.1118 H   0  0  0  0  0  0  0  0  0  0  0  0
  147.8154  138.3825  156.1098 H   0  0  0  0  0  0  0  0  0  0  0  0
  150.7800  137.4032  153.3563 H   0  0  0  0  0  0  0  0  0  0  0  0
  150.1330  139.0229  153.3656 H   0  0  0  0  0  0  0  0  0  0  0  0
  152.4414  138.9323  154.3449 H   0  0  0  0  0  0  0  0  0  0  0  0
  151.3058  139.5207  155.5306 H   0  0  0  0  0  0  0  0  0  0  0  0
  152.7826  138.7133  157.4414 H   0  0  0  0  0  0  0  0  0  0  0  0
  153.9518  138.2608  156.1934 H   0  0  0  0  0  0  0  0  0  0  0  0
  153.4027  137.0607  157.3614 H   0  0  0  0  0  0  0  0  0  0  0  0
  151.1203  136.1350  157.1712 H   0  0  0  0  0  0  0  0  0  0  0  0
  150.4489  137.7412  157.2996 H   0  0  0  0  0  0  0  0  0  0  0  0
  148.8667  136.1434  156.1348 H   0  0  0  0  0  0  0  0  0  0  0  0
  150.0790  135.7996  154.9484 H   0  0  0  0  0  0  0  0  0  0  0  0
  150.4513  145.0489  158.1858 H   0  0  0  0  0  0  0  0  0  0  0  0
  152.3234  136.7895  155.2685 H   0  0  0  0  0  0  0  0  0  0  0  0
  1  2  1  0  0  0  0
  1 24  1  0  0  0  0
  1 25  1  0  0  0  0
  1 26  1  0  0  0  0
  2 23  1  0  0  0  0
  2  3  2  0  0  0  0
  3  4  1  0  0  0  0
  3 27  1  0  0  0  0
  4  5  1  0  0  0  0
  4  6  2  0  0  0  0
  5 28  1  0  0  0  0
  5 29  1  0  0  0  0
  5 30  1  0  0  0  0
  6  7  1  0  0  0  0
  7  8  1  0  0  0  0
  7 23  2  0  0  0  0
  8  9  1  0  0  0  0
  8 31  1  0  0  0  0
  9 10  2  0  0  0  0
  9 11  1  0  0  0  0
 11 12  1  0  0  0  0
 11 32  1  0  0  0  0
 12 13  1  0  0  0  0
 12 33  1  0  0  0  0
 12 34  1  0  0  0  0
 13 14  1  0  0  0  0
 13 15  1  0  0  0  0
 13 35  1  0  0  0  0
 14 36  1  0  0  0  0
 14 37  1  0  0  0  0
 14 38  1  0  0  0  0
 15 16  1  0  0  0  0
 15 39  1  0  0  0  0
 15 40  1  0  0  0  0
 16 22  1  0  0  0  0
 16 17  1  0  0  0  0
 17 18  1  0  0  0  0
 17 41  1  0  0  0  0
 17 42  1  0  0  0  0
 18 19  1  0  0  0  0
 18 43  1  0  0  0  0
 18 44  1  0  0  0  0
 19 20  1  0  0  0  0
 19 21  1  0  0  0  0
 19 53  1  0  0  0  0
 20 45  1  0  0  0  0
 20 46  1  0  0  0  0
 20 47  1  0  0  0  0
 21 22  1  0  0  0  0
 21 48  1  0  0  0  0
 21 49  1  0  0  0  0
 22 50  1  0  0  0  0
 22 51  1  0  0  0  0
 23 52  1  0  0  0  0
M  CHG  1  19   1
M  END
> <s_m_source_file>
AV-unprocessed.smi

> <i_m_source_file_index>
2276

> <i_lp_mmshare_version>
43012

> <i_f3d_flags>
0

> <s_epik_input>
W0NIM11jMVtjSF1jKFtDSDNdKW5jKFtjSF0xKVtOSF1DKD1PKVtOSF1bQ0gyXVtDQEhdKFtDSDNdKVtDSDJdTjJbQ0gyXVtDSDJdTihbQ0gzXSlbQ0gyXVtDSDJdMg==

> <s_epik_cmdline>
J2VwaWtfcHl0aG9uJywgJy1waCcsICc3LjAnLCAnLXRuJywgJzgnLCAnLW1hJywgJzIwMCcsICctbWV0YWxfYmluZGluZycsICctaW1hZScsICc8aW5maWxlLm1hZT4nLCAnLW9tYWUnLCAnPG91dGZpbGUubWFlPic=

> <r_epik_Ionization_Penalty>
0.0247364

> <r_epik_Ionization_Penalty_Charging>
0.0230248

> <r_epik_Ionization_Penalty_Neutral>
0.00171164

> <r_epik_State_Penalty>
0.239056

> <r_epik_Charging_Adjusted_Penalty>
0.262081

> <i_epik_Tot_Q>
1

> <i_epik_Tot_abs_Q>
1

> <r_epik_Metal_State_Penalty>
0.239048

> <b_epik_Metal_Only>
0

> <s_lp_Force_Field>
OPLS_2005

> <r_lp_Energy>
20.5392

> <b_lp_Chiralities_Consistent>
1

> <s_lp_Variant>
AV-unprocessed.smi:2276-2

> <Gold.Version>
5.8.1

> <Gold.Id.Protein>
6NUR|6NUR_protein|mol2

> <Gold.PLP.Fitness>
47.8568

> <Gold.PLP.PLP>
-42.9476

> <Gold.PLP.part.hbond>
-2.0000

> <Gold.PLP.part.metal>
0.0000

> <Gold.PLP.part.buried>
-4.9002

> <Gold.PLP.part.nonpolar>
-38.3320

> <Gold.PLP.part.repulsive>
0.5695

> <Gold.PLP.ligand.clash>
0.0046

> <Gold.PLP.ligand.torsion>
0.5046

> <Gold.PLP.Chemscore.Hbond>
1.9520

> <Gold.PLP.Chemscore.CHOScore>
0.0000

> <Gold.PLP.Chemscore.Metal>
0.0000

> <Gold.Chemscore.Hbonds>
donor molecule, donor type, donor heavy atom, donor atom, acceptor molecule, acceptor atom, score
      L1  H     8    31       P1  8028  0.96
      L1  H    11    32       P1  8028  0.96

> <Gold.PLP.Chemscore.Internal.Correction>
0.0669

> <Gold.Rescore>
     Score         DG    S(hbond)    S(metal)    S(lipo)     H(rot)  DE(clash)    DE(int)     intcor
     16.97     -21.87       1.89        0.00     121.87       1.63       0.24       4.66       ----

> <Gold.Chemscore.Fitness>
16.9743

> <Gold.Chemscore.DG>
-21.8725

> <Gold.Chemscore.ZeroCoef>
-5.4800

> <Gold.Chemscore.Hbond>
1.8867

> <Gold.Chemscore.Metal>
0.0000

> <Gold.Chemscore.Lipo>
121.8715

> <Gold.Chemscore.Internal_Hbond>
0.0000

> <Gold.Chemscore.DEClash>
0.2412

> <Gold.Chemscore.DEInternal>
4.6570

> <Gold.Chemscore.Rot>
1.6282

> <Gold.Chemscore.Internal.Correction>
   9.000000E+99

> <Gold.Chemscore.Hbonds>
donor molecule, donor type, donor heavy atom, donor atom, acceptor molecule, acceptor atom, score
      L1  H     8    31       P1  8028  0.92
      L1  H    11    32       P1  8028  0.91

> <Gold.Chemscore.Hbond.Weighted>
-6.3017

> <Gold.Chemscore.Metal.Weighted>
-0.0000

> <Gold.Chemscore.Lipo.Weighted>
-14.2590

> <Gold.Chemscore.Internal_Hbond.Weighted>
0.0000

> <Gold.Chemscore.DEClash.Weighted>
0.2412

> <Gold.Chemscore.DEInternal.Weighted>
4.6570

> <Gold.Chemscore.Rot.Weighted>
4.1682

> <Gold.Chemscore.Internal.Correction.Weighted>
   9.000000E+99

> <Gold.Protein.RotatedTorsions>
[ 6907 6896 6895 6894 ] final  -92.94 input  -60.11 | X-H torsion
[ 7974 7965 7964 7962 ] final -144.75 input  175.53 | X-H torsion
[ 8008 7997 7996 7995 ] final  172.65 input   59.86 | X-H torsion
[ 10167 10162 10161 10158 ] final  -98.39 input  -65.29 | X-H torsion
[ 10718 10713 10712 10709 ] final -140.98 input   66.30 | X-H torsion
[ 10763 10752 10751 10750 ] final   26.22 input  -60.55 | X-H torsion
[ 11005 11000 10999 10996 ] final -174.80 input  -57.11 | X-H torsion

> <Gold.Protein.ActiveResidues>
 VAL166  LYS551  ARG553  GLY616  TRP617  ASP618  TYR619  PRO620  LYS621  CYS622 
 ASP623  PHE694  ASN695  SER759  ASP760  ASP761  ALA762  ILE779  LEU786  VAL792 
 PHE793  MET794  SER795  GLU796  ALA797  LYS798  CYS799  TRP800  GLU811  SER814 

> <Gold.Protein.RotatedAtoms>
  150.6914  134.2044  159.4334 H   0  0  0  0  0  0  0  0  0  0  0  0  # atno 6907 bound_to 6896
  152.0009  134.9926  160.0574 H   0  0  0  0  0  0  0  0  0  0  0  0  # atno 6908 bound_to 6896
  152.1579  133.4528  159.4883 H   0  0  0  0  0  0  0  0  0  0  0  0  # atno 6909 bound_to 6896
  144.8276  140.5671  143.5537 H   0  0  0  0  0  0  0  0  0  0  0  0  # atno 7974 bound_to 7965
  156.1154  140.1480  156.9280 H   0  0  0  0  0  0  0  0  0  0  0  0  # atno 8008 bound_to 7997
  154.4796  140.0883  156.7389 H   0  0  0  0  0  0  0  0  0  0  0  0  # atno 8009 bound_to 7997
  155.4523  140.3435  155.4304 H   0  0  0  0  0  0  0  0  0  0  0  0  # atno 8010 bound_to 7997
  140.2735  143.3328  152.0511 H   0  0  0  0  0  0  0  0  0  0  0  0  # atno 10167 bound_to 10162
  156.3286  130.7574  151.1687 H   0  0  0  0  0  0  0  0  0  0  0  0  # atno 10718 bound_to 10713
  153.0637  135.6565  154.0403 H   0  0  0  0  0  0  0  0  0  0  0  0  # atno 10763 bound_to 10752
  154.0065  135.2932  155.3398 H   0  0  0  0  0  0  0  0  0  0  0  0  # atno 10764 bound_to 10752
  154.6986  135.5253  153.8563 H   0  0  0  0  0  0  0  0  0  0  0  0  # atno 10765 bound_to 10752
  140.4705  134.6170  157.4880 H   0  0  0  0  0  0  0  0  0  0  0  0  # atno 11005 bound_to 11000
  145.4967  139.1485  143.3680 LP  0  0  0  0  0  0  0  0  0  0  0  0  # atno 17320 bound_to 7965
  146.2580  140.5106  142.8865 LP  0  0  0  0  0  0  0  0  0  0  0  0  # atno 17321 bound_to 7965
  139.4982  144.6640  151.6399 LP  0  0  0  0  0  0  0  0  0  0  0  0  # atno 17342 bound_to 10162
  140.5870  143.9846  150.6301 LP  0  0  0  0  0  0  0  0  0  0  0  0  # atno 17343 bound_to 10162
  157.7426  131.0487  150.5011 LP  0  0  0  0  0  0  0  0  0  0  0  0  # atno 17370 bound_to 10713
  156.5174  130.4153  149.6269 LP  0  0  0  0  0  0  0  0  0  0  0  0  # atno 17371 bound_to 10713
  139.9888  134.7018  155.9726 LP  0  0  0  0  0  0  0  0  0  0  0  0  # atno 17394 bound_to 11000
  141.1579  133.6541  156.4222 LP  0  0  0  0  0  0  0  0  0  0  0  0  # atno 17395 bound_to 11000

$$$$
