AV-unprocessed.smi:2066|AV-procd|sdf|8421|dock7
  -GOLD-   2272011113D 1   1.00000     0.00000
 Structure written by MMmdl.
 38 39  0  0  0  0  0  0  0  0  2 V2000
  152.5229  137.5349  160.2066 C   0  0  0  0  0  0  0  0  0  0  0  0
  152.1579  138.2947  158.9085 C   0  0  0  0  0  0  0  0  0  0  0  0
  153.2821  138.0151  157.8789 C   0  0  0  0  0  0  0  0  0  0  0  0
  150.8695  137.6352  158.3386 C   0  0  0  0  0  0  0  0  0  0  0  0
  149.7268  137.7851  159.2356 N   0  0  0  0  0  0  0  0  0  0  0  0
  148.9666  136.7835  159.6954 C   0  0  0  0  0  0  0  0  0  0  0  0
  149.2043  135.6239  159.3493 O   0  0  0  0  0  0  0  0  0  0  0  0
  147.9811  137.1861  160.5294 N   0  5  0  0  0  0  0  0  0  0  0  0
  147.2794  136.2787  161.2274 C   0  0  0  0  0  0  0  0  0  0  0  0
  147.6585  135.0017  161.3522 N   0  0  0  0  0  0  0  0  0  0  0  0
  146.7783  134.2334  162.1160 C   0  0  0  0  0  0  0  0  0  0  0  0
  145.6976  134.9392  162.5744 C   0  0  0  0  0  0  0  0  0  0  0  0
  145.7553  136.6008  162.0592 S   0  0  0  0  0  0  0  0  0  0  0  0
  151.9800  139.7586  159.1207 N   0  0  0  0  0  0  0  0  0  0  0  0
  151.6328  140.5230  157.9177 C   0  0  0  0  0  0  0  0  0  0  0  0
  151.3427  142.0000  158.2353 C   0  0  0  0  0  0  0  0  0  0  0  0
  152.4642  142.5799  158.8908 O   0  0  0  0  0  0  0  0  0  0  0  0
  152.7955  141.9025  160.0971 C   0  0  0  0  0  0  0  0  0  0  0  0
  153.0998  140.4257  159.7952 C   0  0  0  0  0  0  0  0  0  0  0  0
  152.6438  136.4683  160.0135 H   0  0  0  0  0  0  0  0  0  0  0  0
  151.7501  137.6293  160.9690 H   0  0  0  0  0  0  0  0  0  0  0  0
  153.4605  137.8835  160.6387 H   0  0  0  0  0  0  0  0  0  0  0  0
  153.3077  136.9638  157.5896 H   0  0  0  0  0  0  0  0  0  0  0  0
  154.2718  138.2445  158.2735 H   0  0  0  0  0  0  0  0  0  0  0  0
  153.1469  138.5986  156.9674 H   0  0  0  0  0  0  0  0  0  0  0  0
  150.6086  138.0813  157.3773 H   0  0  0  0  0  0  0  0  0  0  0  0
  151.0324  136.5776  158.1279 H   0  0  0  0  0  0  0  0  0  0  0  0
  149.5070  138.7211  159.5434 H   0  0  0  0  0  0  0  0  0  0  0  0
  146.9991  133.1894  162.2814 H   0  0  0  0  0  0  0  0  0  0  0  0
  144.8760  134.5866  163.1793 H   0  0  0  0  0  0  0  0  0  0  0  0
  152.4444  140.4726  157.1918 H   0  0  0  0  0  0  0  0  0  0  0  0
  150.7491  140.1092  157.4354 H   0  0  0  0  0  0  0  0  0  0  0  0
  151.1428  142.5523  157.3172 H   0  0  0  0  0  0  0  0  0  0  0  0
  150.4559  142.0927  158.8644 H   0  0  0  0  0  0  0  0  0  0  0  0
  153.6630  142.3834  160.5488 H   0  0  0  0  0  0  0  0  0  0  0  0
  151.9741  141.9886  160.8102 H   0  0  0  0  0  0  0  0  0  0  0  0
  153.3316  139.9382  160.7405 H   0  0  0  0  0  0  0  0  0  0  0  0
  153.9982  140.3697  159.1804 H   0  0  0  0  0  0  0  0  0  0  0  0
  1  2  1  0  0  0  0
  1 20  1  0  0  0  0
  1 21  1  0  0  0  0
  1 22  1  0  0  0  0
  2  3  1  0  0  0  0
  2  4  1  0  0  0  0
  2 14  1  0  0  0  0
  3 23  1  0  0  0  0
  3 24  1  0  0  0  0
  3 25  1  0  0  0  0
  4  5  1  0  0  0  0
  4 26  1  0  0  0  0
  4 27  1  0  0  0  0
  5  6  1  0  0  0  0
  5 28  1  0  0  0  0
  6  7  2  0  0  0  0
  6  8  1  0  0  0  0
  8  9  1  0  0  0  0
  9 13  1  0  0  0  0
  9 10  2  0  0  0  0
 10 11  1  0  0  0  0
 11 12  2  0  0  0  0
 11 29  1  0  0  0  0
 12 13  1  0  0  0  0
 12 30  1  0  0  0  0
 14 19  1  0  0  0  0
 14 15  1  0  0  0  0
 15 16  1  0  0  0  0
 15 31  1  0  0  0  0
 15 32  1  0  0  0  0
 16 17  1  0  0  0  0
 16 33  1  0  0  0  0
 16 34  1  0  0  0  0
 17 18  1  0  0  0  0
 18 19  1  0  0  0  0
 18 35  1  0  0  0  0
 18 36  1  0  0  0  0
 19 37  1  0  0  0  0
 19 38  1  0  0  0  0
M  CHG  1   8  -1
M  END
> <s_m_source_file>
AV-unprocessed.smi

> <i_m_source_file_index>
2066

> <i_lp_mmshare_version>
43012

> <i_f3d_flags>
0

> <s_epik_input>
W0NIMl0xW0NIMl1PW0NIMl1bQ0gyXU4xQyhbQ0gzXSkoW0NIM10pW0NIMl1bTkhdQyg9TylbTkhdYzJuW2NIXVtjSF1zMg==

> <s_epik_cmdline>
J2VwaWtfcHl0aG9uJywgJy1waCcsICc3LjAnLCAnLXRuJywgJzgnLCAnLW1hJywgJzIwMCcsICctbWV0YWxfYmluZGluZycsICctaW1hZScsICc8aW5maWxlLm1hZT4nLCAnLW9tYWUnLCAnPG91dGZpbGUubWFlPic=

> <r_lp_tautomer_probability>
0.999

> <r_epik_Ionization_Penalty>
7.22375

> <r_epik_Ionization_Penalty_Charging>
5.82415

> <r_epik_Ionization_Penalty_Neutral>
1.39959

> <r_epik_State_Penalty>
6.03347

> <r_epik_Charging_Adjusted_Penalty>
11.8576

> <i_epik_Tot_Q>
-1

> <i_epik_Tot_abs_Q>
1

> <r_epik_Metal_State_Penalty>
2.0104

> <b_epik_Metal_Only>
1

> <s_lp_Force_Field>
OPLS_2005

> <r_lp_Energy>
36.7798

> <b_lp_Chiralities_Consistent>
1

> <s_lp_Variant>
AV-unprocessed.smi:2066-3

> <Gold.Version>
5.8.1

> <Gold.Id.Protein>
6NUR|6NUR_protein|mol2

> <Gold.PLP.Fitness>
44.8519

> <Gold.PLP.PLP>
-32.7386

> <Gold.PLP.part.hbond>
-3.0000

> <Gold.PLP.part.metal>
0.0000

> <Gold.PLP.part.buried>
-5.9774

> <Gold.PLP.part.nonpolar>
-24.7763

> <Gold.PLP.part.repulsive>
0.4560

> <Gold.PLP.ligand.clash>
0.0000

> <Gold.PLP.ligand.torsion>
0.1315

> <Gold.PLP.Chemscore.Hbond>
4.1040

> <Gold.PLP.Chemscore.CHOScore>
0.0000

> <Gold.PLP.Chemscore.Metal>
0.0000

> <Gold.Chemscore.Hbonds>
donor molecule, donor type, donor heavy atom, donor atom, acceptor molecule, acceptor atom, score
      P1  H  6896  6908       L1     7  1.00
      P1  H  6931  6943       L1     8  1.54
      P1  H  6934  6947       L1     8  1.52

> <Gold.PLP.Chemscore.Internal.Correction>
0.0644

> <Gold.Rescore>
     Score         DG    S(hbond)    S(metal)    S(lipo)     H(rot)  DE(clash)    DE(int)     intcor
     14.88     -16.93       1.99        0.00      75.01       1.55       0.25       1.79       ----

> <Gold.Chemscore.Fitness>
14.8846

> <Gold.Chemscore.DG>
-16.9294

> <Gold.Chemscore.ZeroCoef>
-5.4800

> <Gold.Chemscore.Hbond>
1.9880

> <Gold.Chemscore.Metal>
0.0000

> <Gold.Chemscore.Lipo>
75.0100

> <Gold.Chemscore.Internal_Hbond>
0.0000

> <Gold.Chemscore.DEClash>
0.2515

> <Gold.Chemscore.DEInternal>
1.7934

> <Gold.Chemscore.Rot>
1.5495

> <Gold.Chemscore.Internal.Correction>
   9.000000E+99

> <Gold.Chemscore.Hbonds>
donor molecule, donor type, donor heavy atom, donor atom, acceptor molecule, acceptor atom, score
      P1  H  6896  6908       L1     7  0.96
      P1  H  6931  6943       L1     8  0.13
      P1  H  6934  6947       L1     8  0.47

> <Gold.Chemscore.Hbond.Weighted>
-6.6399

> <Gold.Chemscore.Metal.Weighted>
-0.0000

> <Gold.Chemscore.Lipo.Weighted>
-8.7762

> <Gold.Chemscore.Internal_Hbond.Weighted>
0.0000

> <Gold.Chemscore.DEClash.Weighted>
0.2515

> <Gold.Chemscore.DEInternal.Weighted>
1.7934

> <Gold.Chemscore.Rot.Weighted>
3.9666

> <Gold.Chemscore.Internal.Correction.Weighted>
   9.000000E+99

> <Gold.Protein.RotatedTorsions>
[ 6907 6896 6895 6894 ] final  159.91 input  -60.11 | X-H torsion
[ 7974 7965 7964 7962 ] final  164.93 input  175.53 | X-H torsion
[ 8008 7997 7996 7995 ] final  -21.46 input   59.86 | X-H torsion
[ 10167 10162 10161 10158 ] final -126.47 input  -65.29 | X-H torsion
[ 10718 10713 10712 10709 ] final   65.22 input   66.30 | X-H torsion
[ 10763 10752 10751 10750 ] final  -81.26 input  -60.55 | X-H torsion
[ 11005 11000 10999 10996 ] final -140.69 input  -57.11 | X-H torsion

> <Gold.Protein.ActiveResidues>
 VAL166  LYS551  ARG553  GLY616  TRP617  ASP618  TYR619  PRO620  LYS621  CYS622 
 ASP623  PHE694  ASN695  SER759  ASP760  ASP761  ALA762  ILE779  LEU786  VAL792 
 PHE793  MET794  SER795  GLU796  ALA797  LYS798  CYS799  TRP800  GLU811  SER814 

> <Gold.Protein.RotatedAtoms>
  151.9786  133.3750  159.4098 H   0  0  0  0  0  0  0  0  0  0  0  0  # atno 6907 bound_to 6896
  150.6938  134.4063  159.5151 H   0  0  0  0  0  0  0  0  0  0  0  0  # atno 6908 bound_to 6896
  152.1779  134.8779  160.0579 H   0  0  0  0  0  0  0  0  0  0  0  0  # atno 6909 bound_to 6896
  144.7524  139.8397  143.6361 H   0  0  0  0  0  0  0  0  0  0  0  0  # atno 7974 bound_to 7965
  154.4704  140.2034  156.0008 H   0  0  0  0  0  0  0  0  0  0  0  0  # atno 8008 bound_to 7997
  156.1001  140.3245  155.7901 H   0  0  0  0  0  0  0  0  0  0  0  0  # atno 8009 bound_to 7997
  155.4811  140.0538  157.2957 H   0  0  0  0  0  0  0  0  0  0  0  0  # atno 8010 bound_to 7997
  139.9711  143.5844  152.2412 H   0  0  0  0  0  0  0  0  0  0  0  0  # atno 10167 bound_to 10162
  157.6091  130.9202  149.9948 H   0  0  0  0  0  0  0  0  0  0  0  0  # atno 10718 bound_to 10713
  154.5614  135.5632  153.7011 H   0  0  0  0  0  0  0  0  0  0  0  0  # atno 10763 bound_to 10752
  153.0019  135.6275  154.2239 H   0  0  0  0  0  0  0  0  0  0  0  0  # atno 10764 bound_to 10752
  154.2177  135.2871  155.2916 H   0  0  0  0  0  0  0  0  0  0  0  0  # atno 10765 bound_to 10752
  140.8397  134.2416  157.4816 H   0  0  0  0  0  0  0  0  0  0  0  0  # atno 11005 bound_to 11000
  146.1491  139.4569  143.0060 LP  0  0  0  0  0  0  0  0  0  0  0  0  # atno 17320 bound_to 7965
  145.6898  141.0167  143.1562 LP  0  0  0  0  0  0  0  0  0  0  0  0  # atno 17321 bound_to 7965
  139.6480  144.7659  151.2204 LP  0  0  0  0  0  0  0  0  0  0  0  0  # atno 17342 bound_to 10162
  140.7521  143.6207  150.8516 LP  0  0  0  0  0  0  0  0  0  0  0  0  # atno 17343 bound_to 10162
  156.1188  130.3646  149.9923 LP  0  0  0  0  0  0  0  0  0  0  0  0  # atno 17370 bound_to 10713
  156.8007  130.9289  151.3646 LP  0  0  0  0  0  0  0  0  0  0  0  0  # atno 17371 bound_to 10713
  139.8703  134.9629  156.4444 LP  0  0  0  0  0  0  0  0  0  0  0  0  # atno 17394 bound_to 11000
  140.8908  133.7849  155.9570 LP  0  0  0  0  0  0  0  0  0  0  0  0  # atno 17395 bound_to 11000

$$$$
