AV-unprocessed.smi:1503|AV-procd|sdf|6070|dock6
  -GOLD-   22720 6193D 1   1.00000     0.00000
 Structure written by MMmdl.
 43 44  0  0  0  0  0  0  0  0  2 V2000
  149.2607  133.3579  153.0968 C   0  0  0  0  0  0  0  0  0  0  0  0
  149.9207  133.2537  154.2628 C   0  0  0  0  0  0  0  0  0  0  0  0
  150.3585  134.3957  155.1693 C   0  0  0  0  0  0  0  0  0  0  0  0
  150.2377  135.7223  154.5692 N   0  0  0  0  0  0  0  0  0  0  0  0
  150.4077  136.8845  155.2189 C   0  0  0  0  0  0  0  0  0  0  0  0
  150.6711  136.9523  156.4200 O   0  0  0  0  0  0  0  0  0  0  0  0
  150.2588  138.1536  154.3739 C   0  0  0  0  0  0  0  0  0  0  0  0
  151.5260  139.0302  154.3556 C   0  0  0  0  0  0  0  0  0  0  0  0
  151.5766  139.9908  155.5422 C   0  0  0  0  0  0  0  0  0  0  0  0
  150.8312  141.1290  155.6159 C   0  0  0  0  0  0  0  0  0  0  0  0
  149.8862  141.5736  154.5139 C   0  0  0  0  0  0  0  0  0  0  0  0
  150.9041  141.9694  156.7372 N   0  0  0  0  0  0  0  0  0  0  0  0
  151.6871  141.6703  157.7300 C   0  0  0  0  0  0  0  0  0  0  0  0
  151.7816  142.4780  158.8683 N   0  0  0  0  0  0  0  0  0  0  0  0
  152.7559  142.1973  159.9266 C   0  0  0  0  0  0  0  0  0  0  0  0
  152.3110  142.7965  161.2709 C   0  0  0  0  0  0  0  0  0  0  0  0
  152.0830  144.1915  161.1224 O   0  0  0  0  0  0  0  0  0  0  0  0
  151.0464  144.4473  160.1848 C   0  0  0  0  0  0  0  0  0  0  0  0
  151.4470  143.9014  158.8042 C   0  0  0  0  0  0  0  0  0  0  0  0
  152.4720  140.5277  157.7363 N   0  5  0  0  0  0  0  0  0  0  0  0
  152.4580  139.6692  156.6778 C   0  0  0  0  0  0  0  0  0  0  0  0
  153.1555  138.6558  156.6509 O   0  0  0  0  0  0  0  0  0  0  0  0
  148.9692  134.3127  152.6849 H   0  0  0  0  0  0  0  0  0  0  0  0
  149.0010  132.4740  152.5330 H   0  0  0  0  0  0  0  0  0  0  0  0
  150.1816  132.2658  154.6135 H   0  0  0  0  0  0  0  0  0  0  0  0
  149.7907  134.3467  156.0997 H   0  0  0  0  0  0  0  0  0  0  0  0
  151.4031  134.2381  155.4374 H   0  0  0  0  0  0  0  0  0  0  0  0
  150.0219  135.7593  153.5833 H   0  0  0  0  0  0  0  0  0  0  0  0
  149.9957  137.8565  153.3581 H   0  0  0  0  0  0  0  0  0  0  0  0
  149.4196  138.7373  154.7552 H   0  0  0  0  0  0  0  0  0  0  0  0
  152.4125  138.3958  154.3521 H   0  0  0  0  0  0  0  0  0  0  0  0
  151.5833  139.6018  153.4279 H   0  0  0  0  0  0  0  0  0  0  0  0
  150.3924  141.5747  153.5483 H   0  0  0  0  0  0  0  0  0  0  0  0
  149.5141  142.5824  154.6957 H   0  0  0  0  0  0  0  0  0  0  0  0
  149.0288  140.9029  154.4568 H   0  0  0  0  0  0  0  0  0  0  0  0
  152.9146  141.1268  160.0573 H   0  0  0  0  0  0  0  0  0  0  0  0
  153.7178  142.6196  159.6333 H   0  0  0  0  0  0  0  0  0  0  0  0
  151.4087  142.3030  161.6362 H   0  0  0  0  0  0  0  0  0  0  0  0
  153.0845  142.6427  162.0233 H   0  0  0  0  0  0  0  0  0  0  0  0
  150.1124  143.9963  160.5247 H   0  0  0  0  0  0  0  0  0  0  0  0
  150.8777  145.5227  160.1274 H   0  0  0  0  0  0  0  0  0  0  0  0
  152.3087  144.4492  158.4208 H   0  0  0  0  0  0  0  0  0  0  0  0
  150.6256  144.0704  158.1067 H   0  0  0  0  0  0  0  0  0  0  0  0
  1  2  2  0  0  0  0
  1 23  1  0  0  0  0
  1 24  1  0  0  0  0
  2  3  1  0  0  0  0
  2 25  1  0  0  0  0
  3  4  1  0  0  0  0
  3 26  1  0  0  0  0
  3 27  1  0  0  0  0
  4  5  1  0  0  0  0
  4 28  1  0  0  0  0
  5  6  2  0  0  0  0
  5  7  1  0  0  0  0
  7  8  1  0  0  0  0
  7 29  1  0  0  0  0
  7 30  1  0  0  0  0
  8  9  1  0  0  0  0
  8 31  1  0  0  0  0
  8 32  1  0  0  0  0
  9 21  1  0  0  0  0
  9 10  2  0  0  0  0
 10 11  1  0  0  0  0
 10 12  1  0  0  0  0
 11 33  1  0  0  0  0
 11 34  1  0  0  0  0
 11 35  1  0  0  0  0
 12 13  2  0  0  0  0
 13 14  1  0  0  0  0
 13 20  1  0  0  0  0
 14 19  1  0  0  0  0
 14 15  1  0  0  0  0
 15 16  1  0  0  0  0
 15 36  1  0  0  0  0
 15 37  1  0  0  0  0
 16 17  1  0  0  0  0
 16 38  1  0  0  0  0
 16 39  1  0  0  0  0
 17 18  1  0  0  0  0
 18 19  1  0  0  0  0
 18 40  1  0  0  0  0
 18 41  1  0  0  0  0
 19 42  1  0  0  0  0
 19 43  1  0  0  0  0
 20 21  1  0  0  0  0
 21 22  2  0  0  0  0
M  CHG  1  20  -1
M  END
> <s_m_source_file>
AV-unprocessed.smi

> <i_m_source_file_index>
1503

> <i_lp_mmshare_version>
43012

> <i_f3d_flags>
0

> <s_epik_input>
W0NIMl09W0NIXVtDSDJdW05IXUMoPU8pW0NIMl1bQ0gyXWMxYyhbQ0gzXSluYyhbbkhdYzE9TylOMltDSDJdW0NIMl1PW0NIMl1bQ0gyXTI=

> <s_epik_cmdline>
J2VwaWtfcHl0aG9uJywgJy1waCcsICc3LjAnLCAnLXRuJywgJzgnLCAnLW1hJywgJzIwMCcsICctbWV0YWxfYmluZGluZycsICctaW1hZScsICc8aW5maWxlLm1hZT4nLCAnLW9tYWUnLCAnPG91dGZpbGUubWFlPic=

> <r_lp_tautomer_probability>
1

> <r_epik_Ionization_Penalty>
5.02457

> <r_epik_Ionization_Penalty_Charging>
9.64055e-08

> <r_epik_Ionization_Penalty_Neutral>
5.02457

> <r_epik_State_Penalty>
2.56428

> <r_epik_Charging_Adjusted_Penalty>
2.56428

> <i_epik_Tot_Q>
-1

> <i_epik_Tot_abs_Q>
1

> <r_epik_Metal_State_Penalty>
0.122481

> <b_epik_Metal_Only>
0

> <s_lp_Force_Field>
OPLS_2005

> <r_lp_Energy>
26.3767

> <b_lp_Chiralities_Consistent>
1

> <s_lp_Variant>
AV-unprocessed.smi:1503-3

> <Gold.Version>
5.8.1

> <Gold.Id.Protein>
6NUR|6NUR_protein|mol2

> <Gold.PLP.Fitness>
47.9972

> <Gold.PLP.PLP>
-45.1552

> <Gold.PLP.part.hbond>
-2.4805

> <Gold.PLP.part.metal>
0.0000

> <Gold.PLP.part.buried>
-4.1787

> <Gold.PLP.part.nonpolar>
-38.8376

> <Gold.PLP.part.repulsive>
0.2715

> <Gold.PLP.ligand.clash>
0.0000

> <Gold.PLP.ligand.torsion>
0.5931

> <Gold.PLP.Chemscore.Hbond>
1.2577

> <Gold.PLP.Chemscore.CHOScore>
0.0000

> <Gold.PLP.Chemscore.Metal>
0.0000

> <Gold.Chemscore.Hbonds>
donor molecule, donor type, donor heavy atom, donor atom, acceptor molecule, acceptor atom, score
      L1  H     4    28       P1  7948  0.45

> <Gold.PLP.Chemscore.Internal.Correction>
0.2551

> <Gold.Rescore>
     Score         DG    S(hbond)    S(metal)    S(lipo)     H(rot)  DE(clash)    DE(int)     intcor
     13.24     -14.70       0.96        0.00      92.24       1.87       0.82       0.64       ----

> <Gold.Chemscore.Fitness>
13.2408

> <Gold.Chemscore.DG>
-14.6997

> <Gold.Chemscore.ZeroCoef>
-5.4800

> <Gold.Chemscore.Hbond>
0.9645

> <Gold.Chemscore.Metal>
0.0000

> <Gold.Chemscore.Lipo>
92.2439

> <Gold.Chemscore.Internal_Hbond>
0.0000

> <Gold.Chemscore.DEClash>
0.8224

> <Gold.Chemscore.DEInternal>
0.6365

> <Gold.Chemscore.Rot>
1.8727

> <Gold.Chemscore.Internal.Correction>
   9.000000E+99

> <Gold.Chemscore.Hbonds>
donor molecule, donor type, donor heavy atom, donor atom, acceptor molecule, acceptor atom, score
      L1  H     4    28       P1  7948  0.01

> <Gold.Chemscore.Hbond.Weighted>
-3.2213

> <Gold.Chemscore.Metal.Weighted>
-0.0000

> <Gold.Chemscore.Lipo.Weighted>
-10.7925

> <Gold.Chemscore.Internal_Hbond.Weighted>
0.0000

> <Gold.Chemscore.DEClash.Weighted>
0.8224

> <Gold.Chemscore.DEInternal.Weighted>
0.6365

> <Gold.Chemscore.Rot.Weighted>
4.7942

> <Gold.Chemscore.Internal.Correction.Weighted>
   9.000000E+99

> <Gold.Protein.RotatedTorsions>
[ 6907 6896 6895 6894 ] final    8.14 input  -60.11 | X-H torsion
[ 7974 7965 7964 7962 ] final  171.57 input  175.53 | X-H torsion
[ 8008 7997 7996 7995 ] final  -73.31 input   59.86 | X-H torsion
[ 10167 10162 10161 10158 ] final  168.78 input  -65.29 | X-H torsion
[ 10718 10713 10712 10709 ] final  156.05 input   66.30 | X-H torsion
[ 10763 10752 10751 10750 ] final  170.86 input  -60.55 | X-H torsion
[ 11005 11000 10999 10996 ] final  134.08 input  -57.11 | X-H torsion

> <Gold.Protein.ActiveResidues>
 VAL166  LYS551  ARG553  GLY616  TRP617  ASP618  TYR619  PRO620  LYS621  CYS622 
 ASP623  PHE694  ASN695  SER759  ASP760  ASP761  ALA762  ILE779  LEU786  VAL792 
 PHE793  MET794  SER795  GLU796  ALA797  LYS798  CYS799  TRP800  GLU811  SER814 

> <Gold.Protein.RotatedAtoms>
  151.7012  135.0930  160.0250 H   0  0  0  0  0  0  0  0  0  0  0  0  # atno 6907 bound_to 6896
  152.3719  133.6426  159.6102 H   0  0  0  0  0  0  0  0  0  0  0  0  # atno 6908 bound_to 6896
  150.7680  133.9172  159.3428 H   0  0  0  0  0  0  0  0  0  0  0  0  # atno 6909 bound_to 6896
  144.7291  139.9370  143.6427 H   0  0  0  0  0  0  0  0  0  0  0  0  # atno 7974 bound_to 7965
  154.5237  140.0781  156.8219 H   0  0  0  0  0  0  0  0  0  0  0  0  # atno 8008 bound_to 7997
  155.3521  140.3413  155.4221 H   0  0  0  0  0  0  0  0  0  0  0  0  # atno 8009 bound_to 7997
  156.1709  140.1619  156.8437 H   0  0  0  0  0  0  0  0  0  0  0  0  # atno 8010 bound_to 7997
  139.4976  144.3778  151.9655 H   0  0  0  0  0  0  0  0  0  0  0  0  # atno 10167 bound_to 10162
  157.2102  131.0696  151.1974 H   0  0  0  0  0  0  0  0  0  0  0  0  # atno 10718 bound_to 10713
  154.4037  135.2755  155.2080 H   0  0  0  0  0  0  0  0  0  0  0  0  # atno 10763 bound_to 10752
  154.4095  135.6025  153.5948 H   0  0  0  0  0  0  0  0  0  0  0  0  # atno 10764 bound_to 10752
  152.9831  135.5946  154.4309 H   0  0  0  0  0  0  0  0  0  0  0  0  # atno 10765 bound_to 10752
  139.9892  134.9521  156.9816 H   0  0  0  0  0  0  0  0  0  0  0  0  # atno 11005 bound_to 11000
  146.0814  139.3802  143.0462 LP  0  0  0  0  0  0  0  0  0  0  0  0  # atno 17320 bound_to 7965
  145.7836  140.9845  143.1086 LP  0  0  0  0  0  0  0  0  0  0  0  0  # atno 17321 bound_to 7965
  140.3214  144.3423  150.6008 LP  0  0  0  0  0  0  0  0  0  0  0  0  # atno 17342 bound_to 10162
  140.5719  143.2180  151.7583 LP  0  0  0  0  0  0  0  0  0  0  0  0  # atno 17343 bound_to 10162
  157.3680  130.7166  149.6545 LP  0  0  0  0  0  0  0  0  0  0  0  0  # atno 17370 bound_to 10713
  155.9691  130.4207  150.4434 LP  0  0  0  0  0  0  0  0  0  0  0  0  # atno 17371 bound_to 10713
  140.4942  134.1162  155.7238 LP  0  0  0  0  0  0  0  0  0  0  0  0  # atno 17394 bound_to 11000
  141.1551  133.8897  157.1998 LP  0  0  0  0  0  0  0  0  0  0  0  0  # atno 17395 bound_to 11000

$$$$
