AV-unprocessed.smi:2559|AV-procd|sdf|10034|dock5
  -GOLD-   2272014 83D 1   1.00000     0.00000
 Structure written by MMmdl.
 44 46  0  0  0  0  0  0  0  0  1 V2000
  154.1931  137.3301  158.0139 C   0  0  0  0  0  0  0  0  0  0  0  0
  152.8255  137.6475  157.5977 N   0  0  0  0  0  0  0  0  0  0  0  0
  152.0268  136.6678  157.0668 C   0  0  0  0  0  0  0  0  0  0  0  0
  152.4174  135.5102  156.9154 O   0  0  0  0  0  0  0  0  0  0  0  0
  150.7552  137.0139  156.7022 N   0  0  0  0  0  0  0  0  0  0  0  0
  150.1729  138.2338  156.7980 C   0  0  0  0  0  0  0  0  0  0  0  0
  149.0119  138.4517  156.4600 O   0  0  0  0  0  0  0  0  0  0  0  0
  151.0696  139.2612  157.3500 C   0  0  0  0  0  0  0  0  0  0  0  0
  152.3387  138.9782  157.7413 C   0  0  0  0  0  0  0  0  0  0  0  0
  152.9599  140.1051  158.2558 N   0  0  0  0  0  0  0  0  0  0  0  0
  152.0253  141.0509  158.1311 C   0  0  0  0  0  0  0  0  0  0  0  0
  152.2198  142.3707  158.5423 N   0  0  0  0  0  0  0  0  0  0  0  0
  151.8258  143.5696  157.8011 C   0  0  0  0  0  0  0  0  0  0  0  0
  151.0592  144.5628  158.6919 C   0  0  0  0  0  0  0  0  0  0  0  0
  151.9116  144.9624  159.9037 C   0  0  0  0  0  0  0  0  0  0  0  0
  152.4224  143.7064  160.6234 C   0  0  0  0  0  0  0  0  0  0  0  0
  153.1153  142.7526  159.6336 C   0  0  0  0  0  0  0  0  0  0  0  0
  150.8446  140.6165  157.6098 N   0  0  0  0  0  0  0  0  0  0  0  0
  149.6051  141.3701  157.4188 C   0  0  0  0  0  0  0  0  0  0  0  0
  149.3634  141.7331  155.9386 C   0  0  2  0  0  0  0  0  0  0  0  0
  148.0163  142.0984  155.7103 O   0  0  0  0  0  0  0  0  0  0  0  0
  149.7713  140.6257  154.9490 C   0  0  0  0  0  0  0  0  0  0  0  0
  149.4580  140.9720  153.6150 O   0  0  0  0  0  0  0  0  0  0  0  0
  150.1832  136.2746  156.3208 H   0  0  0  0  0  0  0  0  0  0  0  0
  154.1958  136.5160  158.7406 H   0  0  0  0  0  0  0  0  0  0  0  0
  154.6987  138.1773  158.4769 H   0  0  0  0  0  0  0  0  0  0  0  0
  154.7901  137.0213  157.1546 H   0  0  0  0  0  0  0  0  0  0  0  0
  152.7249  144.0480  157.4101 H   0  0  0  0  0  0  0  0  0  0  0  0
  151.2368  143.3006  156.9251 H   0  0  0  0  0  0  0  0  0  0  0  0
  150.7879  145.4489  158.1177 H   0  0  0  0  0  0  0  0  0  0  0  0
  150.1251  144.1146  159.0307 H   0  0  0  0  0  0  0  0  0  0  0  0
  152.7600  145.5618  159.5709 H   0  0  0  0  0  0  0  0  0  0  0  0
  151.3352  145.5864  160.5872 H   0  0  0  0  0  0  0  0  0  0  0  0
  153.1128  143.9867  161.4194 H   0  0  0  0  0  0  0  0  0  0  0  0
  151.5880  143.1928  161.1028 H   0  0  0  0  0  0  0  0  0  0  0  0
  153.4462  141.8588  160.1635 H   0  0  0  0  0  0  0  0  0  0  0  0
  154.0110  143.2180  159.2202 H   0  0  0  0  0  0  0  0  0  0  0  0
  148.7665  140.7948  157.7995 H   0  0  0  0  0  0  0  0  0  0  0  0
  149.6209  142.2634  158.0387 H   0  0  0  0  0  0  0  0  0  0  0  0
  149.9580  142.6152  155.7005 H   0  0  0  0  0  0  0  0  0  0  0  0
  147.9744  143.0354  155.5970 H   0  0  0  0  0  0  0  0  0  0  0  0
  150.8375  140.4107  155.0272 H   0  0  0  0  0  0  0  0  0  0  0  0
  149.2449  139.7015  155.1889 H   0  0  0  0  0  0  0  0  0  0  0  0
  149.4106  140.1798  153.1019 H   0  0  0  0  0  0  0  0  0  0  0  0
  1  2  1  0  0  0  0
  1 25  1  0  0  0  0
  1 26  1  0  0  0  0
  1 27  1  0  0  0  0
  2  9  1  0  0  0  0
  2  3  1  0  0  0  0
  3  4  2  0  0  0  0
  3  5  1  0  0  0  0
  5 24  1  0  0  0  0
  5  6  1  0  0  0  0
  6  7  2  0  0  0  0
  6  8  1  0  0  0  0
  8 18  1  0  0  0  0
  8  9  2  0  0  0  0
  9 10  1  0  0  0  0
 10 11  2  0  0  0  0
 11 12  1  0  0  0  0
 11 18  1  0  0  0  0
 12 17  1  0  0  0  0
 12 13  1  0  0  0  0
 13 14  1  0  0  0  0
 13 28  1  0  0  0  0
 13 29  1  0  0  0  0
 14 15  1  0  0  0  0
 14 30  1  0  0  0  0
 14 31  1  0  0  0  0
 15 16  1  0  0  0  0
 15 32  1  0  0  0  0
 15 33  1  0  0  0  0
 16 17  1  0  0  0  0
 16 34  1  0  0  0  0
 16 35  1  0  0  0  0
 17 36  1  0  0  0  0
 17 37  1  0  0  0  0
 18 19  1  0  0  0  0
 19 20  1  0  0  0  0
 19 38  1  0  0  0  0
 19 39  1  0  0  0  0
 20 21  1  0  0  0  0
 20 22  1  0  0  0  0
 20 40  1  0  0  0  0
 21 41  1  0  0  0  0
 22 23  1  0  0  0  0
 22 42  1  0  0  0  0
 22 43  1  0  0  0  0
 23 44  1  0  0  0  0
M  END
> <s_m_source_file>
AV-unprocessed.smi

> <i_m_source_file_index>
2559

> <i_lp_mmshare_version>
43012

> <i_f3d_flags>
0

> <s_epik_input>
Tz1jMVtuSF1jKD1PKW4oW0NIM10pYyhjMTIpbmMobjJbQ0gyXVtDQEhdKFtPSF0pW0NIMl1bT0hdKU4zW0NIMl1bQ0gyXVtDSDJdW0NIMl1bQ0gyXTM=

> <s_epik_cmdline>
J2VwaWtfcHl0aG9uJywgJy1waCcsICc3LjAnLCAnLXRuJywgJzgnLCAnLW1hJywgJzIwMCcsICctbWV0YWxfYmluZGluZycsICctaW1hZScsICc8aW5maWxlLm1hZT4nLCAnLW9tYWUnLCAnPG91dGZpbGUubWFlPic=

> <r_lp_tautomer_probability>
1

> <r_epik_Ionization_Penalty>
0.0023969

> <r_epik_Ionization_Penalty_Charging>
9.35512e-05

> <r_epik_Ionization_Penalty_Neutral>
0.00230335

> <r_epik_State_Penalty>
-0

> <r_epik_Charging_Adjusted_Penalty>
9.35512e-05

> <i_epik_Tot_Q>
0

> <i_epik_Tot_abs_Q>
0

> <r_epik_Metal_State_Penalty>
0.0757518

> <b_epik_Metal_Only>
0

> <s_lp_Force_Field>
OPLS_2005

> <r_lp_Energy>
44.2112

> <b_lp_Chiralities_Consistent>
1

> <s_lp_Variant>
AV-unprocessed.smi:2559-1

> <Gold.Version>
5.8.1

> <Gold.Id.Protein>
6NUR|6NUR_protein|mol2

> <Gold.PLP.Fitness>
51.9584

> <Gold.PLP.PLP>
-39.9317

> <Gold.PLP.part.hbond>
-6.0000

> <Gold.PLP.part.metal>
0.0000

> <Gold.PLP.part.buried>
-4.2001

> <Gold.PLP.part.nonpolar>
-29.3945

> <Gold.PLP.part.repulsive>
0.0703

> <Gold.PLP.ligand.clash>
0.0000

> <Gold.PLP.ligand.torsion>
0.9662

> <Gold.PLP.Chemscore.Hbond>
4.4777

> <Gold.PLP.Chemscore.CHOScore>
0.0000

> <Gold.PLP.Chemscore.Metal>
0.0000

> <Gold.Chemscore.Hbonds>
donor molecule, donor type, donor heavy atom, donor atom, acceptor molecule, acceptor atom, score
      L1  H    21    41       P1  8028  0.99
      L1  H    23    44       P1  7957  0.53
      P1  H  7989  7998       L1    23  0.01
      P1  H  7997  8009       L1    10  0.83
      P1  H  8011  8017       L1    23  1.00
      P1  H 10752 10763       L1     4  1.00

> <Gold.PLP.Chemscore.Internal.Correction>
0.5259

> <Gold.Rescore>
     Score         DG    S(hbond)    S(metal)    S(lipo)     H(rot)  DE(clash)    DE(int)     intcor
     14.36     -16.93       2.73        0.00      85.00       2.97       0.24       2.33       ----

> <Gold.Chemscore.Fitness>
14.3603

> <Gold.Chemscore.DG>
-16.9349

> <Gold.Chemscore.ZeroCoef>
-5.4800

> <Gold.Chemscore.Hbond>
2.7275

> <Gold.Chemscore.Metal>
0.0000

> <Gold.Chemscore.Lipo>
84.9961

> <Gold.Chemscore.Internal_Hbond>
0.0000

> <Gold.Chemscore.DEClash>
0.2398

> <Gold.Chemscore.DEInternal>
2.3347

> <Gold.Chemscore.Rot>
2.9685

> <Gold.Chemscore.Internal.Correction>
   9.000000E+99

> <Gold.Chemscore.Hbonds>
donor molecule, donor type, donor heavy atom, donor atom, acceptor molecule, acceptor atom, score
      L1  H    21    41       P1  8028  0.69
      L1  H    23    44       P1  7957  0.51
      P1  H  7997  8009       L1    10  0.15
      P1  H  8011  8017       L1    23  0.52
      P1  H 10752 10763       L1     4  0.74

> <Gold.Chemscore.Hbond.Weighted>
-9.1097

> <Gold.Chemscore.Metal.Weighted>
-0.0000

> <Gold.Chemscore.Lipo.Weighted>
-9.9445

> <Gold.Chemscore.Internal_Hbond.Weighted>
0.0000

> <Gold.Chemscore.DEClash.Weighted>
0.2398

> <Gold.Chemscore.DEInternal.Weighted>
2.3347

> <Gold.Chemscore.Rot.Weighted>
7.5994

> <Gold.Chemscore.Internal.Correction.Weighted>
   9.000000E+99

> <Gold.Protein.RotatedTorsions>
[ 6907 6896 6895 6894 ] final  -19.40 input  -60.11 | X-H torsion
[ 7974 7965 7964 7962 ] final -168.66 input  175.53 | X-H torsion
[ 8008 7997 7996 7995 ] final  148.60 input   59.86 | X-H torsion
[ 10167 10162 10161 10158 ] final  156.80 input  -65.29 | X-H torsion
[ 10718 10713 10712 10709 ] final  -55.36 input   66.30 | X-H torsion
[ 10763 10752 10751 10750 ] final  112.19 input  -60.55 | X-H torsion
[ 11005 11000 10999 10996 ] final  158.80 input  -57.11 | X-H torsion

> <Gold.Protein.ActiveResidues>
 VAL166  LYS551  ARG553  GLY616  TRP617  ASP618  TYR619  PRO620  LYS621  CYS622 
 ASP623  PHE694  ASN695  SER759  ASP760  ASP761  ALA762  ILE779  LEU786  VAL792 
 PHE793  MET794  SER795  GLU796  ALA797  LYS798  CYS799  TRP800  GLU811  SER814 

> <Gold.Protein.RotatedAtoms>
  151.2637  135.0662  159.9107 H   0  0  0  0  0  0  0  0  0  0  0  0  # atno 6907 bound_to 6896
  152.5362  134.0204  159.7989 H   0  0  0  0  0  0  0  0  0  0  0  0  # atno 6908 bound_to 6896
  151.0431  133.5639  159.2680 H   0  0  0  0  0  0  0  0  0  0  0  0  # atno 6909 bound_to 6896
  144.7199  140.2337  143.6301 H   0  0  0  0  0  0  0  0  0  0  0  0  # atno 7974 bound_to 7965
  156.2785  140.2124  156.5725 H   0  0  0  0  0  0  0  0  0  0  0  0  # atno 8008 bound_to 7997
  154.7124  140.0511  157.0586 H   0  0  0  0  0  0  0  0  0  0  0  0  # atno 8009 bound_to 7997
  155.0587  140.3164  155.4670 H   0  0  0  0  0  0  0  0  0  0  0  0  # atno 8010 bound_to 7997
  139.4822  144.4976  151.8217 H   0  0  0  0  0  0  0  0  0  0  0  0  # atno 10167 bound_to 10162
  156.1374  130.4156  150.0161 H   0  0  0  0  0  0  0  0  0  0  0  0  # atno 10718 bound_to 10713
  153.4743  135.3693  155.2408 H   0  0  0  0  0  0  0  0  0  0  0  0  # atno 10763 bound_to 10752
  154.8756  135.3939  154.3775 H   0  0  0  0  0  0  0  0  0  0  0  0  # atno 10764 bound_to 10752
  153.4368  135.7083  153.6259 H   0  0  0  0  0  0  0  0  0  0  0  0  # atno 10765 bound_to 10752
  140.1900  134.8414  157.2901 H   0  0  0  0  0  0  0  0  0  0  0  0  # atno 11005 bound_to 11000
  145.8386  139.2119  143.1841 LP  0  0  0  0  0  0  0  0  0  0  0  0  # atno 17320 bound_to 7965
  146.0367  140.8205  142.9849 LP  0  0  0  0  0  0  0  0  0  0  0  0  # atno 17321 bound_to 7965
  140.4466  144.1913  150.5894 LP  0  0  0  0  0  0  0  0  0  0  0  0  # atno 17342 bound_to 10162
  140.4628  143.2442  151.9196 LP  0  0  0  0  0  0  0  0  0  0  0  0  # atno 17343 bound_to 10162
  156.8056  130.9306  151.3645 LP  0  0  0  0  0  0  0  0  0  0  0  0  # atno 17370 bound_to 10713
  157.6545  130.8913  149.9701 LP  0  0  0  0  0  0  0  0  0  0  0  0  # atno 17371 bound_to 10713
  140.2170  134.4069  155.7584 LP  0  0  0  0  0  0  0  0  0  0  0  0  # atno 17394 bound_to 11000
  141.2226  133.7147  156.8429 LP  0  0  0  0  0  0  0  0  0  0  0  0  # atno 17395 bound_to 11000

$$$$
