AV-unprocessed.smi:634|AV-procd|sdf|3137|dock2
  -GOLD-   22720 0 63D 1   1.00000     0.00000
 Structure written by MMmdl.
 32 33  0  0  0  0  0  0  0  0  2 V2000
  145.2410  135.0617  162.8992 C   0  0  0  0  0  0  0  0  0  0  0  0
  146.2782  135.6929  162.0356 C   0  0  0  0  0  0  0  0  0  0  0  0
  147.4384  135.2276  161.4835 C   0  0  0  0  0  0  0  0  0  0  0  0
  147.9357  136.3575  160.7806 C   0  0  0  0  0  0  0  0  0  0  0  0
  149.1575  136.2820  160.0613 N   0  0  0  0  0  0  0  0  0  0  0  0
  149.7020  137.1863  159.2275 C   0  0  0  0  0  0  0  0  0  0  0  0
  149.1109  138.2420  158.9779 O   0  0  0  0  0  0  0  0  0  0  0  0
  150.9102  136.7789  158.7462 N   0  5  0  0  0  0  0  0  0  0  0  0
  151.5491  137.1516  157.4703 C   0  0  1  0  0  0  0  0  0  0  0  0
  152.8743  136.3647  157.3944 C   0  0  0  0  0  0  0  0  0  0  0  0
  150.6615  136.7903  156.2481 C   0  0  0  0  0  0  0  0  0  0  0  0
  151.1942  137.5112  154.9992 C   0  0  0  0  0  0  0  0  0  0  0  0
  151.9487  139.0729  155.5979 S   0  0  0  0  0  0  0  0  0  0  0  0
  153.3608  139.1096  155.1856 O   0  0  0  0  0  0  0  0  0  0  0  0
  151.0502  140.1991  155.2995 O   0  0  0  0  0  0  0  0  0  0  0  0
  151.8363  138.6692  157.3869 C   0  0  0  0  0  0  0  0  0  0  0  0
  147.1464  137.4161  160.8919 N   0  0  0  0  0  0  0  0  0  0  0  0
  146.0809  136.9957  161.6966 O   0  0  0  0  0  0  0  0  0  0  0  0
  145.5944  134.1122  163.3019 H   0  0  0  0  0  0  0  0  0  0  0  0
  144.3305  134.8716  162.3312 H   0  0  0  0  0  0  0  0  0  0  0  0
  144.9884  135.7106  163.7380 H   0  0  0  0  0  0  0  0  0  0  0  0
  147.8633  134.2387  161.5714 H   0  0  0  0  0  0  0  0  0  0  0  0
  149.6988  135.4428  160.2067 H   0  0  0  0  0  0  0  0  0  0  0  0
  153.4328  136.5888  156.4856 H   0  0  0  0  0  0  0  0  0  0  0  0
  152.6989  135.2882  157.4099 H   0  0  0  0  0  0  0  0  0  0  0  0
  153.5249  136.6012  158.2374 H   0  0  0  0  0  0  0  0  0  0  0  0
  150.6007  135.7130  156.0894 H   0  0  0  0  0  0  0  0  0  0  0  0
  149.6394  137.1333  156.4061 H   0  0  0  0  0  0  0  0  0  0  0  0
  151.9681  136.9264  154.5006 H   0  0  0  0  0  0  0  0  0  0  0  0
  150.4090  137.7295  154.2754 H   0  0  0  0  0  0  0  0  0  0  0  0
  151.0234  139.2694  157.7942 H   0  0  0  0  0  0  0  0  0  0  0  0
  152.7546  138.9633  157.8954 H   0  0  0  0  0  0  0  0  0  0  0  0
  1  2  1  0  0  0  0
  1 19  1  0  0  0  0
  1 20  1  0  0  0  0
  1 21  1  0  0  0  0
  2 18  1  0  0  0  0
  2  3  2  0  0  0  0
  3  4  1  0  0  0  0
  3 22  1  0  0  0  0
  4  5  1  0  0  0  0
  4 17  2  0  0  0  0
  5  6  1  0  0  0  0
  5 23  1  0  0  0  0
  6  7  2  0  0  0  0
  6  8  1  0  0  0  0
  8  9  1  0  0  0  0
  9 16  1  0  0  0  0
  9 10  1  0  0  0  0
  9 11  1  0  0  0  0
 10 24  1  0  0  0  0
 10 25  1  0  0  0  0
 10 26  1  0  0  0  0
 11 12  1  0  0  0  0
 11 27  1  0  0  0  0
 11 28  1  0  0  0  0
 12 13  1  0  0  0  0
 12 29  1  0  0  0  0
 12 30  1  0  0  0  0
 13 14  2  0  0  0  0
 13 15  2  0  0  0  0
 13 16  1  0  0  0  0
 16 31  1  0  0  0  0
 16 32  1  0  0  0  0
 17 18  1  0  0  0  0
M  CHG  1   8  -1
M  END
> <s_m_source_file>
AV-unprocessed.smi

> <i_m_source_file_index>
634

> <i_lp_mmshare_version>
43012

> <i_f3d_flags>
0

> <s_epik_input>
W0NIM11jMVtjSF1jKG5vMSlbTkhdQyg9TylbTkhdW0NAQF0yKFtDSDNdKVtDSDJdW0NIMl1TKD1PKSg9TylbQ0gyXTI=

> <s_epik_cmdline>
J2VwaWtfcHl0aG9uJywgJy1waCcsICc3LjAnLCAnLXRuJywgJzgnLCAnLW1hJywgJzIwMCcsICctbWV0YWxfYmluZGluZycsICctaW1hZScsICc8aW5maWxlLm1hZT4nLCAnLW9tYWUnLCAnPG91dGZpbGUubWFlPic=

> <r_lp_tautomer_probability>
1

> <r_epik_Ionization_Penalty>
6.62388

> <r_epik_Ionization_Penalty_Charging>
6.62387

> <r_epik_Ionization_Penalty_Neutral>
5.45748e-06

> <r_epik_State_Penalty>
6.65157

> <r_epik_Charging_Adjusted_Penalty>
13.2754

> <i_epik_Tot_Q>
-1

> <i_epik_Tot_abs_Q>
1

> <r_epik_Metal_State_Penalty>
2.59195

> <b_epik_Metal_Only>
1

> <s_lp_Force_Field>
OPLS_2005

> <r_lp_Energy>
8.12985

> <b_lp_Chiralities_Consistent>
1

> <s_lp_Variant>
AV-unprocessed.smi:634-5

> <Gold.Version>
5.8.1

> <Gold.Id.Protein>
6NUR|6NUR_protein|mol2

> <Gold.PLP.Fitness>
40.4377

> <Gold.PLP.PLP>
-25.8282

> <Gold.PLP.part.hbond>
-5.7090

> <Gold.PLP.part.metal>
0.0000

> <Gold.PLP.part.buried>
-6.1410

> <Gold.PLP.part.nonpolar>
-16.0427

> <Gold.PLP.part.repulsive>
0.2497

> <Gold.PLP.ligand.clash>
0.0000

> <Gold.PLP.ligand.torsion>
0.1798

> <Gold.PLP.Chemscore.Hbond>
4.9881

> <Gold.PLP.Chemscore.CHOScore>
0.0000

> <Gold.PLP.Chemscore.Metal>
0.0000

> <Gold.Chemscore.Hbonds>
donor molecule, donor type, donor heavy atom, donor atom, acceptor molecule, acceptor atom, score
      P1  H  6896  6908       L1     8  1.98
      P1  H  6931  6943       L1    17  0.01
      P1  H  6934  6947       L1    17  1.00
      P1  H  7989  7998       L1    15  1.00
      P1  H  7997  8008       L1    14  1.00

> <Gold.PLP.Chemscore.Internal.Correction>
0.0048

> <Gold.Rescore>
     Score         DG    S(hbond)    S(metal)    S(lipo)     H(rot)  DE(clash)    DE(int)     intcor
     17.51     -18.98       3.33        0.00      42.18       1.00       0.00       1.47       ----

> <Gold.Chemscore.Fitness>
17.5110

> <Gold.Chemscore.DG>
-18.9823

> <Gold.Chemscore.ZeroCoef>
-5.4800

> <Gold.Chemscore.Hbond>
3.3316

> <Gold.Chemscore.Metal>
0.0000

> <Gold.Chemscore.Lipo>
42.1769

> <Gold.Chemscore.Internal_Hbond>
0.0000

> <Gold.Chemscore.DEClash>
0.0029

> <Gold.Chemscore.DEInternal>
1.4685

> <Gold.Chemscore.Rot>
1.0000

> <Gold.Chemscore.Internal.Correction>
   9.000000E+99

> <Gold.Chemscore.Hbonds>
donor molecule, donor type, donor heavy atom, donor atom, acceptor molecule, acceptor atom, score
      P1  H  6896  6908       L1     8  0.23
      P1  H  6934  6947       L1    17  0.64
      P1  H  7989  7998       L1    15  0.47
      P1  H  7997  8008       L1    14  0.98

> <Gold.Chemscore.Hbond.Weighted>
-11.1276

> <Gold.Chemscore.Metal.Weighted>
-0.0000

> <Gold.Chemscore.Lipo.Weighted>
-4.9347

> <Gold.Chemscore.Internal_Hbond.Weighted>
0.0000

> <Gold.Chemscore.DEClash.Weighted>
0.0029

> <Gold.Chemscore.DEInternal.Weighted>
1.4685

> <Gold.Chemscore.Rot.Weighted>
2.5600

> <Gold.Chemscore.Internal.Correction.Weighted>
   9.000000E+99

> <Gold.Protein.RotatedTorsions>
[ 6907 6896 6895 6894 ] final -145.45 input  -60.11 | X-H torsion
[ 7974 7965 7964 7962 ] final   13.29 input  175.53 | X-H torsion
[ 8008 7997 7996 7995 ] final  -14.44 input   59.86 | X-H torsion
[ 10167 10162 10161 10158 ] final  -17.40 input  -65.29 | X-H torsion
[ 10718 10713 10712 10709 ] final    4.74 input   66.30 | X-H torsion
[ 10763 10752 10751 10750 ] final  151.45 input  -60.55 | X-H torsion
[ 11005 11000 10999 10996 ] final  156.13 input  -57.11 | X-H torsion

> <Gold.Protein.ActiveResidues>
 VAL166  LYS551  ARG553  GLY616  TRP617  ASP618  TYR619  PRO620  LYS621  CYS622 
 ASP623  PHE694  ASN695  SER759  ASP760  ASP761  ALA762  ILE779  LEU786  VAL792 
 PHE793  MET794  SER795  GLU796  ALA797  LYS798  CYS799  TRP800  GLU811  SER814 

> <Gold.Protein.RotatedAtoms>
  151.1279  133.5057  159.2599 H   0  0  0  0  0  0  0  0  0  0  0  0  # atno 6907 bound_to 6896
  151.1790  135.0352  159.8794 H   0  0  0  0  0  0  0  0  0  0  0  0  # atno 6908 bound_to 6896
  152.5458  134.1133  159.8421 H   0  0  0  0  0  0  0  0  0  0  0  0  # atno 6909 bound_to 6896
  146.2332  139.9210  142.8510 H   0  0  0  0  0  0  0  0  0  0  0  0  # atno 7974 bound_to 7965
  154.5210  140.2223  155.8976 H   0  0  0  0  0  0  0  0  0  0  0  0  # atno 8008 bound_to 7997
  156.1662  140.3132  155.8857 H   0  0  0  0  0  0  0  0  0  0  0  0  # atno 8009 bound_to 7997
  155.3652  140.0463  157.3037 H   0  0  0  0  0  0  0  0  0  0  0  0  # atno 8010 bound_to 7997
  140.7246  143.5019  150.9858 H   0  0  0  0  0  0  0  0  0  0  0  0  # atno 10167 bound_to 10162
  156.8971  130.5708  149.5648 H   0  0  0  0  0  0  0  0  0  0  0  0  # atno 10718 bound_to 10713
  154.1041  135.2843  155.3245 H   0  0  0  0  0  0  0  0  0  0  0  0  # atno 10763 bound_to 10752
  154.6535  135.5360  153.7934 H   0  0  0  0  0  0  0  0  0  0  0  0  # atno 10764 bound_to 10752
  153.0368  135.6516  154.1203 H   0  0  0  0  0  0  0  0  0  0  0  0  # atno 10765 bound_to 10752
  140.1646  134.8586  157.2616 H   0  0  0  0  0  0  0  0  0  0  0  0  # atno 11005 bound_to 11000
  145.2136  140.9906  143.4086 LP  0  0  0  0  0  0  0  0  0  0  0  0  # atno 17320 bound_to 7965
  144.9670  139.3920  143.6328 LP  0  0  0  0  0  0  0  0  0  0  0  0  # atno 17321 bound_to 7965
  139.8729  143.7169  152.3164 LP  0  0  0  0  0  0  0  0  0  0  0  0  # atno 17342 bound_to 10162
  139.7425  144.7556  151.0631 LP  0  0  0  0  0  0  0  0  0  0  0  0  # atno 17343 bound_to 10162
  156.0600  130.5654  150.9173 LP  0  0  0  0  0  0  0  0  0  0  0  0  # atno 17370 bound_to 10713
  157.6048  131.0939  150.8897 LP  0  0  0  0  0  0  0  0  0  0  0  0  # atno 17371 bound_to 10713
  140.2449  134.3751  155.7465 LP  0  0  0  0  0  0  0  0  0  0  0  0  # atno 17394 bound_to 11000
  141.2212  133.7285  156.8847 LP  0  0  0  0  0  0  0  0  0  0  0  0  # atno 17395 bound_to 11000

$$$$
