AV-unprocessed.smi:692|AV-procd|sdf|3368|dock2
  -GOLD-   22720 0343D 1   1.00000     0.00000
 Structure written by MMmdl.
 37 38  0  0  0  0  0  0  0  0  1 V2000
  156.4086  136.9820  156.5501 C   0  0  0  0  0  0  0  0  0  0  0  0
  156.2096  135.7157  157.3905 C   0  0  0  0  0  0  0  0  0  0  0  0
  155.4701  135.9880  158.6651 C   0  0  0  0  0  0  0  0  0  0  0  0
  155.1184  135.0710  159.6255 C   0  0  0  0  0  0  0  0  0  0  0  0
  154.2745  135.8111  160.9593 S   0  0  0  0  0  0  0  0  0  0  0  0
  154.4309  137.3609  160.1474 C   0  0  0  0  0  0  0  0  0  0  0  0
  153.9195  138.5591  160.7113 N   0  0  0  0  0  0  0  0  0  0  0  0
  153.9891  139.8069  160.2152 C   0  0  0  0  0  0  0  0  0  0  0  0
  154.5164  140.1208  159.1475 O   0  0  0  0  0  0  0  0  0  0  0  0
  153.3984  140.6883  161.0351 N   0  0  0  0  0  0  0  0  0  0  0  0
  153.2881  142.1230  160.7883 C   0  0  2  0  0  0  0  0  0  0  0  0
  152.5210  142.7900  161.9313 C   0  0  0  0  0  0  0  0  0  0  0  0
  152.4318  144.3038  161.7037 C   0  0  0  0  0  0  0  0  0  0  0  0
  151.9948  144.6895  160.2822 C   0  0  0  0  0  0  0  0  0  0  0  0
  151.5584  145.8263  160.0983 O   0  0  0  0  0  0  0  0  0  0  0  0
  152.1302  143.7900  159.2778 N   0  0  0  0  0  0  0  0  0  0  0  0
  151.7526  144.1492  157.9097 C   0  0  0  0  0  0  0  0  0  0  0  0
  152.5715  142.3970  159.4516 C   0  0  0  0  0  0  0  0  0  0  0  0
  155.0716  137.2923  158.9749 N   0  0  0  0  0  0  0  0  0  0  0  0
  156.9525  136.7573  155.6324 H   0  0  0  0  0  0  0  0  0  0  0  0
  156.9768  137.7337  157.0990 H   0  0  0  0  0  0  0  0  0  0  0  0
  155.4516  137.4234  156.2697 H   0  0  0  0  0  0  0  0  0  0  0  0
  155.6721  134.9736  156.7991 H   0  0  0  0  0  0  0  0  0  0  0  0
  157.1826  135.2750  157.6100 H   0  0  0  0  0  0  0  0  0  0  0  0
  155.3071  134.0077  159.6298 H   0  0  0  0  0  0  0  0  0  0  0  0
  153.4437  138.4529  161.5951 H   0  0  0  0  0  0  0  0  0  0  0  0
  152.9913  140.3424  161.8917 H   0  0  0  0  0  0  0  0  0  0  0  0
  154.2892  142.5581  160.7537 H   0  0  0  0  0  0  0  0  0  0  0  0
  151.5175  142.3683  162.0087 H   0  0  0  0  0  0  0  0  0  0  0  0
  153.0157  142.5931  162.8832 H   0  0  0  0  0  0  0  0  0  0  0  0
  151.7468  144.7479  162.4268 H   0  0  0  0  0  0  0  0  0  0  0  0
  153.4078  144.7563  161.8816 H   0  0  0  0  0  0  0  0  0  0  0  0
  152.3995  144.9417  157.5309 H   0  0  0  0  0  0  0  0  0  0  0  0
  150.7208  144.5023  157.8720 H   0  0  0  0  0  0  0  0  0  0  0  0
  151.8304  143.3032  157.2254 H   0  0  0  0  0  0  0  0  0  0  0  0
  153.2286  142.1132  158.6281 H   0  0  0  0  0  0  0  0  0  0  0  0
  151.6852  141.7653  159.3738 H   0  0  0  0  0  0  0  0  0  0  0  0
  1  2  1  0  0  0  0
  1 20  1  0  0  0  0
  1 21  1  0  0  0  0
  1 22  1  0  0  0  0
  2  3  1  0  0  0  0
  2 23  1  0  0  0  0
  2 24  1  0  0  0  0
  3 19  1  0  0  0  0
  3  4  2  0  0  0  0
  4  5  1  0  0  0  0
  4 25  1  0  0  0  0
  5  6  1  0  0  0  0
  6  7  1  0  0  0  0
  6 19  2  0  0  0  0
  7  8  1  0  0  0  0
  7 26  1  0  0  0  0
  8  9  2  0  0  0  0
  8 10  1  0  0  0  0
 10 11  1  0  0  0  0
 10 27  1  0  0  0  0
 11 18  1  0  0  0  0
 11 12  1  0  0  0  0
 11 28  1  0  0  0  0
 12 13  1  0  0  0  0
 12 29  1  0  0  0  0
 12 30  1  0  0  0  0
 13 14  1  0  0  0  0
 13 31  1  0  0  0  0
 13 32  1  0  0  0  0
 14 15  2  0  0  0  0
 14 16  1  0  0  0  0
 16 17  1  0  0  0  0
 16 18  1  0  0  0  0
 17 33  1  0  0  0  0
 17 34  1  0  0  0  0
 17 35  1  0  0  0  0
 18 36  1  0  0  0  0
 18 37  1  0  0  0  0
M  END
> <s_m_source_file>
AV-unprocessed.smi

> <i_m_source_file_index>
692

> <i_lp_mmshare_version>
43012

> <i_f3d_flags>
0

> <s_epik_input>
W0NIM11bQ0gyXWMxW2NIXXNjKG4xKVtOSF1DKD1PKVtOSF1bQ0BASF0yW0NIMl1bQ0gyXUMoPU8pTihbQ0gzXSlbQ0gyXTI=

> <s_epik_cmdline>
J2VwaWtfcHl0aG9uJywgJy1waCcsICc3LjAnLCAnLXRuJywgJzgnLCAnLW1hJywgJzIwMCcsICctbWV0YWxfYmluZGluZycsICctaW1hZScsICc8aW5maWxlLm1hZT4nLCAnLW9tYWUnLCAnPG91dGZpbGUubWFlPic=

> <r_lp_tautomer_probability>
1

> <r_epik_Ionization_Penalty>
0.000165573

> <r_epik_Ionization_Penalty_Charging>
0

> <r_epik_Ionization_Penalty_Neutral>
0.000165573

> <r_epik_State_Penalty>
-0

> <r_epik_Charging_Adjusted_Penalty>
0

> <i_epik_Tot_Q>
0

> <i_epik_Tot_abs_Q>
0

> <r_epik_Metal_State_Penalty>
0.031163

> <b_epik_Metal_Only>
0

> <s_lp_Force_Field>
OPLS_2005

> <r_lp_Energy>
8.08929

> <b_lp_Chiralities_Consistent>
1

> <s_lp_Variant>
AV-unprocessed.smi:692-1

> <Gold.Version>
5.8.1

> <Gold.Id.Protein>
6NUR|6NUR_protein|mol2

> <Gold.PLP.Fitness>
38.5730

> <Gold.PLP.PLP>
-35.8003

> <Gold.PLP.part.hbond>
-1.5852

> <Gold.PLP.part.metal>
0.0000

> <Gold.PLP.part.buried>
-4.6552

> <Gold.PLP.part.nonpolar>
-30.0303

> <Gold.PLP.part.repulsive>
0.2722

> <Gold.PLP.ligand.clash>
0.0000

> <Gold.PLP.ligand.torsion>
0.0064

> <Gold.PLP.Chemscore.Hbond>
0.9280

> <Gold.PLP.Chemscore.CHOScore>
0.0000

> <Gold.PLP.Chemscore.Metal>
0.0000

> <Gold.Chemscore.Hbonds>
donor molecule, donor type, donor heavy atom, donor atom, acceptor molecule, acceptor atom, score
      P1  H  7997  8009       L1     9  0.93

> <Gold.PLP.Chemscore.Internal.Correction>
0.0014

> <Gold.Rescore>
     Score         DG    S(hbond)    S(metal)    S(lipo)     H(rot)  DE(clash)    DE(int)     intcor
     12.69     -14.08       0.95        0.00      73.40       1.24       0.02       1.37       ----

> <Gold.Chemscore.Fitness>
12.6918

> <Gold.Chemscore.DG>
-14.0796

> <Gold.Chemscore.ZeroCoef>
-5.4800

> <Gold.Chemscore.Hbond>
0.9530

> <Gold.Chemscore.Metal>
0.0000

> <Gold.Chemscore.Lipo>
73.3968

> <Gold.Chemscore.Internal_Hbond>
0.0000

> <Gold.Chemscore.DEClash>
0.0193

> <Gold.Chemscore.DEInternal>
1.3686

> <Gold.Chemscore.Rot>
1.2386

> <Gold.Chemscore.Internal.Correction>
   9.000000E+99

> <Gold.Chemscore.Hbonds>
donor molecule, donor type, donor heavy atom, donor atom, acceptor molecule, acceptor atom, score
      P1  H  7997  8009       L1     9  0.89

> <Gold.Chemscore.Hbond.Weighted>
-3.1830

> <Gold.Chemscore.Metal.Weighted>
-0.0000

> <Gold.Chemscore.Lipo.Weighted>
-8.5874

> <Gold.Chemscore.Internal_Hbond.Weighted>
0.0000

> <Gold.Chemscore.DEClash.Weighted>
0.0193

> <Gold.Chemscore.DEInternal.Weighted>
1.3686

> <Gold.Chemscore.Rot.Weighted>
3.1708

> <Gold.Chemscore.Internal.Correction.Weighted>
   9.000000E+99

> <Gold.Protein.RotatedTorsions>
[ 6907 6896 6895 6894 ] final -104.63 input  -60.11 | X-H torsion
[ 7974 7965 7964 7962 ] final    7.87 input  175.53 | X-H torsion
[ 8008 7997 7996 7995 ] final  113.73 input   59.86 | X-H torsion
[ 10167 10162 10161 10158 ] final -147.71 input  -65.29 | X-H torsion
[ 10718 10713 10712 10709 ] final   97.78 input   66.30 | X-H torsion
[ 10763 10752 10751 10750 ] final   83.98 input  -60.55 | X-H torsion
[ 11005 11000 10999 10996 ] final   -8.86 input  -57.11 | X-H torsion

> <Gold.Protein.ActiveResidues>
 VAL166  LYS551  ARG553  GLY616  TRP617  ASP618  TYR619  PRO620  LYS621  CYS622 
 ASP623  PHE694  ASN695  SER759  ASP760  ASP761  ALA762  ILE779  LEU786  VAL792 
 PHE793  MET794  SER795  GLU796  ALA797  LYS798  CYS799  TRP800  GLU811  SER814 

> <Gold.Protein.RotatedAtoms>
  150.7296  134.0249  159.3713 H   0  0  0  0  0  0  0  0  0  0  0  0  # atno 6907 bound_to 6896
  151.8216  135.0648  160.0435 H   0  0  0  0  0  0  0  0  0  0  0  0  # atno 6908 bound_to 6896
  152.3000  133.5609  159.5648 H   0  0  0  0  0  0  0  0  0  0  0  0  # atno 6909 bound_to 6896
  146.2422  140.0019  142.8415 H   0  0  0  0  0  0  0  0  0  0  0  0  # atno 7974 bound_to 7965
  156.2277  140.2973  156.0108 H   0  0  0  0  0  0  0  0  0  0  0  0  # atno 8008 bound_to 7997
  155.2312  140.0419  157.2979 H   0  0  0  0  0  0  0  0  0  0  0  0  # atno 8009 bound_to 7997
  154.5942  140.2410  155.7887 H   0  0  0  0  0  0  0  0  0  0  0  0  # atno 8010 bound_to 7997
  139.7597  143.8395  152.2604 H   0  0  0  0  0  0  0  0  0  0  0  0  # atno 10167 bound_to 10162
  157.6907  131.0620  150.4696 H   0  0  0  0  0  0  0  0  0  0  0  0  # atno 10718 bound_to 10713
  153.1340  135.4671  154.9393 H   0  0  0  0  0  0  0  0  0  0  0  0  # atno 10763 bound_to 10752
  154.7689  135.3153  154.8232 H   0  0  0  0  0  0  0  0  0  0  0  0  # atno 10764 bound_to 10752
  153.8768  135.6898  153.4824 H   0  0  0  0  0  0  0  0  0  0  0  0  # atno 10765 bound_to 10752
  140.7280  133.8773  155.8871 H   0  0  0  0  0  0  0  0  0  0  0  0  # atno 11005 bound_to 11000
  145.1408  140.9570  143.4490 LP  0  0  0  0  0  0  0  0  0  0  0  0  # atno 17320 bound_to 7965
  145.0298  139.3351  143.6030 LP  0  0  0  0  0  0  0  0  0  0  0  0  # atno 17321 bound_to 7965
  139.8398  144.7215  150.9345 LP  0  0  0  0  0  0  0  0  0  0  0  0  # atno 17342 bound_to 10162
  140.7806  143.3994  151.1175 LP  0  0  0  0  0  0  0  0  0  0  0  0  # atno 17343 bound_to 10162
  156.5035  130.4122  149.6340 LP  0  0  0  0  0  0  0  0  0  0  0  0  # atno 17370 bound_to 10713
  156.3306  130.7329  151.2258 LP  0  0  0  0  0  0  0  0  0  0  0  0  # atno 17371 bound_to 10713
  140.9946  134.1233  157.4376 LP  0  0  0  0  0  0  0  0  0  0  0  0  # atno 17394 bound_to 11000
  139.8833  135.0050  156.6288 LP  0  0  0  0  0  0  0  0  0  0  0  0  # atno 17395 bound_to 11000

$$$$
