AV-unprocessed.smi:261|AV-procd|sdf|1992|dock1
  -GOLD-   2262021173D 1   1.00000     0.00000
 Structure written by MMmdl.
 51 54  0  0  0  0  0  0  0  0  1 V2000
  149.9739  131.3393  154.8560 C   0  0  0  0  0  0  0  0  0  0  0  0
  150.3708  132.3161  155.8045 O   0  0  0  0  0  0  0  0  0  0  0  0
  149.4705  133.4101  155.8999 C   0  0  2  0  0  0  0  0  0  0  0  0
  149.5533  134.3682  154.7107 C   0  0  0  0  0  0  0  0  0  0  0  0
  149.0645  135.7180  155.2680 C   0  0  1  0  0  0  0  0  0  0  0  0
  147.5712  135.9505  154.9887 C   0  0  0  0  0  0  0  0  0  0  0  0
  147.1939  135.9681  153.7082 N   0  0  0  0  0  0  0  0  0  0  0  0
  146.7651  136.0953  155.9067 O   0  0  0  0  0  0  0  0  0  0  0  0
  149.3056  135.6302  156.7111 N   0  0  0  0  0  0  0  0  0  0  0  0
  149.9001  136.6838  157.3112 C   0  0  0  0  0  0  0  0  0  0  0  0
  150.3654  136.5705  158.5829 N   0  0  0  0  0  0  0  0  0  0  0  0
  150.9410  137.6209  159.1765 C   0  0  0  0  0  0  0  0  0  0  0  0
  151.1446  138.8476  158.6895 N   0  0  0  0  0  0  0  0  0  0  0  0
  150.6751  138.9594  157.4135 C   0  0  0  0  0  0  0  0  0  0  0  0
  150.0440  137.9338  156.6568 C   0  0  0  0  0  0  0  0  0  0  0  0
  149.7010  138.4086  155.3979 N   0  0  0  0  0  0  0  0  0  0  0  0
  150.1111  139.6476  155.4071 C   0  0  0  0  0  0  0  0  0  0  0  0
  150.6979  140.0648  156.5818 N   0  0  0  0  0  0  0  0  0  0  0  0
  151.2302  141.3881  156.8660 C   0  0  0  0  0  0  0  0  0  0  0  0
  150.5373  142.0951  158.0526 C   0  0  2  0  0  0  0  0  0  0  0  0
  149.4102  142.8009  157.5726 O   0  0  0  0  0  0  0  0  0  0  0  0
  151.4465  143.0824  158.8130 C   0  0  1  0  0  0  0  0  0  0  0  0
  151.9167  144.2818  157.9880 C   0  0  0  0  0  0  0  0  0  0  0  0
  152.1684  145.3617  159.0306 C   0  0  0  0  0  0  0  0  0  0  0  0
  151.5139  144.8147  160.3017 C   0  0  0  0  0  0  0  0  0  0  0  0
  150.7325  143.7132  159.8644 O   0  0  0  0  0  0  0  0  0  0  0  0
  149.8525  134.3254  157.0591 C   0  0  0  0  0  0  0  0  0  0  0  0
  148.4444  133.0636  156.0381 H   0  0  0  0  0  0  0  0  0  0  0  0
  149.6315  136.5286  154.8059 H   0  0  0  0  0  0  0  0  0  0  0  0
  150.6981  130.5249  154.8480 H   0  0  0  0  0  0  0  0  0  0  0  0
  149.9271  131.7529  153.8481 H   0  0  0  0  0  0  0  0  0  0  0  0
  148.9994  130.9194  155.1082 H   0  0  0  0  0  0  0  0  0  0  0  0
  150.5923  134.4674  154.3928 H   0  0  0  0  0  0  0  0  0  0  0  0
  148.9821  134.0191  153.8495 H   0  0  0  0  0  0  0  0  0  0  0  0
  146.2244  136.1168  153.4688 H   0  0  0  0  0  0  0  0  0  0  0  0
  147.8826  135.8318  152.9825 H   0  0  0  0  0  0  0  0  0  0  0  0
  151.2865  137.4553  160.1863 H   0  0  0  0  0  0  0  0  0  0  0  0
  149.9864  140.2999  154.5548 H   0  0  0  0  0  0  0  0  0  0  0  0
  152.3022  141.3017  157.0484 H   0  0  0  0  0  0  0  0  0  0  0  0
  151.1247  141.9937  155.9652 H   0  0  0  0  0  0  0  0  0  0  0  0
  150.1778  141.3317  158.7433 H   0  0  0  0  0  0  0  0  0  0  0  0
  149.6774  143.3234  156.8314 H   0  0  0  0  0  0  0  0  0  0  0  0
  152.3128  142.5691  159.2351 H   0  0  0  0  0  0  0  0  0  0  0  0
  152.8003  144.0567  157.3899 H   0  0  0  0  0  0  0  0  0  0  0  0
  151.1276  144.6089  157.3094 H   0  0  0  0  0  0  0  0  0  0  0  0
  153.2341  145.5313  159.1877 H   0  0  0  0  0  0  0  0  0  0  0  0
  151.7191  146.3069  158.7236 H   0  0  0  0  0  0  0  0  0  0  0  0
  152.2720  144.4595  161.0015 H   0  0  0  0  0  0  0  0  0  0  0  0
  150.9001  145.5569  160.8123 H   0  0  0  0  0  0  0  0  0  0  0  0
  149.4442  133.9670  158.0045 H   0  0  0  0  0  0  0  0  0  0  0  0
  150.9383  134.3780  157.1601 H   0  0  0  0  0  0  0  0  0  0  0  0
  1  2  1  0  0  0  0
  1 30  1  0  0  0  0
  1 31  1  0  0  0  0
  1 32  1  0  0  0  0
  2  3  1  0  0  0  0
  3 28  1  0  0  0  0
  3 27  1  0  0  0  0
  3  4  1  0  0  0  0
  4  5  1  0  0  0  0
  4 33  1  0  0  0  0
  4 34  1  0  0  0  0
  5 29  1  0  0  0  0
  5  6  1  0  0  0  0
  5  9  1  0  0  0  0
  6  7  1  0  0  0  0
  6  8  2  0  0  0  0
  7 35  1  0  0  0  0
  7 36  1  0  0  0  0
  9 10  1  0  0  0  0
  9 27  1  0  0  0  0
 10 15  1  0  0  0  0
 10 11  2  0  0  0  0
 11 12  1  0  0  0  0
 12 13  2  0  0  0  0
 12 37  1  0  0  0  0
 13 14  1  0  0  0  0
 14 18  1  0  0  0  0
 14 15  2  0  0  0  0
 15 16  1  0  0  0  0
 16 17  2  0  0  0  0
 17 18  1  0  0  0  0
 17 38  1  0  0  0  0
 18 19  1  0  0  0  0
 19 20  1  0  0  0  0
 19 39  1  0  0  0  0
 19 40  1  0  0  0  0
 20 21  1  0  0  0  0
 20 22  1  0  0  0  0
 20 41  1  0  0  0  0
 21 42  1  0  0  0  0
 22 26  1  0  0  0  0
 22 23  1  0  0  0  0
 22 43  1  0  0  0  0
 23 24  1  0  0  0  0
 23 44  1  0  0  0  0
 23 45  1  0  0  0  0
 24 25  1  0  0  0  0
 24 46  1  0  0  0  0
 24 47  1  0  0  0  0
 25 26  1  0  0  0  0
 25 48  1  0  0  0  0
 25 49  1  0  0  0  0
 27 50  1  0  0  0  0
 27 51  1  0  0  0  0
M  END
> <s_m_source_file>
AV-unprocessed.smi

> <i_m_source_file_index>
261

> <i_lp_mmshare_version>
43012

> <i_f3d_flags>
0

> <s_epik_input>
W0NIM11PW0NASF0xW0NIMl1bQ0BASF0oQyg9TylbTkgyXSlOKFtDSDJdMSljKG5bY0hdbjIpYyhjMjMpbltjSF1uM1tDSDJdW0NASF0oW09IXSlbQ0BASF00W0NIMl1bQ0gyXVtDSDJdTzQ=

> <s_epik_cmdline>
J2VwaWtfcHl0aG9uJywgJy1waCcsICc3LjAnLCAnLXRuJywgJzgnLCAnLW1hJywgJzIwMCcsICctbWV0YWxfYmluZGluZycsICctaW1hZScsICc8aW5maWxlLm1hZT4nLCAnLW9tYWUnLCAnPG91dGZpbGUubWFlPic=

> <r_lp_tautomer_probability>
1

> <r_epik_Ionization_Penalty>
0.000713824

> <r_epik_Ionization_Penalty_Charging>
0

> <r_epik_Ionization_Penalty_Neutral>
0.000713824

> <r_epik_State_Penalty>
0.000402132

> <r_epik_Charging_Adjusted_Penalty>
0.000402132

> <i_epik_Tot_Q>
0

> <i_epik_Tot_abs_Q>
0

> <r_epik_Metal_State_Penalty>
-0

> <b_epik_Metal_Only>
0

> <s_lp_Force_Field>
OPLS_2005

> <r_lp_Energy>
43.7776

> <b_lp_Chiralities_Consistent>
1

> <s_lp_Variant>
AV-unprocessed.smi:261-10

> <Gold.Version>
5.8.1

> <Gold.Id.Protein>
6NUR|6NUR_protein|mol2

> <Gold.PLP.Fitness>
44.9923

> <Gold.PLP.PLP>
-38.0861

> <Gold.PLP.part.hbond>
-3.3401

> <Gold.PLP.part.metal>
0.0000

> <Gold.PLP.part.buried>
-6.6706

> <Gold.PLP.part.nonpolar>
-29.7768

> <Gold.PLP.part.repulsive>
0.1755

> <Gold.PLP.ligand.clash>
0.0000

> <Gold.PLP.ligand.torsion>
0.9197

> <Gold.PLP.Chemscore.Hbond>
2.7922

> <Gold.PLP.Chemscore.CHOScore>
0.0000

> <Gold.PLP.Chemscore.Metal>
0.0000

> <Gold.Chemscore.Hbonds>
donor molecule, donor type, donor heavy atom, donor atom, acceptor molecule, acceptor atom, score
      L1  H     7    36       P1  7948  1.00
      L1  H    21    42       P1  8028  0.75
      P1  H  6896  6909       L1    11  0.91

> <Gold.PLP.Chemscore.Internal.Correction>
0.3690

> <Gold.Rescore>
     Score         DG    S(hbond)    S(metal)    S(lipo)     H(rot)  DE(clash)    DE(int)     intcor
     12.72     -15.23       2.67        0.00      85.47       3.57       0.14       2.38       ----

> <Gold.Chemscore.Fitness>
12.7206

> <Gold.Chemscore.DG>
-15.2349

> <Gold.Chemscore.ZeroCoef>
-5.4800

> <Gold.Chemscore.Hbond>
2.6661

> <Gold.Chemscore.Metal>
0.0000

> <Gold.Chemscore.Lipo>
85.4659

> <Gold.Chemscore.Internal_Hbond>
0.0000

> <Gold.Chemscore.DEClash>
0.1363

> <Gold.Chemscore.DEInternal>
2.3780

> <Gold.Chemscore.Rot>
3.5740

> <Gold.Chemscore.Internal.Correction>
   9.000000E+99

> <Gold.Chemscore.Hbonds>
donor molecule, donor type, donor heavy atom, donor atom, acceptor molecule, acceptor atom, score
      L1  H     7    36       P1  7948  0.98
      L1  H    21    42       P1  8028  0.72
      P1  H  6896  6909       L1    11  0.33

> <Gold.Chemscore.Hbond.Weighted>
-8.9049

> <Gold.Chemscore.Metal.Weighted>
-0.0000

> <Gold.Chemscore.Lipo.Weighted>
-9.9995

> <Gold.Chemscore.Internal_Hbond.Weighted>
0.0000

> <Gold.Chemscore.DEClash.Weighted>
0.1363

> <Gold.Chemscore.DEInternal.Weighted>
2.3780

> <Gold.Chemscore.Rot.Weighted>
9.1495

> <Gold.Chemscore.Internal.Correction.Weighted>
   9.000000E+99

> <Gold.Protein.RotatedTorsions>
[ 6907 6896 6895 6894 ] final   81.14 input  -60.11 | X-H torsion
[ 7974 7965 7964 7962 ] final   32.58 input  175.53 | X-H torsion
[ 8008 7997 7996 7995 ] final -121.59 input   59.86 | X-H torsion
[ 10167 10162 10161 10158 ] final -102.06 input  -65.29 | X-H torsion
[ 10718 10713 10712 10709 ] final -157.92 input   66.30 | X-H torsion
[ 10763 10752 10751 10750 ] final   12.34 input  -60.55 | X-H torsion
[ 11005 11000 10999 10996 ] final  -31.97 input  -57.11 | X-H torsion

> <Gold.Protein.ActiveResidues>
 VAL166  LYS551  ARG553  GLY616  TRP617  ASP618  TYR619  PRO620  LYS621  CYS622 
 ASP623  PHE694  ASN695  SER759  ASP760  ASP761  ALA762  ILE779  LEU786  VAL792 
 PHE793  MET794  SER795  GLU796  ALA797  LYS798  CYS799  TRP800  GLU811  SER814 

> <Gold.Protein.RotatedAtoms>
  152.5258  134.3249  159.9161 H   0  0  0  0  0  0  0  0  0  0  0  0  # atno 6907 bound_to 6896
  151.3198  133.4038  159.2661 H   0  0  0  0  0  0  0  0  0  0  0  0  # atno 6908 bound_to 6896
  150.9968  134.9307  159.7988 H   0  0  0  0  0  0  0  0  0  0  0  0  # atno 6909 bound_to 6896
  146.1477  139.6507  142.9120 H   0  0  0  0  0  0  0  0  0  0  0  0  # atno 7974 bound_to 7965
  155.1505  140.0403  157.2820 H   0  0  0  0  0  0  0  0  0  0  0  0  # atno 8008 bound_to 7997
  154.6407  140.2546  155.7298 H   0  0  0  0  0  0  0  0  0  0  0  0  # atno 8009 bound_to 7997
  156.2531  140.2856  156.0800 H   0  0  0  0  0  0  0  0  0  0  0  0  # atno 8010 bound_to 7997
  140.2347  143.3581  152.0855 H   0  0  0  0  0  0  0  0  0  0  0  0  # atno 10167 bound_to 10162
  156.5469  130.8588  151.2767 H   0  0  0  0  0  0  0  0  0  0  0  0  # atno 10718 bound_to 10713
  153.1832  135.6831  153.8450 H   0  0  0  0  0  0  0  0  0  0  0  0  # atno 10763 bound_to 10752
  153.7774  135.3187  155.3362 H   0  0  0  0  0  0  0  0  0  0  0  0  # atno 10764 bound_to 10752
  154.8073  135.4740  154.0520 H   0  0  0  0  0  0  0  0  0  0  0  0  # atno 10765 bound_to 10752
  140.9513  133.7219  156.1225 H   0  0  0  0  0  0  0  0  0  0  0  0  # atno 11005 bound_to 11000
  145.4899  141.0438  143.2599 LP  0  0  0  0  0  0  0  0  0  0  0  0  # atno 17320 bound_to 7965
  144.7866  139.6415  143.7131 LP  0  0  0  0  0  0  0  0  0  0  0  0  # atno 17321 bound_to 7965
  139.5098  144.6873  151.5854 LP  0  0  0  0  0  0  0  0  0  0  0  0  # atno 17342 bound_to 10162
  140.6159  143.9350  150.6488 LP  0  0  0  0  0  0  0  0  0  0  0  0  # atno 17343 bound_to 10162
  157.7395  130.9832  150.2316 LP  0  0  0  0  0  0  0  0  0  0  0  0  # atno 17370 bound_to 10713
  156.2920  130.3747  149.7833 LP  0  0  0  0  0  0  0  0  0  0  0  0  # atno 17371 bound_to 10713
  140.7598  134.3952  157.5527 LP  0  0  0  0  0  0  0  0  0  0  0  0  # atno 17394 bound_to 11000
  139.8848  134.8954  156.2679 LP  0  0  0  0  0  0  0  0  0  0  0  0  # atno 17395 bound_to 11000

$$$$
