AV-unprocessed.smi:2909|AV-procd|sdf|11172|dock1
  -GOLD-   2272016 63D 1   1.00000     0.00000
 Structure written by MMmdl.
 44 45  0  0  0  0  0  0  0  0  1 V2000
  146.8320  133.7386  161.9154 C   0  0  0  0  0  0  0  0  0  0  0  0
  147.0308  135.0274  161.1927 C   0  0  0  0  0  0  0  0  0  0  0  0
  147.5020  135.2962  159.9388 C   0  0  0  0  0  0  0  0  0  0  0  0
  147.4585  136.7189  159.8420 C   0  0  0  0  0  0  0  0  0  0  0  0
  147.8702  137.5798  158.6752 C   0  0  0  0  0  0  0  0  0  0  0  0
  149.3869  137.5428  158.4607 C   0  0  0  0  0  0  0  0  0  0  0  0
  150.0719  136.7190  159.0665 O   0  0  0  0  0  0  0  0  0  0  0  0
  149.9028  138.4531  157.6188 N   0  0  0  0  0  0  0  0  0  0  0  0
  151.3177  138.6103  157.2901 C   0  0  2  0  0  0  0  0  0  0  0  0
  152.1640  138.8340  158.5560 C   0  0  0  0  0  0  0  0  0  0  0  0
  151.8724  140.1916  159.2188 C   0  0  0  0  0  0  0  0  0  0  0  0
  152.0624  141.3838  158.2480 C   0  0  2  0  0  0  0  0  0  0  0  0
  151.7375  142.7505  158.9205 C   0  0  0  0  0  0  0  0  0  0  0  0
  152.0134  143.9507  157.9938 C   0  0  0  0  0  0  0  0  0  0  0  0
  152.4996  142.9605  160.2435 C   0  0  0  0  0  0  0  0  0  0  0  0
  151.2199  141.1438  156.9702 C   0  0  0  0  0  0  0  0  0  0  0  0
  151.5086  139.7820  156.3136 C   0  0  0  0  0  0  0  0  0  0  0  0
  146.9893  137.2851  160.9455 N   0  0  0  0  0  0  0  0  0  0  0  0
  146.7359  136.2451  161.7613 N   0  0  0  0  0  0  0  0  0  0  0  0
  146.3651  136.3797  162.6915 H   0  0  0  0  0  0  0  0  0  0  0  0
  146.6412  132.9257  161.2143 H   0  0  0  0  0  0  0  0  0  0  0  0
  145.9846  133.7980  162.5988 H   0  0  0  0  0  0  0  0  0  0  0  0
  147.7181  133.4825  162.4962 H   0  0  0  0  0  0  0  0  0  0  0  0
  147.8357  134.5833  159.1991 H   0  0  0  0  0  0  0  0  0  0  0  0
  147.3825  137.2371  157.7620 H   0  0  0  0  0  0  0  0  0  0  0  0
  147.5490  138.6113  158.8280 H   0  0  0  0  0  0  0  0  0  0  0  0
  149.2619  139.0893  157.1670 H   0  0  0  0  0  0  0  0  0  0  0  0
  151.6598  137.7004  156.7940 H   0  0  0  0  0  0  0  0  0  0  0  0
  151.9985  138.0273  159.2710 H   0  0  0  0  0  0  0  0  0  0  0  0
  153.2210  138.7880  158.2906 H   0  0  0  0  0  0  0  0  0  0  0  0
  150.8559  140.1965  159.6142 H   0  0  0  0  0  0  0  0  0  0  0  0
  152.5355  140.2863  160.0776 H   0  0  0  0  0  0  0  0  0  0  0  0
  153.1123  141.4009  157.9511 H   0  0  0  0  0  0  0  0  0  0  0  0
  150.6727  142.7656  159.1576 H   0  0  0  0  0  0  0  0  0  0  0  0
  153.0416  143.9433  157.6305 H   0  0  0  0  0  0  0  0  0  0  0  0
  151.8550  144.8954  158.5149 H   0  0  0  0  0  0  0  0  0  0  0  0
  151.3493  143.9623  157.1304 H   0  0  0  0  0  0  0  0  0  0  0  0
  153.5757  142.8551  160.1026 H   0  0  0  0  0  0  0  0  0  0  0  0
  152.1875  142.2543  161.0120 H   0  0  0  0  0  0  0  0  0  0  0  0
  152.3161  143.9558  160.6494 H   0  0  0  0  0  0  0  0  0  0  0  0
  150.1583  141.2188  157.2094 H   0  0  0  0  0  0  0  0  0  0  0  0
  151.4211  141.9148  156.2277 H   0  0  0  0  0  0  0  0  0  0  0  0
  152.5349  139.7760  155.9439 H   0  0  0  0  0  0  0  0  0  0  0  0
  150.8720  139.6486  155.4380 H   0  0  0  0  0  0  0  0  0  0  0  0
  1  2  1  0  0  0  0
  1 21  1  0  0  0  0
  1 22  1  0  0  0  0
  1 23  1  0  0  0  0
  2 19  1  0  0  0  0
  2  3  2  0  0  0  0
  3  4  1  0  0  0  0
  3 24  1  0  0  0  0
  4  5  1  0  0  0  0
  4 18  2  0  0  0  0
  5  6  1  0  0  0  0
  5 25  1  0  0  0  0
  5 26  1  0  0  0  0
  6  7  2  0  0  0  0
  6  8  1  0  0  0  0
  8  9  1  0  0  0  0
  8 27  1  0  0  0  0
  9 17  1  0  0  0  0
  9 10  1  0  0  0  0
  9 28  1  0  0  0  0
 10 11  1  0  0  0  0
 10 29  1  0  0  0  0
 10 30  1  0  0  0  0
 11 12  1  0  0  0  0
 11 31  1  0  0  0  0
 11 32  1  0  0  0  0
 12 13  1  0  0  0  0
 12 16  1  0  0  0  0
 12 33  1  0  0  0  0
 13 14  1  0  0  0  0
 13 15  1  0  0  0  0
 13 34  1  0  0  0  0
 14 35  1  0  0  0  0
 14 36  1  0  0  0  0
 14 37  1  0  0  0  0
 15 38  1  0  0  0  0
 15 39  1  0  0  0  0
 15 40  1  0  0  0  0
 16 17  1  0  0  0  0
 16 41  1  0  0  0  0
 16 42  1  0  0  0  0
 17 43  1  0  0  0  0
 17 44  1  0  0  0  0
 18 19  1  0  0  0  0
 19 20  1  0  0  0  0
M  END
> <s_m_source_file>
AV-unprocessed.smi

> <i_m_source_file_index>
2909

> <i_lp_mmshare_version>
43012

> <i_f3d_flags>
0

> <s_epik_input>
W0NIM11jMVtjSF1jKG5bbkhdMSlbQ0gyXUMoPU8pW05IXVtDQEBIXTJbQ0gyXVtDSDJdW0NAQEhdKFtDSF0oW0NIM10pW0NIM10pW0NIMl1bQ0gyXTI=

> <s_epik_cmdline>
J2VwaWtfcHl0aG9uJywgJy1waCcsICc3LjAnLCAnLXRuJywgJzgnLCAnLW1hJywgJzIwMCcsICctbWV0YWxfYmluZGluZycsICctaW1hZScsICc8aW5maWxlLm1hZT4nLCAnLW9tYWUnLCAnPG91dGZpbGUubWFlPic=

> <r_lp_tautomer_probability>
0.5

> <r_epik_Ionization_Penalty>
9.34828e-05

> <r_epik_Ionization_Penalty_Charging>
0

> <r_epik_Ionization_Penalty_Neutral>
9.34828e-05

> <r_epik_State_Penalty>
0.41068

> <r_epik_Charging_Adjusted_Penalty>
0.41068

> <i_epik_Tot_Q>
0

> <i_epik_Tot_abs_Q>
0

> <r_epik_Metal_State_Penalty>
0.4107

> <b_epik_Metal_Only>
0

> <s_lp_Force_Field>
OPLS_2005

> <r_lp_Energy>
10.758

> <b_lp_Chiralities_Consistent>
1

> <s_lp_Variant>
AV-unprocessed.smi:2909-2

> <Gold.Version>
5.8.1

> <Gold.Id.Protein>
6NUR|6NUR_protein|mol2

> <Gold.PLP.Fitness>
45.4566

> <Gold.PLP.PLP>
-37.2533

> <Gold.PLP.part.hbond>
-3.0000

> <Gold.PLP.part.metal>
0.0000

> <Gold.PLP.part.buried>
-5.5505

> <Gold.PLP.part.nonpolar>
-28.9085

> <Gold.PLP.part.repulsive>
0.1960

> <Gold.PLP.ligand.clash>
0.0000

> <Gold.PLP.ligand.torsion>
0.2187

> <Gold.PLP.Chemscore.Hbond>
2.8720

> <Gold.PLP.Chemscore.CHOScore>
0.0000

> <Gold.PLP.Chemscore.Metal>
0.0000

> <Gold.Chemscore.Hbonds>
donor molecule, donor type, donor heavy atom, donor atom, acceptor molecule, acceptor atom, score
      P1  H  6896  6907       L1     7  0.83
      P1  H  6934  6947       L1    18  1.00

> <Gold.PLP.Chemscore.Internal.Correction>
0.0246

> <Gold.Rescore>
     Score         DG    S(hbond)    S(metal)    S(lipo)     H(rot)  DE(clash)    DE(int)     intcor
     20.44     -20.96       2.51        0.00      93.51       1.50       0.00       0.52       ----

> <Gold.Chemscore.Fitness>
20.4424

> <Gold.Chemscore.DG>
-20.9611

> <Gold.Chemscore.ZeroCoef>
-5.4800

> <Gold.Chemscore.Hbond>
2.5100

> <Gold.Chemscore.Metal>
0.0000

> <Gold.Chemscore.Lipo>
93.5091

> <Gold.Chemscore.Internal_Hbond>
0.0000

> <Gold.Chemscore.DEClash>
0.0000

> <Gold.Chemscore.DEInternal>
0.5186

> <Gold.Chemscore.Rot>
1.5011

> <Gold.Chemscore.Internal.Correction>
   9.000000E+99

> <Gold.Chemscore.Hbonds>
donor molecule, donor type, donor heavy atom, donor atom, acceptor molecule, acceptor atom, score
      P1  H  6896  6907       L1     7  0.82
      P1  H  6934  6947       L1    18  0.82

> <Gold.Chemscore.Hbond.Weighted>
-8.3834

> <Gold.Chemscore.Metal.Weighted>
-0.0000

> <Gold.Chemscore.Lipo.Weighted>
-10.9406

> <Gold.Chemscore.Internal_Hbond.Weighted>
0.0000

> <Gold.Chemscore.DEClash.Weighted>
0.0000

> <Gold.Chemscore.DEInternal.Weighted>
0.5186

> <Gold.Chemscore.Rot.Weighted>
3.8429

> <Gold.Chemscore.Internal.Correction.Weighted>
   9.000000E+99

> <Gold.Protein.RotatedTorsions>
[ 6907 6896 6895 6894 ] final  -49.78 input  -60.11 | X-H torsion
[ 7974 7965 7964 7962 ] final   10.02 input  175.53 | X-H torsion
[ 8008 7997 7996 7995 ] final  -51.39 input   59.86 | X-H torsion
[ 10167 10162 10161 10158 ] final  103.68 input  -65.29 | X-H torsion
[ 10718 10713 10712 10709 ] final   52.91 input   66.30 | X-H torsion
[ 10763 10752 10751 10750 ] final   86.39 input  -60.55 | X-H torsion
[ 11005 11000 10999 10996 ] final  -88.18 input  -57.11 | X-H torsion

> <Gold.Protein.ActiveResidues>
 VAL166  LYS551  ARG553  GLY616  TRP617  ASP618  TYR619  PRO620  LYS621  CYS622 
 ASP623  PHE694  ASN695  SER759  ASP760  ASP761  ALA762  ILE779  LEU786  VAL792 
 PHE793  MET794  SER795  GLU796  ALA797  LYS798  CYS799  TRP800  GLU811  SER814 

> <Gold.Protein.RotatedAtoms>
  150.8771  134.8156  159.7197 H   0  0  0  0  0  0  0  0  0  0  0  0  # atno 6907 bound_to 6896
  152.4754  134.4854  159.9688 H   0  0  0  0  0  0  0  0  0  0  0  0  # atno 6908 bound_to 6896
  151.4934  133.3481  159.2892 H   0  0  0  0  0  0  0  0  0  0  0  0  # atno 6909 bound_to 6896
  146.2395  139.9696  142.8448 H   0  0  0  0  0  0  0  0  0  0  0  0  # atno 7974 bound_to 7965
  154.4082  140.1249  156.4821 H   0  0  0  0  0  0  0  0  0  0  0  0  # atno 8008 bound_to 7997
  155.7074  140.3494  155.4939 H   0  0  0  0  0  0  0  0  0  0  0  0  # atno 8009 bound_to 7997
  155.9331  140.1073  157.1106 H   0  0  0  0  0  0  0  0  0  0  0  0  # atno 8010 bound_to 7997
  139.7242  144.7051  151.0824 H   0  0  0  0  0  0  0  0  0  0  0  0  # atno 10167 bound_to 10162
  157.5118  130.8506  149.8445 H   0  0  0  0  0  0  0  0  0  0  0  0  # atno 10718 bound_to 10713
  153.1566  135.4582  154.9713 H   0  0  0  0  0  0  0  0  0  0  0  0  # atno 10763 bound_to 10752
  154.7866  135.3206  154.7875 H   0  0  0  0  0  0  0  0  0  0  0  0  # atno 10764 bound_to 10752
  153.8371  135.6933  153.4862 H   0  0  0  0  0  0  0  0  0  0  0  0  # atno 10765 bound_to 10752
  141.1606  133.7555  156.9414 H   0  0  0  0  0  0  0  0  0  0  0  0  # atno 11005 bound_to 11000
  145.1693  140.9713  143.4331 LP  0  0  0  0  0  0  0  0  0  0  0  0  # atno 17320 bound_to 7965
  145.0043  139.3569  143.6152 LP  0  0  0  0  0  0  0  0  0  0  0  0  # atno 17321 bound_to 7965
  140.7759  143.5126  150.9634 LP  0  0  0  0  0  0  0  0  0  0  0  0  # atno 17342 bound_to 10162
  139.8814  143.7068  152.3156 LP  0  0  0  0  0  0  0  0  0  0  0  0  # atno 17343 bound_to 10162
  156.0294  130.3769  150.1730 LP  0  0  0  0  0  0  0  0  0  0  0  0  # atno 17370 bound_to 10713
  156.9919  130.9896  151.3412 LP  0  0  0  0  0  0  0  0  0  0  0  0  # atno 17371 bound_to 10713
  140.1319  134.9350  157.2348 LP  0  0  0  0  0  0  0  0  0  0  0  0  # atno 17394 bound_to 11000
  140.2943  134.3204  155.7306 LP  0  0  0  0  0  0  0  0  0  0  0  0  # atno 17395 bound_to 11000

$$$$
