AV-unprocessed.smi:2604|AV-procd|sdf|10190|dock5
  -GOLD-   2272014203D 1   1.00000     0.00000
 Structure written by MMmdl.
 26 27  0  0  0  0  0  0  0  0  2 V2000
  151.5068  140.8785  158.6354 C   0  0  0  0  0  0  0  0  0  0  0  0
  152.6870  140.1155  158.5355 C   0  0  0  0  0  0  0  0  0  0  0  0
  153.0396  139.4397  157.4210 N   0  0  0  0  0  0  0  0  0  0  0  0
  152.2169  139.5078  156.3526 C   0  0  0  0  0  0  0  0  0  0  0  0
  151.0140  140.2472  156.3416 C   0  0  0  0  0  0  0  0  0  0  0  0
  150.1334  140.2656  155.1028 C   0  0  1  0  0  0  0  0  0  0  0  0
  149.8493  138.8320  154.5992 C   0  0  0  0  0  0  0  0  0  0  0  0
  149.0285  138.8675  153.3717 N   0  3  0  0  0  0  0  0  0  0  0  0
  147.7821  139.6282  153.5873 C   0  0  0  0  0  0  0  0  0  0  0  0
  148.1112  141.0430  154.0971 C   0  0  0  0  0  0  0  0  0  0  0  0
  148.8658  140.9556  155.3434 N   0  0  0  0  0  0  0  0  0  0  0  0
  150.6541  140.9434  157.5168 C   0  0  0  0  0  0  0  0  0  0  0  0
  151.2624  141.4005  159.5487 H   0  0  0  0  0  0  0  0  0  0  0  0
  153.3643  140.0447  159.3737 H   0  0  0  0  0  0  0  0  0  0  0  0
  152.5295  138.9534  155.4799 H   0  0  0  0  0  0  0  0  0  0  0  0
  150.6708  140.8155  154.3283 H   0  0  0  0  0  0  0  0  0  0  0  0
  150.7834  138.3147  154.3781 H   0  0  0  0  0  0  0  0  0  0  0  0
  149.3323  138.2466  155.3611 H   0  0  0  0  0  0  0  0  0  0  0  0
  149.5595  139.3165  152.6394 H   0  0  0  0  0  0  0  0  0  0  0  0
  147.2298  139.6812  152.6487 H   0  0  0  0  0  0  0  0  0  0  0  0
  147.1498  139.0994  154.3021 H   0  0  0  0  0  0  0  0  0  0  0  0
  148.6808  141.6032  153.3540 H   0  0  0  0  0  0  0  0  0  0  0  0
  147.1911  141.5983  154.2801 H   0  0  0  0  0  0  0  0  0  0  0  0
  149.0479  141.8850  155.6969 H   0  0  0  0  0  0  0  0  0  0  0  0
  149.7401  141.5173  157.5643 H   0  0  0  0  0  0  0  0  0  0  0  0
  148.8039  137.9243  153.0890 H   0  0  0  0  0  0  0  0  0  0  0  0
  1 12  1  0  0  0  0
  1  2  2  0  0  0  0
  1 13  1  0  0  0  0
  2  3  1  0  0  0  0
  2 14  1  0  0  0  0
  3  4  2  0  0  0  0
  4  5  1  0  0  0  0
  4 15  1  0  0  0  0
  5  6  1  0  0  0  0
  5 12  2  0  0  0  0
  6 11  1  0  0  0  0
  6  7  1  0  0  0  0
  6 16  1  0  0  0  0
  7  8  1  0  0  0  0
  7 17  1  0  0  0  0
  7 18  1  0  0  0  0
  8  9  1  0  0  0  0
  8 19  1  0  0  0  0
  8 26  1  0  0  0  0
  9 10  1  0  0  0  0
  9 20  1  0  0  0  0
  9 21  1  0  0  0  0
 10 11  1  0  0  0  0
 10 22  1  0  0  0  0
 10 23  1  0  0  0  0
 11 24  1  0  0  0  0
 12 25  1  0  0  0  0
M  CHG  1   8   1
M  END
> <s_m_source_file>
AV-unprocessed.smi

> <i_m_source_file_index>
2604

> <i_lp_mmshare_version>
43012

> <i_f3d_flags>
0

> <s_epik_input>
W2NIXTFbY0hdW2NIXW5bY0hdYzFbQ0BASF0yW0NIMl1bTkhdW0NIMl1bQ0gyXVtOSF0y

> <s_epik_cmdline>
J2VwaWtfcHl0aG9uJywgJy1waCcsICc3LjAnLCAnLXRuJywgJzgnLCAnLW1hJywgJzIwMCcsICctbWV0YWxfYmluZGluZycsICctaW1hZScsICc8aW5maWxlLm1hZT4nLCAnLW9tYWUnLCAnPG91dGZpbGUubWFlPic=

> <r_epik_Ionization_Penalty>
0.0181456

> <r_epik_Ionization_Penalty_Charging>
0.010317

> <r_epik_Ionization_Penalty_Neutral>
0.00782861

> <r_epik_State_Penalty>
0.306622

> <r_epik_Charging_Adjusted_Penalty>
0.316939

> <i_epik_Tot_Q>
1

> <i_epik_Tot_abs_Q>
1

> <r_epik_Metal_State_Penalty>
0.302658

> <b_epik_Metal_Only>
0

> <s_lp_Force_Field>
OPLS_2005

> <r_lp_Energy>
10.6943

> <b_lp_Chiralities_Consistent>
1

> <s_lp_Variant>
AV-unprocessed.smi:2604-2

> <Gold.Version>
5.8.1

> <Gold.Id.Protein>
6NUR|6NUR_protein|mol2

> <Gold.PLP.Fitness>
34.2174

> <Gold.PLP.PLP>
-22.4587

> <Gold.PLP.part.hbond>
-2.8483

> <Gold.PLP.part.metal>
0.0000

> <Gold.PLP.part.buried>
-0.3073

> <Gold.PLP.part.nonpolar>
-18.5763

> <Gold.PLP.part.repulsive>
0.0927

> <Gold.PLP.ligand.clash>
0.0000

> <Gold.PLP.ligand.torsion>
0.1116

> <Gold.PLP.Chemscore.Hbond>
3.9913

> <Gold.PLP.Chemscore.CHOScore>
0.0000

> <Gold.PLP.Chemscore.Metal>
0.0000

> <Gold.Chemscore.Hbonds>
donor molecule, donor type, donor heavy atom, donor atom, acceptor molecule, acceptor atom, score
      L1  H     8    19       P1  7957  0.99
      L1  H     8    26       P1  7948  1.79
      P1  H  7997  8009       L1     3  1.00

> <Gold.PLP.Chemscore.Internal.Correction>
0.0081

> <Gold.Rescore>
     Score         DG    S(hbond)    S(metal)    S(lipo)     H(rot)  DE(clash)    DE(int)     intcor
     18.69     -18.91       2.82        0.00      56.29       1.00       0.07       0.14       ----

> <Gold.Chemscore.Fitness>
18.6946

> <Gold.Chemscore.DG>
-18.9107

> <Gold.Chemscore.ZeroCoef>
-5.4800

> <Gold.Chemscore.Hbond>
2.8159

> <Gold.Chemscore.Metal>
0.0000

> <Gold.Chemscore.Lipo>
56.2880

> <Gold.Chemscore.Internal_Hbond>
0.0000

> <Gold.Chemscore.DEClash>
0.0727

> <Gold.Chemscore.DEInternal>
0.1434

> <Gold.Chemscore.Rot>
1.0000

> <Gold.Chemscore.Internal.Correction>
   9.000000E+99

> <Gold.Chemscore.Hbonds>
donor molecule, donor type, donor heavy atom, donor atom, acceptor molecule, acceptor atom, score
      L1  H     8    19       P1  7957  0.94
      L1  H     8    26       P1  7948  0.84
      P1  H  7997  8009       L1     3  0.38

> <Gold.Chemscore.Hbond.Weighted>
-9.4050

> <Gold.Chemscore.Metal.Weighted>
-0.0000

> <Gold.Chemscore.Lipo.Weighted>
-6.5857

> <Gold.Chemscore.Internal_Hbond.Weighted>
0.0000

> <Gold.Chemscore.DEClash.Weighted>
0.0727

> <Gold.Chemscore.DEInternal.Weighted>
0.1434

> <Gold.Chemscore.Rot.Weighted>
2.5600

> <Gold.Chemscore.Internal.Correction.Weighted>
   9.000000E+99

> <Gold.Protein.RotatedTorsions>
[ 6907 6896 6895 6894 ] final   81.22 input  -60.11 | X-H torsion
[ 7974 7965 7964 7962 ] final   57.37 input  175.53 | X-H torsion
[ 8008 7997 7996 7995 ] final  156.52 input   59.86 | X-H torsion
[ 10167 10162 10161 10158 ] final    6.97 input  -65.29 | X-H torsion
[ 10718 10713 10712 10709 ] final -162.40 input   66.30 | X-H torsion
[ 10763 10752 10751 10750 ] final  152.71 input  -60.55 | X-H torsion
[ 11005 11000 10999 10996 ] final  -19.41 input  -57.11 | X-H torsion

> <Gold.Protein.ActiveResidues>
 VAL166  LYS551  ARG553  GLY616  TRP617  ASP618  TYR619  PRO620  LYS621  CYS622 
 ASP623  PHE694  ASN695  SER759  ASP760  ASP761  ALA762  ILE779  LEU786  VAL792 
 PHE793  MET794  SER795  GLU796  ALA797  LYS798  CYS799  TRP800  GLU811  SER814 

> <Gold.Protein.RotatedAtoms>
  152.5261  134.3237  159.9157 H   0  0  0  0  0  0  0  0  0  0  0  0  # atno 6907 bound_to 6896
  151.3186  133.4043  159.2660 H   0  0  0  0  0  0  0  0  0  0  0  0  # atno 6908 bound_to 6896
  150.9978  134.9315  159.7994 H   0  0  0  0  0  0  0  0  0  0  0  0  # atno 6909 bound_to 6896
  145.9298  139.3798  143.0428 H   0  0  0  0  0  0  0  0  0  0  0  0  # atno 7974 bound_to 7965
  156.2417  140.1910  156.6968 H   0  0  0  0  0  0  0  0  0  0  0  0  # atno 8008 bound_to 7997
  154.6211  140.0608  156.9642 H   0  0  0  0  0  0  0  0  0  0  0  0  # atno 8009 bound_to 7997
  155.1860  140.3280  155.4369 H   0  0  0  0  0  0  0  0  0  0  0  0  # atno 8010 bound_to 7997
  140.6398  143.7800  150.7412 H   0  0  0  0  0  0  0  0  0  0  0  0  # atno 10167 bound_to 10162
  156.6100  130.8846  151.2934 H   0  0  0  0  0  0  0  0  0  0  0  0  # atno 10718 bound_to 10713
  154.1244  135.2830  155.3200 H   0  0  0  0  0  0  0  0  0  0  0  0  # atno 10763 bound_to 10752
  154.6400  135.5405  153.7782 H   0  0  0  0  0  0  0  0  0  0  0  0  # atno 10764 bound_to 10752
  153.0302  135.6484  154.1397 H   0  0  0  0  0  0  0  0  0  0  0  0  # atno 10765 bound_to 10752
  140.8363  133.7959  155.9813 H   0  0  0  0  0  0  0  0  0  0  0  0  # atno 11005 bound_to 11000
  145.8441  140.9565  143.0784 LP  0  0  0  0  0  0  0  0  0  0  0  0  # atno 17320 bound_to 7965
  144.6763  140.0322  143.7482 LP  0  0  0  0  0  0  0  0  0  0  0  0  # atno 17321 bound_to 7965
  140.1429  143.4425  152.2181 LP  0  0  0  0  0  0  0  0  0  0  0  0  # atno 17342 bound_to 10162
  139.5608  144.7404  151.4162 LP  0  0  0  0  0  0  0  0  0  0  0  0  # atno 17343 bound_to 10162
  157.7257  130.9619  150.1624 LP  0  0  0  0  0  0  0  0  0  0  0  0  # atno 17370 bound_to 10713
  156.2398  130.3690  149.8350 LP  0  0  0  0  0  0  0  0  0  0  0  0  # atno 17371 bound_to 10713
  140.8943  134.2456  157.5077 LP  0  0  0  0  0  0  0  0  0  0  0  0  # atno 17394 bound_to 11000
  139.8704  134.9676  156.4604 LP  0  0  0  0  0  0  0  0  0  0  0  0  # atno 17395 bound_to 11000

$$$$
