AV-unprocessed.smi:3161|AV-procd|sdf|12058|dock4
  -GOLD-   2272017483D 1   1.00000     0.00000
 Structure written by MMmdl.
 41 42  0  0  0  0  0  0  0  0  2 V2000
  143.6544  132.6095  148.2207 C   0  0  0  0  0  0  0  0  0  0  0  0
  143.9450  132.9783  149.6471 C   0  0  0  0  0  0  0  0  0  0  0  0
  143.4293  132.3753  150.8297 C   0  0  0  0  0  0  0  0  0  0  0  0
  143.8843  132.9412  151.9359 N   0  0  0  0  0  0  0  0  0  0  0  0
  144.7083  133.9175  151.5006 N   0  0  0  0  0  0  0  0  0  0  0  0
  145.3903  134.7656  152.4613 C   0  0  0  0  0  0  0  0  0  0  0  0
  145.2277  136.2748  152.1626 C   0  0  1  0  0  0  0  0  0  0  0  0
  144.0002  136.8857  152.8602 C   0  0  0  0  0  0  0  0  0  0  0  0
  146.4376  137.0317  152.5547 N   0  3  0  0  0  0  0  0  0  0  0  0
  146.4633  138.4510  152.1410 C   0  0  0  0  0  0  0  0  0  0  0  0
  146.9429  139.3486  153.2906 C   0  0  1  0  0  0  0  0  0  0  0  0
  148.3936  139.0298  153.7017 C   0  0  0  0  0  0  0  0  0  0  0  0
  148.8715  140.0001  154.7881 C   0  0  0  0  0  0  0  0  0  0  0  0
  148.6563  141.4438  154.3222 C   0  0  0  0  0  0  0  0  0  0  0  0
  147.2025  141.6476  153.8673 C   0  0  0  0  0  0  0  0  0  0  0  0
  146.8735  140.7041  152.8514 O   0  0  0  0  0  0  0  0  0  0  0  0
  144.7582  133.9673  150.1235 C   0  0  0  0  0  0  0  0  0  0  0  0
  143.2784  131.5898  148.1343 H   0  0  0  0  0  0  0  0  0  0  0  0
  144.5463  132.6755  147.5971 H   0  0  0  0  0  0  0  0  0  0  0  0
  142.9044  133.2671  147.7811 H   0  0  0  0  0  0  0  0  0  0  0  0
  142.7400  131.5482  150.9163 H   0  0  0  0  0  0  0  0  0  0  0  0
  145.0022  134.5362  153.4546 H   0  0  0  0  0  0  0  0  0  0  0  0
  146.4421  134.4797  152.4639 H   0  0  0  0  0  0  0  0  0  0  0  0
  145.0876  136.4087  151.0886 H   0  0  0  0  0  0  0  0  0  0  0  0
  143.0722  136.4274  152.5174 H   0  0  0  0  0  0  0  0  0  0  0  0
  143.9237  137.9538  152.6542 H   0  0  0  0  0  0  0  0  0  0  0  0
  144.0544  136.7583  153.9419 H   0  0  0  0  0  0  0  0  0  0  0  0
  146.4874  137.0199  153.5638 H   0  0  0  0  0  0  0  0  0  0  0  0
  147.1345  138.5642  151.2897 H   0  0  0  0  0  0  0  0  0  0  0  0
  145.4702  138.7613  151.8129 H   0  0  0  0  0  0  0  0  0  0  0  0
  146.2845  139.2099  154.1503 H   0  0  0  0  0  0  0  0  0  0  0  0
  148.4693  138.0031  154.0613 H   0  0  0  0  0  0  0  0  0  0  0  0
  149.0487  139.1059  152.8325 H   0  0  0  0  0  0  0  0  0  0  0  0
  148.3141  139.8244  155.7090 H   0  0  0  0  0  0  0  0  0  0  0  0
  149.9228  139.8270  155.0193 H   0  0  0  0  0  0  0  0  0  0  0  0
  148.9030  142.1402  155.1242 H   0  0  0  0  0  0  0  0  0  0  0  0
  149.3314  141.6669  153.4949 H   0  0  0  0  0  0  0  0  0  0  0  0
  146.5138  141.5486  154.7077 H   0  0  0  0  0  0  0  0  0  0  0  0
  147.0735  142.6541  153.4685 H   0  0  0  0  0  0  0  0  0  0  0  0
  145.3638  134.6930  149.6006 H   0  0  0  0  0  0  0  0  0  0  0  0
  147.2539  136.5618  152.1901 H   0  0  0  0  0  0  0  0  0  0  0  0
  1  2  1  0  0  0  0
  1 18  1  0  0  0  0
  1 19  1  0  0  0  0
  1 20  1  0  0  0  0
  2 17  2  0  0  0  0
  2  3  1  0  0  0  0
  3  4  2  0  0  0  0
  3 21  1  0  0  0  0
  4  5  1  0  0  0  0
  5  6  1  0  0  0  0
  5 17  1  0  0  0  0
  6  7  1  0  0  0  0
  6 22  1  0  0  0  0
  6 23  1  0  0  0  0
  7  8  1  0  0  0  0
  7  9  1  0  0  0  0
  7 24  1  0  0  0  0
  8 25  1  0  0  0  0
  8 26  1  0  0  0  0
  8 27  1  0  0  0  0
  9 10  1  0  0  0  0
  9 28  1  0  0  0  0
  9 41  1  0  0  0  0
 10 11  1  0  0  0  0
 10 29  1  0  0  0  0
 10 30  1  0  0  0  0
 11 16  1  0  0  0  0
 11 12  1  0  0  0  0
 11 31  1  0  0  0  0
 12 13  1  0  0  0  0
 12 32  1  0  0  0  0
 12 33  1  0  0  0  0
 13 14  1  0  0  0  0
 13 34  1  0  0  0  0
 13 35  1  0  0  0  0
 14 15  1  0  0  0  0
 14 36  1  0  0  0  0
 14 37  1  0  0  0  0
 15 16  1  0  0  0  0
 15 38  1  0  0  0  0
 15 39  1  0  0  0  0
 17 40  1  0  0  0  0
M  CHG  1   9   1
M  END
> <s_m_source_file>
AV-unprocessed.smi

> <i_m_source_file_index>
3161

> <i_lp_mmshare_version>
43012

> <i_f3d_flags>
0

> <s_epik_input>
W0NIM11jMVtjSF1ubihbY0hdMSlbQ0gyXVtDQEhdKFtDSDNdKVtOSF1bQ0gyXVtDQEBIXTJbQ0gyXVtDSDJdW0NIMl1bQ0gyXU8y

> <s_epik_cmdline>
J2VwaWtfcHl0aG9uJywgJy1waCcsICc3LjAnLCAnLXRuJywgJzgnLCAnLW1hJywgJzIwMCcsICctbWV0YWxfYmluZGluZycsICctaW1hZScsICc8aW5maWxlLm1hZT4nLCAnLW9tYWUnLCAnPG91dGZpbGUubWFlPic=

> <r_lp_tautomer_probability>
1

> <r_epik_Ionization_Penalty>
0.00849661

> <r_epik_Ionization_Penalty_Charging>
0.00848754

> <r_epik_Ionization_Penalty_Neutral>
9.06711e-06

> <r_epik_State_Penalty>
0.00639836

> <r_epik_Charging_Adjusted_Penalty>
0.0148859

> <i_epik_Tot_Q>
1

> <i_epik_Tot_abs_Q>
1

> <r_epik_Metal_State_Penalty>
0.00639921

> <b_epik_Metal_Only>
0

> <s_lp_Force_Field>
OPLS_2005

> <r_lp_Energy>
12.4103

> <b_lp_Chiralities_Consistent>
1

> <s_lp_Variant>
AV-unprocessed.smi:3161-4

> <Gold.Version>
5.8.1

> <Gold.Id.Protein>
6NUR|6NUR_protein|mol2

> <Gold.PLP.Fitness>
43.7797

> <Gold.PLP.PLP>
-33.8427

> <Gold.PLP.part.hbond>
-1.0000

> <Gold.PLP.part.metal>
0.0000

> <Gold.PLP.part.buried>
0.2996

> <Gold.PLP.part.nonpolar>
-33.7100

> <Gold.PLP.part.repulsive>
0.4343

> <Gold.PLP.ligand.clash>
0.0000

> <Gold.PLP.ligand.torsion>
0.8528

> <Gold.PLP.Chemscore.Hbond>
2.0000

> <Gold.PLP.Chemscore.CHOScore>
1.8700

> <Gold.PLP.Chemscore.Metal>
0.0000

> <Gold.Chemscore.Hbonds>
donor molecule, donor type, donor heavy atom, donor atom, acceptor molecule, acceptor atom, score
      L1  H     9    41       P1  7948  2.00
      L1  C     3    21       P1 10952  0.68
      L1  C    17    40       P1  7921  1.00

> <Gold.PLP.Chemscore.Internal.Correction>
0.0325

> <Gold.Rescore>
     Score         DG    S(hbond)    S(metal)    S(lipo)     H(rot)  DE(clash)    DE(int)     intcor
     14.60     -15.55       0.99        0.00      92.17       1.57       0.16       0.79       ----

> <Gold.Chemscore.Fitness>
14.6039

> <Gold.Chemscore.DG>
-15.5537

> <Gold.Chemscore.ZeroCoef>
-5.4800

> <Gold.Chemscore.Hbond>
0.9917

> <Gold.Chemscore.Metal>
0.0000

> <Gold.Chemscore.Lipo>
92.1728

> <Gold.Chemscore.Internal_Hbond>
0.0000

> <Gold.Chemscore.DEClash>
0.1611

> <Gold.Chemscore.DEInternal>
0.7887

> <Gold.Chemscore.Rot>
1.5714

> <Gold.Chemscore.Internal.Correction>
   9.000000E+99

> <Gold.Chemscore.Hbonds>
donor molecule, donor type, donor heavy atom, donor atom, acceptor molecule, acceptor atom, score
      L1  H     9    41       P1  7948  1.00

> <Gold.Chemscore.Hbond.Weighted>
-3.3123

> <Gold.Chemscore.Metal.Weighted>
-0.0000

> <Gold.Chemscore.Lipo.Weighted>
-10.7842

> <Gold.Chemscore.Internal_Hbond.Weighted>
0.0000

> <Gold.Chemscore.DEClash.Weighted>
0.1611

> <Gold.Chemscore.DEInternal.Weighted>
0.7887

> <Gold.Chemscore.Rot.Weighted>
4.0228

> <Gold.Chemscore.Internal.Correction.Weighted>
   9.000000E+99

> <Gold.Protein.RotatedTorsions>
[ 6907 6896 6895 6894 ] final -175.06 input  -60.11 | X-H torsion
[ 7974 7965 7964 7962 ] final  -21.04 input  175.53 | X-H torsion
[ 8008 7997 7996 7995 ] final    4.28 input   59.86 | X-H torsion
[ 10167 10162 10161 10158 ] final  143.22 input  -65.29 | X-H torsion
[ 10718 10713 10712 10709 ] final  130.00 input   66.30 | X-H torsion
[ 10763 10752 10751 10750 ] final   92.48 input  -60.55 | X-H torsion
[ 11005 11000 10999 10996 ] final   77.24 input  -57.11 | X-H torsion

> <Gold.Protein.ActiveResidues>
 VAL166  LYS551  ARG553  GLY616  TRP617  ASP618  TYR619  PRO620  LYS621  CYS622 
 ASP623  PHE694  ASN695  SER759  ASP760  ASP761  ALA762  ILE779  LEU786  VAL792 
 PHE793  MET794  SER795  GLU796  ALA797  LYS798  CYS799  TRP800  GLU811  SER814 

> <Gold.Protein.RotatedAtoms>
  151.5825  133.3376  159.3010 H   0  0  0  0  0  0  0  0  0  0  0  0  # atno 6907 bound_to 6896
  150.8305  134.7560  159.6861 H   0  0  0  0  0  0  0  0  0  0  0  0  # atno 6908 bound_to 6896
  152.4389  134.5636  159.9953 H   0  0  0  0  0  0  0  0  0  0  0  0  # atno 6909 bound_to 6896
  146.1755  140.4285  142.8515 H   0  0  0  0  0  0  0  0  0  0  0  0  # atno 7974 bound_to 7965
  154.7140  140.2698  155.6602 H   0  0  0  0  0  0  0  0  0  0  0  0  # atno 8008 bound_to 7997
  156.2804  140.2747  156.1716 H   0  0  0  0  0  0  0  0  0  0  0  0  # atno 8009 bound_to 7997
  155.0596  140.0371  157.2562 H   0  0  0  0  0  0  0  0  0  0  0  0  # atno 8010 bound_to 7997
  139.4975  144.6055  151.6389 H   0  0  0  0  0  0  0  0  0  0  0  0  # atno 10167 bound_to 10162
  157.5102  131.1096  150.9303 H   0  0  0  0  0  0  0  0  0  0  0  0  # atno 10718 bound_to 10713
  153.2197  135.4360  155.0474 H   0  0  0  0  0  0  0  0  0  0  0  0  # atno 10763 bound_to 10752
  154.8243  135.3353  154.6946 H   0  0  0  0  0  0  0  0  0  0  0  0  # atno 10764 bound_to 10752
  153.7379  135.7006  153.5030 H   0  0  0  0  0  0  0  0  0  0  0  0  # atno 10765 bound_to 10752
  139.9263  134.7666  156.1496 H   0  0  0  0  0  0  0  0  0  0  0  0  # atno 11005 bound_to 11000
  144.8230  140.6581  143.6341 LP  0  0  0  0  0  0  0  0  0  0  0  0  # atno 17320 bound_to 7965
  145.4223  139.1562  143.4067 LP  0  0  0  0  0  0  0  0  0  0  0  0  # atno 17321 bound_to 7965
  140.5715  144.0100  150.6219 LP  0  0  0  0  0  0  0  0  0  0  0  0  # atno 17342 bound_to 10162
  140.3219  143.3131  152.0775 LP  0  0  0  0  0  0  0  0  0  0  0  0  # atno 17343 bound_to 10162
  156.9946  130.5576  149.5306 LP  0  0  0  0  0  0  0  0  0  0  0  0  # atno 17370 bound_to 10713
  156.0284  130.5377  150.8469 LP  0  0  0  0  0  0  0  0  0  0  0  0  # atno 17371 bound_to 10713
  141.0823  133.6749  156.2362 LP  0  0  0  0  0  0  0  0  0  0  0  0  # atno 17394 bound_to 11000
  140.6327  134.5247  157.5561 LP  0  0  0  0  0  0  0  0  0  0  0  0  # atno 17395 bound_to 11000

$$$$
