AV-unprocessed.smi:3270|AV-procd|sdf|12512|dock7
  -GOLD-   2272018423D 1   1.00000     0.00000
 Structure written by MMmdl.
 38 39  0  0  0  0  0  0  0  0  1 V2000
  152.2367  144.9314  158.8102 C   0  0  0  0  0  0  0  0  0  0  0  0
  152.2804  143.3892  158.8064 C   0  0  2  0  0  0  0  0  0  0  0  0
  150.9292  142.7573  158.4356 C   0  0  0  0  0  0  0  0  0  0  0  0
  149.9609  142.8542  159.1906 O   0  0  0  0  0  0  0  0  0  0  0  0
  150.8794  142.1085  157.2612 N   0  0  0  0  0  0  0  0  0  0  0  0
  149.7077  141.4230  156.7304 C   0  0  0  0  0  0  0  0  0  0  0  0
  149.6674  139.9489  157.1755 C   0  0  0  0  0  0  0  0  0  0  0  0
  149.9725  138.9791  156.1247 N   0  0  0  0  0  0  0  0  0  0  0  0
  151.3078  139.2029  155.5801 C   0  0  0  0  0  0  0  0  0  0  0  0
  151.6554  138.1940  154.4719 C   0  0  0  0  0  0  0  0  0  0  0  0
  151.5338  136.8694  154.9791 O   0  0  0  0  0  0  0  0  0  0  0  0
  150.2297  136.5918  155.4783 C   0  0  0  0  0  0  0  0  0  0  0  0
  149.8748  137.5967  156.5886 C   0  0  0  0  0  0  0  0  0  0  0  0
  152.7626  142.8446  160.0708 N   0  0  0  0  0  0  0  0  0  0  0  0
  153.7971  141.9525  160.2697 C   0  0  0  0  0  0  0  0  0  0  0  0
  153.8647  141.6921  161.6082 C   0  0  0  0  0  0  0  0  0  0  0  0
  152.8082  142.4701  162.1570 C   0  0  0  0  0  0  0  0  0  0  0  0
  152.1458  143.1504  161.2363 N   0  0  0  0  0  0  0  0  0  0  0  0
  151.9265  145.3176  157.8388 H   0  0  0  0  0  0  0  0  0  0  0  0
  153.2215  145.3466  159.0261 H   0  0  0  0  0  0  0  0  0  0  0  0
  151.5433  145.3222  159.5565 H   0  0  0  0  0  0  0  0  0  0  0  0
  152.9969  143.0935  158.0380 H   0  0  0  0  0  0  0  0  0  0  0  0
  151.7184  142.0767  156.7006 H   0  0  0  0  0  0  0  0  0  0  0  0
  148.8314  141.9610  157.0900 H   0  0  0  0  0  0  0  0  0  0  0  0
  149.6937  141.4943  155.6415 H   0  0  0  0  0  0  0  0  0  0  0  0
  150.3909  139.8236  157.9822 H   0  0  0  0  0  0  0  0  0  0  0  0
  148.6927  139.7249  157.6116 H   0  0  0  0  0  0  0  0  0  0  0  0
  151.3787  140.2145  155.1788 H   0  0  0  0  0  0  0  0  0  0  0  0
  152.0496  139.1309  156.3771 H   0  0  0  0  0  0  0  0  0  0  0  0
  150.9985  138.3240  153.6106 H   0  0  0  0  0  0  0  0  0  0  0  0
  152.6763  138.3501  154.1231 H   0  0  0  0  0  0  0  0  0  0  0  0
  149.5036  136.6426  154.6655 H   0  0  0  0  0  0  0  0  0  0  0  0
  150.2055  135.5736  155.8665 H   0  0  0  0  0  0  0  0  0  0  0  0
  150.5400  137.4437  157.4400 H   0  0  0  0  0  0  0  0  0  0  0  0
  148.8651  137.3839  156.9375 H   0  0  0  0  0  0  0  0  0  0  0  0
  154.3933  141.5802  159.4499 H   0  0  0  0  0  0  0  0  0  0  0  0
  154.5599  141.0412  162.1175 H   0  0  0  0  0  0  0  0  0  0  0  0
  152.5021  142.5565  163.1889 H   0  0  0  0  0  0  0  0  0  0  0  0
  1  2  1  0  0  0  0
  1 19  1  0  0  0  0
  1 20  1  0  0  0  0
  1 21  1  0  0  0  0
  2  3  1  0  0  0  0
  2 14  1  0  0  0  0
  2 22  1  0  0  0  0
  3  4  2  0  0  0  0
  3  5  1  0  0  0  0
  5  6  1  0  0  0  0
  5 23  1  0  0  0  0
  6  7  1  0  0  0  0
  6 24  1  0  0  0  0
  6 25  1  0  0  0  0
  7  8  1  0  0  0  0
  7 26  1  0  0  0  0
  7 27  1  0  0  0  0
  8 13  1  0  0  0  0
  8  9  1  0  0  0  0
  9 10  1  0  0  0  0
  9 28  1  0  0  0  0
  9 29  1  0  0  0  0
 10 11  1  0  0  0  0
 10 30  1  0  0  0  0
 10 31  1  0  0  0  0
 11 12  1  0  0  0  0
 12 13  1  0  0  0  0
 12 32  1  0  0  0  0
 12 33  1  0  0  0  0
 13 34  1  0  0  0  0
 13 35  1  0  0  0  0
 14 18  1  0  0  0  0
 14 15  1  0  0  0  0
 15 16  2  0  0  0  0
 15 36  1  0  0  0  0
 16 17  1  0  0  0  0
 16 37  1  0  0  0  0
 17 18  2  0  0  0  0
 17 38  1  0  0  0  0
M  END
> <s_m_source_file>
AV-unprocessed.smi

> <i_m_source_file_index>
3270

> <i_lp_mmshare_version>
43012

> <i_f3d_flags>
0

> <s_epik_input>
bjFbY0hdW2NIXVtjSF1uMVtDQEhdKFtDSDNdKUMoPU8pW05IXVtDSDJdW0NIMl1OMltDSDJdW0NIMl1PW0NIMl1bQ0gyXTI=

> <s_epik_cmdline>
J2VwaWtfcHl0aG9uJywgJy1waCcsICc3LjAnLCAnLXRuJywgJzgnLCAnLW1hJywgJzIwMCcsICctbWV0YWxfYmluZGluZycsICctaW1hZScsICc8aW5maWxlLm1hZT4nLCAnLW9tYWUnLCAnPG91dGZpbGUubWFlPic=

> <r_lp_tautomer_probability>
1

> <r_epik_Ionization_Penalty>
0.203323

> <r_epik_Ionization_Penalty_Charging>
0

> <r_epik_Ionization_Penalty_Neutral>
0.203323

> <r_epik_State_Penalty>
0.193192

> <r_epik_Charging_Adjusted_Penalty>
0.193192

> <i_epik_Tot_Q>
0

> <i_epik_Tot_abs_Q>
0

> <r_epik_Metal_State_Penalty>
0.193187

> <b_epik_Metal_Only>
0

> <s_lp_Force_Field>
OPLS_2005

> <r_lp_Energy>
25.3297

> <b_lp_Chiralities_Consistent>
1

> <s_lp_Variant>
AV-unprocessed.smi:3270-1

> <Gold.Version>
5.8.1

> <Gold.Id.Protein>
6NUR|6NUR_protein|mol2

> <Gold.PLP.Fitness>
43.3981

> <Gold.PLP.PLP>
-41.7694

> <Gold.PLP.part.hbond>
-1.7549

> <Gold.PLP.part.metal>
0.0000

> <Gold.PLP.part.buried>
-6.8126

> <Gold.PLP.part.nonpolar>
-33.7367

> <Gold.PLP.part.repulsive>
0.3727

> <Gold.PLP.ligand.clash>
0.0000

> <Gold.PLP.ligand.torsion>
0.7317

> <Gold.PLP.Chemscore.Hbond>
0.9920

> <Gold.PLP.Chemscore.CHOScore>
0.0000

> <Gold.PLP.Chemscore.Metal>
0.0000

> <Gold.Chemscore.Hbonds>
donor molecule, donor type, donor heavy atom, donor atom, acceptor molecule, acceptor atom, score
      P1  H 10752 10764       L1    11  1.00

> <Gold.PLP.Chemscore.Internal.Correction>
0.1162

> <Gold.Rescore>
     Score         DG    S(hbond)    S(metal)    S(lipo)     H(rot)  DE(clash)    DE(int)     intcor
     13.51     -14.93       0.96        0.00      93.36       1.83       0.00       1.42       ----

> <Gold.Chemscore.Fitness>
13.5083

> <Gold.Chemscore.DG>
-14.9284

> <Gold.Chemscore.ZeroCoef>
-5.4800

> <Gold.Chemscore.Hbond>
0.9601

> <Gold.Chemscore.Metal>
0.0000

> <Gold.Chemscore.Lipo>
93.3647

> <Gold.Chemscore.Internal_Hbond>
0.0000

> <Gold.Chemscore.DEClash>
0.0000

> <Gold.Chemscore.DEInternal>
1.4201

> <Gold.Chemscore.Rot>
1.8290

> <Gold.Chemscore.Internal.Correction>
   9.000000E+99

> <Gold.Chemscore.Hbonds>
donor molecule, donor type, donor heavy atom, donor atom, acceptor molecule, acceptor atom, score
      P1  H 10752 10764       L1    11  0.92

> <Gold.Chemscore.Hbond.Weighted>
-3.2069

> <Gold.Chemscore.Metal.Weighted>
-0.0000

> <Gold.Chemscore.Lipo.Weighted>
-10.9237

> <Gold.Chemscore.Internal_Hbond.Weighted>
0.0000

> <Gold.Chemscore.DEClash.Weighted>
0.0000

> <Gold.Chemscore.DEInternal.Weighted>
1.4201

> <Gold.Chemscore.Rot.Weighted>
4.6821

> <Gold.Chemscore.Internal.Correction.Weighted>
   9.000000E+99

> <Gold.Protein.RotatedTorsions>
[ 6907 6896 6895 6894 ] final   -8.71 input  -60.11 | X-H torsion
[ 7974 7965 7964 7962 ] final -147.97 input  175.53 | X-H torsion
[ 8008 7997 7996 7995 ] final  114.98 input   59.86 | X-H torsion
[ 10167 10162 10161 10158 ] final   92.50 input  -65.29 | X-H torsion
[ 10718 10713 10712 10709 ] final  173.05 input   66.30 | X-H torsion
[ 10763 10752 10751 10750 ] final  -68.01 input  -60.55 | X-H torsion
[ 11005 11000 10999 10996 ] final -114.16 input  -57.11 | X-H torsion

> <Gold.Protein.ActiveResidues>
 VAL166  LYS551  ARG553  GLY616  TRP617  ASP618  TYR619  PRO620  LYS621  CYS622 
 ASP623  PHE694  ASN695  SER759  ASP760  ASP761  ALA762  ILE779  LEU786  VAL792 
 PHE793  MET794  SER795  GLU796  ALA797  LYS798  CYS799  TRP800  GLU811  SER814 

> <Gold.Protein.RotatedAtoms>
  151.4292  135.1007  159.9637 H   0  0  0  0  0  0  0  0  0  0  0  0  # atno 6907 bound_to 6896
  152.4962  133.8633  159.7272 H   0  0  0  0  0  0  0  0  0  0  0  0  # atno 6908 bound_to 6896
  150.9167  133.6872  159.2869 H   0  0  0  0  0  0  0  0  0  0  0  0  # atno 6909 bound_to 6896
  144.8059  140.5257  143.5675 H   0  0  0  0  0  0  0  0  0  0  0  0  # atno 7974 bound_to 7965
  156.2354  140.2948  156.0299 H   0  0  0  0  0  0  0  0  0  0  0  0  # atno 8008 bound_to 7997
  155.2106  140.0412  157.2950 H   0  0  0  0  0  0  0  0  0  0  0  0  # atno 8009 bound_to 7997
  154.6070  140.2442  155.7726 H   0  0  0  0  0  0  0  0  0  0  0  0  # atno 8010 bound_to 7997
  139.8270  144.6705  150.9447 H   0  0  0  0  0  0  0  0  0  0  0  0  # atno 10167 bound_to 10162
  156.9699  131.0087  151.2907 H   0  0  0  0  0  0  0  0  0  0  0  0  # atno 10718 bound_to 10713
  154.3828  135.6070  153.5800 H   0  0  0  0  0  0  0  0  0  0  0  0  # atno 10763 bound_to 10752
  152.9788  135.5865  154.4389 H   0  0  0  0  0  0  0  0  0  0  0  0  # atno 10764 bound_to 10752
  154.4161  135.2845  155.1983 H   0  0  0  0  0  0  0  0  0  0  0  0  # atno 10765 bound_to 10752
  141.0569  133.9598  157.2738 H   0  0  0  0  0  0  0  0  0  0  0  0  # atno 11005 bound_to 11000
  145.5440  139.1475  143.3431 LP  0  0  0  0  0  0  0  0  0  0  0  0  # atno 17320 bound_to 7965
  146.2350  140.5579  142.8959 LP  0  0  0  0  0  0  0  0  0  0  0  0  # atno 17321 bound_to 7965
  140.7809  143.4037  151.1107 LP  0  0  0  0  0  0  0  0  0  0  0  0  # atno 17342 bound_to 10162
  139.7693  143.8518  152.3117 LP  0  0  0  0  0  0  0  0  0  0  0  0  # atno 17343 bound_to 10162
  157.5599  130.8239  149.8253 LP  0  0  0  0  0  0  0  0  0  0  0  0  # atno 17370 bound_to 10713
  156.0287  130.3771  150.1749 LP  0  0  0  0  0  0  0  0  0  0  0  0  # atno 17371 bound_to 10713
  139.9398  135.0192  156.8671 LP  0  0  0  0  0  0  0  0  0  0  0  0  # atno 17394 bound_to 11000
  140.5946  134.0229  155.7513 LP  0  0  0  0  0  0  0  0  0  0  0  0  # atno 17395 bound_to 11000

$$$$
