AV-unprocessed.smi:1768|AV-procd|sdf|7143|dock7
  -GOLD-   22720 8383D 1   1.00000     0.00000
 Structure written by MMmdl.
 33 34  0  0  0  0  0  0  0  0  1 V2000
  146.5436  138.5429  152.3528 C   0  0  0  0  0  0  0  0  0  0  0  0
  146.9796  139.7170  153.1610 C   0  0  0  0  0  0  0  0  0  0  0  0
  146.3047  140.8727  153.1845 N   0  0  0  0  0  0  0  0  0  0  0  0
  146.9044  141.8159  154.0076 N   0  0  0  0  0  0  0  0  0  0  0  0
  148.0187  141.3418  154.5816 C   0  0  0  0  0  0  0  0  0  0  0  0
  148.8319  142.0946  155.4696 N   0  0  0  0  0  0  0  0  0  0  0  0
  149.9347  141.6988  156.1290 C   0  0  0  0  0  0  0  0  0  0  0  0
  150.4435  140.5800  156.0570 O   0  0  0  0  0  0  0  0  0  0  0  0
  150.4276  142.6929  156.8829 N   0  0  0  0  0  0  0  0  0  0  0  0
  151.6186  142.6207  157.7282 C   0  0  2  0  0  0  0  0  0  0  0  0
  151.4954  141.4000  158.6518 C   0  0  0  0  0  0  0  0  0  0  0  0
  151.7907  143.9294  158.5266 C   0  0  2  0  0  0  0  0  0  0  0  0
  152.5805  143.7927  159.8304 C   0  0  0  0  0  0  0  0  0  0  0  0
  152.0750  144.9779  160.6195 C   0  0  0  0  0  0  0  0  0  0  0  0
  150.5976  144.9931  160.2416 C   0  0  0  0  0  0  0  0  0  0  0  0
  150.5221  144.4432  158.9286 O   0  0  0  0  0  0  0  0  0  0  0  0
  148.4296  139.6887  154.1568 S   0  0  0  0  0  0  0  0  0  0  0  0
  145.5225  138.6801  151.9952 H   0  0  0  0  0  0  0  0  0  0  0  0
  146.5812  137.6374  152.9588 H   0  0  0  0  0  0  0  0  0  0  0  0
  147.2021  138.4179  151.4933 H   0  0  0  0  0  0  0  0  0  0  0  0
  148.5385  143.0484  155.6204 H   0  0  0  0  0  0  0  0  0  0  0  0
  149.9398  143.5765  156.8730 H   0  0  0  0  0  0  0  0  0  0  0  0
  152.5067  142.4770  157.1100 H   0  0  0  0  0  0  0  0  0  0  0  0
  152.3836  141.2850  159.2735 H   0  0  0  0  0  0  0  0  0  0  0  0
  151.3796  140.4811  158.0758 H   0  0  0  0  0  0  0  0  0  0  0  0
  150.6345  141.4887  159.3152 H   0  0  0  0  0  0  0  0  0  0  0  0
  152.2697  144.6874  157.9041 H   0  0  0  0  0  0  0  0  0  0  0  0
  152.3199  142.8658  160.3438 H   0  0  0  0  0  0  0  0  0  0  0  0
  153.6604  143.8093  159.6802 H   0  0  0  0  0  0  0  0  0  0  0  0
  152.2406  144.8842  161.6929 H   0  0  0  0  0  0  0  0  0  0  0  0
  152.5618  145.8913  160.2750 H   0  0  0  0  0  0  0  0  0  0  0  0
  150.0251  144.3552  160.9159 H   0  0  0  0  0  0  0  0  0  0  0  0
  150.1701  145.9953  160.2791 H   0  0  0  0  0  0  0  0  0  0  0  0
  1  2  1  0  0  0  0
  1 18  1  0  0  0  0
  1 19  1  0  0  0  0
  1 20  1  0  0  0  0
  2 17  1  0  0  0  0
  2  3  2  0  0  0  0
  3  4  1  0  0  0  0
  4  5  2  0  0  0  0
  5  6  1  0  0  0  0
  5 17  1  0  0  0  0
  6  7  1  0  0  0  0
  6 21  1  0  0  0  0
  7  8  2  0  0  0  0
  7  9  1  0  0  0  0
  9 10  1  0  0  0  0
  9 22  1  0  0  0  0
 10 11  1  0  0  0  0
 10 12  1  0  0  0  0
 10 23  1  0  0  0  0
 11 24  1  0  0  0  0
 11 25  1  0  0  0  0
 11 26  1  0  0  0  0
 12 16  1  0  0  0  0
 12 13  1  0  0  0  0
 12 27  1  0  0  0  0
 13 14  1  0  0  0  0
 13 28  1  0  0  0  0
 13 29  1  0  0  0  0
 14 15  1  0  0  0  0
 14 30  1  0  0  0  0
 14 31  1  0  0  0  0
 15 16  1  0  0  0  0
 15 32  1  0  0  0  0
 15 33  1  0  0  0  0
M  END
> <s_m_source_file>
AV-unprocessed.smi

> <i_m_source_file_index>
1768

> <i_lp_mmshare_version>
43012

> <i_f3d_flags>
0

> <s_epik_input>
W0NIM11jMW5uYyhzMSlbTkhdQyg9TylbTkhdW0NASF0oW0NIM10pW0NAQEhdMltDSDJdW0NIMl1bQ0gyXU8y

> <s_epik_cmdline>
J2VwaWtfcHl0aG9uJywgJy1waCcsICc3LjAnLCAnLXRuJywgJzgnLCAnLW1hJywgJzIwMCcsICctbWV0YWxfYmluZGluZycsICctaW1hZScsICc8aW5maWxlLm1hZT4nLCAnLW9tYWUnLCAnPG91dGZpbGUubWFlPic=

> <r_lp_tautomer_probability>
1

> <r_epik_Ionization_Penalty>
0.000523083

> <r_epik_Ionization_Penalty_Charging>
0

> <r_epik_Ionization_Penalty_Neutral>
0.000523083

> <r_epik_State_Penalty>
-0

> <r_epik_Charging_Adjusted_Penalty>
0

> <i_epik_Tot_Q>
0

> <i_epik_Tot_abs_Q>
0

> <r_epik_Metal_State_Penalty>
0.223408

> <b_epik_Metal_Only>
0

> <s_lp_Force_Field>
OPLS_2005

> <r_lp_Energy>
16.8922

> <b_lp_Chiralities_Consistent>
1

> <s_lp_Variant>
AV-unprocessed.smi:1768-1

> <Gold.Version>
5.8.1

> <Gold.Id.Protein>
6NUR|6NUR_protein|mol2

> <Gold.PLP.Fitness>
37.1232

> <Gold.PLP.PLP>
-32.5548

> <Gold.PLP.part.hbond>
-2.0000

> <Gold.PLP.part.metal>
0.0000

> <Gold.PLP.part.buried>
-4.5245

> <Gold.PLP.part.nonpolar>
-27.8864

> <Gold.PLP.part.repulsive>
2.2264

> <Gold.PLP.ligand.clash>
0.0000

> <Gold.PLP.ligand.torsion>
0.5877

> <Gold.PLP.Chemscore.Hbond>
1.9120

> <Gold.PLP.Chemscore.CHOScore>
0.0000

> <Gold.PLP.Chemscore.Metal>
0.0000

> <Gold.Chemscore.Hbonds>
donor molecule, donor type, donor heavy atom, donor atom, acceptor molecule, acceptor atom, score
      L1  H     6    21       P1  8028  1.00
      L1  H     9    22       P1  8028  0.83

> <Gold.PLP.Chemscore.Internal.Correction>
0.0077

> <Gold.Rescore>
     Score         DG    S(hbond)    S(metal)    S(lipo)     H(rot)  DE(clash)    DE(int)     intcor
     13.80     -18.48       1.87        0.00      85.98       1.29       1.52       3.15       ----

> <Gold.Chemscore.Fitness>
13.8021

> <Gold.Chemscore.DG>
-18.4795

> <Gold.Chemscore.ZeroCoef>
-5.4800

> <Gold.Chemscore.Hbond>
1.8703

> <Gold.Chemscore.Metal>
0.0000

> <Gold.Chemscore.Lipo>
85.9834

> <Gold.Chemscore.Internal_Hbond>
0.0000

> <Gold.Chemscore.DEClash>
1.5225

> <Gold.Chemscore.DEInternal>
3.1549

> <Gold.Chemscore.Rot>
1.2919

> <Gold.Chemscore.Internal.Correction>
   9.000000E+99

> <Gold.Chemscore.Hbonds>
donor molecule, donor type, donor heavy atom, donor atom, acceptor molecule, acceptor atom, score
      L1  H     6    21       P1  8028  0.95
      L1  H     9    22       P1  8028  0.80

> <Gold.Chemscore.Hbond.Weighted>
-6.2466

> <Gold.Chemscore.Metal.Weighted>
-0.0000

> <Gold.Chemscore.Lipo.Weighted>
-10.0601

> <Gold.Chemscore.Internal_Hbond.Weighted>
0.0000

> <Gold.Chemscore.DEClash.Weighted>
1.5225

> <Gold.Chemscore.DEInternal.Weighted>
3.1549

> <Gold.Chemscore.Rot.Weighted>
3.3072

> <Gold.Chemscore.Internal.Correction.Weighted>
   9.000000E+99

> <Gold.Protein.RotatedTorsions>
[ 6907 6896 6895 6894 ] final   75.23 input  -60.11 | X-H torsion
[ 7974 7965 7964 7962 ] final  141.60 input  175.53 | X-H torsion
[ 8008 7997 7996 7995 ] final  -60.49 input   59.86 | X-H torsion
[ 10167 10162 10161 10158 ] final  -92.22 input  -65.29 | X-H torsion
[ 10718 10713 10712 10709 ] final   36.82 input   66.30 | X-H torsion
[ 10763 10752 10751 10750 ] final  -16.69 input  -60.55 | X-H torsion
[ 11005 11000 10999 10996 ] final   10.38 input  -57.11 | X-H torsion

> <Gold.Protein.ActiveResidues>
 VAL166  LYS551  ARG553  GLY616  TRP617  ASP618  TYR619  PRO620  LYS621  CYS622 
 ASP623  PHE694  ASN695  SER759  ASP760  ASP761  ALA762  ILE779  LEU786  VAL792 
 PHE793  MET794  SER795  GLU796  ALA797  LYS798  CYS799  TRP800  GLU811  SER814 

> <Gold.Protein.RotatedAtoms>
  152.5015  134.4152  159.9461 H   0  0  0  0  0  0  0  0  0  0  0  0  # atno 6907 bound_to 6896
  151.4122  133.3718  159.2753 H   0  0  0  0  0  0  0  0  0  0  0  0  # atno 6908 bound_to 6896
  150.9283  134.8721  159.7594 H   0  0  0  0  0  0  0  0  0  0  0  0  # atno 6909 bound_to 6896
  144.9082  139.5329  143.5721 H   0  0  0  0  0  0  0  0  0  0  0  0  # atno 7974 bound_to 7965
  154.4401  140.1038  156.6282 H   0  0  0  0  0  0  0  0  0  0  0  0  # atno 8008 bound_to 7997
  155.5633  140.3488  155.4478 H   0  0  0  0  0  0  0  0  0  0  0  0  # atno 8009 bound_to 7997
  156.0444  140.1289  157.0110 H   0  0  0  0  0  0  0  0  0  0  0  0  # atno 8010 bound_to 7997
  140.3370  143.2963  151.9878 H   0  0  0  0  0  0  0  0  0  0  0  0  # atno 10167 bound_to 10162
  157.3395  130.7540  149.6902 H   0  0  0  0  0  0  0  0  0  0  0  0  # atno 10718 bound_to 10713
  153.5623  135.7009  153.5541 H   0  0  0  0  0  0  0  0  0  0  0  0  # atno 10763 bound_to 10752
  153.3418  135.4019  155.1577 H   0  0  0  0  0  0  0  0  0  0  0  0  # atno 10764 bound_to 10752
  154.8646  135.3744  154.5141 H   0  0  0  0  0  0  0  0  0  0  0  0  # atno 10765 bound_to 10752
  140.5151  134.0614  155.7829 H   0  0  0  0  0  0  0  0  0  0  0  0  # atno 11005 bound_to 11000
  146.3144  139.7866  142.8994 LP  0  0  0  0  0  0  0  0  0  0  0  0  # atno 17320 bound_to 7965
  145.3500  141.0305  143.3344 LP  0  0  0  0  0  0  0  0  0  0  0  0  # atno 17321 bound_to 7965
  139.4847  144.6188  151.7294 LP  0  0  0  0  0  0  0  0  0  0  0  0  # atno 17342 bound_to 10162
  140.5344  144.0678  150.6065 LP  0  0  0  0  0  0  0  0  0  0  0  0  # atno 17343 bound_to 10162
  155.9706  130.4172  150.4267 LP  0  0  0  0  0  0  0  0  0  0  0  0  # atno 17370 bound_to 10713
  157.2312  131.0504  151.2491 LP  0  0  0  0  0  0  0  0  0  0  0  0  # atno 17371 bound_to 10713
  141.1364  133.9213  157.2423 LP  0  0  0  0  0  0  0  0  0  0  0  0  # atno 17394 bound_to 11000
  139.9637  135.0147  156.9329 LP  0  0  0  0  0  0  0  0  0  0  0  0  # atno 17395 bound_to 11000

$$$$
