AV-unprocessed.smi:560|AV-procd|sdf|2929|dock10
  -GOLD-   2262023423D 1   1.00000     0.00000
 Structure written by MMmdl.
 42 43  0  0  0  0  0  0  0  0  2 V2000
  147.8633  139.3016  153.7860 C   0  0  0  0  0  0  0  0  0  0  0  0
  148.9826  140.1061  154.4781 C   0  0  1  0  0  0  0  0  0  0  0  0
  148.5871  140.6068  155.8779 C   0  0  0  0  0  0  0  0  0  0  0  0
  147.5532  140.2158  156.4212 O   0  0  0  0  0  0  0  0  0  0  0  0
  149.4241  141.4862  156.4520 N   0  0  0  0  0  0  0  0  0  0  0  0
  149.2542  142.0673  157.7797 C   0  0  2  0  0  0  0  0  0  0  0  0
  147.8210  142.5975  157.9700 C   0  0  0  0  0  0  0  0  0  0  0  0
  147.6657  143.3099  159.3241 C   0  0  0  0  0  0  0  0  0  0  0  0
  148.6543  144.4088  159.4682 N   0  3  1  0  0  0  0  0  0  0  0  0
  148.4384  145.2096  160.7007 C   0  0  0  0  0  0  0  0  0  0  0  0
  146.9695  145.5874  160.9193 C   0  0  0  0  0  0  0  0  0  0  0  0
  146.6714  146.8882  160.8900 N   0  0  0  0  0  0  0  0  0  0  0  0
  146.1181  144.7241  161.1262 O   0  0  0  0  0  0  0  0  0  0  0  0
  150.0489  143.9084  159.3326 C   0  0  0  0  0  0  0  0  0  0  0  0
  150.2582  143.2144  157.9767 C   0  0  0  0  0  0  0  0  0  0  0  0
  150.2342  139.3586  154.5350 N   0  0  0  0  0  0  0  0  0  0  0  0
  150.4444  138.0297  154.2259 C   0  0  0  0  0  0  0  0  0  0  0  0
  151.7749  137.7738  154.3949 C   0  0  0  0  0  0  0  0  0  0  0  0
  152.3100  139.0259  154.8065 C   0  0  0  0  0  0  0  0  0  0  0  0
  151.3893  139.9727  154.8820 N   0  0  0  0  0  0  0  0  0  0  0  0
  146.9542  139.8961  153.6876 H   0  0  0  0  0  0  0  0  0  0  0  0
  147.6084  138.3958  154.3379 H   0  0  0  0  0  0  0  0  0  0  0  0
  148.1658  139.0014  152.7825 H   0  0  0  0  0  0  0  0  0  0  0  0
  149.1654  140.9915  153.8672 H   0  0  0  0  0  0  0  0  0  0  0  0
  150.2499  141.7551  155.9369 H   0  0  0  0  0  0  0  0  0  0  0  0
  149.4560  141.3024  158.5324 H   0  0  0  0  0  0  0  0  0  0  0  0
  147.5723  143.2913  157.1655 H   0  0  0  0  0  0  0  0  0  0  0  0
  147.1027  141.7793  157.9043 H   0  0  0  0  0  0  0  0  0  0  0  0
  146.6543  143.7110  159.4014 H   0  0  0  0  0  0  0  0  0  0  0  0
  147.7887  142.5978  160.1419 H   0  0  0  0  0  0  0  0  0  0  0  0
  148.7430  144.6298  161.5732 H   0  0  0  0  0  0  0  0  0  0  0  0
  149.0660  146.1025  160.6829 H   0  0  0  0  0  0  0  0  0  0  0  0
  145.7185  147.1953  161.0231 H   0  0  0  0  0  0  0  0  0  0  0  0
  147.4035  147.5655  160.7289 H   0  0  0  0  0  0  0  0  0  0  0  0
  150.7559  144.7336  159.4228 H   0  0  0  0  0  0  0  0  0  0  0  0
  150.2694  143.2154  160.1462 H   0  0  0  0  0  0  0  0  0  0  0  0
  151.2785  142.8335  157.9118 H   0  0  0  0  0  0  0  0  0  0  0  0
  150.1498  143.9473  157.1754 H   0  0  0  0  0  0  0  0  0  0  0  0
  149.6377  137.3824  153.9148 H   0  0  0  0  0  0  0  0  0  0  0  0
  152.2885  136.8356  154.2454 H   0  0  0  0  0  0  0  0  0  0  0  0
  153.3332  139.2745  155.0471 H   0  0  0  0  0  0  0  0  0  0  0  0
  148.4919  145.0395  158.6958 H   0  0  0  0  0  0  0  0  0  0  0  0
  1  2  1  0  0  0  0
  1 21  1  0  0  0  0
  1 22  1  0  0  0  0
  1 23  1  0  0  0  0
  2  3  1  0  0  0  0
  2 16  1  0  0  0  0
  2 24  1  0  0  0  0
  3  4  2  0  0  0  0
  3  5  1  0  0  0  0
  5  6  1  0  0  0  0
  5 25  1  0  0  0  0
  6 15  1  0  0  0  0
  6  7  1  0  0  0  0
  6 26  1  0  0  0  0
  7  8  1  0  0  0  0
  7 27  1  0  0  0  0
  7 28  1  0  0  0  0
  8  9  1  0  0  0  0
  8 29  1  0  0  0  0
  8 30  1  0  0  0  0
  9 10  1  0  0  0  0
  9 14  1  0  0  0  0
  9 42  1  0  0  0  0
 10 11  1  0  0  0  0
 10 31  1  0  0  0  0
 10 32  1  0  0  0  0
 11 12  1  0  0  0  0
 11 13  2  0  0  0  0
 12 33  1  0  0  0  0
 12 34  1  0  0  0  0
 14 15  1  0  0  0  0
 14 35  1  0  0  0  0
 14 36  1  0  0  0  0
 15 37  1  0  0  0  0
 15 38  1  0  0  0  0
 16 20  1  0  0  0  0
 16 17  1  0  0  0  0
 17 18  2  0  0  0  0
 17 39  1  0  0  0  0
 18 19  1  0  0  0  0
 18 40  1  0  0  0  0
 19 20  2  0  0  0  0
 19 41  1  0  0  0  0
M  CHG  1   9   1
M  END
> <s_m_source_file>
AV-unprocessed.smi

> <i_m_source_file_index>
560

> <i_lp_mmshare_version>
43012

> <i_f3d_flags>
0

> <s_epik_input>
bjFbY0hdW2NIXVtjSF1uMVtDQEhdKFtDSDNdKUMoPU8pW05IXVtDSF0yW0NIMl1bQ0gyXU4oW0NIMl1bQ0gyXTIpW0NIMl1DKD1PKVtOSDJd

> <s_epik_cmdline>
J2VwaWtfcHl0aG9uJywgJy1waCcsICc3LjAnLCAnLXRuJywgJzgnLCAnLW1hJywgJzIwMCcsICctbWV0YWxfYmluZGluZycsICctaW1hZScsICc8aW5maWxlLm1hZT4nLCAnLW9tYWUnLCAnPG91dGZpbGUubWFlPic=

> <r_lp_tautomer_probability>
1

> <r_epik_Ionization_Penalty>
1.02943

> <r_epik_Ionization_Penalty_Charging>
1.02936

> <r_epik_Ionization_Penalty_Neutral>
7.4537e-05

> <r_epik_State_Penalty>
1.08036

> <r_epik_Charging_Adjusted_Penalty>
2.10972

> <i_epik_Tot_Q>
1

> <i_epik_Tot_abs_Q>
1

> <r_epik_Metal_State_Penalty>
1.09347

> <b_epik_Metal_Only>
0

> <s_lp_Force_Field>
OPLS_2005

> <r_lp_Energy>
15.5023

> <b_lp_Chiralities_Consistent>
1

> <s_lp_Variant>
AV-unprocessed.smi:560-4

> <Gold.Version>
5.8.1

> <Gold.Id.Protein>
6NUR|6NUR_protein|mol2

> <Gold.PLP.Fitness>
44.6426

> <Gold.PLP.PLP>
-33.3463

> <Gold.PLP.part.hbond>
-3.6732

> <Gold.PLP.part.metal>
0.0000

> <Gold.PLP.part.buried>
-4.6718

> <Gold.PLP.part.nonpolar>
-26.6359

> <Gold.PLP.part.repulsive>
0.5907

> <Gold.PLP.ligand.clash>
0.0000

> <Gold.PLP.ligand.torsion>
0.4234

> <Gold.PLP.Chemscore.Hbond>
3.0000

> <Gold.PLP.Chemscore.CHOScore>
1.0000

> <Gold.PLP.Chemscore.Metal>
0.0000

> <Gold.Chemscore.Hbonds>
donor molecule, donor type, donor heavy atom, donor atom, acceptor molecule, acceptor atom, score
      L1  H     9    42       P1  8029  2.00
      P1  H  7989  7998       L1    20  1.00
      L1  C    17    39       P1  7948  1.00

> <Gold.PLP.Chemscore.Internal.Correction>
0.1431

> <Gold.Rescore>
     Score         DG    S(hbond)    S(metal)    S(lipo)     H(rot)  DE(clash)    DE(int)     intcor
      5.48      -9.80       1.06        0.00      61.95       2.52       0.11       4.21       ----

> <Gold.Chemscore.Fitness>
5.4762

> <Gold.Chemscore.DG>
-9.7954

> <Gold.Chemscore.ZeroCoef>
-5.4800

> <Gold.Chemscore.Hbond>
1.0567

> <Gold.Chemscore.Metal>
0.0000

> <Gold.Chemscore.Lipo>
61.9516

> <Gold.Chemscore.Internal_Hbond>
0.0000

> <Gold.Chemscore.DEClash>
0.1130

> <Gold.Chemscore.DEInternal>
4.2062

> <Gold.Chemscore.Rot>
2.5243

> <Gold.Chemscore.Internal.Correction>
   9.000000E+99

> <Gold.Chemscore.Hbonds>
donor molecule, donor type, donor heavy atom, donor atom, acceptor molecule, acceptor atom, score
      L1  H     9    42       P1  8029  1.00
      P1  H  7989  7998       L1    20  0.10

> <Gold.Chemscore.Hbond.Weighted>
-3.5293

> <Gold.Chemscore.Metal.Weighted>
-0.0000

> <Gold.Chemscore.Lipo.Weighted>
-7.2483

> <Gold.Chemscore.Internal_Hbond.Weighted>
0.0000

> <Gold.Chemscore.DEClash.Weighted>
0.1130

> <Gold.Chemscore.DEInternal.Weighted>
4.2062

> <Gold.Chemscore.Rot.Weighted>
6.4622

> <Gold.Chemscore.Internal.Correction.Weighted>
   9.000000E+99

> <Gold.Protein.RotatedTorsions>
[ 6907 6896 6895 6894 ] final  -42.65 input  -60.11 | X-H torsion
[ 7974 7965 7964 7962 ] final   38.59 input  175.53 | X-H torsion
[ 8008 7997 7996 7995 ] final  172.34 input   59.86 | X-H torsion
[ 10167 10162 10161 10158 ] final  145.39 input  -65.29 | X-H torsion
[ 10718 10713 10712 10709 ] final  142.28 input   66.30 | X-H torsion
[ 10763 10752 10751 10750 ] final   18.36 input  -60.55 | X-H torsion
[ 11005 11000 10999 10996 ] final  112.19 input  -57.11 | X-H torsion

> <Gold.Protein.ActiveResidues>
 VAL166  LYS551  ARG553  GLY616  TRP617  ASP618  TYR619  PRO620  LYS621  CYS622 
 ASP623  PHE694  ASN695  SER759  ASP760  ASP761  ALA762  ILE779  LEU786  VAL792 
 PHE793  MET794  SER795  GLU796  ALA797  LYS798  CYS799  TRP800  GLU811  SER814 

> <Gold.Protein.RotatedAtoms>
  150.9528  134.8926  159.7682 H   0  0  0  0  0  0  0  0  0  0  0  0  # atno 6907 bound_to 6896
  152.5126  134.3782  159.9352 H   0  0  0  0  0  0  0  0  0  0  0  0  # atno 6908 bound_to 6896
  151.3797  133.3785  159.2743 H   0  0  0  0  0  0  0  0  0  0  0  0  # atno 6909 bound_to 6896
  146.1050  139.5753  142.9390 H   0  0  0  0  0  0  0  0  0  0  0  0  # atno 7974 bound_to 7965
  156.1184  140.1488  156.9240 H   0  0  0  0  0  0  0  0  0  0  0  0  # atno 8008 bound_to 7997
  154.4817  140.0877  156.7435 H   0  0  0  0  0  0  0  0  0  0  0  0  # atno 8009 bound_to 7997
  155.4473  140.3433  155.4299 H   0  0  0  0  0  0  0  0  0  0  0  0  # atno 8010 bound_to 7997
  139.4927  144.5905  151.6690 H   0  0  0  0  0  0  0  0  0  0  0  0  # atno 10167 bound_to 10162
  157.3823  131.0994  151.0726 H   0  0  0  0  0  0  0  0  0  0  0  0  # atno 10718 bound_to 10713
  153.1256  135.6729  153.9262 H   0  0  0  0  0  0  0  0  0  0  0  0  # atno 10763 bound_to 10752
  153.8764  135.3063  155.3445 H   0  0  0  0  0  0  0  0  0  0  0  0  # atno 10764 bound_to 10752
  154.7662  135.4963  153.9639 H   0  0  0  0  0  0  0  0  0  0  0  0  # atno 10765 bound_to 10752
  139.8921  134.9524  156.6548 H   0  0  0  0  0  0  0  0  0  0  0  0  # atno 11005 bound_to 11000
  145.5779  141.0386  143.2138 LP  0  0  0  0  0  0  0  0  0  0  0  0  # atno 17320 bound_to 7965
  144.7463  139.7311  143.7291 LP  0  0  0  0  0  0  0  0  0  0  0  0  # atno 17321 bound_to 7965
  140.5531  144.0393  150.6135 LP  0  0  0  0  0  0  0  0  0  0  0  0  # atno 17342 bound_to 10162
  140.3454  143.2995  152.0544 LP  0  0  0  0  0  0  0  0  0  0  0  0  # atno 17343 bound_to 10162
  157.1791  130.6301  149.5665 LP  0  0  0  0  0  0  0  0  0  0  0  0  # atno 17370 bound_to 10713
  155.9778  130.4759  150.6620 LP  0  0  0  0  0  0  0  0  0  0  0  0  # atno 17371 bound_to 10713
  140.7492  133.8911  155.8334 LP  0  0  0  0  0  0  0  0  0  0  0  0  # atno 17394 bound_to 11000
  141.0014  134.1145  157.4313 LP  0  0  0  0  0  0  0  0  0  0  0  0  # atno 17395 bound_to 11000

$$$$
