AV-unprocessed.smi:3068|AV-procd|sdf|11706|dock5
  -GOLD-   2272017113D 1   1.00000     0.00000
 Structure written by MMmdl.
 39 41  0  0  0  0  0  0  0  0  1 V2000
  147.8848  141.7545  158.5955 N   0  0  0  0  0  0  0  0  0  0  0  0
  147.8210  141.5553  157.4572 C   0  0  0  0  0  0  0  0  0  0  0  0
  147.7402  141.3042  156.0239 C   0  0  0  0  0  0  0  0  0  0  0  0
  146.6169  140.6970  155.5762 N   0  0  0  0  0  0  0  0  0  0  0  0
  146.5279  140.4612  154.2500 C   0  0  0  0  0  0  0  0  0  0  0  0
  147.5599  140.8279  153.3647 C   0  0  0  0  0  0  0  0  0  0  0  0
  148.6845  141.4321  153.8028 N   0  0  0  0  0  0  0  0  0  0  0  0
  148.7857  141.6792  155.1332 C   0  0  0  0  0  0  0  0  0  0  0  0
  149.9519  142.3096  155.6060 N   0  0  0  0  0  0  0  0  0  0  0  0
  151.0425  141.5525  156.2094 C   0  0  0  0  0  0  0  0  0  0  0  0
  151.0653  141.6737  157.7421 C   0  0  2  0  0  0  0  0  0  0  0  0
  151.4094  143.1051  158.1920 C   0  0  0  0  0  0  0  0  0  0  0  0
  151.5056  143.2098  159.6424 N   0  0  0  0  0  0  0  0  0  0  0  0
  151.8365  144.5720  160.0567 C   0  0  0  0  0  0  0  0  0  0  0  0
  151.9106  144.7179  161.5849 C   0  0  0  0  0  0  0  0  0  0  0  0
  152.9259  143.7234  162.1659 C   0  0  0  0  0  0  0  0  0  0  0  0
  152.6043  142.3001  161.6844 C   0  0  0  0  0  0  0  0  0  0  0  0
  152.4926  142.2502  160.1466 C   0  0  1  0  0  0  0  0  0  0  0  0
  152.1626  140.8208  159.6704 C   0  0  0  0  0  0  0  0  0  0  0  0
  152.0645  140.7929  158.2500 O   0  0  0  0  0  0  0  0  0  0  0  0
  145.6302  139.9780  153.8932 H   0  0  0  0  0  0  0  0  0  0  0  0
  147.4829  140.6362  152.3045 H   0  0  0  0  0  0  0  0  0  0  0  0
  150.1339  143.2661  155.3369 H   0  0  0  0  0  0  0  0  0  0  0  0
  150.9340  140.5060  155.9240 H   0  0  0  0  0  0  0  0  0  0  0  0
  151.9925  141.8832  155.7880 H   0  0  0  0  0  0  0  0  0  0  0  0
  150.0930  141.3953  158.1524 H   0  0  0  0  0  0  0  0  0  0  0  0
  152.3522  143.4122  157.7362 H   0  0  0  0  0  0  0  0  0  0  0  0
  150.6469  143.7929  157.8247 H   0  0  0  0  0  0  0  0  0  0  0  0
  152.7897  144.8710  159.6176 H   0  0  0  0  0  0  0  0  0  0  0  0
  151.0876  145.2639  159.6697 H   0  0  0  0  0  0  0  0  0  0  0  0
  152.1870  145.7379  161.8529 H   0  0  0  0  0  0  0  0  0  0  0  0
  150.9265  144.5360  162.0191 H   0  0  0  0  0  0  0  0  0  0  0  0
  153.9318  143.9992  161.8467 H   0  0  0  0  0  0  0  0  0  0  0  0
  152.9198  143.7665  163.2553 H   0  0  0  0  0  0  0  0  0  0  0  0
  153.3760  141.6116  162.0300 H   0  0  0  0  0  0  0  0  0  0  0  0
  151.6675  141.9673  162.1338 H   0  0  0  0  0  0  0  0  0  0  0  0
  153.4692  142.5127  159.7355 H   0  0  0  0  0  0  0  0  0  0  0  0
  152.9434  140.1259  159.9804 H   0  0  0  0  0  0  0  0  0  0  0  0
  151.2282  140.4682  160.1100 H   0  0  0  0  0  0  0  0  0  0  0  0
  1  2  3  0  0  0  0
  2  3  1  0  0  0  0
  3  8  1  0  0  0  0
  3  4  2  0  0  0  0
  4  5  1  0  0  0  0
  5  6  2  0  0  0  0
  5 21  1  0  0  0  0
  6  7  1  0  0  0  0
  6 22  1  0  0  0  0
  7  8  2  0  0  0  0
  8  9  1  0  0  0  0
  9 10  1  0  0  0  0
  9 23  1  0  0  0  0
 10 11  1  0  0  0  0
 10 24  1  0  0  0  0
 10 25  1  0  0  0  0
 11 20  1  0  0  0  0
 11 12  1  0  0  0  0
 11 26  1  0  0  0  0
 12 13  1  0  0  0  0
 12 27  1  0  0  0  0
 12 28  1  0  0  0  0
 13 18  1  0  0  0  0
 13 14  1  0  0  0  0
 14 15  1  0  0  0  0
 14 29  1  0  0  0  0
 14 30  1  0  0  0  0
 15 16  1  0  0  0  0
 15 31  1  0  0  0  0
 15 32  1  0  0  0  0
 16 17  1  0  0  0  0
 16 33  1  0  0  0  0
 16 34  1  0  0  0  0
 17 18  1  0  0  0  0
 17 35  1  0  0  0  0
 17 36  1  0  0  0  0
 18 19  1  0  0  0  0
 18 37  1  0  0  0  0
 19 20  1  0  0  0  0
 19 38  1  0  0  0  0
 19 39  1  0  0  0  0
M  END
> <s_m_source_file>
AV-unprocessed.smi

> <i_m_source_file_index>
3068

> <i_lp_mmshare_version>
43012

> <i_f3d_flags>
0

> <s_epik_input>
TiNDYzFuW2NIXVtjSF1uYzFbTkhdW0NIMl1bQ0BIXShbQ0gyXTIpT1tDSDJdW0NAQEhdKE4yMylbQ0gyXVtDSDJdW0NIMl1bQ0gyXTM=

> <s_epik_cmdline>
J2VwaWtfcHl0aG9uJywgJy1waCcsICc3LjAnLCAnLXRuJywgJzgnLCAnLW1hJywgJzIwMCcsICctbWV0YWxfYmluZGluZycsICctaW1hZScsICc8aW5maWxlLm1hZT4nLCAnLW9tYWUnLCAnPG91dGZpbGUubWFlPic=

> <r_epik_Ionization_Penalty>
1.22359

> <r_epik_Ionization_Penalty_Charging>
0

> <r_epik_Ionization_Penalty_Neutral>
1.22359

> <r_epik_State_Penalty>
1.29103

> <r_epik_Charging_Adjusted_Penalty>
1.29103

> <i_epik_Tot_Q>
0

> <i_epik_Tot_abs_Q>
0

> <r_epik_Metal_State_Penalty>
1.29103

> <b_epik_Metal_Only>
0

> <s_lp_Force_Field>
OPLS_2005

> <r_lp_Energy>
45.8422

> <b_lp_Chiralities_Consistent>
1

> <s_lp_Variant>
AV-unprocessed.smi:3068-9

> <Gold.Version>
5.8.1

> <Gold.Id.Protein>
6NUR|6NUR_protein|mol2

> <Gold.PLP.Fitness>
42.2424

> <Gold.PLP.PLP>
-35.2405

> <Gold.PLP.part.hbond>
-3.0000

> <Gold.PLP.part.metal>
0.0000

> <Gold.PLP.part.buried>
-1.7568

> <Gold.PLP.part.nonpolar>
-31.0343

> <Gold.PLP.part.repulsive>
0.6436

> <Gold.PLP.ligand.clash>
0.0000

> <Gold.PLP.ligand.torsion>
0.8638

> <Gold.PLP.Chemscore.Hbond>
1.1681

> <Gold.PLP.Chemscore.CHOScore>
1.7404

> <Gold.PLP.Chemscore.Metal>
0.0000

> <Gold.Chemscore.Hbonds>
donor molecule, donor type, donor heavy atom, donor atom, acceptor molecule, acceptor atom, score
      L1  H     9    23       P1  8028  0.48
      P1  H  8011  8017       L1     7  0.63
      L1  C     5    21       P1 10175  1.00
      L1  C     6    22       P1  7957  0.74

> <Gold.PLP.Chemscore.Internal.Correction>
0.0038

> <Gold.Rescore>
     Score         DG    S(hbond)    S(metal)    S(lipo)     H(rot)  DE(clash)    DE(int)     intcor
     15.97     -19.49       1.49        0.00     105.74       1.30       2.66       0.86       ----

> <Gold.Chemscore.Fitness>
15.9703

> <Gold.Chemscore.DG>
-19.4896

> <Gold.Chemscore.ZeroCoef>
-5.4800

> <Gold.Chemscore.Hbond>
1.4883

> <Gold.Chemscore.Metal>
0.0000

> <Gold.Chemscore.Lipo>
105.7372

> <Gold.Chemscore.Internal_Hbond>
0.0000

> <Gold.Chemscore.DEClash>
2.6608

> <Gold.Chemscore.DEInternal>
0.8585

> <Gold.Chemscore.Rot>
1.3019

> <Gold.Chemscore.Internal.Correction>
   9.000000E+99

> <Gold.Chemscore.Hbonds>
donor molecule, donor type, donor heavy atom, donor atom, acceptor molecule, acceptor atom, score
      L1  H     9    23       P1  8028  0.48
      P1  H  6934  6946       L1     1  0.01
      P1  H  8011  8017       L1     7  0.56

> <Gold.Chemscore.Hbond.Weighted>
-4.9711

> <Gold.Chemscore.Metal.Weighted>
-0.0000

> <Gold.Chemscore.Lipo.Weighted>
-12.3712

> <Gold.Chemscore.Internal_Hbond.Weighted>
0.0000

> <Gold.Chemscore.DEClash.Weighted>
2.6608

> <Gold.Chemscore.DEInternal.Weighted>
0.8585

> <Gold.Chemscore.Rot.Weighted>
3.3327

> <Gold.Chemscore.Internal.Correction.Weighted>
   9.000000E+99

> <Gold.Protein.RotatedTorsions>
[ 6907 6896 6895 6894 ] final  -20.06 input  -60.11 | X-H torsion
[ 7974 7965 7964 7962 ] final  -89.50 input  175.53 | X-H torsion
[ 8008 7997 7996 7995 ] final   25.39 input   59.86 | X-H torsion
[ 10167 10162 10161 10158 ] final -115.14 input  -65.29 | X-H torsion
[ 10718 10713 10712 10709 ] final   24.63 input   66.30 | X-H torsion
[ 10763 10752 10751 10750 ] final  160.52 input  -60.55 | X-H torsion
[ 11005 11000 10999 10996 ] final  -31.53 input  -57.11 | X-H torsion

> <Gold.Protein.ActiveResidues>
 VAL166  LYS551  ARG553  GLY616  TRP617  ASP618  TYR619  PRO620  LYS621  CYS622 
 ASP623  PHE694  ASN695  SER759  ASP760  ASP761  ALA762  ILE779  LEU786  VAL792 
 PHE793  MET794  SER795  GLU796  ALA797  LYS798  CYS799  TRP800  GLU811  SER814 

> <Gold.Protein.RotatedAtoms>
  151.2537  135.0631  159.9071 H   0  0  0  0  0  0  0  0  0  0  0  0  # atno 6907 bound_to 6896
  152.5376  134.0304  159.8032 H   0  0  0  0  0  0  0  0  0  0  0  0  # atno 6908 bound_to 6896
  151.0516  133.5569  159.2673 H   0  0  0  0  0  0  0  0  0  0  0  0  # atno 6909 bound_to 6896
  145.4390  140.9558  143.2086 H   0  0  0  0  0  0  0  0  0  0  0  0  # atno 7974 bound_to 7965
  155.0110  140.3136  155.4829 H   0  0  0  0  0  0  0  0  0  0  0  0  # atno 8008 bound_to 7997
  156.2909  140.2214  156.5166 H   0  0  0  0  0  0  0  0  0  0  0  0  # atno 8009 bound_to 7997
  154.7534  140.0464  157.0901 H   0  0  0  0  0  0  0  0  0  0  0  0  # atno 8010 bound_to 7997
  140.0933  143.4680  152.1857 H   0  0  0  0  0  0  0  0  0  0  0  0  # atno 10167 bound_to 10162
  157.1824  130.6809  149.6118 H   0  0  0  0  0  0  0  0  0  0  0  0  # atno 10718 bound_to 10713
  154.2487  135.2772  155.2825 H   0  0  0  0  0  0  0  0  0  0  0  0  # atno 10763 bound_to 10752
  154.5483  135.5682  153.6903 H   0  0  0  0  0  0  0  0  0  0  0  0  # atno 10764 bound_to 10752
  152.9985  135.6268  154.2633 H   0  0  0  0  0  0  0  0  0  0  0  0  # atno 10765 bound_to 10752
  140.9476  133.7240  156.1170 H   0  0  0  0  0  0  0  0  0  0  0  0  # atno 11005 bound_to 11000
  144.8134  139.5921  143.7019 LP  0  0  0  0  0  0  0  0  0  0  0  0  # atno 17320 bound_to 7965
  146.2567  139.6317  142.9390 LP  0  0  0  0  0  0  0  0  0  0  0  0  # atno 17321 bound_to 7965
  139.5712  144.7464  151.3885 LP  0  0  0  0  0  0  0  0  0  0  0  0  # atno 17342 bound_to 10162
  140.7017  143.7615  150.7414 LP  0  0  0  0  0  0  0  0  0  0  0  0  # atno 17343 bound_to 10162
  155.9722  130.4642  150.6209 LP  0  0  0  0  0  0  0  0  0  0  0  0  # atno 17370 bound_to 10713
  157.3939  131.0800  151.1369 LP  0  0  0  0  0  0  0  0  0  0  0  0  # atno 17371 bound_to 10713
  140.7647  134.3899  157.5519 LP  0  0  0  0  0  0  0  0  0  0  0  0  # atno 17394 bound_to 11000
  139.8838  134.8984  156.2744 LP  0  0  0  0  0  0  0  0  0  0  0  0  # atno 17395 bound_to 11000

$$$$
