AV-unprocessed.smi:2689|AV-procd|sdf|10387|dock9
  -GOLD-   2272014423D 1   1.00000     0.00000
 Structure written by MMmdl.
 32 32  0  0  0  0  0  0  0  0  2 V2000
  154.3603  140.7872  161.0878 C   0  0  0  0  0  0  0  0  0  0  0  0
  153.7571  141.4680  159.8537 C   0  0  0  0  0  0  0  0  0  0  0  0
  152.7996  142.5662  160.2284 C   0  0  0  0  0  0  0  0  0  0  0  0
  152.6973  142.9313  161.4959 N   0  0  0  0  0  0  0  0  0  0  0  0
  151.7636  143.9709  161.5215 O   0  0  0  0  0  0  0  0  0  0  0  0
  151.3343  144.1952  160.2535 C   0  0  0  0  0  0  0  0  0  0  0  0
  150.3345  145.2903  160.0735 C   0  0  0  0  0  0  0  0  0  0  0  0
  149.0215  145.0361  160.8206 C   0  0  0  0  0  0  0  0  0  0  0  0
  151.9446  143.3325  159.3836 C   0  0  0  0  0  0  0  0  0  0  0  0
  151.7733  143.2246  157.8892 C   0  0  0  0  0  0  0  0  0  0  0  0
  150.9506  141.9802  157.5585 C   0  0  0  0  0  0  0  0  0  0  0  0
  151.3458  140.8691  157.9105 O   0  0  0  0  0  0  0  0  0  0  0  0
  149.8174  142.1891  156.8722 N   0  0  0  0  0  0  0  0  0  0  0  0
  148.9259  141.1620  156.3494 C   0  0  0  0  0  0  0  0  0  0  0  0
  149.3245  140.8229  154.9143 C   0  0  0  0  0  0  0  0  0  0  0  0
  148.7512  141.4489  153.9965 O   0  0  0  0  0  0  0  0  0  0  0  0
  150.1930  139.9357  154.7599 O   0  5  0  0  0  0  0  0  0  0  0  0
  155.0568  140.0010  160.7964 H   0  0  0  0  0  0  0  0  0  0  0  0
  153.5858  140.3335  161.7067 H   0  0  0  0  0  0  0  0  0  0  0  0
  154.9048  141.5024  161.7047 H   0  0  0  0  0  0  0  0  0  0  0  0
  154.5608  141.8639  159.2335 H   0  0  0  0  0  0  0  0  0  0  0  0
  153.2484  140.7221  159.2421 H   0  0  0  0  0  0  0  0  0  0  0  0
  150.7692  146.2310  160.4130 H   0  0  0  0  0  0  0  0  0  0  0  0
  150.1229  145.4244  159.0128 H   0  0  0  0  0  0  0  0  0  0  0  0
  148.3194  145.8546  160.6604 H   0  0  0  0  0  0  0  0  0  0  0  0
  149.1898  144.9468  161.8942 H   0  0  0  0  0  0  0  0  0  0  0  0
  148.5467  144.1167  160.4771 H   0  0  0  0  0  0  0  0  0  0  0  0
  151.2747  144.1021  157.4772 H   0  0  0  0  0  0  0  0  0  0  0  0
  152.7364  143.1638  157.3808 H   0  0  0  0  0  0  0  0  0  0  0  0
  149.5865  143.1404  156.6256 H   0  0  0  0  0  0  0  0  0  0  0  0
  148.9345  140.2581  156.9607 H   0  0  0  0  0  0  0  0  0  0  0  0
  147.9041  141.5420  156.3575 H   0  0  0  0  0  0  0  0  0  0  0  0
  1  2  1  0  0  0  0
  1 18  1  0  0  0  0
  1 19  1  0  0  0  0
  1 20  1  0  0  0  0
  2  3  1  0  0  0  0
  2 21  1  0  0  0  0
  2 22  1  0  0  0  0
  3  9  1  0  0  0  0
  3  4  2  0  0  0  0
  4  5  1  0  0  0  0
  5  6  1  0  0  0  0
  6  7  1  0  0  0  0
  6  9  2  0  0  0  0
  7  8  1  0  0  0  0
  7 23  1  0  0  0  0
  7 24  1  0  0  0  0
  8 25  1  0  0  0  0
  8 26  1  0  0  0  0
  8 27  1  0  0  0  0
  9 10  1  0  0  0  0
 10 11  1  0  0  0  0
 10 28  1  0  0  0  0
 10 29  1  0  0  0  0
 11 12  2  0  0  0  0
 11 13  1  0  0  0  0
 13 14  1  0  0  0  0
 13 30  1  0  0  0  0
 14 15  1  0  0  0  0
 14 31  1  0  0  0  0
 14 32  1  0  0  0  0
 15 16  2  0  0  0  0
 15 17  1  0  0  0  0
M  CHG  1  17  -1
M  END
> <s_m_source_file>
AV-unprocessed.smi

> <i_m_source_file_index>
2689

> <i_lp_mmshare_version>
43012

> <i_f3d_flags>
0

> <s_epik_input>
W0NIM11bQ0gyXWMxbm9jKFtDSDJdW0NIM10pYzFbQ0gyXUMoPU8pW05IXVtDSDJdQyg9TylbT0hd

> <s_epik_cmdline>
J2VwaWtfcHl0aG9uJywgJy1waCcsICc3LjAnLCAnLXRuJywgJzgnLCAnLW1hJywgJzIwMCcsICctbWV0YWxfYmluZGluZycsICctaW1hZScsICc8aW5maWxlLm1hZT4nLCAnLW9tYWUnLCAnPG91dGZpbGUubWFlPic=

> <r_lp_tautomer_probability>
1

> <r_epik_Ionization_Penalty>
0.000217839

> <r_epik_Ionization_Penalty_Charging>
0.000217819

> <r_epik_Ionization_Penalty_Neutral>
1.99806e-08

> <r_epik_State_Penalty>
-0

> <r_epik_Charging_Adjusted_Penalty>
0.000217819

> <i_epik_Tot_Q>
-1

> <i_epik_Tot_abs_Q>
1

> <r_epik_Metal_State_Penalty>
-0

> <b_epik_Metal_Only>
0

> <s_lp_Force_Field>
OPLS_2005

> <r_lp_Energy>
-12.6879

> <b_lp_Chiralities_Consistent>
1

> <s_lp_Variant>
AV-unprocessed.smi:2689-1

> <Gold.Version>
5.8.1

> <Gold.Id.Protein>
6NUR|6NUR_protein|mol2

> <Gold.PLP.Fitness>
44.4080

> <Gold.PLP.PLP>
-37.9782

> <Gold.PLP.part.hbond>
-3.8449

> <Gold.PLP.part.metal>
0.0000

> <Gold.PLP.part.buried>
-6.0778

> <Gold.PLP.part.nonpolar>
-28.2658

> <Gold.PLP.part.repulsive>
0.5965

> <Gold.PLP.ligand.clash>
0.0000

> <Gold.PLP.ligand.torsion>
0.7923

> <Gold.PLP.Chemscore.Hbond>
2.6560

> <Gold.PLP.Chemscore.CHOScore>
0.0000

> <Gold.PLP.Chemscore.Metal>
0.0000

> <Gold.Chemscore.Hbonds>
donor molecule, donor type, donor heavy atom, donor atom, acceptor molecule, acceptor atom, score
      L1  H    13    30       P1  8028  1.00
      P1  H  7989  7998       L1    17  0.76
      P1  H  8011  8017       L1    16  0.42

> <Gold.PLP.Chemscore.Internal.Correction>
0.0464

> <Gold.Rescore>
     Score         DG    S(hbond)    S(metal)    S(lipo)     H(rot)  DE(clash)    DE(int)     intcor
     16.17     -16.90       2.50        0.00      85.33       2.71       0.04       0.69       ----

> <Gold.Chemscore.Fitness>
16.1710

> <Gold.Chemscore.DG>
-16.9019

> <Gold.Chemscore.ZeroCoef>
-5.4800

> <Gold.Chemscore.Hbond>
2.5039

> <Gold.Chemscore.Metal>
0.0000

> <Gold.Chemscore.Lipo>
85.3328

> <Gold.Chemscore.Internal_Hbond>
0.0000

> <Gold.Chemscore.DEClash>
0.0418

> <Gold.Chemscore.DEInternal>
0.6891

> <Gold.Chemscore.Rot>
2.7051

> <Gold.Chemscore.Internal.Correction>
   9.000000E+99

> <Gold.Chemscore.Hbonds>
donor molecule, donor type, donor heavy atom, donor atom, acceptor molecule, acceptor atom, score
      L1  H    13    30       P1  8028  0.98
      P1  H  7989  7998       L1    17  0.30
      P1  H  8011  8017       L1    16  0.42

> <Gold.Chemscore.Hbond.Weighted>
-8.3631

> <Gold.Chemscore.Metal.Weighted>
-0.0000

> <Gold.Chemscore.Lipo.Weighted>
-9.9839

> <Gold.Chemscore.Internal_Hbond.Weighted>
0.0000

> <Gold.Chemscore.DEClash.Weighted>
0.0418

> <Gold.Chemscore.DEInternal.Weighted>
0.6891

> <Gold.Chemscore.Rot.Weighted>
6.9251

> <Gold.Chemscore.Internal.Correction.Weighted>
   9.000000E+99

> <Gold.Protein.RotatedTorsions>
[ 6907 6896 6895 6894 ] final  -52.81 input  -60.11 | X-H torsion
[ 7974 7965 7964 7962 ] final -159.50 input  175.53 | X-H torsion
[ 8008 7997 7996 7995 ] final -131.89 input   59.86 | X-H torsion
[ 10167 10162 10161 10158 ] final  -40.26 input  -65.29 | X-H torsion
[ 10718 10713 10712 10709 ] final   90.91 input   66.30 | X-H torsion
[ 10763 10752 10751 10750 ] final -113.96 input  -60.55 | X-H torsion
[ 11005 11000 10999 10996 ] final   89.13 input  -57.11 | X-H torsion

> <Gold.Protein.ActiveResidues>
 VAL166  LYS551  ARG553  GLY616  TRP617  ASP618  TYR619  PRO620  LYS621  CYS622 
 ASP623  PHE694  ASN695  SER759  ASP760  ASP761  ALA762  ILE779  LEU786  VAL792 
 PHE793  MET794  SER795  GLU796  ALA797  LYS798  CYS799  TRP800  GLU811  SER814 

> <Gold.Protein.RotatedAtoms>
  150.8483  134.7800  159.6988 H   0  0  0  0  0  0  0  0  0  0  0  0  # atno 6907 bound_to 6896
  152.4554  134.5299  159.9817 H   0  0  0  0  0  0  0  0  0  0  0  0  # atno 6908 bound_to 6896
  151.5425  133.3392  159.2973 H   0  0  0  0  0  0  0  0  0  0  0  0  # atno 6909 bound_to 6896
  144.7463  140.3676  143.6083 H   0  0  0  0  0  0  0  0  0  0  0  0  # atno 7974 bound_to 7965
  155.3199  140.0461  157.3039 H   0  0  0  0  0  0  0  0  0  0  0  0  # atno 8008 bound_to 7997
  154.5386  140.2280  155.8646 H   0  0  0  0  0  0  0  0  0  0  0  0  # atno 8009 bound_to 7997
  156.1859  140.3062  155.9244 H   0  0  0  0  0  0  0  0  0  0  0  0  # atno 8010 bound_to 7997
  140.7039  143.3164  151.2899 H   0  0  0  0  0  0  0  0  0  0  0  0  # atno 10167 bound_to 10162
  157.6960  131.0388  150.3649 H   0  0  0  0  0  0  0  0  0  0  0  0  # atno 10718 bound_to 10713
  154.8419  135.4435  154.1431 H   0  0  0  0  0  0  0  0  0  0  0  0  # atno 10763 bound_to 10752
  153.2611  135.6936  153.7583 H   0  0  0  0  0  0  0  0  0  0  0  0  # atno 10764 bound_to 10752
  153.6859  135.3395  155.3165 H   0  0  0  0  0  0  0  0  0  0  0  0  # atno 10765 bound_to 10752
  139.8882  134.8532  156.3098 H   0  0  0  0  0  0  0  0  0  0  0  0  # atno 11005 bound_to 11000
  145.7112  139.1685  143.2538 LP  0  0  0  0  0  0  0  0  0  0  0  0  # atno 17320 bound_to 7965
  146.1346  140.7140  142.9396 LP  0  0  0  0  0  0  0  0  0  0  0  0  # atno 17321 bound_to 7965
  139.6604  144.0200  152.2688 LP  0  0  0  0  0  0  0  0  0  0  0  0  # atno 17342 bound_to 10162
  139.9765  144.6458  150.7940 LP  0  0  0  0  0  0  0  0  0  0  0  0  # atno 17343 bound_to 10162
  156.4081  130.3929  149.6911 LP  0  0  0  0  0  0  0  0  0  0  0  0  # atno 17370 bound_to 10713
  156.4205  130.7766  151.2783 LP  0  0  0  0  0  0  0  0  0  0  0  0  # atno 17371 bound_to 10713
  140.9858  133.7239  156.0739 LP  0  0  0  0  0  0  0  0  0  0  0  0  # atno 17394 bound_to 11000
  140.7690  134.3854  157.5511 LP  0  0  0  0  0  0  0  0  0  0  0  0  # atno 17395 bound_to 11000

$$$$
