AV-unprocessed.smi:2532|AV-procd|sdf|9969|dock2
  -GOLD-   2272014 13D 1   1.00000     0.00000
 Structure written by MMmdl.
 36 38  0  0  0  0  0  0  0  0  1 V2000
  150.1141  140.4383  154.0734 O   0  0  0  0  0  0  0  0  0  0  0  0
  149.9396  141.1660  155.2738 C   0  0  1  0  0  0  0  0  0  0  0  0
  148.4744  141.0316  155.7183 C   0  0  0  0  0  0  0  0  0  0  0  0
  147.7878  142.2382  155.4299 O   0  0  0  0  0  0  0  0  0  0  0  0
  147.0146  142.1577  154.2433 C   0  0  0  0  0  0  0  0  0  0  0  0
  146.1057  143.3446  154.2083 C   0  0  0  0  0  0  0  0  0  0  0  0
  145.2592  143.7645  155.2029 C   0  0  0  0  0  0  0  0  0  0  0  0
  144.5390  144.9486  154.8683 C   0  0  0  0  0  0  0  0  0  0  0  0
  144.8500  145.4251  153.6228 C   0  0  0  0  0  0  0  0  0  0  0  0
  146.0397  144.4251  152.8346 S   0  0  0  0  0  0  0  0  0  0  0  0
  150.9134  140.6195  156.3359 C   0  0  0  0  0  0  0  0  0  0  0  0
  151.1581  141.5664  157.4099 N   0  0  0  0  0  0  0  0  0  0  0  0
  150.7144  142.8359  157.4851 C   0  0  0  0  0  0  0  0  0  0  0  0
  151.0517  143.5369  158.5639 N   0  0  0  0  0  0  0  0  0  0  0  0
  151.8011  142.6142  159.2736 C   0  0  0  0  0  0  0  0  0  0  0  0
  152.4552  142.7290  160.5212 C   0  0  0  0  0  0  0  0  0  0  0  0
  153.1717  141.6378  161.0552 C   0  0  0  0  0  0  0  0  0  0  0  0
  153.2468  140.4183  160.3514 C   0  0  0  0  0  0  0  0  0  0  0  0
  152.6038  140.2801  159.1063 C   0  0  0  0  0  0  0  0  0  0  0  0
  151.8877  141.3704  158.5778 C   0  0  0  0  0  0  0  0  0  0  0  0
  149.3009  140.4552  153.5922 H   0  0  0  0  0  0  0  0  0  0  0  0
  150.1707  142.2161  155.0881 H   0  0  0  0  0  0  0  0  0  0  0  0
  147.9947  140.1739  155.2431 H   0  0  0  0  0  0  0  0  0  0  0  0
  148.4312  140.8680  156.7964 H   0  0  0  0  0  0  0  0  0  0  0  0
  147.6646  142.1517  153.3669 H   0  0  0  0  0  0  0  0  0  0  0  0
  146.4259  141.2395  154.2315 H   0  0  0  0  0  0  0  0  0  0  0  0
  145.1320  143.2652  156.1522 H   0  0  0  0  0  0  0  0  0  0  0  0
  143.8298  145.4038  155.5441 H   0  0  0  0  0  0  0  0  0  0  0  0
  144.4579  146.2985  153.1232 H   0  0  0  0  0  0  0  0  0  0  0  0
  150.5139  139.7053  156.7768 H   0  0  0  0  0  0  0  0  0  0  0  0
  151.8669  140.3518  155.8786 H   0  0  0  0  0  0  0  0  0  0  0  0
  150.1103  143.2702  156.7017 H   0  0  0  0  0  0  0  0  0  0  0  0
  152.4056  143.6588  161.0682 H   0  0  0  0  0  0  0  0  0  0  0  0
  153.6668  141.7373  162.0101 H   0  0  0  0  0  0  0  0  0  0  0  0
  153.7989  139.5885  160.7680 H   0  0  0  0  0  0  0  0  0  0  0  0
  152.6614  139.3481  158.5636 H   0  0  0  0  0  0  0  0  0  0  0  0
  1  2  1  0  0  0  0
  1 21  1  0  0  0  0
  2  3  1  0  0  0  0
  2 11  1  0  0  0  0
  2 22  1  0  0  0  0
  3  4  1  0  0  0  0
  3 23  1  0  0  0  0
  3 24  1  0  0  0  0
  4  5  1  0  0  0  0
  5  6  1  0  0  0  0
  5 25  1  0  0  0  0
  5 26  1  0  0  0  0
  6 10  1  0  0  0  0
  6  7  2  0  0  0  0
  7  8  1  0  0  0  0
  7 27  1  0  0  0  0
  8  9  2  0  0  0  0
  8 28  1  0  0  0  0
  9 10  1  0  0  0  0
  9 29  1  0  0  0  0
 11 12  1  0  0  0  0
 11 30  1  0  0  0  0
 11 31  1  0  0  0  0
 12 20  1  0  0  0  0
 12 13  1  0  0  0  0
 13 14  2  0  0  0  0
 13 32  1  0  0  0  0
 14 15  1  0  0  0  0
 15 20  2  0  0  0  0
 15 16  1  0  0  0  0
 16 17  2  0  0  0  0
 16 33  1  0  0  0  0
 17 18  1  0  0  0  0
 17 34  1  0  0  0  0
 18 19  2  0  0  0  0
 18 35  1  0  0  0  0
 19 20  1  0  0  0  0
 19 36  1  0  0  0  0
M  END
> <s_m_source_file>
AV-unprocessed.smi

> <i_m_source_file_index>
2532

> <i_lp_mmshare_version>
43012

> <i_f3d_flags>
0

> <s_epik_input>
W2NIXTFbY0hdW2NIXVtjSF1jKGMxMiluKFtjSF1uMilbQ0gyXVtDQEhdKFtPSF0pW0NIMl1PW0NIMl1jM1tjSF1bY0hdW2NIXXMz

> <s_epik_cmdline>
J2VwaWtfcHl0aG9uJywgJy1waCcsICc3LjAnLCAnLXRuJywgJzgnLCAnLW1hJywgJzIwMCcsICctbWV0YWxfYmluZGluZycsICctaW1hZScsICc8aW5maWxlLm1hZT4nLCAnLW9tYWUnLCAnPG91dGZpbGUubWFlPic=

> <r_epik_Ionization_Penalty>
0.0678455

> <r_epik_Ionization_Penalty_Charging>
0

> <r_epik_Ionization_Penalty_Neutral>
0.0678455

> <r_epik_State_Penalty>
0.0593261

> <r_epik_Charging_Adjusted_Penalty>
0.0593261

> <i_epik_Tot_Q>
0

> <i_epik_Tot_abs_Q>
0

> <r_epik_Metal_State_Penalty>
6.23947e-05

> <b_epik_Metal_Only>
0

> <s_lp_Force_Field>
OPLS_2005

> <r_lp_Energy>
10.0551

> <b_lp_Chiralities_Consistent>
1

> <s_lp_Variant>
AV-unprocessed.smi:2532-2

> <Gold.Version>
5.8.1

> <Gold.Id.Protein>
6NUR|6NUR_protein|mol2

> <Gold.PLP.Fitness>
48.1430

> <Gold.PLP.PLP>
-45.1011

> <Gold.PLP.part.hbond>
-2.0000

> <Gold.PLP.part.metal>
0.0000

> <Gold.PLP.part.buried>
-5.5697

> <Gold.PLP.part.nonpolar>
-37.8139

> <Gold.PLP.part.repulsive>
1.4941

> <Gold.PLP.ligand.clash>
0.0000

> <Gold.PLP.ligand.torsion>
1.2412

> <Gold.PLP.Chemscore.Hbond>
0.8160

> <Gold.PLP.Chemscore.CHOScore>
1.0000

> <Gold.PLP.Chemscore.Metal>
0.0000

> <Gold.Chemscore.Hbonds>
donor molecule, donor type, donor heavy atom, donor atom, acceptor molecule, acceptor atom, score
      P1  H  7989  7998       L1     1  0.80
      L1  C    13    32       P1  8028  1.00

> <Gold.PLP.Chemscore.Internal.Correction>
0.0763

> <Gold.Rescore>
     Score         DG    S(hbond)    S(metal)    S(lipo)     H(rot)  DE(clash)    DE(int)     intcor
     14.22     -15.32       0.90        0.00     110.14       2.36       0.02       1.08       ----

> <Gold.Chemscore.Fitness>
14.2227

> <Gold.Chemscore.DG>
-15.3216

> <Gold.Chemscore.ZeroCoef>
-5.4800

> <Gold.Chemscore.Hbond>
0.8989

> <Gold.Chemscore.Metal>
0.0000

> <Gold.Chemscore.Lipo>
110.1362

> <Gold.Chemscore.Internal_Hbond>
0.0000

> <Gold.Chemscore.DEClash>
0.0225

> <Gold.Chemscore.DEInternal>
1.0764

> <Gold.Chemscore.Rot>
2.3620

> <Gold.Chemscore.Internal.Correction>
   9.000000E+99

> <Gold.Chemscore.Hbonds>
donor molecule, donor type, donor heavy atom, donor atom, acceptor molecule, acceptor atom, score
      L1  H     1    21       P1  7957  0.01
      P1  H  7989  7998       L1     1  0.44

> <Gold.Chemscore.Hbond.Weighted>
-3.0024

> <Gold.Chemscore.Metal.Weighted>
-0.0000

> <Gold.Chemscore.Lipo.Weighted>
-12.8859

> <Gold.Chemscore.Internal_Hbond.Weighted>
0.0000

> <Gold.Chemscore.DEClash.Weighted>
0.0225

> <Gold.Chemscore.DEInternal.Weighted>
1.0764

> <Gold.Chemscore.Rot.Weighted>
6.0468

> <Gold.Chemscore.Internal.Correction.Weighted>
   9.000000E+99

> <Gold.Protein.RotatedTorsions>
[ 6907 6896 6895 6894 ] final    4.01 input  -60.11 | X-H torsion
[ 7974 7965 7964 7962 ] final   27.87 input  175.53 | X-H torsion
[ 8008 7997 7996 7995 ] final  165.84 input   59.86 | X-H torsion
[ 10167 10162 10161 10158 ] final -164.59 input  -65.29 | X-H torsion
[ 10718 10713 10712 10709 ] final   80.63 input   66.30 | X-H torsion
[ 10763 10752 10751 10750 ] final -128.14 input  -60.55 | X-H torsion
[ 11005 11000 10999 10996 ] final  155.09 input  -57.11 | X-H torsion

> <Gold.Protein.ActiveResidues>
 VAL166  LYS551  ARG553  GLY616  TRP617  ASP618  TYR619  PRO620  LYS621  CYS622 
 ASP623  PHE694  ASN695  SER759  ASP760  ASP761  ALA762  ILE779  LEU786  VAL792 
 PHE793  MET794  SER795  GLU796  ALA797  LYS798  CYS799  TRP800  GLU811  SER814 

> <Gold.Protein.RotatedAtoms>
  151.6343  135.1019  160.0128 H   0  0  0  0  0  0  0  0  0  0  0  0  # atno 6907 bound_to 6896
  152.4089  133.6928  159.6389 H   0  0  0  0  0  0  0  0  0  0  0  0  # atno 6908 bound_to 6896
  150.7981  133.8577  159.3264 H   0  0  0  0  0  0  0  0  0  0  0  0  # atno 6909 bound_to 6896
  146.1760  139.7132  142.8934 H   0  0  0  0  0  0  0  0  0  0  0  0  # atno 7974 bound_to 7965
  156.1768  140.1659  156.8348 H   0  0  0  0  0  0  0  0  0  0  0  0  # atno 8008 bound_to 7997
  154.5315  140.0756  156.8387 H   0  0  0  0  0  0  0  0  0  0  0  0  # atno 8009 bound_to 7997
  155.3396  140.3384  155.4241 H   0  0  0  0  0  0  0  0  0  0  0  0  # atno 8010 bound_to 7997
  139.6240  144.0568  152.1958 H   0  0  0  0  0  0  0  0  0  0  0  0  # atno 10167 bound_to 10162
  157.6811  130.9968  150.2108 H   0  0  0  0  0  0  0  0  0  0  0  0  # atno 10718 bound_to 10713
  154.8755  135.3938  154.3708 H   0  0  0  0  0  0  0  0  0  0  0  0  # atno 10763 bound_to 10752
  153.4468  135.7027  153.6139 H   0  0  0  0  0  0  0  0  0  0  0  0  # atno 10764 bound_to 10752
  153.4696  135.3793  155.2352 H   0  0  0  0  0  0  0  0  0  0  0  0  # atno 10765 bound_to 10752
  140.1549  134.8649  157.2502 H   0  0  0  0  0  0  0  0  0  0  0  0  # atno 11005 bound_to 11000
  145.4210  141.0406  143.2964 LP  0  0  0  0  0  0  0  0  0  0  0  0  # atno 17320 bound_to 7965
  144.8237  139.5747  143.6975 LP  0  0  0  0  0  0  0  0  0  0  0  0  # atno 17321 bound_to 7965
  140.0217  144.6148  150.7561 LP  0  0  0  0  0  0  0  0  0  0  0  0  # atno 17342 bound_to 10162
  140.7400  143.2798  151.3632 LP  0  0  0  0  0  0  0  0  0  0  0  0  # atno 17343 bound_to 10162
  156.2779  130.3730  149.7964 LP  0  0  0  0  0  0  0  0  0  0  0  0  # atno 17370 bound_to 10713
  156.5662  130.8405  151.3343 LP  0  0  0  0  0  0  0  0  0  0  0  0  # atno 17371 bound_to 10713
  140.2559  134.3628  155.7424 LP  0  0  0  0  0  0  0  0  0  0  0  0  # atno 17394 bound_to 11000
  141.2203  133.7342  156.9007 LP  0  0  0  0  0  0  0  0  0  0  0  0  # atno 17395 bound_to 11000

$$$$
