AV-unprocessed.smi:447|AV-procd|sdf|2603|dock4
  -GOLD-   2262023 03D 1   1.00000     0.00000
 Structure written by MMmdl.
 46 48  0  0  0  0  0  0  0  0  2 V2000
  150.4518  134.7917  156.7804 C   0  0  0  0  0  0  0  0  0  0  0  0
  150.5509  135.5934  155.4871 C   0  0  0  0  0  0  0  0  0  0  0  0
  150.1032  135.1290  154.4394 O   0  0  0  0  0  0  0  0  0  0  0  0
  151.1417  136.7957  155.5722 N   0  0  0  0  0  0  0  0  0  0  0  0
  151.3623  137.7042  154.4500 C   0  0  2  0  0  0  0  0  0  0  0  0
  152.7381  138.3698  154.5829 C   0  0  0  0  0  0  0  0  0  0  0  0
  150.2842  138.7431  154.3335 C   0  0  0  0  0  0  0  0  0  0  0  0
  149.1614  138.6522  153.5641 N   0  3  0  0  0  0  0  0  0  0  0  0
  148.3942  139.8084  153.7064 C   0  0  0  0  0  0  0  0  0  0  0  0
  147.1850  140.1762  153.1240 C   0  0  0  0  0  0  0  0  0  0  0  0
  146.6696  141.4399  153.4798 C   0  0  0  0  0  0  0  0  0  0  0  0
  147.3517  142.2833  154.3804 C   0  0  0  0  0  0  0  0  0  0  0  0
  148.5752  141.8978  154.9666 C   0  0  0  0  0  0  0  0  0  0  0  0
  149.0774  140.6457  154.6118 C   0  0  0  0  0  0  0  0  0  0  0  0
  150.2321  139.9439  154.9796 N   0  0  0  0  0  0  0  0  0  0  0  0
  151.1747  140.5466  155.9364 C   0  0  0  0  0  0  0  0  0  0  0  0
  150.5206  140.8783  157.2924 C   0  0  1  0  0  0  0  0  0  0  0  0
  150.3779  139.7032  158.0664 O   0  0  0  0  0  0  0  0  0  0  0  0
  151.2940  141.9593  158.0291 C   0  0  0  0  0  0  0  0  0  0  0  0
  151.4342  143.2489  157.4705 C   0  0  0  0  0  0  0  0  0  0  0  0
  152.1494  144.2470  158.1605 C   0  0  0  0  0  0  0  0  0  0  0  0
  152.7260  143.9623  159.4131 C   0  0  0  0  0  0  0  0  0  0  0  0
  152.5848  142.6796  159.9769 C   0  0  0  0  0  0  0  0  0  0  0  0
  151.8698  141.6809  159.2873 C   0  0  0  0  0  0  0  0  0  0  0  0
  150.3551  135.4491  157.6452 H   0  0  0  0  0  0  0  0  0  0  0  0
  151.3431  134.1778  156.9115 H   0  0  0  0  0  0  0  0  0  0  0  0
  149.5825  134.1336  156.7565 H   0  0  0  0  0  0  0  0  0  0  0  0
  151.4814  137.0939  156.4753 H   0  0  0  0  0  0  0  0  0  0  0  0
  151.3696  137.1043  153.5391 H   0  0  0  0  0  0  0  0  0  0  0  0
  152.9456  139.0117  153.7262 H   0  0  0  0  0  0  0  0  0  0  0  0
  153.5316  137.6236  154.6332 H   0  0  0  0  0  0  0  0  0  0  0  0
  152.8003  138.9840  155.4820 H   0  0  0  0  0  0  0  0  0  0  0  0
  146.6624  139.5333  152.4310 H   0  0  0  0  0  0  0  0  0  0  0  0
  145.7344  141.7706  153.0517 H   0  0  0  0  0  0  0  0  0  0  0  0
  146.9293  143.2468  154.6265 H   0  0  0  0  0  0  0  0  0  0  0  0
  149.0913  142.5562  155.6495 H   0  0  0  0  0  0  0  0  0  0  0  0
  152.0350  139.8886  156.0602 H   0  0  0  0  0  0  0  0  0  0  0  0
  151.5613  141.4573  155.4775 H   0  0  0  0  0  0  0  0  0  0  0  0
  149.5124  141.2503  157.1105 H   0  0  0  0  0  0  0  0  0  0  0  0
  150.7923  138.9903  157.6045 H   0  0  0  0  0  0  0  0  0  0  0  0
  150.9926  143.4768  156.5114 H   0  0  0  0  0  0  0  0  0  0  0  0
  152.2552  145.2312  157.7284 H   0  0  0  0  0  0  0  0  0  0  0  0
  153.2752  144.7275  159.9415 H   0  0  0  0  0  0  0  0  0  0  0  0
  153.0249  142.4613  160.9387 H   0  0  0  0  0  0  0  0  0  0  0  0
  151.7658  140.7005  159.7287 H   0  0  0  0  0  0  0  0  0  0  0  0
  148.9437  137.8570  152.9777 H   0  0  0  0  0  0  0  0  0  0  0  0
  1  2  1  0  0  0  0
  1 25  1  0  0  0  0
  1 26  1  0  0  0  0
  1 27  1  0  0  0  0
  2  3  2  0  0  0  0
  2  4  1  0  0  0  0
  4  5  1  0  0  0  0
  4 28  1  0  0  0  0
  5  6  1  0  0  0  0
  5  7  1  0  0  0  0
  5 29  1  0  0  0  0
  6 30  1  0  0  0  0
  6 31  1  0  0  0  0
  6 32  1  0  0  0  0
  7 15  1  0  0  0  0
  7  8  2  0  0  0  0
  8  9  1  0  0  0  0
  8 46  1  0  0  0  0
  9 14  2  0  0  0  0
  9 10  1  0  0  0  0
 10 11  2  0  0  0  0
 10 33  1  0  0  0  0
 11 12  1  0  0  0  0
 11 34  1  0  0  0  0
 12 13  2  0  0  0  0
 12 35  1  0  0  0  0
 13 14  1  0  0  0  0
 13 36  1  0  0  0  0
 14 15  1  0  0  0  0
 15 16  1  0  0  0  0
 16 17  1  0  0  0  0
 16 37  1  0  0  0  0
 16 38  1  0  0  0  0
 17 18  1  0  0  0  0
 17 19  1  0  0  0  0
 17 39  1  0  0  0  0
 18 40  1  0  0  0  0
 19 24  1  0  0  0  0
 19 20  2  0  0  0  0
 20 21  1  0  0  0  0
 20 41  1  0  0  0  0
 21 22  2  0  0  0  0
 21 42  1  0  0  0  0
 22 23  1  0  0  0  0
 22 43  1  0  0  0  0
 23 24  2  0  0  0  0
 23 44  1  0  0  0  0
 24 45  1  0  0  0  0
M  CHG  1   8   1
M  END
> <s_m_source_file>
AV-unprocessed.smi

> <i_m_source_file_index>
447

> <i_lp_mmshare_version>
43012

> <i_f3d_flags>
0

> <s_epik_input>
W0NIM11DKD1PKVtOSF1bQ0BIXShbQ0gzXSljKG4xKW4oYyhjMTIpW2NIXVtjSF1bY0hdW2NIXTIpW0NIMl1bQ0BIXShbT0hdKWMzW2NIXVtjSF1bY0hdW2NIXVtjSF0z

> <s_epik_cmdline>
J2VwaWtfcHl0aG9uJywgJy1waCcsICc3LjAnLCAnLXRuJywgJzgnLCAnLW1hJywgJzIwMCcsICctbWV0YWxfYmluZGluZycsICctaW1hZScsICc8aW5maWxlLm1hZT4nLCAnLW9tYWUnLCAnPG91dGZpbGUubWFlPic=

> <r_epik_Ionization_Penalty>
0.950381

> <r_epik_Ionization_Penalty_Charging>
0.950379

> <r_epik_Ionization_Penalty_Neutral>
1.42115e-06

> <r_epik_State_Penalty>
0.994584

> <r_epik_Charging_Adjusted_Penalty>
1.94496

> <i_epik_Tot_Q>
1

> <i_epik_Tot_abs_Q>
1

> <r_epik_Metal_State_Penalty>
1.10485

> <b_epik_Metal_Only>
0

> <s_lp_Force_Field>
OPLS_2005

> <r_lp_Energy>
11.1979

> <b_lp_Chiralities_Consistent>
1

> <s_lp_Variant>
AV-unprocessed.smi:447-7

> <Gold.Version>
5.8.1

> <Gold.Id.Protein>
6NUR|6NUR_protein|mol2

> <Gold.PLP.Fitness>
56.2931

> <Gold.PLP.PLP>
-52.6635

> <Gold.PLP.part.hbond>
-2.0000

> <Gold.PLP.part.metal>
0.0000

> <Gold.PLP.part.buried>
0.7684

> <Gold.PLP.part.nonpolar>
-52.7627

> <Gold.PLP.part.repulsive>
1.1237

> <Gold.PLP.ligand.clash>
0.0000

> <Gold.PLP.ligand.torsion>
1.2379

> <Gold.PLP.Chemscore.Hbond>
2.0000

> <Gold.PLP.Chemscore.CHOScore>
0.0000

> <Gold.PLP.Chemscore.Metal>
0.0000

> <Gold.Chemscore.Hbonds>
donor molecule, donor type, donor heavy atom, donor atom, acceptor molecule, acceptor atom, score
      L1  H     8    46       P1  7948  2.00

> <Gold.PLP.Chemscore.Internal.Correction>
0.1055

> <Gold.Rescore>
     Score         DG    S(hbond)    S(metal)    S(lipo)     H(rot)  DE(clash)    DE(int)     intcor
     15.69     -19.50       0.98        0.00     144.76       2.41       1.55       2.26       ----

> <Gold.Chemscore.Fitness>
15.6912

> <Gold.Chemscore.DG>
-19.5024

> <Gold.Chemscore.ZeroCoef>
-5.4800

> <Gold.Chemscore.Hbond>
0.9756

> <Gold.Chemscore.Metal>
0.0000

> <Gold.Chemscore.Lipo>
144.7555

> <Gold.Chemscore.Internal_Hbond>
0.0000

> <Gold.Chemscore.DEClash>
1.5470

> <Gold.Chemscore.DEInternal>
2.2642

> <Gold.Chemscore.Rot>
2.4112

> <Gold.Chemscore.Internal.Correction>
   9.000000E+99

> <Gold.Chemscore.Hbonds>
donor molecule, donor type, donor heavy atom, donor atom, acceptor molecule, acceptor atom, score
      L1  H     8    46       P1  7948  0.99

> <Gold.Chemscore.Hbond.Weighted>
-3.2586

> <Gold.Chemscore.Metal.Weighted>
-0.0000

> <Gold.Chemscore.Lipo.Weighted>
-16.9364

> <Gold.Chemscore.Internal_Hbond.Weighted>
0.0000

> <Gold.Chemscore.DEClash.Weighted>
1.5470

> <Gold.Chemscore.DEInternal.Weighted>
2.2642

> <Gold.Chemscore.Rot.Weighted>
6.1727

> <Gold.Chemscore.Internal.Correction.Weighted>
   9.000000E+99

> <Gold.Protein.RotatedTorsions>
[ 6907 6896 6895 6894 ] final  135.67 input  -60.11 | X-H torsion
[ 7974 7965 7964 7962 ] final -158.60 input  175.53 | X-H torsion
[ 8008 7997 7996 7995 ] final -154.73 input   59.86 | X-H torsion
[ 10167 10162 10161 10158 ] final  123.30 input  -65.29 | X-H torsion
[ 10718 10713 10712 10709 ] final  -82.90 input   66.30 | X-H torsion
[ 10763 10752 10751 10750 ] final   58.97 input  -60.55 | X-H torsion
[ 11005 11000 10999 10996 ] final -108.96 input  -57.11 | X-H torsion

> <Gold.Protein.ActiveResidues>
 VAL166  LYS551  ARG553  GLY616  TRP617  ASP618  TYR619  PRO620  LYS621  CYS622 
 ASP623  PHE694  ASN695  SER759  ASP760  ASP761  ALA762  ILE779  LEU786  VAL792 
 PHE793  MET794  SER795  GLU796  ALA797  LYS798  CYS799  TRP800  GLU811  SER814 

> <Gold.Protein.RotatedAtoms>
  152.2979  133.5626  159.5599 H   0  0  0  0  0  0  0  0  0  0  0  0  # atno 6907 bound_to 6896
  150.7264  134.0334  159.3750 H   0  0  0  0  0  0  0  0  0  0  0  0  # atno 6908 bound_to 6896
  151.8236  135.0644  160.0479 H   0  0  0  0  0  0  0  0  0  0  0  0  # atno 6909 bound_to 6896
  144.7499  140.3805  143.6056 H   0  0  0  0  0  0  0  0  0  0  0  0  # atno 7974 bound_to 7965
  155.6909  140.0755  157.2448 H   0  0  0  0  0  0  0  0  0  0  0  0  # atno 8008 bound_to 7997
  154.4089  140.1665  156.2138 H   0  0  0  0  0  0  0  0  0  0  0  0  # atno 8009 bound_to 7997
  155.9452  140.3381  155.6364 H   0  0  0  0  0  0  0  0  0  0  0  0  # atno 8010 bound_to 7997
  139.5808  144.6985  151.3534 H   0  0  0  0  0  0  0  0  0  0  0  0  # atno 10167 bound_to 10162
  156.0026  130.4649  150.4176 H   0  0  0  0  0  0  0  0  0  0  0  0  # atno 10718 bound_to 10713
  152.9883  135.5588  154.5638 H   0  0  0  0  0  0  0  0  0  0  0  0  # atno 10763 bound_to 10752
  154.5052  135.2799  155.1390 H   0  0  0  0  0  0  0  0  0  0  0  0  # atno 10764 bound_to 10752
  154.2804  135.6346  153.5398 H   0  0  0  0  0  0  0  0  0  0  0  0  # atno 10765 bound_to 10752
  141.0873  133.9116  157.2155 H   0  0  0  0  0  0  0  0  0  0  0  0  # atno 11005 bound_to 11000
  145.6982  139.1655  143.2608 LP  0  0  0  0  0  0  0  0  0  0  0  0  # atno 17320 bound_to 7965
  146.1434  140.7026  142.9356 LP  0  0  0  0  0  0  0  0  0  0  0  0  # atno 17321 bound_to 7965
  140.7086  143.7449  150.7526 LP  0  0  0  0  0  0  0  0  0  0  0  0  # atno 17342 bound_to 10162
  140.0981  143.4814  152.2441 LP  0  0  0  0  0  0  0  0  0  0  0  0  # atno 17343 bound_to 10162
  157.2234  131.0487  151.2533 LP  0  0  0  0  0  0  0  0  0  0  0  0  # atno 17370 bound_to 10713
  157.3779  130.7215  149.6609 LP  0  0  0  0  0  0  0  0  0  0  0  0  # atno 17371 bound_to 10713
  139.9694  135.0133  156.9472 LP  0  0  0  0  0  0  0  0  0  0  0  0  # atno 17394 bound_to 11000
  140.5332  134.0792  155.7321 LP  0  0  0  0  0  0  0  0  0  0  0  0  # atno 17395 bound_to 11000

$$$$
