AV-unprocessed.smi:1218|AV-procd|sdf|5111|dock2
  -GOLD-   22720 4163D 1   1.00000     0.00000
 Structure written by MMmdl.
 44 45  0  0  0  0  0  0  0  0  1 V2000
  152.6485  142.7160  160.1214 C   0  0  0  0  0  0  0  0  0  0  0  0
  152.5834  143.2903  158.6971 C   0  0  0  0  0  0  0  0  0  0  0  0
  152.6180  144.8252  158.7342 C   0  0  0  0  0  0  0  0  0  0  0  0
  151.3318  142.7972  157.9393 C   0  0  0  0  0  0  0  0  0  0  0  0
  151.4121  141.4447  157.3843 N   0  0  0  0  0  0  0  0  0  0  0  0
  150.4483  141.2181  156.3094 C   0  0  0  0  0  0  0  0  0  0  0  0
  150.5189  139.7802  155.7690 C   0  0  0  0  0  0  0  0  0  0  0  0
  150.3235  138.8615  156.8377 O   0  0  0  0  0  0  0  0  0  0  0  0
  151.2886  139.0040  157.8775 C   0  0  2  0  0  0  0  0  0  0  0  0
  151.0083  137.9578  158.9694 C   0  0  0  0  0  0  0  0  0  0  0  0
  149.6697  138.1138  159.5285 N   0  0  0  0  0  0  0  0  0  0  0  0
  148.7744  137.1254  159.6833 C   0  0  0  0  0  0  0  0  0  0  0  0
  148.9832  135.9599  159.3475 O   0  0  0  0  0  0  0  0  0  0  0  0
  147.4393  137.5052  160.3259 C   0  0  0  0  0  0  0  0  0  0  0  0
  147.2357  136.8058  161.5827 N   0  0  0  0  0  0  0  0  0  0  0  0
  147.9841  136.8851  162.7391 C   0  0  0  0  0  0  0  0  0  0  0  0
  147.4087  136.0502  163.6535 C   0  0  0  0  0  0  0  0  0  0  0  0
  146.2972  135.4995  162.9563 C   0  0  0  0  0  0  0  0  0  0  0  0
  146.1964  135.9528  161.7172 N   0  0  0  0  0  0  0  0  0  0  0  0
  151.2035  140.4429  158.4250 C   0  0  0  0  0  0  0  0  0  0  0  0
  151.7756  143.0077  160.7064 H   0  0  0  0  0  0  0  0  0  0  0  0
  153.5352  143.0703  160.6480 H   0  0  0  0  0  0  0  0  0  0  0  0
  152.6916  141.6267  160.1080 H   0  0  0  0  0  0  0  0  0  0  0  0
  153.4784  142.9734  158.1631 H   0  0  0  0  0  0  0  0  0  0  0  0
  151.7528  145.2291  159.2608 H   0  0  0  0  0  0  0  0  0  0  0  0
  152.6199  145.2426  157.7269 H   0  0  0  0  0  0  0  0  0  0  0  0
  153.5141  145.1865  159.2396 H   0  0  0  0  0  0  0  0  0  0  0  0
  150.4871  142.8476  158.6283 H   0  0  0  0  0  0  0  0  0  0  0  0
  151.0976  143.4982  157.1366 H   0  0  0  0  0  0  0  0  0  0  0  0
  149.4380  141.4176  156.6697 H   0  0  0  0  0  0  0  0  0  0  0  0
  150.6286  141.9051  155.4837 H   0  0  0  0  0  0  0  0  0  0  0  0
  149.7480  139.6197  155.0153 H   0  0  0  0  0  0  0  0  0  0  0  0
  151.4807  139.5931  155.2891 H   0  0  0  0  0  0  0  0  0  0  0  0
  152.2856  138.8320  157.4670 H   0  0  0  0  0  0  0  0  0  0  0  0
  151.0700  136.9567  158.5419 H   0  0  0  0  0  0  0  0  0  0  0  0
  151.7689  138.0037  159.7509 H   0  0  0  0  0  0  0  0  0  0  0  0
  149.4069  139.0405  159.8322 H   0  0  0  0  0  0  0  0  0  0  0  0
  147.4090  138.5787  160.5171 H   0  0  0  0  0  0  0  0  0  0  0  0
  146.6211  137.2787  159.6402 H   0  0  0  0  0  0  0  0  0  0  0  0
  148.8541  137.5210  162.8123 H   0  0  0  0  0  0  0  0  0  0  0  0
  147.7313  135.8625  164.6667 H   0  0  0  0  0  0  0  0  0  0  0  0
  145.5652  134.7892  163.3115 H   0  0  0  0  0  0  0  0  0  0  0  0
  151.9483  140.5713  159.2115 H   0  0  0  0  0  0  0  0  0  0  0  0
  150.2290  140.5952  158.8919 H   0  0  0  0  0  0  0  0  0  0  0  0
  1  2  1  0  0  0  0
  1 21  1  0  0  0  0
  1 22  1  0  0  0  0
  1 23  1  0  0  0  0
  2  3  1  0  0  0  0
  2  4  1  0  0  0  0
  2 24  1  0  0  0  0
  3 25  1  0  0  0  0
  3 26  1  0  0  0  0
  3 27  1  0  0  0  0
  4  5  1  0  0  0  0
  4 28  1  0  0  0  0
  4 29  1  0  0  0  0
  5 20  1  0  0  0  0
  5  6  1  0  0  0  0
  6  7  1  0  0  0  0
  6 30  1  0  0  0  0
  6 31  1  0  0  0  0
  7  8  1  0  0  0  0
  7 32  1  0  0  0  0
  7 33  1  0  0  0  0
  8  9  1  0  0  0  0
  9 10  1  0  0  0  0
  9 20  1  0  0  0  0
  9 34  1  0  0  0  0
 10 11  1  0  0  0  0
 10 35  1  0  0  0  0
 10 36  1  0  0  0  0
 11 12  1  0  0  0  0
 11 37  1  0  0  0  0
 12 13  2  0  0  0  0
 12 14  1  0  0  0  0
 14 15  1  0  0  0  0
 14 38  1  0  0  0  0
 14 39  1  0  0  0  0
 15 19  1  0  0  0  0
 15 16  1  0  0  0  0
 16 17  2  0  0  0  0
 16 40  1  0  0  0  0
 17 18  1  0  0  0  0
 17 41  1  0  0  0  0
 18 19  2  0  0  0  0
 18 42  1  0  0  0  0
 20 43  1  0  0  0  0
 20 44  1  0  0  0  0
M  END
> <s_m_source_file>
AV-unprocessed.smi

> <i_m_source_file_index>
1218

> <i_lp_mmshare_version>
43012

> <i_f3d_flags>
0

> <s_epik_input>
W0NIM11bQ0hdKFtDSDNdKVtDSDJdTjFbQ0gyXVtDSDJdT1tDQEhdKFtDSDJdMSlbQ0gyXVtOSF1DKD1PKVtDSDJdbjJbY0hdW2NIXVtjSF1uMg==

> <s_epik_cmdline>
J2VwaWtfcHl0aG9uJywgJy1waCcsICc3LjAnLCAnLXRuJywgJzgnLCAnLW1hJywgJzIwMCcsICctbWV0YWxfYmluZGluZycsICctaW1hZScsICc8aW5maWxlLm1hZT4nLCAnLW9tYWUnLCAnPG91dGZpbGUubWFlPic=

> <r_lp_tautomer_probability>
1

> <r_epik_Ionization_Penalty>
1.10621

> <r_epik_Ionization_Penalty_Charging>
0

> <r_epik_Ionization_Penalty_Neutral>
1.10621

> <r_epik_State_Penalty>
1.16377

> <r_epik_Charging_Adjusted_Penalty>
1.16377

> <i_epik_Tot_Q>
0

> <i_epik_Tot_abs_Q>
0

> <r_epik_Metal_State_Penalty>
1.16377

> <b_epik_Metal_Only>
0

> <s_lp_Force_Field>
OPLS_2005

> <r_lp_Energy>
24.8608

> <b_lp_Chiralities_Consistent>
1

> <s_lp_Variant>
AV-unprocessed.smi:1218-6

> <Gold.Version>
5.8.1

> <Gold.Id.Protein>
6NUR|6NUR_protein|mol2

> <Gold.PLP.Fitness>
45.1619

> <Gold.PLP.PLP>
-42.9675

> <Gold.PLP.part.hbond>
-1.0000

> <Gold.PLP.part.metal>
0.0000

> <Gold.PLP.part.buried>
-4.6283

> <Gold.PLP.part.nonpolar>
-38.5500

> <Gold.PLP.part.repulsive>
0.2500

> <Gold.PLP.ligand.clash>
0.0000

> <Gold.PLP.ligand.torsion>
0.4429

> <Gold.PLP.Chemscore.Hbond>
1.0000

> <Gold.PLP.Chemscore.CHOScore>
0.0000

> <Gold.PLP.Chemscore.Metal>
0.0000

> <Gold.Chemscore.Hbonds>
donor molecule, donor type, donor heavy atom, donor atom, acceptor molecule, acceptor atom, score
      P1  H  6896  6908       L1    13  0.49

> <Gold.PLP.Chemscore.Internal.Correction>
0.0803

> <Gold.Rescore>
     Score         DG    S(hbond)    S(metal)    S(lipo)     H(rot)  DE(clash)    DE(int)     intcor
     13.82     -16.40       1.00        0.00     106.35       1.90       0.13       2.46       ----

> <Gold.Chemscore.Fitness>
13.8151

> <Gold.Chemscore.DG>
-16.4027

> <Gold.Chemscore.ZeroCoef>
-5.4800

> <Gold.Chemscore.Hbond>
0.9989

> <Gold.Chemscore.Metal>
0.0000

> <Gold.Chemscore.Lipo>
106.3483

> <Gold.Chemscore.Internal_Hbond>
0.0000

> <Gold.Chemscore.DEClash>
0.1314

> <Gold.Chemscore.DEInternal>
2.4562

> <Gold.Chemscore.Rot>
1.8970

> <Gold.Chemscore.Internal.Correction>
   9.000000E+99

> <Gold.Chemscore.Hbonds>
donor molecule, donor type, donor heavy atom, donor atom, acceptor molecule, acceptor atom, score
      P1  H  6896  6908       L1    13  0.48

> <Gold.Chemscore.Hbond.Weighted>
-3.3364

> <Gold.Chemscore.Metal.Weighted>
-0.0000

> <Gold.Chemscore.Lipo.Weighted>
-12.4427

> <Gold.Chemscore.Internal_Hbond.Weighted>
0.0000

> <Gold.Chemscore.DEClash.Weighted>
0.1314

> <Gold.Chemscore.DEInternal.Weighted>
2.4562

> <Gold.Chemscore.Rot.Weighted>
4.8564

> <Gold.Chemscore.Internal.Correction.Weighted>
   9.000000E+99

> <Gold.Protein.RotatedTorsions>
[ 6907 6896 6895 6894 ] final  161.76 input  -60.11 | X-H torsion
[ 7974 7965 7964 7962 ] final  -72.25 input  175.53 | X-H torsion
[ 8008 7997 7996 7995 ] final  -82.85 input   59.86 | X-H torsion
[ 10167 10162 10161 10158 ] final   82.30 input  -65.29 | X-H torsion
[ 10718 10713 10712 10709 ] final   86.61 input   66.30 | X-H torsion
[ 10763 10752 10751 10750 ] final  -75.06 input  -60.55 | X-H torsion
[ 11005 11000 10999 10996 ] final -132.91 input  -57.11 | X-H torsion

> <Gold.Protein.ActiveResidues>
 VAL166  LYS551  ARG553  GLY616  TRP617  ASP618  TYR619  PRO620  LYS621  CYS622 
 ASP623  PHE694  ASN695  SER759  ASP760  ASP761  ALA762  ILE779  LEU786  VAL792 
 PHE793  MET794  SER795  GLU796  ALA797  LYS798  CYS799  TRP800  GLU811  SER814 

> <Gold.Protein.RotatedAtoms>
  151.9507  133.3665  159.3998 H   0  0  0  0  0  0  0  0  0  0  0  0  # atno 6907 bound_to 6896
  150.6981  134.4343  159.5272 H   0  0  0  0  0  0  0  0  0  0  0  0  # atno 6908 bound_to 6896
  152.2016  134.8583  160.0558 H   0  0  0  0  0  0  0  0  0  0  0  0  # atno 6909 bound_to 6896
  145.6676  140.9232  143.0900 H   0  0  0  0  0  0  0  0  0  0  0  0  # atno 7974 bound_to 7965
  154.6129  140.0627  156.9517 H   0  0  0  0  0  0  0  0  0  0  0  0  # atno 8008 bound_to 7997
  155.1944  140.3310  155.4335 H   0  0  0  0  0  0  0  0  0  0  0  0  # atno 8009 bound_to 7997
  156.2387  140.1875  156.7031 H   0  0  0  0  0  0  0  0  0  0  0  0  # atno 8010 bound_to 7997
  139.9303  144.6156  150.8352 H   0  0  0  0  0  0  0  0  0  0  0  0  # atno 10167 bound_to 10162
  157.6931  131.0222  150.2999 H   0  0  0  0  0  0  0  0  0  0  0  0  # atno 10718 bound_to 10713
  154.4815  135.5844  153.6393 H   0  0  0  0  0  0  0  0  0  0  0  0  # atno 10763 bound_to 10752
  152.9848  135.6091  154.3240 H   0  0  0  0  0  0  0  0  0  0  0  0  # atno 10764 bound_to 10752
  154.3132  135.2844  155.2535 H   0  0  0  0  0  0  0  0  0  0  0  0  # atno 10765 bound_to 10752
  140.9128  134.1545  157.4376 H   0  0  0  0  0  0  0  0  0  0  0  0  # atno 11005 bound_to 11000
  144.7068  139.8530  143.7427 LP  0  0  0  0  0  0  0  0  0  0  0  0  # atno 17320 bound_to 7965
  146.1073  139.4074  143.0310 LP  0  0  0  0  0  0  0  0  0  0  0  0  # atno 17321 bound_to 7965
  140.7639  143.3235  151.2568 LP  0  0  0  0  0  0  0  0  0  0  0  0  # atno 17342 bound_to 10162
  139.6788  143.9891  152.2796 LP  0  0  0  0  0  0  0  0  0  0  0  0  # atno 17343 bound_to 10162
  156.3517  130.3832  149.7324 LP  0  0  0  0  0  0  0  0  0  0  0  0  # atno 17370 bound_to 10713
  156.4799  130.8036  151.3051 LP  0  0  0  0  0  0  0  0  0  0  0  0  # atno 17371 bound_to 10713
  139.8760  134.9942  156.5683 LP  0  0  0  0  0  0  0  0  0  0  0  0  # atno 17394 bound_to 11000
  140.8088  133.8446  155.8791 LP  0  0  0  0  0  0  0  0  0  0  0  0  # atno 17395 bound_to 11000

$$$$
