AV-unprocessed.smi:831|AV-procd|sdf|3874|dock5
  -GOLD-   22720 1323D 1   1.00000     0.00000
 Structure written by MMmdl.
 50 51  0  0  0  0  0  0  0  0  1 V2000
  144.6813  134.9463  152.2905 C   0  0  0  0  0  0  0  0  0  0  0  0
  145.0760  136.3304  151.7563 C   0  0  0  0  0  0  0  0  0  0  0  0
  145.5392  136.2396  150.2937 C   0  0  0  0  0  0  0  0  0  0  0  0
  146.1488  136.9806  152.6444 C   0  0  0  0  0  0  0  0  0  0  0  0
  146.3042  138.3430  152.2629 O   0  0  0  0  0  0  0  0  0  0  0  0
  146.5387  139.2510  153.3345 C   0  0  2  0  0  0  0  0  0  0  0  0
  146.2843  140.6652  152.7934 C   0  0  0  0  0  0  0  0  0  0  0  0
  147.9937  139.1081  153.8290 C   0  0  0  0  0  0  0  0  0  0  0  0
  148.2041  138.6411  154.9470 O   0  0  0  0  0  0  0  0  0  0  0  0
  149.0144  139.5137  153.0557 N   0  0  0  0  0  0  0  0  0  0  0  0
  150.4386  139.4525  153.3657 C   0  0  0  0  0  0  0  0  0  0  0  0
  150.8461  140.2689  154.5838 C   0  0  0  0  0  0  0  0  0  0  0  0
  149.9482  141.1150  155.2702 C   0  0  0  0  0  0  0  0  0  0  0  0
  150.4036  141.8276  156.3953 C   0  0  0  0  0  0  0  0  0  0  0  0
  151.7472  141.6775  156.8124 C   0  0  0  0  0  0  0  0  0  0  0  0
  152.2237  142.3862  157.9364 N   0  0  0  0  0  0  0  0  0  0  0  0
  151.4066  143.4810  158.4565 C   0  0  0  0  0  0  0  0  0  0  0  0
  152.2092  144.3106  159.4731 C   0  0  0  0  0  0  0  0  0  0  0  0
  152.7055  143.4594  160.5007 O   0  0  0  0  0  0  0  0  0  0  0  0
  153.5868  142.4669  159.9861 C   0  0  0  0  0  0  0  0  0  0  0  0
  152.8370  141.5730  158.9834 C   0  0  0  0  0  0  0  0  0  0  0  0
  152.6033  140.8535  156.1593 N   0  0  0  0  0  0  0  0  0  0  0  0
  152.1621  140.1740  155.0798 C   0  0  0  0  0  0  0  0  0  0  0  0
  145.5308  134.2626  152.2869 H   0  0  0  0  0  0  0  0  0  0  0  0
  143.8927  134.5013  151.6831 H   0  0  0  0  0  0  0  0  0  0  0  0
  144.3095  135.0104  153.3135 H   0  0  0  0  0  0  0  0  0  0  0  0
  144.1860  136.9602  151.7893 H   0  0  0  0  0  0  0  0  0  0  0  0
  146.4358  135.6263  150.1993 H   0  0  0  0  0  0  0  0  0  0  0  0
  145.7688  137.2253  149.8882 H   0  0  0  0  0  0  0  0  0  0  0  0
  144.7669  135.7988  149.6631 H   0  0  0  0  0  0  0  0  0  0  0  0
  145.8464  136.9378  153.6919 H   0  0  0  0  0  0  0  0  0  0  0  0
  147.0850  136.4282  152.5555 H   0  0  0  0  0  0  0  0  0  0  0  0
  145.8108  139.0568  154.1211 H   0  0  0  0  0  0  0  0  0  0  0  0
  146.4453  141.4186  153.5652 H   0  0  0  0  0  0  0  0  0  0  0  0
  145.2559  140.7658  152.4454 H   0  0  0  0  0  0  0  0  0  0  0  0
  146.9396  140.8990  151.9533 H   0  0  0  0  0  0  0  0  0  0  0  0
  148.7730  139.9250  152.1660 H   0  0  0  0  0  0  0  0  0  0  0  0
  150.7272  138.4167  153.5488 H   0  0  0  0  0  0  0  0  0  0  0  0
  151.0062  139.8032  152.5023 H   0  0  0  0  0  0  0  0  0  0  0  0
  148.9205  141.2210  154.9556 H   0  0  0  0  0  0  0  0  0  0  0  0
  149.7160  142.4645  156.9317 H   0  0  0  0  0  0  0  0  0  0  0  0
  151.0779  144.1275  157.6417 H   0  0  0  0  0  0  0  0  0  0  0  0
  150.5133  143.0722  158.9307 H   0  0  0  0  0  0  0  0  0  0  0  0
  153.0356  144.8297  158.9848 H   0  0  0  0  0  0  0  0  0  0  0  0
  151.5734  145.0745  159.9206 H   0  0  0  0  0  0  0  0  0  0  0  0
  154.4501  142.9401  159.5153 H   0  0  0  0  0  0  0  0  0  0  0  0
  153.9661  141.8665  160.8134 H   0  0  0  0  0  0  0  0  0  0  0  0
  152.0536  141.0139  159.4970 H   0  0  0  0  0  0  0  0  0  0  0  0
  153.5310  140.8409  158.5735 H   0  0  0  0  0  0  0  0  0  0  0  0
  152.8843  139.5315  154.5978 H   0  0  0  0  0  0  0  0  0  0  0  0
  1  2  1  0  0  0  0
  1 24  1  0  0  0  0
  1 25  1  0  0  0  0
  1 26  1  0  0  0  0
  2  3  1  0  0  0  0
  2  4  1  0  0  0  0
  2 27  1  0  0  0  0
  3 28  1  0  0  0  0
  3 29  1  0  0  0  0
  3 30  1  0  0  0  0
  4  5  1  0  0  0  0
  4 31  1  0  0  0  0
  4 32  1  0  0  0  0
  5  6  1  0  0  0  0
  6  7  1  0  0  0  0
  6  8  1  0  0  0  0
  6 33  1  0  0  0  0
  7 34  1  0  0  0  0
  7 35  1  0  0  0  0
  7 36  1  0  0  0  0
  8  9  2  0  0  0  0
  8 10  1  0  0  0  0
 10 11  1  0  0  0  0
 10 37  1  0  0  0  0
 11 12  1  0  0  0  0
 11 38  1  0  0  0  0
 11 39  1  0  0  0  0
 12 23  1  0  0  0  0
 12 13  2  0  0  0  0
 13 14  1  0  0  0  0
 13 40  1  0  0  0  0
 14 15  2  0  0  0  0
 14 41  1  0  0  0  0
 15 16  1  0  0  0  0
 15 22  1  0  0  0  0
 16 21  1  0  0  0  0
 16 17  1  0  0  0  0
 17 18  1  0  0  0  0
 17 42  1  0  0  0  0
 17 43  1  0  0  0  0
 18 19  1  0  0  0  0
 18 44  1  0  0  0  0
 18 45  1  0  0  0  0
 19 20  1  0  0  0  0
 20 21  1  0  0  0  0
 20 46  1  0  0  0  0
 20 47  1  0  0  0  0
 21 48  1  0  0  0  0
 21 49  1  0  0  0  0
 22 23  2  0  0  0  0
 23 50  1  0  0  0  0
M  END
> <s_m_source_file>
AV-unprocessed.smi

> <i_m_source_file_index>
831

> <i_lp_mmshare_version>
43012

> <i_f3d_flags>
0

> <s_epik_input>
W0NIM11bQ0hdKFtDSDNdKVtDSDJdT1tDQEhdKFtDSDNdKUMoPU8pW05IXVtDSDJdYzFbY0hdW2NIXWMobltjSF0xKU4yW0NIMl1bQ0gyXU9bQ0gyXVtDSDJdMg==

> <s_epik_cmdline>
J2VwaWtfcHl0aG9uJywgJy1waCcsICc3LjAnLCAnLXRuJywgJzgnLCAnLW1hJywgJzIwMCcsICctbWV0YWxfYmluZGluZycsICctaW1hZScsICc8aW5maWxlLm1hZT4nLCAnLW9tYWUnLCAnPG91dGZpbGUubWFlPic=

> <r_lp_tautomer_probability>
1

> <r_epik_Ionization_Penalty>
0.00456501

> <r_epik_Ionization_Penalty_Charging>
0

> <r_epik_Ionization_Penalty_Neutral>
0.00456501

> <r_epik_State_Penalty>
0.00329791

> <r_epik_Charging_Adjusted_Penalty>
0.00329791

> <i_epik_Tot_Q>
0

> <i_epik_Tot_abs_Q>
0

> <r_epik_Metal_State_Penalty>
-0

> <b_epik_Metal_Only>
0

> <s_lp_Force_Field>
OPLS_2005

> <r_lp_Energy>
23.9744

> <b_lp_Chiralities_Consistent>
1

> <s_lp_Variant>
AV-unprocessed.smi:831-1

> <Gold.Version>
5.8.1

> <Gold.Id.Protein>
6NUR|6NUR_protein|mol2

> <Gold.PLP.Fitness>
48.9649

> <Gold.PLP.PLP>
-44.1234

> <Gold.PLP.part.hbond>
-3.0000

> <Gold.PLP.part.metal>
0.0000

> <Gold.PLP.part.buried>
-3.5978

> <Gold.PLP.part.nonpolar>
-38.1705

> <Gold.PLP.part.repulsive>
0.7973

> <Gold.PLP.ligand.clash>
0.0000

> <Gold.PLP.ligand.torsion>
0.8285

> <Gold.PLP.Chemscore.Hbond>
2.0000

> <Gold.PLP.Chemscore.CHOScore>
0.0000

> <Gold.PLP.Chemscore.Metal>
0.0000

> <Gold.Chemscore.Hbonds>
donor molecule, donor type, donor heavy atom, donor atom, acceptor molecule, acceptor atom, score
      L1  H    10    37       P1  7957  0.22
      P1  H  7997  8010       L1    22  0.48

> <Gold.PLP.Chemscore.Internal.Correction>
0.4983

> <Gold.Rescore>
     Score         DG    S(hbond)    S(metal)    S(lipo)     H(rot)  DE(clash)    DE(int)     intcor
     17.13     -18.99       1.58        0.00     112.27       1.92       1.04       0.81       ----

> <Gold.Chemscore.Fitness>
17.1310

> <Gold.Chemscore.DG>
-18.9852

> <Gold.Chemscore.ZeroCoef>
-5.4800

> <Gold.Chemscore.Hbond>
1.5793

> <Gold.Chemscore.Metal>
0.0000

> <Gold.Chemscore.Lipo>
112.2658

> <Gold.Chemscore.Internal_Hbond>
0.0000

> <Gold.Chemscore.DEClash>
1.0441

> <Gold.Chemscore.DEInternal>
0.8102

> <Gold.Chemscore.Rot>
1.9159

> <Gold.Chemscore.Internal.Correction>
   9.000000E+99

> <Gold.Chemscore.Hbonds>
donor molecule, donor type, donor heavy atom, donor atom, acceptor molecule, acceptor atom, score
      L1  H    10    37       P1  7957  0.22
      P1  H  7997  8010       L1    22  0.30

> <Gold.Chemscore.Hbond.Weighted>
-5.2749

> <Gold.Chemscore.Metal.Weighted>
-0.0000

> <Gold.Chemscore.Lipo.Weighted>
-13.1351

> <Gold.Chemscore.Internal_Hbond.Weighted>
0.0000

> <Gold.Chemscore.DEClash.Weighted>
1.0441

> <Gold.Chemscore.DEInternal.Weighted>
0.8102

> <Gold.Chemscore.Rot.Weighted>
4.9047

> <Gold.Chemscore.Internal.Correction.Weighted>
   9.000000E+99

> <Gold.Protein.RotatedTorsions>
[ 6907 6896 6895 6894 ] final  159.16 input  -60.11 | X-H torsion
[ 7974 7965 7964 7962 ] final  103.04 input  175.53 | X-H torsion
[ 8008 7997 7996 7995 ] final   57.33 input   59.86 | X-H torsion
[ 10167 10162 10161 10158 ] final   32.10 input  -65.29 | X-H torsion
[ 10718 10713 10712 10709 ] final   95.61 input   66.30 | X-H torsion
[ 10763 10752 10751 10750 ] final  144.05 input  -60.55 | X-H torsion
[ 11005 11000 10999 10996 ] final   67.41 input  -57.11 | X-H torsion

> <Gold.Protein.ActiveResidues>
 VAL166  LYS551  ARG553  GLY616  TRP617  ASP618  TYR619  PRO620  LYS621  CYS622 
 ASP623  PHE694  ASN695  SER759  ASP760  ASP761  ALA762  ILE779  LEU786  VAL792 
 PHE793  MET794  SER795  GLU796  ALA797  LYS798  CYS799  TRP800  GLU811  SER814 

> <Gold.Protein.RotatedAtoms>
  151.9898  133.3787  159.4139 H   0  0  0  0  0  0  0  0  0  0  0  0  # atno 6907 bound_to 6896
  150.6923  134.3949  159.5102 H   0  0  0  0  0  0  0  0  0  0  0  0  # atno 6908 bound_to 6896
  152.1681  134.8857  160.0587 H   0  0  0  0  0  0  0  0  0  0  0  0  # atno 6909 bound_to 6896
  145.3511  139.2439  143.3557 H   0  0  0  0  0  0  0  0  0  0  0  0  # atno 7974 bound_to 7965
  155.5320  140.3482  155.4428 H   0  0  0  0  0  0  0  0  0  0  0  0  # atno 8008 bound_to 7997
  156.0711  140.1363  156.9854 H   0  0  0  0  0  0  0  0  0  0  0  0  # atno 8009 bound_to 7997
  154.4529  140.0965  156.6646 H   0  0  0  0  0  0  0  0  0  0  0  0  # atno 8010 bound_to 7997
  140.4529  144.1022  150.6195 H   0  0  0  0  0  0  0  0  0  0  0  0  # atno 10167 bound_to 10162
  157.6937  131.0551  150.4365 H   0  0  0  0  0  0  0  0  0  0  0  0  # atno 10718 bound_to 10713
  153.9824  135.2940  155.3419 H   0  0  0  0  0  0  0  0  0  0  0  0  # atno 10763 bound_to 10752
  154.7261  135.5088  153.8892 H   0  0  0  0  0  0  0  0  0  0  0  0  # atno 10764 bound_to 10752
  153.0848  135.6690  154.0086 H   0  0  0  0  0  0  0  0  0  0  0  0  # atno 10765 bound_to 10752
  139.9772  134.6802  156.0330 H   0  0  0  0  0  0  0  0  0  0  0  0  # atno 11005 bound_to 11000
  146.2967  140.4128  142.8719 LP  0  0  0  0  0  0  0  0  0  0  0  0  # atno 17320 bound_to 7965
  144.8717  140.7281  143.6043 LP  0  0  0  0  0  0  0  0  0  0  0  0  # atno 17321 bound_to 7965
  140.4186  143.2622  151.9744 LP  0  0  0  0  0  0  0  0  0  0  0  0  # atno 17342 bound_to 10162
  139.4798  144.5851  151.7867 LP  0  0  0  0  0  0  0  0  0  0  0  0  # atno 17343 bound_to 10162
  156.4727  130.4056  149.6508 LP  0  0  0  0  0  0  0  0  0  0  0  0  # atno 17370 bound_to 10713
  156.3582  130.7468  151.2436 LP  0  0  0  0  0  0  0  0  0  0  0  0  # atno 17371 bound_to 10713
  141.1448  133.6558  156.3836 LP  0  0  0  0  0  0  0  0  0  0  0  0  # atno 17394 bound_to 11000
  140.5169  134.6341  157.5304 LP  0  0  0  0  0  0  0  0  0  0  0  0  # atno 17395 bound_to 11000

$$$$
