AV-unprocessed.smi:1920|AV-procd|sdf|7779|dock5
  -GOLD-   22720 9523D 1   1.00000     0.00000
 Structure written by MMmdl.
 37 38  0  0  0  0  0  0  0  0  2 V2000
  150.3286  138.1070  154.4146 C   0  0  0  0  0  0  0  0  0  0  0  0
  149.6827  139.2552  155.2126 C   0  0  2  0  0  0  0  0  0  0  0  0
  149.5289  140.5506  154.3918 C   0  0  0  0  0  0  0  0  0  0  0  0
  148.1282  140.9307  154.1823 N   0  0  0  0  0  0  0  0  0  0  0  0
  147.5237  142.1019  154.5606 C   0  0  0  0  0  0  0  0  0  0  0  0
  146.2165  142.0156  154.1561 C   0  0  0  0  0  0  0  0  0  0  0  0
  146.0794  140.7977  153.5452 N   0  3  0  0  0  0  0  0  0  0  0  0
  147.2437  140.1406  153.5595 C   0  0  0  0  0  0  0  0  0  0  0  0
  150.4652  139.5409  156.4117 N   0  0  0  0  0  0  0  0  0  0  0  0
  151.7227  140.0105  156.4256 C   0  0  0  0  0  0  0  0  0  0  0  0
  152.3649  140.2547  155.4044 O   0  0  0  0  0  0  0  0  0  0  0  0
  152.3516  140.2380  157.8045 C   0  0  0  0  0  0  0  0  0  0  0  0
  151.6383  141.3257  158.6370 C   0  0  1  0  0  0  0  0  0  0  0  0
  152.4346  141.7955  159.8310 C   0  0  0  0  0  0  0  0  0  0  0  0
  152.5959  143.1165  159.8542 C   0  0  0  0  0  0  0  0  0  0  0  0
  151.9445  143.7971  158.6826 C   0  0  0  0  0  0  0  0  0  0  0  0
  151.3809  142.6306  157.8403 C   0  0  0  0  0  0  0  0  0  0  0  0
  149.7216  137.8281  153.5532 H   0  0  0  0  0  0  0  0  0  0  0  0
  150.4413  137.2127  155.0286 H   0  0  0  0  0  0  0  0  0  0  0  0
  151.3180  138.3852  154.0500 H   0  0  0  0  0  0  0  0  0  0  0  0
  148.6846  138.9372  155.5194 H   0  0  0  0  0  0  0  0  0  0  0  0
  150.0182  141.3832  154.8992 H   0  0  0  0  0  0  0  0  0  0  0  0
  150.0081  140.4487  153.4165 H   0  0  0  0  0  0  0  0  0  0  0  0
  148.0548  142.8881  155.0776 H   0  0  0  0  0  0  0  0  0  0  0  0
  145.3960  142.7116  154.2541 H   0  0  0  0  0  0  0  0  0  0  0  0
  147.4299  139.1627  153.1520 H   0  0  0  0  0  0  0  0  0  0  0  0
  150.0176  139.3699  157.3006 H   0  0  0  0  0  0  0  0  0  0  0  0
  152.3642  139.2987  158.3602 H   0  0  0  0  0  0  0  0  0  0  0  0
  153.3945  140.5193  157.6542 H   0  0  0  0  0  0  0  0  0  0  0  0
  150.6881  140.9402  159.0100 H   0  0  0  0  0  0  0  0  0  0  0  0
  152.8077  141.1143  160.5819 H   0  0  0  0  0  0  0  0  0  0  0  0
  153.1202  143.6668  160.6214 H   0  0  0  0  0  0  0  0  0  0  0  0
  151.1546  144.4635  159.0304 H   0  0  0  0  0  0  0  0  0  0  0  0
  152.6759  144.3832  158.1254 H   0  0  0  0  0  0  0  0  0  0  0  0
  151.8807  142.6030  156.8711 H   0  0  0  0  0  0  0  0  0  0  0  0
  150.3168  142.7660  157.6436 H   0  0  0  0  0  0  0  0  0  0  0  0
  145.2218  140.4437  153.1400 H   0  0  0  0  0  0  0  0  0  0  0  0
  1  2  1  0  0  0  0
  1 18  1  0  0  0  0
  1 19  1  0  0  0  0
  1 20  1  0  0  0  0
  2  3  1  0  0  0  0
  2  9  1  0  0  0  0
  2 21  1  0  0  0  0
  3  4  1  0  0  0  0
  3 22  1  0  0  0  0
  3 23  1  0  0  0  0
  4  8  1  0  0  0  0
  4  5  1  0  0  0  0
  5  6  2  0  0  0  0
  5 24  1  0  0  0  0
  6  7  1  0  0  0  0
  6 25  1  0  0  0  0
  7  8  2  0  0  0  0
  7 37  1  0  0  0  0
  8 26  1  0  0  0  0
  9 10  1  0  0  0  0
  9 27  1  0  0  0  0
 10 11  2  0  0  0  0
 10 12  1  0  0  0  0
 12 13  1  0  0  0  0
 12 28  1  0  0  0  0
 12 29  1  0  0  0  0
 13 17  1  0  0  0  0
 13 14  1  0  0  0  0
 13 30  1  0  0  0  0
 14 15  2  0  0  0  0
 14 31  1  0  0  0  0
 15 16  1  0  0  0  0
 15 32  1  0  0  0  0
 16 17  1  0  0  0  0
 16 33  1  0  0  0  0
 16 34  1  0  0  0  0
 17 35  1  0  0  0  0
 17 36  1  0  0  0  0
M  CHG  1   7   1
M  END
> <s_m_source_file>
AV-unprocessed.smi

> <i_m_source_file_index>
1920

> <i_lp_mmshare_version>
43012

> <i_f3d_flags>
0

> <s_epik_input>
W2NIXTFuW2NIXVtjSF1uMVtDSDJdW0NAQEhdKFtDSDNdKVtOSF1DKD1PKVtDSDJdW0NAQEhdMltDSF09W0NIXVtDSDJdW0NIMl0y

> <s_epik_cmdline>
J2VwaWtfcHl0aG9uJywgJy1waCcsICc3LjAnLCAnLXRuJywgJzgnLCAnLW1hJywgJzIwMCcsICctbWV0YWxfYmluZGluZycsICctaW1hZScsICc8aW5maWxlLm1hZT4nLCAnLW9tYWUnLCAnPG91dGZpbGUubWFlPic=

> <r_lp_tautomer_probability>
1

> <r_epik_Ionization_Penalty>
0.24816

> <r_epik_Ionization_Penalty_Charging>
0

> <r_epik_Ionization_Penalty_Neutral>
0.24816

> <r_epik_State_Penalty>
0.2394

> <r_epik_Charging_Adjusted_Penalty>
0.2394

> <i_epik_Tot_Q>
1

> <i_epik_Tot_abs_Q>
1

> <r_epik_Metal_State_Penalty>
0.531457

> <b_epik_Metal_Only>
0

> <s_lp_Force_Field>
OPLS_2005

> <r_lp_Energy>
20.8449

> <b_lp_Chiralities_Consistent>
1

> <s_lp_Variant>
AV-unprocessed.smi:1920-3

> <Gold.Version>
5.8.1

> <Gold.Id.Protein>
6NUR|6NUR_protein|mol2

> <Gold.PLP.Fitness>
48.5827

> <Gold.PLP.PLP>
-37.1529

> <Gold.PLP.part.hbond>
-3.0000

> <Gold.PLP.part.metal>
0.0000

> <Gold.PLP.part.buried>
1.2325

> <Gold.PLP.part.nonpolar>
-34.7109

> <Gold.PLP.part.repulsive>
0.0471

> <Gold.PLP.ligand.clash>
0.0000

> <Gold.PLP.ligand.torsion>
0.8577

> <Gold.PLP.Chemscore.Hbond>
3.3559

> <Gold.PLP.Chemscore.CHOScore>
1.0000

> <Gold.PLP.Chemscore.Metal>
0.0000

> <Gold.Chemscore.Hbonds>
donor molecule, donor type, donor heavy atom, donor atom, acceptor molecule, acceptor atom, score
      L1  H     7    37       P1 10175  2.00
      P1  H  7989  7998       L1    11  0.48
      P1  H  7997  8008       L1    11  0.76
      L1  C     5    24       P1  8028  1.00

> <Gold.PLP.Chemscore.Internal.Correction>
0.0775

> <Gold.Rescore>
     Score         DG    S(hbond)    S(metal)    S(lipo)     H(rot)  DE(clash)    DE(int)     intcor
     15.58     -17.45       1.93        0.00      91.35       2.01       0.11       1.75       ----

> <Gold.Chemscore.Fitness>
15.5797

> <Gold.Chemscore.DG>
-17.4472

> <Gold.Chemscore.ZeroCoef>
-5.4800

> <Gold.Chemscore.Hbond>
1.9260

> <Gold.Chemscore.Metal>
0.0000

> <Gold.Chemscore.Lipo>
91.3462

> <Gold.Chemscore.Internal_Hbond>
0.0000

> <Gold.Chemscore.DEClash>
0.1147

> <Gold.Chemscore.DEInternal>
1.7527

> <Gold.Chemscore.Rot>
2.0130

> <Gold.Chemscore.Internal.Correction>
   9.000000E+99

> <Gold.Chemscore.Hbonds>
donor molecule, donor type, donor heavy atom, donor atom, acceptor molecule, acceptor atom, score
      L1  H     7    37       P1 10175  0.96
      P1  H  7989  7998       L1    11  0.46
      P1  H  7997  8008       L1    11  0.45

> <Gold.Chemscore.Hbond.Weighted>
-6.4329

> <Gold.Chemscore.Metal.Weighted>
-0.0000

> <Gold.Chemscore.Lipo.Weighted>
-10.6875

> <Gold.Chemscore.Internal_Hbond.Weighted>
0.0000

> <Gold.Chemscore.DEClash.Weighted>
0.1147

> <Gold.Chemscore.DEInternal.Weighted>
1.7527

> <Gold.Chemscore.Rot.Weighted>
5.1533

> <Gold.Chemscore.Internal.Correction.Weighted>
   9.000000E+99

> <Gold.Protein.RotatedTorsions>
[ 6907 6896 6895 6894 ] final  -99.22 input  -60.11 | X-H torsion
[ 7974 7965 7964 7962 ] final   58.06 input  175.53 | X-H torsion
[ 8008 7997 7996 7995 ] final  -19.00 input   59.86 | X-H torsion
[ 10167 10162 10161 10158 ] final -172.16 input  -65.29 | X-H torsion
[ 10718 10713 10712 10709 ] final   71.31 input   66.30 | X-H torsion
[ 10763 10752 10751 10750 ] final -150.62 input  -60.55 | X-H torsion
[ 11005 11000 10999 10996 ] final  -88.57 input  -57.11 | X-H torsion

> <Gold.Protein.ActiveResidues>
 VAL166  LYS551  ARG553  GLY616  TRP617  ASP618  TYR619  PRO620  LYS621  CYS622 
 ASP623  PHE694  ASN695  SER759  ASP760  ASP761  ALA762  ILE779  LEU786  VAL792 
 PHE793  MET794  SER795  GLU796  ALA797  LYS798  CYS799  TRP800  GLU811  SER814 

> <Gold.Protein.RotatedAtoms>
  150.7072  134.1074  159.3987 H   0  0  0  0  0  0  0  0  0  0  0  0  # atno 6907 bound_to 6896
  151.9061  135.0356  160.0520 H   0  0  0  0  0  0  0  0  0  0  0  0  # atno 6908 bound_to 6896
  152.2374  133.5072  159.5287 H   0  0  0  0  0  0  0  0  0  0  0  0  # atno 6909 bound_to 6896
  145.9223  139.3740  143.0471 H   0  0  0  0  0  0  0  0  0  0  0  0  # atno 7974 bound_to 7965
  154.4867  140.2101  155.9640 H   0  0  0  0  0  0  0  0  0  0  0  0  # atno 8008 bound_to 7997
  156.1246  140.3207  155.8227 H   0  0  0  0  0  0  0  0  0  0  0  0  # atno 8009 bound_to 7997
  155.4406  140.0510  157.3001 H   0  0  0  0  0  0  0  0  0  0  0  0  # atno 8010 bound_to 7997
  139.5760  144.1531  152.1451 H   0  0  0  0  0  0  0  0  0  0  0  0  # atno 10167 bound_to 10162
  157.6445  130.9521  150.0771 H   0  0  0  0  0  0  0  0  0  0  0  0  # atno 10718 bound_to 10713
  154.8108  135.3280  154.7310 H   0  0  0  0  0  0  0  0  0  0  0  0  # atno 10763 bound_to 10752
  153.7960  135.6907  153.4868 H   0  0  0  0  0  0  0  0  0  0  0  0  # atno 10764 bound_to 10752
  153.1885  135.4560  155.0065 H   0  0  0  0  0  0  0  0  0  0  0  0  # atno 10765 bound_to 10752
  141.1599  133.7577  156.9470 H   0  0  0  0  0  0  0  0  0  0  0  0  # atno 11005 bound_to 11000
  145.8533  140.9516  143.0738 LP  0  0  0  0  0  0  0  0  0  0  0  0  # atno 17320 bound_to 7965
  144.6754  140.0436  143.7480 LP  0  0  0  0  0  0  0  0  0  0  0  0  # atno 17321 bound_to 7965
  140.1074  144.5487  150.6948 LP  0  0  0  0  0  0  0  0  0  0  0  0  # atno 17342 bound_to 10162
  140.7042  143.2456  151.4774 LP  0  0  0  0  0  0  0  0  0  0  0  0  # atno 17343 bound_to 10162
  156.1758  130.3648  149.9102 LP  0  0  0  0  0  0  0  0  0  0  0  0  # atno 17370 bound_to 10713
  156.7067  130.8954  151.3605 LP  0  0  0  0  0  0  0  0  0  0  0  0  # atno 17371 bound_to 10713
  140.1283  134.9372  157.2301 LP  0  0  0  0  0  0  0  0  0  0  0  0  # atno 17394 bound_to 11000
  140.2985  134.3159  155.7296 LP  0  0  0  0  0  0  0  0  0  0  0  0  # atno 17395 bound_to 11000

$$$$
