AV-unprocessed.smi:1349|AV-procd|sdf|5518|dock9
  -GOLD-   22720 5103D 1   1.00000     0.00000
 Structure written by MMmdl.
 42 44  0  0  0  0  0  0  0  0  1 V2000
  155.9431  139.8738  159.1566 O   0  0  0  0  0  0  0  0  0  0  0  0
  155.4160  139.9034  160.4667 C   0  0  0  0  0  0  0  0  0  0  0  0
  154.1541  139.0337  160.5646 C   0  0  0  0  0  0  0  0  0  0  0  0
  153.1656  139.2616  159.4083 C   0  0  0  0  0  0  0  0  0  0  0  0
  152.7100  140.6895  159.3130 C   0  0  0  0  0  0  0  0  0  0  0  0
  153.1815  141.6130  160.1528 N   0  0  0  0  0  0  0  0  0  0  0  0
  152.5204  142.7575  159.7567 C   0  0  0  0  0  0  0  0  0  0  0  0
  152.5797  144.0751  160.2647 C   0  0  0  0  0  0  0  0  0  0  0  0
  151.7986  145.0982  159.6887 C   0  0  0  0  0  0  0  0  0  0  0  0
  150.9495  144.8190  158.5984 C   0  0  0  0  0  0  0  0  0  0  0  0
  150.8774  143.5131  158.0761 C   0  0  0  0  0  0  0  0  0  0  0  0
  151.6589  142.4947  158.6554 C   0  0  0  0  0  0  0  0  0  0  0  0
  151.8202  141.1382  158.3865 N   0  0  0  0  0  0  0  0  0  0  0  0
  151.1483  140.4135  157.3147 C   0  0  0  0  0  0  0  0  0  0  0  0
  151.5198  140.9416  155.9226 C   0  0  0  0  0  0  0  0  0  0  0  0
  151.1082  140.0214  154.9205 O   0  0  0  0  0  0  0  0  0  0  0  0
  149.7884  140.0448  154.5202 C   0  0  0  0  0  0  0  0  0  0  0  0
  149.2297  138.8297  154.0715 C   0  0  0  0  0  0  0  0  0  0  0  0
  147.8896  138.7644  153.6440 C   0  0  0  0  0  0  0  0  0  0  0  0
  147.0885  139.9205  153.6623 C   0  0  0  0  0  0  0  0  0  0  0  0
  147.6310  141.1399  154.1079 C   0  0  0  0  0  0  0  0  0  0  0  0
  148.9721  141.2048  154.5340 C   0  0  0  0  0  0  0  0  0  0  0  0
  156.5250  139.1328  159.0831 H   0  0  0  0  0  0  0  0  0  0  0  0
  156.1784  139.5323  161.1520 H   0  0  0  0  0  0  0  0  0  0  0  0
  155.2005  140.9340  160.7504 H   0  0  0  0  0  0  0  0  0  0  0  0
  154.4340  137.9818  160.6160 H   0  0  0  0  0  0  0  0  0  0  0  0
  153.6527  139.2551  161.5074 H   0  0  0  0  0  0  0  0  0  0  0  0
  153.6388  138.9917  158.4636 H   0  0  0  0  0  0  0  0  0  0  0  0
  152.3180  138.5898  159.5173 H   0  0  0  0  0  0  0  0  0  0  0  0
  153.2274  144.2981  161.0996 H   0  0  0  0  0  0  0  0  0  0  0  0
  151.8514  146.1016  160.0855 H   0  0  0  0  0  0  0  0  0  0  0  0
  150.3537  145.6078  158.1627 H   0  0  0  0  0  0  0  0  0  0  0  0
  150.2280  143.2968  157.2410 H   0  0  0  0  0  0  0  0  0  0  0  0
  151.4370  139.3646  157.3870 H   0  0  0  0  0  0  0  0  0  0  0  0
  150.0703  140.4244  157.4637 H   0  0  0  0  0  0  0  0  0  0  0  0
  151.0462  141.9117  155.7638 H   0  0  0  0  0  0  0  0  0  0  0  0
  152.6003  141.0837  155.8735 H   0  0  0  0  0  0  0  0  0  0  0  0
  149.8342  137.9358  154.0506 H   0  0  0  0  0  0  0  0  0  0  0  0
  147.4771  137.8268  153.3018 H   0  0  0  0  0  0  0  0  0  0  0  0
  146.0602  139.8724  153.3351 H   0  0  0  0  0  0  0  0  0  0  0  0
  147.0174  142.0285  154.1232 H   0  0  0  0  0  0  0  0  0  0  0  0
  149.3499  142.1589  154.8681 H   0  0  0  0  0  0  0  0  0  0  0  0
  1  2  1  0  0  0  0
  1 23  1  0  0  0  0
  2  3  1  0  0  0  0
  2 24  1  0  0  0  0
  2 25  1  0  0  0  0
  3  4  1  0  0  0  0
  3 26  1  0  0  0  0
  3 27  1  0  0  0  0
  4  5  1  0  0  0  0
  4 28  1  0  0  0  0
  4 29  1  0  0  0  0
  5 13  1  0  0  0  0
  5  6  2  0  0  0  0
  6  7  1  0  0  0  0
  7 12  2  0  0  0  0
  7  8  1  0  0  0  0
  8  9  2  0  0  0  0
  8 30  1  0  0  0  0
  9 10  1  0  0  0  0
  9 31  1  0  0  0  0
 10 11  2  0  0  0  0
 10 32  1  0  0  0  0
 11 12  1  0  0  0  0
 11 33  1  0  0  0  0
 12 13  1  0  0  0  0
 13 14  1  0  0  0  0
 14 15  1  0  0  0  0
 14 34  1  0  0  0  0
 14 35  1  0  0  0  0
 15 16  1  0  0  0  0
 15 36  1  0  0  0  0
 15 37  1  0  0  0  0
 16 17  1  0  0  0  0
 17 22  1  0  0  0  0
 17 18  2  0  0  0  0
 18 19  1  0  0  0  0
 18 38  1  0  0  0  0
 19 20  2  0  0  0  0
 19 39  1  0  0  0  0
 20 21  1  0  0  0  0
 20 40  1  0  0  0  0
 21 22  2  0  0  0  0
 21 41  1  0  0  0  0
 22 42  1  0  0  0  0
M  END
> <s_m_source_file>
AV-unprocessed.smi

> <i_m_source_file_index>
1349

> <i_lp_mmshare_version>
43012

> <i_f3d_flags>
0

> <s_epik_input>
W09IXVtDSDJdW0NIMl1bQ0gyXWMobjEpbihjKGMxMilbY0hdW2NIXVtjSF1bY0hdMilbQ0gyXVtDSDJdT2MzW2NIXVtjSF1bY0hdW2NIXVtjSF0z

> <s_epik_cmdline>
J2VwaWtfcHl0aG9uJywgJy1waCcsICc3LjAnLCAnLXRuJywgJzgnLCAnLW1hJywgJzIwMCcsICctbWV0YWxfYmluZGluZycsICctaW1hZScsICc8aW5maWxlLm1hZT4nLCAnLW9tYWUnLCAnPG91dGZpbGUubWFlPic=

> <r_lp_tautomer_probability>
1

> <r_epik_Ionization_Penalty>
0.159315

> <r_epik_Ionization_Penalty_Charging>
0

> <r_epik_Ionization_Penalty_Neutral>
0.159315

> <r_epik_State_Penalty>
0.148622

> <r_epik_Charging_Adjusted_Penalty>
0.148622

> <i_epik_Tot_Q>
0

> <i_epik_Tot_abs_Q>
0

> <r_epik_Metal_State_Penalty>
0.0001689

> <b_epik_Metal_Only>
0

> <s_lp_Force_Field>
OPLS_2005

> <r_lp_Energy>
15.4549

> <b_lp_Chiralities_Consistent>
1

> <s_lp_Variant>
AV-unprocessed.smi:1349-1

> <Gold.Version>
5.8.1

> <Gold.Id.Protein>
6NUR|6NUR_protein|mol2

> <Gold.PLP.Fitness>
53.8199

> <Gold.PLP.PLP>
-48.8792

> <Gold.PLP.part.hbond>
-2.0000

> <Gold.PLP.part.metal>
0.0000

> <Gold.PLP.part.buried>
-5.3711

> <Gold.PLP.part.nonpolar>
-40.9206

> <Gold.PLP.part.repulsive>
0.0585

> <Gold.PLP.ligand.clash>
0.0000

> <Gold.PLP.ligand.torsion>
0.5830

> <Gold.PLP.Chemscore.Hbond>
2.0000

> <Gold.PLP.Chemscore.CHOScore>
0.0000

> <Gold.PLP.Chemscore.Metal>
0.0000

> <Gold.Chemscore.Hbonds>
donor molecule, donor type, donor heavy atom, donor atom, acceptor molecule, acceptor atom, score
      P1  H  7989  7998       L1    16  0.65
      P1  H  7997  8009       L1     1  0.91

> <Gold.PLP.Chemscore.Internal.Correction>
0.1067

> <Gold.Rescore>
     Score         DG    S(hbond)    S(metal)    S(lipo)     H(rot)  DE(clash)    DE(int)     intcor
     19.03     -19.75       1.55        0.00     130.67       2.42       0.08       0.63       ----

> <Gold.Chemscore.Fitness>
19.0269

> <Gold.Chemscore.DG>
-19.7454

> <Gold.Chemscore.ZeroCoef>
-5.4800

> <Gold.Chemscore.Hbond>
1.5486

> <Gold.Chemscore.Metal>
0.0000

> <Gold.Chemscore.Lipo>
130.6722

> <Gold.Chemscore.Internal_Hbond>
0.0000

> <Gold.Chemscore.DEClash>
0.0846

> <Gold.Chemscore.DEInternal>
0.6339

> <Gold.Chemscore.Rot>
2.4201

> <Gold.Chemscore.Internal.Correction>
   9.000000E+99

> <Gold.Chemscore.Hbonds>
donor molecule, donor type, donor heavy atom, donor atom, acceptor molecule, acceptor atom, score
      P1  H  7989  7998       L1    16  0.01
      P1  H  7997  8009       L1     1  0.30

> <Gold.Chemscore.Hbond.Weighted>
-5.1722

> <Gold.Chemscore.Metal.Weighted>
-0.0000

> <Gold.Chemscore.Lipo.Weighted>
-15.2886

> <Gold.Chemscore.Internal_Hbond.Weighted>
0.0000

> <Gold.Chemscore.DEClash.Weighted>
0.0846

> <Gold.Chemscore.DEInternal.Weighted>
0.6339

> <Gold.Chemscore.Rot.Weighted>
6.1954

> <Gold.Chemscore.Internal.Correction.Weighted>
   9.000000E+99

> <Gold.Protein.RotatedTorsions>
[ 6907 6896 6895 6894 ] final -146.80 input  -60.11 | X-H torsion
[ 7974 7965 7964 7962 ] final -150.98 input  175.53 | X-H torsion
[ 8008 7997 7996 7995 ] final  113.20 input   59.86 | X-H torsion
[ 10167 10162 10161 10158 ] final   -6.28 input  -65.29 | X-H torsion
[ 10718 10713 10712 10709 ] final  151.61 input   66.30 | X-H torsion
[ 10763 10752 10751 10750 ] final -138.46 input  -60.55 | X-H torsion
[ 11005 11000 10999 10996 ] final  100.29 input  -57.11 | X-H torsion

> <Gold.Protein.ActiveResidues>
 VAL166  LYS551  ARG553  GLY616  TRP617  ASP618  TYR619  PRO620  LYS621  CYS622 
 ASP623  PHE694  ASN695  SER759  ASP760  ASP761  ALA762  ILE779  LEU786  VAL792 
 PHE793  MET794  SER795  GLU796  ALA797  LYS798  CYS799  TRP800  GLU811  SER814 

> <Gold.Protein.RotatedAtoms>
  151.1467  133.4934  159.2595 H   0  0  0  0  0  0  0  0  0  0  0  0  # atno 6907 bound_to 6896
  151.1597  135.0267  159.8715 H   0  0  0  0  0  0  0  0  0  0  0  0  # atno 6908 bound_to 6896
  152.5463  134.1343  159.8505 H   0  0  0  0  0  0  0  0  0  0  0  0  # atno 6909 bound_to 6896
  144.7876  140.4859  143.5795 H   0  0  0  0  0  0  0  0  0  0  0  0  # atno 7974 bound_to 7965
  156.2243  140.2984  156.0028 H   0  0  0  0  0  0  0  0  0  0  0  0  # atno 8008 bound_to 7997
  155.2399  140.0422  157.2990 H   0  0  0  0  0  0  0  0  0  0  0  0  # atno 8009 bound_to 7997
  154.5890  140.2396  155.7955 H   0  0  0  0  0  0  0  0  0  0  0  0  # atno 8010 bound_to 7997
  140.6991  143.6212  150.8610 H   0  0  0  0  0  0  0  0  0  0  0  0  # atno 10167 bound_to 10162
  157.2684  131.0812  151.1617 H   0  0  0  0  0  0  0  0  0  0  0  0  # atno 10718 bound_to 10713
  154.8636  135.3611  154.5389 H   0  0  0  0  0  0  0  0  0  0  0  0  # atno 10763 bound_to 10752
  153.6012  135.7012  153.5388 H   0  0  0  0  0  0  0  0  0  0  0  0  # atno 10764 bound_to 10752
  153.3289  135.4130  155.1440 H   0  0  0  0  0  0  0  0  0  0  0  0  # atno 10765 bound_to 10752
  139.8771  134.9134  156.4734 H   0  0  0  0  0  0  0  0  0  0  0  0  # atno 11005 bound_to 11000
  145.5880  139.1493  143.3198 LP  0  0  0  0  0  0  0  0  0  0  0  0  # atno 17320 bound_to 7965
  146.2115  140.6007  142.9057 LP  0  0  0  0  0  0  0  0  0  0  0  0  # atno 17321 bound_to 7965
  139.9933  143.5823  152.2902 LP  0  0  0  0  0  0  0  0  0  0  0  0  # atno 17342 bound_to 10162
  139.6486  144.7659  151.2193 LP  0  0  0  0  0  0  0  0  0  0  0  0  # atno 17343 bound_to 10162
  157.3098  130.6884  149.6209 LP  0  0  0  0  0  0  0  0  0  0  0  0  # atno 17370 bound_to 10713
  155.9663  130.4367  150.5144 LP  0  0  0  0  0  0  0  0  0  0  0  0  # atno 17371 bound_to 10713
  140.8779  133.7939  155.9435 LP  0  0  0  0  0  0  0  0  0  0  0  0  # atno 17394 bound_to 11000
  140.8885  134.2525  157.5107 LP  0  0  0  0  0  0  0  0  0  0  0  0  # atno 17395 bound_to 11000

$$$$
