AV-unprocessed.smi:1019|AV-procd|sdf|4451|dock6
  -GOLD-   22720 2423D 1   1.00000     0.00000
 Structure written by MMmdl.
 43 45  0  0  0  0  0  0  0  0  1 V2000
  155.1448  138.1490  158.0529 C   0  0  0  0  0  0  0  0  0  0  0  0
  154.5164  138.1503  159.3739 N   0  0  0  0  0  0  0  0  0  0  0  0
  154.6898  136.8567  160.0366 C   0  0  0  0  0  0  0  0  0  0  0  0
  154.8023  136.9463  161.5496 C   0  0  0  0  0  0  0  0  0  0  0  0
  154.1897  135.9714  162.3653 C   0  0  0  0  0  0  0  0  0  0  0  0
  154.2941  136.0546  163.7676 C   0  0  0  0  0  0  0  0  0  0  0  0
  155.0133  137.1113  164.3591 C   0  0  0  0  0  0  0  0  0  0  0  0
  155.6279  138.0848  163.5480 C   0  0  0  0  0  0  0  0  0  0  0  0
  155.5236  138.0024  162.1458 C   0  0  0  0  0  0  0  0  0  0  0  0
  153.0940  138.4952  159.2979 C   0  0  0  0  0  0  0  0  0  0  0  0
  152.7591  139.9997  159.3736 C   0  0  2  0  0  0  0  0  0  0  0  0
  152.8425  140.5496  158.0726 O   0  0  0  0  0  0  0  0  0  0  0  0
  153.7365  140.7450  160.3025 C   0  0  0  0  0  0  0  0  0  0  0  0
  153.1264  141.8923  160.9515 N   0  0  0  0  0  0  0  0  0  0  0  0
  152.9208  142.0591  162.2721 C   0  0  0  0  0  0  0  0  0  0  0  0
  152.3477  143.1940  162.6619 N   0  0  0  0  0  0  0  0  0  0  0  0
  152.1582  143.8405  161.4525 C   0  0  0  0  0  0  0  0  0  0  0  0
  151.5911  145.1032  161.1673 C   0  0  0  0  0  0  0  0  0  0  0  0
  151.5020  145.5624  159.8367 C   0  0  0  0  0  0  0  0  0  0  0  0
  151.9765  144.7678  158.7730 C   0  0  0  0  0  0  0  0  0  0  0  0
  152.5459  143.5062  159.0323 C   0  0  0  0  0  0  0  0  0  0  0  0
  152.6344  143.0520  160.3615 C   0  0  0  0  0  0  0  0  0  0  0  0
  155.0996  139.1318  157.5867 H   0  0  0  0  0  0  0  0  0  0  0  0
  154.6621  137.4320  157.3876 H   0  0  0  0  0  0  0  0  0  0  0  0
  156.2012  137.8881  158.1188 H   0  0  0  0  0  0  0  0  0  0  0  0
  153.8318  136.2173  159.8249 H   0  0  0  0  0  0  0  0  0  0  0  0
  155.5622  136.3416  159.6315 H   0  0  0  0  0  0  0  0  0  0  0  0
  153.6362  135.1594  161.9164 H   0  0  0  0  0  0  0  0  0  0  0  0
  153.8225  135.3075  164.3889 H   0  0  0  0  0  0  0  0  0  0  0  0
  155.0937  137.1752  165.4343 H   0  0  0  0  0  0  0  0  0  0  0  0
  156.1794  138.8957  164.0010 H   0  0  0  0  0  0  0  0  0  0  0  0
  155.9965  138.7538  161.5305 H   0  0  0  0  0  0  0  0  0  0  0  0
  152.6815  138.0839  158.3753 H   0  0  0  0  0  0  0  0  0  0  0  0
  152.5566  137.9955  160.1055 H   0  0  0  0  0  0  0  0  0  0  0  0
  151.7486  140.1568  159.7481 H   0  0  0  0  0  0  0  0  0  0  0  0
  153.7142  140.4026  157.7387 H   0  0  0  0  0  0  0  0  0  0  0  0
  154.1008  140.0722  161.0799 H   0  0  0  0  0  0  0  0  0  0  0  0
  154.6135  141.0802  159.7474 H   0  0  0  0  0  0  0  0  0  0  0  0
  153.2084  141.3029  162.9881 H   0  0  0  0  0  0  0  0  0  0  0  0
  151.2237  145.7200  161.9741 H   0  0  0  0  0  0  0  0  0  0  0  0
  151.0670  146.5295  159.6313 H   0  0  0  0  0  0  0  0  0  0  0  0
  151.9030  145.1277  157.7571 H   0  0  0  0  0  0  0  0  0  0  0  0
  152.9091  142.8953  158.2195 H   0  0  0  0  0  0  0  0  0  0  0  0
  1  2  1  0  0  0  0
  1 23  1  0  0  0  0
  1 24  1  0  0  0  0
  1 25  1  0  0  0  0
  2  3  1  0  0  0  0
  2 10  1  0  0  0  0
  3  4  1  0  0  0  0
  3 26  1  0  0  0  0
  3 27  1  0  0  0  0
  4  9  1  0  0  0  0
  4  5  2  0  0  0  0
  5  6  1  0  0  0  0
  5 28  1  0  0  0  0
  6  7  2  0  0  0  0
  6 29  1  0  0  0  0
  7  8  1  0  0  0  0
  7 30  1  0  0  0  0
  8  9  2  0  0  0  0
  8 31  1  0  0  0  0
  9 32  1  0  0  0  0
 10 11  1  0  0  0  0
 10 33  1  0  0  0  0
 10 34  1  0  0  0  0
 11 12  1  0  0  0  0
 11 13  1  0  0  0  0
 11 35  1  0  0  0  0
 12 36  1  0  0  0  0
 13 14  1  0  0  0  0
 13 37  1  0  0  0  0
 13 38  1  0  0  0  0
 14 22  1  0  0  0  0
 14 15  1  0  0  0  0
 15 16  2  0  0  0  0
 15 39  1  0  0  0  0
 16 17  1  0  0  0  0
 17 22  2  0  0  0  0
 17 18  1  0  0  0  0
 18 19  2  0  0  0  0
 18 40  1  0  0  0  0
 19 20  1  0  0  0  0
 19 41  1  0  0  0  0
 20 21  2  0  0  0  0
 20 42  1  0  0  0  0
 21 22  1  0  0  0  0
 21 43  1  0  0  0  0
M  END
> <s_m_source_file>
AV-unprocessed.smi

> <i_m_source_file_index>
1019

> <i_lp_mmshare_version>
43012

> <i_f3d_flags>
0

> <s_epik_input>
W2NIXTFbY0hdW2NIXVtjSF1bY0hdYzFbQ0gyXU4oW0NIM10pW0NIMl1bQ0BIXShbT0hdKVtDSDJdbihbY0hdbjIpYyhjMjMpW2NIXVtjSF1bY0hdW2NIXTM=

> <s_epik_cmdline>
J2VwaWtfcHl0aG9uJywgJy1waCcsICc3LjAnLCAnLXRuJywgJzgnLCAnLW1hJywgJzIwMCcsICctbWV0YWxfYmluZGluZycsICctaW1hZScsICc8aW5maWxlLm1hZT4nLCAnLW9tYWUnLCAnPG91dGZpbGUubWFlPic=

> <r_epik_Ionization_Penalty>
1.56741

> <r_epik_Ionization_Penalty_Charging>
0

> <r_epik_Ionization_Penalty_Neutral>
1.56741

> <r_epik_State_Penalty>
1.62466

> <r_epik_Charging_Adjusted_Penalty>
1.62466

> <i_epik_Tot_Q>
0

> <i_epik_Tot_abs_Q>
0

> <r_epik_Metal_State_Penalty>
1.58486

> <b_epik_Metal_Only>
0

> <s_lp_Force_Field>
OPLS_2005

> <r_lp_Energy>
24.0301

> <b_lp_Chiralities_Consistent>
1

> <s_lp_Variant>
AV-unprocessed.smi:1019-9

> <Gold.Version>
5.8.1

> <Gold.Id.Protein>
6NUR|6NUR_protein|mol2

> <Gold.PLP.Fitness>
54.0065

> <Gold.PLP.PLP>
-57.3462

> <Gold.PLP.part.hbond>
-1.0000

> <Gold.PLP.part.metal>
0.0000

> <Gold.PLP.part.buried>
-5.1722

> <Gold.PLP.part.nonpolar>
-50.2659

> <Gold.PLP.part.repulsive>
0.1669

> <Gold.PLP.ligand.clash>
0.0000

> <Gold.PLP.ligand.torsion>
1.7476

> <Gold.PLP.Chemscore.Hbond>
0.0000

> <Gold.PLP.Chemscore.CHOScore>
0.0000

> <Gold.PLP.Chemscore.Metal>
0.0000

> <Gold.PLP.Chemscore.Internal.Correction>
0.1556

> <Gold.Rescore>
     Score         DG    S(hbond)    S(metal)    S(lipo)     H(rot)  DE(clash)    DE(int)     intcor
     14.90     -16.90       0.00        0.00     147.20       2.27       0.06       1.94       ----

> <Gold.Chemscore.Fitness>
14.8976

> <Gold.Chemscore.DG>
-16.8990

> <Gold.Chemscore.ZeroCoef>
-5.4800

> <Gold.Chemscore.Hbond>
0.0000

> <Gold.Chemscore.Metal>
0.0000

> <Gold.Chemscore.Lipo>
147.1957

> <Gold.Chemscore.Internal_Hbond>
0.0000

> <Gold.Chemscore.DEClash>
0.0581

> <Gold.Chemscore.DEInternal>
1.9433

> <Gold.Chemscore.Rot>
2.2667

> <Gold.Chemscore.Internal.Correction>
   9.000000E+99

> <Gold.Chemscore.Hbond.Weighted>
-0.0000

> <Gold.Chemscore.Metal.Weighted>
-0.0000

> <Gold.Chemscore.Lipo.Weighted>
-17.2219

> <Gold.Chemscore.Internal_Hbond.Weighted>
0.0000

> <Gold.Chemscore.DEClash.Weighted>
0.0581

> <Gold.Chemscore.DEInternal.Weighted>
1.9433

> <Gold.Chemscore.Rot.Weighted>
5.8028

> <Gold.Chemscore.Internal.Correction.Weighted>
   9.000000E+99

> <Gold.Protein.RotatedTorsions>
[ 6907 6896 6895 6894 ] final  177.34 input  -60.11 | X-H torsion
[ 7974 7965 7964 7962 ] final -128.05 input  175.53 | X-H torsion
[ 8008 7997 7996 7995 ] final   56.10 input   59.86 | X-H torsion
[ 10167 10162 10161 10158 ] final -170.14 input  -65.29 | X-H torsion
[ 10718 10713 10712 10709 ] final -115.84 input   66.30 | X-H torsion
[ 10763 10752 10751 10750 ] final -123.06 input  -60.55 | X-H torsion
[ 11005 11000 10999 10996 ] final  124.21 input  -57.11 | X-H torsion

> <Gold.Protein.ActiveResidues>
 VAL166  LYS551  ARG553  GLY616  TRP617  ASP618  TYR619  PRO620  LYS621  CYS622 
 ASP623  PHE694  ASN695  SER759  ASP760  ASP761  ALA762  ILE779  LEU786  VAL792 
 PHE793  MET794  SER795  GLU796  ALA797  LYS798  CYS799  TRP800  GLU811  SER814 

> <Gold.Protein.RotatedAtoms>
  151.7056  133.3311  159.3277 H   0  0  0  0  0  0  0  0  0  0  0  0  # atno 6907 bound_to 6896
  150.7716  134.6577  159.6332 H   0  0  0  0  0  0  0  0  0  0  0  0  # atno 6908 bound_to 6896
  152.3743  134.6690  160.0217 H   0  0  0  0  0  0  0  0  0  0  0  0  # atno 6909 bound_to 6896
  144.9709  140.7544  143.4671 H   0  0  0  0  0  0  0  0  0  0  0  0  # atno 7974 bound_to 7965
  155.5120  140.3477  155.4390 H   0  0  0  0  0  0  0  0  0  0  0  0  # atno 8008 bound_to 7997
  156.0843  140.1394  156.9700 H   0  0  0  0  0  0  0  0  0  0  0  0  # atno 8009 bound_to 7997
  154.4598  140.0939  156.6836 H   0  0  0  0  0  0  0  0  0  0  0  0  # atno 8010 bound_to 7997
  139.5879  144.1277  152.1599 H   0  0  0  0  0  0  0  0  0  0  0  0  # atno 10167 bound_to 10162
  156.0923  130.6103  150.8958 H   0  0  0  0  0  0  0  0  0  0  0  0  # atno 10718 bound_to 10713
  154.8701  135.4111  154.2882 H   0  0  0  0  0  0  0  0  0  0  0  0  # atno 10763 bound_to 10752
  153.3762  135.7009  153.6605 H   0  0  0  0  0  0  0  0  0  0  0  0  # atno 10764 bound_to 10752
  153.5446  135.3641  155.2705 H   0  0  0  0  0  0  0  0  0  0  0  0  # atno 10765 bound_to 10752
  139.9348  134.9640  156.8374 H   0  0  0  0  0  0  0  0  0  0  0  0  # atno 11005 bound_to 11000
  145.2560  139.2011  143.4917 LP  0  0  0  0  0  0  0  0  0  0  0  0  # atno 17320 bound_to 7965
  146.3381  140.2482  142.8597 LP  0  0  0  0  0  0  0  0  0  0  0  0  # atno 17321 bound_to 7965
  140.0845  144.5673  150.7099 LP  0  0  0  0  0  0  0  0  0  0  0  0  # atno 17342 bound_to 10162
  140.7148  143.2535  151.4469 LP  0  0  0  0  0  0  0  0  0  0  0  0  # atno 17343 bound_to 10162
  157.6075  131.0938  150.8853 LP  0  0  0  0  0  0  0  0  0  0  0  0  # atno 17370 bound_to 10713
  156.8999  130.5243  149.5283 LP  0  0  0  0  0  0  0  0  0  0  0  0  # atno 17371 bound_to 10713
  140.6106  134.0086  155.7575 LP  0  0  0  0  0  0  0  0  0  0  0  0  # atno 17394 bound_to 11000
  141.0956  133.9849  157.3166 LP  0  0  0  0  0  0  0  0  0  0  0  0  # atno 17395 bound_to 11000

$$$$
