AV-unprocessed.smi:109|AV-procd|sdf|1042|dock2
  -GOLD-   2262018 73D 1   1.00000     0.00000
 Structure written by MMmdl.
 58 61  0  0  0  0  0  0  0  0  1 V2000
  147.5164  141.9778  158.4402 O   0  0  0  0  0  0  0  0  0  0  0  0
  147.9261  141.1043  157.4102 C   0  0  0  0  0  0  0  0  0  0  0  0
  149.2841  141.5587  156.8523 C   0  0  0  0  0  0  0  0  0  0  0  0
  150.4472  141.3503  157.8478 C   0  0  1  0  0  0  0  0  0  0  0  0
  151.6489  140.9353  157.1242 N   0  0  0  0  0  0  0  0  0  0  0  0
  151.7058  139.7573  156.4640 C   0  0  0  0  0  0  0  0  0  0  0  0
  152.3546  139.6431  155.2761 N   0  0  0  0  0  0  0  0  0  0  0  0
  152.3925  138.4654  154.6467 C   0  0  0  0  0  0  0  0  0  0  0  0
  151.8592  137.3017  155.0237 N   0  0  0  0  0  0  0  0  0  0  0  0
  151.2063  137.4080  156.2170 C   0  0  0  0  0  0  0  0  0  0  0  0
  151.0895  138.5946  156.9941 C   0  0  0  0  0  0  0  0  0  0  0  0
  150.3634  138.3335  158.1482 N   0  0  0  0  0  0  0  0  0  0  0  0
  150.0678  137.0653  158.0537 C   0  0  0  0  0  0  0  0  0  0  0  0
  150.5353  136.4286  156.9253 N   0  0  0  0  0  0  0  0  0  0  0  0
  150.3453  134.9853  156.5615 C   0  0  1  0  0  0  0  0  0  0  0  0
  149.6614  134.3271  157.5865 O   0  0  0  0  0  0  0  0  0  0  0  0
  148.4233  133.8026  157.1089 C   0  0  2  0  0  0  0  0  0  0  0  0
  148.0190  132.5395  157.8892 C   0  0  0  0  0  0  0  0  0  0  0  0
  149.0165  131.5490  157.7615 O   0  0  0  0  0  0  0  0  0  0  0  0
  148.6597  133.6059  155.6047 C   0  0  2  0  0  0  0  0  0  0  0  0
  149.3270  132.3841  155.3420 O   0  0  0  0  0  0  0  0  0  0  0  0
  149.5534  134.7847  155.2535 C   0  0  1  0  0  0  0  0  0  0  0  0
  148.7741  135.9058  154.8745 O   0  0  0  0  0  0  0  0  0  0  0  0
  150.7416  142.5862  158.7435 C   0  0  0  0  0  0  0  0  0  0  0  0
  150.8345  143.9015  157.9399 C   0  0  0  0  0  0  0  0  0  0  0  0
  151.0164  145.1137  158.8683 C   0  0  0  0  0  0  0  0  0  0  0  0
  152.2478  144.9426  159.7718 C   0  0  0  0  0  0  0  0  0  0  0  0
  152.1706  143.6338  160.5732 C   0  0  0  0  0  0  0  0  0  0  0  0
  151.9858  142.4214  159.6459 C   0  0  0  0  0  0  0  0  0  0  0  0
  151.3571  134.5820  156.5050 H   0  0  0  0  0  0  0  0  0  0  0  0
  147.6522  134.5660  157.2215 H   0  0  0  0  0  0  0  0  0  0  0  0
  147.7251  133.6069  155.0418 H   0  0  0  0  0  0  0  0  0  0  0  0
  150.2422  134.5606  154.4376 H   0  0  0  0  0  0  0  0  0  0  0  0
  146.6189  141.7819  158.6619 H   0  0  0  0  0  0  0  0  0  0  0  0
  147.9936  140.0918  157.8094 H   0  0  0  0  0  0  0  0  0  0  0  0
  147.1635  141.0984  156.6310 H   0  0  0  0  0  0  0  0  0  0  0  0
  149.4885  141.0296  155.9206 H   0  0  0  0  0  0  0  0  0  0  0  0
  149.2022  142.6131  156.5913 H   0  0  0  0  0  0  0  0  0  0  0  0
  150.1470  140.5335  158.5053 H   0  0  0  0  0  0  0  0  0  0  0  0
  152.4614  141.5191  157.2622 H   0  0  0  0  0  0  0  0  0  0  0  0
  152.9249  138.4534  153.7073 H   0  0  0  0  0  0  0  0  0  0  0  0
  149.4953  136.5535  158.8138 H   0  0  0  0  0  0  0  0  0  0  0  0
  147.9239  132.7686  158.9511 H   0  0  0  0  0  0  0  0  0  0  0  0
  147.0574  132.1530  157.5505 H   0  0  0  0  0  0  0  0  0  0  0  0
  149.8200  131.8811  158.1313 H   0  0  0  0  0  0  0  0  0  0  0  0
  148.9042  131.9628  154.6092 H   0  0  0  0  0  0  0  0  0  0  0  0
  148.6912  135.9073  153.9332 H   0  0  0  0  0  0  0  0  0  0  0  0
  149.8856  142.7076  159.4091 H   0  0  0  0  0  0  0  0  0  0  0  0
  151.6699  143.8665  157.2412 H   0  0  0  0  0  0  0  0  0  0  0  0
  149.9342  144.0359  157.3396 H   0  0  0  0  0  0  0  0  0  0  0  0
  151.1140  146.0238  158.2758 H   0  0  0  0  0  0  0  0  0  0  0  0
  150.1250  145.2396  159.4842 H   0  0  0  0  0  0  0  0  0  0  0  0
  153.1517  144.9444  159.1616 H   0  0  0  0  0  0  0  0  0  0  0  0
  152.3312  145.7906  160.4517 H   0  0  0  0  0  0  0  0  0  0  0  0
  153.0743  143.5101  161.1705 H   0  0  0  0  0  0  0  0  0  0  0  0
  151.3393  143.6847  161.2776 H   0  0  0  0  0  0  0  0  0  0  0  0
  151.8991  141.5171  160.2491 H   0  0  0  0  0  0  0  0  0  0  0  0
  152.8816  142.3028  159.0358 H   0  0  0  0  0  0  0  0  0  0  0  0
  1  2  1  0  0  0  0
  1 34  1  0  0  0  0
  2  3  1  0  0  0  0
  2 35  1  0  0  0  0
  2 36  1  0  0  0  0
  3  4  1  0  0  0  0
  3 37  1  0  0  0  0
  3 38  1  0  0  0  0
  4  5  1  0  0  0  0
  4 24  1  0  0  0  0
  4 39  1  0  0  0  0
  5  6  1  0  0  0  0
  5 40  1  0  0  0  0
  6 11  1  0  0  0  0
  6  7  2  0  0  0  0
  7  8  1  0  0  0  0
  8  9  2  0  0  0  0
  8 41  1  0  0  0  0
  9 10  1  0  0  0  0
 10 14  1  0  0  0  0
 10 11  2  0  0  0  0
 11 12  1  0  0  0  0
 12 13  2  0  0  0  0
 13 14  1  0  0  0  0
 13 42  1  0  0  0  0
 14 15  1  0  0  0  0
 15 30  1  0  0  0  0
 15 22  1  0  0  0  0
 15 16  1  0  0  0  0
 16 17  1  0  0  0  0
 17 31  1  0  0  0  0
 17 18  1  0  0  0  0
 17 20  1  0  0  0  0
 18 19  1  0  0  0  0
 18 43  1  0  0  0  0
 18 44  1  0  0  0  0
 19 45  1  0  0  0  0
 20 32  1  0  0  0  0
 20 21  1  0  0  0  0
 20 22  1  0  0  0  0
 21 46  1  0  0  0  0
 22 33  1  0  0  0  0
 22 23  1  0  0  0  0
 23 47  1  0  0  0  0
 24 29  1  0  0  0  0
 24 25  1  0  0  0  0
 24 48  1  0  0  0  0
 25 26  1  0  0  0  0
 25 49  1  0  0  0  0
 25 50  1  0  0  0  0
 26 27  1  0  0  0  0
 26 51  1  0  0  0  0
 26 52  1  0  0  0  0
 27 28  1  0  0  0  0
 27 53  1  0  0  0  0
 27 54  1  0  0  0  0
 28 29  1  0  0  0  0
 28 55  1  0  0  0  0
 28 56  1  0  0  0  0
 29 57  1  0  0  0  0
 29 58  1  0  0  0  0
M  END
> <s_m_source_file>
AV-unprocessed.smi

> <i_m_source_file_index>
109

> <i_lp_mmshare_version>
43012

> <i_f3d_flags>
0

> <s_epik_input>
W0NIMl0xW0NIMl1bQ0gyXVtDSDJdW0NIMl1bQ0hdMVtDQEhdKFtDSDJdW0NIMl1bT0hdKVtOSF1jKG5bY0hdbjIpYyhjMjMpbltjSF1uM1tDQEBIXTRPW0NASF0oW0NIMl1bT0hdKVtDQEBIXShbT0hdKVtDQEhdNFtPSF0=

> <s_epik_cmdline>
J2VwaWtfcHl0aG9uJywgJy1waCcsICc3LjAnLCAnLXRuJywgJzgnLCAnLW1hJywgJzIwMCcsICctbWV0YWxfYmluZGluZycsICctaW1hZScsICc8aW5maWxlLm1hZT4nLCAnLW9tYWUnLCAnPG91dGZpbGUubWFlPic=

> <r_lp_tautomer_probability>
1

> <r_epik_Ionization_Penalty>
0.000793976

> <r_epik_Ionization_Penalty_Charging>
0

> <r_epik_Ionization_Penalty_Neutral>
0.000793976

> <r_epik_State_Penalty>
-0

> <r_epik_Charging_Adjusted_Penalty>
0

> <i_epik_Tot_Q>
0

> <i_epik_Tot_abs_Q>
0

> <r_epik_Metal_State_Penalty>
-0

> <b_epik_Metal_Only>
0

> <s_epik_Chemistry_Notes>
This compound contains an acetal/aminal-like group ( X-CH(R)-Y where X, Y are N, S, or O) that may be acid/base labile, releasing an aldehyde.

> <s_lp_Force_Field>
OPLS_2005

> <r_lp_Energy>
56.1563

> <b_lp_Chiralities_Consistent>
1

> <s_lp_Variant>
AV-unprocessed.smi:109-12

> <Gold.Version>
5.8.1

> <Gold.Id.Protein>
6NUR|6NUR_protein|mol2

> <Gold.PLP.Fitness>
52.7591

> <Gold.PLP.PLP>
-43.3591

> <Gold.PLP.part.hbond>
-6.0000

> <Gold.PLP.part.metal>
0.0000

> <Gold.PLP.part.buried>
-6.6319

> <Gold.PLP.part.nonpolar>
-31.7772

> <Gold.PLP.part.repulsive>
0.2040

> <Gold.PLP.ligand.clash>
0.0000

> <Gold.PLP.ligand.torsion>
0.9849

> <Gold.PLP.Chemscore.Hbond>
3.6824

> <Gold.PLP.Chemscore.CHOScore>
0.0000

> <Gold.PLP.Chemscore.Metal>
0.0000

> <Gold.Chemscore.Hbonds>
donor molecule, donor type, donor heavy atom, donor atom, acceptor molecule, acceptor atom, score
      L1  H    23    47       P1  7948  0.83
      P1  H  6896  6908       L1    16  0.96
      P1  H  7989  7998       L1     7  0.27
      P1  H  7997  8009       L1     7  0.37
      P1  H 10752 10763       L1     9  0.66

> <Gold.PLP.Chemscore.Internal.Correction>
0.3225

> <Gold.Rescore>
     Score         DG    S(hbond)    S(metal)    S(lipo)     H(rot)  DE(clash)    DE(int)     intcor
     11.39     -12.78       2.91        0.00      98.93       5.47       0.18       1.21       ----

> <Gold.Chemscore.Fitness>
11.3878

> <Gold.Chemscore.DG>
-12.7849

> <Gold.Chemscore.ZeroCoef>
-5.4800

> <Gold.Chemscore.Hbond>
2.9112

> <Gold.Chemscore.Metal>
0.0000

> <Gold.Chemscore.Lipo>
98.9319

> <Gold.Chemscore.Internal_Hbond>
0.0000

> <Gold.Chemscore.DEClash>
0.1821

> <Gold.Chemscore.DEInternal>
1.2150

> <Gold.Chemscore.Rot>
5.4662

> <Gold.Chemscore.Internal.Correction>
   9.000000E+99

> <Gold.Chemscore.Hbonds>
donor molecule, donor type, donor heavy atom, donor atom, acceptor molecule, acceptor atom, score
      L1  H    23    47       P1  7948  0.82
      P1  H  6896  6908       L1    16  0.81
      P1  H  7989  7998       L1     7  0.05
      P1  H  7997  8009       L1     7  0.10
      P1  H 10752 10763       L1     9  0.51

> <Gold.Chemscore.Hbond.Weighted>
-9.7234

> <Gold.Chemscore.Metal.Weighted>
-0.0000

> <Gold.Chemscore.Lipo.Weighted>
-11.5750

> <Gold.Chemscore.Internal_Hbond.Weighted>
0.0000

> <Gold.Chemscore.DEClash.Weighted>
0.1821

> <Gold.Chemscore.DEInternal.Weighted>
1.2150

> <Gold.Chemscore.Rot.Weighted>
13.9935

> <Gold.Chemscore.Internal.Correction.Weighted>
   9.000000E+99

> <Gold.Protein.RotatedTorsions>
[ 6907 6896 6895 6894 ] final  127.38 input  -60.11 | X-H torsion
[ 7974 7965 7964 7962 ] final  171.86 input  175.53 | X-H torsion
[ 8008 7997 7996 7995 ] final -129.50 input   59.86 | X-H torsion
[ 10167 10162 10161 10158 ] final   62.00 input  -65.29 | X-H torsion
[ 10718 10713 10712 10709 ] final   39.83 input   66.30 | X-H torsion
[ 10763 10752 10751 10750 ] final   39.19 input  -60.55 | X-H torsion
[ 11005 11000 10999 10996 ] final  128.80 input  -57.11 | X-H torsion

> <Gold.Protein.ActiveResidues>
 VAL166  LYS551  ARG553  GLY616  TRP617  ASP618  TYR619  PRO620  LYS621  CYS622 
 ASP623  PHE694  ASN695  SER759  ASP760  ASP761  ALA762  ILE779  LEU786  VAL792 
 PHE793  MET794  SER795  GLU796  ALA797  LYS798  CYS799  TRP800  GLU811  SER814 

> <Gold.Protein.RotatedAtoms>
  152.3818  133.6556  159.6166 H   0  0  0  0  0  0  0  0  0  0  0  0  # atno 6907 bound_to 6896
  150.7747  133.9101  159.3376 H   0  0  0  0  0  0  0  0  0  0  0  0  # atno 6908 bound_to 6896
  151.6905  135.0948  160.0284 H   0  0  0  0  0  0  0  0  0  0  0  0  # atno 6909 bound_to 6896
  144.7283  139.9413  143.6428 H   0  0  0  0  0  0  0  0  0  0  0  0  # atno 7974 bound_to 7965
  155.2802  140.0444  157.3015 H   0  0  0  0  0  0  0  0  0  0  0  0  # atno 8008 bound_to 7997
  154.5601  140.2343  155.8316 H   0  0  0  0  0  0  0  0  0  0  0  0  # atno 8009 bound_to 7997
  156.2040  140.3017  155.9595 H   0  0  0  0  0  0  0  0  0  0  0  0  # atno 8010 bound_to 7997
  140.1486  144.4484  150.6771 H   0  0  0  0  0  0  0  0  0  0  0  0  # atno 10167 bound_to 10162
  157.3751  130.7722  149.7149 H   0  0  0  0  0  0  0  0  0  0  0  0  # atno 10718 bound_to 10713
  152.9975  135.6228  154.2425 H   0  0  0  0  0  0  0  0  0  0  0  0  # atno 10763 bound_to 10752
  154.2165  135.2797  155.2942 H   0  0  0  0  0  0  0  0  0  0  0  0  # atno 10764 bound_to 10752
  154.5564  135.5718  153.7026 H   0  0  0  0  0  0  0  0  0  0  0  0  # atno 10765 bound_to 10752
  139.9580  134.9608  156.9055 H   0  0  0  0  0  0  0  0  0  0  0  0  # atno 11005 bound_to 11000
  146.0782  139.3770  143.0480 LP  0  0  0  0  0  0  0  0  0  0  0  0  # atno 17320 bound_to 7965
  145.7876  140.9829  143.1066 LP  0  0  0  0  0  0  0  0  0  0  0  0  # atno 17321 bound_to 7965
  140.6716  143.2288  151.5610 LP  0  0  0  0  0  0  0  0  0  0  0  0  # atno 17342 bound_to 10162
  139.5437  144.2579  152.1400 LP  0  0  0  0  0  0  0  0  0  0  0  0  # atno 17343 bound_to 10162
  155.9763  130.4077  150.3785 LP  0  0  0  0  0  0  0  0  0  0  0  0  # atno 17370 bound_to 10713
  157.1882  131.0409  151.2714 LP  0  0  0  0  0  0  0  0  0  0  0  0  # atno 17371 bound_to 10713
  140.5564  134.0577  155.7385 LP  0  0  0  0  0  0  0  0  0  0  0  0  # atno 17394 bound_to 11000
  141.1254  133.9391  157.2645 LP  0  0  0  0  0  0  0  0  0  0  0  0  # atno 17395 bound_to 11000

$$$$
