AV-unprocessed.smi:3284|AV-procd|sdf|12572|dock10
  -GOLD-   2272018493D 1   1.00000     0.00000
 Structure written by MMmdl.
 44 45  0  0  0  0  0  0  0  0  2 V2000
  151.8781  139.2914  155.1521 C   0  0  0  0  0  0  0  0  0  0  0  0
  150.3859  139.4385  154.9022 C   0  0  0  0  0  0  0  0  0  0  0  0
  149.6377  138.3747  154.5482 C   0  0  0  0  0  0  0  0  0  0  0  0
  148.1567  138.4283  154.2156 C   0  0  0  0  0  0  0  0  0  0  0  0
  147.5235  139.8029  154.4884 C   0  0  0  0  0  0  0  0  0  0  0  0
  148.4958  140.9489  154.1573 C   0  0  1  0  0  0  0  0  0  0  0  0
  147.8069  142.3237  154.2059 C   0  0  0  0  0  0  0  0  0  0  0  0
  149.7891  140.8478  155.0150 C   0  0  1  0  0  0  0  0  0  0  0  0
  149.5696  141.2801  156.4891 C   0  0  0  0  0  0  0  0  0  0  0  0
  150.1076  142.6222  156.7849 N   0  3  0  0  0  0  0  0  0  0  0  0
  150.3193  142.8828  158.2217 C   0  0  0  0  0  0  0  0  0  0  0  0
  151.7639  142.5710  158.6328 C   0  0  0  0  0  0  0  0  0  0  0  0
  152.0414  142.9411  160.0564 C   0  0  0  0  0  0  0  0  0  0  0  0
  152.4575  142.0719  160.9722 N   0  0  0  0  0  0  0  0  0  0  0  0
  152.6123  142.8245  162.1316 C   0  0  0  0  0  0  0  0  0  0  0  0
  152.2886  144.1340  161.8711 C   0  0  0  0  0  0  0  0  0  0  0  0
  151.9297  144.1970  160.5310 N   0  0  0  0  0  0  0  0  0  0  0  0
  151.5225  145.3899  159.8142 C   0  0  0  0  0  0  0  0  0  0  0  0
  152.4350  140.0502  154.6020 H   0  0  0  0  0  0  0  0  0  0  0  0
  152.2358  138.3158  154.8212 H   0  0  0  0  0  0  0  0  0  0  0  0
  152.1187  139.3799  156.2101 H   0  0  0  0  0  0  0  0  0  0  0  0
  150.1016  137.4035  154.4536 H   0  0  0  0  0  0  0  0  0  0  0  0
  148.0526  138.1812  153.1586 H   0  0  0  0  0  0  0  0  0  0  0  0
  147.6294  137.6536  154.7731 H   0  0  0  0  0  0  0  0  0  0  0  0
  146.6066  139.8986  153.9055 H   0  0  0  0  0  0  0  0  0  0  0  0
  147.2214  139.8660  155.5340 H   0  0  0  0  0  0  0  0  0  0  0  0
  148.8012  140.8114  153.1183 H   0  0  0  0  0  0  0  0  0  0  0  0
  147.3245  142.5054  155.1662 H   0  0  0  0  0  0  0  0  0  0  0  0
  147.0333  142.3944  153.4407 H   0  0  0  0  0  0  0  0  0  0  0  0
  148.5194  143.1290  154.0251 H   0  0  0  0  0  0  0  0  0  0  0  0
  150.5098  141.5362  154.5708 H   0  0  0  0  0  0  0  0  0  0  0  0
  148.5070  141.3076  156.7272 H   0  0  0  0  0  0  0  0  0  0  0  0
  150.0292  140.5595  157.1662 H   0  0  0  0  0  0  0  0  0  0  0  0
  150.9919  142.7215  156.3069 H   0  0  0  0  0  0  0  0  0  0  0  0
  150.0875  143.9275  158.4334 H   0  0  0  0  0  0  0  0  0  0  0  0
  149.6273  142.2735  158.8048 H   0  0  0  0  0  0  0  0  0  0  0  0
  151.9833  141.5140  158.4790 H   0  0  0  0  0  0  0  0  0  0  0  0
  152.4572  143.1206  157.9947 H   0  0  0  0  0  0  0  0  0  0  0  0
  152.9431  142.3706  163.0542 H   0  0  0  0  0  0  0  0  0  0  0  0
  152.2876  145.0037  162.5118 H   0  0  0  0  0  0  0  0  0  0  0  0
  151.6450  146.2694  160.4473 H   0  0  0  0  0  0  0  0  0  0  0  0
  150.4744  145.3072  159.5255 H   0  0  0  0  0  0  0  0  0  0  0  0
  152.1339  145.5139  158.9201 H   0  0  0  0  0  0  0  0  0  0  0  0
  149.4650  143.3128  156.4235 H   0  0  0  0  0  0  0  0  0  0  0  0
  1  2  1  0  0  0  0
  1 19  1  0  0  0  0
  1 20  1  0  0  0  0
  1 21  1  0  0  0  0
  2  8  1  0  0  0  0
  2  3  2  0  0  0  0
  3  4  1  0  0  0  0
  3 22  1  0  0  0  0
  4  5  1  0  0  0  0
  4 23  1  0  0  0  0
  4 24  1  0  0  0  0
  5  6  1  0  0  0  0
  5 25  1  0  0  0  0
  5 26  1  0  0  0  0
  6  7  1  0  0  0  0
  6  8  1  0  0  0  0
  6 27  1  0  0  0  0
  7 28  1  0  0  0  0
  7 29  1  0  0  0  0
  7 30  1  0  0  0  0
  8  9  1  0  0  0  0
  8 31  1  0  0  0  0
  9 10  1  0  0  0  0
  9 32  1  0  0  0  0
  9 33  1  0  0  0  0
 10 11  1  0  0  0  0
 10 34  1  0  0  0  0
 10 44  1  0  0  0  0
 11 12  1  0  0  0  0
 11 35  1  0  0  0  0
 11 36  1  0  0  0  0
 12 13  1  0  0  0  0
 12 37  1  0  0  0  0
 12 38  1  0  0  0  0
 13 17  1  0  0  0  0
 13 14  2  0  0  0  0
 14 15  1  0  0  0  0
 15 16  2  0  0  0  0
 15 39  1  0  0  0  0
 16 17  1  0  0  0  0
 16 40  1  0  0  0  0
 17 18  1  0  0  0  0
 18 41  1  0  0  0  0
 18 42  1  0  0  0  0
 18 43  1  0  0  0  0
M  CHG  1  10   1
M  END
> <s_m_source_file>
AV-unprocessed.smi

> <i_m_source_file_index>
3284

> <i_lp_mmshare_version>
43012

> <i_f3d_flags>
0

> <s_epik_input>
W0NIM11DMT1bQ0hdW0NIMl1bQ0gyXVtDQEBIXShbQ0gzXSlbQ0BIXTFbQ0gyXVtOSF1bQ0gyXVtDSDJdYzJuW2NIXVtjSF1uMltDSDNd

> <s_epik_cmdline>
J2VwaWtfcHl0aG9uJywgJy1waCcsICc3LjAnLCAnLXRuJywgJzgnLCAnLW1hJywgJzIwMCcsICctbWV0YWxfYmluZGluZycsICctaW1hZScsICc8aW5maWxlLm1hZT4nLCAnLW9tYWUnLCAnPG91dGZpbGUubWFlPic=

> <r_lp_tautomer_probability>
1

> <r_epik_Ionization_Penalty>
0.150779

> <r_epik_Ionization_Penalty_Charging>
0.150779

> <r_epik_Ionization_Penalty_Neutral>
1.39452e-13

> <r_epik_State_Penalty>
0.349447

> <r_epik_Charging_Adjusted_Penalty>
0.500226

> <i_epik_Tot_Q>
1

> <i_epik_Tot_abs_Q>
1

> <r_epik_Metal_State_Penalty>
0.000470967

> <b_epik_Metal_Only>
0

> <s_lp_Force_Field>
OPLS_2005

> <r_lp_Energy>
13.2562

> <b_lp_Chiralities_Consistent>
1

> <s_lp_Variant>
AV-unprocessed.smi:3284-1

> <Gold.Version>
5.8.1

> <Gold.Id.Protein>
6NUR|6NUR_protein|mol2

> <Gold.PLP.Fitness>
48.2143

> <Gold.PLP.PLP>
-44.1199

> <Gold.PLP.part.hbond>
-1.0000

> <Gold.PLP.part.metal>
0.0000

> <Gold.PLP.part.buried>
-2.7190

> <Gold.PLP.part.nonpolar>
-40.1847

> <Gold.PLP.part.repulsive>
0.0551

> <Gold.PLP.ligand.clash>
0.0000

> <Gold.PLP.ligand.torsion>
0.9771

> <Gold.PLP.Chemscore.Hbond>
2.0000

> <Gold.PLP.Chemscore.CHOScore>
0.0000

> <Gold.PLP.Chemscore.Metal>
0.0000

> <Gold.Chemscore.Hbonds>
donor molecule, donor type, donor heavy atom, donor atom, acceptor molecule, acceptor atom, score
      L1  H    10    44       P1  8028  2.00

> <Gold.PLP.Chemscore.Internal.Correction>
0.0485

> <Gold.Rescore>
     Score         DG    S(hbond)    S(metal)    S(lipo)     H(rot)  DE(clash)    DE(int)     intcor
     16.48     -17.73       1.00        0.00     111.50       1.61       0.30       0.94       ----

> <Gold.Chemscore.Fitness>
16.4838

> <Gold.Chemscore.DG>
-17.7269

> <Gold.Chemscore.ZeroCoef>
-5.4800

> <Gold.Chemscore.Hbond>
0.9955

> <Gold.Chemscore.Metal>
0.0000

> <Gold.Chemscore.Lipo>
111.4956

> <Gold.Chemscore.Internal_Hbond>
0.0000

> <Gold.Chemscore.DEClash>
0.3047

> <Gold.Chemscore.DEInternal>
0.9384

> <Gold.Chemscore.Rot>
1.6105

> <Gold.Chemscore.Internal.Correction>
   9.000000E+99

> <Gold.Chemscore.Hbonds>
donor molecule, donor type, donor heavy atom, donor atom, acceptor molecule, acceptor atom, score
      L1  H    10    44       P1  8028  1.00

> <Gold.Chemscore.Hbond.Weighted>
-3.3249

> <Gold.Chemscore.Metal.Weighted>
-0.0000

> <Gold.Chemscore.Lipo.Weighted>
-13.0450

> <Gold.Chemscore.Internal_Hbond.Weighted>
0.0000

> <Gold.Chemscore.DEClash.Weighted>
0.3047

> <Gold.Chemscore.DEInternal.Weighted>
0.9384

> <Gold.Chemscore.Rot.Weighted>
4.1230

> <Gold.Chemscore.Internal.Correction.Weighted>
   9.000000E+99

> <Gold.Protein.RotatedTorsions>
[ 6907 6896 6895 6894 ] final  166.48 input  -60.11 | X-H torsion
[ 7974 7965 7964 7962 ] final   90.40 input  175.53 | X-H torsion
[ 8008 7997 7996 7995 ] final  161.38 input   59.86 | X-H torsion
[ 10167 10162 10161 10158 ] final   -9.83 input  -65.29 | X-H torsion
[ 10718 10713 10712 10709 ] final -144.17 input   66.30 | X-H torsion
[ 10763 10752 10751 10750 ] final  170.10 input  -60.55 | X-H torsion
[ 11005 11000 10999 10996 ] final   45.41 input  -57.11 | X-H torsion

> <Gold.Protein.ActiveResidues>
 VAL166  LYS551  ARG553  GLY616  TRP617  ASP618  TYR619  PRO620  LYS621  CYS622 
 ASP623  PHE694  ASN695  SER759  ASP760  ASP761  ALA762  ILE779  LEU786  VAL792 
 PHE793  MET794  SER795  GLU796  ALA797  LYS798  CYS799  TRP800  GLU811  SER814 

> <Gold.Protein.RotatedAtoms>
  151.8782  133.3490  159.3757 H   0  0  0  0  0  0  0  0  0  0  0  0  # atno 6907 bound_to 6896
  150.7134  134.5044  159.5586 H   0  0  0  0  0  0  0  0  0  0  0  0  # atno 6908 bound_to 6896
  152.2591  134.8053  160.0484 H   0  0  0  0  0  0  0  0  0  0  0  0  # atno 6909 bound_to 6896
  145.5195  139.2279  143.2679 H   0  0  0  0  0  0  0  0  0  0  0  0  # atno 7974 bound_to 7965
  156.2107  140.1779  156.7701 H   0  0  0  0  0  0  0  0  0  0  0  0  # atno 8008 bound_to 7997
  154.5719  140.0681  156.9006 H   0  0  0  0  0  0  0  0  0  0  0  0  # atno 8009 bound_to 7997
  155.2658  140.3339  155.4271 H   0  0  0  0  0  0  0  0  0  0  0  0  # atno 8010 bound_to 7997
  140.7098  143.5815  150.8987 H   0  0  0  0  0  0  0  0  0  0  0  0  # atno 10167 bound_to 10162
  156.3668  130.7767  151.1942 H   0  0  0  0  0  0  0  0  0  0  0  0  # atno 10718 bound_to 10713
  154.3927  135.2754  155.2145 H   0  0  0  0  0  0  0  0  0  0  0  0  # atno 10763 bound_to 10752
  154.4205  135.6001  153.6010 H   0  0  0  0  0  0  0  0  0  0  0  0  # atno 10764 bound_to 10752
  152.9832  135.5971  154.4184 H   0  0  0  0  0  0  0  0  0  0  0  0  # atno 10765 bound_to 10752
  140.1462  134.4519  155.8414 H   0  0  0  0  0  0  0  0  0  0  0  0  # atno 11005 bound_to 11000
  146.2115  140.6006  142.9057 LP  0  0  0  0  0  0  0  0  0  0  0  0  # atno 17320 bound_to 7965
  144.7683  140.5581  143.6687 LP  0  0  0  0  0  0  0  0  0  0  0  0  # atno 17321 bound_to 7965
  139.9541  143.6239  152.3021 LP  0  0  0  0  0  0  0  0  0  0  0  0  # atno 17342 bound_to 10162
  139.6768  144.7658  151.1682 LP  0  0  0  0  0  0  0  0  0  0  0  0  # atno 17343 bound_to 10162
  157.7479  131.0384  150.4500 LP  0  0  0  0  0  0  0  0  0  0  0  0  # atno 17370 bound_to 10713
  156.4721  130.4055  149.6512 LP  0  0  0  0  0  0  0  0  0  0  0  0  # atno 17371 bound_to 10713
  141.2193  133.6853  156.7338 LP  0  0  0  0  0  0  0  0  0  0  0  0  # atno 17394 bound_to 11000
  140.2660  134.8429  157.3803 LP  0  0  0  0  0  0  0  0  0  0  0  0  # atno 17395 bound_to 11000

$$$$
