AV-unprocessed.smi:69|AV-procd|sdf|653|dock10
  -GOLD-   2262016553D 1   1.00000     0.00000
 Structure written by MMmdl.
 32 34  0  0  0  0  0  0  0  0  1 V2000
  143.7206  134.2471  154.4385 N   0  0  0  0  0  0  0  0  0  0  0  0
  144.3311  135.2312  153.7639 C   0  0  0  0  0  0  0  0  0  0  0  0
  143.8866  135.5295  152.5208 N   0  0  0  0  0  0  0  0  0  0  0  0
  144.4795  136.5069  151.8278 C   0  0  0  0  0  0  0  0  0  0  0  0
  145.5040  137.2835  152.1891 N   0  0  0  0  0  0  0  0  0  0  0  0
  145.9520  136.9825  153.4431 C   0  0  0  0  0  0  0  0  0  0  0  0
  145.4194  135.9716  154.2908 C   0  0  0  0  0  0  0  0  0  0  0  0
  146.1187  135.9411  155.4892 N   0  0  0  0  0  0  0  0  0  0  0  0
  147.0140  136.8818  155.3531 C   0  0  0  0  0  0  0  0  0  0  0  0
  146.9897  137.5574  154.1521 N   0  0  0  0  0  0  0  0  0  0  0  0
  147.8959  138.6743  153.7243 C   0  0  2  0  0  0  0  0  0  0  0  0
  148.9174  138.8328  154.6635 O   0  0  0  0  0  0  0  0  0  0  0  0
  148.8828  140.1413  155.2308 C   0  0  1  0  0  0  0  0  0  0  0  0
  150.2933  140.6033  155.6370 C   0  0  0  0  0  0  0  0  0  0  0  0
  151.2413  140.1586  154.6904 O   0  0  0  0  0  0  0  0  0  0  0  0
  148.1874  140.9947  154.1603 C   0  0  1  0  0  0  0  0  0  0  0  0
  149.1004  141.4178  153.1632 O   0  0  0  0  0  0  0  0  0  0  0  0
  147.1727  140.0281  153.5710 C   0  0  2  0  0  0  0  0  0  0  0  0
  145.9420  140.1082  154.2684 O   0  0  0  0  0  0  0  0  0  0  0  0
  148.3390  138.3285  152.7892 H   0  0  0  0  0  0  0  0  0  0  0  0
  148.2351  140.1252  156.1083 H   0  0  0  0  0  0  0  0  0  0  0  0
  147.7201  141.8832  154.5875 H   0  0  0  0  0  0  0  0  0  0  0  0
  146.9739  140.2213  152.5160 H   0  0  0  0  0  0  0  0  0  0  0  0
  144.0345  134.0051  155.3673 H   0  0  0  0  0  0  0  0  0  0  0  0
  142.9472  133.7530  154.0179 H   0  0  0  0  0  0  0  0  0  0  0  0
  144.0770  136.6933  150.8433 H   0  0  0  0  0  0  0  0  0  0  0  0
  147.7262  137.1097  156.1327 H   0  0  0  0  0  0  0  0  0  0  0  0
  150.3432  141.6877  155.7403 H   0  0  0  0  0  0  0  0  0  0  0  0
  150.5675  140.1699  156.5993 H   0  0  0  0  0  0  0  0  0  0  0  0
  151.9967  139.8290  155.1526 H   0  0  0  0  0  0  0  0  0  0  0  0
  149.2120  140.7154  152.5411 H   0  0  0  0  0  0  0  0  0  0  0  0
  145.2588  140.3086  153.6470 H   0  0  0  0  0  0  0  0  0  0  0  0
  1  2  1  0  0  0  0
  1 24  1  0  0  0  0
  1 25  1  0  0  0  0
  2  7  1  0  0  0  0
  2  3  2  0  0  0  0
  3  4  1  0  0  0  0
  4  5  2  0  0  0  0
  4 26  1  0  0  0  0
  5  6  1  0  0  0  0
  6 10  1  0  0  0  0
  6  7  2  0  0  0  0
  7  8  1  0  0  0  0
  8  9  2  0  0  0  0
  9 10  1  0  0  0  0
  9 27  1  0  0  0  0
 10 11  1  0  0  0  0
 11 20  1  0  0  0  0
 11 18  1  0  0  0  0
 11 12  1  0  0  0  0
 12 13  1  0  0  0  0
 13 21  1  0  0  0  0
 13 14  1  0  0  0  0
 13 16  1  0  0  0  0
 14 15  1  0  0  0  0
 14 28  1  0  0  0  0
 14 29  1  0  0  0  0
 15 30  1  0  0  0  0
 16 22  1  0  0  0  0
 16 17  1  0  0  0  0
 16 18  1  0  0  0  0
 17 31  1  0  0  0  0
 18 23  1  0  0  0  0
 18 19  1  0  0  0  0
 19 32  1  0  0  0  0
M  END
> <s_m_source_file>
AV-unprocessed.smi

> <i_m_source_file_index>
69

> <i_lp_mmshare_version>
43012

> <i_f3d_flags>
0

> <s_epik_input>
bjFbY0hdbmMoW05IMl0pYyhjMTIpbltjSF1uMltDQEBIXTNPW0NASF0oW0NIMl1bT0hdKVtDQEBIXShbT0hdKVtDQEhdM1tPSF0=

> <s_epik_cmdline>
J2VwaWtfcHl0aG9uJywgJy1waCcsICc3LjAnLCAnLXRuJywgJzgnLCAnLW1hJywgJzIwMCcsICctbWV0YWxfYmluZGluZycsICctaW1hZScsICc8aW5maWxlLm1hZT4nLCAnLW9tYWUnLCAnPG91dGZpbGUubWFlPic=

> <r_lp_tautomer_probability>
1

> <r_epik_Ionization_Penalty>
0.000428445

> <r_epik_Ionization_Penalty_Charging>
0

> <r_epik_Ionization_Penalty_Neutral>
0.000428445

> <r_epik_State_Penalty>
-0

> <r_epik_Charging_Adjusted_Penalty>
0

> <i_epik_Tot_Q>
0

> <i_epik_Tot_abs_Q>
0

> <r_epik_Metal_State_Penalty>
-0

> <b_epik_Metal_Only>
0

> <s_epik_Chemistry_Notes>
This compound contains an acetal/aminal-like group ( X-CH(R)-Y where X, Y are N, S, or O) that may be acid/base labile, releasing an aldehyde.

> <s_lp_Force_Field>
OPLS_2005

> <r_lp_Energy>
40.109

> <b_lp_Chiralities_Consistent>
1

> <s_lp_Variant>
AV-unprocessed.smi:69-11

> <Gold.Version>
5.8.1

> <Gold.Id.Protein>
6NUR|6NUR_protein|mol2

> <Gold.PLP.Fitness>
34.8612

> <Gold.PLP.PLP>
-19.5186

> <Gold.PLP.part.hbond>
-5.4225

> <Gold.PLP.part.metal>
0.0000

> <Gold.PLP.part.buried>
-3.4701

> <Gold.PLP.part.nonpolar>
-10.9294

> <Gold.PLP.part.repulsive>
0.4346

> <Gold.PLP.ligand.clash>
0.0000

> <Gold.PLP.ligand.torsion>
0.3240

> <Gold.PLP.Chemscore.Hbond>
4.3830

> <Gold.PLP.Chemscore.CHOScore>
0.9466

> <Gold.PLP.Chemscore.Metal>
0.0000

> <Gold.Chemscore.Hbonds>
donor molecule, donor type, donor heavy atom, donor atom, acceptor molecule, acceptor atom, score
      L1  H     1    25       P1 10957  0.21
      L1  H    17    31       P1  7957  1.00
      L1  H    19    32       P1 10175  1.00
      P1  H  7989  7998       L1    15  0.78
      P1  H  8011  8017       L1    17  0.59
      L1  C     4    26       P1 10171  0.99

> <Gold.PLP.Chemscore.Internal.Correction>
0.0019

> <Gold.Rescore>
     Score         DG    S(hbond)    S(metal)    S(lipo)     H(rot)  DE(clash)    DE(int)     intcor
     10.23     -10.71       3.76        0.00      25.35       4.03       0.00       0.48       ----

> <Gold.Chemscore.Fitness>
10.2318

> <Gold.Chemscore.DG>
-10.7083

> <Gold.Chemscore.ZeroCoef>
-5.4800

> <Gold.Chemscore.Hbond>
3.7645

> <Gold.Chemscore.Metal>
0.0000

> <Gold.Chemscore.Lipo>
25.3492

> <Gold.Chemscore.Internal_Hbond>
0.0000

> <Gold.Chemscore.DEClash>
0.0004

> <Gold.Chemscore.DEInternal>
0.4761

> <Gold.Chemscore.Rot>
4.0277

> <Gold.Chemscore.Internal.Correction>
   9.000000E+99

> <Gold.Chemscore.Hbonds>
donor molecule, donor type, donor heavy atom, donor atom, acceptor molecule, acceptor atom, score
      L1  H     1    25       P1 10957  0.20
      L1  H    17    31       P1  7957  0.96
      L1  H    19    32       P1 10175  0.98
      P1  H  7989  7998       L1    15  0.60
      P1  H  8011  8017       L1    17  0.06

> <Gold.Chemscore.Hbond.Weighted>
-12.5734

> <Gold.Chemscore.Metal.Weighted>
-0.0000

> <Gold.Chemscore.Lipo.Weighted>
-2.9659

> <Gold.Chemscore.Internal_Hbond.Weighted>
0.0000

> <Gold.Chemscore.DEClash.Weighted>
0.0004

> <Gold.Chemscore.DEInternal.Weighted>
0.4761

> <Gold.Chemscore.Rot.Weighted>
10.3110

> <Gold.Chemscore.Internal.Correction.Weighted>
   9.000000E+99

> <Gold.Protein.RotatedTorsions>
[ 6907 6896 6895 6894 ] final  109.28 input  -60.11 | X-H torsion
[ 7974 7965 7964 7962 ] final  159.61 input  175.53 | X-H torsion
[ 8008 7997 7996 7995 ] final   94.57 input   59.86 | X-H torsion
[ 10167 10162 10161 10158 ] final   31.91 input  -65.29 | X-H torsion
[ 10718 10713 10712 10709 ] final  132.07 input   66.30 | X-H torsion
[ 10763 10752 10751 10750 ] final  104.11 input  -60.55 | X-H torsion
[ 11005 11000 10999 10996 ] final  177.46 input  -57.11 | X-H torsion

> <Gold.Protein.ActiveResidues>
 VAL166  LYS551  ARG553  GLY616  TRP617  ASP618  TYR619  PRO620  LYS621  CYS622 
 ASP623  PHE694  ASN695  SER759  ASP760  ASP761  ALA762  ILE779  LEU786  VAL792 
 PHE793  MET794  SER795  GLU796  ALA797  LYS798  CYS799  TRP800  GLU811  SER814 

> <Gold.Protein.RotatedAtoms>
  152.5074  133.8967  159.7420 H   0  0  0  0  0  0  0  0  0  0  0  0  # atno 6907 bound_to 6896
  150.9392  133.6667  159.2801 H   0  0  0  0  0  0  0  0  0  0  0  0  # atno 6908 bound_to 6896
  151.3984  135.0972  159.9601 H   0  0  0  0  0  0  0  0  0  0  0  0  # atno 6909 bound_to 6896
  144.7781  139.7641  143.6271 H   0  0  0  0  0  0  0  0  0  0  0  0  # atno 7974 bound_to 7965
  156.0594  140.3298  155.7443 H   0  0  0  0  0  0  0  0  0  0  0  0  # atno 8008 bound_to 7997
  155.5478  140.0607  157.2874 H   0  0  0  0  0  0  0  0  0  0  0  0  # atno 8009 bound_to 7997
  154.4474  140.1899  156.0644 H   0  0  0  0  0  0  0  0  0  0  0  0  # atno 8010 bound_to 7997
  140.4546  144.0997  150.6199 H   0  0  0  0  0  0  0  0  0  0  0  0  # atno 10167 bound_to 10162
  157.4907  131.1090  150.9561 H   0  0  0  0  0  0  0  0  0  0  0  0  # atno 10718 bound_to 10713
  153.3616  135.3954  155.1722 H   0  0  0  0  0  0  0  0  0  0  0  0  # atno 10763 bound_to 10752
  154.8680  135.3681  154.5092 H   0  0  0  0  0  0  0  0  0  0  0  0  # atno 10764 bound_to 10752
  153.5552  135.7082  153.5633 H   0  0  0  0  0  0  0  0  0  0  0  0  # atno 10765 bound_to 10752
  140.3843  134.6919  157.4470 H   0  0  0  0  0  0  0  0  0  0  0  0  # atno 11005 bound_to 11000
  146.1973  139.5246  142.9766 LP  0  0  0  0  0  0  0  0  0  0  0  0  # atno 17320 bound_to 7965
  145.6128  141.0336  143.1957 LP  0  0  0  0  0  0  0  0  0  0  0  0  # atno 17321 bound_to 7965
  140.4166  143.2631  151.9767 LP  0  0  0  0  0  0  0  0  0  0  0  0  # atno 17342 bound_to 10162
  139.4800  144.5868  151.7840 LP  0  0  0  0  0  0  0  0  0  0  0  0  # atno 17343 bound_to 10162
  157.0263  130.5694  149.5337 LP  0  0  0  0  0  0  0  0  0  0  0  0  # atno 17370 bound_to 10713
  156.0172  130.5266  150.8168 LP  0  0  0  0  0  0  0  0  0  0  0  0  # atno 17371 bound_to 10713
  140.0455  134.6206  155.8927 LP  0  0  0  0  0  0  0  0  0  0  0  0  # atno 17394 bound_to 11000
  141.1913  133.6571  156.5449 LP  0  0  0  0  0  0  0  0  0  0  0  0  # atno 17395 bound_to 11000

$$$$
