AV-unprocessed.smi:531|AV-procd|sdf|2846|dock10
  -GOLD-   2262023333D 1   1.00000     0.00000
 Structure written by MMmdl.
 46 48  0  0  0  0  0  0  0  0  1 V2000
  153.8291  136.9085  164.3390 C   0  0  0  0  0  0  0  0  0  0  0  0
  153.4637  137.1964  162.8812 C   0  0  0  0  0  0  0  0  0  0  0  0
  154.5539  137.8520  162.2561 O   0  0  0  0  0  0  0  0  0  0  0  0
  154.2683  138.2370  160.9225 C   0  0  0  0  0  0  0  0  0  0  0  0
  153.0644  139.1855  160.9298 C   0  0  0  0  0  0  0  0  0  0  0  0
  152.6616  139.5469  159.5735 N   0  0  0  0  0  0  0  0  0  0  0  0
  152.5137  140.7879  159.0311 C   0  0  0  0  0  0  0  0  0  0  0  0
  152.7259  141.9578  159.7640 N   0  0  0  0  0  0  0  0  0  0  0  0
  152.1447  143.2737  159.4950 C   0  0  0  0  0  0  0  0  0  0  0  0
  151.4821  143.8678  160.7516 C   0  0  0  0  0  0  0  0  0  0  0  0
  152.5021  143.9769  161.8934 C   0  0  0  0  0  0  0  0  0  0  0  0
  153.2029  142.6273  162.1029 C   0  0  0  0  0  0  0  0  0  0  0  0
  153.7728  142.0957  160.7754 C   0  0  0  0  0  0  0  0  0  0  0  0
  152.2058  140.7919  157.7311 N   0  0  0  0  0  0  0  0  0  0  0  0
  152.1308  139.4438  157.4197 C   0  0  0  0  0  0  0  0  0  0  0  0
  152.4170  138.6806  158.5051 C   0  0  0  0  0  0  0  0  0  0  0  0
  152.4669  137.2126  158.4410 C   0  0  0  0  0  0  0  0  0  0  0  0
  152.7490  136.4985  159.4004 O   0  0  0  0  0  0  0  0  0  0  0  0
  152.1822  136.7235  157.2097 N   0  0  0  0  0  0  0  0  0  0  0  0
  151.8780  137.4348  156.0817 C   0  0  0  0  0  0  0  0  0  0  0  0
  151.6490  136.8449  155.0259 O   0  0  0  0  0  0  0  0  0  0  0  0
  151.8452  138.8021  156.1808 N   0  0  0  0  0  0  0  0  0  0  0  0
  151.5296  139.6166  155.0057 C   0  0  0  0  0  0  0  0  0  0  0  0
  152.2036  135.7190  157.1118 H   0  0  0  0  0  0  0  0  0  0  0  0
  153.0101  136.4055  164.8537 H   0  0  0  0  0  0  0  0  0  0  0  0
  154.0468  137.8313  164.8777 H   0  0  0  0  0  0  0  0  0  0  0  0
  154.7084  136.2670  164.4021 H   0  0  0  0  0  0  0  0  0  0  0  0
  153.2382  136.2626  162.3641 H   0  0  0  0  0  0  0  0  0  0  0  0
  152.5722  137.8234  162.8371 H   0  0  0  0  0  0  0  0  0  0  0  0
  155.1359  138.7352  160.4868 H   0  0  0  0  0  0  0  0  0  0  0  0
  154.0509  137.3579  160.3138 H   0  0  0  0  0  0  0  0  0  0  0  0
  152.2262  138.7341  161.4566 H   0  0  0  0  0  0  0  0  0  0  0  0
  153.2957  140.0787  161.5014 H   0  0  0  0  0  0  0  0  0  0  0  0
  152.9368  143.9400  159.1506 H   0  0  0  0  0  0  0  0  0  0  0  0
  151.4359  143.2179  158.6699 H   0  0  0  0  0  0  0  0  0  0  0  0
  151.0669  144.8505  160.5273 H   0  0  0  0  0  0  0  0  0  0  0  0
  150.6463  143.2417  161.0656 H   0  0  0  0  0  0  0  0  0  0  0  0
  153.2437  144.7383  161.6482 H   0  0  0  0  0  0  0  0  0  0  0  0
  152.0127  144.3000  162.8125 H   0  0  0  0  0  0  0  0  0  0  0  0
  154.0009  142.7306  162.8386 H   0  0  0  0  0  0  0  0  0  0  0  0
  152.4949  141.9049  162.5115 H   0  0  0  0  0  0  0  0  0  0  0  0
  154.2470  141.1286  160.9464 H   0  0  0  0  0  0  0  0  0  0  0  0
  154.5525  142.7611  160.4022 H   0  0  0  0  0  0  0  0  0  0  0  0
  150.6268  139.2561  154.5104 H   0  0  0  0  0  0  0  0  0  0  0  0
  152.3506  139.5795  154.2888 H   0  0  0  0  0  0  0  0  0  0  0  0
  151.3569  140.6627  155.2586 H   0  0  0  0  0  0  0  0  0  0  0  0
  1  2  1  0  0  0  0
  1 25  1  0  0  0  0
  1 26  1  0  0  0  0
  1 27  1  0  0  0  0
  2  3  1  0  0  0  0
  2 28  1  0  0  0  0
  2 29  1  0  0  0  0
  3  4  1  0  0  0  0
  4  5  1  0  0  0  0
  4 30  1  0  0  0  0
  4 31  1  0  0  0  0
  5  6  1  0  0  0  0
  5 32  1  0  0  0  0
  5 33  1  0  0  0  0
  6 16  1  0  0  0  0
  6  7  1  0  0  0  0
  7  8  1  0  0  0  0
  7 14  2  0  0  0  0
  8 13  1  0  0  0  0
  8  9  1  0  0  0  0
  9 10  1  0  0  0  0
  9 34  1  0  0  0  0
  9 35  1  0  0  0  0
 10 11  1  0  0  0  0
 10 36  1  0  0  0  0
 10 37  1  0  0  0  0
 11 12  1  0  0  0  0
 11 38  1  0  0  0  0
 11 39  1  0  0  0  0
 12 13  1  0  0  0  0
 12 40  1  0  0  0  0
 12 41  1  0  0  0  0
 13 42  1  0  0  0  0
 13 43  1  0  0  0  0
 14 15  1  0  0  0  0
 15 22  1  0  0  0  0
 15 16  2  0  0  0  0
 16 17  1  0  0  0  0
 17 18  2  0  0  0  0
 17 19  1  0  0  0  0
 19 24  1  0  0  0  0
 19 20  1  0  0  0  0
 20 21  2  0  0  0  0
 20 22  1  0  0  0  0
 22 23  1  0  0  0  0
 23 44  1  0  0  0  0
 23 45  1  0  0  0  0
 23 46  1  0  0  0  0
M  END
> <s_m_source_file>
AV-unprocessed.smi

> <i_m_source_file_index>
531

> <i_lp_mmshare_version>
43012

> <i_f3d_flags>
0

> <s_epik_input>
W0NIM11uMWMoPU8pW25IXWMoPU8pYyhjMTIpbihbQ0gyXVtDSDJdT1tDSDJdW0NIM10pYyhuMilOM1tDSDJdW0NIMl1bQ0gyXVtDSDJdW0NIMl0z

> <s_epik_cmdline>
J2VwaWtfcHl0aG9uJywgJy1waCcsICc3LjAnLCAnLXRuJywgJzgnLCAnLW1hJywgJzIwMCcsICctbWV0YWxfYmluZGluZycsICctaW1hZScsICc8aW5maWxlLm1hZT4nLCAnLW9tYWUnLCAnPG91dGZpbGUubWFlPic=

> <r_lp_tautomer_probability>
1

> <r_epik_Ionization_Penalty>
0.000274134

> <r_epik_Ionization_Penalty_Charging>
0.000122674

> <r_epik_Ionization_Penalty_Neutral>
0.00015146

> <r_epik_State_Penalty>
-0

> <r_epik_Charging_Adjusted_Penalty>
0.000122674

> <i_epik_Tot_Q>
0

> <i_epik_Tot_abs_Q>
0

> <r_epik_Metal_State_Penalty>
0.0938197

> <b_epik_Metal_Only>
0

> <s_lp_Force_Field>
OPLS_2005

> <r_lp_Energy>
38.5132

> <b_lp_Chiralities_Consistent>
1

> <s_lp_Variant>
AV-unprocessed.smi:531-1

> <Gold.Version>
5.8.1

> <Gold.Id.Protein>
6NUR|6NUR_protein|mol2

> <Gold.PLP.Fitness>
48.4273

> <Gold.PLP.PLP>
-42.9793

> <Gold.PLP.part.hbond>
-2.1243

> <Gold.PLP.part.metal>
0.0000

> <Gold.PLP.part.buried>
-3.6083

> <Gold.PLP.part.nonpolar>
-36.5778

> <Gold.PLP.part.repulsive>
0.2589

> <Gold.PLP.ligand.clash>
0.0270

> <Gold.PLP.ligand.torsion>
0.4961

> <Gold.PLP.Chemscore.Hbond>
2.0000

> <Gold.PLP.Chemscore.CHOScore>
0.0000

> <Gold.PLP.Chemscore.Metal>
0.0000

> <Gold.Chemscore.Hbonds>
donor molecule, donor type, donor heavy atom, donor atom, acceptor molecule, acceptor atom, score
      P1  H  6896  6907       L1    18  1.00
      P1  H 10752 10764       L1    21  1.00

> <Gold.PLP.Chemscore.Internal.Correction>
0.4671

> <Gold.Rescore>
     Score         DG    S(hbond)    S(metal)    S(lipo)     H(rot)  DE(clash)    DE(int)     intcor
     15.30     -19.24       1.88        0.00      99.49       1.62       1.07       2.87       ----

> <Gold.Chemscore.Fitness>
15.2987

> <Gold.Chemscore.DG>
-19.2364

> <Gold.Chemscore.ZeroCoef>
-5.4800

> <Gold.Chemscore.Hbond>
1.8756

> <Gold.Chemscore.Metal>
0.0000

> <Gold.Chemscore.Lipo>
99.4871

> <Gold.Chemscore.Internal_Hbond>
0.0000

> <Gold.Chemscore.DEClash>
1.0695

> <Gold.Chemscore.DEInternal>
2.8681

> <Gold.Chemscore.Rot>
1.6204

> <Gold.Chemscore.Internal.Correction>
   9.000000E+99

> <Gold.Chemscore.Hbonds>
donor molecule, donor type, donor heavy atom, donor atom, acceptor molecule, acceptor atom, score
      P1  H  6896  6907       L1    18  0.97
      P1  H 10752 10764       L1    21  0.93

> <Gold.Chemscore.Hbond.Weighted>
-6.2645

> <Gold.Chemscore.Metal.Weighted>
-0.0000

> <Gold.Chemscore.Lipo.Weighted>
-11.6400

> <Gold.Chemscore.Internal_Hbond.Weighted>
0.0000

> <Gold.Chemscore.DEClash.Weighted>
1.0695

> <Gold.Chemscore.DEInternal.Weighted>
2.8681

> <Gold.Chemscore.Rot.Weighted>
4.1481

> <Gold.Chemscore.Internal.Correction.Weighted>
   9.000000E+99

> <Gold.Protein.RotatedTorsions>
[ 6907 6896 6895 6894 ] final   24.39 input  -60.11 | X-H torsion
[ 7974 7965 7964 7962 ] final  141.30 input  175.53 | X-H torsion
[ 8008 7997 7996 7995 ] final   35.17 input   59.86 | X-H torsion
[ 10167 10162 10161 10158 ] final -177.39 input  -65.29 | X-H torsion
[ 10718 10713 10712 10709 ] final -139.87 input   66.30 | X-H torsion
[ 10763 10752 10751 10750 ] final  -75.27 input  -60.55 | X-H torsion
[ 11005 11000 10999 10996 ] final -162.52 input  -57.11 | X-H torsion

> <Gold.Protein.ActiveResidues>
 VAL166  LYS551  ARG553  GLY616  TRP617  ASP618  TYR619  PRO620  LYS621  CYS622 
 ASP623  PHE694  ASN695  SER759  ASP760  ASP761  ALA762  ILE779  LEU786  VAL792 
 PHE793  MET794  SER795  GLU796  ALA797  LYS798  CYS799  TRP800  GLU811  SER814 

> <Gold.Protein.RotatedAtoms>
  151.9567  135.0143  160.0544 H   0  0  0  0  0  0  0  0  0  0  0  0  # atno 6907 bound_to 6896
  152.1905  133.4765  159.5013 H   0  0  0  0  0  0  0  0  0  0  0  0  # atno 6908 bound_to 6896
  150.6934  134.1636  159.4228 H   0  0  0  0  0  0  0  0  0  0  0  0  # atno 6909 bound_to 6896
  144.9109  139.5295  143.5709 H   0  0  0  0  0  0  0  0  0  0  0  0  # atno 7974 bound_to 7965
  155.1667  140.3288  155.4401 H   0  0  0  0  0  0  0  0  0  0  0  0  # atno 8008 bound_to 7997
  156.2524  140.1951  156.6722 H   0  0  0  0  0  0  0  0  0  0  0  0  # atno 8009 bound_to 7997
  154.6367  140.0575  156.9783 H   0  0  0  0  0  0  0  0  0  0  0  0  # atno 8010 bound_to 7997
  139.5482  144.2178  152.1029 H   0  0  0  0  0  0  0  0  0  0  0  0  # atno 10167 bound_to 10162
  156.3157  130.7506  151.1593 H   0  0  0  0  0  0  0  0  0  0  0  0  # atno 10718 bound_to 10713
  154.4843  135.5836  153.6412 H   0  0  0  0  0  0  0  0  0  0  0  0  # atno 10763 bound_to 10752
  152.9852  135.6097  154.3206 H   0  0  0  0  0  0  0  0  0  0  0  0  # atno 10764 bound_to 10752
  154.3100  135.2845  155.2550 H   0  0  0  0  0  0  0  0  0  0  0  0  # atno 10765 bound_to 10752
  140.6083  134.4876  157.5213 H   0  0  0  0  0  0  0  0  0  0  0  0  # atno 11005 bound_to 11000
  146.3158  139.7913  142.8985 LP  0  0  0  0  0  0  0  0  0  0  0  0  # atno 17320 bound_to 7965
  145.3457  141.0297  143.3367 LP  0  0  0  0  0  0  0  0  0  0  0  0  # atno 17321 bound_to 7965
  140.1669  144.4973  150.6601 LP  0  0  0  0  0  0  0  0  0  0  0  0  # atno 17342 bound_to 10162
  140.6737  143.2296  151.5560 LP  0  0  0  0  0  0  0  0  0  0  0  0  # atno 17343 bound_to 10162
  157.7401  131.0521  150.5189 LP  0  0  0  0  0  0  0  0  0  0  0  0  # atno 17370 bound_to 10713
  156.5334  130.4190  149.6190 LP  0  0  0  0  0  0  0  0  0  0  0  0  # atno 17371 bound_to 10713
  139.9203  134.8163  156.1233 LP  0  0  0  0  0  0  0  0  0  0  0  0  # atno 17394 bound_to 11000
  141.0825  133.6748  156.2367 LP  0  0  0  0  0  0  0  0  0  0  0  0  # atno 17395 bound_to 11000

$$$$
