AV-unprocessed.smi:38|AV-procd|sdf|343|dock4
  -GOLD-   2262016183D 1   1.00000     0.00000
 Structure written by MMmdl.
 27 28  0  0  0  0  0  0  0  0  2 V2000
  152.3816  139.7353  155.6959 O   0  0  0  0  0  0  0  0  0  0  0  0
  151.2485  139.8190  155.2246 C   0  0  0  0  0  0  0  0  0  0  0  0
  150.4985  140.9563  155.3011 N   0  5  0  0  0  0  0  0  0  0  0  0
  149.2404  141.0468  154.7780 C   0  0  0  0  0  0  0  0  0  0  0  0
  148.5650  142.0751  154.8264 O   0  0  0  0  0  0  0  0  0  0  0  0
  148.6782  139.9089  154.1367 N   0  0  0  0  0  0  0  0  0  0  0  0
  147.2848  140.0038  153.5507 C   0  0  1  0  0  0  0  0  0  0  0  0
  147.3210  139.7292  152.0451 C   0  0  0  0  0  0  0  0  0  0  0  0
  146.9679  138.2577  151.9930 C   0  0  2  0  0  0  0  0  0  0  0  0
  146.4109  137.9165  150.7401 O   0  0  0  0  0  0  0  0  0  0  0  0
  145.9586  138.1384  153.1374 C   0  0  1  0  0  0  0  0  0  0  0  0
  145.8357  136.7151  153.7042 C   0  0  0  0  0  0  0  0  0  0  0  0
  147.1130  136.2034  154.0202 O   0  0  0  0  0  0  0  0  0  0  0  0
  146.4664  139.0280  154.1324 O   0  0  0  0  0  0  0  0  0  0  0  0
  149.4220  138.7449  154.0349 C   0  0  0  0  0  0  0  0  0  0  0  0
  150.6662  138.6617  154.5483 C   0  0  0  0  0  0  0  0  0  0  0  0
  151.3631  137.5184  154.4313 F   0  0  0  0  0  0  0  0  0  0  0  0
  146.9130  140.9957  153.8123 H   0  0  0  0  0  0  0  0  0  0  0  0
  147.8530  137.6510  152.1900 H   0  0  0  0  0  0  0  0  0  0  0  0
  144.9888  138.5121  152.8021 H   0  0  0  0  0  0  0  0  0  0  0  0
  146.5478  140.3357  151.5708 H   0  0  0  0  0  0  0  0  0  0  0  0
  148.2849  139.9729  151.5962 H   0  0  0  0  0  0  0  0  0  0  0  0
  145.5100  138.2008  150.7269 H   0  0  0  0  0  0  0  0  0  0  0  0
  145.2544  136.7295  154.6264 H   0  0  0  0  0  0  0  0  0  0  0  0
  145.3221  136.0498  153.0105 H   0  0  0  0  0  0  0  0  0  0  0  0
  147.6378  136.2009  153.2345 H   0  0  0  0  0  0  0  0  0  0  0  0
  149.0139  137.8812  153.5345 H   0  0  0  0  0  0  0  0  0  0  0  0
  1  2  2  0  0  0  0
  2 16  1  0  0  0  0
  2  3  1  0  0  0  0
  3  4  1  0  0  0  0
  4  5  2  0  0  0  0
  4  6  1  0  0  0  0
  6  7  1  0  0  0  0
  6 15  1  0  0  0  0
  7 18  1  0  0  0  0
  7 14  1  0  0  0  0
  7  8  1  0  0  0  0
  8  9  1  0  0  0  0
  8 21  1  0  0  0  0
  8 22  1  0  0  0  0
  9 19  1  0  0  0  0
  9 10  1  0  0  0  0
  9 11  1  0  0  0  0
 10 23  1  0  0  0  0
 11 20  1  0  0  0  0
 11 12  1  0  0  0  0
 11 14  1  0  0  0  0
 12 13  1  0  0  0  0
 12 24  1  0  0  0  0
 12 25  1  0  0  0  0
 13 26  1  0  0  0  0
 15 16  2  0  0  0  0
 15 27  1  0  0  0  0
 16 17  1  0  0  0  0
M  CHG  1   3  -1
M  END
> <s_m_source_file>
AV-unprocessed.smi

> <i_m_source_file_index>
38

> <i_lp_mmshare_version>
43012

> <i_f3d_flags>
0

> <s_epik_input>
Tz1jMVtuSF1jKD1PKW4oW2NIXWMxRilbQ0BIXTJbQ0gyXVtDQEhdKFtPSF0pW0NASF0oTzIpW0NIMl1bT0hd

> <s_epik_cmdline>
J2VwaWtfcHl0aG9uJywgJy1waCcsICc3LjAnLCAnLXRuJywgJzgnLCAnLW1hJywgJzIwMCcsICctbWV0YWxfYmluZGluZycsICctaW1hZScsICc8aW5maWxlLm1hZT4nLCAnLW9tYWUnLCAnPG91dGZpbGUubWFlPic=

> <r_epik_Ionization_Penalty>
1.68146

> <r_epik_Ionization_Penalty_Charging>
3.4211e-08

> <r_epik_Ionization_Penalty_Neutral>
1.68146

> <r_epik_State_Penalty>
1.78593

> <r_epik_Charging_Adjusted_Penalty>
1.78593

> <i_epik_Tot_Q>
-1

> <i_epik_Tot_abs_Q>
1

> <r_epik_Metal_State_Penalty>
0.0113696

> <b_epik_Metal_Only>
0

> <s_epik_Chemistry_Notes>
This compound contains an acetal/aminal-like group ( X-CH(R)-Y where X, Y are N, S, or O) that may be acid/base labile, releasing an aldehyde.

> <s_lp_Force_Field>
OPLS_2005

> <r_lp_Energy>
36.3434

> <b_lp_Chiralities_Consistent>
1

> <s_lp_Variant>
AV-unprocessed.smi:38-9

> <Gold.Version>
5.8.1

> <Gold.Id.Protein>
6NUR|6NUR_protein|mol2

> <Gold.PLP.Fitness>
39.9586

> <Gold.PLP.PLP>
-25.6087

> <Gold.PLP.part.hbond>
-5.7867

> <Gold.PLP.part.metal>
0.0000

> <Gold.PLP.part.buried>
6.3405

> <Gold.PLP.part.nonpolar>
-27.7181

> <Gold.PLP.part.repulsive>
2.8543

> <Gold.PLP.ligand.clash>
0.0000

> <Gold.PLP.ligand.torsion>
0.0302

> <Gold.PLP.Chemscore.Hbond>
3.8000

> <Gold.PLP.Chemscore.CHOScore>
1.0000

> <Gold.PLP.Chemscore.Metal>
0.0000

> <Gold.Chemscore.Hbonds>
donor molecule, donor type, donor heavy atom, donor atom, acceptor molecule, acceptor atom, score
      L1  H    10    23       P1 10171  1.00
      L1  H    13    26       P1  7948  1.00
      P1  H  7954  7966       L1    10  0.65
      P1  H  7997  8009       L1     1  0.91
      L1  C    15    27       P1  7948  1.00

> <Gold.PLP.Chemscore.Internal.Correction>
0.0104

> <Gold.Rescore>
     Score         DG    S(hbond)    S(metal)    S(lipo)     H(rot)  DE(clash)    DE(int)     intcor
      9.18     -13.08       3.01        0.00      41.98       2.88       3.81       0.08       ----

> <Gold.Chemscore.Fitness>
9.1846

> <Gold.Chemscore.DG>
-13.0762

> <Gold.Chemscore.ZeroCoef>
-5.4800

> <Gold.Chemscore.Hbond>
3.0125

> <Gold.Chemscore.Metal>
0.0000

> <Gold.Chemscore.Lipo>
41.9753

> <Gold.Chemscore.Internal_Hbond>
0.0000

> <Gold.Chemscore.DEClash>
3.8098

> <Gold.Chemscore.DEInternal>
0.0818

> <Gold.Chemscore.Rot>
2.8815

> <Gold.Chemscore.Internal.Correction>
   9.000000E+99

> <Gold.Chemscore.Hbonds>
donor molecule, donor type, donor heavy atom, donor atom, acceptor molecule, acceptor atom, score
      L1  H    10    23       P1 10171  0.95
      L1  H    13    26       P1  7948  1.00
      P1  H  7954  7966       L1    10  0.05
      P1  H  7997  8009       L1     1  0.87

> <Gold.Chemscore.Hbond.Weighted>
-10.0616

> <Gold.Chemscore.Metal.Weighted>
-0.0000

> <Gold.Chemscore.Lipo.Weighted>
-4.9111

> <Gold.Chemscore.Internal_Hbond.Weighted>
0.0000

> <Gold.Chemscore.DEClash.Weighted>
3.8098

> <Gold.Chemscore.DEInternal.Weighted>
0.0818

> <Gold.Chemscore.Rot.Weighted>
7.3765

> <Gold.Chemscore.Internal.Correction.Weighted>
   9.000000E+99

> <Gold.Protein.RotatedTorsions>
[ 6907 6896 6895 6894 ] final   29.25 input  -60.11 | X-H torsion
[ 7974 7965 7964 7962 ] final  136.39 input  175.53 | X-H torsion
[ 8008 7997 7996 7995 ] final -155.55 input   59.86 | X-H torsion
[ 10167 10162 10161 10158 ] final   13.40 input  -65.29 | X-H torsion
[ 10718 10713 10712 10709 ] final -137.69 input   66.30 | X-H torsion
[ 10763 10752 10751 10750 ] final  159.85 input  -60.55 | X-H torsion
[ 11005 11000 10999 10996 ] final  -74.77 input  -57.11 | X-H torsion

> <Gold.Protein.ActiveResidues>
 VAL166  LYS551  ARG553  GLY616  TRP617  ASP618  TYR619  PRO620  LYS621  CYS622 
 ASP623  PHE694  ASN695  SER759  ASP760  ASP761  ALA762  ILE779  LEU786  VAL792 
 PHE793  MET794  SER795  GLU796  ALA797  LYS798  CYS799  TRP800  GLU811  SER814 

> <Gold.Protein.RotatedAtoms>
  152.0288  134.9780  160.0571 H   0  0  0  0  0  0  0  0  0  0  0  0  # atno 6907 bound_to 6896
  152.1265  133.4378  159.4708 H   0  0  0  0  0  0  0  0  0  0  0  0  # atno 6908 bound_to 6896
  150.6853  134.2391  159.4508 H   0  0  0  0  0  0  0  0  0  0  0  0  # atno 6909 bound_to 6896
  144.9570  139.4753  143.5498 H   0  0  0  0  0  0  0  0  0  0  0  0  # atno 7974 bound_to 7965
  155.7035  140.0769  157.2400 H   0  0  0  0  0  0  0  0  0  0  0  0  # atno 8008 bound_to 7997
  154.4069  140.1643  156.2270 H   0  0  0  0  0  0  0  0  0  0  0  0  # atno 8009 bound_to 7997
  155.9346  140.3389  155.6280 H   0  0  0  0  0  0  0  0  0  0  0  0  # atno 8010 bound_to 7997
  140.6005  143.8614  150.6960 H   0  0  0  0  0  0  0  0  0  0  0  0  # atno 10167 bound_to 10162
  156.2909  130.7374  151.1399 H   0  0  0  0  0  0  0  0  0  0  0  0  # atno 10718 bound_to 10713
  154.2382  135.2776  155.2864 H   0  0  0  0  0  0  0  0  0  0  0  0  # atno 10763 bound_to 10752
  154.5567  135.5659  153.6974 H   0  0  0  0  0  0  0  0  0  0  0  0  # atno 10764 bound_to 10752
  153.0005  135.6288  154.2526 H   0  0  0  0  0  0  0  0  0  0  0  0  # atno 10765 bound_to 10752
  141.1638  133.6923  156.7415 H   0  0  0  0  0  0  0  0  0  0  0  0  # atno 11005 bound_to 11000
  146.3340  139.8694  142.8842 LP  0  0  0  0  0  0  0  0  0  0  0  0  # atno 17320 bound_to 7965
  145.2757  141.0123  143.3746 LP  0  0  0  0  0  0  0  0  0  0  0  0  # atno 17321 bound_to 7965
  140.2159  143.3847  152.1682 LP  0  0  0  0  0  0  0  0  0  0  0  0  # atno 17342 bound_to 10162
  139.5288  144.7134  151.5132 LP  0  0  0  0  0  0  0  0  0  0  0  0  # atno 17343 bound_to 10162
  157.7342  131.0584  150.5537 LP  0  0  0  0  0  0  0  0  0  0  0  0  # atno 17370 bound_to 10713
  156.5653  130.4266  149.6044 LP  0  0  0  0  0  0  0  0  0  0  0  0  # atno 17371 bound_to 10713
  140.2671  134.8421  157.3813 LP  0  0  0  0  0  0  0  0  0  0  0  0  # atno 17394 bound_to 11000
  140.1556  134.4794  155.7930 LP  0  0  0  0  0  0  0  0  0  0  0  0  # atno 17395 bound_to 11000

$$$$
