AV-unprocessed.smi:2784|AV-procd|sdf|10736|dock10
  -GOLD-   2272015173D 1   1.00000     0.00000
 Structure written by MMmdl.
 31 32  0  0  0  0  0  0  0  0  1 V2000
  152.2487  144.8745  159.2172 C   0  0  0  0  0  0  0  0  0  0  0  0
  152.4547  143.5227  158.8412 O   0  0  0  0  0  0  0  0  0  0  0  0
  152.1137  142.5846  159.8585 C   0  0  2  0  0  0  0  0  0  0  0  0
  153.2884  142.5530  160.8377 C   0  0  0  0  0  0  0  0  0  0  0  0
  154.2947  141.6074  160.1879 C   0  0  0  0  0  0  0  0  0  0  0  0
  153.4380  140.5237  159.5280 C   0  0  0  0  0  0  0  0  0  0  0  0
  152.0468  141.1457  159.2947 C   0  0  2  0  0  0  0  0  0  0  0  0
  151.6836  141.1014  157.8793 N   0  0  0  0  0  0  0  0  0  0  0  0
  150.6782  141.7821  157.3099 C   0  0  0  0  0  0  0  0  0  0  0  0
  149.9459  142.5252  157.9713 O   0  0  0  0  0  0  0  0  0  0  0  0
  150.6375  141.5169  155.9483 N   0  0  0  0  0  0  0  0  0  0  0  0
  150.3228  140.3313  155.5240 C   0  0  0  0  0  0  0  0  0  0  0  0
  149.9897  139.1467  156.1758 N   0  0  0  0  0  0  0  0  0  0  0  0
  149.7485  138.1918  155.2280 C   0  0  0  0  0  0  0  0  0  0  0  0
  149.9196  138.7465  154.0319 C   0  0  0  0  0  0  0  0  0  0  0  0
  150.2716  140.0544  154.1811 O   0  0  0  0  0  0  0  0  0  0  0  0
  152.4880  145.5278  158.3785 H   0  0  0  0  0  0  0  0  0  0  0  0
  152.8938  145.1485  160.0529 H   0  0  0  0  0  0  0  0  0  0  0  0
  151.2120  145.0574  159.5014 H   0  0  0  0  0  0  0  0  0  0  0  0
  151.1903  142.8602  160.3722 H   0  0  0  0  0  0  0  0  0  0  0  0
  153.7035  143.5418  161.0364 H   0  0  0  0  0  0  0  0  0  0  0  0
  152.9600  142.1349  161.7903 H   0  0  0  0  0  0  0  0  0  0  0  0
  154.8591  142.1451  159.4246 H   0  0  0  0  0  0  0  0  0  0  0  0
  155.0093  141.1993  160.9030 H   0  0  0  0  0  0  0  0  0  0  0  0
  153.9036  140.1613  158.6102 H   0  0  0  0  0  0  0  0  0  0  0  0
  153.3459  139.6669  160.1970 H   0  0  0  0  0  0  0  0  0  0  0  0
  151.3276  140.5697  159.8803 H   0  0  0  0  0  0  0  0  0  0  0  0
  152.2538  140.5190  157.2833 H   0  0  0  0  0  0  0  0  0  0  0  0
  149.9279  138.9769  157.1695 H   0  0  0  0  0  0  0  0  0  0  0  0
  149.4719  137.1893  155.5197 H   0  0  0  0  0  0  0  0  0  0  0  0
  149.8332  138.3626  153.0259 H   0  0  0  0  0  0  0  0  0  0  0  0
  1  2  1  0  0  0  0
  1 17  1  0  0  0  0
  1 18  1  0  0  0  0
  1 19  1  0  0  0  0
  2  3  1  0  0  0  0
  3  7  1  0  0  0  0
  3  4  1  0  0  0  0
  3 20  1  0  0  0  0
  4  5  1  0  0  0  0
  4 21  1  0  0  0  0
  4 22  1  0  0  0  0
  5  6  1  0  0  0  0
  5 23  1  0  0  0  0
  5 24  1  0  0  0  0
  6  7  1  0  0  0  0
  6 25  1  0  0  0  0
  6 26  1  0  0  0  0
  7  8  1  0  0  0  0
  7 27  1  0  0  0  0
  8 28  1  0  0  0  0
  8  9  1  0  0  0  0
  9 11  1  0  0  0  0
  9 10  2  0  0  0  0
 11 12  2  0  0  0  0
 12 16  1  0  0  0  0
 12 13  1  0  0  0  0
 13 29  1  0  0  0  0
 13 14  1  0  0  0  0
 14 30  1  0  0  0  0
 14 15  2  0  0  0  0
 15 31  1  0  0  0  0
 15 16  1  0  0  0  0
M  END
> <s_m_source_file>
AV-unprocessed.smi

> <i_m_source_file_index>
2784

> <i_lp_mmshare_version>
43012

> <i_f3d_flags>
0

> <s_epik_input>
W0NIM11PW0NAQEhdMVtDSDJdW0NIMl1bQ0gyXVtDQEhdMVtOSF1DKD1PKVtOSF1jMm5bY0hdW2NIXW8y

> <s_epik_cmdline>
J2VwaWtfcHl0aG9uJywgJy1waCcsICc3LjAnLCAnLXRuJywgJzgnLCAnLW1hJywgJzIwMCcsICctbWV0YWxfYmluZGluZycsICctaW1hZScsICc8aW5maWxlLm1hZT4nLCAnLW9tYWUnLCAnPG91dGZpbGUubWFlPic=

> <r_lp_tautomer_probability>
0.107061

> <r_epik_Ionization_Penalty>
1.29244

> <r_epik_Ionization_Penalty_Charging>
1.29208

> <r_epik_Ionization_Penalty_Neutral>
0.000359742

> <r_epik_State_Penalty>
2.59896

> <r_epik_Charging_Adjusted_Penalty>
3.89105

> <i_epik_Tot_Q>
0

> <i_epik_Tot_abs_Q>
0

> <r_epik_Metal_State_Penalty>
3.62496

> <b_epik_Metal_Only>
0

> <s_lp_Force_Field>
OPLS_2005

> <r_lp_Energy>
46.1047

> <b_lp_Chiralities_Consistent>
1

> <s_lp_Variant>
AV-unprocessed.smi:2784-11

> <Gold.Version>
5.8.1

> <Gold.Id.Protein>
6NUR|6NUR_protein|mol2

> <Gold.PLP.Fitness>
37.4673

> <Gold.PLP.PLP>
-31.0985

> <Gold.PLP.part.hbond>
-1.0000

> <Gold.PLP.part.metal>
0.0000

> <Gold.PLP.part.buried>
-5.3463

> <Gold.PLP.part.nonpolar>
-25.6910

> <Gold.PLP.part.repulsive>
0.7269

> <Gold.PLP.ligand.clash>
0.0000

> <Gold.PLP.ligand.torsion>
0.9260

> <Gold.PLP.Chemscore.Hbond>
1.0000

> <Gold.PLP.Chemscore.CHOScore>
1.7360

> <Gold.PLP.Chemscore.Metal>
0.0000

> <Gold.Chemscore.Hbonds>
donor molecule, donor type, donor heavy atom, donor atom, acceptor molecule, acceptor atom, score
      P1  H  7989  7998       L1    16  1.00
      L1  C    15    31       P1  7948  0.99
      L1  C    15    31       P1  7957  0.77

> <Gold.PLP.Chemscore.Internal.Correction>
0.0127

> <Gold.Rescore>
     Score         DG    S(hbond)    S(metal)    S(lipo)     H(rot)  DE(clash)    DE(int)     intcor
     12.98     -13.90       0.88        0.00      75.80       1.32       0.12       0.80       ----

> <Gold.Chemscore.Fitness>
12.9777

> <Gold.Chemscore.DG>
-13.8984

> <Gold.Chemscore.ZeroCoef>
-5.4800

> <Gold.Chemscore.Hbond>
0.8798

> <Gold.Chemscore.Metal>
0.0000

> <Gold.Chemscore.Lipo>
75.7966

> <Gold.Chemscore.Internal_Hbond>
0.0000

> <Gold.Chemscore.DEClash>
0.1243

> <Gold.Chemscore.DEInternal>
0.7964

> <Gold.Chemscore.Rot>
1.3235

> <Gold.Chemscore.Internal.Correction>
   9.000000E+99

> <Gold.Chemscore.Hbonds>
donor molecule, donor type, donor heavy atom, donor atom, acceptor molecule, acceptor atom, score
      P1  H  7989  7998       L1    16  0.53

> <Gold.Chemscore.Hbond.Weighted>
-2.9384

> <Gold.Chemscore.Metal.Weighted>
-0.0000

> <Gold.Chemscore.Lipo.Weighted>
-8.8682

> <Gold.Chemscore.Internal_Hbond.Weighted>
0.0000

> <Gold.Chemscore.DEClash.Weighted>
0.1243

> <Gold.Chemscore.DEInternal.Weighted>
0.7964

> <Gold.Chemscore.Rot.Weighted>
3.3882

> <Gold.Chemscore.Internal.Correction.Weighted>
   9.000000E+99

> <Gold.Protein.RotatedTorsions>
[ 6907 6896 6895 6894 ] final   -1.93 input  -60.11 | X-H torsion
[ 7974 7965 7964 7962 ] final -122.36 input  175.53 | X-H torsion
[ 8008 7997 7996 7995 ] final  145.70 input   59.86 | X-H torsion
[ 10167 10162 10161 10158 ] final  -22.08 input  -65.29 | X-H torsion
[ 10718 10713 10712 10709 ] final  111.03 input   66.30 | X-H torsion
[ 10763 10752 10751 10750 ] final -138.10 input  -60.55 | X-H torsion
[ 11005 11000 10999 10996 ] final -165.66 input  -57.11 | X-H torsion

> <Gold.Protein.ActiveResidues>
 VAL166  LYS551  ARG553  GLY616  TRP617  ASP618  TYR619  PRO620  LYS621  CYS622 
 ASP623  PHE694  ASN695  SER759  ASP760  ASP761  ALA762  ILE779  LEU786  VAL792 
 PHE793  MET794  SER795  GLU796  ALA797  LYS798  CYS799  TRP800  GLU811  SER814 

> <Gold.Protein.RotatedAtoms>
  151.5381  135.1068  159.9919 H   0  0  0  0  0  0  0  0  0  0  0  0  # atno 6907 bound_to 6896
  152.4548  133.7696  159.6802 H   0  0  0  0  0  0  0  0  0  0  0  0  # atno 6908 bound_to 6896
  150.8487  133.7754  159.3058 H   0  0  0  0  0  0  0  0  0  0  0  0  # atno 6909 bound_to 6896
  145.0303  140.8062  143.4327 H   0  0  0  0  0  0  0  0  0  0  0  0  # atno 7974 bound_to 7965
  156.2876  140.2202  156.5258 H   0  0  0  0  0  0  0  0  0  0  0  0  # atno 8008 bound_to 7997
  154.7490  140.0482  157.0899 H   0  0  0  0  0  0  0  0  0  0  0  0  # atno 8009 bound_to 7997
  155.0133  140.3115  155.4824 H   0  0  0  0  0  0  0  0  0  0  0  0  # atno 8010 bound_to 7997
  140.7284  143.4568  151.0437 H   0  0  0  0  0  0  0  0  0  0  0  0  # atno 10167 bound_to 10162
  157.6465  131.0943  150.6688 H   0  0  0  0  0  0  0  0  0  0  0  0  # atno 10718 bound_to 10713
  154.8645  135.3622  154.5331 H   0  0  0  0  0  0  0  0  0  0  0  0  # atno 10763 bound_to 10752
  153.5956  135.7014  153.5410 H   0  0  0  0  0  0  0  0  0  0  0  0  # atno 10764 bound_to 10752
  153.3336  135.4117  155.1477 H   0  0  0  0  0  0  0  0  0  0  0  0  # atno 10765 bound_to 10752
  140.5732  134.5216  157.5165 H   0  0  0  0  0  0  0  0  0  0  0  0  # atno 11005 bound_to 11000
  145.1779  139.2368  143.5308 LP  0  0  0  0  0  0  0  0  0  0  0  0  # atno 17320 bound_to 7965
  146.3497  140.1546  142.8592 LP  0  0  0  0  0  0  0  0  0  0  0  0  # atno 17321 bound_to 7965
  139.8249  143.7770  152.3178 LP  0  0  0  0  0  0  0  0  0  0  0  0  # atno 17342 bound_to 10162
  139.7865  144.7426  151.0014 LP  0  0  0  0  0  0  0  0  0  0  0  0  # atno 17343 bound_to 10162
  156.7005  130.4622  149.5574 LP  0  0  0  0  0  0  0  0  0  0  0  0  # atno 17370 bound_to 10713
  156.1799  130.6492  151.0939 LP  0  0  0  0  0  0  0  0  0  0  0  0  # atno 17371 bound_to 10713
  139.9352  134.7889  156.0823 LP  0  0  0  0  0  0  0  0  0  0  0  0  # atno 17394 bound_to 11000
  141.1043  133.6666  156.2827 LP  0  0  0  0  0  0  0  0  0  0  0  0  # atno 17395 bound_to 11000

$$$$
