AV-unprocessed.smi:423|AV-procd|sdf|2538|dock7
  -GOLD-   2262022503D 1   1.00000     0.00000
 Structure written by MMmdl.
 47 48  0  0  0  0  0  0  0  0  1 V2000
  153.8474  140.2842  162.4773 C   0  0  0  0  0  0  0  0  0  0  0  0
  153.2109  140.7598  161.2030 C   0  0  0  0  0  0  0  0  0  0  0  0
  152.6238  141.9438  161.1758 N   0  0  0  0  0  0  0  0  0  0  0  0
  152.1488  142.0677  159.9189 N   0  0  0  0  0  0  0  0  0  0  0  0
  151.4233  143.2756  159.5538 C   0  0  0  0  0  0  0  0  0  0  0  0
  152.2292  144.5704  159.7968 C   0  0  0  0  0  0  0  0  0  0  0  0
  151.2866  145.7682  159.9844 C   0  0  0  0  0  0  0  0  0  0  0  0
  153.2619  144.8544  158.6920 C   0  0  0  0  0  0  0  0  0  0  0  0
  152.4519  140.9610  159.1462 C   0  0  0  0  0  0  0  0  0  0  0  0
  152.0414  140.8377  157.7134 C   0  0  0  0  0  0  0  0  0  0  0  0
  153.1402  140.0892  159.9473 C   0  0  0  0  0  0  0  0  0  0  0  0
  153.6968  138.7292  159.6002 C   0  0  0  0  0  0  0  0  0  0  0  0
  153.0839  137.6208  160.4757 C   0  0  0  0  0  0  0  0  0  0  0  0
  152.1293  136.9582  160.0707 O   0  0  0  0  0  0  0  0  0  0  0  0
  153.6063  137.3911  161.6921 N   0  0  0  0  0  0  0  0  0  0  0  0
  153.1727  136.3933  162.6686 C   0  0  0  0  0  0  0  0  0  0  0  0
  151.7612  136.7022  163.2128 C   0  0  0  0  0  0  0  0  0  0  0  0
  151.8745  136.6778  164.7386 C   0  0  0  0  0  0  0  0  0  0  0  0
  153.3216  137.0692  165.0179 C   0  0  0  0  0  0  0  0  0  0  0  0
  154.1090  136.4023  163.8905 C   0  0  0  0  0  0  0  0  0  0  0  0
  153.7140  139.2096  162.6042 H   0  0  0  0  0  0  0  0  0  0  0  0
  153.4134  140.7734  163.3503 H   0  0  0  0  0  0  0  0  0  0  0  0
  154.9176  140.4895  162.4780 H   0  0  0  0  0  0  0  0  0  0  0  0
  151.1393  143.2075  158.5020 H   0  0  0  0  0  0  0  0  0  0  0  0
  150.4901  143.2991  160.1171 H   0  0  0  0  0  0  0  0  0  0  0  0
  152.7819  144.4498  160.7287 H   0  0  0  0  0  0  0  0  0  0  0  0
  150.6987  145.9536  159.0849 H   0  0  0  0  0  0  0  0  0  0  0  0
  151.8445  146.6774  160.2102 H   0  0  0  0  0  0  0  0  0  0  0  0
  150.5917  145.5970  160.8071 H   0  0  0  0  0  0  0  0  0  0  0  0
  152.7825  144.9438  157.7168 H   0  0  0  0  0  0  0  0  0  0  0  0
  154.0082  144.0622  158.6261 H   0  0  0  0  0  0  0  0  0  0  0  0
  153.7977  145.7838  158.8861 H   0  0  0  0  0  0  0  0  0  0  0  0
  152.5604  140.0136  157.2244 H   0  0  0  0  0  0  0  0  0  0  0  0
  152.2696  141.7465  157.1572 H   0  0  0  0  0  0  0  0  0  0  0  0
  150.9714  140.6479  157.6338 H   0  0  0  0  0  0  0  0  0  0  0  0
  153.5133  138.5033  158.5505 H   0  0  0  0  0  0  0  0  0  0  0  0
  154.7792  138.7091  159.7293 H   0  0  0  0  0  0  0  0  0  0  0  0
  154.3872  137.9688  161.9679 H   0  0  0  0  0  0  0  0  0  0  0  0
  153.2008  135.3986  162.2213 H   0  0  0  0  0  0  0  0  0  0  0  0
  151.4334  137.6935  162.8954 H   0  0  0  0  0  0  0  0  0  0  0  0
  151.0185  135.9891  162.8542 H   0  0  0  0  0  0  0  0  0  0  0  0
  151.1580  137.3415  165.2234 H   0  0  0  0  0  0  0  0  0  0  0  0
  151.6920  135.6665  165.1045 H   0  0  0  0  0  0  0  0  0  0  0  0
  153.4290  138.1529  164.9527 H   0  0  0  0  0  0  0  0  0  0  0  0
  153.6585  136.7578  166.0071 H   0  0  0  0  0  0  0  0  0  0  0  0
  154.3359  135.3738  164.1752 H   0  0  0  0  0  0  0  0  0  0  0  0
  155.0626  136.8985  163.7041 H   0  0  0  0  0  0  0  0  0  0  0  0
  1  2  1  0  0  0  0
  1 21  1  0  0  0  0
  1 22  1  0  0  0  0
  1 23  1  0  0  0  0
  2 11  1  0  0  0  0
  2  3  2  0  0  0  0
  3  4  1  0  0  0  0
  4  5  1  0  0  0  0
  4  9  1  0  0  0  0
  5  6  1  0  0  0  0
  5 24  1  0  0  0  0
  5 25  1  0  0  0  0
  6  7  1  0  0  0  0
  6  8  1  0  0  0  0
  6 26  1  0  0  0  0
  7 27  1  0  0  0  0
  7 28  1  0  0  0  0
  7 29  1  0  0  0  0
  8 30  1  0  0  0  0
  8 31  1  0  0  0  0
  8 32  1  0  0  0  0
  9 10  1  0  0  0  0
  9 11  2  0  0  0  0
 10 33  1  0  0  0  0
 10 34  1  0  0  0  0
 10 35  1  0  0  0  0
 11 12  1  0  0  0  0
 12 13  1  0  0  0  0
 12 36  1  0  0  0  0
 12 37  1  0  0  0  0
 13 14  2  0  0  0  0
 13 15  1  0  0  0  0
 15 16  1  0  0  0  0
 15 38  1  0  0  0  0
 16 20  1  0  0  0  0
 16 17  1  0  0  0  0
 16 39  1  0  0  0  0
 17 18  1  0  0  0  0
 17 40  1  0  0  0  0
 17 41  1  0  0  0  0
 18 19  1  0  0  0  0
 18 42  1  0  0  0  0
 18 43  1  0  0  0  0
 19 20  1  0  0  0  0
 19 44  1  0  0  0  0
 19 45  1  0  0  0  0
 20 46  1  0  0  0  0
 20 47  1  0  0  0  0
M  END
> <s_m_source_file>
AV-unprocessed.smi

> <i_m_source_file_index>
423

> <i_lp_mmshare_version>
43012

> <i_f3d_flags>
0

> <s_epik_input>
W0NIM11jMW5uKFtDSDJdW0NIXShbQ0gzXSlbQ0gzXSljKFtDSDNdKWMxW0NIMl1DKD1PKVtOSF1bQ0hdMltDSDJdW0NIMl1bQ0gyXVtDSDJdMg==

> <s_epik_cmdline>
J2VwaWtfcHl0aG9uJywgJy1waCcsICc3LjAnLCAnLXRuJywgJzgnLCAnLW1hJywgJzIwMCcsICctbWV0YWxfYmluZGluZycsICctaW1hZScsICc8aW5maWxlLm1hZT4nLCAnLW9tYWUnLCAnPG91dGZpbGUubWFlPic=

> <r_lp_tautomer_probability>
1

> <r_epik_Ionization_Penalty>
0.00323157

> <r_epik_Ionization_Penalty_Charging>
0

> <r_epik_Ionization_Penalty_Neutral>
0.00323157

> <r_epik_State_Penalty>
0.00228044

> <r_epik_Charging_Adjusted_Penalty>
0.00228044

> <i_epik_Tot_Q>
0

> <i_epik_Tot_abs_Q>
0

> <r_epik_Metal_State_Penalty>
-0

> <b_epik_Metal_Only>
0

> <s_lp_Force_Field>
OPLS_2005

> <r_lp_Energy>
20.2574

> <b_lp_Chiralities_Consistent>
1

> <s_lp_Variant>
AV-unprocessed.smi:423-1

> <Gold.Version>
5.8.1

> <Gold.Id.Protein>
6NUR|6NUR_protein|mol2

> <Gold.PLP.Fitness>
47.5421

> <Gold.PLP.PLP>
-45.7181

> <Gold.PLP.part.hbond>
-1.0000

> <Gold.PLP.part.metal>
0.0000

> <Gold.PLP.part.buried>
-4.6674

> <Gold.PLP.part.nonpolar>
-39.4869

> <Gold.PLP.part.repulsive>
0.0147

> <Gold.PLP.ligand.clash>
0.0000

> <Gold.PLP.ligand.torsion>
0.5999

> <Gold.PLP.Chemscore.Hbond>
1.0000

> <Gold.PLP.Chemscore.CHOScore>
0.0000

> <Gold.PLP.Chemscore.Metal>
0.0000

> <Gold.Chemscore.Hbonds>
donor molecule, donor type, donor heavy atom, donor atom, acceptor molecule, acceptor atom, score
      P1  H  6896  6909       L1    14  1.00

> <Gold.PLP.Chemscore.Internal.Correction>
0.0237

> <Gold.Rescore>
     Score         DG    S(hbond)    S(metal)    S(lipo)     H(rot)  DE(clash)    DE(int)     intcor
     19.20     -19.90       0.99        0.00     126.41       1.43       0.05       0.64       ----

> <Gold.Chemscore.Fitness>
19.2035

> <Gold.Chemscore.DG>
-19.8995

> <Gold.Chemscore.ZeroCoef>
-5.4800

> <Gold.Chemscore.Hbond>
0.9863

> <Gold.Chemscore.Metal>
0.0000

> <Gold.Chemscore.Lipo>
126.4109

> <Gold.Chemscore.Internal_Hbond>
0.0000

> <Gold.Chemscore.DEClash>
0.0536

> <Gold.Chemscore.DEInternal>
0.6424

> <Gold.Chemscore.Rot>
1.4316

> <Gold.Chemscore.Internal.Correction>
   9.000000E+99

> <Gold.Chemscore.Hbonds>
donor molecule, donor type, donor heavy atom, donor atom, acceptor molecule, acceptor atom, score
      P1  H  6896  6909       L1    14  1.00

> <Gold.Chemscore.Hbond.Weighted>
-3.2944

> <Gold.Chemscore.Metal.Weighted>
-0.0000

> <Gold.Chemscore.Lipo.Weighted>
-14.7901

> <Gold.Chemscore.Internal_Hbond.Weighted>
0.0000

> <Gold.Chemscore.DEClash.Weighted>
0.0536

> <Gold.Chemscore.DEInternal.Weighted>
0.6424

> <Gold.Chemscore.Rot.Weighted>
3.6649

> <Gold.Chemscore.Internal.Correction.Weighted>
   9.000000E+99

> <Gold.Protein.RotatedTorsions>
[ 6907 6896 6895 6894 ] final  133.25 input  -60.11 | X-H torsion
[ 7974 7965 7964 7962 ] final  -52.74 input  175.53 | X-H torsion
[ 8008 7997 7996 7995 ] final   -3.58 input   59.86 | X-H torsion
[ 10167 10162 10161 10158 ] final  -14.98 input  -65.29 | X-H torsion
[ 10718 10713 10712 10709 ] final  -14.51 input   66.30 | X-H torsion
[ 10763 10752 10751 10750 ] final  -11.39 input  -60.55 | X-H torsion
[ 11005 11000 10999 10996 ] final  110.34 input  -57.11 | X-H torsion

> <Gold.Protein.ActiveResidues>
 VAL166  LYS551  ARG553  GLY616  TRP617  ASP618  TYR619  PRO620  LYS621  CYS622 
 ASP623  PHE694  ASN695  SER759  ASP760  ASP761  ALA762  ILE779  LEU786  VAL792 
 PHE793  MET794  SER795  GLU796  ALA797  LYS798  CYS799  TRP800  GLU811  SER814 

> <Gold.Protein.RotatedAtoms>
  152.3239  133.5883  159.5762 H   0  0  0  0  0  0  0  0  0  0  0  0  # atno 6907 bound_to 6896
  150.7386  133.9970  159.3634 H   0  0  0  0  0  0  0  0  0  0  0  0  # atno 6908 bound_to 6896
  151.7852  135.0751  160.0430 H   0  0  0  0  0  0  0  0  0  0  0  0  # atno 6909 bound_to 6896
  145.9046  140.7966  142.9726 H   0  0  0  0  0  0  0  0  0  0  0  0  # atno 7974 bound_to 7965
  154.6234  140.2505  155.7522 H   0  0  0  0  0  0  0  0  0  0  0  0  # atno 8008 bound_to 7997
  156.2439  140.2922  156.0472 H   0  0  0  0  0  0  0  0  0  0  0  0  # atno 8009 bound_to 7997
  155.1861  140.0390  157.2882 H   0  0  0  0  0  0  0  0  0  0  0  0  # atno 8010 bound_to 7997
  140.7211  143.5265  150.9570 H   0  0  0  0  0  0  0  0  0  0  0  0  # atno 10167 bound_to 10162
  156.6150  130.4860  149.6187 H   0  0  0  0  0  0  0  0  0  0  0  0  # atno 10718 bound_to 10713
  153.4831  135.7017  153.5927 H   0  0  0  0  0  0  0  0  0  0  0  0  # atno 10763 bound_to 10752
  153.4131  135.3843  155.2063 H   0  0  0  0  0  0  0  0  0  0  0  0  # atno 10764 bound_to 10752
  154.8720  135.3909  154.4283 H   0  0  0  0  0  0  0  0  0  0  0  0  # atno 10765 bound_to 10752
  139.8880  134.9481  156.6265 H   0  0  0  0  0  0  0  0  0  0  0  0  # atno 11005 bound_to 11000
  144.6738  140.1730  143.7412 LP  0  0  0  0  0  0  0  0  0  0  0  0  # atno 17320 bound_to 7965
  145.8748  139.2291  143.1640 LP  0  0  0  0  0  0  0  0  0  0  0  0  # atno 17321 bound_to 7965
  139.8984  143.6866  152.3135 LP  0  0  0  0  0  0  0  0  0  0  0  0  # atno 17342 bound_to 10162
  139.7207  144.7603  151.0960 LP  0  0  0  0  0  0  0  0  0  0  0  0  # atno 17343 bound_to 10162
  156.2359  130.6822  151.1509 LP  0  0  0  0  0  0  0  0  0  0  0  0  # atno 17370 bound_to 10713
  157.7244  131.0660  150.5998 LP  0  0  0  0  0  0  0  0  0  0  0  0  # atno 17371 bound_to 10713
  140.7699  133.8747  155.8484 LP  0  0  0  0  0  0  0  0  0  0  0  0  # atno 17394 bound_to 11000
  140.9850  134.1354  157.4460 LP  0  0  0  0  0  0  0  0  0  0  0  0  # atno 17395 bound_to 11000

$$$$
