AV-unprocessed.smi:3253|AV-procd|sdf|12448|dock1
  -GOLD-   2272018343D 1   1.00000     0.00000
 Structure written by MMmdl.
 37 38  0  0  0  0  0  0  0  0  2 V2000
  145.8160  135.9649  151.7374 C   0  0  0  0  0  0  0  0  0  0  0  0
  146.2072  134.6455  152.4164 C   0  0  1  0  0  0  0  0  0  0  0  0
  146.4511  133.5310  151.3747 C   0  0  0  0  0  0  0  0  0  0  0  0
  145.2602  133.2130  150.5789 N   0  0  0  0  0  0  0  0  0  0  0  0
  145.1891  132.3995  149.4767 C   0  0  0  0  0  0  0  0  0  0  0  0
  143.8753  132.3872  149.0844 C   0  0  0  0  0  0  0  0  0  0  0  0
  143.2025  133.2003  149.9569 N   0  3  0  0  0  0  0  0  0  0  0  0
  144.0472  133.7056  150.8617 C   0  0  0  0  0  0  0  0  0  0  0  0
  147.3975  134.8690  153.2366 N   0  0  0  0  0  0  0  0  0  0  0  0
  147.4659  134.7279  154.5701 C   0  0  0  0  0  0  0  0  0  0  0  0
  146.5020  134.4045  155.2655 O   0  0  0  0  0  0  0  0  0  0  0  0
  148.8410  134.9570  155.2156 C   0  0  1  0  0  0  0  0  0  0  0  0
  148.8227  134.6465  156.7266 C   0  0  0  0  0  0  0  0  0  0  0  0
  149.6629  133.3857  156.8508 C   0  0  0  0  0  0  0  0  0  0  0  0
  149.7838  132.7637  157.9048 O   0  0  0  0  0  0  0  0  0  0  0  0
  150.2165  133.0634  155.6784 N   0  0  0  0  0  0  0  0  0  0  0  0
  151.0627  131.9054  155.4248 C   0  0  0  0  0  0  0  0  0  0  0  0
  149.9162  134.0185  154.6262 C   0  0  0  0  0  0  0  0  0  0  0  0
  144.9147  135.8446  151.1357 H   0  0  0  0  0  0  0  0  0  0  0  0
  146.6085  136.3252  151.0804 H   0  0  0  0  0  0  0  0  0  0  0  0
  145.6155  136.7422  152.4755 H   0  0  0  0  0  0  0  0  0  0  0  0
  145.3714  134.3547  153.0553 H   0  0  0  0  0  0  0  0  0  0  0  0
  147.2370  133.8269  150.6783 H   0  0  0  0  0  0  0  0  0  0  0  0
  146.7888  132.6142  151.8605 H   0  0  0  0  0  0  0  0  0  0  0  0
  146.0536  131.8949  149.0702 H   0  0  0  0  0  0  0  0  0  0  0  0
  143.3816  131.8740  148.2720 H   0  0  0  0  0  0  0  0  0  0  0  0
  143.7958  134.3691  151.6699 H   0  0  0  0  0  0  0  0  0  0  0  0
  148.2392  135.1405  152.7487 H   0  0  0  0  0  0  0  0  0  0  0  0
  149.1384  135.9954  155.0584 H   0  0  0  0  0  0  0  0  0  0  0  0
  149.2886  135.4496  157.2979 H   0  0  0  0  0  0  0  0  0  0  0  0
  147.8227  134.4828  157.1315 H   0  0  0  0  0  0  0  0  0  0  0  0
  151.9207  131.9015  156.0980 H   0  0  0  0  0  0  0  0  0  0  0  0
  151.4371  131.9081  154.4009 H   0  0  0  0  0  0  0  0  0  0  0  0
  150.5009  130.9833  155.5781 H   0  0  0  0  0  0  0  0  0  0  0  0
  149.5857  133.5025  153.7226 H   0  0  0  0  0  0  0  0  0  0  0  0
  150.8205  134.5749  154.3757 H   0  0  0  0  0  0  0  0  0  0  0  0
  142.2087  133.3908  149.9261 H   0  0  0  0  0  0  0  0  0  0  0  0
  1  2  1  0  0  0  0
  1 19  1  0  0  0  0
  1 20  1  0  0  0  0
  1 21  1  0  0  0  0
  2  3  1  0  0  0  0
  2  9  1  0  0  0  0
  2 22  1  0  0  0  0
  3  4  1  0  0  0  0
  3 23  1  0  0  0  0
  3 24  1  0  0  0  0
  4  8  1  0  0  0  0
  4  5  1  0  0  0  0
  5  6  2  0  0  0  0
  5 25  1  0  0  0  0
  6  7  1  0  0  0  0
  6 26  1  0  0  0  0
  7  8  2  0  0  0  0
  7 37  1  0  0  0  0
  8 27  1  0  0  0  0
  9 10  1  0  0  0  0
  9 28  1  0  0  0  0
 10 11  2  0  0  0  0
 10 12  1  0  0  0  0
 12 18  1  0  0  0  0
 12 13  1  0  0  0  0
 12 29  1  0  0  0  0
 13 14  1  0  0  0  0
 13 30  1  0  0  0  0
 13 31  1  0  0  0  0
 14 15  2  0  0  0  0
 14 16  1  0  0  0  0
 16 17  1  0  0  0  0
 16 18  1  0  0  0  0
 17 32  1  0  0  0  0
 17 33  1  0  0  0  0
 17 34  1  0  0  0  0
 18 35  1  0  0  0  0
 18 36  1  0  0  0  0
M  CHG  1   7   1
M  END
> <s_m_source_file>
AV-unprocessed.smi

> <i_m_source_file_index>
3253

> <i_lp_mmshare_version>
43012

> <i_f3d_flags>
0

> <s_epik_input>
W2NIXTFuW2NIXVtjSF1uMVtDSDJdW0NAQEhdKFtDSDNdKVtOSF1DKD1PKVtDQEBIXTJbQ0gyXUMoPU8pTihbQ0gzXSlbQ0gyXTI=

> <s_epik_cmdline>
J2VwaWtfcHl0aG9uJywgJy1waCcsICc3LjAnLCAnLXRuJywgJzgnLCAnLW1hJywgJzIwMCcsICctbWV0YWxfYmluZGluZycsICctaW1hZScsICc8aW5maWxlLm1hZT4nLCAnLW9tYWUnLCAnPG91dGZpbGUubWFlPic=

> <r_lp_tautomer_probability>
1

> <r_epik_Ionization_Penalty>
0.251561

> <r_epik_Ionization_Penalty_Charging>
0

> <r_epik_Ionization_Penalty_Neutral>
0.251561

> <r_epik_State_Penalty>
0.242926

> <r_epik_Charging_Adjusted_Penalty>
0.242926

> <i_epik_Tot_Q>
1

> <i_epik_Tot_abs_Q>
1

> <r_epik_Metal_State_Penalty>
0.533885

> <b_epik_Metal_Only>
0

> <s_lp_Force_Field>
OPLS_2005

> <r_lp_Energy>
13.8895

> <b_lp_Chiralities_Consistent>
1

> <s_lp_Variant>
AV-unprocessed.smi:3253-4

> <Gold.Version>
5.8.1

> <Gold.Id.Protein>
6NUR|6NUR_protein|mol2

> <Gold.PLP.Fitness>
40.2710

> <Gold.PLP.PLP>
-28.4750

> <Gold.PLP.part.hbond>
-2.8142

> <Gold.PLP.part.metal>
0.0000

> <Gold.PLP.part.buried>
-2.1804

> <Gold.PLP.part.nonpolar>
-23.0092

> <Gold.PLP.part.repulsive>
0.0978

> <Gold.PLP.ligand.clash>
0.0000

> <Gold.PLP.ligand.torsion>
0.1049

> <Gold.PLP.Chemscore.Hbond>
3.9920

> <Gold.PLP.Chemscore.CHOScore>
0.0000

> <Gold.PLP.Chemscore.Metal>
0.0000

> <Gold.Chemscore.Hbonds>
donor molecule, donor type, donor heavy atom, donor atom, acceptor molecule, acceptor atom, score
      L1  H     7    37       P1 10186  1.95
      L1  H     9    28       P1  7948  0.96
      P1  H  6896  6908       L1    15  1.00

> <Gold.PLP.Chemscore.Internal.Correction>
0.0298

> <Gold.Rescore>
     Score         DG    S(hbond)    S(metal)    S(lipo)     H(rot)  DE(clash)    DE(int)     intcor
     14.99     -16.28       2.82        0.00      56.37       2.03       0.05       1.24       ----

> <Gold.Chemscore.Fitness>
14.9857

> <Gold.Chemscore.DG>
-16.2771

> <Gold.Chemscore.ZeroCoef>
-5.4800

> <Gold.Chemscore.Hbond>
2.8169

> <Gold.Chemscore.Metal>
0.0000

> <Gold.Chemscore.Lipo>
56.3746

> <Gold.Chemscore.Internal_Hbond>
0.0000

> <Gold.Chemscore.DEClash>
0.0536

> <Gold.Chemscore.DEInternal>
1.2377

> <Gold.Chemscore.Rot>
2.0341

> <Gold.Chemscore.Internal.Correction>
   9.000000E+99

> <Gold.Chemscore.Hbonds>
donor molecule, donor type, donor heavy atom, donor atom, acceptor molecule, acceptor atom, score
      L1  H     7    37       P1 10186  0.93
      L1  H     9    28       P1  7948  0.80
      P1  H  6896  6908       L1    15  0.92

> <Gold.Chemscore.Hbond.Weighted>
-9.4085

> <Gold.Chemscore.Metal.Weighted>
-0.0000

> <Gold.Chemscore.Lipo.Weighted>
-6.5958

> <Gold.Chemscore.Internal_Hbond.Weighted>
0.0000

> <Gold.Chemscore.DEClash.Weighted>
0.0536

> <Gold.Chemscore.DEInternal.Weighted>
1.2377

> <Gold.Chemscore.Rot.Weighted>
5.2072

> <Gold.Chemscore.Internal.Correction.Weighted>
   9.000000E+99

> <Gold.Protein.RotatedTorsions>
[ 6907 6896 6895 6894 ] final   94.07 input  -60.11 | X-H torsion
[ 7974 7965 7964 7962 ] final  -54.03 input  175.53 | X-H torsion
[ 8008 7997 7996 7995 ] final  176.40 input   59.86 | X-H torsion
[ 10167 10162 10161 10158 ] final -123.26 input  -65.29 | X-H torsion
[ 10718 10713 10712 10709 ] final -103.22 input   66.30 | X-H torsion
[ 10763 10752 10751 10750 ] final   94.87 input  -60.55 | X-H torsion
[ 11005 11000 10999 10996 ] final  -64.45 input  -57.11 | X-H torsion

> <Gold.Protein.ActiveResidues>
 VAL166  LYS551  ARG553  GLY616  TRP617  ASP618  TYR619  PRO620  LYS621  CYS622 
 ASP623  PHE694  ASN695  SER759  ASP760  ASP761  ALA762  ILE779  LEU786  VAL792 
 PHE793  MET794  SER795  GLU796  ALA797  LYS798  CYS799  TRP800  GLU811  SER814 

> <Gold.Protein.RotatedAtoms>
  152.5451  134.1250  159.8414 H   0  0  0  0  0  0  0  0  0  0  0  0  # atno 6907 bound_to 6896
  151.1302  133.5035  159.2607 H   0  0  0  0  0  0  0  0  0  0  0  0  # atno 6908 bound_to 6896
  151.1684  135.0316  159.8795 H   0  0  0  0  0  0  0  0  0  0  0  0  # atno 6909 bound_to 6896
  145.8901  140.8077  142.9796 H   0  0  0  0  0  0  0  0  0  0  0  0  # atno 7974 bound_to 7965
  156.0768  140.1384  156.9761 H   0  0  0  0  0  0  0  0  0  0  0  0  # atno 8008 bound_to 7997
  154.4562  140.0960  156.6814 H   0  0  0  0  0  0  0  0  0  0  0  0  # atno 8009 bound_to 7997
  155.5140  140.3454  155.4396 H   0  0  0  0  0  0  0  0  0  0  0  0  # atno 8010 bound_to 7997
  140.0054  143.5497  152.2286 H   0  0  0  0  0  0  0  0  0  0  0  0  # atno 10167 bound_to 10162
  156.0257  130.5457  150.7222 H   0  0  0  0  0  0  0  0  0  0  0  0  # atno 10718 bound_to 10713
  153.2466  135.4274  155.0754 H   0  0  0  0  0  0  0  0  0  0  0  0  # atno 10763 bound_to 10752
  154.8364  135.3415  154.6573 H   0  0  0  0  0  0  0  0  0  0  0  0  # atno 10764 bound_to 10752
  153.6995  135.7029  153.5124 H   0  0  0  0  0  0  0  0  0  0  0  0  # atno 10765 bound_to 10752
  141.1425  133.6666  156.5835 H   0  0  0  0  0  0  0  0  0  0  0  0  # atno 11005 bound_to 11000
  144.6730  140.1517  143.7429 LP  0  0  0  0  0  0  0  0  0  0  0  0  # atno 17320 bound_to 7965
  145.8918  139.2380  143.1545 LP  0  0  0  0  0  0  0  0  0  0  0  0  # atno 17321 bound_to 7965
  139.6242  144.7634  151.2674 LP  0  0  0  0  0  0  0  0  0  0  0  0  # atno 17342 bound_to 10162
  140.7402  143.6594  150.8178 LP  0  0  0  0  0  0  0  0  0  0  0  0  # atno 17343 bound_to 10162
  157.4835  131.0904  151.0509 LP  0  0  0  0  0  0  0  0  0  0  0  0  # atno 17370 bound_to 10713
  157.0936  130.5952  149.5445 LP  0  0  0  0  0  0  0  0  0  0  0  0  # atno 17371 bound_to 10713
  140.3819  134.7516  157.4666 LP  0  0  0  0  0  0  0  0  0  0  0  0  # atno 17394 bound_to 11000
  140.0631  134.5967  155.8726 LP  0  0  0  0  0  0  0  0  0  0  0  0  # atno 17395 bound_to 11000

$$$$
