AV-unprocessed.smi:407|AV-procd|sdf|2502|dock4
  -GOLD-   2262022453D 1   1.00000     0.00000
 Structure written by MMmdl.
 45 47  0  0  0  0  0  0  0  0  1 V2000
  147.1278  132.1971  153.2224 C   0  0  0  0  0  0  0  0  0  0  0  0
  148.5319  132.4022  153.7889 C   0  0  0  0  0  0  0  0  0  0  0  0
  149.2987  131.4406  153.8305 O   0  0  0  0  0  0  0  0  0  0  0  0
  148.8972  133.7664  154.2657 C   0  0  0  0  0  0  0  0  0  0  0  0
  147.9428  134.8060  154.3546 C   0  0  0  0  0  0  0  0  0  0  0  0
  148.3200  136.0837  154.8110 C   0  0  0  0  0  0  0  0  0  0  0  0
  149.6494  136.3548  155.1898 C   0  0  0  0  0  0  0  0  0  0  0  0
  149.9280  137.6313  155.6287 O   0  0  0  0  0  0  0  0  0  0  0  0
  151.2730  137.9518  155.9603 C   0  0  0  0  0  0  0  0  0  0  0  0
  151.4623  139.4735  155.8461 C   0  0  1  0  0  0  0  0  0  0  0  0
  151.0064  139.8574  154.5637 O   0  0  0  0  0  0  0  0  0  0  0  0
  150.6240  140.2388  156.8913 C   0  0  0  0  0  0  0  0  0  0  0  0
  151.4417  140.6827  158.0195 N   0  0  0  0  0  0  0  0  0  0  0  0
  152.1253  139.8904  158.8794 C   0  0  0  0  0  0  0  0  0  0  0  0
  152.1620  138.6602  158.8528 O   0  0  0  0  0  0  0  0  0  0  0  0
  152.7673  140.6878  159.7646 N   0  0  0  0  0  0  0  0  0  0  0  0
  153.6298  140.2638  160.8608 C   0  0  0  0  0  0  0  0  0  0  0  0
  152.4998  142.0273  159.4548 C   0  0  0  0  0  0  0  0  0  0  0  0
  152.9378  143.2185  160.0583 C   0  0  0  0  0  0  0  0  0  0  0  0
  152.4838  144.4332  159.4930 C   0  0  0  0  0  0  0  0  0  0  0  0
  151.6247  144.4331  158.3633 C   0  0  0  0  0  0  0  0  0  0  0  0
  151.2004  143.2184  157.7752 C   0  0  0  0  0  0  0  0  0  0  0  0
  151.6645  142.0257  158.3573 C   0  0  0  0  0  0  0  0  0  0  0  0
  150.6072  135.3155  155.0981 C   0  0  0  0  0  0  0  0  0  0  0  0
  150.2322  134.0374  154.6409 C   0  0  0  0  0  0  0  0  0  0  0  0
  146.3744  132.4328  153.9743 H   0  0  0  0  0  0  0  0  0  0  0  0
  146.9885  131.1608  152.9141 H   0  0  0  0  0  0  0  0  0  0  0  0
  146.9687  132.8351  152.3530 H   0  0  0  0  0  0  0  0  0  0  0  0
  146.9112  134.6471  154.0784 H   0  0  0  0  0  0  0  0  0  0  0  0
  147.5774  136.8656  154.8735 H   0  0  0  0  0  0  0  0  0  0  0  0
  151.5385  137.6006  156.9593 H   0  0  0  0  0  0  0  0  0  0  0  0
  151.9272  137.4500  155.2455 H   0  0  0  0  0  0  0  0  0  0  0  0
  152.5199  139.7176  155.9565 H   0  0  0  0  0  0  0  0  0  0  0  0
  150.0644  139.9257  154.5875 H   0  0  0  0  0  0  0  0  0  0  0  0
  150.0927  141.0766  156.4377 H   0  0  0  0  0  0  0  0  0  0  0  0
  149.8467  139.5851  157.2903 H   0  0  0  0  0  0  0  0  0  0  0  0
  153.3825  140.8080  161.7731 H   0  0  0  0  0  0  0  0  0  0  0  0
  154.6731  140.4637  160.6151 H   0  0  0  0  0  0  0  0  0  0  0  0
  153.5278  139.1981  161.0710 H   0  0  0  0  0  0  0  0  0  0  0  0
  153.5937  143.2098  160.9162 H   0  0  0  0  0  0  0  0  0  0  0  0
  152.7959  145.3723  159.9258 H   0  0  0  0  0  0  0  0  0  0  0  0
  151.2919  145.3720  157.9461 H   0  0  0  0  0  0  0  0  0  0  0  0
  150.5498  143.2139  156.9133 H   0  0  0  0  0  0  0  0  0  0  0  0
  151.6393  135.4721  155.3720 H   0  0  0  0  0  0  0  0  0  0  0  0
  150.9863  133.2657  154.5838 H   0  0  0  0  0  0  0  0  0  0  0  0
  1  2  1  0  0  0  0
  1 26  1  0  0  0  0
  1 27  1  0  0  0  0
  1 28  1  0  0  0  0
  2  3  2  0  0  0  0
  2  4  1  0  0  0  0
  4 25  1  0  0  0  0
  4  5  2  0  0  0  0
  5  6  1  0  0  0  0
  5 29  1  0  0  0  0
  6  7  2  0  0  0  0
  6 30  1  0  0  0  0
  7  8  1  0  0  0  0
  7 24  1  0  0  0  0
  8  9  1  0  0  0  0
  9 10  1  0  0  0  0
  9 31  1  0  0  0  0
  9 32  1  0  0  0  0
 10 11  1  0  0  0  0
 10 12  1  0  0  0  0
 10 33  1  0  0  0  0
 11 34  1  0  0  0  0
 12 13  1  0  0  0  0
 12 35  1  0  0  0  0
 12 36  1  0  0  0  0
 13 23  1  0  0  0  0
 13 14  1  0  0  0  0
 14 15  2  0  0  0  0
 14 16  1  0  0  0  0
 16 17  1  0  0  0  0
 16 18  1  0  0  0  0
 17 37  1  0  0  0  0
 17 38  1  0  0  0  0
 17 39  1  0  0  0  0
 18 23  2  0  0  0  0
 18 19  1  0  0  0  0
 19 20  2  0  0  0  0
 19 40  1  0  0  0  0
 20 21  1  0  0  0  0
 20 41  1  0  0  0  0
 21 22  2  0  0  0  0
 21 42  1  0  0  0  0
 22 23  1  0  0  0  0
 22 43  1  0  0  0  0
 24 25  2  0  0  0  0
 24 44  1  0  0  0  0
 25 45  1  0  0  0  0
M  END
> <s_m_source_file>
AV-unprocessed.smi

> <i_m_source_file_index>
407

> <i_lp_mmshare_version>
43012

> <i_f3d_flags>
0

> <s_epik_input>
W0NIM11DKD1PKWMxW2NIXVtjSF1jKFtjSF1bY0hdMSlPW0NIMl1bQ0BIXShbT0hdKVtDSDJdbihjKD1PKW4yW0NIM10pYyhjMjMpW2NIXVtjSF1bY0hdW2NIXTM=

> <s_epik_cmdline>
J2VwaWtfcHl0aG9uJywgJy1waCcsICc3LjAnLCAnLXRuJywgJzgnLCAnLW1hJywgJzIwMCcsICctbWV0YWxfYmluZGluZycsICctaW1hZScsICc8aW5maWxlLm1hZT4nLCAnLW9tYWUnLCAnPG91dGZpbGUubWFlPic=

> <r_lp_tautomer_probability>
1

> <r_epik_Ionization_Penalty>
2.40123e-06

> <r_epik_Ionization_Penalty_Charging>
1.9356e-09

> <r_epik_Ionization_Penalty_Neutral>
2.3993e-06

> <r_epik_State_Penalty>
-0

> <r_epik_Charging_Adjusted_Penalty>
1.9356e-09

> <i_epik_Tot_Q>
0

> <i_epik_Tot_abs_Q>
0

> <r_epik_Metal_State_Penalty>
-0

> <b_epik_Metal_Only>
0

> <s_lp_Force_Field>
OPLS_2005

> <r_lp_Energy>
53.7359

> <b_lp_Chiralities_Consistent>
1

> <s_lp_Variant>
AV-unprocessed.smi:407-2

> <Gold.Version>
5.8.1

> <Gold.Id.Protein>
6NUR|6NUR_protein|mol2

> <Gold.PLP.Fitness>
49.4219

> <Gold.PLP.PLP>
-47.6615

> <Gold.PLP.part.hbond>
-1.0000

> <Gold.PLP.part.metal>
0.0000

> <Gold.PLP.part.buried>
-5.9383

> <Gold.PLP.part.nonpolar>
-40.4039

> <Gold.PLP.part.repulsive>
0.1027

> <Gold.PLP.ligand.clash>
0.0000

> <Gold.PLP.ligand.torsion>
0.7604

> <Gold.PLP.Chemscore.Hbond>
1.0000

> <Gold.PLP.Chemscore.CHOScore>
0.0000

> <Gold.PLP.Chemscore.Metal>
0.0000

> <Gold.Chemscore.Hbonds>
donor molecule, donor type, donor heavy atom, donor atom, acceptor molecule, acceptor atom, score
      P1  H  7989  7998       L1    11  1.00

> <Gold.PLP.Chemscore.Internal.Correction>
0.2813

> <Gold.Rescore>
     Score         DG    S(hbond)    S(metal)    S(lipo)     H(rot)  DE(clash)    DE(int)     intcor
     16.70     -17.54       0.93        0.00     126.89       2.30       0.03       0.81       ----

> <Gold.Chemscore.Fitness>
16.7040

> <Gold.Chemscore.DG>
-17.5427

> <Gold.Chemscore.ZeroCoef>
-5.4800

> <Gold.Chemscore.Hbond>
0.9283

> <Gold.Chemscore.Metal>
0.0000

> <Gold.Chemscore.Lipo>
126.8891

> <Gold.Chemscore.Internal_Hbond>
0.0000

> <Gold.Chemscore.DEClash>
0.0255

> <Gold.Chemscore.DEInternal>
0.8133

> <Gold.Chemscore.Rot>
2.2984

> <Gold.Chemscore.Internal.Correction>
   9.000000E+99

> <Gold.Chemscore.Hbonds>
donor molecule, donor type, donor heavy atom, donor atom, acceptor molecule, acceptor atom, score
      P1  H  7989  7998       L1    11  0.77

> <Gold.Chemscore.Hbond.Weighted>
-3.1006

> <Gold.Chemscore.Metal.Weighted>
-0.0000

> <Gold.Chemscore.Lipo.Weighted>
-14.8460

> <Gold.Chemscore.Internal_Hbond.Weighted>
0.0000

> <Gold.Chemscore.DEClash.Weighted>
0.0255

> <Gold.Chemscore.DEInternal.Weighted>
0.8133

> <Gold.Chemscore.Rot.Weighted>
5.8839

> <Gold.Chemscore.Internal.Correction.Weighted>
   9.000000E+99

> <Gold.Protein.RotatedTorsions>
[ 6907 6896 6895 6894 ] final  -88.78 input  -60.11 | X-H torsion
[ 7974 7965 7964 7962 ] final  165.27 input  175.53 | X-H torsion
[ 8008 7997 7996 7995 ] final   -3.93 input   59.86 | X-H torsion
[ 10167 10162 10161 10158 ] final  118.84 input  -65.29 | X-H torsion
[ 10718 10713 10712 10709 ] final  -15.38 input   66.30 | X-H torsion
[ 10763 10752 10751 10750 ] final   93.86 input  -60.55 | X-H torsion
[ 11005 11000 10999 10996 ] final  113.25 input  -57.11 | X-H torsion

> <Gold.Protein.ActiveResidues>
 VAL166  LYS551  ARG553  GLY616  TRP617  ASP618  TYR619  PRO620  LYS621  CYS622 
 ASP623  PHE694  ASN695  SER759  ASP760  ASP761  ALA762  ILE779  LEU786  VAL792 
 PHE793  MET794  SER795  GLU796  ALA797  LYS798  CYS799  TRP800  GLU811  SER814 

> <Gold.Protein.RotatedAtoms>
  150.6870  134.2689  159.4579 H   0  0  0  0  0  0  0  0  0  0  0  0  # atno 6907 bound_to 6896
  152.0613  134.9590  160.0584 H   0  0  0  0  0  0  0  0  0  0  0  0  # atno 6908 bound_to 6896
  152.1016  133.4218  159.4626 H   0  0  0  0  0  0  0  0  0  0  0  0  # atno 6909 bound_to 6896
  144.7509  139.8446  143.6366 H   0  0  0  0  0  0  0  0  0  0  0  0  # atno 7974 bound_to 7965
  154.6197  140.2497  155.7565 H   0  0  0  0  0  0  0  0  0  0  0  0  # atno 8008 bound_to 7997
  156.2419  140.2929  156.0418 H   0  0  0  0  0  0  0  0  0  0  0  0  # atno 8009 bound_to 7997
  155.1917  140.0392  157.2892 H   0  0  0  0  0  0  0  0  0  0  0  0  # atno 8010 bound_to 7997
  139.6085  144.7076  151.2898 H   0  0  0  0  0  0  0  0  0  0  0  0  # atno 10167 bound_to 10162
  156.6025  130.4828  149.6234 H   0  0  0  0  0  0  0  0  0  0  0  0  # atno 10718 bound_to 10713
  153.2351  135.4310  155.0638 H   0  0  0  0  0  0  0  0  0  0  0  0  # atno 10763 bound_to 10752
  154.8315  135.3389  154.6730 H   0  0  0  0  0  0  0  0  0  0  0  0  # atno 10764 bound_to 10752
  153.7156  135.7020  153.5082 H   0  0  0  0  0  0  0  0  0  0  0  0  # atno 10765 bound_to 10752
  139.8948  134.9546  156.6711 H   0  0  0  0  0  0  0  0  0  0  0  0  # atno 11005 bound_to 11000
  146.1458  139.4527  143.0080 LP  0  0  0  0  0  0  0  0  0  0  0  0  # atno 17320 bound_to 7965
  145.6947  141.0154  143.1536 LP  0  0  0  0  0  0  0  0  0  0  0  0  # atno 17321 bound_to 7965
  140.7302  143.6886  150.7941 LP  0  0  0  0  0  0  0  0  0  0  0  0  # atno 17342 bound_to 10162
  140.0476  143.5282  152.2689 LP  0  0  0  0  0  0  0  0  0  0  0  0  # atno 17343 bound_to 10162
  156.2457  130.6877  151.1598 LP  0  0  0  0  0  0  0  0  0  0  0  0  # atno 17370 bound_to 10713
  157.7276  131.0638  150.5859 LP  0  0  0  0  0  0  0  0  0  0  0  0  # atno 17371 bound_to 10713
  140.7373  133.9008  155.8253 LP  0  0  0  0  0  0  0  0  0  0  0  0  # atno 17394 bound_to 11000
  141.0106  134.1026  157.4225 LP  0  0  0  0  0  0  0  0  0  0  0  0  # atno 17395 bound_to 11000

$$$$
