AV-unprocessed.smi:3057|AV-procd|sdf|11662|dock3
  -GOLD-   2272017 63D 1   1.00000     0.00000
 Structure written by MMmdl.
 40 42  0  0  0  0  0  0  0  0  1 V2000
  152.8506  143.6472  158.5699 C   0  0  0  0  0  0  0  0  0  0  0  0
  152.2217  142.4138  159.2506 C   0  0  2  0  0  0  0  0  0  0  0  0
  152.6754  142.2925  160.7142 C   0  0  0  0  0  0  0  0  0  0  0  0
  153.9282  141.4055  160.6420 C   0  0  0  0  0  0  0  0  0  0  0  0
  153.7145  140.6384  159.3451 C   0  0  0  0  0  0  0  0  0  0  0  0
  154.3538  139.6313  159.0448 O   0  0  0  0  0  0  0  0  0  0  0  0
  152.7064  141.1861  158.6477 N   0  0  0  0  0  0  0  0  0  0  0  0
  151.9055  140.6238  157.5493 C   0  0  1  0  0  0  0  0  0  0  0  0
  151.4815  139.1605  157.7778 C   0  0  0  0  0  0  0  0  0  0  0  0
  151.8229  138.2805  156.9864 O   0  0  0  0  0  0  0  0  0  0  0  0
  150.7601  138.9137  158.8805 N   0  0  0  0  0  0  0  0  0  0  0  0
  150.2816  137.5951  159.2710 C   0  0  0  0  0  0  0  0  0  0  0  0
  148.7471  137.5545  159.2713 C   0  0  0  0  0  0  0  0  0  0  0  0
  148.1954  136.6737  160.3763 C   0  0  0  0  0  0  0  0  0  0  0  0
  148.2062  135.2680  160.2497 C   0  0  0  0  0  0  0  0  0  0  0  0
  147.6748  134.4958  161.3011 C   0  0  0  0  0  0  0  0  0  0  0  0
  147.1546  135.1553  162.4314 C   0  0  0  0  0  0  0  0  0  0  0  0
  147.1889  136.5638  162.4603 C   0  0  0  0  0  0  0  0  0  0  0  0
  147.6962  137.3136  161.4578 N   0  0  0  0  0  0  0  0  0  0  0  0
  150.6845  141.5532  157.3740 C   0  0  0  0  0  0  0  0  0  0  0  0
  150.4382  142.3541  158.9825 S   0  0  0  0  0  0  0  0  0  0  0  0
  153.9353  143.6566  158.6805 H   0  0  0  0  0  0  0  0  0  0  0  0
  152.4693  144.5696  159.0086 H   0  0  0  0  0  0  0  0  0  0  0  0
  152.6344  143.6789  157.5023 H   0  0  0  0  0  0  0  0  0  0  0  0
  152.8750  143.2601  161.1760 H   0  0  0  0  0  0  0  0  0  0  0  0
  151.9111  141.7943  161.3128 H   0  0  0  0  0  0  0  0  0  0  0  0
  154.8374  142.0023  160.5637 H   0  0  0  0  0  0  0  0  0  0  0  0
  154.0140  140.7391  161.5007 H   0  0  0  0  0  0  0  0  0  0  0  0
  152.5129  140.6658  156.6437 H   0  0  0  0  0  0  0  0  0  0  0  0
  150.5238  139.6883  159.4836 H   0  0  0  0  0  0  0  0  0  0  0  0
  150.6784  136.8477  158.5815 H   0  0  0  0  0  0  0  0  0  0  0  0
  150.6615  137.3531  160.2650 H   0  0  0  0  0  0  0  0  0  0  0  0
  148.3468  138.5632  159.3850 H   0  0  0  0  0  0  0  0  0  0  0  0
  148.3826  137.1869  158.3108 H   0  0  0  0  0  0  0  0  0  0  0  0
  148.6091  134.7911  159.3683 H   0  0  0  0  0  0  0  0  0  0  0  0
  147.6653  133.4176  161.2404 H   0  0  0  0  0  0  0  0  0  0  0  0
  146.7388  134.5955  163.2561 H   0  0  0  0  0  0  0  0  0  0  0  0
  146.7980  137.1025  163.3108 H   0  0  0  0  0  0  0  0  0  0  0  0
  150.8977  142.3214  156.6303 H   0  0  0  0  0  0  0  0  0  0  0  0
  149.7809  141.0323  157.0545 H   0  0  0  0  0  0  0  0  0  0  0  0
  1  2  1  0  0  0  0
  1 22  1  0  0  0  0
  1 23  1  0  0  0  0
  1 24  1  0  0  0  0
  2  7  1  0  0  0  0
  2 21  1  0  0  0  0
  2  3  1  0  0  0  0
  3  4  1  0  0  0  0
  3 25  1  0  0  0  0
  3 26  1  0  0  0  0
  4  5  1  0  0  0  0
  4 27  1  0  0  0  0
  4 28  1  0  0  0  0
  5  6  2  0  0  0  0
  5  7  1  0  0  0  0
  7  8  1  0  0  0  0
  8  9  1  0  0  0  0
  8 20  1  0  0  0  0
  8 29  1  0  0  0  0
  9 10  2  0  0  0  0
  9 11  1  0  0  0  0
 11 12  1  0  0  0  0
 11 30  1  0  0  0  0
 12 13  1  0  0  0  0
 12 31  1  0  0  0  0
 12 32  1  0  0  0  0
 13 14  1  0  0  0  0
 13 33  1  0  0  0  0
 13 34  1  0  0  0  0
 14 19  1  0  0  0  0
 14 15  2  0  0  0  0
 15 16  1  0  0  0  0
 15 35  1  0  0  0  0
 16 17  2  0  0  0  0
 16 36  1  0  0  0  0
 17 18  1  0  0  0  0
 17 37  1  0  0  0  0
 18 19  2  0  0  0  0
 18 38  1  0  0  0  0
 20 21  1  0  0  0  0
 20 39  1  0  0  0  0
 20 40  1  0  0  0  0
M  END
> <s_m_source_file>
AV-unprocessed.smi

> <i_m_source_file_index>
3057

> <i_lp_mmshare_version>
43012

> <i_f3d_flags>
0

> <s_epik_input>
W0NIMl0xW0NIMl1DKD1PKU4oW0NAQF0xMltDSDNdKVtDQEhdKFtDSDJdUzIpQyg9TylbTkhdW0NIMl1bQ0gyXWMzW2NIXVtjSF1bY0hdW2NIXW4z

> <s_epik_cmdline>
J2VwaWtfcHl0aG9uJywgJy1waCcsICc3LjAnLCAnLXRuJywgJzgnLCAnLW1hJywgJzIwMCcsICctbWV0YWxfYmluZGluZycsICctaW1hZScsICc8aW5maWxlLm1hZT4nLCAnLW9tYWUnLCAnPG91dGZpbGUubWFlPic=

> <r_epik_Ionization_Penalty>
0.0249631

> <r_epik_Ionization_Penalty_Charging>
0

> <r_epik_Ionization_Penalty_Neutral>
0.0249631

> <r_epik_State_Penalty>
0.0202943

> <r_epik_Charging_Adjusted_Penalty>
0.0202943

> <i_epik_Tot_Q>
0

> <i_epik_Tot_abs_Q>
0

> <r_epik_Metal_State_Penalty>
0.0194661

> <b_epik_Metal_Only>
0

> <s_lp_Force_Field>
OPLS_2005

> <r_lp_Energy>
25.2027

> <b_lp_Chiralities_Consistent>
1

> <s_lp_Variant>
AV-unprocessed.smi:3057-2

> <Gold.Version>
5.8.1

> <Gold.Id.Protein>
6NUR|6NUR_protein|mol2

> <Gold.PLP.Fitness>
49.3095

> <Gold.PLP.PLP>
-41.9765

> <Gold.PLP.part.hbond>
-3.0000

> <Gold.PLP.part.metal>
0.0000

> <Gold.PLP.part.buried>
-3.8194

> <Gold.PLP.part.nonpolar>
-35.7657

> <Gold.PLP.part.repulsive>
0.1701

> <Gold.PLP.ligand.clash>
0.0000

> <Gold.PLP.ligand.torsion>
0.4766

> <Gold.PLP.Chemscore.Hbond>
2.7596

> <Gold.PLP.Chemscore.CHOScore>
0.0000

> <Gold.PLP.Chemscore.Metal>
0.0000

> <Gold.Chemscore.Hbonds>
donor molecule, donor type, donor heavy atom, donor atom, acceptor molecule, acceptor atom, score
      P1  H  6931  6943       L1    19  0.94
      P1  H  6934  6947       L1    19  0.75
      P1  H  7997  8008       L1     6  0.96

> <Gold.PLP.Chemscore.Internal.Correction>
0.0074

> <Gold.Rescore>
     Score         DG    S(hbond)    S(metal)    S(lipo)     H(rot)  DE(clash)    DE(int)     intcor
     19.03     -20.58       2.00        0.00     105.43       1.53       1.03       0.52       ----

> <Gold.Chemscore.Fitness>
19.0295

> <Gold.Chemscore.DG>
-20.5794

> <Gold.Chemscore.ZeroCoef>
-5.4800

> <Gold.Chemscore.Hbond>
2.0033

> <Gold.Chemscore.Metal>
0.0000

> <Gold.Chemscore.Lipo>
105.4270

> <Gold.Chemscore.Internal_Hbond>
0.0000

> <Gold.Chemscore.DEClash>
1.0336

> <Gold.Chemscore.DEInternal>
0.5162

> <Gold.Chemscore.Rot>
1.5339

> <Gold.Chemscore.Internal.Correction>
   9.000000E+99

> <Gold.Chemscore.Hbonds>
donor molecule, donor type, donor heavy atom, donor atom, acceptor molecule, acceptor atom, score
      P1  H  6931  6943       L1    19  0.24
      P1  H  6934  6947       L1    19  0.53
      P1  H  7997  8008       L1     6  0.55

> <Gold.Chemscore.Hbond.Weighted>
-6.6912

> <Gold.Chemscore.Metal.Weighted>
-0.0000

> <Gold.Chemscore.Lipo.Weighted>
-12.3350

> <Gold.Chemscore.Internal_Hbond.Weighted>
0.0000

> <Gold.Chemscore.DEClash.Weighted>
1.0336

> <Gold.Chemscore.DEInternal.Weighted>
0.5162

> <Gold.Chemscore.Rot.Weighted>
3.9267

> <Gold.Chemscore.Internal.Correction.Weighted>
   9.000000E+99

> <Gold.Protein.RotatedTorsions>
[ 6907 6896 6895 6894 ] final  -79.34 input  -60.11 | X-H torsion
[ 7974 7965 7964 7962 ] final  -93.84 input  175.53 | X-H torsion
[ 8008 7997 7996 7995 ] final -132.56 input   59.86 | X-H torsion
[ 10167 10162 10161 10158 ] final -109.08 input  -65.29 | X-H torsion
[ 10718 10713 10712 10709 ] final  -78.22 input   66.30 | X-H torsion
[ 10763 10752 10751 10750 ] final -151.77 input  -60.55 | X-H torsion
[ 11005 11000 10999 10996 ] final  136.88 input  -57.11 | X-H torsion

> <Gold.Protein.ActiveResidues>
 VAL166  LYS551  ARG553  GLY616  TRP617  ASP618  TYR619  PRO620  LYS621  CYS622 
 ASP623  PHE694  ASN695  SER759  ASP760  ASP761  ALA762  ILE779  LEU786  VAL792 
 PHE793  MET794  SER795  GLU796  ALA797  LYS798  CYS799  TRP800  GLU811  SER814 

> <Gold.Protein.RotatedAtoms>
  150.6952  134.4135  159.5172 H   0  0  0  0  0  0  0  0  0  0  0  0  # atno 6907 bound_to 6896
  152.1890  134.8686  160.0528 H   0  0  0  0  0  0  0  0  0  0  0  0  # atno 6908 bound_to 6896
  151.9648  133.3672  159.4086 H   0  0  0  0  0  0  0  0  0  0  0  0  # atno 6909 bound_to 6896
  145.3812  140.9517  143.2393 H   0  0  0  0  0  0  0  0  0  0  0  0  # atno 7974 bound_to 7965
  155.3310  140.0467  157.3042 H   0  0  0  0  0  0  0  0  0  0  0  0  # atno 8008 bound_to 7997
  154.5328  140.2262  155.8740 H   0  0  0  0  0  0  0  0  0  0  0  0  # atno 8009 bound_to 7997
  156.1806  140.3075  155.9147 H   0  0  0  0  0  0  0  0  0  0  0  0  # atno 8010 bound_to 7997
  140.1591  143.4135  152.1438 H   0  0  0  0  0  0  0  0  0  0  0  0  # atno 10167 bound_to 10162
  156.0123  130.4512  150.3464 H   0  0  0  0  0  0  0  0  0  0  0  0  # atno 10718 bound_to 10713
  154.8037  135.3252  154.7486 H   0  0  0  0  0  0  0  0  0  0  0  0  # atno 10763 bound_to 10752
  153.8148  135.6892  153.4840 H   0  0  0  0  0  0  0  0  0  0  0  0  # atno 10764 bound_to 10752
  153.1769  135.4601  154.9921 H   0  0  0  0  0  0  0  0  0  0  0  0  # atno 10765 bound_to 10752
  140.0076  134.9453  157.0208 H   0  0  0  0  0  0  0  0  0  0  0  0  # atno 11005 bound_to 11000
  144.8506  139.5327  143.6858 LP  0  0  0  0  0  0  0  0  0  0  0  0  # atno 17320 bound_to 7965
  146.2841  139.6957  142.9208 LP  0  0  0  0  0  0  0  0  0  0  0  0  # atno 17321 bound_to 7965
  139.5389  144.7237  151.4799 LP  0  0  0  0  0  0  0  0  0  0  0  0  # atno 17342 bound_to 10162
  140.6654  143.8409  150.6936 LP  0  0  0  0  0  0  0  0  0  0  0  0  # atno 17343 bound_to 10162
  157.1558  131.0332  151.2864 LP  0  0  0  0  0  0  0  0  0  0  0  0  # atno 17370 bound_to 10713
  157.4353  130.7514  149.7024 LP  0  0  0  0  0  0  0  0  0  0  0  0  # atno 17371 bound_to 10713
  140.4613  134.1481  155.7191 LP  0  0  0  0  0  0  0  0  0  0  0  0  # atno 17394 bound_to 11000
  141.1688  133.8650  157.1634 LP  0  0  0  0  0  0  0  0  0  0  0  0  # atno 17395 bound_to 11000

$$$$
