AV-unprocessed.smi:1703|AV-procd|sdf|6866|dock5
  -GOLD-   22720 8 63D 1   1.00000     0.00000
 Structure written by MMmdl.
 49 51  0  0  0  0  0  0  0  0  2 V2000
  143.5169  142.4078  156.4496 C   0  0  0  0  0  0  0  0  0  0  0  0
  144.7690  143.3020  156.4954 C   0  0  1  0  0  0  0  0  0  0  0  0
  146.0875  142.5075  156.5657 C   0  0  0  0  0  0  0  0  0  0  0  0
  146.3957  141.8762  155.2592 N   0  3  2  0  0  0  0  0  0  0  0  0
  147.6157  141.0299  155.2771 C   0  0  0  0  0  0  0  0  0  0  0  0
  148.6739  141.5482  156.2703 C   0  0  1  0  0  0  0  0  0  0  0  0
  148.5878  140.7906  157.4625 O   0  0  0  0  0  0  0  0  0  0  0  0
  150.0997  141.4460  155.6927 C   0  0  0  0  0  0  0  0  0  0  0  0
  151.1098  141.2394  156.7223 N   0  0  0  0  0  0  0  0  0  0  0  0
  151.8948  140.1501  156.9198 C   0  0  0  0  0  0  0  0  0  0  0  0
  151.8076  138.9318  156.0522 C   0  0  0  0  0  0  0  0  0  0  0  0
  151.9898  139.2234  154.6832 O   0  0  0  0  0  0  0  0  0  0  0  0
  152.7493  140.2278  157.9403 N   0  0  0  0  0  0  0  0  0  0  0  0
  152.4917  141.4822  158.4580 C   0  0  0  0  0  0  0  0  0  0  0  0
  153.0721  142.1605  159.5536 C   0  0  0  0  0  0  0  0  0  0  0  0
  152.6396  143.4572  159.9010 C   0  0  0  0  0  0  0  0  0  0  0  0
  151.6224  144.0927  159.1600 C   0  0  0  0  0  0  0  0  0  0  0  0
  151.0306  143.4347  158.0648 C   0  0  0  0  0  0  0  0  0  0  0  0
  151.4671  142.1409  157.7208 C   0  0  0  0  0  0  0  0  0  0  0  0
  146.4252  142.9002  154.1903 C   0  0  0  0  0  0  0  0  0  0  0  0
  145.0859  143.6577  154.1371 C   0  0  2  0  0  0  0  0  0  0  0  0
  145.1077  144.7890  153.1034 C   0  0  0  0  0  0  0  0  0  0  0  0
  144.8129  144.2322  155.4130 O   0  0  0  0  0  0  0  0  0  0  0  0
  143.4440  141.7997  157.3516 H   0  0  0  0  0  0  0  0  0  0  0  0
  143.5247  141.7247  155.6006 H   0  0  0  0  0  0  0  0  0  0  0  0
  142.6109  143.0108  156.3860 H   0  0  0  0  0  0  0  0  0  0  0  0
  144.6941  143.9006  157.4038 H   0  0  0  0  0  0  0  0  0  0  0  0
  146.9039  143.1790  156.8375 H   0  0  0  0  0  0  0  0  0  0  0  0
  146.0220  141.7602  157.3557 H   0  0  0  0  0  0  0  0  0  0  0  0
  147.3520  140.0077  155.5540 H   0  0  0  0  0  0  0  0  0  0  0  0
  148.0293  140.9740  154.2689 H   0  0  0  0  0  0  0  0  0  0  0  0
  148.4743  142.5886  156.5226 H   0  0  0  0  0  0  0  0  0  0  0  0
  148.6143  141.3811  158.2001 H   0  0  0  0  0  0  0  0  0  0  0  0
  150.1618  140.6253  154.9766 H   0  0  0  0  0  0  0  0  0  0  0  0
  150.3460  142.3485  155.1332 H   0  0  0  0  0  0  0  0  0  0  0  0
  152.5475  138.1968  156.3678 H   0  0  0  0  0  0  0  0  0  0  0  0
  150.8295  138.4668  156.1814 H   0  0  0  0  0  0  0  0  0  0  0  0
  152.6894  138.6822  154.3507 H   0  0  0  0  0  0  0  0  0  0  0  0
  153.8515  141.6824  160.1282 H   0  0  0  0  0  0  0  0  0  0  0  0
  153.0904  143.9666  160.7400 H   0  0  0  0  0  0  0  0  0  0  0  0
  151.2971  145.0858  159.4328 H   0  0  0  0  0  0  0  0  0  0  0  0
  150.2523  143.9206  157.4959 H   0  0  0  0  0  0  0  0  0  0  0  0
  147.2497  143.5919  154.3711 H   0  0  0  0  0  0  0  0  0  0  0  0
  146.6112  142.4235  153.2270 H   0  0  0  0  0  0  0  0  0  0  0  0
  144.2860  142.9686  153.8658 H   0  0  0  0  0  0  0  0  0  0  0  0
  145.3017  144.4028  152.1026 H   0  0  0  0  0  0  0  0  0  0  0  0
  145.8808  145.5221  153.3349 H   0  0  0  0  0  0  0  0  0  0  0  0
  144.1509  145.3111  153.0773 H   0  0  0  0  0  0  0  0  0  0  0  0
  145.6272  141.2581  155.0385 H   0  0  0  0  0  0  0  0  0  0  0  0
  1  2  1  0  0  0  0
  1 24  1  0  0  0  0
  1 25  1  0  0  0  0
  1 26  1  0  0  0  0
  2 23  1  0  0  0  0
  2  3  1  0  0  0  0
  2 27  1  0  0  0  0
  3  4  1  0  0  0  0
  3 28  1  0  0  0  0
  3 29  1  0  0  0  0
  4  5  1  0  0  0  0
  4 20  1  0  0  0  0
  4 49  1  0  0  0  0
  5  6  1  0  0  0  0
  5 30  1  0  0  0  0
  5 31  1  0  0  0  0
  6  7  1  0  0  0  0
  6  8  1  0  0  0  0
  6 32  1  0  0  0  0
  7 33  1  0  0  0  0
  8  9  1  0  0  0  0
  8 34  1  0  0  0  0
  8 35  1  0  0  0  0
  9 19  1  0  0  0  0
  9 10  1  0  0  0  0
 10 11  1  0  0  0  0
 10 13  2  0  0  0  0
 11 12  1  0  0  0  0
 11 36  1  0  0  0  0
 11 37  1  0  0  0  0
 12 38  1  0  0  0  0
 13 14  1  0  0  0  0
 14 19  2  0  0  0  0
 14 15  1  0  0  0  0
 15 16  2  0  0  0  0
 15 39  1  0  0  0  0
 16 17  1  0  0  0  0
 16 40  1  0  0  0  0
 17 18  2  0  0  0  0
 17 41  1  0  0  0  0
 18 19  1  0  0  0  0
 18 42  1  0  0  0  0
 20 21  1  0  0  0  0
 20 43  1  0  0  0  0
 20 44  1  0  0  0  0
 21 22  1  0  0  0  0
 21 23  1  0  0  0  0
 21 45  1  0  0  0  0
 22 46  1  0  0  0  0
 22 47  1  0  0  0  0
 22 48  1  0  0  0  0
M  CHG  1   4   1
M  END
> <s_m_source_file>
AV-unprocessed.smi

> <i_m_source_file_index>
1703

> <i_lp_mmshare_version>
43012

> <i_f3d_flags>
0

> <s_epik_input>
W0NIM11bQ0BASF0xW0NIMl1OKFtDSDJdW0NASF0oTzEpW0NIM10pW0NIMl1bQ0BIXShbT0hdKVtDSDJdbihjKG4yKVtDSDJdW09IXSljKGMyMylbY0hdW2NIXVtjSF1bY0hdMw==

> <s_epik_cmdline>
J2VwaWtfcHl0aG9uJywgJy1waCcsICc3LjAnLCAnLXRuJywgJzgnLCAnLW1hJywgJzIwMCcsICctbWV0YWxfYmluZGluZycsICctaW1hZScsICc8aW5maWxlLm1hZT4nLCAnLW9tYWUnLCAnPG91dGZpbGUubWFlPic=

> <r_epik_Ionization_Penalty>
0.655661

> <r_epik_Ionization_Penalty_Charging>
0.608065

> <r_epik_Ionization_Penalty_Neutral>
0.0475963

> <r_epik_State_Penalty>
0.695267

> <r_epik_Charging_Adjusted_Penalty>
1.30333

> <i_epik_Tot_Q>
1

> <i_epik_Tot_abs_Q>
1

> <r_epik_Metal_State_Penalty>
0.653591

> <b_epik_Metal_Only>
0

> <s_lp_Force_Field>
OPLS_2005

> <r_lp_Energy>
24.2834

> <b_lp_Chiralities_Consistent>
1

> <s_lp_Variant>
AV-unprocessed.smi:1703-14

> <Gold.Version>
5.8.1

> <Gold.Id.Protein>
6NUR|6NUR_protein|mol2

> <Gold.PLP.Fitness>
45.9327

> <Gold.PLP.PLP>
-43.0527

> <Gold.PLP.part.hbond>
-2.0000

> <Gold.PLP.part.metal>
0.0000

> <Gold.PLP.part.buried>
-5.4342

> <Gold.PLP.part.nonpolar>
-36.6945

> <Gold.PLP.part.repulsive>
0.1546

> <Gold.PLP.ligand.clash>
0.0000

> <Gold.PLP.ligand.torsion>
1.4108

> <Gold.PLP.Chemscore.Hbond>
1.8880

> <Gold.PLP.Chemscore.CHOScore>
0.0000

> <Gold.PLP.Chemscore.Metal>
0.0000

> <Gold.Chemscore.Hbonds>
donor molecule, donor type, donor heavy atom, donor atom, acceptor molecule, acceptor atom, score
      P1  H  7989  7998       L1    12  0.90
      P1  H  7997  8008       L1    13  0.92

> <Gold.PLP.Chemscore.Internal.Correction>
0.0377

> <Gold.Rescore>
     Score         DG    S(hbond)    S(metal)    S(lipo)     H(rot)  DE(clash)    DE(int)     intcor
     13.88     -15.40       1.36        0.00     110.83       2.96       0.12       1.39       ----

> <Gold.Chemscore.Fitness>
13.8836

> <Gold.Chemscore.DG>
-15.3973

> <Gold.Chemscore.ZeroCoef>
-5.4800

> <Gold.Chemscore.Hbond>
1.3563

> <Gold.Chemscore.Metal>
0.0000

> <Gold.Chemscore.Lipo>
110.8345

> <Gold.Chemscore.Internal_Hbond>
0.0000

> <Gold.Chemscore.DEClash>
0.1242

> <Gold.Chemscore.DEInternal>
1.3895

> <Gold.Chemscore.Rot>
2.9611

> <Gold.Chemscore.Internal.Correction>
   9.000000E+99

> <Gold.Chemscore.Hbonds>
donor molecule, donor type, donor heavy atom, donor atom, acceptor molecule, acceptor atom, score
      P1  H  7989  7998       L1    12  0.64
      P1  H  7997  8008       L1    13  0.17

> <Gold.Chemscore.Hbond.Weighted>
-4.5300

> <Gold.Chemscore.Metal.Weighted>
-0.0000

> <Gold.Chemscore.Lipo.Weighted>
-12.9676

> <Gold.Chemscore.Internal_Hbond.Weighted>
0.0000

> <Gold.Chemscore.DEClash.Weighted>
0.1242

> <Gold.Chemscore.DEInternal.Weighted>
1.3895

> <Gold.Chemscore.Rot.Weighted>
7.5803

> <Gold.Chemscore.Internal.Correction.Weighted>
   9.000000E+99

> <Gold.Protein.RotatedTorsions>
[ 6907 6896 6895 6894 ] final   39.76 input  -60.11 | X-H torsion
[ 7974 7965 7964 7962 ] final  -56.68 input  175.53 | X-H torsion
[ 8008 7997 7996 7995 ] final  -77.46 input   59.86 | X-H torsion
[ 10167 10162 10161 10158 ] final  135.81 input  -65.29 | X-H torsion
[ 10718 10713 10712 10709 ] final   49.63 input   66.30 | X-H torsion
[ 10763 10752 10751 10750 ] final   40.73 input  -60.55 | X-H torsion
[ 11005 11000 10999 10996 ] final  158.70 input  -57.11 | X-H torsion

> <Gold.Protein.ActiveResidues>
 VAL166  LYS551  ARG553  GLY616  TRP617  ASP618  TYR619  PRO620  LYS621  CYS622 
 ASP623  PHE694  ASN695  SER759  ASP760  ASP761  ALA762  ILE779  LEU786  VAL792 
 PHE793  MET794  SER795  GLU796  ALA797  LYS798  CYS799  TRP800  GLU811  SER814 

> <Gold.Protein.RotatedAtoms>
  152.1737  134.8812  160.0532 H   0  0  0  0  0  0  0  0  0  0  0  0  # atno 6907 bound_to 6896
  151.9763  133.3737  159.4098 H   0  0  0  0  0  0  0  0  0  0  0  0  # atno 6908 bound_to 6896
  150.6906  134.4010  159.5162 H   0  0  0  0  0  0  0  0  0  0  0  0  # atno 6909 bound_to 6896
  145.8598  140.8293  142.9942 H   0  0  0  0  0  0  0  0  0  0  0  0  # atno 7974 bound_to 7965
  154.5599  140.0710  156.8802 H   0  0  0  0  0  0  0  0  0  0  0  0  # atno 8008 bound_to 7997
  155.2832  140.3373  155.4239 H   0  0  0  0  0  0  0  0  0  0  0  0  # atno 8009 bound_to 7997
  156.2033  140.1730  156.7839 H   0  0  0  0  0  0  0  0  0  0  0  0  # atno 8010 bound_to 7997
  139.5203  144.6497  151.5336 H   0  0  0  0  0  0  0  0  0  0  0  0  # atno 10167 bound_to 10162
  157.4806  130.8312  149.8089 H   0  0  0  0  0  0  0  0  0  0  0  0  # atno 10718 bound_to 10713
  152.9928  135.6183  154.2673 H   0  0  0  0  0  0  0  0  0  0  0  0  # atno 10763 bound_to 10752
  154.2407  135.2788  155.2856 H   0  0  0  0  0  0  0  0  0  0  0  0  # atno 10764 bound_to 10752
  154.5371  135.5771  153.6866 H   0  0  0  0  0  0  0  0  0  0  0  0  # atno 10765 bound_to 10752
  140.1890  134.8421  157.2890 H   0  0  0  0  0  0  0  0  0  0  0  0  # atno 11005 bound_to 11000
  144.6727  140.1079  143.7457 LP  0  0  0  0  0  0  0  0  0  0  0  0  # atno 17320 bound_to 7965
  145.9261  139.2576  143.1353 LP  0  0  0  0  0  0  0  0  0  0  0  0  # atno 17321 bound_to 7965
  140.6297  143.9099  150.6595 LP  0  0  0  0  0  0  0  0  0  0  0  0  # atno 17342 bound_to 10162
  140.2400  143.3671  152.1495 LP  0  0  0  0  0  0  0  0  0  0  0  0  # atno 17343 bound_to 10162
  156.0119  130.3829  150.2235 LP  0  0  0  0  0  0  0  0  0  0  0  0  # atno 17370 bound_to 10713
  157.0421  131.0038  151.3280 LP  0  0  0  0  0  0  0  0  0  0  0  0  # atno 17371 bound_to 10713
  140.2181  134.4057  155.7579 LP  0  0  0  0  0  0  0  0  0  0  0  0  # atno 17394 bound_to 11000
  141.2226  133.7152  156.8446 LP  0  0  0  0  0  0  0  0  0  0  0  0  # atno 17395 bound_to 11000

$$$$
