AV-unprocessed.smi:308|AV-procd|sdf|2289|dock9
  -GOLD-   2262022193D 1   1.00000     0.00000
 Structure written by MMmdl.
 50 51  0  0  0  0  0  0  0  0  4 V2000
  144.9820  134.3979  151.0676 C   0  0  0  0  0  0  0  0  0  0  0  0
  145.6860  134.3871  152.4319 C   0  0  2  0  0  0  0  0  0  0  0  0
  145.8767  135.8100  152.9844 C   0  0  0  0  0  0  0  0  0  0  0  0
  146.6114  135.7902  154.3348 C   0  0  0  0  0  0  0  0  0  0  0  0
  147.9237  135.0986  154.2176 N   0  3  1  0  0  0  0  0  0  0  0  0
  148.7614  135.1900  155.4439 C   0  0  0  0  0  0  0  0  0  0  0  0
  148.9523  136.6504  155.9059 C   0  0  0  0  0  0  0  0  0  0  0  0
  149.5686  137.4500  154.8430 N   0  5  0  0  0  0  0  0  0  0  0  0
  149.9844  138.7382  154.9779 C   0  0  0  0  0  0  0  0  0  0  0  0
  150.2144  139.5519  154.0765 O   0  0  0  0  0  0  0  0  0  0  0  0
  150.1482  139.0820  156.2679 N   0  0  0  0  0  0  0  0  0  0  0  0
  150.5722  140.3184  156.8265 C   0  0  0  0  0  0  0  0  0  0  0  0
  151.3277  140.2733  158.0158 C   0  0  0  0  0  0  0  0  0  0  0  0
  151.7581  141.4718  158.6203 C   0  0  0  0  0  0  0  0  0  0  0  0
  151.4210  142.7167  158.0348 C   0  0  0  0  0  0  0  0  0  0  0  0
  151.8147  143.9583  158.5793 N   0  0  0  0  0  0  0  0  0  0  0  0
  151.4943  145.1924  157.8710 C   0  0  0  0  0  0  0  0  0  0  0  0
  152.6489  143.9925  159.7734 C   0  0  0  0  0  0  0  0  0  0  0  0
  150.6795  142.7096  156.8999 N   0  3  0  0  0  0  0  0  0  0  0  0
  150.2477  141.5858  156.2878 C   0  0  0  0  0  0  0  0  0  0  0  0
  147.7671  133.7066  153.7239 C   0  0  0  0  0  0  0  0  0  0  0  0
  147.0511  133.6808  152.3629 C   0  0  0  0  0  0  0  0  0  0  0  0
  145.5704  134.9318  150.3206 H   0  0  0  0  0  0  0  0  0  0  0  0
  144.0075  134.8833  151.1325 H   0  0  0  0  0  0  0  0  0  0  0  0
  144.8205  133.3837  150.7013 H   0  0  0  0  0  0  0  0  0  0  0  0
  145.0522  133.8353  153.1277 H   0  0  0  0  0  0  0  0  0  0  0  0
  146.4428  136.4126  152.2725 H   0  0  0  0  0  0  0  0  0  0  0  0
  144.9087  136.2986  153.1014 H   0  0  0  0  0  0  0  0  0  0  0  0
  146.7582  136.8149  154.6776 H   0  0  0  0  0  0  0  0  0  0  0  0
  146.0005  135.2897  155.0878 H   0  0  0  0  0  0  0  0  0  0  0  0
  148.3215  134.5939  156.2446 H   0  0  0  0  0  0  0  0  0  0  0  0
  149.7455  134.7544  155.2638 H   0  0  0  0  0  0  0  0  0  0  0  0
  147.9802  137.0580  156.1834 H   0  0  0  0  0  0  0  0  0  0  0  0
  149.5415  136.6607  156.8233 H   0  0  0  0  0  0  0  0  0  0  0  0
  150.0160  138.3311  156.9296 H   0  0  0  0  0  0  0  0  0  0  0  0
  151.5835  139.3241  158.4638 H   0  0  0  0  0  0  0  0  0  0  0  0
  152.3412  141.4135  159.5268 H   0  0  0  0  0  0  0  0  0  0  0  0
  150.4157  145.2971  157.7506 H   0  0  0  0  0  0  0  0  0  0  0  0
  151.9566  145.1976  156.8837 H   0  0  0  0  0  0  0  0  0  0  0  0
  151.8542  146.0663  158.4142 H   0  0  0  0  0  0  0  0  0  0  0  0
  153.5968  143.4842  159.5935 H   0  0  0  0  0  0  0  0  0  0  0  0
  152.1438  143.5053  160.6079 H   0  0  0  0  0  0  0  0  0  0  0  0
  152.8701  145.0167  160.0736 H   0  0  0  0  0  0  0  0  0  0  0  0
  149.6522  141.7522  155.4027 H   0  0  0  0  0  0  0  0  0  0  0  0
  148.7492  133.2435  153.6172 H   0  0  0  0  0  0  0  0  0  0  0  0
  147.2136  133.1180  154.4571 H   0  0  0  0  0  0  0  0  0  0  0  0
  146.9224  132.6481  152.0367 H   0  0  0  0  0  0  0  0  0  0  0  0
  147.6808  134.1645  151.6145 H   0  0  0  0  0  0  0  0  0  0  0  0
  148.4523  135.5859  153.5070 H   0  0  0  0  0  0  0  0  0  0  0  0
  150.4292  143.6061  156.4829 H   0  0  0  0  0  0  0  0  0  0  0  0
  1  2  1  0  0  0  0
  1 23  1  0  0  0  0
  1 24  1  0  0  0  0
  1 25  1  0  0  0  0
  2 22  1  0  0  0  0
  2  3  1  0  0  0  0
  2 26  1  0  0  0  0
  3  4  1  0  0  0  0
  3 27  1  0  0  0  0
  3 28  1  0  0  0  0
  4  5  1  0  0  0  0
  4 29  1  0  0  0  0
  4 30  1  0  0  0  0
  5  6  1  0  0  0  0
  5 21  1  0  0  0  0
  5 49  1  0  0  0  0
  6  7  1  0  0  0  0
  6 31  1  0  0  0  0
  6 32  1  0  0  0  0
  7  8  1  0  0  0  0
  7 33  1  0  0  0  0
  7 34  1  0  0  0  0
  8  9  1  0  0  0  0
  9 10  2  0  0  0  0
  9 11  1  0  0  0  0
 11 12  1  0  0  0  0
 11 35  1  0  0  0  0
 12 20  1  0  0  0  0
 12 13  2  0  0  0  0
 13 14  1  0  0  0  0
 13 36  1  0  0  0  0
 14 15  2  0  0  0  0
 14 37  1  0  0  0  0
 15 16  1  0  0  0  0
 15 19  1  0  0  0  0
 16 17  1  0  0  0  0
 16 18  1  0  0  0  0
 17 38  1  0  0  0  0
 17 39  1  0  0  0  0
 17 40  1  0  0  0  0
 18 41  1  0  0  0  0
 18 42  1  0  0  0  0
 18 43  1  0  0  0  0
 19 20  2  0  0  0  0
 19 50  1  0  0  0  0
 20 44  1  0  0  0  0
 21 22  1  0  0  0  0
 21 45  1  0  0  0  0
 21 46  1  0  0  0  0
 22 47  1  0  0  0  0
 22 48  1  0  0  0  0
M  CHG  1   5   1
M  CHG  1   8  -1
M  CHG  1  19   1
M  END
> <s_m_source_file>
AV-unprocessed.smi

> <i_m_source_file_index>
308

> <i_lp_mmshare_version>
43012

> <i_f3d_flags>
0

> <s_epik_input>
W0NIM11bQ0hdMVtDSDJdW0NIMl1OKFtDSDJdW0NIMl0xKVtDSDJdW0NIMl1bTkhdQyg9TylbTkhdYzJbY0hdW2NIXWMoTihbQ0gzXSlbQ0gzXSluW2NIXTI=

> <s_epik_cmdline>
J2VwaWtfcHl0aG9uJywgJy1waCcsICc3LjAnLCAnLXRuJywgJzgnLCAnLW1hJywgJzIwMCcsICctbWV0YWxfYmluZGluZycsICctaW1hZScsICc8aW5maWxlLm1hZT4nLCAnLW9tYWUnLCAnPG91dGZpbGUubWFlPic=

> <r_lp_tautomer_probability>
0.999994

> <r_epik_Ionization_Penalty>
7.42107

> <r_epik_Ionization_Penalty_Charging>
7.42107

> <r_epik_Ionization_Penalty_Neutral>
3.68925e-06

> <r_epik_State_Penalty>
7.0982

> <r_epik_Charging_Adjusted_Penalty>
14.5193

> <i_epik_Tot_Q>
1

> <i_epik_Tot_abs_Q>
3

> <r_epik_Metal_State_Penalty>
3.28646

> <b_epik_Metal_Only>
1

> <s_lp_Force_Field>
OPLS_2005

> <r_lp_Energy>
19.707

> <b_lp_Chiralities_Consistent>
1

> <s_lp_Variant>
AV-unprocessed.smi:308-5

> <Gold.Version>
5.8.1

> <Gold.Id.Protein>
6NUR|6NUR_protein|mol2

> <Gold.PLP.Fitness>
48.2027

> <Gold.PLP.PLP>
-34.9075

> <Gold.PLP.part.hbond>
-2.9884

> <Gold.PLP.part.metal>
0.0000

> <Gold.PLP.part.buried>
-3.2645

> <Gold.PLP.part.nonpolar>
-28.9466

> <Gold.PLP.part.repulsive>
1.6504

> <Gold.PLP.ligand.clash>
0.5868

> <Gold.PLP.ligand.torsion>
0.3528

> <Gold.PLP.Chemscore.Hbond>
4.8200

> <Gold.PLP.Chemscore.CHOScore>
0.0000

> <Gold.PLP.Chemscore.Metal>
0.0000

> <Gold.Chemscore.Hbonds>
donor molecule, donor type, donor heavy atom, donor atom, acceptor molecule, acceptor atom, score
      L1  H     5    49       P1  7948  2.00
      L1  H    19    50       P1  8028  1.69
      P1  H  7989  7998       L1    10  1.00

> <Gold.PLP.Chemscore.Internal.Correction>
0.1275

> <Gold.Rescore>
     Score         DG    S(hbond)    S(metal)    S(lipo)     H(rot)  DE(clash)    DE(int)     intcor
     17.37     -20.45       2.89        0.00      76.63       1.42       1.80       1.28       ----

> <Gold.Chemscore.Fitness>
17.3679

> <Gold.Chemscore.DG>
-20.4486

> <Gold.Chemscore.ZeroCoef>
-5.4800

> <Gold.Chemscore.Hbond>
2.8889

> <Gold.Chemscore.Metal>
0.0000

> <Gold.Chemscore.Lipo>
76.6256

> <Gold.Chemscore.Internal_Hbond>
0.0000

> <Gold.Chemscore.DEClash>
1.8032

> <Gold.Chemscore.DEInternal>
1.2775

> <Gold.Chemscore.Rot>
1.4241

> <Gold.Chemscore.Internal.Correction>
   9.000000E+99

> <Gold.Chemscore.Hbonds>
donor molecule, donor type, donor heavy atom, donor atom, acceptor molecule, acceptor atom, score
      L1  H     5    49       P1  7948  0.99
      L1  H    19    50       P1  8028  0.79
      P1  H  7989  7998       L1    10  0.93

> <Gold.Chemscore.Hbond.Weighted>
-9.6490

> <Gold.Chemscore.Metal.Weighted>
-0.0000

> <Gold.Chemscore.Lipo.Weighted>
-8.9652

> <Gold.Chemscore.Internal_Hbond.Weighted>
0.0000

> <Gold.Chemscore.DEClash.Weighted>
1.8032

> <Gold.Chemscore.DEInternal.Weighted>
1.2775

> <Gold.Chemscore.Rot.Weighted>
3.6456

> <Gold.Chemscore.Internal.Correction.Weighted>
   9.000000E+99

> <Gold.Protein.RotatedTorsions>
[ 6907 6896 6895 6894 ] final  164.78 input  -60.11 | X-H torsion
[ 7974 7965 7964 7962 ] final -116.38 input  175.53 | X-H torsion
[ 8008 7997 7996 7995 ] final  120.51 input   59.86 | X-H torsion
[ 10167 10162 10161 10158 ] final  -85.38 input  -65.29 | X-H torsion
[ 10718 10713 10712 10709 ] final -128.03 input   66.30 | X-H torsion
[ 10763 10752 10751 10750 ] final  -61.06 input  -60.55 | X-H torsion
[ 11005 11000 10999 10996 ] final  169.77 input  -57.11 | X-H torsion

> <Gold.Protein.ActiveResidues>
 VAL166  LYS551  ARG553  GLY616  TRP617  ASP618  TYR619  PRO620  LYS621  CYS622 
 ASP623  PHE694  ASN695  SER759  ASP760  ASP761  ALA762  ILE779  LEU786  VAL792 
 PHE793  MET794  SER795  GLU796  ALA797  LYS798  CYS799  TRP800  GLU811  SER814 

> <Gold.Protein.RotatedAtoms>
  151.9046  133.3546  159.3842 H   0  0  0  0  0  0  0  0  0  0  0  0  # atno 6907 bound_to 6896
  150.7072  134.4793  159.5472 H   0  0  0  0  0  0  0  0  0  0  0  0  # atno 6908 bound_to 6896
  152.2388  134.8249  160.0514 H   0  0  0  0  0  0  0  0  0  0  0  0  # atno 6909 bound_to 6896
  145.0974  140.8530  143.3946 H   0  0  0  0  0  0  0  0  0  0  0  0  # atno 7974 bound_to 7965
  156.2646  140.2829  156.1161 H   0  0  0  0  0  0  0  0  0  0  0  0  # atno 8008 bound_to 7997
  155.1205  140.0392  157.2766 H   0  0  0  0  0  0  0  0  0  0  0  0  # atno 8009 bound_to 7997
  154.6674  140.2580  155.7049 H   0  0  0  0  0  0  0  0  0  0  0  0  # atno 8010 bound_to 7997
  140.4043  143.2649  151.9102 H   0  0  0  0  0  0  0  0  0  0  0  0  # atno 10167 bound_to 10162
  156.1913  130.6797  151.0427 H   0  0  0  0  0  0  0  0  0  0  0  0  # atno 10718 bound_to 10713
  154.2788  135.6276  153.5339 H   0  0  0  0  0  0  0  0  0  0  0  0  # atno 10763 bound_to 10752
  152.9869  135.5628  154.5518 H   0  0  0  0  0  0  0  0  0  0  0  0  # atno 10764 bound_to 10752
  154.5104  135.2876  155.1323 H   0  0  0  0  0  0  0  0  0  0  0  0  # atno 10765 bound_to 10752
  140.3013  134.7593  157.3918 H   0  0  0  0  0  0  0  0  0  0  0  0  # atno 11005 bound_to 11000
  145.0995  139.2833  143.5694 LP  0  0  0  0  0  0  0  0  0  0  0  0  # atno 17320 bound_to 7965
  146.3530  140.0557  142.8633 LP  0  0  0  0  0  0  0  0  0  0  0  0  # atno 17321 bound_to 7965
  139.4784  144.5602  151.8251 LP  0  0  0  0  0  0  0  0  0  0  0  0  # atno 17342 bound_to 10162
  140.4707  144.1591  150.5917 LP  0  0  0  0  0  0  0  0  0  0  0  0  # atno 17343 bound_to 10162
  157.6930  131.0803  150.7051 LP  0  0  0  0  0  0  0  0  0  0  0  0  # atno 17370 bound_to 10713
  156.7107  130.4651  149.5548 LP  0  0  0  0  0  0  0  0  0  0  0  0  # atno 17371 bound_to 10713
  140.1107  134.5350  155.8269 LP  0  0  0  0  0  0  0  0  0  0  0  0  # atno 17394 bound_to 11000
  141.2127  133.6723  156.6683 LP  0  0  0  0  0  0  0  0  0  0  0  0  # atno 17395 bound_to 11000

$$$$
