AV-unprocessed.smi:243|AV-procd|sdf|1857|dock6
  -GOLD-   2262020483D 1   1.00000     0.00000
 Structure written by MMmdl.
 58 61  0  0  0  0  0  0  0  0  2 V2000
  145.9167  129.6441  151.7792 C   0  0  0  0  0  0  0  0  0  0  0  0
  145.5679  130.9459  151.0442 C   0  0  0  0  0  0  0  0  0  0  0  0
  146.6654  131.9486  151.1026 N   0  3  1  0  0  0  0  0  0  0  0  0
  146.4189  133.1429  150.2556 C   0  0  0  0  0  0  0  0  0  0  0  0
  145.3520  134.0641  150.8694 C   0  0  0  0  0  0  0  0  0  0  0  0
  145.7372  134.4827  152.3064 C   0  0  1  0  0  0  0  0  0  0  0  0
  144.7722  135.4185  152.9046 N   0  0  0  0  0  0  0  0  0  0  0  0
  143.3852  134.9842  153.0340 C   0  0  0  0  0  0  0  0  0  0  0  0
  145.1391  136.3811  153.7926 C   0  0  0  0  0  0  0  0  0  0  0  0
  144.7987  136.2719  155.1036 N   0  0  0  0  0  0  0  0  0  0  0  0
  145.1466  137.2213  155.9765 C   0  0  0  0  0  0  0  0  0  0  0  0
  145.8273  138.3467  155.7562 N   0  0  0  0  0  0  0  0  0  0  0  0
  146.1758  138.4647  154.4431 C   0  0  0  0  0  0  0  0  0  0  0  0
  145.8696  137.5404  153.4042 C   0  0  0  0  0  0  0  0  0  0  0  0
  146.3894  137.9972  152.1988 N   0  0  0  0  0  0  0  0  0  0  0  0
  146.9639  139.1276  152.5063 C   0  0  0  0  0  0  0  0  0  0  0  0
  146.8940  139.4799  153.8353 N   0  0  0  0  0  0  0  0  0  0  0  0
  147.4514  140.6758  154.4491 C   0  0  0  0  0  0  0  0  0  0  0  0
  148.9982  140.6876  154.4863 C   0  0  1  0  0  0  0  0  0  0  0  0
  149.4830  141.2137  153.2624 O   0  0  0  0  0  0  0  0  0  0  0  0
  149.5598  141.5303  155.6239 C   0  0  0  0  0  0  0  0  0  0  0  0
  150.8998  140.8632  155.9044 C   0  0  0  0  0  0  0  0  0  0  0  0
  150.6034  139.4833  155.7702 O   0  0  0  0  0  0  0  0  0  0  0  0
  149.6539  139.3108  154.7215 C   0  0  0  0  0  0  0  0  0  0  0  0
  146.0671  133.2467  153.1893 C   0  0  2  0  0  0  0  0  0  0  0  0
  146.6020  133.6538  154.5737 C   0  0  0  0  0  0  0  0  0  0  0  0
  147.0927  132.3374  152.4740 C   0  0  0  0  0  0  0  0  0  0  0  0
  145.1402  128.8957  151.6193 H   0  0  0  0  0  0  0  0  0  0  0  0
  146.0028  129.7917  152.8553 H   0  0  0  0  0  0  0  0  0  0  0  0
  146.8565  129.2255  151.4177 H   0  0  0  0  0  0  0  0  0  0  0  0
  145.3796  130.6939  150.0000 H   0  0  0  0  0  0  0  0  0  0  0  0
  144.6355  131.3597  151.4277 H   0  0  0  0  0  0  0  0  0  0  0  0
  147.3557  133.6913  150.1486 H   0  0  0  0  0  0  0  0  0  0  0  0
  146.1291  132.8394  149.2490 H   0  0  0  0  0  0  0  0  0  0  0  0
  145.2380  134.9466  150.2395 H   0  0  0  0  0  0  0  0  0  0  0  0
  144.3888  133.5567  150.8500 H   0  0  0  0  0  0  0  0  0  0  0  0
  146.6669  135.0476  152.2220 H   0  0  0  0  0  0  0  0  0  0  0  0
  143.0645  134.9886  154.0767 H   0  0  0  0  0  0  0  0  0  0  0  0
  143.2490  133.9733  152.6493 H   0  0  0  0  0  0  0  0  0  0  0  0
  142.7268  135.6430  152.4679 H   0  0  0  0  0  0  0  0  0  0  0  0
  144.8345  137.0562  156.9971 H   0  0  0  0  0  0  0  0  0  0  0  0
  147.4653  139.7368  151.7679 H   0  0  0  0  0  0  0  0  0  0  0  0
  147.0803  141.5447  153.9037 H   0  0  0  0  0  0  0  0  0  0  0  0
  147.0513  140.7581  155.4605 H   0  0  0  0  0  0  0  0  0  0  0  0
  149.3683  140.5594  152.5899 H   0  0  0  0  0  0  0  0  0  0  0  0
  149.6489  142.5908  155.3846 H   0  0  0  0  0  0  0  0  0  0  0  0
  148.9278  141.4414  156.5088 H   0  0  0  0  0  0  0  0  0  0  0  0
  151.6452  141.1516  155.1618 H   0  0  0  0  0  0  0  0  0  0  0  0
  151.2901  141.0970  156.8951 H   0  0  0  0  0  0  0  0  0  0  0  0
  148.9337  138.5613  155.0472 H   0  0  0  0  0  0  0  0  0  0  0  0
  150.1429  138.9251  153.8257 H   0  0  0  0  0  0  0  0  0  0  0  0
  145.1690  132.6554  153.3567 H   0  0  0  0  0  0  0  0  0  0  0  0
  147.5009  134.2651  154.4885 H   0  0  0  0  0  0  0  0  0  0  0  0
  146.8520  132.7766  155.1712 H   0  0  0  0  0  0  0  0  0  0  0  0
  145.8645  134.2258  155.1371 H   0  0  0  0  0  0  0  0  0  0  0  0
  147.3010  131.4518  153.0734 H   0  0  0  0  0  0  0  0  0  0  0  0
  148.0443  132.8649  152.3894 H   0  0  0  0  0  0  0  0  0  0  0  0
  147.4605  131.4858  150.6850 H   0  0  0  0  0  0  0  0  0  0  0  0
  1  2  1  0  0  0  0
  1 28  1  0  0  0  0
  1 29  1  0  0  0  0
  1 30  1  0  0  0  0
  2  3  1  0  0  0  0
  2 31  1  0  0  0  0
  2 32  1  0  0  0  0
  3 27  1  0  0  0  0
  3  4  1  0  0  0  0
  3 58  1  0  0  0  0
  4  5  1  0  0  0  0
  4 33  1  0  0  0  0
  4 34  1  0  0  0  0
  5  6  1  0  0  0  0
  5 35  1  0  0  0  0
  5 36  1  0  0  0  0
  6  7  1  0  0  0  0
  6 25  1  0  0  0  0
  6 37  1  0  0  0  0
  7  8  1  0  0  0  0
  7  9  1  0  0  0  0
  8 38  1  0  0  0  0
  8 39  1  0  0  0  0
  8 40  1  0  0  0  0
  9 14  1  0  0  0  0
  9 10  2  0  0  0  0
 10 11  1  0  0  0  0
 11 12  2  0  0  0  0
 11 41  1  0  0  0  0
 12 13  1  0  0  0  0
 13 17  1  0  0  0  0
 13 14  2  0  0  0  0
 14 15  1  0  0  0  0
 15 16  2  0  0  0  0
 16 17  1  0  0  0  0
 16 42  1  0  0  0  0
 17 18  1  0  0  0  0
 18 19  1  0  0  0  0
 18 43  1  0  0  0  0
 18 44  1  0  0  0  0
 19 24  1  0  0  0  0
 19 20  1  0  0  0  0
 19 21  1  0  0  0  0
 20 45  1  0  0  0  0
 21 22  1  0  0  0  0
 21 46  1  0  0  0  0
 21 47  1  0  0  0  0
 22 23  1  0  0  0  0
 22 48  1  0  0  0  0
 22 49  1  0  0  0  0
 23 24  1  0  0  0  0
 24 50  1  0  0  0  0
 24 51  1  0  0  0  0
 25 26  1  0  0  0  0
 25 27  1  0  0  0  0
 25 52  1  0  0  0  0
 26 53  1  0  0  0  0
 26 54  1  0  0  0  0
 26 55  1  0  0  0  0
 27 56  1  0  0  0  0
 27 57  1  0  0  0  0
M  CHG  1   3   1
M  END
> <s_m_source_file>
AV-unprocessed.smi

> <i_m_source_file_index>
243

> <i_lp_mmshare_version>
43012

> <i_f3d_flags>
0

> <s_epik_input>
W0NIM11bQ0gyXU4xW0NIMl1bQ0gyXVtDQEhdKFtDQEBIXShbQ0gzXSlbQ0gyXTEpTihbQ0gzXSljKG5bY0hdbjIpYyhjMjMpbltjSF1uM1tDSDJdW0NAQF00KFtPSF0pW0NIMl1bQ0gyXU9bQ0gyXTQ=

> <s_epik_cmdline>
J2VwaWtfcHl0aG9uJywgJy1waCcsICc3LjAnLCAnLXRuJywgJzgnLCAnLW1hJywgJzIwMCcsICctbWV0YWxfYmluZGluZycsICctaW1hZScsICc8aW5maWxlLm1hZT4nLCAnLW9tYWUnLCAnPG91dGZpbGUubWFlPic=

> <r_lp_tautomer_probability>
1

> <r_epik_Ionization_Penalty>
0.00253099

> <r_epik_Ionization_Penalty_Charging>
0.00137877

> <r_epik_Ionization_Penalty_Neutral>
0.00115221

> <r_epik_State_Penalty>
-0

> <r_epik_Charging_Adjusted_Penalty>
0.00137877

> <i_epik_Tot_Q>
1

> <i_epik_Tot_abs_Q>
1

> <r_epik_Metal_State_Penalty>
-0

> <b_epik_Metal_Only>
0

> <s_lp_Force_Field>
OPLS_2005

> <r_lp_Energy>
46.501

> <b_lp_Chiralities_Consistent>
1

> <s_lp_Variant>
AV-unprocessed.smi:243-10

> <Gold.Version>
5.8.1

> <Gold.Id.Protein>
6NUR|6NUR_protein|mol2

> <Gold.PLP.Fitness>
47.6028

> <Gold.PLP.PLP>
-38.8397

> <Gold.PLP.part.hbond>
-3.3883

> <Gold.PLP.part.metal>
0.0000

> <Gold.PLP.part.buried>
-6.2218

> <Gold.PLP.part.nonpolar>
-30.8803

> <Gold.PLP.part.repulsive>
0.7173

> <Gold.PLP.ligand.clash>
0.0000

> <Gold.PLP.ligand.torsion>
1.9765

> <Gold.PLP.Chemscore.Hbond>
2.9443

> <Gold.PLP.Chemscore.CHOScore>
1.0000

> <Gold.PLP.Chemscore.Metal>
0.0000

> <Gold.Chemscore.Hbonds>
donor molecule, donor type, donor heavy atom, donor atom, acceptor molecule, acceptor atom, score
      L1  H     3    58       P1 10747  1.00
      L1  H    20    45       P1  7957  1.00
      P1  H  7989  7998       L1    20  0.05
      P1  H  8011  8017       L1    20  0.85
      L1  C    16    42       P1  7957  1.00

> <Gold.PLP.Chemscore.Internal.Correction>
0.8833

> <Gold.Rescore>
     Score         DG    S(hbond)    S(metal)    S(lipo)     H(rot)  DE(clash)    DE(int)     intcor
     16.61     -18.49       2.43        0.00      90.77       2.24       0.26       1.62       ----

> <Gold.Chemscore.Fitness>
16.6111

> <Gold.Chemscore.DG>
-18.4916

> <Gold.Chemscore.ZeroCoef>
-5.4800

> <Gold.Chemscore.Hbond>
2.4315

> <Gold.Chemscore.Metal>
0.0000

> <Gold.Chemscore.Lipo>
90.7654

> <Gold.Chemscore.Internal_Hbond>
0.0000

> <Gold.Chemscore.DEClash>
0.2626

> <Gold.Chemscore.DEInternal>
1.6179

> <Gold.Chemscore.Rot>
2.2379

> <Gold.Chemscore.Internal.Correction>
   9.000000E+99

> <Gold.Chemscore.Hbonds>
donor molecule, donor type, donor heavy atom, donor atom, acceptor molecule, acceptor atom, score
      L1  H     3    58       P1 10747  1.00
      L1  H    20    45       P1  7957  0.88
      P1  H  8011  8017       L1    20  0.14

> <Gold.Chemscore.Hbond.Weighted>
-8.1212

> <Gold.Chemscore.Metal.Weighted>
-0.0000

> <Gold.Chemscore.Lipo.Weighted>
-10.6196

> <Gold.Chemscore.Internal_Hbond.Weighted>
0.0000

> <Gold.Chemscore.DEClash.Weighted>
0.2626

> <Gold.Chemscore.DEInternal.Weighted>
1.6179

> <Gold.Chemscore.Rot.Weighted>
5.7291

> <Gold.Chemscore.Internal.Correction.Weighted>
   9.000000E+99

> <Gold.Protein.RotatedTorsions>
[ 6907 6896 6895 6894 ] final  -51.97 input  -60.11 | X-H torsion
[ 7974 7965 7964 7962 ] final   -4.85 input  175.53 | X-H torsion
[ 8008 7997 7996 7995 ] final  108.48 input   59.86 | X-H torsion
[ 10167 10162 10161 10158 ] final   48.70 input  -65.29 | X-H torsion
[ 10718 10713 10712 10709 ] final    1.04 input   66.30 | X-H torsion
[ 10763 10752 10751 10750 ] final   59.63 input  -60.55 | X-H torsion
[ 11005 11000 10999 10996 ] final -101.83 input  -57.11 | X-H torsion

> <Gold.Protein.ActiveResidues>
 VAL166  LYS551  ARG553  GLY616  TRP617  ASP618  TYR619  PRO620  LYS621  CYS622 
 ASP623  PHE694  ASN695  SER759  ASP760  ASP761  ALA762  ILE779  LEU786  VAL792 
 PHE793  MET794  SER795  GLU796  ALA797  LYS798  CYS799  TRP800  GLU811  SER814 

> <Gold.Protein.RotatedAtoms>
  150.8561  134.7901  159.7046 H   0  0  0  0  0  0  0  0  0  0  0  0  # atno 6907 bound_to 6896
  152.4612  134.5176  159.9782 H   0  0  0  0  0  0  0  0  0  0  0  0  # atno 6908 bound_to 6896
  151.5288  133.3415  159.2950 H   0  0  0  0  0  0  0  0  0  0  0  0  # atno 6909 bound_to 6896
  146.2364  140.1934  142.8333 H   0  0  0  0  0  0  0  0  0  0  0  0  # atno 7974 bound_to 7965
  156.1906  140.3075  155.9325 H   0  0  0  0  0  0  0  0  0  0  0  0  # atno 8008 bound_to 7997
  155.3182  140.0454  157.3055 H   0  0  0  0  0  0  0  0  0  0  0  0  # atno 8009 bound_to 7997
  154.5448  140.2273  155.8591 H   0  0  0  0  0  0  0  0  0  0  0  0  # atno 8010 bound_to 7997
  140.2906  144.3050  150.6241 H   0  0  0  0  0  0  0  0  0  0  0  0  # atno 10167 bound_to 10162
  156.8423  130.5525  149.5676 H   0  0  0  0  0  0  0  0  0  0  0  0  # atno 10718 bound_to 10713
  152.9899  135.5565  154.5744 H   0  0  0  0  0  0  0  0  0  0  0  0  # atno 10763 bound_to 10752
  154.5138  135.2804  155.1322 H   0  0  0  0  0  0  0  0  0  0  0  0  # atno 10764 bound_to 10752
  154.2703  135.6364  153.5360 H   0  0  0  0  0  0  0  0  0  0  0  0  # atno 10765 bound_to 10752
  141.1215  133.8509  157.1282 H   0  0  0  0  0  0  0  0  0  0  0  0  # atno 11005 bound_to 11000
  144.9840  140.8485  143.5380 LP  0  0  0  0  0  0  0  0  0  0  0  0  # atno 17320 bound_to 7965
  145.1931  139.2291  143.5232 LP  0  0  0  0  0  0  0  0  0  0  0  0  # atno 17321 bound_to 7965
  140.5735  143.2178  151.7556 LP  0  0  0  0  0  0  0  0  0  0  0  0  # atno 17342 bound_to 10162
  139.4939  144.4182  152.0006 LP  0  0  0  0  0  0  0  0  0  0  0  0  # atno 17343 bound_to 10162
  156.0873  130.5868  150.9671 LP  0  0  0  0  0  0  0  0  0  0  0  0  # atno 17370 bound_to 10713
  157.6348  131.0917  150.8369 LP  0  0  0  0  0  0  0  0  0  0  0  0  # atno 17371 bound_to 10713
  140.0175  134.9960  157.0524 LP  0  0  0  0  0  0  0  0  0  0  0  0  # atno 17394 bound_to 11000
  140.4494  134.1598  155.7180 LP  0  0  0  0  0  0  0  0  0  0  0  0  # atno 17395 bound_to 11000

$$$$
