AV-unprocessed.smi:2775|AV-procd|sdf|10688|dock8
  -GOLD-   2272015133D 1   1.00000     0.00000
 Structure written by MMmdl.
 42 45  0  0  0  0  0  0  0  0  1 V2000
  144.2863  132.1683  151.1917 C   0  0  0  0  0  0  0  0  0  0  0  0
  144.2497  133.5283  151.8633 C   0  0  0  0  0  0  0  0  0  0  0  0
  143.0184  134.0135  152.1337 N   0  0  0  0  0  0  0  0  0  0  0  0
  142.9283  135.2209  152.7275 C   0  0  0  0  0  0  0  0  0  0  0  0
  144.0490  135.9934  153.0862 C   0  0  0  0  0  0  0  0  0  0  0  0
  145.3412  135.4804  152.8203 C   0  0  0  0  0  0  0  0  0  0  0  0
  146.5417  136.1779  153.1289 N   0  0  0  0  0  0  0  0  0  0  0  0
  146.7900  137.0376  154.1363 C   0  0  0  0  0  0  0  0  0  0  0  0
  145.9602  137.4216  154.9574 O   0  0  0  0  0  0  0  0  0  0  0  0
  148.0675  137.4505  154.1938 N   0  0  0  0  0  0  0  0  0  0  0  0
  148.6596  138.3810  155.1650 C   0  0  2  0  0  0  0  0  0  0  0  0
  148.1757  139.8308  155.0206 C   0  0  2  0  0  0  0  0  0  0  0  0
  146.9668  140.4946  154.4675 C   0  0  0  0  0  0  0  0  0  0  0  0
  147.6919  141.6971  153.8120 C   0  0  0  0  0  0  0  0  0  0  0  0
  149.1090  141.4043  153.9071 O   0  0  0  0  0  0  0  0  0  0  0  0
  149.1823  139.9903  153.8928 C   0  0  1  0  0  0  0  0  0  0  0  0
  150.0253  138.9910  154.7030 C   0  0  0  0  0  0  0  0  0  0  0  0
  151.0801  139.4676  155.7152 C   0  0  0  0  0  0  0  0  0  0  0  0
  151.9072  138.2285  155.3590 C   0  0  0  0  0  0  0  0  0  0  0  0
  151.1167  138.1316  154.0500 C   0  0  0  0  0  0  0  0  0  0  0  0
  145.4405  134.2239  152.1779 C   0  0  0  0  0  0  0  0  0  0  0  0
  146.9870  133.5468  151.7895 Cl  0  0  0  0  0  0  0  0  0  0  0  0
  144.8267  131.4541  151.8135 H   0  0  0  0  0  0  0  0  0  0  0  0
  144.7878  132.2343  150.2259 H   0  0  0  0  0  0  0  0  0  0  0  0
  143.2822  131.7763  151.0247 H   0  0  0  0  0  0  0  0  0  0  0  0
  141.9301  135.5864  152.9188 H   0  0  0  0  0  0  0  0  0  0  0  0
  143.8937  136.9584  153.5429 H   0  0  0  0  0  0  0  0  0  0  0  0
  147.3437  135.9127  152.5759 H   0  0  0  0  0  0  0  0  0  0  0  0
  148.6960  137.0816  153.4947 H   0  0  0  0  0  0  0  0  0  0  0  0
  148.6756  138.0131  156.1920 H   0  0  0  0  0  0  0  0  0  0  0  0
  148.4881  140.3683  155.9235 H   0  0  0  0  0  0  0  0  0  0  0  0
  146.4537  139.8760  153.7302 H   0  0  0  0  0  0  0  0  0  0  0  0
  146.2589  140.8005  155.2376 H   0  0  0  0  0  0  0  0  0  0  0  0
  147.3951  141.8060  152.7681 H   0  0  0  0  0  0  0  0  0  0  0  0
  147.4757  142.6341  154.3258 H   0  0  0  0  0  0  0  0  0  0  0  0
  148.8488  139.5823  152.9340 H   0  0  0  0  0  0  0  0  0  0  0  0
  151.5630  140.3981  155.4129 H   0  0  0  0  0  0  0  0  0  0  0  0
  150.7424  139.5055  156.7513 H   0  0  0  0  0  0  0  0  0  0  0  0
  152.9748  138.4124  155.2347 H   0  0  0  0  0  0  0  0  0  0  0  0
  151.7158  137.3890  156.0291 H   0  0  0  0  0  0  0  0  0  0  0  0
  150.8141  137.1199  153.7793 H   0  0  0  0  0  0  0  0  0  0  0  0
  151.6116  138.6398  153.2211 H   0  0  0  0  0  0  0  0  0  0  0  0
  1  2  1  0  0  0  0
  1 23  1  0  0  0  0
  1 24  1  0  0  0  0
  1 25  1  0  0  0  0
  2 21  1  0  0  0  0
  2  3  2  0  0  0  0
  3  4  1  0  0  0  0
  4  5  2  0  0  0  0
  4 26  1  0  0  0  0
  5  6  1  0  0  0  0
  5 27  1  0  0  0  0
  6  7  1  0  0  0  0
  6 21  2  0  0  0  0
  7  8  1  0  0  0  0
  7 28  1  0  0  0  0
  8  9  2  0  0  0  0
  8 10  1  0  0  0  0
 10 11  1  0  0  0  0
 10 29  1  0  0  0  0
 11 17  1  0  0  0  0
 11 12  1  0  0  0  0
 11 30  1  0  0  0  0
 12 16  1  0  0  0  0
 12 13  1  0  0  0  0
 12 31  1  0  0  0  0
 13 14  1  0  0  0  0
 13 32  1  0  0  0  0
 13 33  1  0  0  0  0
 14 15  1  0  0  0  0
 14 34  1  0  0  0  0
 14 35  1  0  0  0  0
 15 16  1  0  0  0  0
 16 17  1  0  0  0  0
 16 36  1  0  0  0  0
 17 20  1  0  0  0  0
 17 18  1  0  0  0  0
 18 19  1  0  0  0  0
 18 37  1  0  0  0  0
 18 38  1  0  0  0  0
 19 20  1  0  0  0  0
 19 39  1  0  0  0  0
 19 40  1  0  0  0  0
 20 41  1  0  0  0  0
 20 42  1  0  0  0  0
 21 22  1  0  0  0  0
M  END
> <s_m_source_file>
AV-unprocessed.smi

> <i_m_source_file_index>
2775

> <i_lp_mmshare_version>
43012

> <i_f3d_flags>
0

> <s_epik_input>
W0NIM11jMW5bY0hdW2NIXWMoYzFDbClbTkhdQyg9TylbTkhdW0NAQEhdMltDQEhdKFtDSDJdW0NIMl1PMylbQ0BASF0zQzI0W0NIMl1bQ0gyXVtDSDJdNA==

> <s_epik_cmdline>
J2VwaWtfcHl0aG9uJywgJy1waCcsICc3LjAnLCAnLXRuJywgJzgnLCAnLW1hJywgJzIwMCcsICctbWV0YWxfYmluZGluZycsICctaW1hZScsICc8aW5maWxlLm1hZT4nLCAnLW9tYWUnLCAnPG91dGZpbGUubWFlPic=

> <r_epik_Ionization_Penalty>
0.01026

> <r_epik_Ionization_Penalty_Charging>
0

> <r_epik_Ionization_Penalty_Neutral>
0.01026

> <r_epik_State_Penalty>
0.00780685

> <r_epik_Charging_Adjusted_Penalty>
0.00780685

> <i_epik_Tot_Q>
0

> <i_epik_Tot_abs_Q>
0

> <r_epik_Metal_State_Penalty>
0.00767411

> <b_epik_Metal_Only>
0

> <s_lp_Force_Field>
OPLS_2005

> <r_lp_Energy>
81.865

> <b_lp_Chiralities_Consistent>
1

> <s_lp_Variant>
AV-unprocessed.smi:2775-1

> <Gold.Version>
5.8.1

> <Gold.Id.Protein>
6NUR|6NUR_protein|mol2

> <Gold.PLP.Fitness>
40.8334

> <Gold.PLP.PLP>
-32.9728

> <Gold.PLP.part.hbond>
-3.7897

> <Gold.PLP.part.metal>
0.0000

> <Gold.PLP.part.buried>
-3.7031

> <Gold.PLP.part.nonpolar>
-26.2619

> <Gold.PLP.part.repulsive>
0.5156

> <Gold.PLP.ligand.clash>
0.0000

> <Gold.PLP.ligand.torsion>
0.3558

> <Gold.PLP.Chemscore.Hbond>
2.7520

> <Gold.PLP.Chemscore.CHOScore>
0.0000

> <Gold.PLP.Chemscore.Metal>
0.0000

> <Gold.Chemscore.Hbonds>
donor molecule, donor type, donor heavy atom, donor atom, acceptor molecule, acceptor atom, score
      L1  H     7    28       P1  7948  1.00
      L1  H    10    29       P1  7948  1.00
      P1  H  8011  8017       L1    15  0.75

> <Gold.PLP.Chemscore.Internal.Correction>
0.3163

> <Gold.Rescore>
     Score         DG    S(hbond)    S(metal)    S(lipo)     H(rot)  DE(clash)    DE(int)     intcor
     19.15     -21.51       2.46        0.00      88.68       1.00       1.37       0.99       ----

> <Gold.Chemscore.Fitness>
19.1499

> <Gold.Chemscore.DG>
-21.5084

> <Gold.Chemscore.ZeroCoef>
-5.4800

> <Gold.Chemscore.Hbond>
2.4588

> <Gold.Chemscore.Metal>
0.0000

> <Gold.Chemscore.Lipo>
88.6838

> <Gold.Chemscore.Internal_Hbond>
0.0000

> <Gold.Chemscore.DEClash>
1.3728

> <Gold.Chemscore.DEInternal>
0.9857

> <Gold.Chemscore.Rot>
1.0000

> <Gold.Chemscore.Internal.Correction>
   9.000000E+99

> <Gold.Chemscore.Hbonds>
donor molecule, donor type, donor heavy atom, donor atom, acceptor molecule, acceptor atom, score
      L1  H     7    28       P1  7948  0.98
      L1  H    10    29       P1  7948  0.95
      P1  H  8011  8017       L1    15  0.18

> <Gold.Chemscore.Hbond.Weighted>
-8.2124

> <Gold.Chemscore.Metal.Weighted>
-0.0000

> <Gold.Chemscore.Lipo.Weighted>
-10.3760

> <Gold.Chemscore.Internal_Hbond.Weighted>
0.0000

> <Gold.Chemscore.DEClash.Weighted>
1.3728

> <Gold.Chemscore.DEInternal.Weighted>
0.9857

> <Gold.Chemscore.Rot.Weighted>
2.5600

> <Gold.Chemscore.Internal.Correction.Weighted>
   9.000000E+99

> <Gold.Protein.RotatedTorsions>
[ 6907 6896 6895 6894 ] final  152.33 input  -60.11 | X-H torsion
[ 7974 7965 7964 7962 ] final  -13.86 input  175.53 | X-H torsion
[ 8008 7997 7996 7995 ] final   73.37 input   59.86 | X-H torsion
[ 10167 10162 10161 10158 ] final -146.12 input  -65.29 | X-H torsion
[ 10718 10713 10712 10709 ] final   17.58 input   66.30 | X-H torsion
[ 10763 10752 10751 10750 ] final -129.49 input  -60.55 | X-H torsion
[ 11005 11000 10999 10996 ] final   -0.88 input  -57.11 | X-H torsion

> <Gold.Protein.ActiveResidues>
 VAL166  LYS551  ARG553  GLY616  TRP617  ASP618  TYR619  PRO620  LYS621  CYS622 
 ASP623  PHE694  ASN695  SER759  ASP760  ASP761  ALA762  ILE779  LEU786  VAL792 
 PHE793  MET794  SER795  GLU796  ALA797  LYS798  CYS799  TRP800  GLU811  SER814 

> <Gold.Protein.RotatedAtoms>
  152.0882  133.4187  159.4531 H   0  0  0  0  0  0  0  0  0  0  0  0  # atno 6907 bound_to 6896
  150.6862  134.2902  159.4673 H   0  0  0  0  0  0  0  0  0  0  0  0  # atno 6908 bound_to 6896
  152.0751  134.9507  160.0625 H   0  0  0  0  0  0  0  0  0  0  0  0  # atno 6909 bound_to 6896
  146.2097  140.3265  142.8395 H   0  0  0  0  0  0  0  0  0  0  0  0  # atno 7974 bound_to 7965
  155.7827  140.3481  155.5306 H   0  0  0  0  0  0  0  0  0  0  0  0  # atno 8008 bound_to 7997
  155.8713  140.0987  157.1569 H   0  0  0  0  0  0  0  0  0  0  0  0  # atno 8009 bound_to 7997
  154.4018  140.1340  156.4069 H   0  0  0  0  0  0  0  0  0  0  0  0  # atno 8010 bound_to 7997
  139.7743  143.8193  152.2629 H   0  0  0  0  0  0  0  0  0  0  0  0  # atno 10167 bound_to 10162
  157.0841  130.6400  149.5833 H   0  0  0  0  0  0  0  0  0  0  0  0  # atno 10718 bound_to 10713
  154.8757  135.3894  154.3928 H   0  0  0  0  0  0  0  0  0  0  0  0  # atno 10763 bound_to 10752
  153.4662  135.7029  153.6026 H   0  0  0  0  0  0  0  0  0  0  0  0  # atno 10764 bound_to 10752
  153.4503  135.3835  155.2248 H   0  0  0  0  0  0  0  0  0  0  0  0  # atno 10765 bound_to 10752
  140.6411  133.9488  155.8327 H   0  0  0  0  0  0  0  0  0  0  0  0  # atno 11005 bound_to 11000
  144.8883  140.7490  143.5943 LP  0  0  0  0  0  0  0  0  0  0  0  0  # atno 17320 bound_to 7965
  145.3186  139.1795  143.4600 LP  0  0  0  0  0  0  0  0  0  0  0  0  # atno 17321 bound_to 7965
  139.8236  144.7285  150.9540 LP  0  0  0  0  0  0  0  0  0  0  0  0  # atno 17342 bound_to 10162
  140.7815  143.4135  151.0954 LP  0  0  0  0  0  0  0  0  0  0  0  0  # atno 17343 bound_to 10162
  155.9915  130.4970  150.7304 LP  0  0  0  0  0  0  0  0  0  0  0  0  # atno 17370 bound_to 10713
  157.4776  131.0899  151.0573 LP  0  0  0  0  0  0  0  0  0  0  0  0  # atno 17371 bound_to 10713
  141.0606  134.0352  157.3664 LP  0  0  0  0  0  0  0  0  0  0  0  0  # atno 17394 bound_to 11000
  139.9080  135.0184  156.7569 LP  0  0  0  0  0  0  0  0  0  0  0  0  # atno 17395 bound_to 11000

$$$$
