AV-unprocessed.smi:573|AV-procd|sdf|2967|dock7
  -GOLD-   2262023473D 1   1.00000     0.00000
 Structure written by MMmdl.
 45 47  0  0  0  0  0  0  0  0  2 V2000
  148.8683  138.9079  154.0987 C   0  0  0  0  0  0  0  0  0  0  0  0
  148.3081  140.3367  154.1589 C   0  0  2  0  0  0  0  0  0  0  0  0
  147.8451  140.6861  152.8723 O   0  0  0  0  0  0  0  0  0  0  0  0
  149.3580  141.3784  154.5868 C   0  0  0  0  0  0  0  0  0  0  0  0
  150.3086  140.8516  155.5556 N   0  0  0  0  0  0  0  0  0  0  0  0
  150.8092  141.6793  156.5676 C   0  0  0  0  0  0  0  0  0  0  0  0
  150.6437  143.0263  156.6575 N   0  3  0  0  0  0  0  0  0  0  0  0
  151.3088  143.4758  157.8017 C   0  0  0  0  0  0  0  0  0  0  0  0
  151.4395  144.7562  158.3305 C   0  0  0  0  0  0  0  0  0  0  0  0
  152.1950  144.8787  159.5150 C   0  0  0  0  0  0  0  0  0  0  0  0
  152.7880  143.7561  160.1284 C   0  0  0  0  0  0  0  0  0  0  0  0
  152.6483  142.4614  159.5870 C   0  0  0  0  0  0  0  0  0  0  0  0
  151.8973  142.3446  158.4174 C   0  0  0  0  0  0  0  0  0  0  0  0
  151.5534  141.2464  157.6174 N   0  0  0  0  0  0  0  0  0  0  0  0
  152.0066  139.8956  157.9806 C   0  0  0  0  0  0  0  0  0  0  0  0
  150.9315  138.8284  157.7165 C   0  0  2  0  0  0  0  0  0  0  0  0
  150.6987  137.9302  158.9463 C   0  0  0  0  0  0  0  0  0  0  0  0
  149.6699  136.8387  158.6304 C   0  0  0  0  0  0  0  0  0  0  0  0
  150.0907  136.0815  157.3664 C   0  0  0  0  0  0  0  0  0  0  0  0
  150.3581  137.0663  156.2172 C   0  0  0  0  0  0  0  0  0  0  0  0
  151.3382  138.0204  156.6134 O   0  0  0  0  0  0  0  0  0  0  0  0
  149.2075  138.5749  155.0801 H   0  0  0  0  0  0  0  0  0  0  0  0
  149.7152  138.8416  153.4148 H   0  0  0  0  0  0  0  0  0  0  0  0
  148.1095  138.2019  153.7594 H   0  0  0  0  0  0  0  0  0  0  0  0
  147.4528  140.3648  154.8349 H   0  0  0  0  0  0  0  0  0  0  0  0
  148.3462  140.2062  152.2304 H   0  0  0  0  0  0  0  0  0  0  0  0
  149.9140  141.7260  153.7155 H   0  0  0  0  0  0  0  0  0  0  0  0
  148.8690  142.2591  155.0053 H   0  0  0  0  0  0  0  0  0  0  0  0
  150.4622  139.8542  155.5984 H   0  0  0  0  0  0  0  0  0  0  0  0
  150.9898  145.6190  157.8611 H   0  0  0  0  0  0  0  0  0  0  0  0
  152.3245  145.8542  159.9609 H   0  0  0  0  0  0  0  0  0  0  0  0
  153.3634  143.8903  161.0331 H   0  0  0  0  0  0  0  0  0  0  0  0
  153.1126  141.6102  160.0627 H   0  0  0  0  0  0  0  0  0  0  0  0
  152.9277  139.6703  157.4429 H   0  0  0  0  0  0  0  0  0  0  0  0
  152.2673  139.9108  159.0394 H   0  0  0  0  0  0  0  0  0  0  0  0
  149.9996  139.3344  157.4568 H   0  0  0  0  0  0  0  0  0  0  0  0
  151.6392  137.4666  159.2469 H   0  0  0  0  0  0  0  0  0  0  0  0
  150.3596  138.5272  159.7936 H   0  0  0  0  0  0  0  0  0  0  0  0
  149.5726  136.1515  159.4715 H   0  0  0  0  0  0  0  0  0  0  0  0
  148.6891  137.2911  158.4787 H   0  0  0  0  0  0  0  0  0  0  0  0
  150.9936  135.5037  157.5683 H   0  0  0  0  0  0  0  0  0  0  0  0
  149.3186  135.3668  157.0799 H   0  0  0  0  0  0  0  0  0  0  0  0
  150.7243  136.5293  155.3421 H   0  0  0  0  0  0  0  0  0  0  0  0
  149.4407  137.5749  155.9173 H   0  0  0  0  0  0  0  0  0  0  0  0
  150.1264  143.5869  155.9928 H   0  0  0  0  0  0  0  0  0  0  0  0
  1  2  1  0  0  0  0
  1 22  1  0  0  0  0
  1 23  1  0  0  0  0
  1 24  1  0  0  0  0
  2  3  1  0  0  0  0
  2  4  1  0  0  0  0
  2 25  1  0  0  0  0
  3 26  1  0  0  0  0
  4  5  1  0  0  0  0
  4 27  1  0  0  0  0
  4 28  1  0  0  0  0
  5  6  1  0  0  0  0
  5 29  1  0  0  0  0
  6 14  1  0  0  0  0
  6  7  2  0  0  0  0
  7  8  1  0  0  0  0
  7 45  1  0  0  0  0
  8 13  2  0  0  0  0
  8  9  1  0  0  0  0
  9 10  2  0  0  0  0
  9 30  1  0  0  0  0
 10 11  1  0  0  0  0
 10 31  1  0  0  0  0
 11 12  2  0  0  0  0
 11 32  1  0  0  0  0
 12 13  1  0  0  0  0
 12 33  1  0  0  0  0
 13 14  1  0  0  0  0
 14 15  1  0  0  0  0
 15 16  1  0  0  0  0
 15 34  1  0  0  0  0
 15 35  1  0  0  0  0
 16 21  1  0  0  0  0
 16 17  1  0  0  0  0
 16 36  1  0  0  0  0
 17 18  1  0  0  0  0
 17 37  1  0  0  0  0
 17 38  1  0  0  0  0
 18 19  1  0  0  0  0
 18 39  1  0  0  0  0
 18 40  1  0  0  0  0
 19 20  1  0  0  0  0
 19 41  1  0  0  0  0
 19 42  1  0  0  0  0
 20 21  1  0  0  0  0
 20 43  1  0  0  0  0
 20 44  1  0  0  0  0
M  CHG  1   7   1
M  END
> <s_m_source_file>
AV-unprocessed.smi

> <i_m_source_file_index>
573

> <i_lp_mmshare_version>
43012

> <i_f3d_flags>
0

> <s_epik_input>
W0NIM11bQ0BIXShbT0hdKVtDSDJdW05IXWMobjEpbihjKGMxMilbY0hdW2NIXVtjSF1bY0hdMilbQ0gyXVtDQEBIXTNbQ0gyXVtDSDJdW0NIMl1bQ0gyXU8z

> <s_epik_cmdline>
J2VwaWtfcHl0aG9uJywgJy1waCcsICc3LjAnLCAnLXRuJywgJzgnLCAnLW1hJywgJzIwMCcsICctbWV0YWxfYmluZGluZycsICctaW1hZScsICc8aW5maWxlLm1hZT4nLCAnLW9tYWUnLCAnPG91dGZpbGUubWFlPic=

> <r_epik_Ionization_Penalty>
0.0692245

> <r_epik_Ionization_Penalty_Charging>
0.0692223

> <r_epik_Ionization_Penalty_Neutral>
2.1869e-06

> <r_epik_State_Penalty>
0.0606215

> <r_epik_Charging_Adjusted_Penalty>
0.129844

> <i_epik_Tot_Q>
1

> <i_epik_Tot_abs_Q>
1

> <r_epik_Metal_State_Penalty>
2.77811

> <b_epik_Metal_Only>
0

> <s_lp_Force_Field>
OPLS_2005

> <r_lp_Energy>
19.8097

> <b_lp_Chiralities_Consistent>
1

> <s_lp_Variant>
AV-unprocessed.smi:573-1

> <Gold.Version>
5.8.1

> <Gold.Id.Protein>
6NUR|6NUR_protein|mol2

> <Gold.PLP.Fitness>
48.5938

> <Gold.PLP.PLP>
-42.4990

> <Gold.PLP.part.hbond>
-2.0000

> <Gold.PLP.part.metal>
0.0000

> <Gold.PLP.part.buried>
-4.8679

> <Gold.PLP.part.nonpolar>
-35.1059

> <Gold.PLP.part.repulsive>
0.1806

> <Gold.PLP.ligand.clash>
0.0000

> <Gold.PLP.ligand.torsion>
1.4573

> <Gold.PLP.Chemscore.Hbond>
3.0000

> <Gold.PLP.Chemscore.CHOScore>
0.0000

> <Gold.PLP.Chemscore.Metal>
0.0000

> <Gold.Chemscore.Hbonds>
donor molecule, donor type, donor heavy atom, donor atom, acceptor molecule, acceptor atom, score
      L1  H     3    26       P1  7957  1.00
      L1  H     7    45       P1  8028  2.00

> <Gold.PLP.Chemscore.Internal.Correction>
0.0095

> <Gold.Rescore>
     Score         DG    S(hbond)    S(metal)    S(lipo)     H(rot)  DE(clash)    DE(int)     intcor
     18.99     -20.32       1.98        0.00     115.71       2.07       0.04       1.29       ----

> <Gold.Chemscore.Fitness>
18.9931

> <Gold.Chemscore.DG>
-20.3172

> <Gold.Chemscore.ZeroCoef>
-5.4800

> <Gold.Chemscore.Hbond>
1.9754

> <Gold.Chemscore.Metal>
0.0000

> <Gold.Chemscore.Lipo>
115.7124

> <Gold.Chemscore.Internal_Hbond>
0.0000

> <Gold.Chemscore.DEClash>
0.0354

> <Gold.Chemscore.DEInternal>
1.2887

> <Gold.Chemscore.Rot>
2.0699

> <Gold.Chemscore.Internal.Correction>
   9.000000E+99

> <Gold.Chemscore.Hbonds>
donor molecule, donor type, donor heavy atom, donor atom, acceptor molecule, acceptor atom, score
      L1  H     3    26       P1  7957  0.97
      L1  H     7    45       P1  8028  0.94

> <Gold.Chemscore.Hbond.Weighted>
-6.5979

> <Gold.Chemscore.Metal.Weighted>
-0.0000

> <Gold.Chemscore.Lipo.Weighted>
-13.5384

> <Gold.Chemscore.Internal_Hbond.Weighted>
0.0000

> <Gold.Chemscore.DEClash.Weighted>
0.0354

> <Gold.Chemscore.DEInternal.Weighted>
1.2887

> <Gold.Chemscore.Rot.Weighted>
5.2991

> <Gold.Chemscore.Internal.Correction.Weighted>
   9.000000E+99

> <Gold.Protein.RotatedTorsions>
[ 6907 6896 6895 6894 ] final  124.47 input  -60.11 | X-H torsion
[ 7974 7965 7964 7962 ] final  174.68 input  175.53 | X-H torsion
[ 8008 7997 7996 7995 ] final  144.47 input   59.86 | X-H torsion
[ 10167 10162 10161 10158 ] final  -85.53 input  -65.29 | X-H torsion
[ 10718 10713 10712 10709 ] final  169.84 input   66.30 | X-H torsion
[ 10763 10752 10751 10750 ] final  -99.24 input  -60.55 | X-H torsion
[ 11005 11000 10999 10996 ] final  -79.74 input  -57.11 | X-H torsion

> <Gold.Protein.ActiveResidues>
 VAL166  LYS551  ARG553  GLY616  TRP617  ASP618  TYR619  PRO620  LYS621  CYS622 
 ASP623  PHE694  ASN695  SER759  ASP760  ASP761  ALA762  ILE779  LEU786  VAL792 
 PHE793  MET794  SER795  GLU796  ALA797  LYS798  CYS799  TRP800  GLU811  SER814 

> <Gold.Protein.RotatedAtoms>
  152.4075  133.6911  159.6368 H   0  0  0  0  0  0  0  0  0  0  0  0  # atno 6907 bound_to 6896
  150.7958  133.8683  159.3260 H   0  0  0  0  0  0  0  0  0  0  0  0  # atno 6908 bound_to 6896
  151.6434  135.1012  160.0197 H   0  0  0  0  0  0  0  0  0  0  0  0  # atno 6909 bound_to 6896
  144.7216  139.9833  143.6439 H   0  0  0  0  0  0  0  0  0  0  0  0  # atno 7974 bound_to 7965
  156.2907  140.2235  156.5058 H   0  0  0  0  0  0  0  0  0  0  0  0  # atno 8008 bound_to 7997
  154.7651  140.0470  157.1027 H   0  0  0  0  0  0  0  0  0  0  0  0  # atno 8009 bound_to 7997
  154.9943  140.3094  155.4896 H   0  0  0  0  0  0  0  0  0  0  0  0  # atno 8010 bound_to 7997
  140.4028  143.2655  151.9120 H   0  0  0  0  0  0  0  0  0  0  0  0  # atno 10167 bound_to 10162
  157.0168  131.0220  151.2786 H   0  0  0  0  0  0  0  0  0  0  0  0  # atno 10718 bound_to 10713
  154.7482  135.4979  153.9241 H   0  0  0  0  0  0  0  0  0  0  0  0  # atno 10763 bound_to 10752
  153.1114  135.6710  153.9501 H   0  0  0  0  0  0  0  0  0  0  0  0  # atno 10764 bound_to 10752
  153.9260  135.3083  155.3426 H   0  0  0  0  0  0  0  0  0  0  0  0  # atno 10765 bound_to 10752
  141.1667  133.7119  156.8167 H   0  0  0  0  0  0  0  0  0  0  0  0  # atno 11005 bound_to 11000
  146.0470  139.3475  143.0662 LP  0  0  0  0  0  0  0  0  0  0  0  0  # atno 17320 bound_to 7965
  145.8263  140.9654  143.0872 LP  0  0  0  0  0  0  0  0  0  0  0  0  # atno 17321 bound_to 7965
  139.4784  144.5616  151.8230 LP  0  0  0  0  0  0  0  0  0  0  0  0  # atno 17342 bound_to 10162
  140.4722  144.1571  150.5919 LP  0  0  0  0  0  0  0  0  0  0  0  0  # atno 17343 bound_to 10162
  157.5279  130.8040  149.7883 LP  0  0  0  0  0  0  0  0  0  0  0  0  # atno 17370 bound_to 10713
  156.0116  130.3831  150.2245 LP  0  0  0  0  0  0  0  0  0  0  0  0  # atno 17371 bound_to 10713
  140.2148  134.8801  157.3314 LP  0  0  0  0  0  0  0  0  0  0  0  0  # atno 17394 bound_to 11000
  140.2049  134.4210  155.7643 LP  0  0  0  0  0  0  0  0  0  0  0  0  # atno 17395 bound_to 11000

$$$$
