AV-unprocessed.smi:34|AV-procd|sdf|234|dock2
  -GOLD-   2262015573D 1   1.00000     0.00000
 Structure written by MMmdl.
 54 58  0  0  0  0  0  0  0  0  2 V2000
  151.4413  139.8407  158.8249 O   0  0  0  0  0  0  0  0  0  0  0  0
  151.9415  140.5940  157.9866 C   0  0  0  0  0  0  0  0  0  0  0  0
  152.4239  140.2717  156.7597 N   0  5  0  0  0  0  0  0  0  0  0  0
  151.7860  139.3589  156.0115 C   0  0  0  0  0  0  0  0  0  0  0  0
  151.1118  139.7344  154.8941 N   0  0  0  0  0  0  0  0  0  0  0  0
  150.4730  138.8228  154.1505 C   0  0  0  0  0  0  0  0  0  0  0  0
  150.3828  137.5016  154.3340 N   0  0  0  0  0  0  0  0  0  0  0  0
  151.0684  137.1129  155.4479 C   0  0  0  0  0  0  0  0  0  0  0  0
  151.7891  137.9723  156.3258 C   0  0  0  0  0  0  0  0  0  0  0  0
  152.3667  137.2462  157.3574 N   0  0  0  0  0  0  0  0  0  0  0  0
  151.9739  136.0068  157.0682 C   0  0  0  0  0  0  0  0  0  0  0  0
  151.2071  135.8402  155.9698 N   0  0  0  0  0  0  0  0  0  0  0  0
  150.6139  134.5861  155.4050 C   0  0  1  0  0  0  0  0  0  0  0  0
  150.9853  133.5124  156.2214 O   0  0  0  0  0  0  0  0  0  0  0  0
  149.8693  133.0927  156.9992 C   0  0  2  0  0  0  0  0  0  0  0  0
  150.0527  131.6404  157.4502 C   0  0  0  0  0  0  0  0  0  0  0  0
  151.1751  131.0875  156.7828 O   0  0  0  0  0  0  0  0  0  0  0  0
  152.4210  131.3798  157.2025 C   0  0  0  0  0  0  0  0  0  0  0  0
  152.6623  132.0618  158.2007 O   0  0  0  0  0  0  0  0  0  0  0  0
  153.4798  130.7905  156.3328 C   0  0  0  0  0  0  0  0  0  0  0  0
  153.1102  129.8958  155.3014 C   0  0  0  0  0  0  0  0  0  0  0  0
  154.0872  129.3228  154.4643 C   0  0  0  0  0  0  0  0  0  0  0  0
  155.4460  129.6378  154.6483 C   0  0  0  0  0  0  0  0  0  0  0  0
  155.8268  130.5270  155.6702 C   0  0  0  0  0  0  0  0  0  0  0  0
  154.8510  131.1014  156.5083 C   0  0  0  0  0  0  0  0  0  0  0  0
  148.7257  133.2880  156.0104 C   0  0  1  0  0  0  0  0  0  0  0  0
  147.5143  133.2569  156.5686 F   0  0  0  0  0  0  0  0  0  0  0  0
  149.0670  134.6252  155.3728 C   0  0  1  0  0  0  0  0  0  0  0  0
  148.5039  135.7014  156.1066 O   0  0  0  0  0  0  0  0  0  0  0  0
  151.9953  142.0696  158.2789 C   0  0  0  0  0  0  0  0  0  0  0  0
  152.7336  142.5372  159.3901 C   0  0  0  0  0  0  0  0  0  0  0  0
  152.8209  143.9162  159.6633 C   0  0  0  0  0  0  0  0  0  0  0  0
  152.1783  144.8437  158.8220 C   0  0  0  0  0  0  0  0  0  0  0  0
  151.4510  144.3913  157.7052 C   0  0  0  0  0  0  0  0  0  0  0  0
  151.3629  143.0124  157.4317 C   0  0  0  0  0  0  0  0  0  0  0  0
  149.9592  139.2087  153.2825 H   0  0  0  0  0  0  0  0  0  0  0  0
  152.2595  135.1749  157.6951 H   0  0  0  0  0  0  0  0  0  0  0  0
  151.0715  134.4799  154.4207 H   0  0  0  0  0  0  0  0  0  0  0  0
  149.7395  133.7551  157.8570 H   0  0  0  0  0  0  0  0  0  0  0  0
  150.2299  131.6025  158.5258 H   0  0  0  0  0  0  0  0  0  0  0  0
  149.1513  131.0620  157.2427 H   0  0  0  0  0  0  0  0  0  0  0  0
  152.0730  129.6386  155.1407 H   0  0  0  0  0  0  0  0  0  0  0  0
  153.7927  128.6409  153.6803 H   0  0  0  0  0  0  0  0  0  0  0  0
  156.1950  129.1981  154.0064 H   0  0  0  0  0  0  0  0  0  0  0  0
  156.8696  130.7697  155.8117 H   0  0  0  0  0  0  0  0  0  0  0  0
  155.1774  131.7805  157.2824 H   0  0  0  0  0  0  0  0  0  0  0  0
  148.7496  132.5023  155.2536 H   0  0  0  0  0  0  0  0  0  0  0  0
  148.7191  134.6816  154.3409 H   0  0  0  0  0  0  0  0  0  0  0  0
  148.2175  136.3638  155.4962 H   0  0  0  0  0  0  0  0  0  0  0  0
  153.2362  141.8382  160.0431 H   0  0  0  0  0  0  0  0  0  0  0  0
  153.3839  144.2617  160.5175 H   0  0  0  0  0  0  0  0  0  0  0  0
  152.2467  145.9012  159.0303 H   0  0  0  0  0  0  0  0  0  0  0  0
  150.9633  145.1016  157.0540 H   0  0  0  0  0  0  0  0  0  0  0  0
  150.8096  142.6867  156.5627 H   0  0  0  0  0  0  0  0  0  0  0  0
  1  2  2  0  0  0  0
  2  3  1  0  0  0  0
  2 30  1  0  0  0  0
  3  4  1  0  0  0  0
  4  9  1  0  0  0  0
  4  5  2  0  0  0  0
  5  6  1  0  0  0  0
  6  7  2  0  0  0  0
  6 36  1  0  0  0  0
  7  8  1  0  0  0  0
  8 12  1  0  0  0  0
  8  9  2  0  0  0  0
  9 10  1  0  0  0  0
 10 11  2  0  0  0  0
 11 12  1  0  0  0  0
 11 37  1  0  0  0  0
 12 13  1  0  0  0  0
 13 28  1  0  0  0  0
 13 14  1  0  0  0  0
 13 38  1  0  0  0  0
 14 15  1  0  0  0  0
 15 16  1  0  0  0  0
 15 26  1  0  0  0  0
 15 39  1  0  0  0  0
 16 17  1  0  0  0  0
 16 40  1  0  0  0  0
 16 41  1  0  0  0  0
 17 18  1  0  0  0  0
 18 19  2  0  0  0  0
 18 20  1  0  0  0  0
 20 25  1  0  0  0  0
 20 21  2  0  0  0  0
 21 22  1  0  0  0  0
 21 42  1  0  0  0  0
 22 23  2  0  0  0  0
 22 43  1  0  0  0  0
 23 24  1  0  0  0  0
 23 44  1  0  0  0  0
 24 25  2  0  0  0  0
 24 45  1  0  0  0  0
 25 46  1  0  0  0  0
 26 27  1  0  0  0  0
 26 28  1  0  0  0  0
 26 47  1  0  0  0  0
 28 29  1  0  0  0  0
 28 48  1  0  0  0  0
 29 49  1  0  0  0  0
 30 35  1  0  0  0  0
 30 31  2  0  0  0  0
 31 32  1  0  0  0  0
 31 50  1  0  0  0  0
 32 33  2  0  0  0  0
 32 51  1  0  0  0  0
 33 34  1  0  0  0  0
 33 52  1  0  0  0  0
 34 35  2  0  0  0  0
 34 53  1  0  0  0  0
 35 54  1  0  0  0  0
M  CHG  1   3  -1
M  END
> <s_m_source_file>
AV-unprocessed.smi

> <i_m_source_file_index>
34

> <i_lp_mmshare_version>
43012

> <i_f3d_flags>
0

> <s_epik_input>
W2NIXTFbY0hdW2NIXVtjSF1bY0hdYzFDKD1PKVtOSF1jKG5bY0hdbjIpYyhjMjMpbltjSF1uM1tDQEBIXTRPW0NASF0oW0NAQEhdKEYpW0NASF00W09IXSlbQ0gyXU9DKD1PKWM1W2NIXVtjSF1bY0hdW2NIXVtjSF01

> <s_epik_cmdline>
J2VwaWtfcHl0aG9uJywgJy1waCcsICc3LjAnLCAnLXRuJywgJzgnLCAnLW1hJywgJzIwMCcsICctbWV0YWxfYmluZGluZycsICctaW1hZScsICc8aW5maWxlLm1hZT4nLCAnLW9tYWUnLCAnPG91dGZpbGUubWFlPic=

> <r_lp_tautomer_probability>
1

> <r_epik_Ionization_Penalty>
4.33227

> <r_epik_Ionization_Penalty_Charging>
3.41027

> <r_epik_Ionization_Penalty_Neutral>
0.922001

> <r_epik_State_Penalty>
3.41358

> <r_epik_Charging_Adjusted_Penalty>
6.82385

> <i_epik_Tot_Q>
-1

> <i_epik_Tot_abs_Q>
1

> <r_epik_Metal_State_Penalty>
0.496292

> <b_epik_Metal_Only>
1

> <s_epik_Chemistry_Notes>
This compound has an ester and may undergo hydrolysis at high or low pH. This compound contains an acetal/aminal-like group ( X-CH(R)-Y where X, Y are N, S, or O) that may be acid/base labile, releasing an aldehyde.

> <s_lp_Force_Field>
OPLS_2005

> <r_lp_Energy>
50.8657

> <b_lp_Chiralities_Consistent>
1

> <s_lp_Variant>
AV-unprocessed.smi:34-20

> <Gold.Version>
5.8.1

> <Gold.Id.Protein>
6NUR|6NUR_protein|mol2

> <Gold.PLP.Fitness>
62.3681

> <Gold.PLP.PLP>
-52.9079

> <Gold.PLP.part.hbond>
-3.0000

> <Gold.PLP.part.metal>
0.0000

> <Gold.PLP.part.buried>
-6.6109

> <Gold.PLP.part.nonpolar>
-45.9283

> <Gold.PLP.part.repulsive>
1.0256

> <Gold.PLP.ligand.clash>
0.1481

> <Gold.PLP.ligand.torsion>
2.8753

> <Gold.PLP.Chemscore.Hbond>
3.8500

> <Gold.PLP.Chemscore.CHOScore>
1.0000

> <Gold.PLP.Chemscore.Metal>
0.0000

> <Gold.Chemscore.Hbonds>
donor molecule, donor type, donor heavy atom, donor atom, acceptor molecule, acceptor atom, score
      P1  H  6896  6907       L1    19  1.00
      P1  H  7989  7998       L1     5  0.90
      P1  H  7997  8009       L1     3  2.00
      L1  C     6    36       P1  7957  1.00

> <Gold.PLP.Chemscore.Internal.Correction>
0.8089

> <Gold.Rescore>
     Score         DG    S(hbond)    S(metal)    S(lipo)     H(rot)  DE(clash)    DE(int)     intcor
     14.18     -19.71       2.09        0.00     120.79       2.69       0.22       5.31       ----

> <Gold.Chemscore.Fitness>
14.1770

> <Gold.Chemscore.DG>
-19.7101

> <Gold.Chemscore.ZeroCoef>
-5.4800

> <Gold.Chemscore.Hbond>
2.0942

> <Gold.Chemscore.Metal>
0.0000

> <Gold.Chemscore.Lipo>
120.7933

> <Gold.Chemscore.Internal_Hbond>
0.0000

> <Gold.Chemscore.DEClash>
0.2190

> <Gold.Chemscore.DEInternal>
5.3141

> <Gold.Chemscore.Rot>
2.6944

> <Gold.Chemscore.Internal.Correction>
   9.000000E+99

> <Gold.Chemscore.Hbonds>
donor molecule, donor type, donor heavy atom, donor atom, acceptor molecule, acceptor atom, score
      P1  H  6896  6907       L1    19  1.00
      P1  H  7989  7998       L1     5  0.18
      P1  H  7997  8009       L1     3  0.70

> <Gold.Chemscore.Hbond.Weighted>
-6.9948

> <Gold.Chemscore.Metal.Weighted>
-0.0000

> <Gold.Chemscore.Lipo.Weighted>
-14.1328

> <Gold.Chemscore.Internal_Hbond.Weighted>
0.0000

> <Gold.Chemscore.DEClash.Weighted>
0.2190

> <Gold.Chemscore.DEInternal.Weighted>
5.3141

> <Gold.Chemscore.Rot.Weighted>
6.8975

> <Gold.Chemscore.Internal.Correction.Weighted>
   9.000000E+99

> <Gold.Protein.RotatedTorsions>
[ 6907 6896 6895 6894 ] final  162.72 input  -60.11 | X-H torsion
[ 7974 7965 7964 7962 ] final -116.39 input  175.53 | X-H torsion
[ 8008 7997 7996 7995 ] final -176.29 input   59.86 | X-H torsion
[ 10167 10162 10161 10158 ] final   71.88 input  -65.29 | X-H torsion
[ 10718 10713 10712 10709 ] final -162.87 input   66.30 | X-H torsion
[ 10763 10752 10751 10750 ] final  177.02 input  -60.55 | X-H torsion
[ 11005 11000 10999 10996 ] final -126.17 input  -57.11 | X-H torsion

> <Gold.Protein.ActiveResidues>
 VAL166  LYS551  ARG553  GLY616  TRP617  ASP618  TYR619  PRO620  LYS621  CYS622 
 ASP623  PHE694  ASN695  SER759  ASP760  ASP761  ALA762  ILE779  LEU786  VAL792 
 PHE793  MET794  SER795  GLU796  ALA797  LYS798  CYS799  TRP800  GLU811  SER814 

> <Gold.Protein.RotatedAtoms>
  151.9361  133.3625  159.3948 H   0  0  0  0  0  0  0  0  0  0  0  0  # atno 6907 bound_to 6896
  150.7007  134.4487  159.5335 H   0  0  0  0  0  0  0  0  0  0  0  0  # atno 6908 bound_to 6896
  152.2136  134.8479  160.0545 H   0  0  0  0  0  0  0  0  0  0  0  0  # atno 6909 bound_to 6896
  145.0973  140.8529  143.3947 H   0  0  0  0  0  0  0  0  0  0  0  0  # atno 7974 bound_to 7965
  155.9931  140.1205  157.0619 H   0  0  0  0  0  0  0  0  0  0  0  0  # atno 8008 bound_to 7997
  154.4218  140.1122  156.5661 H   0  0  0  0  0  0  0  0  0  0  0  0  # atno 8009 bound_to 7997
  155.6316  140.3473  155.4687 H   0  0  0  0  0  0  0  0  0  0  0  0  # atno 8010 bound_to 7997
  140.0413  144.5387  150.7432 H   0  0  0  0  0  0  0  0  0  0  0  0  # atno 10167 bound_to 10162
  156.6166  130.8873  151.2948 H   0  0  0  0  0  0  0  0  0  0  0  0  # atno 10718 bound_to 10713
  154.4889  135.2778  155.1513 H   0  0  0  0  0  0  0  0  0  0  0  0  # atno 10763 bound_to 10752
  154.3192  135.6213  153.5504 H   0  0  0  0  0  0  0  0  0  0  0  0  # atno 10764 bound_to 10752
  152.9885  135.5738  154.5305 H   0  0  0  0  0  0  0  0  0  0  0  0  # atno 10765 bound_to 10752
  140.9703  134.0814  157.3876 H   0  0  0  0  0  0  0  0  0  0  0  0  # atno 11005 bound_to 11000
  145.0996  139.2832  143.5693 LP  0  0  0  0  0  0  0  0  0  0  0  0  # atno 17320 bound_to 7965
  146.3530  140.0559  142.8632 LP  0  0  0  0  0  0  0  0  0  0  0  0  # atno 17321 bound_to 7965
  140.7259  143.2636  151.4122 LP  0  0  0  0  0  0  0  0  0  0  0  0  # atno 17342 bound_to 10162
  139.6012  144.1291  152.2200 LP  0  0  0  0  0  0  0  0  0  0  0  0  # atno 17343 bound_to 10162
  157.7239  130.9596  150.1553 LP  0  0  0  0  0  0  0  0  0  0  0  0  # atno 17370 bound_to 10713
  156.2345  130.3685  149.8406 LP  0  0  0  0  0  0  0  0  0  0  0  0  # atno 17371 bound_to 10713
  139.8910  135.0115  156.6766 LP  0  0  0  0  0  0  0  0  0  0  0  0  # atno 17394 bound_to 11000
  140.7338  133.9036  155.8230 LP  0  0  0  0  0  0  0  0  0  0  0  0  # atno 17395 bound_to 11000

$$$$
