AV-unprocessed.smi:2493|AV-procd|sdf|9819|dock10
  -GOLD-   2272013453D 1   1.00000     0.00000
 Structure written by MMmdl.
 41 42  0  0  0  0  0  0  0  0  1 V2000
  149.8600  140.8760  158.2251 C   0  0  0  0  0  0  0  0  0  0  0  0
  150.8671  141.9659  157.7909 C   0  0  0  0  0  0  0  0  0  0  0  0
  150.9147  142.0333  156.2378 C   0  0  0  0  0  0  0  0  0  0  0  0
  149.5930  142.0704  155.6133 N   0  0  0  0  0  0  0  0  0  0  0  0
  149.1357  141.2106  154.6893 C   0  0  0  0  0  0  0  0  0  0  0  0
  149.7980  140.2748  154.2418 O   0  0  0  0  0  0  0  0  0  0  0  0
  147.7122  141.4479  154.1845 C   0  0  0  0  0  0  0  0  0  0  0  0
  147.2257  140.2882  153.3757 C   0  0  0  0  0  0  0  0  0  0  0  0
  147.1593  138.9527  153.6612 C   0  0  0  0  0  0  0  0  0  0  0  0
  146.6043  138.3726  152.4839 C   0  0  0  0  0  0  0  0  0  0  0  0
  146.3441  139.2677  151.5443 N   0  0  0  0  0  0  0  0  0  0  0  0
  146.7256  140.4329  152.1003 N   0  0  0  0  0  0  0  0  0  0  0  0
  150.3418  143.3271  158.3255 C   0  0  0  0  0  0  0  0  0  0  0  0
  151.3701  144.4696  158.4242 C   0  0  0  0  0  0  0  0  0  0  0  0
  152.0965  144.5024  159.7795 C   0  0  0  0  0  0  0  0  0  0  0  0
  153.1219  143.3781  159.9829 C   0  0  0  0  0  0  0  0  0  0  0  0
  152.5595  141.9568  159.8085 C   0  0  0  0  0  0  0  0  0  0  0  0
  152.2774  141.6022  158.3366 C   0  0  0  0  0  0  0  0  0  0  0  0
  146.6449  141.3086  151.6031 H   0  0  0  0  0  0  0  0  0  0  0  0
  148.8678  141.0699  157.8157 H   0  0  0  0  0  0  0  0  0  0  0  0
  149.7611  140.8295  159.3099 H   0  0  0  0  0  0  0  0  0  0  0  0
  150.1606  139.8825  157.8928 H   0  0  0  0  0  0  0  0  0  0  0  0
  151.5143  142.8850  155.9116 H   0  0  0  0  0  0  0  0  0  0  0  0
  151.4236  141.1536  155.8437 H   0  0  0  0  0  0  0  0  0  0  0  0
  148.9725  142.8071  155.9161 H   0  0  0  0  0  0  0  0  0  0  0  0
  147.0522  141.6155  155.0364 H   0  0  0  0  0  0  0  0  0  0  0  0
  147.6847  142.3600  153.5865 H   0  0  0  0  0  0  0  0  0  0  0  0
  147.4637  138.4616  154.5736 H   0  0  0  0  0  0  0  0  0  0  0  0
  146.3847  137.3336  152.2865 H   0  0  0  0  0  0  0  0  0  0  0  0
  149.5186  143.6568  157.6900 H   0  0  0  0  0  0  0  0  0  0  0  0
  149.8843  143.1933  159.3069 H   0  0  0  0  0  0  0  0  0  0  0  0
  152.0817  144.4426  157.5988 H   0  0  0  0  0  0  0  0  0  0  0  0
  150.8328  145.4129  158.3187 H   0  0  0  0  0  0  0  0  0  0  0  0
  152.6144  145.4571  159.8753 H   0  0  0  0  0  0  0  0  0  0  0  0
  151.3658  144.4827  160.5890 H   0  0  0  0  0  0  0  0  0  0  0  0
  153.9655  143.5254  159.3077 H   0  0  0  0  0  0  0  0  0  0  0  0
  153.5324  143.4700  160.9888 H   0  0  0  0  0  0  0  0  0  0  0  0
  153.3120  141.2609  160.1811 H   0  0  0  0  0  0  0  0  0  0  0  0
  151.6801  141.8014  160.4336 H   0  0  0  0  0  0  0  0  0  0  0  0
  152.4363  140.5304  158.2086 H   0  0  0  0  0  0  0  0  0  0  0  0
  153.0460  142.0667  157.7173 H   0  0  0  0  0  0  0  0  0  0  0  0
  1  2  1  0  0  0  0
  1 20  1  0  0  0  0
  1 21  1  0  0  0  0
  1 22  1  0  0  0  0
  2 18  1  0  0  0  0
  2  3  1  0  0  0  0
  2 13  1  0  0  0  0
  3  4  1  0  0  0  0
  3 23  1  0  0  0  0
  3 24  1  0  0  0  0
  4  5  1  0  0  0  0
  4 25  1  0  0  0  0
  5  6  2  0  0  0  0
  5  7  1  0  0  0  0
  7  8  1  0  0  0  0
  7 26  1  0  0  0  0
  7 27  1  0  0  0  0
  8 12  1  0  0  0  0
  8  9  2  0  0  0  0
  9 10  1  0  0  0  0
  9 28  1  0  0  0  0
 10 11  2  0  0  0  0
 10 29  1  0  0  0  0
 11 12  1  0  0  0  0
 12 19  1  0  0  0  0
 13 14  1  0  0  0  0
 13 30  1  0  0  0  0
 13 31  1  0  0  0  0
 14 15  1  0  0  0  0
 14 32  1  0  0  0  0
 14 33  1  0  0  0  0
 15 16  1  0  0  0  0
 15 34  1  0  0  0  0
 15 35  1  0  0  0  0
 16 17  1  0  0  0  0
 16 36  1  0  0  0  0
 16 37  1  0  0  0  0
 17 18  1  0  0  0  0
 17 38  1  0  0  0  0
 17 39  1  0  0  0  0
 18 40  1  0  0  0  0
 18 41  1  0  0  0  0
M  END
> <s_m_source_file>
AV-unprocessed.smi

> <i_m_source_file_index>
2493

> <i_lp_mmshare_version>
43012

> <i_f3d_flags>
0

> <s_epik_input>
W0NIMl0xW0NIMl1bQ0gyXVtDSDJdW0NIMl1bQ0gyXUMxKFtDSDNdKVtDSDJdW05IXUMoPU8pW0NIMl1jMltjSF1bY0hdbltuSF0y

> <s_epik_cmdline>
J2VwaWtfcHl0aG9uJywgJy1waCcsICc3LjAnLCAnLXRuJywgJzgnLCAnLW1hJywgJzIwMCcsICctbWV0YWxfYmluZGluZycsICctaW1hZScsICc8aW5maWxlLm1hZT4nLCAnLW9tYWUnLCAnPG91dGZpbGUubWFlPic=

> <r_lp_tautomer_probability>
0.5

> <r_epik_Ionization_Penalty>
2.55018e-05

> <r_epik_Ionization_Penalty_Charging>
0

> <r_epik_Ionization_Penalty_Neutral>
2.55018e-05

> <r_epik_State_Penalty>
0.41068

> <r_epik_Charging_Adjusted_Penalty>
0.41068

> <i_epik_Tot_Q>
0

> <i_epik_Tot_abs_Q>
0

> <r_epik_Metal_State_Penalty>
0.410675

> <b_epik_Metal_Only>
0

> <s_lp_Force_Field>
OPLS_2005

> <r_lp_Energy>
19.8643

> <b_lp_Chiralities_Consistent>
1

> <s_lp_Variant>
AV-unprocessed.smi:2493-1

> <Gold.Version>
5.8.1

> <Gold.Id.Protein>
6NUR|6NUR_protein|mol2

> <Gold.PLP.Fitness>
46.1523

> <Gold.PLP.PLP>
-40.9418

> <Gold.PLP.part.hbond>
-3.4004

> <Gold.PLP.part.metal>
0.0000

> <Gold.PLP.part.buried>
-4.6315

> <Gold.PLP.part.nonpolar>
-33.7824

> <Gold.PLP.part.repulsive>
1.2303

> <Gold.PLP.ligand.clash>
0.0000

> <Gold.PLP.ligand.torsion>
0.2679

> <Gold.PLP.Chemscore.Hbond>
1.6160

> <Gold.PLP.Chemscore.CHOScore>
0.2970

> <Gold.PLP.Chemscore.Metal>
0.0000

> <Gold.Chemscore.Hbonds>
donor molecule, donor type, donor heavy atom, donor atom, acceptor molecule, acceptor atom, score
      L1  H     4    25       P1  8028  0.70
      P1  H  7989  7998       L1     6  0.80
      L1  C    10    29       P1  7948  0.14

> <Gold.PLP.Chemscore.Internal.Correction>
0.0074

> <Gold.Rescore>
     Score         DG    S(hbond)    S(metal)    S(lipo)     H(rot)  DE(clash)    DE(int)     intcor
     18.76     -19.31       1.59        0.00     109.20       1.66       0.25       0.30       ----

> <Gold.Chemscore.Fitness>
18.7565

> <Gold.Chemscore.DG>
-19.3077

> <Gold.Chemscore.ZeroCoef>
-5.4800

> <Gold.Chemscore.Hbond>
1.5866

> <Gold.Chemscore.Metal>
0.0000

> <Gold.Chemscore.Lipo>
109.1969

> <Gold.Chemscore.Internal_Hbond>
0.0000

> <Gold.Chemscore.DEClash>
0.2469

> <Gold.Chemscore.DEInternal>
0.3042

> <Gold.Chemscore.Rot>
1.6592

> <Gold.Chemscore.Internal.Correction>
   9.000000E+99

> <Gold.Chemscore.Hbonds>
donor molecule, donor type, donor heavy atom, donor atom, acceptor molecule, acceptor atom, score
      L1  H     4    25       P1  8028  0.72
      P1  H  7989  7998       L1     6  0.64

> <Gold.Chemscore.Hbond.Weighted>
-5.2992

> <Gold.Chemscore.Metal.Weighted>
-0.0000

> <Gold.Chemscore.Lipo.Weighted>
-12.7760

> <Gold.Chemscore.Internal_Hbond.Weighted>
0.0000

> <Gold.Chemscore.DEClash.Weighted>
0.2469

> <Gold.Chemscore.DEInternal.Weighted>
0.3042

> <Gold.Chemscore.Rot.Weighted>
4.2475

> <Gold.Chemscore.Internal.Correction.Weighted>
   9.000000E+99

> <Gold.Protein.RotatedTorsions>
[ 6907 6896 6895 6894 ] final  -14.28 input  -60.11 | X-H torsion
[ 7974 7965 7964 7962 ] final -166.42 input  175.53 | X-H torsion
[ 8008 7997 7996 7995 ] final   49.90 input   59.86 | X-H torsion
[ 10167 10162 10161 10158 ] final   67.73 input  -65.29 | X-H torsion
[ 10718 10713 10712 10709 ] final  141.33 input   66.30 | X-H torsion
[ 10763 10752 10751 10750 ] final  100.16 input  -60.55 | X-H torsion
[ 11005 11000 10999 10996 ] final  -12.33 input  -57.11 | X-H torsion

> <Gold.Protein.ActiveResidues>
 VAL166  LYS551  ARG553  GLY616  TRP617  ASP618  TYR619  PRO620  LYS621  CYS622 
 ASP623  PHE694  ASN695  SER759  ASP760  ASP761  ALA762  ILE779  LEU786  VAL792 
 PHE793  MET794  SER795  GLU796  ALA797  LYS798  CYS799  TRP800  GLU811  SER814 

> <Gold.Protein.RotatedAtoms>
  151.3418  135.0865  159.9373 H   0  0  0  0  0  0  0  0  0  0  0  0  # atno 6907 bound_to 6896
  152.5209  133.9439  159.7650 H   0  0  0  0  0  0  0  0  0  0  0  0  # atno 6908 bound_to 6896
  150.9798  133.6204  159.2754 H   0  0  0  0  0  0  0  0  0  0  0  0  # atno 6909 bound_to 6896
  144.7246  140.2669  143.6256 H   0  0  0  0  0  0  0  0  0  0  0  0  # atno 7974 bound_to 7965
  155.4099  140.3442  155.4263 H   0  0  0  0  0  0  0  0  0  0  0  0  # atno 8008 bound_to 7997
  156.1455  140.1555  156.8886 H   0  0  0  0  0  0  0  0  0  0  0  0  # atno 8009 bound_to 7997
  154.5007  140.0815  156.7772 H   0  0  0  0  0  0  0  0  0  0  0  0  # atno 8010 bound_to 7997
  140.0863  144.5027  150.7128 H   0  0  0  0  0  0  0  0  0  0  0  0  # atno 10167 bound_to 10162
  157.3932  131.1007  151.0626 H   0  0  0  0  0  0  0  0  0  0  0  0  # atno 10718 bound_to 10713
  153.3104  135.4088  155.1331 H   0  0  0  0  0  0  0  0  0  0  0  0  # atno 10763 bound_to 10752
  154.8574  135.3563  154.5731 H   0  0  0  0  0  0  0  0  0  0  0  0  # atno 10764 bound_to 10752
  153.6160  135.7066  153.5387 H   0  0  0  0  0  0  0  0  0  0  0  0  # atno 10765 bound_to 10752
  140.7646  133.8487  155.9154 H   0  0  0  0  0  0  0  0  0  0  0  0  # atno 11005 bound_to 11000
  145.8081  139.1991  143.2009 LP  0  0  0  0  0  0  0  0  0  0  0  0  # atno 17320 bound_to 7965
  146.0620  140.7961  142.9730 LP  0  0  0  0  0  0  0  0  0  0  0  0  # atno 17321 bound_to 7965
  140.7051  143.2462  151.4749 LP  0  0  0  0  0  0  0  0  0  0  0  0  # atno 17342 bound_to 10162
  139.5750  144.1840  152.1890 LP  0  0  0  0  0  0  0  0  0  0  0  0  # atno 17343 bound_to 10162
  157.1652  130.6243  149.5623 LP  0  0  0  0  0  0  0  0  0  0  0  0  # atno 17370 bound_to 10713
  155.9803  130.4804  150.6768 LP  0  0  0  0  0  0  0  0  0  0  0  0  # atno 17371 bound_to 10713
  140.9631  134.1630  157.4638 LP  0  0  0  0  0  0  0  0  0  0  0  0  # atno 17394 bound_to 11000
  139.8765  134.9952  156.5730 LP  0  0  0  0  0  0  0  0  0  0  0  0  # atno 17395 bound_to 11000

$$$$
