AV-unprocessed.smi:623|AV-procd|sdf|3095|dock2
  -GOLD-   22720 0 13D 1   1.00000     0.00000
 Structure written by MMmdl.
 44 46  0  0  0  0  0  0  0  0  2 V2000
  147.3837  132.9081  161.9788 C   0  0  0  0  0  0  0  0  0  0  0  0
  146.3655  134.0549  161.7246 C   0  0  0  0  0  0  0  0  0  0  0  0
  144.9827  133.4798  162.1426 C   0  0  0  0  0  0  0  0  0  0  0  0
  146.7258  135.3875  162.4110 C   0  0  2  0  0  0  0  0  0  0  0  0
  145.6491  136.3677  161.8939 C   0  0  0  0  0  0  0  0  0  0  0  0
  145.4139  135.8772  160.4515 C   0  0  0  0  0  0  0  0  0  0  0  0
  146.4305  134.7096  160.3173 C   0  0  2  0  0  0  0  0  0  0  0  0
  146.1223  133.7754  159.1344 C   0  0  0  0  0  0  0  0  0  0  0  0
  147.8711  135.3149  160.2844 C   0  0  1  0  0  0  0  0  0  0  0  0
  148.0435  136.4245  159.3467 N   0  0  0  0  0  0  0  0  0  0  0  0
  149.1803  136.7346  158.7065 C   0  0  0  0  0  0  0  0  0  0  0  0
  150.2245  136.0934  158.8327 O   0  0  0  0  0  0  0  0  0  0  0  0
  149.1083  137.9356  157.7542 C   0  0  0  0  0  0  0  0  0  0  0  0
  150.3088  138.0750  156.9145 N   0  0  0  0  0  0  0  0  0  0  0  0
  151.1525  139.1735  157.1563 C   0  0  0  0  0  0  0  0  0  0  0  0
  152.2697  139.3836  156.4343 C   0  0  0  0  0  0  0  0  0  0  0  0
  152.5969  138.4349  155.3772 C   0  0  0  0  0  0  0  0  0  0  0  0
  153.6159  138.6082  154.7114 O   0  0  0  0  0  0  0  0  0  0  0  0
  151.7440  137.3877  155.1778 N   0  5  0  0  0  0  0  0  0  0  0  0
  150.6095  137.1880  155.9183 C   0  0  0  0  0  0  0  0  0  0  0  0
  149.8515  136.2376  155.7200 O   0  0  0  0  0  0  0  0  0  0  0  0
  148.0585  135.7913  161.7432 C   0  0  0  0  0  0  0  0  0  0  0  0
  147.3682  132.6084  163.0271 H   0  0  0  0  0  0  0  0  0  0  0  0
  148.4190  133.1460  161.7448 H   0  0  0  0  0  0  0  0  0  0  0  0
  147.1281  132.0266  161.3901 H   0  0  0  0  0  0  0  0  0  0  0  0
  144.1444  134.1646  162.0372 H   0  0  0  0  0  0  0  0  0  0  0  0
  144.9969  133.1738  163.1891 H   0  0  0  0  0  0  0  0  0  0  0  0
  144.7370  132.5947  161.5553 H   0  0  0  0  0  0  0  0  0  0  0  0
  146.7838  135.3451  163.4991 H   0  0  0  0  0  0  0  0  0  0  0  0
  144.7351  136.3100  162.4856 H   0  0  0  0  0  0  0  0  0  0  0  0
  145.9854  137.4046  161.9247 H   0  0  0  0  0  0  0  0  0  0  0  0
  144.3887  135.5301  160.3217 H   0  0  0  0  0  0  0  0  0  0  0  0
  145.5513  136.6703  159.7170 H   0  0  0  0  0  0  0  0  0  0  0  0
  146.1414  134.3191  158.1900 H   0  0  0  0  0  0  0  0  0  0  0  0
  145.1346  133.3245  159.2299 H   0  0  0  0  0  0  0  0  0  0  0  0
  146.8517  132.9684  159.0647 H   0  0  0  0  0  0  0  0  0  0  0  0
  148.6099  134.5442  160.0587 H   0  0  0  0  0  0  0  0  0  0  0  0
  147.2354  137.0054  159.1771 H   0  0  0  0  0  0  0  0  0  0  0  0
  148.2198  137.8204  157.1321 H   0  0  0  0  0  0  0  0  0  0  0  0
  148.9414  138.8516  158.3242 H   0  0  0  0  0  0  0  0  0  0  0  0
  150.8346  139.8313  157.9519 H   0  0  0  0  0  0  0  0  0  0  0  0
  152.9056  140.2341  156.6302 H   0  0  0  0  0  0  0  0  0  0  0  0
  148.2448  136.8635  161.8233 H   0  0  0  0  0  0  0  0  0  0  0  0
  148.9071  135.2930  162.2125 H   0  0  0  0  0  0  0  0  0  0  0  0
  1  2  1  0  0  0  0
  1 23  1  0  0  0  0
  1 24  1  0  0  0  0
  1 25  1  0  0  0  0
  2  7  1  0  0  0  0
  2  3  1  0  0  0  0
  2  4  1  0  0  0  0
  3 26  1  0  0  0  0
  3 27  1  0  0  0  0
  3 28  1  0  0  0  0
  4 22  1  0  0  0  0
  4  5  1  0  0  0  0
  4 29  1  0  0  0  0
  5  6  1  0  0  0  0
  5 30  1  0  0  0  0
  5 31  1  0  0  0  0
  6  7  1  0  0  0  0
  6 32  1  0  0  0  0
  6 33  1  0  0  0  0
  7  8  1  0  0  0  0
  7  9  1  0  0  0  0
  8 34  1  0  0  0  0
  8 35  1  0  0  0  0
  8 36  1  0  0  0  0
  9 10  1  0  0  0  0
  9 22  1  0  0  0  0
  9 37  1  0  0  0  0
 10 11  1  0  0  0  0
 10 38  1  0  0  0  0
 11 12  2  0  0  0  0
 11 13  1  0  0  0  0
 13 14  1  0  0  0  0
 13 39  1  0  0  0  0
 13 40  1  0  0  0  0
 14 20  1  0  0  0  0
 14 15  1  0  0  0  0
 15 16  2  0  0  0  0
 15 41  1  0  0  0  0
 16 17  1  0  0  0  0
 16 42  1  0  0  0  0
 17 18  2  0  0  0  0
 17 19  1  0  0  0  0
 19 20  1  0  0  0  0
 20 21  2  0  0  0  0
 22 43  1  0  0  0  0
 22 44  1  0  0  0  0
M  CHG  1  19  -1
M  END
> <s_m_source_file>
AV-unprocessed.smi

> <i_m_source_file_index>
623

> <i_lp_mmshare_version>
43012

> <i_f3d_flags>
0

> <s_epik_input>
W0NIM11bQ0BdMTJDKFtDSDNdKShbQ0gzXSlbQ0BIXShbQ0gyXVtDSDJdMSlbQ0gyXVtDQEBIXTJbTkhdQyg9TylbQ0gyXW4zW2NIXVtjSF1jKD1PKVtuSF1jMz1P

> <s_epik_cmdline>
J2VwaWtfcHl0aG9uJywgJy1waCcsICc3LjAnLCAnLXRuJywgJzgnLCAnLW1hJywgJzIwMCcsICctbWV0YWxfYmluZGluZycsICctaW1hZScsICc8aW5maWxlLm1hZT4nLCAnLW9tYWUnLCAnPG91dGZpbGUubWFlPic=

> <r_lp_tautomer_probability>
0.999537

> <r_epik_Ionization_Penalty>
3.12624

> <r_epik_Ionization_Penalty_Charging>
3.01273e-08

> <r_epik_Ionization_Penalty_Neutral>
3.12624

> <r_epik_State_Penalty>
3.12534

> <r_epik_Charging_Adjusted_Penalty>
3.12534

> <i_epik_Tot_Q>
-1

> <i_epik_Tot_abs_Q>
1

> <r_epik_Metal_State_Penalty>
0.46406

> <b_epik_Metal_Only>
1

> <s_lp_Force_Field>
OPLS_2005

> <r_lp_Energy>
65.0016

> <b_lp_Chiralities_Consistent>
1

> <s_lp_Variant>
AV-unprocessed.smi:623-5

> <Gold.Version>
5.8.1

> <Gold.Id.Protein>
6NUR|6NUR_protein|mol2

> <Gold.PLP.Fitness>
42.5589

> <Gold.PLP.PLP>
-32.3772

> <Gold.PLP.part.hbond>
-3.0000

> <Gold.PLP.part.metal>
0.0000

> <Gold.PLP.part.buried>
-5.3621

> <Gold.PLP.part.nonpolar>
-25.0858

> <Gold.PLP.part.repulsive>
0.2607

> <Gold.PLP.ligand.clash>
0.0000

> <Gold.PLP.ligand.torsion>
0.5208

> <Gold.PLP.Chemscore.Hbond>
3.7360

> <Gold.PLP.Chemscore.CHOScore>
0.0000

> <Gold.PLP.Chemscore.Metal>
0.0000

> <Gold.Chemscore.Hbonds>
donor molecule, donor type, donor heavy atom, donor atom, acceptor molecule, acceptor atom, score
      P1  H  6896  6909       L1    12  1.00
      P1  H  7997  8009       L1    18  0.74
      P1  H 10752 10763       L1    19  0.92

> <Gold.PLP.Chemscore.Internal.Correction>
0.0152

> <Gold.Rescore>
     Score         DG    S(hbond)    S(metal)    S(lipo)     H(rot)  DE(clash)    DE(int)     intcor
     17.66     -18.18       2.39        0.00      75.99       1.63       0.01       0.51       ----

> <Gold.Chemscore.Fitness>
17.6550

> <Gold.Chemscore.DG>
-18.1782

> <Gold.Chemscore.ZeroCoef>
-5.4800

> <Gold.Chemscore.Hbond>
2.3908

> <Gold.Chemscore.Metal>
0.0000

> <Gold.Chemscore.Lipo>
75.9940

> <Gold.Chemscore.Internal_Hbond>
0.0000

> <Gold.Chemscore.DEClash>
0.0149

> <Gold.Chemscore.DEInternal>
0.5083

> <Gold.Chemscore.Rot>
1.6322

> <Gold.Chemscore.Internal.Correction>
   9.000000E+99

> <Gold.Chemscore.Hbonds>
donor molecule, donor type, donor heavy atom, donor atom, acceptor molecule, acceptor atom, score
      P1  H  6896  6909       L1    12  0.97
      P1  H  7997  8009       L1    18  0.31
      P1  H 10752 10763       L1    19  0.27

> <Gold.Chemscore.Hbond.Weighted>
-7.9852

> <Gold.Chemscore.Metal.Weighted>
-0.0000

> <Gold.Chemscore.Lipo.Weighted>
-8.8913

> <Gold.Chemscore.Internal_Hbond.Weighted>
0.0000

> <Gold.Chemscore.DEClash.Weighted>
0.0149

> <Gold.Chemscore.DEInternal.Weighted>
0.5083

> <Gold.Chemscore.Rot.Weighted>
4.1783

> <Gold.Chemscore.Internal.Correction.Weighted>
   9.000000E+99

> <Gold.Protein.RotatedTorsions>
[ 6907 6896 6895 6894 ] final   66.82 input  -60.11 | X-H torsion
[ 7974 7965 7964 7962 ] final   -1.72 input  175.53 | X-H torsion
[ 8008 7997 7996 7995 ] final -121.67 input   59.86 | X-H torsion
[ 10167 10162 10161 10158 ] final -167.46 input  -65.29 | X-H torsion
[ 10718 10713 10712 10709 ] final -163.50 input   66.30 | X-H torsion
[ 10763 10752 10751 10750 ] final   68.03 input  -60.55 | X-H torsion
[ 11005 11000 10999 10996 ] final -147.98 input  -57.11 | X-H torsion

> <Gold.Protein.ActiveResidues>
 VAL166  LYS551  ARG553  GLY616  TRP617  ASP618  TYR619  PRO620  LYS621  CYS622 
 ASP623  PHE694  ASN695  SER759  ASP760  ASP761  ALA762  ILE779  LEU786  VAL792 
 PHE793  MET794  SER795  GLU796  ALA797  LYS798  CYS799  TRP800  GLU811  SER814 

> <Gold.Protein.RotatedAtoms>
  152.4509  134.5396  159.9834 H   0  0  0  0  0  0  0  0  0  0  0  0  # atno 6907 bound_to 6896
  151.5469  133.3418  159.2954 H   0  0  0  0  0  0  0  0  0  0  0  0  # atno 6908 bound_to 6896
  150.8437  134.7770  159.7016 H   0  0  0  0  0  0  0  0  0  0  0  0  # atno 6909 bound_to 6896
  146.2414  140.1462  142.8334 H   0  0  0  0  0  0  0  0  0  0  0  0  # atno 7974 bound_to 7965
  155.1517  140.0404  157.2822 H   0  0  0  0  0  0  0  0  0  0  0  0  # atno 8008 bound_to 7997
  154.6399  140.2544  155.7307 H   0  0  0  0  0  0  0  0  0  0  0  0  # atno 8009 bound_to 7997
  156.2527  140.2858  156.0788 H   0  0  0  0  0  0  0  0  0  0  0  0  # atno 8010 bound_to 7997
  139.6048  144.0935  152.1781 H   0  0  0  0  0  0  0  0  0  0  0  0  # atno 10167 bound_to 10162
  156.6256  130.8908  151.2967 H   0  0  0  0  0  0  0  0  0  0  0  0  # atno 10718 bound_to 10713
  153.0215  135.5262  154.7072 H   0  0  0  0  0  0  0  0  0  0  0  0  # atno 10763 bound_to 10752
  154.6164  135.2884  155.0377 H   0  0  0  0  0  0  0  0  0  0  0  0  # atno 10764 bound_to 10752
  154.1379  135.6582  153.4988 H   0  0  0  0  0  0  0  0  0  0  0  0  # atno 10765 bound_to 10752
  140.7661  134.3243  157.5088 H   0  0  0  0  0  0  0  0  0  0  0  0  # atno 11005 bound_to 11000
  145.0205  140.8790  143.5169 LP  0  0  0  0  0  0  0  0  0  0  0  0  # atno 17320 bound_to 7965
  145.1510  139.2514  143.5441 LP  0  0  0  0  0  0  0  0  0  0  0  0  # atno 17321 bound_to 7965
  140.0540  144.5910  150.7314 LP  0  0  0  0  0  0  0  0  0  0  0  0  # atno 17342 bound_to 10162
  140.7277  143.2654  151.4064 LP  0  0  0  0  0  0  0  0  0  0  0  0  # atno 17343 bound_to 10162
  157.7215  130.9565  150.1458 LP  0  0  0  0  0  0  0  0  0  0  0  0  # atno 17370 bound_to 10713
  156.2276  130.3679  149.8482 LP  0  0  0  0  0  0  0  0  0  0  0  0  # atno 17371 bound_to 10713
  139.8763  134.9232  156.3318 LP  0  0  0  0  0  0  0  0  0  0  0  0  # atno 17394 bound_to 11000
  140.9618  133.7383  156.0412 LP  0  0  0  0  0  0  0  0  0  0  0  0  # atno 17395 bound_to 11000

$$$$
