AV-unprocessed.smi:2583|AV-procd|sdf|10139|dock1
  -GOLD-   2272014153D 1   1.00000     0.00000
 Structure written by MMmdl.
 54 56  0  0  0  0  0  0  0  0  2 V2000
  153.4996  141.0879  160.3096 C   0  0  0  0  0  0  0  0  0  0  0  0
  152.8262  142.2748  159.6531 C   0  0  0  0  0  0  0  0  0  0  0  0
  153.0563  143.5885  160.1104 C   0  0  0  0  0  0  0  0  0  0  0  0
  152.4829  144.6764  159.5547 N   0  0  0  0  0  0  0  0  0  0  0  0
  151.6412  144.4907  158.5151 C   0  0  0  0  0  0  0  0  0  0  0  0
  151.3289  143.2147  157.9846 C   0  0  0  0  0  0  0  0  0  0  0  0
  150.4639  143.0019  156.8783 N   0  0  0  0  0  0  0  0  0  0  0  0
  150.1666  141.8440  156.2646 C   0  0  0  0  0  0  0  0  0  0  0  0
  150.6435  140.7453  156.5483 O   0  0  0  0  0  0  0  0  0  0  0  0
  149.2858  142.0348  155.2722 N   0  0  0  0  0  0  0  0  0  0  0  0
  148.7696  140.9893  154.3940 C   0  0  0  0  0  0  0  0  0  0  0  0
  147.4479  141.4372  153.7655 C   0  0  0  0  0  0  0  0  0  0  0  0
  146.8215  140.3113  152.9243 C   0  0  0  0  0  0  0  0  0  0  0  0
  146.5611  139.1012  153.7239 N   0  0  0  0  0  0  0  0  0  0  0  0
  145.9046  138.0458  152.9187 C   0  0  2  0  0  0  0  0  0  0  0  0
  146.0232  136.6485  153.5876 C   0  0  0  0  0  0  0  0  0  0  0  0
  145.4553  135.5190  152.7134 C   0  0  0  0  0  0  0  0  0  0  0  0
  146.1087  135.4899  151.3863 N   0  3  1  0  0  0  0  0  0  0  0  0
  145.6761  134.3364  150.5682 C   0  0  0  0  0  0  0  0  0  0  0  0
  145.9396  136.7786  150.6794 C   0  0  0  0  0  0  0  0  0  0  0  0
  146.5240  137.9410  151.4976 C   0  0  0  0  0  0  0  0  0  0  0  0
  147.8474  138.6344  154.2704 C   0  0  0  0  0  0  0  0  0  0  0  0
  148.5101  139.6923  155.1688 C   0  0  0  0  0  0  0  0  0  0  0  0
  151.9501  142.0905  158.5655 C   0  0  0  0  0  0  0  0  0  0  0  0
  154.0858  141.3940  161.1766 H   0  0  0  0  0  0  0  0  0  0  0  0
  154.1659  140.5929  159.6029 H   0  0  0  0  0  0  0  0  0  0  0  0
  152.7530  140.3661  160.6416 H   0  0  0  0  0  0  0  0  0  0  0  0
  153.7214  143.7750  160.9408 H   0  0  0  0  0  0  0  0  0  0  0  0
  151.2347  145.3980  158.0963 H   0  0  0  0  0  0  0  0  0  0  0  0
  150.0665  143.8359  156.4716 H   0  0  0  0  0  0  0  0  0  0  0  0
  148.9496  142.9726  155.1089 H   0  0  0  0  0  0  0  0  0  0  0  0
  149.4904  140.7997  153.5960 H   0  0  0  0  0  0  0  0  0  0  0  0
  146.7454  141.7394  154.5440 H   0  0  0  0  0  0  0  0  0  0  0  0
  147.6120  142.3149  153.1392 H   0  0  0  0  0  0  0  0  0  0  0  0
  145.8979  140.7197  152.5210 H   0  0  0  0  0  0  0  0  0  0  0  0
  147.4641  140.0682  152.0767 H   0  0  0  0  0  0  0  0  0  0  0  0
  144.8464  138.2933  152.8200 H   0  0  0  0  0  0  0  0  0  0  0  0
  147.0677  136.4367  153.8220 H   0  0  0  0  0  0  0  0  0  0  0  0
  145.4754  136.6087  154.5275 H   0  0  0  0  0  0  0  0  0  0  0  0
  145.6065  134.5623  153.2152 H   0  0  0  0  0  0  0  0  0  0  0  0
  144.3783  135.6453  152.5905 H   0  0  0  0  0  0  0  0  0  0  0  0
  144.6096  134.3911  150.3462 H   0  0  0  0  0  0  0  0  0  0  0  0
  145.8693  133.3989  151.0907 H   0  0  0  0  0  0  0  0  0  0  0  0
  146.2210  134.3081  149.6240 H   0  0  0  0  0  0  0  0  0  0  0  0
  146.4380  136.7308  149.7104 H   0  0  0  0  0  0  0  0  0  0  0  0
  144.8807  136.9537  150.4828 H   0  0  0  0  0  0  0  0  0  0  0  0
  146.3454  138.8422  150.9141 H   0  0  0  0  0  0  0  0  0  0  0  0
  147.6065  137.8245  151.5723 H   0  0  0  0  0  0  0  0  0  0  0  0
  147.7144  137.7536  154.8933 H   0  0  0  0  0  0  0  0  0  0  0  0
  148.5192  138.3540  153.4575 H   0  0  0  0  0  0  0  0  0  0  0  0
  149.4459  139.2972  155.5656 H   0  0  0  0  0  0  0  0  0  0  0  0
  147.8695  139.8911  156.0297 H   0  0  0  0  0  0  0  0  0  0  0  0
  151.7532  141.0980  158.1868 H   0  0  0  0  0  0  0  0  0  0  0  0
  147.0988  135.3733  151.5500 H   0  0  0  0  0  0  0  0  0  0  0  0
  1  2  1  0  0  0  0
  1 25  1  0  0  0  0
  1 26  1  0  0  0  0
  1 27  1  0  0  0  0
  2 24  1  0  0  0  0
  2  3  2  0  0  0  0
  3  4  1  0  0  0  0
  3 28  1  0  0  0  0
  4  5  2  0  0  0  0
  5  6  1  0  0  0  0
  5 29  1  0  0  0  0
  6  7  1  0  0  0  0
  6 24  2  0  0  0  0
  7  8  1  0  0  0  0
  7 30  1  0  0  0  0
  8  9  2  0  0  0  0
  8 10  1  0  0  0  0
 10 11  1  0  0  0  0
 10 31  1  0  0  0  0
 11 23  1  0  0  0  0
 11 12  1  0  0  0  0
 11 32  1  0  0  0  0
 12 13  1  0  0  0  0
 12 33  1  0  0  0  0
 12 34  1  0  0  0  0
 13 14  1  0  0  0  0
 13 35  1  0  0  0  0
 13 36  1  0  0  0  0
 14 15  1  0  0  0  0
 14 22  1  0  0  0  0
 15 21  1  0  0  0  0
 15 16  1  0  0  0  0
 15 37  1  0  0  0  0
 16 17  1  0  0  0  0
 16 38  1  0  0  0  0
 16 39  1  0  0  0  0
 17 18  1  0  0  0  0
 17 40  1  0  0  0  0
 17 41  1  0  0  0  0
 18 19  1  0  0  0  0
 18 20  1  0  0  0  0
 18 54  1  0  0  0  0
 19 42  1  0  0  0  0
 19 43  1  0  0  0  0
 19 44  1  0  0  0  0
 20 21  1  0  0  0  0
 20 45  1  0  0  0  0
 20 46  1  0  0  0  0
 21 47  1  0  0  0  0
 21 48  1  0  0  0  0
 22 23  1  0  0  0  0
 22 49  1  0  0  0  0
 22 50  1  0  0  0  0
 23 51  1  0  0  0  0
 23 52  1  0  0  0  0
 24 53  1  0  0  0  0
M  CHG  1  18   1
M  END
> <s_m_source_file>
AV-unprocessed.smi

> <i_m_source_file_index>
2583

> <i_lp_mmshare_version>
43012

> <i_f3d_flags>
0

> <s_epik_input>
W0NIM11jMVtjSF1uW2NIXWMoW2NIXTEpW05IXUMoPU8pW05IXVtDSF0yW0NIMl1bQ0gyXU4oW0NIMl1bQ0gyXTIpW0NIXTNbQ0gyXVtDSDJdTihbQ0gzXSlbQ0gyXVtDSDJdMw==

> <s_epik_cmdline>
J2VwaWtfcHl0aG9uJywgJy1waCcsICc3LjAnLCAnLXRuJywgJzgnLCAnLW1hJywgJzIwMCcsICctbWV0YWxfYmluZGluZycsICctaW1hZScsICc8aW5maWxlLm1hZT4nLCAnLW9tYWUnLCAnPG91dGZpbGUubWFlPic=

> <r_epik_Ionization_Penalty>
1.01912

> <r_epik_Ionization_Penalty_Charging>
0.000974969

> <r_epik_Ionization_Penalty_Neutral>
1.01814

> <r_epik_State_Penalty>
1.10721

> <r_epik_Charging_Adjusted_Penalty>
1.10819

> <i_epik_Tot_Q>
1

> <i_epik_Tot_abs_Q>
1

> <r_epik_Metal_State_Penalty>
1.10135

> <b_epik_Metal_Only>
0

> <s_lp_Force_Field>
OPLS_2005

> <r_lp_Energy>
33.522

> <b_lp_Chiralities_Consistent>
1

> <s_lp_Variant>
AV-unprocessed.smi:2583-5

> <Gold.Version>
5.8.1

> <Gold.Id.Protein>
6NUR|6NUR_protein|mol2

> <Gold.PLP.Fitness>
52.3232

> <Gold.PLP.PLP>
-41.6470

> <Gold.PLP.part.hbond>
-3.0000

> <Gold.PLP.part.metal>
0.0000

> <Gold.PLP.part.buried>
1.3277

> <Gold.PLP.part.nonpolar>
-40.5581

> <Gold.PLP.part.repulsive>
0.5245

> <Gold.PLP.ligand.clash>
0.0000

> <Gold.PLP.ligand.torsion>
0.6265

> <Gold.PLP.Chemscore.Hbond>
3.9760

> <Gold.PLP.Chemscore.CHOScore>
0.0000

> <Gold.PLP.Chemscore.Metal>
0.0000

> <Gold.Chemscore.Hbonds>
donor molecule, donor type, donor heavy atom, donor atom, acceptor molecule, acceptor atom, score
      L1  H     7    30       P1  8028  1.00
      L1  H    10    31       P1  8028  0.99
      L1  H    18    54       P1  7948  1.98

> <Gold.PLP.Chemscore.Internal.Correction>
0.0011

> <Gold.Rescore>
     Score         DG    S(hbond)    S(metal)    S(lipo)     H(rot)  DE(clash)    DE(int)     intcor
     21.95     -27.24       2.83        0.00     131.48       1.20       1.79       3.50       ----

> <Gold.Chemscore.Fitness>
21.9540

> <Gold.Chemscore.DG>
-27.2436

> <Gold.Chemscore.ZeroCoef>
-5.4800

> <Gold.Chemscore.Hbond>
2.8281

> <Gold.Chemscore.Metal>
0.0000

> <Gold.Chemscore.Lipo>
131.4771

> <Gold.Chemscore.Internal_Hbond>
0.0000

> <Gold.Chemscore.DEClash>
1.7886

> <Gold.Chemscore.DEInternal>
3.5009

> <Gold.Chemscore.Rot>
1.1974

> <Gold.Chemscore.Internal.Correction>
   9.000000E+99

> <Gold.Chemscore.Hbonds>
donor molecule, donor type, donor heavy atom, donor atom, acceptor molecule, acceptor atom, score
      L1  H     7    30       P1  8028  0.98
      L1  H    10    31       P1  8028  0.93
      L1  H    18    54       P1  7948  0.86

> <Gold.Chemscore.Hbond.Weighted>
-9.4460

> <Gold.Chemscore.Metal.Weighted>
-0.0000

> <Gold.Chemscore.Lipo.Weighted>
-15.3828

> <Gold.Chemscore.Internal_Hbond.Weighted>
0.0000

> <Gold.Chemscore.DEClash.Weighted>
1.7886

> <Gold.Chemscore.DEInternal.Weighted>
3.5009

> <Gold.Chemscore.Rot.Weighted>
3.0652

> <Gold.Chemscore.Internal.Correction.Weighted>
   9.000000E+99

> <Gold.Protein.RotatedTorsions>
[ 6907 6896 6895 6894 ] final -118.95 input  -60.11 | X-H torsion
[ 7974 7965 7964 7962 ] final  125.02 input  175.53 | X-H torsion
[ 8008 7997 7996 7995 ] final  -21.35 input   59.86 | X-H torsion
[ 10167 10162 10161 10158 ] final  -82.55 input  -65.29 | X-H torsion
[ 10718 10713 10712 10709 ] final  168.52 input   66.30 | X-H torsion
[ 10763 10752 10751 10750 ] final   -5.70 input  -60.55 | X-H torsion
[ 11005 11000 10999 10996 ] final  117.22 input  -57.11 | X-H torsion

> <Gold.Protein.ActiveResidues>
 VAL166  LYS551  ARG553  GLY616  TRP617  ASP618  TYR619  PRO620  LYS621  CYS622 
 ASP623  PHE694  ASN695  SER759  ASP760  ASP761  ALA762  ILE779  LEU786  VAL792 
 PHE793  MET794  SER795  GLU796  ALA797  LYS798  CYS799  TRP800  GLU811  SER814 

> <Gold.Protein.RotatedAtoms>
  150.8263  133.8166  159.3117 H   0  0  0  0  0  0  0  0  0  0  0  0  # atno 6907 bound_to 6896
  151.5909  135.1051  160.0048 H   0  0  0  0  0  0  0  0  0  0  0  0  # atno 6908 bound_to 6896
  152.4348  133.7299  159.6638 H   0  0  0  0  0  0  0  0  0  0  0  0  # atno 6909 bound_to 6896
  145.0778  139.3680  143.4925 H   0  0  0  0  0  0  0  0  0  0  0  0  # atno 7974 bound_to 7965
  154.4711  140.2037  155.9993 H   0  0  0  0  0  0  0  0  0  0  0  0  # atno 8008 bound_to 7997
  156.1012  140.3243  155.7915 H   0  0  0  0  0  0  0  0  0  0  0  0  # atno 8009 bound_to 7997
  155.4794  140.0537  157.2960 H   0  0  0  0  0  0  0  0  0  0  0  0  # atno 8010 bound_to 7997
  140.4309  143.2549  151.8761 H   0  0  0  0  0  0  0  0  0  0  0  0  # atno 10167 bound_to 10162
  157.0359  131.0272  151.2729 H   0  0  0  0  0  0  0  0  0  0  0  0  # atno 10718 bound_to 10713
  153.4022  135.7005  153.6418 H   0  0  0  0  0  0  0  0  0  0  0  0  # atno 10763 bound_to 10752
  153.4947  135.3665  155.2510 H   0  0  0  0  0  0  0  0  0  0  0  0  # atno 10764 bound_to 10752
  154.8711  135.4097  154.3359 H   0  0  0  0  0  0  0  0  0  0  0  0  # atno 10765 bound_to 10752
  139.9067  134.9607  156.7318 H   0  0  0  0  0  0  0  0  0  0  0  0  # atno 11005 bound_to 11000
  146.3530  140.0553  142.8633 LP  0  0  0  0  0  0  0  0  0  0  0  0  # atno 17320 bound_to 7965
  145.1215  140.9465  143.4598 LP  0  0  0  0  0  0  0  0  0  0  0  0  # atno 17321 bound_to 7965
  139.4785  144.5336  151.8631 LP  0  0  0  0  0  0  0  0  0  0  0  0  # atno 17342 bound_to 10162
  140.4428  144.1963  150.5892 LP  0  0  0  0  0  0  0  0  0  0  0  0  # atno 17343 bound_to 10162
  157.5142  130.7957  149.7738 LP  0  0  0  0  0  0  0  0  0  0  0  0  # atno 17370 bound_to 10713
  156.0054  130.3858  150.2450 LP  0  0  0  0  0  0  0  0  0  0  0  0  # atno 17371 bound_to 10713
  140.6919  133.9382  155.7971 LP  0  0  0  0  0  0  0  0  0  0  0  0  # atno 17394 bound_to 11000
  141.0435  134.0587  157.3872 LP  0  0  0  0  0  0  0  0  0  0  0  0  # atno 17395 bound_to 11000

$$$$
