AV-unprocessed.smi:414|AV-procd|sdf|2515|dock5
  -GOLD-   2262022463D 1   1.00000     0.00000
 Structure written by MMmdl.
 38 39  0  0  0  0  0  0  0  0  1 V2000
  148.1687  141.8565  156.2321 C   0  0  0  0  0  0  0  0  0  0  0  0
  149.5220  141.2105  155.9031 C   0  0  2  0  0  0  0  0  0  0  0  0
  149.3666  140.0705  154.8787 C   0  0  0  0  0  0  0  0  0  0  0  0
  150.7195  139.4151  154.5505 C   0  0  0  0  0  0  0  0  0  0  0  0
  151.4439  138.9078  155.8162 C   0  0  2  0  0  0  0  0  0  0  0  0
  150.7549  137.7628  156.4095 N   0  0  0  0  0  0  0  0  0  0  0  0
  150.6172  136.5540  155.8442 C   0  0  0  0  0  0  0  0  0  0  0  0
  151.0715  136.2741  154.7338 O   0  0  0  0  0  0  0  0  0  0  0  0
  149.8347  135.5199  156.6670 C   0  0  0  0  0  0  0  0  0  0  0  0
  149.4725  134.3161  155.9040 N   0  0  0  0  0  0  0  0  0  0  0  0
  148.8405  134.4344  154.6743 C   0  0  0  0  0  0  0  0  0  0  0  0
  148.4875  133.3726  153.9117 C   0  0  0  0  0  0  0  0  0  0  0  0
  148.7662  132.0137  154.3637 C   0  0  0  0  0  0  0  0  0  0  0  0
  148.4844  130.9892  153.7462 O   0  0  0  0  0  0  0  0  0  0  0  0
  149.4057  131.9362  155.6039 N   0  0  0  0  0  0  0  0  0  0  0  0
  149.7737  133.0265  156.3940 C   0  0  0  0  0  0  0  0  0  0  0  0
  150.3400  132.8462  157.4713 O   0  0  0  0  0  0  0  0  0  0  0  0
  151.5795  140.0399  156.8526 C   0  0  0  0  0  0  0  0  0  0  0  0
  150.2269  140.7011  157.1750 C   0  0  0  0  0  0  0  0  0  0  0  0
  149.6224  131.0151  155.9564 H   0  0  0  0  0  0  0  0  0  0  0  0
  147.4863  141.1378  156.6872 H   0  0  0  0  0  0  0  0  0  0  0  0
  147.6906  142.2461  155.3329 H   0  0  0  0  0  0  0  0  0  0  0  0
  148.2891  142.6876  156.9274 H   0  0  0  0  0  0  0  0  0  0  0  0
  150.1525  141.9800  155.4552 H   0  0  0  0  0  0  0  0  0  0  0  0
  148.6783  139.3170  155.2639 H   0  0  0  0  0  0  0  0  0  0  0  0
  148.9181  140.4534  153.9614 H   0  0  0  0  0  0  0  0  0  0  0  0
  150.5770  138.6036  153.8363 H   0  0  0  0  0  0  0  0  0  0  0  0
  151.3540  140.1463  154.0482 H   0  0  0  0  0  0  0  0  0  0  0  0
  152.4492  138.5858  155.5384 H   0  0  0  0  0  0  0  0  0  0  0  0
  150.3480  137.9047  157.3225 H   0  0  0  0  0  0  0  0  0  0  0  0
  150.4177  135.2524  157.5504 H   0  0  0  0  0  0  0  0  0  0  0  0
  148.9335  135.9990  157.0531 H   0  0  0  0  0  0  0  0  0  0  0  0
  148.6181  135.4229  154.2978 H   0  0  0  0  0  0  0  0  0  0  0  0
  147.9975  133.5296  152.9617 H   0  0  0  0  0  0  0  0  0  0  0  0
  152.0382  139.6621  157.7671 H   0  0  0  0  0  0  0  0  0  0  0  0
  152.2610  140.7981  156.4648 H   0  0  0  0  0  0  0  0  0  0  0  0
  150.3838  141.5280  157.8685 H   0  0  0  0  0  0  0  0  0  0  0  0
  149.5839  139.9877  157.6922 H   0  0  0  0  0  0  0  0  0  0  0  0
  1  2  1  0  0  0  0
  1 21  1  0  0  0  0
  1 22  1  0  0  0  0
  1 23  1  0  0  0  0
  2 19  1  0  0  0  0
  2  3  1  0  0  0  0
  2 24  1  0  0  0  0
  3  4  1  0  0  0  0
  3 25  1  0  0  0  0
  3 26  1  0  0  0  0
  4  5  1  0  0  0  0
  4 27  1  0  0  0  0
  4 28  1  0  0  0  0
  5  6  1  0  0  0  0
  5 18  1  0  0  0  0
  5 29  1  0  0  0  0
  6  7  1  0  0  0  0
  6 30  1  0  0  0  0
  7  8  2  0  0  0  0
  7  9  1  0  0  0  0
  9 10  1  0  0  0  0
  9 31  1  0  0  0  0
  9 32  1  0  0  0  0
 10 16  1  0  0  0  0
 10 11  1  0  0  0  0
 11 12  2  0  0  0  0
 11 33  1  0  0  0  0
 12 13  1  0  0  0  0
 12 34  1  0  0  0  0
 13 14  2  0  0  0  0
 13 15  1  0  0  0  0
 15 20  1  0  0  0  0
 15 16  1  0  0  0  0
 16 17  2  0  0  0  0
 18 19  1  0  0  0  0
 18 35  1  0  0  0  0
 18 36  1  0  0  0  0
 19 37  1  0  0  0  0
 19 38  1  0  0  0  0
M  END
> <s_m_source_file>
AV-unprocessed.smi

> <i_m_source_file_index>
414

> <i_lp_mmshare_version>
43012

> <i_f3d_flags>
0

> <s_epik_input>
W0NIM11bQ0BASF0xW0NIMl1bQ0gyXVtDQEhdKFtDSDJdW0NIMl0xKVtOSF1DKD1PKVtDSDJdbjJbY0hdW2NIXWMoPU8pW25IXWMyPU8=

> <s_epik_cmdline>
J2VwaWtfcHl0aG9uJywgJy1waCcsICc3LjAnLCAnLXRuJywgJzgnLCAnLW1hJywgJzIwMCcsICctbWV0YWxfYmluZGluZycsICctaW1hZScsICc8aW5maWxlLm1hZT4nLCAnLW9tYWUnLCAnPG91dGZpbGUubWFlPic=

> <r_lp_tautomer_probability>
0.999537

> <r_epik_Ionization_Penalty>
0.00309124

> <r_epik_Ionization_Penalty_Charging>
0.00309122

> <r_epik_Ionization_Penalty_Neutral>
1.90469e-08

> <r_epik_State_Penalty>
0.00217484

> <r_epik_Charging_Adjusted_Penalty>
0.00526606

> <i_epik_Tot_Q>
0

> <i_epik_Tot_abs_Q>
0

> <r_epik_Metal_State_Penalty>
0.362537

> <b_epik_Metal_Only>
0

> <s_lp_Force_Field>
OPLS_2005

> <r_lp_Energy>
7.68142

> <b_lp_Chiralities_Consistent>
1

> <s_lp_Variant>
AV-unprocessed.smi:414-2

> <Gold.Version>
5.8.1

> <Gold.Id.Protein>
6NUR|6NUR_protein|mol2

> <Gold.PLP.Fitness>
37.0942

> <Gold.PLP.PLP>
-28.5804

> <Gold.PLP.part.hbond>
-2.0000

> <Gold.PLP.part.metal>
0.0000

> <Gold.PLP.part.buried>
-0.6751

> <Gold.PLP.part.nonpolar>
-25.4904

> <Gold.PLP.part.repulsive>
0.2695

> <Gold.PLP.ligand.clash>
0.0000

> <Gold.PLP.ligand.torsion>
0.2469

> <Gold.PLP.Chemscore.Hbond>
2.0000

> <Gold.PLP.Chemscore.CHOScore>
1.0000

> <Gold.PLP.Chemscore.Metal>
0.0000

> <Gold.Chemscore.Hbonds>
donor molecule, donor type, donor heavy atom, donor atom, acceptor molecule, acceptor atom, score
      P1  H  6896  6907       L1    17  1.00
      P1  H 10752 10765       L1     8  1.00
      L1  C    11    33       P1  7948  0.81

> <Gold.PLP.Chemscore.Internal.Correction>
0.0075

> <Gold.Rescore>
     Score         DG    S(hbond)    S(metal)    S(lipo)     H(rot)  DE(clash)    DE(int)     intcor
     12.80     -14.45       2.00        0.00      56.63       1.69       0.16       1.49       ----

> <Gold.Chemscore.Fitness>
12.8032

> <Gold.Chemscore.DG>
-14.4507

> <Gold.Chemscore.ZeroCoef>
-5.4800

> <Gold.Chemscore.Hbond>
1.9953

> <Gold.Chemscore.Metal>
0.0000

> <Gold.Chemscore.Lipo>
56.6338

> <Gold.Chemscore.Internal_Hbond>
0.0000

> <Gold.Chemscore.DEClash>
0.1617

> <Gold.Chemscore.DEInternal>
1.4859

> <Gold.Chemscore.Rot>
1.6874

> <Gold.Chemscore.Internal.Correction>
   9.000000E+99

> <Gold.Chemscore.Hbonds>
donor molecule, donor type, donor heavy atom, donor atom, acceptor molecule, acceptor atom, score
      P1  H  6896  6907       L1    17  0.97
      P1  H 10752 10765       L1     8  0.97

> <Gold.Chemscore.Hbond.Weighted>
-6.6644

> <Gold.Chemscore.Metal.Weighted>
-0.0000

> <Gold.Chemscore.Lipo.Weighted>
-6.6261

> <Gold.Chemscore.Internal_Hbond.Weighted>
0.0000

> <Gold.Chemscore.DEClash.Weighted>
0.1617

> <Gold.Chemscore.DEInternal.Weighted>
1.4859

> <Gold.Chemscore.Rot.Weighted>
4.3198

> <Gold.Chemscore.Internal.Correction.Weighted>
   9.000000E+99

> <Gold.Protein.RotatedTorsions>
[ 6907 6896 6895 6894 ] final -134.40 input  -60.11 | X-H torsion
[ 7974 7965 7964 7962 ] final -108.58 input  175.53 | X-H torsion
[ 8008 7997 7996 7995 ] final  -25.81 input   59.86 | X-H torsion
[ 10167 10162 10161 10158 ] final   78.30 input  -65.29 | X-H torsion
[ 10718 10713 10712 10709 ] final   40.79 input   66.30 | X-H torsion
[ 10763 10752 10751 10750 ] final  171.69 input  -60.55 | X-H torsion
[ 11005 11000 10999 10996 ] final  137.63 input  -57.11 | X-H torsion

> <Gold.Protein.ActiveResidues>
 VAL166  LYS551  ARG553  GLY616  TRP617  ASP618  TYR619  PRO620  LYS621  CYS622 
 ASP623  PHE694  ASN695  SER759  ASP760  ASP761  ALA762  ILE779  LEU786  VAL792 
 PHE793  MET794  SER795  GLU796  ALA797  LYS798  CYS799  TRP800  GLU811  SER814 

> <Gold.Protein.RotatedAtoms>
  150.9854  133.6203  159.2716 H   0  0  0  0  0  0  0  0  0  0  0  0  # atno 6907 bound_to 6896
  151.3443  135.0869  159.9391 H   0  0  0  0  0  0  0  0  0  0  0  0  # atno 6908 bound_to 6896
  152.5229  133.9459  159.7703 H   0  0  0  0  0  0  0  0  0  0  0  0  # atno 6909 bound_to 6896
  145.1911  140.9015  143.3424 H   0  0  0  0  0  0  0  0  0  0  0  0  # atno 7974 bound_to 7965
  154.4457  140.1916  156.0677 H   0  0  0  0  0  0  0  0  0  0  0  0  # atno 8008 bound_to 7997
  156.0535  140.3305  155.7351 H   0  0  0  0  0  0  0  0  0  0  0  0  # atno 8009 bound_to 7997
  155.5521  140.0596  157.2838 H   0  0  0  0  0  0  0  0  0  0  0  0  # atno 8010 bound_to 7997
  139.9724  144.5885  150.7974 H   0  0  0  0  0  0  0  0  0  0  0  0  # atno 10167 bound_to 10162
  157.3862  130.7781  149.7232 H   0  0  0  0  0  0  0  0  0  0  0  0  # atno 10718 bound_to 10713
  154.4155  135.2757  155.2009 H   0  0  0  0  0  0  0  0  0  0  0  0  # atno 10763 bound_to 10752
  154.3977  135.6052  153.5882 H   0  0  0  0  0  0  0  0  0  0  0  0  # atno 10764 bound_to 10752
  152.9832  135.5918  154.4443 H   0  0  0  0  0  0  0  0  0  0  0  0  # atno 10765 bound_to 10752
  140.0127  134.9432  157.0312 H   0  0  0  0  0  0  0  0  0  0  0  0  # atno 11005 bound_to 11000
  145.0040  139.3572  143.6153 LP  0  0  0  0  0  0  0  0  0  0  0  0  # atno 17320 bound_to 7965
  146.3436  139.9275  142.8758 LP  0  0  0  0  0  0  0  0  0  0  0  0  # atno 17321 bound_to 7965
  140.7517  143.2978  151.3159 LP  0  0  0  0  0  0  0  0  0  0  0  0  # atno 17342 bound_to 10162
  139.6471  144.0430  152.2599 LP  0  0  0  0  0  0  0  0  0  0  0  0  # atno 17343 bound_to 10162
  155.9787  130.4048  150.3632 LP  0  0  0  0  0  0  0  0  0  0  0  0  # atno 17370 bound_to 10713
  157.1742  131.0376  151.2780 LP  0  0  0  0  0  0  0  0  0  0  0  0  # atno 17371 bound_to 10713
  140.4525  134.1567  155.7183 LP  0  0  0  0  0  0  0  0  0  0  0  0  # atno 17394 bound_to 11000
  141.1722  133.8586  157.1535 LP  0  0  0  0  0  0  0  0  0  0  0  0  # atno 17395 bound_to 11000

$$$$
