AV-unprocessed.smi:1960|AV-procd|sdf|7917|dock7
  -GOLD-   2272010 83D 1   1.00000     0.00000
 Structure written by MMmdl.
 39 40  0  0  0  0  0  0  0  0  2 V2000
  146.1837  132.7788  149.4815 C   0  0  0  0  0  0  0  0  0  0  0  0
  144.6901  132.0258  150.2467 S   0  0  0  0  0  0  0  0  0  0  0  0
  143.5632  132.1951  149.3164 O   0  0  0  0  0  0  0  0  0  0  0  0
  145.0473  130.6803  150.7220 O   0  0  0  0  0  0  0  0  0  0  0  0
  144.3822  133.0190  151.6425 N   0  0  0  0  0  0  0  0  0  0  0  0
  145.2005  132.8530  152.8605 C   0  0  0  0  0  0  0  0  0  0  0  0
  146.2721  133.9511  152.9812 C   0  0  0  0  0  0  0  0  0  0  0  0
  145.6501  135.3550  152.8906 C   0  0  0  0  0  0  0  0  0  0  0  0
  146.6821  136.3877  152.9314 N   0  0  0  0  0  0  0  0  0  0  0  0
  146.6009  137.5338  153.6227 C   0  0  0  0  0  0  0  0  0  0  0  0
  145.6335  137.8388  154.3196 O   0  0  0  0  0  0  0  0  0  0  0  0
  147.7108  138.2766  153.4674 N   0  0  0  0  0  0  0  0  0  0  0  0
  148.0083  139.5514  154.0226 C   0  0  0  0  0  0  0  0  0  0  0  0
  149.3376  139.7899  154.4369 C   0  0  0  0  0  0  0  0  0  0  0  0
  149.6831  141.0447  154.9790 C   0  0  0  0  0  0  0  0  0  0  0  0
  148.7462  142.0108  155.0889 N   0  3  0  0  0  0  0  0  0  0  0  0
  147.4671  141.8353  154.6935 C   0  0  0  0  0  0  0  0  0  0  0  0
  147.0625  140.6016  154.1438 C   0  0  0  0  0  0  0  0  0  0  0  0
  144.8493  135.4703  151.5855 C   0  0  0  0  0  0  0  0  0  0  0  0
  143.7882  134.3609  151.4777 C   0  0  0  0  0  0  0  0  0  0  0  0
  146.4489  132.2128  148.5890 H   0  0  0  0  0  0  0  0  0  0  0  0
  147.0168  132.7439  150.1813 H   0  0  0  0  0  0  0  0  0  0  0  0
  145.9763  133.8088  149.1972 H   0  0  0  0  0  0  0  0  0  0  0  0
  144.5391  132.8943  153.7266 H   0  0  0  0  0  0  0  0  0  0  0  0
  145.6643  131.8672  152.8755 H   0  0  0  0  0  0  0  0  0  0  0  0
  146.7996  133.8342  153.9284 H   0  0  0  0  0  0  0  0  0  0  0  0
  147.0216  133.8266  152.2004 H   0  0  0  0  0  0  0  0  0  0  0  0
  144.9653  135.4990  153.7288 H   0  0  0  0  0  0  0  0  0  0  0  0
  147.5162  136.2150  152.3896 H   0  0  0  0  0  0  0  0  0  0  0  0
  148.4542  137.8536  152.9314 H   0  0  0  0  0  0  0  0  0  0  0  0
  150.0883  139.0179  154.3478 H   0  0  0  0  0  0  0  0  0  0  0  0
  150.6738  141.3033  155.3233 H   0  0  0  0  0  0  0  0  0  0  0  0
  146.8105  142.6837  154.8212 H   0  0  0  0  0  0  0  0  0  0  0  0
  146.0403  140.4911  153.8155 H   0  0  0  0  0  0  0  0  0  0  0  0
  144.3610  136.4441  151.5339 H   0  0  0  0  0  0  0  0  0  0  0  0
  145.5227  135.4233  150.7304 H   0  0  0  0  0  0  0  0  0  0  0  0
  143.2623  134.4300  150.5259 H   0  0  0  0  0  0  0  0  0  0  0  0
  143.0353  134.5006  152.2542 H   0  0  0  0  0  0  0  0  0  0  0  0
  149.0168  142.9126  155.4822 H   0  0  0  0  0  0  0  0  0  0  0  0
  1  2  1  0  0  0  0
  1 21  1  0  0  0  0
  1 22  1  0  0  0  0
  1 23  1  0  0  0  0
  2  3  2  0  0  0  0
  2  4  2  0  0  0  0
  2  5  1  0  0  0  0
  5 20  1  0  0  0  0
  5  6  1  0  0  0  0
  6  7  1  0  0  0  0
  6 24  1  0  0  0  0
  6 25  1  0  0  0  0
  7  8  1  0  0  0  0
  7 26  1  0  0  0  0
  7 27  1  0  0  0  0
  8  9  1  0  0  0  0
  8 19  1  0  0  0  0
  8 28  1  0  0  0  0
  9 10  1  0  0  0  0
  9 29  1  0  0  0  0
 10 11  2  0  0  0  0
 10 12  1  0  0  0  0
 12 13  1  0  0  0  0
 12 30  1  0  0  0  0
 13 18  1  0  0  0  0
 13 14  2  0  0  0  0
 14 15  1  0  0  0  0
 14 31  1  0  0  0  0
 15 16  2  0  0  0  0
 15 32  1  0  0  0  0
 16 17  1  0  0  0  0
 16 39  1  0  0  0  0
 17 18  2  0  0  0  0
 17 33  1  0  0  0  0
 18 34  1  0  0  0  0
 19 20  1  0  0  0  0
 19 35  1  0  0  0  0
 19 36  1  0  0  0  0
 20 37  1  0  0  0  0
 20 38  1  0  0  0  0
M  CHG  1  16   1
M  END
> <s_m_source_file>
AV-unprocessed.smi

> <i_m_source_file_index>
1960

> <i_lp_mmshare_version>
43012

> <i_f3d_flags>
0

> <s_epik_input>
W0NIM11TKD1PKSg9TylOMVtDSDJdW0NIMl1bQ0hdKFtDSDJdW0NIMl0xKVtOSF1DKD1PKVtOSF1jMltjSF1bY0hdbltjSF1bY0hdMg==

> <s_epik_cmdline>
J2VwaWtfcHl0aG9uJywgJy1waCcsICc3LjAnLCAnLXRuJywgJzgnLCAnLW1hJywgJzIwMCcsICctbWV0YWxfYmluZGluZycsICctaW1hZScsICc8aW5maWxlLm1hZT4nLCAnLW9tYWUnLCAnPG91dGZpbGUubWFlPic=

> <r_epik_Ionization_Penalty>
1.01996

> <r_epik_Ionization_Penalty_Charging>
1.01994

> <r_epik_Ionization_Penalty_Neutral>
1.92463e-05

> <r_epik_State_Penalty>
1.07014

> <r_epik_Charging_Adjusted_Penalty>
2.09007

> <i_epik_Tot_Q>
1

> <i_epik_Tot_abs_Q>
1

> <r_epik_Metal_State_Penalty>
1.16909

> <b_epik_Metal_Only>
0

> <s_lp_Force_Field>
OPLS_2005

> <r_lp_Energy>
12.0857

> <b_lp_Chiralities_Consistent>
1

> <s_lp_Variant>
AV-unprocessed.smi:1960-2

> <Gold.Version>
5.8.1

> <Gold.Id.Protein>
6NUR|6NUR_protein|mol2

> <Gold.PLP.Fitness>
43.5555

> <Gold.PLP.PLP>
-30.4005

> <Gold.PLP.part.hbond>
-4.0000

> <Gold.PLP.part.metal>
0.0000

> <Gold.PLP.part.buried>
-1.3049

> <Gold.PLP.part.nonpolar>
-26.0617

> <Gold.PLP.part.repulsive>
0.9061

> <Gold.PLP.ligand.clash>
0.0000

> <Gold.PLP.ligand.torsion>
1.5766

> <Gold.PLP.Chemscore.Hbond>
4.7522

> <Gold.PLP.Chemscore.CHOScore>
0.0000

> <Gold.PLP.Chemscore.Metal>
0.0000

> <Gold.Chemscore.Hbonds>
donor molecule, donor type, donor heavy atom, donor atom, acceptor molecule, acceptor atom, score
      L1  H     9    29       P1  7948  0.98
      L1  H    12    30       P1  7948  0.90
      L1  H    16    39       P1  8028  2.00
      P1  H 10785 10796       L1     3  0.64

> <Gold.PLP.Chemscore.Internal.Correction>
2.0518

> <Gold.Rescore>
     Score         DG    S(hbond)    S(metal)    S(lipo)     H(rot)  DE(clash)    DE(int)     intcor
     20.11     -22.66       3.72        0.00      62.58       1.00       0.36       2.19       ----

> <Gold.Chemscore.Fitness>
20.1098

> <Gold.Chemscore.DG>
-22.6628

> <Gold.Chemscore.ZeroCoef>
-5.4800

> <Gold.Chemscore.Hbond>
3.7188

> <Gold.Chemscore.Metal>
0.0000

> <Gold.Chemscore.Lipo>
62.5800

> <Gold.Chemscore.Internal_Hbond>
0.0000

> <Gold.Chemscore.DEClash>
0.3609

> <Gold.Chemscore.DEInternal>
2.1920

> <Gold.Chemscore.Rot>
1.0000

> <Gold.Chemscore.Internal.Correction>
   9.000000E+99

> <Gold.Chemscore.Hbonds>
donor molecule, donor type, donor heavy atom, donor atom, acceptor molecule, acceptor atom, score
      L1  H     9    29       P1  7948  0.91
      L1  H    12    30       P1  7948  0.86
      L1  H    16    39       P1  8028  0.97
      P1  H 10785 10796       L1     3  0.18

> <Gold.Chemscore.Hbond.Weighted>
-12.4209

> <Gold.Chemscore.Metal.Weighted>
-0.0000

> <Gold.Chemscore.Lipo.Weighted>
-7.3219

> <Gold.Chemscore.Internal_Hbond.Weighted>
0.0000

> <Gold.Chemscore.DEClash.Weighted>
0.3609

> <Gold.Chemscore.DEInternal.Weighted>
2.1920

> <Gold.Chemscore.Rot.Weighted>
2.5600

> <Gold.Chemscore.Internal.Correction.Weighted>
   9.000000E+99

> <Gold.Protein.RotatedTorsions>
[ 6907 6896 6895 6894 ] final    3.36 input  -60.11 | X-H torsion
[ 7974 7965 7964 7962 ] final   41.44 input  175.53 | X-H torsion
[ 8008 7997 7996 7995 ] final  -83.74 input   59.86 | X-H torsion
[ 10167 10162 10161 10158 ] final  -16.33 input  -65.29 | X-H torsion
[ 10718 10713 10712 10709 ] final  168.48 input   66.30 | X-H torsion
[ 10763 10752 10751 10750 ] final    1.44 input  -60.55 | X-H torsion
[ 11005 11000 10999 10996 ] final  -33.50 input  -57.11 | X-H torsion

> <Gold.Protein.ActiveResidues>
 VAL166  LYS551  ARG553  GLY616  TRP617  ASP618  TYR619  PRO620  LYS621  CYS622 
 ASP623  PHE694  ASN695  SER759  ASP760  ASP761  ALA762  ILE779  LEU786  VAL792 
 PHE793  MET794  SER795  GLU796  ALA797  LYS798  CYS799  TRP800  GLU811  SER814 

> <Gold.Protein.RotatedAtoms>
  151.6239  135.1029  160.0107 H   0  0  0  0  0  0  0  0  0  0  0  0  # atno 6907 bound_to 6896
  152.4143  133.7009  159.6434 H   0  0  0  0  0  0  0  0  0  0  0  0  # atno 6908 bound_to 6896
  150.8032  133.8485  159.3240 H   0  0  0  0  0  0  0  0  0  0  0  0  # atno 6909 bound_to 6896
  146.0823  139.5416  142.9529 H   0  0  0  0  0  0  0  0  0  0  0  0  # atno 7974 bound_to 7965
  154.6223  140.0614  156.9630 H   0  0  0  0  0  0  0  0  0  0  0  0  # atno 8008 bound_to 7997
  155.1798  140.3298  155.4359 H   0  0  0  0  0  0  0  0  0  0  0  0  # atno 8009 bound_to 7997
  156.2438  140.1899  156.6895 H   0  0  0  0  0  0  0  0  0  0  0  0  # atno 8010 bound_to 7997
  140.7232  143.5128  150.9729 H   0  0  0  0  0  0  0  0  0  0  0  0  # atno 10167 bound_to 10162
  157.0365  131.0274  151.2727 H   0  0  0  0  0  0  0  0  0  0  0  0  # atno 10718 bound_to 10713
  153.3080  135.6961  153.7141 H   0  0  0  0  0  0  0  0  0  0  0  0  # atno 10763 bound_to 10752
  153.6030  135.3458  155.2952 H   0  0  0  0  0  0  0  0  0  0  0  0  # atno 10764 bound_to 10752
  154.8568  135.4345  154.2210 H   0  0  0  0  0  0  0  0  0  0  0  0  # atno 10765 bound_to 10752
  140.9639  133.7148  156.1414 H   0  0  0  0  0  0  0  0  0  0  0  0  # atno 11005 bound_to 11000
  145.6194  141.0325  143.1923 LP  0  0  0  0  0  0  0  0  0  0  0  0  # atno 17320 bound_to 7965
  144.7302  139.7750  143.7350 LP  0  0  0  0  0  0  0  0  0  0  0  0  # atno 17321 bound_to 7965
  139.8842  143.7034  152.3153 LP  0  0  0  0  0  0  0  0  0  0  0  0  # atno 17342 bound_to 10162
  139.7327  144.7578  151.0777 LP  0  0  0  0  0  0  0  0  0  0  0  0  # atno 17343 bound_to 10162
  157.5137  130.7954  149.7733 LP  0  0  0  0  0  0  0  0  0  0  0  0  # atno 17370 bound_to 10713
  156.0052  130.3859  150.2458 LP  0  0  0  0  0  0  0  0  0  0  0  0  # atno 17371 bound_to 10713
  140.7427  134.4132  157.5552 LP  0  0  0  0  0  0  0  0  0  0  0  0  # atno 17394 bound_to 11000
  139.8888  134.8847  156.2456 LP  0  0  0  0  0  0  0  0  0  0  0  0  # atno 17395 bound_to 11000

$$$$
