AV-unprocessed.smi:929|AV-procd|sdf|4195|dock8
  -GOLD-   22720 2103D 1   1.00000     0.00000
 Structure written by MMmdl.
 34 35  0  0  0  0  0  0  0  0  1 V2000
  153.4162  132.5035  165.0872 C   0  0  0  0  0  0  0  0  0  0  0  0
  153.7190  133.0802  163.7393 C   0  0  0  0  0  0  0  0  0  0  0  0
  153.7607  134.4797  163.4434 C   0  0  0  0  0  0  0  0  0  0  0  0
  154.0645  134.7289  162.1281 C   0  0  0  0  0  0  0  0  0  0  0  0
  154.2098  135.8863  161.4356 N   0  0  0  0  0  0  0  0  0  0  0  0
  154.3012  137.1349  161.9236 C   0  0  0  0  0  0  0  0  0  0  0  0
  154.2371  137.4408  163.1147 O   0  0  0  0  0  0  0  0  0  0  0  0
  154.4758  138.0287  160.9387 N   0  0  0  0  0  0  0  0  0  0  0  0
  154.6461  139.4682  161.1276 C   0  0  0  0  0  0  0  0  0  0  0  0
  153.9423  140.3135  160.0491 C   0  0  0  0  0  0  0  0  0  0  0  0
  153.9010  139.9143  158.8837 O   0  0  0  0  0  0  0  0  0  0  0  0
  153.3743  141.4777  160.4252 N   0  0  0  0  0  0  0  0  0  0  0  0
  152.6848  142.4172  159.5411 C   0  0  0  0  0  0  0  0  0  0  0  0
  152.4541  143.6767  160.3772 C   0  0  0  0  0  0  0  0  0  0  0  0
  152.4309  143.1713  161.8130 C   0  0  0  0  0  0  0  0  0  0  0  0
  153.3785  141.9716  161.8009 C   0  0  0  0  0  0  0  0  0  0  0  0
  154.2739  133.1919  161.3552 S   0  0  0  0  0  0  0  0  0  0  0  0
  153.9682  132.2760  162.7276 N   0  0  0  0  0  0  0  0  0  0  0  0
  153.4625  133.2650  165.8661 H   0  0  0  0  0  0  0  0  0  0  0  0
  154.1274  131.7210  165.3529 H   0  0  0  0  0  0  0  0  0  0  0  0
  152.4175  132.0673  165.1122 H   0  0  0  0  0  0  0  0  0  0  0  0
  153.5705  135.2253  164.2006 H   0  0  0  0  0  0  0  0  0  0  0  0
  154.2687  135.7887  160.4326 H   0  0  0  0  0  0  0  0  0  0  0  0
  154.5225  137.6879  159.9898 H   0  0  0  0  0  0  0  0  0  0  0  0
  154.2333  139.7289  162.1023 H   0  0  0  0  0  0  0  0  0  0  0  0
  155.7096  139.7099  161.1595 H   0  0  0  0  0  0  0  0  0  0  0  0
  153.2624  142.6439  158.6441 H   0  0  0  0  0  0  0  0  0  0  0  0
  151.7312  141.9853  159.2344 H   0  0  0  0  0  0  0  0  0  0  0  0
  153.2936  144.3609  160.2462 H   0  0  0  0  0  0  0  0  0  0  0  0
  151.5433  144.2080  160.0997 H   0  0  0  0  0  0  0  0  0  0  0  0
  152.7219  143.9337  162.5361 H   0  0  0  0  0  0  0  0  0  0  0  0
  151.4231  142.8386  162.0654 H   0  0  0  0  0  0  0  0  0  0  0  0
  153.0603  141.2083  162.5129 H   0  0  0  0  0  0  0  0  0  0  0  0
  154.3916  142.2798  162.0634 H   0  0  0  0  0  0  0  0  0  0  0  0
  1  2  1  0  0  0  0
  1 19  1  0  0  0  0
  1 20  1  0  0  0  0
  1 21  1  0  0  0  0
  2 18  2  0  0  0  0
  2  3  1  0  0  0  0
  3  4  2  0  0  0  0
  3 22  1  0  0  0  0
  4  5  1  0  0  0  0
  4 17  1  0  0  0  0
  5  6  1  0  0  0  0
  5 23  1  0  0  0  0
  6  7  2  0  0  0  0
  6  8  1  0  0  0  0
  8  9  1  0  0  0  0
  8 24  1  0  0  0  0
  9 10  1  0  0  0  0
  9 25  1  0  0  0  0
  9 26  1  0  0  0  0
 10 11  2  0  0  0  0
 10 12  1  0  0  0  0
 12 16  1  0  0  0  0
 12 13  1  0  0  0  0
 13 14  1  0  0  0  0
 13 27  1  0  0  0  0
 13 28  1  0  0  0  0
 14 15  1  0  0  0  0
 14 29  1  0  0  0  0
 14 30  1  0  0  0  0
 15 16  1  0  0  0  0
 15 31  1  0  0  0  0
 15 32  1  0  0  0  0
 16 33  1  0  0  0  0
 16 34  1  0  0  0  0
 17 18  1  0  0  0  0
M  END
> <s_m_source_file>
AV-unprocessed.smi

> <i_m_source_file_index>
929

> <i_lp_mmshare_version>
43012

> <i_f3d_flags>
0

> <s_epik_input>
W0NIM11jMVtjSF1jKHNuMSlbTkhdQyg9TylbTkhdW0NIMl1DKD1PKU4yW0NIMl1bQ0gyXVtDSDJdW0NIMl0y

> <s_epik_cmdline>
J2VwaWtfcHl0aG9uJywgJy1waCcsICc3LjAnLCAnLXRuJywgJzgnLCAnLW1hJywgJzIwMCcsICctbWV0YWxfYmluZGluZycsICctaW1hZScsICc8aW5maWxlLm1hZT4nLCAnLW9tYWUnLCAnPG91dGZpbGUubWFlPic=

> <r_lp_tautomer_probability>
1

> <r_epik_Ionization_Penalty>
3.14678e-05

> <r_epik_Ionization_Penalty_Charging>
0

> <r_epik_Ionization_Penalty_Neutral>
3.14678e-05

> <r_epik_State_Penalty>
-0

> <r_epik_Charging_Adjusted_Penalty>
0

> <i_epik_Tot_Q>
0

> <i_epik_Tot_abs_Q>
0

> <r_epik_Metal_State_Penalty>
-0

> <b_epik_Metal_Only>
0

> <s_lp_Force_Field>
OPLS_2005

> <r_lp_Energy>
23.5851

> <b_lp_Chiralities_Consistent>
1

> <s_lp_Variant>
AV-unprocessed.smi:929-1

> <Gold.Version>
5.8.1

> <Gold.Id.Protein>
6NUR|6NUR_protein|mol2

> <Gold.PLP.Fitness>
40.4847

> <Gold.PLP.PLP>
-38.5310

> <Gold.PLP.part.hbond>
-1.0000

> <Gold.PLP.part.metal>
0.0000

> <Gold.PLP.part.buried>
-4.1892

> <Gold.PLP.part.nonpolar>
-33.0803

> <Gold.PLP.part.repulsive>
0.0592

> <Gold.PLP.ligand.clash>
0.0000

> <Gold.PLP.ligand.torsion>
0.5244

> <Gold.PLP.Chemscore.Hbond>
1.0000

> <Gold.PLP.Chemscore.CHOScore>
0.0000

> <Gold.PLP.Chemscore.Metal>
0.0000

> <Gold.Chemscore.Hbonds>
donor molecule, donor type, donor heavy atom, donor atom, acceptor molecule, acceptor atom, score
      P1  H  7997  8010       L1    11  1.00

> <Gold.PLP.Chemscore.Internal.Correction>
0.0024

> <Gold.Rescore>
     Score         DG    S(hbond)    S(metal)    S(lipo)     H(rot)  DE(clash)    DE(int)     intcor
     14.88     -16.27       1.00        0.00      92.02       1.29       0.06       1.32       ----

> <Gold.Chemscore.Fitness>
14.8841

> <Gold.Chemscore.DG>
-16.2652

> <Gold.Chemscore.ZeroCoef>
-5.4800

> <Gold.Chemscore.Hbond>
0.9967

> <Gold.Chemscore.Metal>
0.0000

> <Gold.Chemscore.Lipo>
92.0238

> <Gold.Chemscore.Internal_Hbond>
0.0000

> <Gold.Chemscore.DEClash>
0.0605

> <Gold.Chemscore.DEInternal>
1.3206

> <Gold.Chemscore.Rot>
1.2931

> <Gold.Chemscore.Internal.Correction>
   9.000000E+99

> <Gold.Chemscore.Hbonds>
donor molecule, donor type, donor heavy atom, donor atom, acceptor molecule, acceptor atom, score
      P1  H  7997  8010       L1    11  0.97

> <Gold.Chemscore.Hbond.Weighted>
-3.3288

> <Gold.Chemscore.Metal.Weighted>
-0.0000

> <Gold.Chemscore.Lipo.Weighted>
-10.7668

> <Gold.Chemscore.Internal_Hbond.Weighted>
0.0000

> <Gold.Chemscore.DEClash.Weighted>
0.0605

> <Gold.Chemscore.DEInternal.Weighted>
1.3206

> <Gold.Chemscore.Rot.Weighted>
3.3105

> <Gold.Chemscore.Internal.Correction.Weighted>
   9.000000E+99

> <Gold.Protein.RotatedTorsions>
[ 6907 6896 6895 6894 ] final   54.96 input  -60.11 | X-H torsion
[ 7974 7965 7964 7962 ] final   15.16 input  175.53 | X-H torsion
[ 8008 7997 7996 7995 ] final   11.95 input   59.86 | X-H torsion
[ 10167 10162 10161 10158 ] final -147.09 input  -65.29 | X-H torsion
[ 10718 10713 10712 10709 ] final -174.91 input   66.30 | X-H torsion
[ 10763 10752 10751 10750 ] final  103.01 input  -60.55 | X-H torsion
[ 11005 11000 10999 10996 ] final   97.09 input  -57.11 | X-H torsion

> <Gold.Protein.ActiveResidues>
 VAL166  LYS551  ARG553  GLY616  TRP617  ASP618  TYR619  PRO620  LYS621  CYS622 
 ASP623  PHE694  ASN695  SER759  ASP760  ASP761  ALA762  ILE779  LEU786  VAL792 
 PHE793  MET794  SER795  GLU796  ALA797  LYS798  CYS799  TRP800  GLU811  SER814 

> <Gold.Protein.RotatedAtoms>
  152.3491  134.7030  160.0241 H   0  0  0  0  0  0  0  0  0  0  0  0  # atno 6907 bound_to 6896
  151.7390  133.3315  159.3368 H   0  0  0  0  0  0  0  0  0  0  0  0  # atno 6908 bound_to 6896
  150.7528  134.6229  159.6190 H   0  0  0  0  0  0  0  0  0  0  0  0  # atno 6909 bound_to 6896
  146.2286  139.8934  142.8551 H   0  0  0  0  0  0  0  0  0  0  0  0  # atno 7974 bound_to 7965
  154.8140  140.2873  155.5833 H   0  0  0  0  0  0  0  0  0  0  0  0  # atno 8008 bound_to 7997
  156.2991  140.2563  156.2963 H   0  0  0  0  0  0  0  0  0  0  0  0  # atno 8009 bound_to 7997
  154.9415  140.0381  157.2088 H   0  0  0  0  0  0  0  0  0  0  0  0  # atno 8010 bound_to 7997
  139.7653  143.8316  152.2615 H   0  0  0  0  0  0  0  0  0  0  0  0  # atno 10167 bound_to 10162
  156.7920  130.9521  151.3120 H   0  0  0  0  0  0  0  0  0  0  0  0  # atno 10718 bound_to 10713
  153.3471  135.3991  155.1617 H   0  0  0  0  0  0  0  0  0  0  0  0  # atno 10763 bound_to 10752
  154.8655  135.3647  154.5270 H   0  0  0  0  0  0  0  0  0  0  0  0  # atno 10764 bound_to 10752
  153.5719  135.7078  153.5561 H   0  0  0  0  0  0  0  0  0  0  0  0  # atno 10765 bound_to 10752
  139.8778  134.8983  156.4255 H   0  0  0  0  0  0  0  0  0  0  0  0  # atno 11005 bound_to 11000
  145.2395  141.0004  143.3944 LP  0  0  0  0  0  0  0  0  0  0  0  0  # atno 17320 bound_to 7965
  144.9464  139.4131  143.6424 LP  0  0  0  0  0  0  0  0  0  0  0  0  # atno 17321 bound_to 7965
  139.8335  144.7243  150.9421 LP  0  0  0  0  0  0  0  0  0  0  0  0  # atno 17342 bound_to 10162
  140.7810  143.4048  151.1089 LP  0  0  0  0  0  0  0  0  0  0  0  0  # atno 17343 bound_to 10162
  157.6596  130.8954  149.9801 LP  0  0  0  0  0  0  0  0  0  0  0  0  # atno 17370 bound_to 10713
  156.1153  130.3648  149.9979 LP  0  0  0  0  0  0  0  0  0  0  0  0  # atno 17371 bound_to 10713
  140.9103  133.7716  155.9784 LP  0  0  0  0  0  0  0  0  0  0  0  0  # atno 17394 bound_to 11000
  140.8553  134.2905  157.5258 LP  0  0  0  0  0  0  0  0  0  0  0  0  # atno 17395 bound_to 11000

$$$$
