AV-unprocessed.smi:2790|AV-procd|sdf|10770|dock5
  -GOLD-   2272015203D 1   1.00000     0.00000
 Structure written by MMmdl.
 46 47  0  0  0  0  0  0  0  0  4 V2000
  148.6840  138.3790  157.6926 C   0  0  0  0  0  0  0  0  0  0  0  0
  149.1228  137.6959  158.9299 N   0  3  0  0  0  0  0  0  0  0  0  0
  150.5897  137.5146  158.9787 C   0  0  0  0  0  0  0  0  0  0  0  0
  148.3724  136.4433  159.2007 C   0  0  0  0  0  0  0  0  0  0  0  0
  146.9160  136.7818  159.5316 C   0  0  0  0  0  0  0  0  0  0  0  0
  146.5523  137.9581  159.4429 O   0  0  0  0  0  0  0  0  0  0  0  0
  146.2239  135.6655  159.8864 N   0  5  0  0  0  0  0  0  0  0  0  0
  144.8479  135.6750  160.3882 C   0  0  0  0  0  0  0  0  0  0  0  0
  144.8025  135.6419  161.9653 C   0  0  0  0  0  0  0  0  0  0  0  0
  143.3151  135.5890  162.4236 C   0  0  0  0  0  0  0  0  0  0  0  0
  142.4303  136.6784  162.1897 C   0  0  0  0  0  0  0  0  0  0  0  0
  141.0909  136.6132  162.6212 C   0  0  0  0  0  0  0  0  0  0  0  0
  140.6433  135.5149  163.2623 N   0  3  0  0  0  0  0  0  0  0  0  0
  141.4332  134.4532  163.5193 C   0  0  0  0  0  0  0  0  0  0  0  0
  142.7815  134.4633  163.1104 C   0  0  0  0  0  0  0  0  0  0  0  0
  145.5362  134.3668  162.5214 C   0  0  0  0  0  0  0  0  0  0  0  0
  147.0803  134.3778  162.4582 C   0  0  0  0  0  0  0  0  0  0  0  0
  147.6648  135.6179  163.1380 C   0  0  0  0  0  0  0  0  0  0  0  0
  147.0718  136.8885  162.5257 C   0  0  0  0  0  0  0  0  0  0  0  0
  145.5300  136.8826  162.6061 C   0  0  0  0  0  0  0  0  0  0  0  0
  148.9020  137.7727  156.8126 H   0  0  0  0  0  0  0  0  0  0  0  0
  149.1912  139.3377  157.5824 H   0  0  0  0  0  0  0  0  0  0  0  0
  147.6114  138.5742  157.7174 H   0  0  0  0  0  0  0  0  0  0  0  0
  150.9266  136.8420  158.1889 H   0  0  0  0  0  0  0  0  0  0  0  0
  150.8927  137.0975  159.9397 H   0  0  0  0  0  0  0  0  0  0  0  0
  151.1003  138.4704  158.8567 H   0  0  0  0  0  0  0  0  0  0  0  0
  148.4183  135.7567  158.3527 H   0  0  0  0  0  0  0  0  0  0  0  0
  148.8064  135.9043  160.0448 H   0  0  0  0  0  0  0  0  0  0  0  0
  144.2939  136.5516  160.0485 H   0  0  0  0  0  0  0  0  0  0  0  0
  144.2948  134.8225  159.9952 H   0  0  0  0  0  0  0  0  0  0  0  0
  142.7656  137.5777  161.6970 H   0  0  0  0  0  0  0  0  0  0  0  0
  140.3711  137.4059  162.4787 H   0  0  0  0  0  0  0  0  0  0  0  0
  140.9681  133.6327  164.0460 H   0  0  0  0  0  0  0  0  0  0  0  0
  143.3888  133.6043  163.3474 H   0  0  0  0  0  0  0  0  0  0  0  0
  145.2702  134.2565  163.5740 H   0  0  0  0  0  0  0  0  0  0  0  0
  145.1902  133.4484  162.0441 H   0  0  0  0  0  0  0  0  0  0  0  0
  147.4702  133.4820  162.9422 H   0  0  0  0  0  0  0  0  0  0  0  0
  147.4213  134.3294  161.4236 H   0  0  0  0  0  0  0  0  0  0  0  0
  147.4505  135.5885  164.2070 H   0  0  0  0  0  0  0  0  0  0  0  0
  148.7504  135.6240  163.0368 H   0  0  0  0  0  0  0  0  0  0  0  0
  147.4601  137.7606  163.0522 H   0  0  0  0  0  0  0  0  0  0  0  0
  147.4018  136.9921  161.4917 H   0  0  0  0  0  0  0  0  0  0  0  0
  145.1666  137.8296  162.2027 H   0  0  0  0  0  0  0  0  0  0  0  0
  145.2810  136.9114  163.6681 H   0  0  0  0  0  0  0  0  0  0  0  0
  148.8876  138.3158  159.6925 H   0  0  0  0  0  0  0  0  0  0  0  0
  139.6710  135.4889  163.5700 H   0  0  0  0  0  0  0  0  0  0  0  0
  1  2  1  0  0  0  0
  1 21  1  0  0  0  0
  1 22  1  0  0  0  0
  1 23  1  0  0  0  0
  2  3  1  0  0  0  0
  2  4  1  0  0  0  0
  2 45  1  0  0  0  0
  3 24  1  0  0  0  0
  3 25  1  0  0  0  0
  3 26  1  0  0  0  0
  4  5  1  0  0  0  0
  4 27  1  0  0  0  0
  4 28  1  0  0  0  0
  5  6  2  0  0  0  0
  5  7  1  0  0  0  0
  7  8  1  0  0  0  0
  8  9  1  0  0  0  0
  8 29  1  0  0  0  0
  8 30  1  0  0  0  0
  9 20  1  0  0  0  0
  9 10  1  0  0  0  0
  9 16  1  0  0  0  0
 10 15  1  0  0  0  0
 10 11  2  0  0  0  0
 11 12  1  0  0  0  0
 11 31  1  0  0  0  0
 12 13  2  0  0  0  0
 12 32  1  0  0  0  0
 13 14  1  0  0  0  0
 13 46  1  0  0  0  0
 14 15  2  0  0  0  0
 14 33  1  0  0  0  0
 15 34  1  0  0  0  0
 16 17  1  0  0  0  0
 16 35  1  0  0  0  0
 16 36  1  0  0  0  0
 17 18  1  0  0  0  0
 17 37  1  0  0  0  0
 17 38  1  0  0  0  0
 18 19  1  0  0  0  0
 18 39  1  0  0  0  0
 18 40  1  0  0  0  0
 19 20  1  0  0  0  0
 19 41  1  0  0  0  0
 19 42  1  0  0  0  0
 20 43  1  0  0  0  0
 20 44  1  0  0  0  0
M  CHG  1   2   1
M  CHG  1   7  -1
M  CHG  1  13   1
M  END
> <s_m_source_file>
AV-unprocessed.smi

> <i_m_source_file_index>
2790

> <i_lp_mmshare_version>
43012

> <i_f3d_flags>
0

> <s_epik_input>
W0NIM11OKFtDSDNdKVtDSDJdQyg9TylbTkhdW0NIMl1DMShbQ0gyXVtDSDJdW0NIMl1bQ0gyXVtDSDJdMSljMltjSF1bY0hdbltjSF1bY0hdMg==

> <s_epik_cmdline>
J2VwaWtfcHl0aG9uJywgJy1waCcsICc3LjAnLCAnLXRuJywgJzgnLCAnLW1hJywgJzIwMCcsICctbWV0YWxfYmluZGluZycsICctaW1hZScsICc8aW5maWxlLm1hZT4nLCAnLW9tYWUnLCAnPG91dGZpbGUubWFlPic=

> <r_epik_Ionization_Penalty>
6.72126

> <r_epik_Ionization_Penalty_Charging>
6.72126

> <r_epik_Ionization_Penalty_Neutral>
0

> <r_epik_State_Penalty>
7.43246

> <r_epik_Charging_Adjusted_Penalty>
14.1537

> <i_epik_Tot_Q>
1

> <i_epik_Tot_abs_Q>
3

> <r_epik_Metal_State_Penalty>
3.42758

> <b_epik_Metal_Only>
1

> <s_lp_Force_Field>
OPLS_2005

> <r_lp_Energy>
31.5627

> <b_lp_Chiralities_Consistent>
1

> <s_lp_Variant>
AV-unprocessed.smi:2790-5

> <Gold.Version>
5.8.1

> <Gold.Id.Protein>
6NUR|6NUR_protein|mol2

> <Gold.PLP.Fitness>
37.1417

> <Gold.PLP.PLP>
-35.4624

> <Gold.PLP.part.hbond>
-1.4103

> <Gold.PLP.part.metal>
0.0000

> <Gold.PLP.part.buried>
-5.6816

> <Gold.PLP.part.nonpolar>
-28.3863

> <Gold.PLP.part.repulsive>
0.2090

> <Gold.PLP.ligand.clash>
0.0000

> <Gold.PLP.ligand.torsion>
0.3526

> <Gold.PLP.Chemscore.Hbond>
0.7680

> <Gold.PLP.Chemscore.CHOScore>
0.0000

> <Gold.PLP.Chemscore.Metal>
0.0000

> <Gold.Chemscore.Hbonds>
donor molecule, donor type, donor heavy atom, donor atom, acceptor molecule, acceptor atom, score
      P1  H  6934  6947       L1     6  0.75

> <Gold.PLP.Chemscore.Internal.Correction>
0.0804

> <Gold.Rescore>
     Score         DG    S(hbond)    S(metal)    S(lipo)     H(rot)  DE(clash)    DE(int)     intcor
     10.59     -14.45       0.81        0.00      90.12       1.67       0.09       3.77       ----

> <Gold.Chemscore.Fitness>
10.5942

> <Gold.Chemscore.DG>
-14.4480

> <Gold.Chemscore.ZeroCoef>
-5.4800

> <Gold.Chemscore.Hbond>
0.8113

> <Gold.Chemscore.Metal>
0.0000

> <Gold.Chemscore.Lipo>
90.1206

> <Gold.Chemscore.Internal_Hbond>
0.0000

> <Gold.Chemscore.DEClash>
0.0879

> <Gold.Chemscore.DEInternal>
3.7659

> <Gold.Chemscore.Rot>
1.6741

> <Gold.Chemscore.Internal.Correction>
   9.000000E+99

> <Gold.Chemscore.Hbonds>
donor molecule, donor type, donor heavy atom, donor atom, acceptor molecule, acceptor atom, score
      P1  H  6934  6947       L1     6  0.65

> <Gold.Chemscore.Hbond.Weighted>
-2.7097

> <Gold.Chemscore.Metal.Weighted>
-0.0000

> <Gold.Chemscore.Lipo.Weighted>
-10.5441

> <Gold.Chemscore.Internal_Hbond.Weighted>
0.0000

> <Gold.Chemscore.DEClash.Weighted>
0.0879

> <Gold.Chemscore.DEInternal.Weighted>
3.7659

> <Gold.Chemscore.Rot.Weighted>
4.2858

> <Gold.Chemscore.Internal.Correction.Weighted>
   9.000000E+99

> <Gold.Protein.RotatedTorsions>
[ 6907 6896 6895 6894 ] final  -21.35 input  -60.11 | X-H torsion
[ 7974 7965 7964 7962 ] final -159.46 input  175.53 | X-H torsion
[ 8008 7997 7996 7995 ] final   48.01 input   59.86 | X-H torsion
[ 10167 10162 10161 10158 ] final  -47.55 input  -65.29 | X-H torsion
[ 10718 10713 10712 10709 ] final  157.28 input   66.30 | X-H torsion
[ 10763 10752 10751 10750 ] final  -42.44 input  -60.55 | X-H torsion
[ 11005 11000 10999 10996 ] final   43.34 input  -57.11 | X-H torsion

> <Gold.Protein.ActiveResidues>
 VAL166  LYS551  ARG553  GLY616  TRP617  ASP618  TYR619  PRO620  LYS621  CYS622 
 ASP623  PHE694  ASN695  SER759  ASP760  ASP761  ALA762  ILE779  LEU786  VAL792 
 PHE793  MET794  SER795  GLU796  ALA797  LYS798  CYS799  TRP800  GLU811  SER814 

> <Gold.Protein.RotatedAtoms>
  151.2346  135.0567  159.9000 H   0  0  0  0  0  0  0  0  0  0  0  0  # atno 6907 bound_to 6896
  152.5400  134.0500  159.8116 H   0  0  0  0  0  0  0  0  0  0  0  0  # atno 6908 bound_to 6896
  151.0684  133.5437  159.2660 H   0  0  0  0  0  0  0  0  0  0  0  0  # atno 6909 bound_to 6896
  144.7464  140.3682  143.6081 H   0  0  0  0  0  0  0  0  0  0  0  0  # atno 7974 bound_to 7965
  155.3786  140.3427  155.4246 H   0  0  0  0  0  0  0  0  0  0  0  0  # atno 8008 bound_to 7997
  156.1623  140.1605  156.8624 H   0  0  0  0  0  0  0  0  0  0  0  0  # atno 8009 bound_to 7997
  154.5151  140.0780  156.8048 H   0  0  0  0  0  0  0  0  0  0  0  0  # atno 8010 bound_to 7997
  140.6770  143.2779  151.3943 H   0  0  0  0  0  0  0  0  0  0  0  0  # atno 10167 bound_to 10162
  157.1936  131.0660  151.2065 H   0  0  0  0  0  0  0  0  0  0  0  0  # atno 10718 bound_to 10713
  153.9791  135.6719  153.4749 H   0  0  0  0  0  0  0  0  0  0  0  0  # atno 10763 bound_to 10752
  153.0757  135.4950  154.8395 H   0  0  0  0  0  0  0  0  0  0  0  0  # atno 10764 bound_to 10752
  154.7175  135.3110  154.9062 H   0  0  0  0  0  0  0  0  0  0  0  0  # atno 10765 bound_to 10752
  140.1654  134.4288  155.8290 H   0  0  0  0  0  0  0  0  0  0  0  0  # atno 11005 bound_to 11000
  145.7105  139.1683  143.2541 LP  0  0  0  0  0  0  0  0  0  0  0  0  # atno 17320 bound_to 7965
  146.1350  140.7135  142.9394 LP  0  0  0  0  0  0  0  0  0  0  0  0  # atno 17321 bound_to 7965
  139.6068  144.1180  152.2257 LP  0  0  0  0  0  0  0  0  0  0  0  0  # atno 17342 bound_to 10162
  140.0582  144.5878  150.7283 LP  0  0  0  0  0  0  0  0  0  0  0  0  # atno 17343 bound_to 10162
  157.3836  130.7245  149.6648 LP  0  0  0  0  0  0  0  0  0  0  0  0  # atno 17370 bound_to 10713
  155.9709  130.4165  150.4236 LP  0  0  0  0  0  0  0  0  0  0  0  0  # atno 17371 bound_to 10713
  141.2213  133.6932  156.7669 LP  0  0  0  0  0  0  0  0  0  0  0  0  # atno 17394 bound_to 11000
  140.2440  134.8592  157.3601 LP  0  0  0  0  0  0  0  0  0  0  0  0  # atno 17395 bound_to 11000

$$$$
