AV-unprocessed.smi:1854|AV-procd|sdf|7530|dock5
  -GOLD-   22720 9243D 1   1.00000     0.00000
 Structure written by MMmdl.
 40 42  0  0  0  0  0  0  0  0  2 V2000
  153.2778  136.5914  160.3782 O   0  0  0  0  0  0  0  0  0  0  0  0
  153.5653  136.7431  161.5643 C   0  0  0  0  0  0  0  0  0  0  0  0
  154.3888  137.6953  162.0257 N   0  0  0  0  0  0  0  0  0  0  0  0
  155.0216  138.7226  161.2036 C   0  0  0  0  0  0  0  0  0  0  0  0
  154.3563  140.0655  161.2679 C   0  0  0  0  0  0  0  0  0  0  0  0
  154.1474  140.8288  162.3803 N   0  3  0  0  0  0  0  0  0  0  0  0
  153.4924  142.0101  162.0310 C   0  0  0  0  0  0  0  0  0  0  0  0
  153.0699  143.0840  162.8086 C   0  0  0  0  0  0  0  0  0  0  0  0
  152.4218  144.1385  162.1321 C   0  0  0  0  0  0  0  0  0  0  0  0
  152.2158  144.0997  160.7375 C   0  0  0  0  0  0  0  0  0  0  0  0
  152.6509  143.0064  159.9596 C   0  0  0  0  0  0  0  0  0  0  0  0
  153.2916  141.9693  160.6368 C   0  0  0  0  0  0  0  0  0  0  0  0
  153.8454  140.7578  160.2096 N   0  0  0  0  0  0  0  0  0  0  0  0
  153.8038  140.4148  158.7826 C   0  0  0  0  0  0  0  0  0  0  0  0
  152.3784  140.4710  158.2206 C   0  0  0  0  0  0  0  0  0  0  0  0
  152.4239  140.0911  156.8536 O   0  0  0  0  0  0  0  0  0  0  0  0
  151.3148  140.3282  156.0685 C   0  0  0  0  0  0  0  0  0  0  0  0
  150.4035  141.3929  156.2887 C   0  0  0  0  0  0  0  0  0  0  0  0
  149.2926  141.5697  155.4413 C   0  0  0  0  0  0  0  0  0  0  0  0
  149.0764  140.6887  154.3665 C   0  0  0  0  0  0  0  0  0  0  0  0
  149.9738  139.6295  154.1391 C   0  0  0  0  0  0  0  0  0  0  0  0
  151.0863  139.4507  154.9846 C   0  0  0  0  0  0  0  0  0  0  0  0
  152.1729  138.1425  154.6820 Cl  0  0  0  0  0  0  0  0  0  0  0  0
  153.1866  136.1170  162.3868 H   0  0  0  0  0  0  0  0  0  0  0  0
  154.5635  137.7325  163.0198 H   0  0  0  0  0  0  0  0  0  0  0  0
  156.0720  138.8322  161.4785 H   0  0  0  0  0  0  0  0  0  0  0  0
  155.0078  138.3774  160.1694 H   0  0  0  0  0  0  0  0  0  0  0  0
  153.2262  143.1153  163.8768 H   0  0  0  0  0  0  0  0  0  0  0  0
  152.0750  144.9938  162.6940 H   0  0  0  0  0  0  0  0  0  0  0  0
  151.7138  144.9251  160.2538 H   0  0  0  0  0  0  0  0  0  0  0  0
  152.4878  142.9850  158.8922 H   0  0  0  0  0  0  0  0  0  0  0  0
  154.4692  141.0857  158.2382 H   0  0  0  0  0  0  0  0  0  0  0  0
  154.2143  139.4112  158.6672 H   0  0  0  0  0  0  0  0  0  0  0  0
  151.7343  139.7914  158.7809 H   0  0  0  0  0  0  0  0  0  0  0  0
  151.9787  141.4815  158.3186 H   0  0  0  0  0  0  0  0  0  0  0  0
  150.5335  142.0899  157.1022 H   0  0  0  0  0  0  0  0  0  0  0  0
  148.6046  142.3836  155.6175 H   0  0  0  0  0  0  0  0  0  0  0  0
  148.2237  140.8246  153.7178 H   0  0  0  0  0  0  0  0  0  0  0  0
  149.8081  138.9526  153.3139 H   0  0  0  0  0  0  0  0  0  0  0  0
  154.4392  140.5575  163.3106 H   0  0  0  0  0  0  0  0  0  0  0  0
  1  2  2  0  0  0  0
  2  3  1  0  0  0  0
  2 24  1  0  0  0  0
  3  4  1  0  0  0  0
  3 25  1  0  0  0  0
  4  5  1  0  0  0  0
  4 26  1  0  0  0  0
  4 27  1  0  0  0  0
  5 13  1  0  0  0  0
  5  6  2  0  0  0  0
  6  7  1  0  0  0  0
  6 40  1  0  0  0  0
  7 12  2  0  0  0  0
  7  8  1  0  0  0  0
  8  9  2  0  0  0  0
  8 28  1  0  0  0  0
  9 10  1  0  0  0  0
  9 29  1  0  0  0  0
 10 11  2  0  0  0  0
 10 30  1  0  0  0  0
 11 12  1  0  0  0  0
 11 31  1  0  0  0  0
 12 13  1  0  0  0  0
 13 14  1  0  0  0  0
 14 15  1  0  0  0  0
 14 32  1  0  0  0  0
 14 33  1  0  0  0  0
 15 16  1  0  0  0  0
 15 34  1  0  0  0  0
 15 35  1  0  0  0  0
 16 17  1  0  0  0  0
 17 22  1  0  0  0  0
 17 18  2  0  0  0  0
 18 19  1  0  0  0  0
 18 36  1  0  0  0  0
 19 20  2  0  0  0  0
 19 37  1  0  0  0  0
 20 21  1  0  0  0  0
 20 38  1  0  0  0  0
 21 22  2  0  0  0  0
 21 39  1  0  0  0  0
 22 23  1  0  0  0  0
M  CHG  1   6   1
M  END
> <s_m_source_file>
AV-unprocessed.smi

> <i_m_source_file_index>
1854

> <i_lp_mmshare_version>
43012

> <i_f3d_flags>
0

> <s_epik_input>
Tz1bQ0hdW05IXVtDSDJdYyhuMSluKGMoYzEyKVtjSF1bY0hdW2NIXVtjSF0yKVtDSDJdW0NIMl1PYzNbY0hdW2NIXVtjSF1bY0hdYzNDbA==

> <s_epik_cmdline>
J2VwaWtfcHl0aG9uJywgJy1waCcsICc3LjAnLCAnLXRuJywgJzgnLCAnLW1hJywgJzIwMCcsICctbWV0YWxfYmluZGluZycsICctaW1hZScsICc8aW5maWxlLm1hZT4nLCAnLW9tYWUnLCAnPG91dGZpbGUubWFlPic=

> <r_lp_tautomer_probability>
1

> <r_epik_Ionization_Penalty>
1.43948

> <r_epik_Ionization_Penalty_Charging>
1.43948

> <r_epik_Ionization_Penalty_Neutral>
7.38905e-08

> <r_epik_State_Penalty>
1.52475

> <r_epik_Charging_Adjusted_Penalty>
2.96423

> <i_epik_Tot_Q>
1

> <i_epik_Tot_abs_Q>
1

> <r_epik_Metal_State_Penalty>
1.5754

> <b_epik_Metal_Only>
0

> <s_lp_Force_Field>
OPLS_2005

> <r_lp_Energy>
16.1695

> <b_lp_Chiralities_Consistent>
1

> <s_lp_Variant>
AV-unprocessed.smi:1854-2

> <Gold.Version>
5.8.1

> <Gold.Id.Protein>
6NUR|6NUR_protein|mol2

> <Gold.PLP.Fitness>
53.6657

> <Gold.PLP.PLP>
-48.8803

> <Gold.PLP.part.hbond>
-1.9352

> <Gold.PLP.part.metal>
0.0000

> <Gold.PLP.part.buried>
1.3272

> <Gold.PLP.part.nonpolar>
-47.9849

> <Gold.PLP.part.repulsive>
0.0000

> <Gold.PLP.ligand.clash>
0.0000

> <Gold.PLP.ligand.torsion>
0.5813

> <Gold.PLP.Chemscore.Hbond>
1.9750

> <Gold.PLP.Chemscore.CHOScore>
0.0000

> <Gold.PLP.Chemscore.Metal>
0.0000

> <Gold.Chemscore.Hbonds>
donor molecule, donor type, donor heavy atom, donor atom, acceptor molecule, acceptor atom, score
      P1  H  6896  6909       L1     1  1.00
      P1  H  7997  8009       L1    16  1.00

> <Gold.PLP.Chemscore.Internal.Correction>
0.0230

> <Gold.Rescore>
     Score         DG    S(hbond)    S(metal)    S(lipo)     H(rot)  DE(clash)    DE(int)     intcor
     19.27     -21.30       1.71        0.00     140.73       2.49       1.47       0.56       ----

> <Gold.Chemscore.Fitness>
19.2653

> <Gold.Chemscore.DG>
-21.3027

> <Gold.Chemscore.ZeroCoef>
-5.4800

> <Gold.Chemscore.Hbond>
1.7124

> <Gold.Chemscore.Metal>
0.0000

> <Gold.Chemscore.Lipo>
140.7338

> <Gold.Chemscore.Internal_Hbond>
0.0000

> <Gold.Chemscore.DEClash>
1.4726

> <Gold.Chemscore.DEInternal>
0.5647

> <Gold.Chemscore.Rot>
2.4854

> <Gold.Chemscore.Internal.Correction>
   9.000000E+99

> <Gold.Chemscore.Hbonds>
donor molecule, donor type, donor heavy atom, donor atom, acceptor molecule, acceptor atom, score
      P1  H  6896  6909       L1     1  0.79
      P1  H  7997  8009       L1    16  0.29

> <Gold.Chemscore.Hbond.Weighted>
-5.7195

> <Gold.Chemscore.Metal.Weighted>
-0.0000

> <Gold.Chemscore.Lipo.Weighted>
-16.4659

> <Gold.Chemscore.Internal_Hbond.Weighted>
0.0000

> <Gold.Chemscore.DEClash.Weighted>
1.4726

> <Gold.Chemscore.DEInternal.Weighted>
0.5647

> <Gold.Chemscore.Rot.Weighted>
6.3627

> <Gold.Chemscore.Internal.Correction.Weighted>
   9.000000E+99

> <Gold.Protein.RotatedTorsions>
[ 6907 6896 6895 6894 ] final  159.62 input  -60.11 | X-H torsion
[ 7974 7965 7964 7962 ] final -170.08 input  175.53 | X-H torsion
[ 8008 7997 7996 7995 ] final -173.31 input   59.86 | X-H torsion
[ 10167 10162 10161 10158 ] final -114.83 input  -65.29 | X-H torsion
[ 10718 10713 10712 10709 ] final -175.69 input   66.30 | X-H torsion
[ 10763 10752 10751 10750 ] final  -25.15 input  -60.55 | X-H torsion
[ 11005 11000 10999 10996 ] final -116.17 input  -57.11 | X-H torsion

> <Gold.Protein.ActiveResidues>
 VAL166  LYS551  ARG553  GLY616  TRP617  ASP618  TYR619  PRO620  LYS621  CYS622 
 ASP623  PHE694  ASN695  SER759  ASP760  ASP761  ALA762  ILE779  LEU786  VAL792 
 PHE793  MET794  SER795  GLU796  ALA797  LYS798  CYS799  TRP800  GLU811  SER814 

> <Gold.Protein.RotatedAtoms>
  151.9828  133.3763  159.4113 H   0  0  0  0  0  0  0  0  0  0  0  0  # atno 6907 bound_to 6896
  150.6932  134.4020  159.5132 H   0  0  0  0  0  0  0  0  0  0  0  0  # atno 6908 bound_to 6896
  152.1742  134.8809  160.0582 H   0  0  0  0  0  0  0  0  0  0  0  0  # atno 6909 bound_to 6896
  144.7175  140.2125  143.6326 H   0  0  0  0  0  0  0  0  0  0  0  0  # atno 7974 bound_to 7965
  155.9558  140.1135  157.0938 H   0  0  0  0  0  0  0  0  0  0  0  0  # atno 8008 bound_to 7997
  154.4120  140.1191  156.5179 H   0  0  0  0  0  0  0  0  0  0  0  0  # atno 8009 bound_to 7997
  155.6784  140.3473  155.4848 H   0  0  0  0  0  0  0  0  0  0  0  0  # atno 8010 bound_to 7997
  140.0967  143.4650  152.1837 H   0  0  0  0  0  0  0  0  0  0  0  0  # atno 10167 bound_to 10162
  156.8036  130.9561  151.3118 H   0  0  0  0  0  0  0  0  0  0  0  0  # atno 10718 bound_to 10713
  153.6952  135.6959  153.5078 H   0  0  0  0  0  0  0  0  0  0  0  0  # atno 10763 bound_to 10752
  153.2383  135.4314  155.0670 H   0  0  0  0  0  0  0  0  0  0  0  0  # atno 10764 bound_to 10752
  154.8361  135.3501  154.6493 H   0  0  0  0  0  0  0  0  0  0  0  0  # atno 10765 bound_to 10752
  141.0440  133.9792  157.2948 H   0  0  0  0  0  0  0  0  0  0  0  0  # atno 11005 bound_to 11000
  145.8577  139.2207  143.1735 LP  0  0  0  0  0  0  0  0  0  0  0  0  # atno 17320 bound_to 7965
  146.0202  140.8355  142.9927 LP  0  0  0  0  0  0  0  0  0  0  0  0  # atno 17321 bound_to 7965
  139.5694  144.7454  151.3932 LP  0  0  0  0  0  0  0  0  0  0  0  0  # atno 17342 bound_to 10162
  140.7000  143.7656  150.7387 LP  0  0  0  0  0  0  0  0  0  0  0  0  # atno 17343 bound_to 10162
  157.6541  130.8909  149.9693 LP  0  0  0  0  0  0  0  0  0  0  0  0  # atno 17370 bound_to 10713
  156.1086  130.3651  150.0089 LP  0  0  0  0  0  0  0  0  0  0  0  0  # atno 17371 bound_to 10713
  139.9297  135.0200  156.8358 LP  0  0  0  0  0  0  0  0  0  0  0  0  # atno 17394 bound_to 11000
  140.6182  134.0019  155.7606 LP  0  0  0  0  0  0  0  0  0  0  0  0  # atno 17395 bound_to 11000

$$$$
