AV-unprocessed.smi:2243|AV-procd|sdf|9065|dock10
  -GOLD-   2272012273D 1   1.00000     0.00000
 Structure written by MMmdl.
 35 36  0  0  0  0  0  0  0  0  2 V2000
  145.7082  133.9337  154.1156 C   0  0  0  0  0  0  0  0  0  0  0  0
  145.3009  134.8971  152.9874 C   0  0  1  0  0  0  0  0  0  0  0  0
  146.3069  135.9580  152.9147 N   0  0  0  0  0  0  0  0  0  0  0  0
  146.1331  137.2353  153.2890 C   0  0  0  0  0  0  0  0  0  0  0  0
  145.0787  137.6823  153.7415 O   0  0  0  0  0  0  0  0  0  0  0  0
  147.2482  137.9586  153.1051 N   0  0  0  0  0  0  0  0  0  0  0  0
  147.3963  139.3342  153.3969 C   0  0  0  0  0  0  0  0  0  0  0  0
  146.4990  140.2651  153.0757 N   0  3  0  0  0  0  0  0  0  0  0  0
  146.9577  141.4859  153.5049 C   0  0  0  0  0  0  0  0  0  0  0  0
  148.1728  141.2409  154.0984 C   0  0  0  0  0  0  0  0  0  0  0  0
  148.4623  139.8924  154.0382 O   0  0  0  0  0  0  0  0  0  0  0  0
  145.1434  134.1987  151.6100 C   0  0  0  0  0  0  0  0  0  0  0  0
  143.8740  133.3234  151.5294 C   0  0  0  0  0  0  0  0  0  0  0  0
  143.7873  132.5826  150.1854 C   0  0  0  0  0  0  0  0  0  0  0  0
  144.9526  131.7919  149.9896 O   0  0  0  0  0  0  0  0  0  0  0  0
  146.1390  132.5728  149.9242 C   0  0  0  0  0  0  0  0  0  0  0  0
  146.3562  133.3147  151.2531 C   0  0  0  0  0  0  0  0  0  0  0  0
  144.9343  133.1927  154.3139 H   0  0  0  0  0  0  0  0  0  0  0  0
  145.8733  134.4726  155.0494 H   0  0  0  0  0  0  0  0  0  0  0  0
  146.6284  133.4014  153.8730 H   0  0  0  0  0  0  0  0  0  0  0  0
  144.3337  135.3236  153.2589 H   0  0  0  0  0  0  0  0  0  0  0  0
  147.2107  135.6891  152.5538 H   0  0  0  0  0  0  0  0  0  0  0  0
  145.6164  140.1371  152.5966 H   0  0  0  0  0  0  0  0  0  0  0  0
  146.3857  142.3893  153.3485 H   0  0  0  0  0  0  0  0  0  0  0  0
  148.9090  141.8686  154.5793 H   0  0  0  0  0  0  0  0  0  0  0  0
  145.0594  134.9734  150.8461 H   0  0  0  0  0  0  0  0  0  0  0  0
  143.8762  132.5968  152.3430 H   0  0  0  0  0  0  0  0  0  0  0  0
  142.9760  133.9282  151.6554 H   0  0  0  0  0  0  0  0  0  0  0  0
  142.9145  131.9295  150.1741 H   0  0  0  0  0  0  0  0  0  0  0  0
  143.6682  133.2864  149.3599 H   0  0  0  0  0  0  0  0  0  0  0  0
  146.9825  131.9118  149.7242 H   0  0  0  0  0  0  0  0  0  0  0  0
  146.0810  133.2749  149.0910 H   0  0  0  0  0  0  0  0  0  0  0  0
  147.2628  133.9138  151.1730 H   0  0  0  0  0  0  0  0  0  0  0  0
  146.5301  132.5875  152.0472 H   0  0  0  0  0  0  0  0  0  0  0  0
  148.0564  137.4873  152.7264 H   0  0  0  0  0  0  0  0  0  0  0  0
  1  2  1  0  0  0  0
  1 18  1  0  0  0  0
  1 19  1  0  0  0  0
  1 20  1  0  0  0  0
  2  3  1  0  0  0  0
  2 12  1  0  0  0  0
  2 21  1  0  0  0  0
  3 22  1  0  0  0  0
  3  4  1  0  0  0  0
  4  6  1  0  0  0  0
  4  5  2  0  0  0  0
  6  7  1  0  0  0  0
  6 35  1  0  0  0  0
  7 11  1  0  0  0  0
  7  8  2  0  0  0  0
  8 23  1  0  0  0  0
  8  9  1  0  0  0  0
  9 24  1  0  0  0  0
  9 10  2  0  0  0  0
 10 25  1  0  0  0  0
 10 11  1  0  0  0  0
 12 17  1  0  0  0  0
 12 13  1  0  0  0  0
 12 26  1  0  0  0  0
 13 14  1  0  0  0  0
 13 27  1  0  0  0  0
 13 28  1  0  0  0  0
 14 15  1  0  0  0  0
 14 29  1  0  0  0  0
 14 30  1  0  0  0  0
 15 16  1  0  0  0  0
 16 17  1  0  0  0  0
 16 31  1  0  0  0  0
 16 32  1  0  0  0  0
 17 33  1  0  0  0  0
 17 34  1  0  0  0  0
M  CHG  1   8   1
M  END
> <s_m_source_file>
AV-unprocessed.smi

> <i_m_source_file_index>
2243

> <i_lp_mmshare_version>
43012

> <i_f3d_flags>
0

> <s_epik_input>
W0NIMl0xW0NIMl1PW0NIMl1bQ0gyXVtDSF0xW0NASF0oW0NIM10pW05IXUMoPU8pW05IXWMybltjSF1bY0hdbzI=

> <s_epik_cmdline>
J2VwaWtfcHl0aG9uJywgJy1waCcsICc3LjAnLCAnLXRuJywgJzgnLCAnLW1hJywgJzIwMCcsICctbWV0YWxfYmluZGluZycsICctaW1hZScsICc8aW5maWxlLm1hZT4nLCAnLW9tYWUnLCAnPG91dGZpbGUubWFlPic=

> <r_epik_Ionization_Penalty>
6.61405

> <r_epik_Ionization_Penalty_Charging>
6.55981

> <r_epik_Ionization_Penalty_Neutral>
0.0542461

> <r_epik_State_Penalty>
1.79186

> <r_epik_Charging_Adjusted_Penalty>
8.35167

> <i_epik_Tot_Q>
1

> <i_epik_Tot_abs_Q>
1

> <r_epik_Metal_State_Penalty>
1.80655

> <b_epik_Metal_Only>
0

> <s_lp_Force_Field>
OPLS_2005

> <r_lp_Energy>
19.6033

> <b_lp_Chiralities_Consistent>
1

> <s_lp_Variant>
AV-unprocessed.smi:2243-4

> <Gold.Version>
5.8.1

> <Gold.Id.Protein>
6NUR|6NUR_protein|mol2

> <Gold.PLP.Fitness>
37.8805

> <Gold.PLP.PLP>
-27.1015

> <Gold.PLP.part.hbond>
-3.0658

> <Gold.PLP.part.metal>
0.0000

> <Gold.PLP.part.buried>
-5.5930

> <Gold.PLP.part.nonpolar>
-18.7449

> <Gold.PLP.part.repulsive>
0.6475

> <Gold.PLP.ligand.clash>
0.0000

> <Gold.PLP.ligand.torsion>
0.6064

> <Gold.PLP.Chemscore.Hbond>
3.9920

> <Gold.PLP.Chemscore.CHOScore>
0.0000

> <Gold.PLP.Chemscore.Metal>
0.0000

> <Gold.Chemscore.Hbonds>
donor molecule, donor type, donor heavy atom, donor atom, acceptor molecule, acceptor atom, score
      L1  H     3    22       P1  7948  0.99
      L1  H     6    35       P1  7948  1.00
      L1  H     8    23       P1 10175  2.00

> <Gold.PLP.Chemscore.Internal.Correction>
0.0158

> <Gold.Rescore>
     Score         DG    S(hbond)    S(metal)    S(lipo)     H(rot)  DE(clash)    DE(int)     intcor
     17.79     -18.32       2.90        0.00      56.14       1.33       0.00       0.53       ----

> <Gold.Chemscore.Fitness>
17.7909

> <Gold.Chemscore.DG>
-18.3171

> <Gold.Chemscore.ZeroCoef>
-5.4800

> <Gold.Chemscore.Hbond>
2.8978

> <Gold.Chemscore.Metal>
0.0000

> <Gold.Chemscore.Lipo>
56.1434

> <Gold.Chemscore.Internal_Hbond>
0.0000

> <Gold.Chemscore.DEClash>
0.0009

> <Gold.Chemscore.DEInternal>
0.5253

> <Gold.Chemscore.Rot>
1.3321

> <Gold.Chemscore.Internal.Correction>
   9.000000E+99

> <Gold.Chemscore.Hbonds>
donor molecule, donor type, donor heavy atom, donor atom, acceptor molecule, acceptor atom, score
      L1  H     3    22       P1  7948  0.93
      L1  H     6    35       P1  7948  0.99
      L1  H     8    23       P1 10175  0.84

> <Gold.Chemscore.Hbond.Weighted>
-9.6786

> <Gold.Chemscore.Metal.Weighted>
-0.0000

> <Gold.Chemscore.Lipo.Weighted>
-6.5688

> <Gold.Chemscore.Internal_Hbond.Weighted>
0.0000

> <Gold.Chemscore.DEClash.Weighted>
0.0009

> <Gold.Chemscore.DEInternal.Weighted>
0.5253

> <Gold.Chemscore.Rot.Weighted>
3.4103

> <Gold.Chemscore.Internal.Correction.Weighted>
   9.000000E+99

> <Gold.Protein.RotatedTorsions>
[ 6907 6896 6895 6894 ] final   25.13 input  -60.11 | X-H torsion
[ 7974 7965 7964 7962 ] final -153.72 input  175.53 | X-H torsion
[ 8008 7997 7996 7995 ] final   -8.05 input   59.86 | X-H torsion
[ 10167 10162 10161 10158 ] final  -34.81 input  -65.29 | X-H torsion
[ 10718 10713 10712 10709 ] final  -86.36 input   66.30 | X-H torsion
[ 10763 10752 10751 10750 ] final  -23.87 input  -60.55 | X-H torsion
[ 11005 11000 10999 10996 ] final  138.10 input  -57.11 | X-H torsion

> <Gold.Protein.ActiveResidues>
 VAL166  LYS551  ARG553  GLY616  TRP617  ASP618  TYR619  PRO620  LYS621  CYS622 
 ASP623  PHE694  ASN695  SER759  ASP760  ASP761  ALA762  ILE779  LEU786  VAL792 
 PHE793  MET794  SER795  GLU796  ALA797  LYS798  CYS799  TRP800  GLU811  SER814 

> <Gold.Protein.RotatedAtoms>
  151.9679  135.0091  160.0550 H   0  0  0  0  0  0  0  0  0  0  0  0  # atno 6907 bound_to 6896
  152.1810  133.4702  159.4966 H   0  0  0  0  0  0  0  0  0  0  0  0  # atno 6908 bound_to 6896
  150.6917  134.1751  159.4270 H   0  0  0  0  0  0  0  0  0  0  0  0  # atno 6909 bound_to 6896
  144.7726  140.4486  143.5896 H   0  0  0  0  0  0  0  0  0  0  0  0  # atno 7974 bound_to 7965
  154.5779  140.2391  155.8096 H   0  0  0  0  0  0  0  0  0  0  0  0  # atno 8008 bound_to 7997
  156.2157  140.3013  155.9790 H   0  0  0  0  0  0  0  0  0  0  0  0  # atno 8009 bound_to 7997
  155.2594  140.0414  157.2986 H   0  0  0  0  0  0  0  0  0  0  0  0  # atno 8010 bound_to 7997
  140.7178  143.3521  151.2134 H   0  0  0  0  0  0  0  0  0  0  0  0  # atno 10167 bound_to 10162
  155.9990  130.4762  150.4703 H   0  0  0  0  0  0  0  0  0  0  0  0  # atno 10718 bound_to 10713
  153.6747  135.6970  153.5136 H   0  0  0  0  0  0  0  0  0  0  0  0  # atno 10763 bound_to 10752
  153.2531  135.4268  155.0817 H   0  0  0  0  0  0  0  0  0  0  0  0  # atno 10764 bound_to 10752
  154.8417  135.3536  154.6290 H   0  0  0  0  0  0  0  0  0  0  0  0  # atno 10765 bound_to 10752
  140.0160  134.9418  157.0376 H   0  0  0  0  0  0  0  0  0  0  0  0  # atno 11005 bound_to 11000
  145.6280  139.1532  143.2985 LP  0  0  0  0  0  0  0  0  0  0  0  0  # atno 17320 bound_to 7965
  146.1883  140.6385  142.9157 LP  0  0  0  0  0  0  0  0  0  0  0  0  # atno 17321 bound_to 7965
  139.7055  143.9463  152.2924 LP  0  0  0  0  0  0  0  0  0  0  0  0  # atno 17342 bound_to 10162
  139.9170  144.6822  150.8501 LP  0  0  0  0  0  0  0  0  0  0  0  0  # atno 17343 bound_to 10162
  157.2719  131.0589  151.2254 LP  0  0  0  0  0  0  0  0  0  0  0  0  # atno 17370 bound_to 10713
  157.3332  130.6995  149.6336 LP  0  0  0  0  0  0  0  0  0  0  0  0  # atno 17371 bound_to 10713
  140.4471  134.1621  155.7178 LP  0  0  0  0  0  0  0  0  0  0  0  0  # atno 17394 bound_to 11000
  141.1743  133.8546  157.1472 LP  0  0  0  0  0  0  0  0  0  0  0  0  # atno 17395 bound_to 11000

$$$$
