AV-unprocessed.smi:3346|AV-procd|sdf|12910|dock9
  -GOLD-   2272019323D 1   1.00000     0.00000
 Structure written by MMmdl.
 47 48  0  0  0  0  0  0  0  0  1 V2000
  148.5413  141.1885  154.1734 C   0  0  0  0  0  0  0  0  0  0  0  0
  149.7138  140.2228  154.4165 C   0  0  0  0  0  0  0  0  0  0  0  0
  149.1961  138.7842  154.5661 C   0  0  0  0  0  0  0  0  0  0  0  0
  150.5661  140.6218  155.6421 C   0  0  0  0  0  0  0  0  0  0  0  0
  151.5561  139.5467  156.1401 C   0  0  1  0  0  0  0  0  0  0  0  0
  152.4064  138.9891  154.9898 C   0  0  0  0  0  0  0  0  0  0  0  0
  152.4725  140.1325  157.1104 N   0  0  0  0  0  0  0  0  0  0  0  0
  151.7820  140.4712  158.3444 C   0  0  0  0  0  0  0  0  0  0  0  0
  152.7313  140.5576  159.5269 C   0  0  0  0  0  0  0  0  0  0  0  0
  153.3997  139.3963  159.9671 C   0  0  0  0  0  0  0  0  0  0  0  0
  154.2834  139.4869  161.0580 C   0  0  0  0  0  0  0  0  0  0  0  0
  154.4635  140.7421  161.6681 C   0  0  0  0  0  0  0  0  0  0  0  0
  153.8279  141.8606  161.2608 N   0  0  0  0  0  0  0  0  0  0  0  0
  152.9756  141.7766  160.2102 C   0  0  0  0  0  0  0  0  0  0  0  0
  152.3073  142.9495  159.8214 N   0  0  0  0  0  0  0  0  0  0  0  0
  152.4225  144.0229  160.8001 C   0  0  0  0  0  0  0  0  0  0  0  0
  151.5194  145.2011  160.3960 C   0  0  0  0  0  0  0  0  0  0  0  0
  151.8437  145.6246  159.0743 O   0  0  0  0  0  0  0  0  0  0  0  0
  151.6572  144.5852  158.1173 C   0  0  0  0  0  0  0  0  0  0  0  0
  152.5759  143.4008  158.4614 C   0  0  0  0  0  0  0  0  0  0  0  0
  147.8801  141.2343  155.0393 H   0  0  0  0  0  0  0  0  0  0  0  0
  147.9446  140.8702  153.3181 H   0  0  0  0  0  0  0  0  0  0  0  0
  148.8861  142.2002  153.9624 H   0  0  0  0  0  0  0  0  0  0  0  0
  150.3507  140.2378  153.5317 H   0  0  0  0  0  0  0  0  0  0  0  0
  148.5459  138.6857  155.4361 H   0  0  0  0  0  0  0  0  0  0  0  0
  150.0196  138.0796  154.6844 H   0  0  0  0  0  0  0  0  0  0  0  0
  148.6268  138.4772  153.6882 H   0  0  0  0  0  0  0  0  0  0  0  0
  151.1213  141.5273  155.3934 H   0  0  0  0  0  0  0  0  0  0  0  0
  149.9072  140.9011  156.4660 H   0  0  0  0  0  0  0  0  0  0  0  0
  151.0090  138.7095  156.5744 H   0  0  0  0  0  0  0  0  0  0  0  0
  151.7780  138.5246  154.2294 H   0  0  0  0  0  0  0  0  0  0  0  0
  153.1010  138.2279  155.3469 H   0  0  0  0  0  0  0  0  0  0  0  0
  152.9900  139.7725  154.5044 H   0  0  0  0  0  0  0  0  0  0  0  0
  153.1921  139.4564  157.3216 H   0  0  0  0  0  0  0  0  0  0  0  0
  151.2750  141.4297  158.2287 H   0  0  0  0  0  0  0  0  0  0  0  0
  151.0085  139.7305  158.5507 H   0  0  0  0  0  0  0  0  0  0  0  0
  153.2386  138.4480  159.4753 H   0  0  0  0  0  0  0  0  0  0  0  0
  154.8102  138.6158  161.4182 H   0  0  0  0  0  0  0  0  0  0  0  0
  155.1341  140.8511  162.5076 H   0  0  0  0  0  0  0  0  0  0  0  0
  152.1454  143.6616  161.7910 H   0  0  0  0  0  0  0  0  0  0  0  0
  153.4609  144.3520  160.8573 H   0  0  0  0  0  0  0  0  0  0  0  0
  150.4668  144.9199  160.4486 H   0  0  0  0  0  0  0  0  0  0  0  0
  151.6611  146.0355  161.0826 H   0  0  0  0  0  0  0  0  0  0  0  0
  150.6110  144.2746  158.1012 H   0  0  0  0  0  0  0  0  0  0  0  0
  151.8918  144.9676  157.1238 H   0  0  0  0  0  0  0  0  0  0  0  0
  153.6191  143.7057  158.3686 H   0  0  0  0  0  0  0  0  0  0  0  0
  152.4128  142.5813  157.7607 H   0  0  0  0  0  0  0  0  0  0  0  0
  1  2  1  0  0  0  0
  1 21  1  0  0  0  0
  1 22  1  0  0  0  0
  1 23  1  0  0  0  0
  2  3  1  0  0  0  0
  2  4  1  0  0  0  0
  2 24  1  0  0  0  0
  3 25  1  0  0  0  0
  3 26  1  0  0  0  0
  3 27  1  0  0  0  0
  4  5  1  0  0  0  0
  4 28  1  0  0  0  0
  4 29  1  0  0  0  0
  5  6  1  0  0  0  0
  5  7  1  0  0  0  0
  5 30  1  0  0  0  0
  6 31  1  0  0  0  0
  6 32  1  0  0  0  0
  6 33  1  0  0  0  0
  7  8  1  0  0  0  0
  7 34  1  0  0  0  0
  8  9  1  0  0  0  0
  8 35  1  0  0  0  0
  8 36  1  0  0  0  0
  9 14  1  0  0  0  0
  9 10  2  0  0  0  0
 10 11  1  0  0  0  0
 10 37  1  0  0  0  0
 11 12  2  0  0  0  0
 11 38  1  0  0  0  0
 12 13  1  0  0  0  0
 12 39  1  0  0  0  0
 13 14  2  0  0  0  0
 14 15  1  0  0  0  0
 15 20  1  0  0  0  0
 15 16  1  0  0  0  0
 16 17  1  0  0  0  0
 16 40  1  0  0  0  0
 16 41  1  0  0  0  0
 17 18  1  0  0  0  0
 17 42  1  0  0  0  0
 17 43  1  0  0  0  0
 18 19  1  0  0  0  0
 19 20  1  0  0  0  0
 19 44  1  0  0  0  0
 19 45  1  0  0  0  0
 20 46  1  0  0  0  0
 20 47  1  0  0  0  0
M  END
> <s_m_source_file>
AV-unprocessed.smi

> <i_m_source_file_index>
3346

> <i_lp_mmshare_version>
43012

> <i_f3d_flags>
0

> <s_epik_input>
W0NIM11bQ0hdKFtDSDNdKVtDSDJdW0NASF0oW0NIM10pW05IXVtDSDJdYzFbY0hdW2NIXVtjSF1uYzFOMltDSDJdW0NIMl1PW0NIMl1bQ0gyXTI=

> <s_epik_cmdline>
J2VwaWtfcHl0aG9uJywgJy1waCcsICc3LjAnLCAnLXRuJywgJzgnLCAnLW1hJywgJzIwMCcsICctbWV0YWxfYmluZGluZycsICctaW1hZScsICc8aW5maWxlLm1hZT4nLCAnLW9tYWUnLCAnPG91dGZpbGUubWFlPic=

> <r_lp_tautomer_probability>
1

> <r_epik_Ionization_Penalty>
2.09752

> <r_epik_Ionization_Penalty_Charging>
0

> <r_epik_Ionization_Penalty_Neutral>
2.09752

> <r_epik_State_Penalty>
2.22589

> <r_epik_Charging_Adjusted_Penalty>
2.22589

> <i_epik_Tot_Q>
0

> <i_epik_Tot_abs_Q>
0

> <r_epik_Metal_State_Penalty>
2.21996

> <b_epik_Metal_Only>
0

> <s_lp_Force_Field>
OPLS_2005

> <r_lp_Energy>
27.6792

> <b_lp_Chiralities_Consistent>
1

> <s_lp_Variant>
AV-unprocessed.smi:3346-4

> <Gold.Version>
5.8.1

> <Gold.Id.Protein>
6NUR|6NUR_protein|mol2

> <Gold.PLP.Fitness>
47.6287

> <Gold.PLP.PLP>
-48.4416

> <Gold.PLP.part.hbond>
-2.1010

> <Gold.PLP.part.metal>
0.0000

> <Gold.PLP.part.buried>
-2.9347

> <Gold.PLP.part.nonpolar>
-42.0744

> <Gold.PLP.part.repulsive>
0.1110

> <Gold.PLP.ligand.clash>
0.0000

> <Gold.PLP.ligand.torsion>
0.5086

> <Gold.PLP.Chemscore.Hbond>
0.0000

> <Gold.PLP.Chemscore.CHOScore>
0.0000

> <Gold.PLP.Chemscore.Metal>
0.0000

> <Gold.PLP.Chemscore.Internal.Correction>
0.2043

> <Gold.Rescore>
     Score         DG    S(hbond)    S(metal)    S(lipo)     H(rot)  DE(clash)    DE(int)     intcor
     15.42     -16.22       0.00        0.00     125.71       1.55       0.14       0.66       ----

> <Gold.Chemscore.Fitness>
15.4228

> <Gold.Chemscore.DG>
-16.2162

> <Gold.Chemscore.ZeroCoef>
-5.4800

> <Gold.Chemscore.Hbond>
0.0000

> <Gold.Chemscore.Metal>
0.0000

> <Gold.Chemscore.Lipo>
125.7073

> <Gold.Chemscore.Internal_Hbond>
0.0000

> <Gold.Chemscore.DEClash>
0.1377

> <Gold.Chemscore.DEInternal>
0.6556

> <Gold.Chemscore.Rot>
1.5514

> <Gold.Chemscore.Internal.Correction>
   9.000000E+99

> <Gold.Chemscore.Hbond.Weighted>
-0.0000

> <Gold.Chemscore.Metal.Weighted>
-0.0000

> <Gold.Chemscore.Lipo.Weighted>
-14.7078

> <Gold.Chemscore.Internal_Hbond.Weighted>
0.0000

> <Gold.Chemscore.DEClash.Weighted>
0.1377

> <Gold.Chemscore.DEInternal.Weighted>
0.6556

> <Gold.Chemscore.Rot.Weighted>
3.9715

> <Gold.Chemscore.Internal.Correction.Weighted>
   9.000000E+99

> <Gold.Protein.RotatedTorsions>
[ 6907 6896 6895 6894 ] final   98.07 input  -60.11 | X-H torsion
[ 7974 7965 7964 7962 ] final  114.92 input  175.53 | X-H torsion
[ 8008 7997 7996 7995 ] final  171.58 input   59.86 | X-H torsion
[ 10167 10162 10161 10158 ] final -145.40 input  -65.29 | X-H torsion
[ 10718 10713 10712 10709 ] final  -88.37 input   66.30 | X-H torsion
[ 10763 10752 10751 10750 ] final -164.38 input  -60.55 | X-H torsion
[ 11005 11000 10999 10996 ] final -109.86 input  -57.11 | X-H torsion

> <Gold.Protein.ActiveResidues>
 VAL166  LYS551  ARG553  GLY616  TRP617  ASP618  TYR619  PRO620  LYS621  CYS622 
 ASP623  PHE694  ASN695  SER759  ASP760  ASP761  ALA762  ILE779  LEU786  VAL792 
 PHE793  MET794  SER795  GLU796  ALA797  LYS798  CYS799  TRP800  GLU811  SER814 

> <Gold.Protein.RotatedAtoms>
  152.5414  134.0637  159.8163 H   0  0  0  0  0  0  0  0  0  0  0  0  # atno 6907 bound_to 6896
  151.0761  133.5420  159.2631 H   0  0  0  0  0  0  0  0  0  0  0  0  # atno 6908 bound_to 6896
  151.2264  135.0546  159.9024 H   0  0  0  0  0  0  0  0  0  0  0  0  # atno 6909 bound_to 6896
  145.1984  139.2964  143.4331 H   0  0  0  0  0  0  0  0  0  0  0  0  # atno 7974 bound_to 7965
  156.1257  140.1508  156.9140 H   0  0  0  0  0  0  0  0  0  0  0  0  # atno 8008 bound_to 7997
  154.4870  140.0862  156.7549 H   0  0  0  0  0  0  0  0  0  0  0  0  # atno 8009 bound_to 7997
  155.4348  140.3428  155.4286 H   0  0  0  0  0  0  0  0  0  0  0  0  # atno 8010 bound_to 7997
  139.7809  143.8102  152.2638 H   0  0  0  0  0  0  0  0  0  0  0  0  # atno 10167 bound_to 10162
  155.9984  130.4833  150.5010 H   0  0  0  0  0  0  0  0  0  0  0  0  # atno 10718 bound_to 10713
  154.7033  135.2992  154.9308 H   0  0  0  0  0  0  0  0  0  0  0  0  # atno 10763 bound_to 10752
  154.0233  135.6680  153.4778 H   0  0  0  0  0  0  0  0  0  0  0  0  # atno 10764 bound_to 10752
  153.0698  135.5067  154.8190 H   0  0  0  0  0  0  0  0  0  0  0  0  # atno 10765 bound_to 10752
  141.0824  133.9197  157.2260 H   0  0  0  0  0  0  0  0  0  0  0  0  # atno 11005 bound_to 11000
  146.3422  140.2221  142.8591 LP  0  0  0  0  0  0  0  0  0  0  0  0  # atno 17320 bound_to 7965
  144.9971  140.8599  143.5304 LP  0  0  0  0  0  0  0  0  0  0  0  0  # atno 17321 bound_to 7965
  139.8164  144.7314  150.9629 LP  0  0  0  0  0  0  0  0  0  0  0  0  # atno 17342 bound_to 10162
  140.7818  143.4201  151.0855 LP  0  0  0  0  0  0  0  0  0  0  0  0  # atno 17343 bound_to 10162
  157.2994  131.0642  151.2079 LP  0  0  0  0  0  0  0  0  0  0  0  0  # atno 17370 bound_to 10713
  157.3063  130.6868  149.6191 LP  0  0  0  0  0  0  0  0  0  0  0  0  # atno 17371 bound_to 10713
  139.9639  135.0147  156.9335 LP  0  0  0  0  0  0  0  0  0  0  0  0  # atno 17394 bound_to 11000
  140.5439  134.0693  155.7349 LP  0  0  0  0  0  0  0  0  0  0  0  0  # atno 17395 bound_to 11000

$$$$
