AV-unprocessed.smi:1757|AV-procd|sdf|7077|dock1
  -GOLD-   22720 8293D 1   1.00000     0.00000
 Structure written by MMmdl.
 39 40  0  0  0  0  0  0  0  0  3 V2000
  143.5643  133.3337  148.4096 C   0  0  0  0  0  0  0  0  0  0  0  0
  144.6863  133.4888  149.3598 N   0  3  2  0  0  0  0  0  0  0  0  0
  145.0300  132.2155  150.0408 C   0  0  0  0  0  0  0  0  0  0  0  0
  146.2787  132.3801  150.9233 C   0  0  0  0  0  0  0  0  0  0  0  0
  146.0925  133.5153  151.9439 C   0  0  1  0  0  0  0  0  0  0  0  0
  147.3308  133.7232  152.6902 N   0  0  0  0  0  0  0  0  0  0  0  0
  147.8150  132.9217  153.6502 C   0  0  0  0  0  0  0  0  0  0  0  0
  147.2526  131.8910  154.0194 O   0  0  0  0  0  0  0  0  0  0  0  0
  148.9648  133.4141  154.1454 N   0  0  0  0  0  0  0  0  0  0  0  0
  149.8104  132.8793  155.1320 C   0  0  0  0  0  0  0  0  0  0  0  0
  150.4910  131.7053  155.0170 C   0  0  0  0  0  0  0  0  0  0  0  0
  151.3680  131.2081  156.0700 C   0  0  0  0  0  0  0  0  0  0  0  0
  152.1316  129.8984  156.0006 C   0  0  0  0  0  0  0  0  0  0  0  0
  151.8622  129.2690  154.8574 F   0  0  0  0  0  0  0  0  0  0  0  0
  153.4437  130.1268  156.0459 F   0  0  0  0  0  0  0  0  0  0  0  0
  151.8095  129.0912  157.0114 F   0  0  0  0  0  0  0  0  0  0  0  0
  151.4246  132.0613  157.1540 C   0  0  0  0  0  0  0  0  0  0  0  0
  150.7961  133.2426  157.3409 N   0  5  0  0  0  0  0  0  0  0  0  0
  149.9740  133.6961  156.3527 C   0  0  0  0  0  0  0  0  0  0  0  0
  149.3699  134.7645  156.4564 O   0  0  0  0  0  0  0  0  0  0  0  0
  145.6948  134.8105  151.2161 C   0  0  0  0  0  0  0  0  0  0  0  0
  144.4598  134.5924  150.3259 C   0  0  0  0  0  0  0  0  0  0  0  0
  142.6474  133.0518  148.9293 H   0  0  0  0  0  0  0  0  0  0  0  0
  143.7894  132.5645  147.6701 H   0  0  0  0  0  0  0  0  0  0  0  0
  143.3815  134.2659  147.8739 H   0  0  0  0  0  0  0  0  0  0  0  0
  144.1838  131.8841  150.6449 H   0  0  0  0  0  0  0  0  0  0  0  0
  145.2114  131.4399  149.2959 H   0  0  0  0  0  0  0  0  0  0  0  0
  146.4906  131.4435  151.4409 H   0  0  0  0  0  0  0  0  0  0  0  0
  147.1433  132.5864  150.2907 H   0  0  0  0  0  0  0  0  0  0  0  0
  145.2800  133.2375  152.6178 H   0  0  0  0  0  0  0  0  0  0  0  0
  147.8642  134.5492  152.4610 H   0  0  0  0  0  0  0  0  0  0  0  0
  149.2584  134.3139  153.7943 H   0  0  0  0  0  0  0  0  0  0  0  0
  150.4153  131.1111  154.1215 H   0  0  0  0  0  0  0  0  0  0  0  0
  152.0737  131.7441  157.9981 H   0  0  0  0  0  0  0  0  0  0  0  0
  145.4922  135.5998  151.9412 H   0  0  0  0  0  0  0  0  0  0  0  0
  146.5252  135.1616  150.6014 H   0  0  0  0  0  0  0  0  0  0  0  0
  144.2359  135.5122  149.7840 H   0  0  0  0  0  0  0  0  0  0  0  0
  143.5875  134.3666  150.9416 H   0  0  0  0  0  0  0  0  0  0  0  0
  145.4928  133.7481  148.8099 H   0  0  0  0  0  0  0  0  0  0  0  0
  1  2  1  0  0  0  0
  1 23  1  0  0  0  0
  1 24  1  0  0  0  0
  1 25  1  0  0  0  0
  2 22  1  0  0  0  0
  2  3  1  0  0  0  0
  2 39  1  0  0  0  0
  3  4  1  0  0  0  0
  3 26  1  0  0  0  0
  3 27  1  0  0  0  0
  4  5  1  0  0  0  0
  4 28  1  0  0  0  0
  4 29  1  0  0  0  0
  5  6  1  0  0  0  0
  5 21  1  0  0  0  0
  5 30  1  0  0  0  0
  6  7  1  0  0  0  0
  6 31  1  0  0  0  0
  7  8  2  0  0  0  0
  7  9  1  0  0  0  0
  9 10  1  0  0  0  0
  9 32  1  0  0  0  0
 10 19  1  0  0  0  0
 10 11  2  0  0  0  0
 11 12  1  0  0  0  0
 11 33  1  0  0  0  0
 12 13  1  0  0  0  0
 12 17  2  0  0  0  0
 13 14  1  0  0  0  0
 13 15  1  0  0  0  0
 13 16  1  0  0  0  0
 17 18  1  0  0  0  0
 17 34  1  0  0  0  0
 18 19  1  0  0  0  0
 19 20  2  0  0  0  0
 21 22  1  0  0  0  0
 21 35  1  0  0  0  0
 21 36  1  0  0  0  0
 22 37  1  0  0  0  0
 22 38  1  0  0  0  0
M  CHG  1   2   1
M  CHG  1  18  -1
M  END
> <s_m_source_file>
AV-unprocessed.smi

> <i_m_source_file_index>
1757

> <i_lp_mmshare_version>
43012

> <i_f3d_flags>
0

> <s_epik_input>
W0NIM11OMVtDSDJdW0NIMl1bQ0hdKFtDSDJdW0NIMl0xKVtOSF1DKD1PKVtOSF1jMltjSF1jKEMoRikoRilGKVtjSF1bbkhdYzI9Tw==

> <s_epik_cmdline>
J2VwaWtfcHl0aG9uJywgJy1waCcsICc3LjAnLCAnLXRuJywgJzgnLCAnLW1hJywgJzIwMCcsICctbWV0YWxfYmluZGluZycsICctaW1hZScsICc8aW5maWxlLm1hZT4nLCAnLW9tYWUnLCAnPG91dGZpbGUubWFlPic=

> <r_lp_tautomer_probability>
1

> <r_epik_Ionization_Penalty>
3.04759

> <r_epik_Ionization_Penalty_Charging>
0.155898

> <r_epik_Ionization_Penalty_Neutral>
2.89169

> <r_epik_State_Penalty>
2.88714

> <r_epik_Charging_Adjusted_Penalty>
3.04304

> <i_epik_Tot_Q>
0

> <i_epik_Tot_abs_Q>
2

> <r_epik_Metal_State_Penalty>
0.445786

> <b_epik_Metal_Only>
1

> <s_lp_Force_Field>
OPLS_2005

> <r_lp_Energy>
29.3736

> <b_lp_Chiralities_Consistent>
1

> <s_lp_Variant>
AV-unprocessed.smi:1757-3

> <Gold.Version>
5.8.1

> <Gold.Id.Protein>
6NUR|6NUR_protein|mol2

> <Gold.PLP.Fitness>
43.3186

> <Gold.PLP.PLP>
-33.5047

> <Gold.PLP.part.hbond>
-2.9323

> <Gold.PLP.part.metal>
0.0000

> <Gold.PLP.part.buried>
-0.6938

> <Gold.PLP.part.nonpolar>
-30.2217

> <Gold.PLP.part.repulsive>
0.2032

> <Gold.PLP.ligand.clash>
0.0000

> <Gold.PLP.ligand.torsion>
0.7822

> <Gold.PLP.Chemscore.Hbond>
3.7910

> <Gold.PLP.Chemscore.CHOScore>
0.0000

> <Gold.PLP.Chemscore.Metal>
0.0000

> <Gold.Chemscore.Hbonds>
donor molecule, donor type, donor heavy atom, donor atom, acceptor molecule, acceptor atom, score
      L1  H     2    39       P1  7921  0.94
      L1  H     6    31       P1  7948  0.96
      P1  H  6896  6907       L1    18  1.50

> <Gold.PLP.Chemscore.Internal.Correction>
0.0053

> <Gold.Rescore>
     Score         DG    S(hbond)    S(metal)    S(lipo)     H(rot)  DE(clash)    DE(int)     intcor
     15.16     -18.11       2.06        0.00      70.92       1.00       2.02       0.92       ----

> <Gold.Chemscore.Fitness>
15.1631

> <Gold.Chemscore.DG>
-18.1105

> <Gold.Chemscore.ZeroCoef>
-5.4800

> <Gold.Chemscore.Hbond>
2.0637

> <Gold.Chemscore.Metal>
0.0000

> <Gold.Chemscore.Lipo>
70.9203

> <Gold.Chemscore.Internal_Hbond>
0.0000

> <Gold.Chemscore.DEClash>
2.0245

> <Gold.Chemscore.DEInternal>
0.9229

> <Gold.Chemscore.Rot>
1.0000

> <Gold.Chemscore.Internal.Correction>
   9.000000E+99

> <Gold.Chemscore.Hbonds>
donor molecule, donor type, donor heavy atom, donor atom, acceptor molecule, acceptor atom, score
      L1  H     2    39       P1  7921  0.45
      L1  H     6    31       P1  7948  0.55
      P1  H  6896  6907       L1    18  0.13

> <Gold.Chemscore.Hbond.Weighted>
-6.8929

> <Gold.Chemscore.Metal.Weighted>
-0.0000

> <Gold.Chemscore.Lipo.Weighted>
-8.2977

> <Gold.Chemscore.Internal_Hbond.Weighted>
0.0000

> <Gold.Chemscore.DEClash.Weighted>
2.0245

> <Gold.Chemscore.DEInternal.Weighted>
0.9229

> <Gold.Chemscore.Rot.Weighted>
2.5600

> <Gold.Chemscore.Internal.Correction.Weighted>
   9.000000E+99

> <Gold.Protein.RotatedTorsions>
[ 6907 6896 6895 6894 ] final -152.95 input  -60.11 | X-H torsion
[ 7974 7965 7964 7962 ] final   89.60 input  175.53 | X-H torsion
[ 8008 7997 7996 7995 ] final -108.75 input   59.86 | X-H torsion
[ 10167 10162 10161 10158 ] final  -74.07 input  -65.29 | X-H torsion
[ 10718 10713 10712 10709 ] final  136.74 input   66.30 | X-H torsion
[ 10763 10752 10751 10750 ] final  -12.21 input  -60.55 | X-H torsion
[ 11005 11000 10999 10996 ] final  146.24 input  -57.11 | X-H torsion

> <Gold.Protein.ActiveResidues>
 VAL166  LYS551  ARG553  GLY616  TRP617  ASP618  TYR619  PRO620  LYS621  CYS622 
 ASP623  PHE694  ASN695  SER759  ASP760  ASP761  ALA762  ILE779  LEU786  VAL792 
 PHE793  MET794  SER795  GLU796  ALA797  LYS798  CYS799  TRP800  GLU811  SER814 

> <Gold.Protein.RotatedAtoms>
  151.2353  133.4428  159.2605 H   0  0  0  0  0  0  0  0  0  0  0  0  # atno 6907 bound_to 6896
  151.0756  134.9826  159.8340 H   0  0  0  0  0  0  0  0  0  0  0  0  # atno 6908 bound_to 6896
  152.5418  134.2296  159.8872 H   0  0  0  0  0  0  0  0  0  0  0  0  # atno 6909 bound_to 6896
  145.5302  139.2283  143.2623 H   0  0  0  0  0  0  0  0  0  0  0  0  # atno 7974 bound_to 7965
  154.9490  140.0401  157.2134 H   0  0  0  0  0  0  0  0  0  0  0  0  # atno 8008 bound_to 7997
  154.7997  140.2849  155.5909 H   0  0  0  0  0  0  0  0  0  0  0  0  # atno 8009 bound_to 7997
  156.2960  140.2557  156.2862 H   0  0  0  0  0  0  0  0  0  0  0  0  # atno 8010 bound_to 7997
  140.5057  143.2353  151.7677 H   0  0  0  0  0  0  0  0  0  0  0  0  # atno 10167 bound_to 10162
  157.4435  131.1060  151.0116 H   0  0  0  0  0  0  0  0  0  0  0  0  # atno 10718 bound_to 10713
  153.4951  135.7017  153.5862 H   0  0  0  0  0  0  0  0  0  0  0  0  # atno 10763 bound_to 10752
  153.4018  135.3870  155.1992 H   0  0  0  0  0  0  0  0  0  0  0  0  # atno 10764 bound_to 10752
  154.8714  135.3883  154.4416 H   0  0  0  0  0  0  0  0  0  0  0  0  # atno 10765 bound_to 10752
  140.0777  134.9115  157.1449 H   0  0  0  0  0  0  0  0  0  0  0  0  # atno 11005 bound_to 11000
  146.2049  140.6118  142.9085 LP  0  0  0  0  0  0  0  0  0  0  0  0  # atno 17320 bound_to 7965
  144.7630  140.5465  143.6722 LP  0  0  0  0  0  0  0  0  0  0  0  0  # atno 17321 bound_to 7965
  139.4883  144.4460  151.9709 LP  0  0  0  0  0  0  0  0  0  0  0  0  # atno 17342 bound_to 10162
  140.3550  144.3042  150.5942 LP  0  0  0  0  0  0  0  0  0  0  0  0  # atno 17343 bound_to 10162
  157.0971  130.5966  149.5452 LP  0  0  0  0  0  0  0  0  0  0  0  0  # atno 17370 bound_to 10713
  155.9958  130.5025  150.7472 LP  0  0  0  0  0  0  0  0  0  0  0  0  # atno 17371 bound_to 10713
  140.3534  134.2574  155.7195 LP  0  0  0  0  0  0  0  0  0  0  0  0  # atno 17394 bound_to 11000
  141.2035  133.7909  157.0334 LP  0  0  0  0  0  0  0  0  0  0  0  0  # atno 17395 bound_to 11000

$$$$
