AV-unprocessed.smi:1493|AV-procd|sdf|6048|dock7
  -GOLD-   22720 6163D 1   1.00000     0.00000
 Structure written by MMmdl.
 33 33  0  0  0  0  0  0  0  0  2 V2000
  152.7610  142.1984  159.3884 C   0  0  0  0  0  0  0  0  0  0  0  0
  152.2889  140.8341  158.8741 C   0  0  0  0  0  0  0  0  0  0  0  0
  153.0497  139.6651  159.5235 C   0  0  0  0  0  0  0  0  0  0  0  0
  152.6613  138.2825  158.9661 C   0  0  2  0  0  0  0  0  0  0  0  0
  153.2203  138.0708  157.5500 C   0  0  0  0  0  0  0  0  0  0  0  0
  151.2083  138.1290  158.9580 N   0  0  0  0  0  0  0  0  0  0  0  0
  150.5470  136.9794  158.7517 C   0  0  0  0  0  0  0  0  0  0  0  0
  151.1125  135.9023  158.5561 O   0  0  0  0  0  0  0  0  0  0  0  0
  149.0136  137.0739  158.7891 C   0  0  0  0  0  0  0  0  0  0  0  0
  148.3824  136.1411  159.7344 N   0  0  0  0  0  0  0  0  0  0  0  0
  147.6326  136.7982  160.8017 N   0  5  0  0  0  0  0  0  0  0  0  0
  147.0226  136.0368  161.7485 C   0  0  0  0  0  0  0  0  0  0  0  0
  146.3901  136.5187  162.6854 O   0  0  0  0  0  0  0  0  0  0  0  0
  147.1247  134.5914  161.6345 C   0  0  0  0  0  0  0  0  0  0  0  0
  147.8001  134.0114  160.6228 C   0  0  0  0  0  0  0  0  0  0  0  0
  148.4718  134.7880  159.5880 C   0  0  0  0  0  0  0  0  0  0  0  0
  149.0777  134.2643  158.6527 O   0  0  0  0  0  0  0  0  0  0  0  0
  152.2047  143.0059  158.9123 H   0  0  0  0  0  0  0  0  0  0  0  0
  153.8195  142.3544  159.1781 H   0  0  0  0  0  0  0  0  0  0  0  0
  152.6163  142.2843  160.4656 H   0  0  0  0  0  0  0  0  0  0  0  0
  151.2212  140.7277  159.0682 H   0  0  0  0  0  0  0  0  0  0  0  0
  152.4088  140.8034  157.7907 H   0  0  0  0  0  0  0  0  0  0  0  0
  154.1232  139.8201  159.4051 H   0  0  0  0  0  0  0  0  0  0  0  0
  152.8601  139.6771  160.5975 H   0  0  0  0  0  0  0  0  0  0  0  0
  153.0956  137.5247  159.6210 H   0  0  0  0  0  0  0  0  0  0  0  0
  154.3064  138.1654  157.5393 H   0  0  0  0  0  0  0  0  0  0  0  0
  152.8151  138.8027  156.8502 H   0  0  0  0  0  0  0  0  0  0  0  0
  152.9752  137.0776  157.1718 H   0  0  0  0  0  0  0  0  0  0  0  0
  150.6622  138.9632  159.1170 H   0  0  0  0  0  0  0  0  0  0  0  0
  148.7476  138.1043  159.0310 H   0  0  0  0  0  0  0  0  0  0  0  0
  148.6147  136.8955  157.7887 H   0  0  0  0  0  0  0  0  0  0  0  0
  146.6467  133.9686  162.3761 H   0  0  0  0  0  0  0  0  0  0  0  0
  147.8482  132.9338  160.5770 H   0  0  0  0  0  0  0  0  0  0  0  0
  1  2  1  0  0  0  0
  1 18  1  0  0  0  0
  1 19  1  0  0  0  0
  1 20  1  0  0  0  0
  2  3  1  0  0  0  0
  2 21  1  0  0  0  0
  2 22  1  0  0  0  0
  3  4  1  0  0  0  0
  3 23  1  0  0  0  0
  3 24  1  0  0  0  0
  4  5  1  0  0  0  0
  4  6  1  0  0  0  0
  4 25  1  0  0  0  0
  5 26  1  0  0  0  0
  5 27  1  0  0  0  0
  5 28  1  0  0  0  0
  6  7  1  0  0  0  0
  6 29  1  0  0  0  0
  7  8  2  0  0  0  0
  7  9  1  0  0  0  0
  9 30  1  0  0  0  0
  9 31  1  0  0  0  0
  9 10  1  0  0  0  0
 10 11  1  0  0  0  0
 10 16  1  0  0  0  0
 11 12  1  0  0  0  0
 12 13  2  0  0  0  0
 12 14  1  0  0  0  0
 14 32  1  0  0  0  0
 14 15  2  0  0  0  0
 15 33  1  0  0  0  0
 15 16  1  0  0  0  0
 16 17  2  0  0  0  0
M  CHG  1  11  -1
M  END
> <s_m_source_file>
AV-unprocessed.smi

> <i_m_source_file_index>
1493

> <i_lp_mmshare_version>
43012

> <i_f3d_flags>
0

> <s_epik_input>
W0NIM11bQ0gyXVtDSDJdW0NASF0oW0NIM10pW05IXUMoPU8pW0NIMl1uMVtuSF1jKD1PKVtjSF1bY0hdYzE9Tw==

> <s_epik_cmdline>
J2VwaWtfcHl0aG9uJywgJy1waCcsICc3LjAnLCAnLXRuJywgJzgnLCAnLW1hJywgJzIwMCcsICctbWV0YWxfYmluZGluZycsICctaW1hZScsICc8aW5maWxlLm1hZT4nLCAnLW9tYWUnLCAnPG91dGZpbGUubWFlPic=

> <r_lp_tautomer_probability>
1

> <r_epik_Ionization_Penalty>
0.0986298

> <r_epik_Ionization_Penalty_Charging>
0.0986298

> <r_epik_Ionization_Penalty_Neutral>
1.93017e-08

> <r_epik_State_Penalty>
0.0347731

> <r_epik_Charging_Adjusted_Penalty>
0.133403

> <i_epik_Tot_Q>
-1

> <i_epik_Tot_abs_Q>
1

> <r_epik_Metal_State_Penalty>
0.0347731

> <b_epik_Metal_Only>
0

> <s_lp_Force_Field>
OPLS_2005

> <r_lp_Energy>
18.8288

> <b_lp_Chiralities_Consistent>
1

> <s_lp_Variant>
AV-unprocessed.smi:1493-1

> <Gold.Version>
5.8.1

> <Gold.Id.Protein>
6NUR|6NUR_protein|mol2

> <Gold.PLP.Fitness>
41.3212

> <Gold.PLP.PLP>
-27.0620

> <Gold.PLP.part.hbond>
-4.0000

> <Gold.PLP.part.metal>
0.0000

> <Gold.PLP.part.buried>
-1.6745

> <Gold.PLP.part.nonpolar>
-21.5339

> <Gold.PLP.part.repulsive>
0.1675

> <Gold.PLP.ligand.clash>
0.0000

> <Gold.PLP.ligand.torsion>
0.2155

> <Gold.PLP.Chemscore.Hbond>
4.8800

> <Gold.PLP.Chemscore.CHOScore>
0.0000

> <Gold.PLP.Chemscore.Metal>
0.0000

> <Gold.Chemscore.Hbonds>
donor molecule, donor type, donor heavy atom, donor atom, acceptor molecule, acceptor atom, score
      P1  H  6896  6908       L1    17  1.00
      P1  H  6896  6909       L1     8  0.13
      P1  H  6931  6943       L1    11  0.64
      P1  H  6934  6947       L1    11  0.81

> <Gold.PLP.Chemscore.Internal.Correction>
0.0503

> <Gold.Rescore>
     Score         DG    S(hbond)    S(metal)    S(lipo)     H(rot)  DE(clash)    DE(int)     intcor
     12.15     -13.89       2.25        0.00      54.49       2.14       0.01       1.72       ----

> <Gold.Chemscore.Fitness>
12.1528

> <Gold.Chemscore.DG>
-13.8865

> <Gold.Chemscore.ZeroCoef>
-5.4800

> <Gold.Chemscore.Hbond>
2.2462

> <Gold.Chemscore.Metal>
0.0000

> <Gold.Chemscore.Lipo>
54.4929

> <Gold.Chemscore.Internal_Hbond>
0.0000

> <Gold.Chemscore.DEClash>
0.0122

> <Gold.Chemscore.DEInternal>
1.7215

> <Gold.Chemscore.Rot>
2.1372

> <Gold.Chemscore.Internal.Correction>
   9.000000E+99

> <Gold.Chemscore.Hbonds>
donor molecule, donor type, donor heavy atom, donor atom, acceptor molecule, acceptor atom, score
      P1  H  6896  6908       L1    17  0.35
      P1  H  6896  6909       L1     8  0.13
      P1  H  6931  6943       L1    11  0.13
      P1  H  6934  6947       L1    11  0.34

> <Gold.Chemscore.Hbond.Weighted>
-7.5022

> <Gold.Chemscore.Metal.Weighted>
-0.0000

> <Gold.Chemscore.Lipo.Weighted>
-6.3757

> <Gold.Chemscore.Internal_Hbond.Weighted>
0.0000

> <Gold.Chemscore.DEClash.Weighted>
0.0122

> <Gold.Chemscore.DEInternal.Weighted>
1.7215

> <Gold.Chemscore.Rot.Weighted>
5.4713

> <Gold.Chemscore.Internal.Correction.Weighted>
   9.000000E+99

> <Gold.Protein.RotatedTorsions>
[ 6907 6896 6895 6894 ] final  134.09 input  -60.11 | X-H torsion
[ 7974 7965 7964 7962 ] final  153.58 input  175.53 | X-H torsion
[ 8008 7997 7996 7995 ] final   64.21 input   59.86 | X-H torsion
[ 10167 10162 10161 10158 ] final   23.63 input  -65.29 | X-H torsion
[ 10718 10713 10712 10709 ] final  165.02 input   66.30 | X-H torsion
[ 10763 10752 10751 10750 ] final  -78.50 input  -60.55 | X-H torsion
[ 11005 11000 10999 10996 ] final   46.16 input  -57.11 | X-H torsion

> <Gold.Protein.ActiveResidues>
 VAL166  LYS551  ARG553  GLY616  TRP617  ASP618  TYR619  PRO620  LYS621  CYS622 
 ASP623  PHE694  ASN695  SER759  ASP760  ASP761  ALA762  ILE779  LEU786  VAL792 
 PHE793  MET794  SER795  GLU796  ALA797  LYS798  CYS799  TRP800  GLU811  SER814 

> <Gold.Protein.RotatedAtoms>
  152.3150  133.5793  159.5705 H   0  0  0  0  0  0  0  0  0  0  0  0  # atno 6907 bound_to 6896
  150.7342  134.0096  159.3674 H   0  0  0  0  0  0  0  0  0  0  0  0  # atno 6908 bound_to 6896
  151.7985  135.0716  160.0448 H   0  0  0  0  0  0  0  0  0  0  0  0  # atno 6909 bound_to 6896
  144.8145  139.6820  143.6127 H   0  0  0  0  0  0  0  0  0  0  0  0  # atno 7974 bound_to 7965
  155.6424  140.3497  155.4719 H   0  0  0  0  0  0  0  0  0  0  0  0  # atno 8008 bound_to 7997
  155.9915  140.1194  157.0657 H   0  0  0  0  0  0  0  0  0  0  0  0  # atno 8009 bound_to 7997
  154.4220  140.1118  156.5558 H   0  0  0  0  0  0  0  0  0  0  0  0  # atno 8010 bound_to 7997
  140.5253  143.9933  150.6437 H   0  0  0  0  0  0  0  0  0  0  0  0  # atno 10167 bound_to 10162
  157.0861  131.0405  151.2556 H   0  0  0  0  0  0  0  0  0  0  0  0  # atno 10718 bound_to 10713
  154.5266  135.5728  153.6724 H   0  0  0  0  0  0  0  0  0  0  0  0  # atno 10763 bound_to 10752
  152.9929  135.6194  154.2684 H   0  0  0  0  0  0  0  0  0  0  0  0  # atno 10764 bound_to 10752
  154.2608  135.2856  155.2758 H   0  0  0  0  0  0  0  0  0  0  0  0  # atno 10765 bound_to 10752
  140.1394  134.4602  155.8461 H   0  0  0  0  0  0  0  0  0  0  0  0  # atno 11005 bound_to 11000
  146.2447  139.6073  142.9468 LP  0  0  0  0  0  0  0  0  0  0  0  0  # atno 17320 bound_to 7965
  145.5247  141.0430  143.2416 LP  0  0  0  0  0  0  0  0  0  0  0  0  # atno 17321 bound_to 7965
  140.3293  143.3087  152.0703 LP  0  0  0  0  0  0  0  0  0  0  0  0  # atno 17342 bound_to 10162
  139.4936  144.6520  151.6655 LP  0  0  0  0  0  0  0  0  0  0  0  0  # atno 17343 bound_to 10162
  157.4760  130.7737  149.7368 LP  0  0  0  0  0  0  0  0  0  0  0  0  # atno 17370 bound_to 10713
  155.9910  130.3940  150.3002 LP  0  0  0  0  0  0  0  0  0  0  0  0  # atno 17371 bound_to 10713
  141.2183  133.6827  156.7218 LP  0  0  0  0  0  0  0  0  0  0  0  0  # atno 17394 bound_to 11000
  140.2741  134.8369  157.3874 LP  0  0  0  0  0  0  0  0  0  0  0  0  # atno 17395 bound_to 11000

$$$$
