AV-unprocessed.smi:148|AV-procd|sdf|1212|dock8
  -GOLD-   2262018393D 1   1.00000     0.00000
 Structure written by MMmdl.
 63 67  0  0  0  0  0  0  0  0  1 V2000
  143.0109  135.5888  161.0944 O   0  0  0  0  0  0  0  0  0  0  0  0
  144.2835  135.0237  161.3347 C   0  0  0  0  0  0  0  0  0  0  0  0
  145.3708  135.6780  160.4431 C   0  0  2  0  0  0  0  0  0  0  0  0
  145.0593  135.4771  158.9355 C   0  0  0  0  0  0  0  0  0  0  0  0
  145.5902  136.5386  158.0978 N   0  0  0  0  0  0  0  0  0  0  0  0
  145.1698  137.8488  158.0737 C   0  0  0  0  0  0  0  0  0  0  0  0
  145.7941  138.6178  157.2240 N   0  0  0  0  0  0  0  0  0  0  0  0
  146.7200  137.7737  156.6224 C   0  0  0  0  0  0  0  0  0  0  0  0
  147.7136  137.9414  155.6166 C   0  0  0  0  0  0  0  0  0  0  0  0
  147.9616  139.0990  154.9661 N   0  0  0  0  0  0  0  0  0  0  0  0
  146.8145  139.4076  154.1085 C   0  0  0  0  0  0  0  0  0  0  0  0
  147.1203  140.5593  153.1475 C   0  0  0  0  0  0  0  0  0  0  0  0
  147.5758  141.7843  153.9396 C   0  0  0  0  0  0  0  0  0  0  0  0
  148.7834  141.4168  154.8099 C   0  0  0  0  0  0  0  0  0  0  0  0
  148.5001  140.2224  155.7630 C   0  0  2  0  0  0  0  0  0  0  0  0
  149.7950  139.8629  156.5726 C   0  0  2  0  0  0  0  0  0  0  0  0
  150.6454  141.0372  157.1051 C   0  0  0  0  0  0  0  0  0  0  0  0
  152.0738  140.5081  157.3000 C   0  0  0  0  0  0  0  0  0  0  0  0
  152.0948  139.1014  156.6966 C   0  0  0  0  0  0  0  0  0  0  0  0
  150.8462  139.0216  155.8175 C   0  0  2  0  0  0  0  0  0  0  0  0
  151.1490  139.5854  154.5530 O   0  0  0  0  0  0  0  0  0  0  0  0
  148.4464  136.8590  155.2563 N   0  0  0  0  0  0  0  0  0  0  0  0
  148.2380  135.6835  155.8572 C   0  0  0  0  0  0  0  0  0  0  0  0
  147.3583  135.3785  156.8139 N   0  0  0  0  0  0  0  0  0  0  0  0
  146.6107  136.4636  157.1663 C   0  0  0  0  0  0  0  0  0  0  0  0
  146.8193  135.2192  160.7958 C   0  0  2  0  0  0  0  0  0  0  0  0
  147.0966  135.0045  162.2802 C   0  0  0  0  0  0  0  0  0  0  0  0
  147.3993  136.4108  162.7924 C   0  0  0  0  0  0  0  0  0  0  0  0
  147.8800  137.1359  161.6654 O   0  0  0  0  0  0  0  0  0  0  0  0
  147.8854  136.2899  160.5217 C   0  0  0  0  0  0  0  0  0  0  0  0
  143.1270  136.4833  160.8122 H   0  0  0  0  0  0  0  0  0  0  0  0
  144.5186  135.1386  162.3923 H   0  0  0  0  0  0  0  0  0  0  0  0
  144.2303  133.9480  161.1759 H   0  0  0  0  0  0  0  0  0  0  0  0
  145.3156  136.7503  160.6366 H   0  0  0  0  0  0  0  0  0  0  0  0
  145.4747  134.5433  158.5622 H   0  0  0  0  0  0  0  0  0  0  0  0
  143.9822  135.4120  158.7773 H   0  0  0  0  0  0  0  0  0  0  0  0
  144.3750  138.2162  158.7065 H   0  0  0  0  0  0  0  0  0  0  0  0
  146.5298  138.5259  153.5317 H   0  0  0  0  0  0  0  0  0  0  0  0
  145.9559  139.6715  154.7276 H   0  0  0  0  0  0  0  0  0  0  0  0
  147.8977  140.2595  152.4433 H   0  0  0  0  0  0  0  0  0  0  0  0
  146.2359  140.7995  152.5569 H   0  0  0  0  0  0  0  0  0  0  0  0
  147.8329  142.5979  153.2609 H   0  0  0  0  0  0  0  0  0  0  0  0
  146.7611  142.1443  154.5690 H   0  0  0  0  0  0  0  0  0  0  0  0
  149.6288  141.1750  154.1641 H   0  0  0  0  0  0  0  0  0  0  0  0
  149.0696  142.3063  155.3689 H   0  0  0  0  0  0  0  0  0  0  0  0
  147.7272  140.5357  156.4656 H   0  0  0  0  0  0  0  0  0  0  0  0
  149.4868  139.2698  157.4357 H   0  0  0  0  0  0  0  0  0  0  0  0
  150.6614  141.8490  156.3772 H   0  0  0  0  0  0  0  0  0  0  0  0
  150.2619  141.4411  158.0411 H   0  0  0  0  0  0  0  0  0  0  0  0
  152.7856  141.1581  156.7900 H   0  0  0  0  0  0  0  0  0  0  0  0
  152.3525  140.4815  158.3538 H   0  0  0  0  0  0  0  0  0  0  0  0
  153.0166  138.8866  156.1547 H   0  0  0  0  0  0  0  0  0  0  0  0
  152.0137  138.3678  157.4999 H   0  0  0  0  0  0  0  0  0  0  0  0
  150.5309  137.9866  155.6821 H   0  0  0  0  0  0  0  0  0  0  0  0
  150.7970  139.0220  153.8811 H   0  0  0  0  0  0  0  0  0  0  0  0
  148.8645  134.8698  155.5225 H   0  0  0  0  0  0  0  0  0  0  0  0
  147.0436  134.3087  160.2384 H   0  0  0  0  0  0  0  0  0  0  0  0
  146.3103  134.5030  162.8405 H   0  0  0  0  0  0  0  0  0  0  0  0
  147.9913  134.3888  162.3865 H   0  0  0  0  0  0  0  0  0  0  0  0
  146.4928  136.8935  163.1592 H   0  0  0  0  0  0  0  0  0  0  0  0
  148.1307  136.4031  163.6007 H   0  0  0  0  0  0  0  0  0  0  0  0
  148.8690  135.8231  160.4486 H   0  0  0  0  0  0  0  0  0  0  0  0
  147.7370  136.8648  159.6099 H   0  0  0  0  0  0  0  0  0  0  0  0
  1  2  1  0  0  0  0
  1 31  1  0  0  0  0
  2  3  1  0  0  0  0
  2 32  1  0  0  0  0
  2 33  1  0  0  0  0
  3  4  1  0  0  0  0
  3 26  1  0  0  0  0
  3 34  1  0  0  0  0
  4  5  1  0  0  0  0
  4 35  1  0  0  0  0
  4 36  1  0  0  0  0
  5 25  1  0  0  0  0
  5  6  1  0  0  0  0
  6  7  2  0  0  0  0
  6 37  1  0  0  0  0
  7  8  1  0  0  0  0
  8 25  2  0  0  0  0
  8  9  1  0  0  0  0
  9 10  1  0  0  0  0
  9 22  2  0  0  0  0
 10 15  1  0  0  0  0
 10 11  1  0  0  0  0
 11 12  1  0  0  0  0
 11 38  1  0  0  0  0
 11 39  1  0  0  0  0
 12 13  1  0  0  0  0
 12 40  1  0  0  0  0
 12 41  1  0  0  0  0
 13 14  1  0  0  0  0
 13 42  1  0  0  0  0
 13 43  1  0  0  0  0
 14 15  1  0  0  0  0
 14 44  1  0  0  0  0
 14 45  1  0  0  0  0
 15 16  1  0  0  0  0
 15 46  1  0  0  0  0
 16 20  1  0  0  0  0
 16 17  1  0  0  0  0
 16 47  1  0  0  0  0
 17 18  1  0  0  0  0
 17 48  1  0  0  0  0
 17 49  1  0  0  0  0
 18 19  1  0  0  0  0
 18 50  1  0  0  0  0
 18 51  1  0  0  0  0
 19 20  1  0  0  0  0
 19 52  1  0  0  0  0
 19 53  1  0  0  0  0
 20 21  1  0  0  0  0
 20 54  1  0  0  0  0
 21 55  1  0  0  0  0
 22 23  1  0  0  0  0
 23 24  2  0  0  0  0
 23 56  1  0  0  0  0
 24 25  1  0  0  0  0
 26 30  1  0  0  0  0
 26 27  1  0  0  0  0
 26 57  1  0  0  0  0
 27 28  1  0  0  0  0
 27 58  1  0  0  0  0
 27 59  1  0  0  0  0
 28 29  1  0  0  0  0
 28 60  1  0  0  0  0
 28 61  1  0  0  0  0
 29 30  1  0  0  0  0
 30 62  1  0  0  0  0
 30 63  1  0  0  0  0
M  END
> <s_m_source_file>
AV-unprocessed.smi

> <i_m_source_file_index>
148

> <i_lp_mmshare_version>
43012

> <i_f3d_flags>
0

> <s_epik_input>
W0NIMl0xT1tDSDJdW0NIMl1bQ0BIXTFbQ0BIXShbQ0gyXVtPSF0pW0NIMl1uKFtjSF1uMiljKGMyMyluW2NIXW5jM040W0NIMl1bQ0gyXVtDSDJdW0NIMl1bQ0BIXTRbQ0BASF01W0NIMl1bQ0gyXVtDSDJdW0NASF01W09IXQ==

> <s_epik_cmdline>
J2VwaWtfcHl0aG9uJywgJy1waCcsICc3LjAnLCAnLXRuJywgJzgnLCAnLW1hJywgJzIwMCcsICctbWV0YWxfYmluZGluZycsICctaW1hZScsICc8aW5maWxlLm1hZT4nLCAnLW9tYWUnLCAnPG91dGZpbGUubWFlPic=

> <r_lp_tautomer_probability>
1

> <r_epik_Ionization_Penalty>
0.00556303

> <r_epik_Ionization_Penalty_Charging>
0

> <r_epik_Ionization_Penalty_Neutral>
0.00556303

> <r_epik_State_Penalty>
0.00401767

> <r_epik_Charging_Adjusted_Penalty>
0.00401767

> <i_epik_Tot_Q>
0

> <i_epik_Tot_abs_Q>
0

> <r_epik_Metal_State_Penalty>
-0

> <b_epik_Metal_Only>
0

> <s_lp_Force_Field>
OPLS_2005

> <r_lp_Energy>
72.8369

> <b_lp_Chiralities_Consistent>
1

> <s_lp_Variant>
AV-unprocessed.smi:148-11

> <Gold.Version>
5.8.1

> <Gold.Id.Protein>
6NUR|6NUR_protein|mol2

> <Gold.PLP.Fitness>
39.0857

> <Gold.PLP.PLP>
-33.4369

> <Gold.PLP.part.hbond>
-2.8403

> <Gold.PLP.part.metal>
0.0000

> <Gold.PLP.part.buried>
-3.6241

> <Gold.PLP.part.nonpolar>
-25.8076

> <Gold.PLP.part.repulsive>
0.1606

> <Gold.PLP.ligand.clash>
0.0000

> <Gold.PLP.ligand.torsion>
1.2706

> <Gold.PLP.Chemscore.Hbond>
2.5084

> <Gold.PLP.Chemscore.CHOScore>
0.0000

> <Gold.PLP.Chemscore.Metal>
0.0000

> <Gold.Chemscore.Hbonds>
donor molecule, donor type, donor heavy atom, donor atom, acceptor molecule, acceptor atom, score
      P1  H  6931  6943       L1    29  1.00
      P1  H  6934  6947       L1    29  0.50
      P1  H  7989  7998       L1    21  0.80

> <Gold.PLP.Chemscore.Internal.Correction>
0.6648

> <Gold.Rescore>
     Score         DG    S(hbond)    S(metal)    S(lipo)     H(rot)  DE(clash)    DE(int)     intcor
     12.53     -14.50       1.92        0.00      95.05       3.32       0.07       1.90       ----

> <Gold.Chemscore.Fitness>
12.5325

> <Gold.Chemscore.DG>
-14.5038

> <Gold.Chemscore.ZeroCoef>
-5.4800

> <Gold.Chemscore.Hbond>
1.9171

> <Gold.Chemscore.Metal>
0.0000

> <Gold.Chemscore.Lipo>
95.0487

> <Gold.Chemscore.Internal_Hbond>
0.0000

> <Gold.Chemscore.DEClash>
0.0708

> <Gold.Chemscore.DEInternal>
1.9005

> <Gold.Chemscore.Rot>
3.3203

> <Gold.Chemscore.Internal.Correction>
   9.000000E+99

> <Gold.Chemscore.Hbonds>
donor molecule, donor type, donor heavy atom, donor atom, acceptor molecule, acceptor atom, score
      P1  H  6931  6943       L1    29  0.93
      P1  H  6934  6947       L1    29  0.25
      P1  H  7989  7998       L1    21  0.12

> <Gold.Chemscore.Hbond.Weighted>
-6.4031

> <Gold.Chemscore.Metal.Weighted>
-0.0000

> <Gold.Chemscore.Lipo.Weighted>
-11.1207

> <Gold.Chemscore.Internal_Hbond.Weighted>
0.0000

> <Gold.Chemscore.DEClash.Weighted>
0.0708

> <Gold.Chemscore.DEInternal.Weighted>
1.9005

> <Gold.Chemscore.Rot.Weighted>
8.5000

> <Gold.Chemscore.Internal.Correction.Weighted>
   9.000000E+99

> <Gold.Protein.RotatedTorsions>
[ 6907 6896 6895 6894 ] final  -12.27 input  -60.11 | X-H torsion
[ 7974 7965 7964 7962 ] final -164.66 input  175.53 | X-H torsion
[ 8008 7997 7996 7995 ] final  -92.18 input   59.86 | X-H torsion
[ 10167 10162 10161 10158 ] final  135.41 input  -65.29 | X-H torsion
[ 10718 10713 10712 10709 ] final  127.96 input   66.30 | X-H torsion
[ 10763 10752 10751 10750 ] final  104.25 input  -60.55 | X-H torsion
[ 11005 11000 10999 10996 ] final  -51.73 input  -57.11 | X-H torsion

> <Gold.Protein.ActiveResidues>
 VAL166  LYS551  ARG553  GLY616  TRP617  ASP618  TYR619  PRO620  LYS621  CYS622 
 ASP623  PHE694  ASN695  SER759  ASP760  ASP761  ALA762  ILE779  LEU786  VAL792 
 PHE793  MET794  SER795  GLU796  ALA797  LYS798  CYS799  TRP800  GLU811  SER814 

> <Gold.Protein.RotatedAtoms>
  151.3731  135.0926  159.9471 H   0  0  0  0  0  0  0  0  0  0  0  0  # atno 6907 bound_to 6896
  152.5130  133.9145  159.7515 H   0  0  0  0  0  0  0  0  0  0  0  0  # atno 6908 bound_to 6896
  150.9563  133.6439  159.2791 H   0  0  0  0  0  0  0  0  0  0  0  0  # atno 6909 bound_to 6896
  144.7290  140.2928  143.6217 H   0  0  0  0  0  0  0  0  0  0  0  0  # atno 7974 bound_to 7965
  154.7200  140.0511  157.0630 H   0  0  0  0  0  0  0  0  0  0  0  0  # atno 8008 bound_to 7997
  155.0440  140.3172  155.4695 H   0  0  0  0  0  0  0  0  0  0  0  0  # atno 8009 bound_to 7997
  156.2813  140.2127  156.5565 H   0  0  0  0  0  0  0  0  0  0  0  0  # atno 8010 bound_to 7997
  139.5218  144.6518  151.5279 H   0  0  0  0  0  0  0  0  0  0  0  0  # atno 10167 bound_to 10162
  157.5286  131.1098  150.9043 H   0  0  0  0  0  0  0  0  0  0  0  0  # atno 10718 bound_to 10713
  153.3635  135.3949  155.1735 H   0  0  0  0  0  0  0  0  0  0  0  0  # atno 10763 bound_to 10752
  154.8683  135.3685  154.5069 H   0  0  0  0  0  0  0  0  0  0  0  0  # atno 10764 bound_to 10752
  153.5531  135.7082  153.5642 H   0  0  0  0  0  0  0  0  0  0  0  0  # atno 10765 bound_to 10752
  141.0887  133.6637  156.3920 H   0  0  0  0  0  0  0  0  0  0  0  0  # atno 11005 bound_to 11000
  145.7838  139.1901  143.2142 LP  0  0  0  0  0  0  0  0  0  0  0  0  # atno 17320 bound_to 7965
  146.0812  140.7762  142.9641 LP  0  0  0  0  0  0  0  0  0  0  0  0  # atno 17321 bound_to 7965
  140.6326  143.9046  150.6619 LP  0  0  0  0  0  0  0  0  0  0  0  0  # atno 17342 bound_to 10162
  140.2355  143.3703  152.1530 LP  0  0  0  0  0  0  0  0  0  0  0  0  # atno 17343 bound_to 10162
  156.9632  130.5463  149.5287 LP  0  0  0  0  0  0  0  0  0  0  0  0  # atno 17370 bound_to 10713
  156.0406  130.5489  150.8760 LP  0  0  0  0  0  0  0  0  0  0  0  0  # atno 17371 bound_to 10713
  140.5304  134.6218  157.5348 LP  0  0  0  0  0  0  0  0  0  0  0  0  # atno 17394 bound_to 11000
  139.9709  134.7295  156.0044 LP  0  0  0  0  0  0  0  0  0  0  0  0  # atno 17395 bound_to 11000

$$$$
