AV-unprocessed.smi:757|AV-procd|sdf|3615|dock4
  -GOLD-   22720 1 13D 1   1.00000     0.00000
 Structure written by MMmdl.
 45 46  0  0  0  0  0  0  0  0  2 V2000
  143.7570  146.0750  154.4479 C   0  0  0  0  0  0  0  0  0  0  0  0
  143.9111  145.0802  155.1388 C   0  0  0  0  0  0  0  0  0  0  0  0
  144.0995  143.8897  155.9837 C   0  0  0  0  0  0  0  0  0  0  0  0
  143.7861  142.5726  155.2505 C   0  0  0  0  0  0  0  0  0  0  0  0
  144.9998  141.9447  154.6690 N   0  3  2  0  0  0  0  0  0  0  0  0
  145.7325  141.1160  155.6613 C   0  0  0  0  0  0  0  0  0  0  0  0
  146.9050  140.3616  155.0073 C   0  0  0  0  0  0  0  0  0  0  0  0
  147.8689  141.3113  154.2761 C   0  0  2  0  0  0  0  0  0  0  0  0
  148.6440  142.0955  155.2378 N   0  0  0  0  0  0  0  0  0  0  0  0
  149.3736  141.5881  156.2420 C   0  0  0  0  0  0  0  0  0  0  0  0
  149.4907  140.3811  156.4496 O   0  0  0  0  0  0  0  0  0  0  0  0
  149.9593  142.5636  156.9575 N   0  0  0  0  0  0  0  0  0  0  0  0
  150.8027  142.4476  158.0961 C   0  0  0  0  0  0  0  0  0  0  0  0
  151.1622  143.5255  158.9404 C   0  0  0  0  0  0  0  0  0  0  0  0
  152.0207  143.2803  160.0291 C   0  0  0  0  0  0  0  0  0  0  0  0
  152.5002  141.9722  160.2391 C   0  0  0  0  0  0  0  0  0  0  0  0
  153.3399  141.7407  161.3092 O   0  0  0  0  0  0  0  0  0  0  0  0
  153.1984  142.5555  162.4678 C   0  0  0  0  0  0  0  0  0  0  0  0
  152.1704  140.9374  159.4274 N   0  0  0  0  0  0  0  0  0  0  0  0
  151.3478  141.1794  158.3855 C   0  0  0  0  0  0  0  0  0  0  0  0
  147.0747  142.2075  153.3053 C   0  0  0  0  0  0  0  0  0  0  0  0
  145.9032  142.9205  154.0030 C   0  0  0  0  0  0  0  0  0  0  0  0
  143.6250  146.9467  153.8469 H   0  0  0  0  0  0  0  0  0  0  0  0
  145.1331  143.8947  156.3312 H   0  0  0  0  0  0  0  0  0  0  0  0
  143.4642  144.0199  156.8590 H   0  0  0  0  0  0  0  0  0  0  0  0
  143.2857  141.8640  155.9131 H   0  0  0  0  0  0  0  0  0  0  0  0
  143.0820  142.7917  154.4458 H   0  0  0  0  0  0  0  0  0  0  0  0
  146.0929  141.7513  156.4721 H   0  0  0  0  0  0  0  0  0  0  0  0
  145.0523  140.3902  156.1089 H   0  0  0  0  0  0  0  0  0  0  0  0
  147.4422  139.7797  155.7575 H   0  0  0  0  0  0  0  0  0  0  0  0
  146.5067  139.6390  154.2937 H   0  0  0  0  0  0  0  0  0  0  0  0
  148.5693  140.7033  153.7005 H   0  0  0  0  0  0  0  0  0  0  0  0
  148.6047  143.0999  155.1445 H   0  0  0  0  0  0  0  0  0  0  0  0
  149.8232  143.5049  156.6190 H   0  0  0  0  0  0  0  0  0  0  0  0
  150.8131  144.5321  158.7722 H   0  0  0  0  0  0  0  0  0  0  0  0
  152.3099  144.0841  160.6898 H   0  0  0  0  0  0  0  0  0  0  0  0
  153.9304  142.2501  163.2153 H   0  0  0  0  0  0  0  0  0  0  0  0
  152.2078  142.4486  162.9122 H   0  0  0  0  0  0  0  0  0  0  0  0
  153.3777  143.6074  162.2402 H   0  0  0  0  0  0  0  0  0  0  0  0
  151.1138  140.3278  157.7633 H   0  0  0  0  0  0  0  0  0  0  0  0
  147.7294  142.9401  152.8320 H   0  0  0  0  0  0  0  0  0  0  0  0
  146.6816  141.5921  152.4950 H   0  0  0  0  0  0  0  0  0  0  0  0
  145.3562  143.4984  153.2593 H   0  0  0  0  0  0  0  0  0  0  0  0
  146.2789  143.6335  154.7386 H   0  0  0  0  0  0  0  0  0  0  0  0
  144.6760  141.3072  153.9552 H   0  0  0  0  0  0  0  0  0  0  0  0
  1  2  3  0  0  0  0
  1 23  1  0  0  0  0
  2  3  1  0  0  0  0
  3  4  1  0  0  0  0
  3 24  1  0  0  0  0
  3 25  1  0  0  0  0
  4  5  1  0  0  0  0
  4 26  1  0  0  0  0
  4 27  1  0  0  0  0
  5 22  1  0  0  0  0
  5  6  1  0  0  0  0
  5 45  1  0  0  0  0
  6  7  1  0  0  0  0
  6 28  1  0  0  0  0
  6 29  1  0  0  0  0
  7  8  1  0  0  0  0
  7 30  1  0  0  0  0
  7 31  1  0  0  0  0
  8  9  1  0  0  0  0
  8 21  1  0  0  0  0
  8 32  1  0  0  0  0
  9 10  1  0  0  0  0
  9 33  1  0  0  0  0
 10 11  2  0  0  0  0
 10 12  1  0  0  0  0
 12 13  1  0  0  0  0
 12 34  1  0  0  0  0
 13 20  1  0  0  0  0
 13 14  2  0  0  0  0
 14 15  1  0  0  0  0
 14 35  1  0  0  0  0
 15 16  2  0  0  0  0
 15 36  1  0  0  0  0
 16 17  1  0  0  0  0
 16 19  1  0  0  0  0
 17 18  1  0  0  0  0
 18 37  1  0  0  0  0
 18 38  1  0  0  0  0
 18 39  1  0  0  0  0
 19 20  2  0  0  0  0
 20 40  1  0  0  0  0
 21 22  1  0  0  0  0
 21 41  1  0  0  0  0
 21 42  1  0  0  0  0
 22 43  1  0  0  0  0
 22 44  1  0  0  0  0
M  CHG  1   5   1
M  END
> <s_m_source_file>
AV-unprocessed.smi

> <i_m_source_file_index>
757

> <i_lp_mmshare_version>
43012

> <i_f3d_flags>
0

> <s_epik_input>
W0NIXSNDW0NIMl1bQ0gyXU4xW0NIMl1bQ0gyXVtDSF0oW0NIMl1bQ0gyXTEpW05IXUMoPU8pW05IXWMyW2NIXVtjSF1jKE9bQ0gzXSluW2NIXTI=

> <s_epik_cmdline>
J2VwaWtfcHl0aG9uJywgJy1waCcsICc3LjAnLCAnLXRuJywgJzgnLCAnLW1hJywgJzIwMCcsICctbWV0YWxfYmluZGluZycsICctaW1hZScsICc8aW5maWxlLm1hZT4nLCAnLW9tYWUnLCAnPG91dGZpbGUubWFlPic=

> <r_lp_tautomer_probability>
1

> <r_epik_Ionization_Penalty>
0.0402573

> <r_epik_Ionization_Penalty_Charging>
0.0401786

> <r_epik_Ionization_Penalty_Neutral>
7.86509e-05

> <r_epik_State_Penalty>
0.0338029

> <r_epik_Charging_Adjusted_Penalty>
0.0739815

> <i_epik_Tot_Q>
1

> <i_epik_Tot_abs_Q>
1

> <r_epik_Metal_State_Penalty>
0.0338035

> <b_epik_Metal_Only>
0

> <s_lp_Force_Field>
OPLS_2005

> <r_lp_Energy>
19.9555

> <b_lp_Chiralities_Consistent>
1

> <s_lp_Variant>
AV-unprocessed.smi:757-2

> <Gold.Version>
5.8.1

> <Gold.Id.Protein>
6NUR|6NUR_protein|mol2

> <Gold.PLP.Fitness>
49.6400

> <Gold.PLP.PLP>
-39.3558

> <Gold.PLP.part.hbond>
-3.0000

> <Gold.PLP.part.metal>
0.0000

> <Gold.PLP.part.buried>
-7.8296

> <Gold.PLP.part.nonpolar>
-29.1630

> <Gold.PLP.part.repulsive>
0.2182

> <Gold.PLP.ligand.clash>
0.0000

> <Gold.PLP.ligand.torsion>
0.8805

> <Gold.PLP.Chemscore.Hbond>
4.0000

> <Gold.PLP.Chemscore.CHOScore>
0.0000

> <Gold.PLP.Chemscore.Metal>
0.0000

> <Gold.Chemscore.Hbonds>
donor molecule, donor type, donor heavy atom, donor atom, acceptor molecule, acceptor atom, score
      L1  H     5    45       P1 10175  2.00
      L1  H     9    33       P1  8028  1.00
      L1  H    12    34       P1  8028  1.00

> <Gold.PLP.Chemscore.Internal.Correction>
0.0452

> <Gold.Rescore>
     Score         DG    S(hbond)    S(metal)    S(lipo)     H(rot)  DE(clash)    DE(int)     intcor
     16.33     -20.74       2.78        0.00      85.82       1.59       0.96       3.45       ----

> <Gold.Chemscore.Fitness>
16.3340

> <Gold.Chemscore.DG>
-20.7443

> <Gold.Chemscore.ZeroCoef>
-5.4800

> <Gold.Chemscore.Hbond>
2.7810

> <Gold.Chemscore.Metal>
0.0000

> <Gold.Chemscore.Lipo>
85.8164

> <Gold.Chemscore.Internal_Hbond>
0.0000

> <Gold.Chemscore.DEClash>
0.9573

> <Gold.Chemscore.DEInternal>
3.4529

> <Gold.Chemscore.Rot>
1.5879

> <Gold.Chemscore.Internal.Correction>
   9.000000E+99

> <Gold.Chemscore.Hbonds>
donor molecule, donor type, donor heavy atom, donor atom, acceptor molecule, acceptor atom, score
      L1  H     5    45       P1 10175  0.44
      L1  H     9    33       P1  8028  0.98
      L1  H    12    34       P1  8028  0.96

> <Gold.Chemscore.Hbond.Weighted>
-9.2886

> <Gold.Chemscore.Metal.Weighted>
-0.0000

> <Gold.Chemscore.Lipo.Weighted>
-10.0405

> <Gold.Chemscore.Internal_Hbond.Weighted>
0.0000

> <Gold.Chemscore.DEClash.Weighted>
0.9573

> <Gold.Chemscore.DEInternal.Weighted>
3.4529

> <Gold.Chemscore.Rot.Weighted>
4.0649

> <Gold.Chemscore.Internal.Correction.Weighted>
   9.000000E+99

> <Gold.Protein.RotatedTorsions>
[ 6907 6896 6895 6894 ] final -128.81 input  -60.11 | X-H torsion
[ 7974 7965 7964 7962 ] final  -21.44 input  175.53 | X-H torsion
[ 8008 7997 7996 7995 ] final   36.59 input   59.86 | X-H torsion
[ 10167 10162 10161 10158 ] final   14.73 input  -65.29 | X-H torsion
[ 10718 10713 10712 10709 ] final  -92.71 input   66.30 | X-H torsion
[ 10763 10752 10751 10750 ] final -105.37 input  -60.55 | X-H torsion
[ 11005 11000 10999 10996 ] final  -11.68 input  -57.11 | X-H torsion

> <Gold.Protein.ActiveResidues>
 VAL166  LYS551  ARG553  GLY616  TRP617  ASP618  TYR619  PRO620  LYS621  CYS622 
 ASP623  PHE694  ASN695  SER759  ASP760  ASP761  ALA762  ILE779  LEU786  VAL792 
 PHE793  MET794  SER795  GLU796  ALA797  LYS798  CYS799  TRP800  GLU811  SER814 

> <Gold.Protein.RotatedAtoms>
  150.9219  133.6870  159.2830 H   0  0  0  0  0  0  0  0  0  0  0  0  # atno 6907 bound_to 6896
  151.4322  135.1009  159.9655 H   0  0  0  0  0  0  0  0  0  0  0  0  # atno 6908 bound_to 6896
  152.4983  133.8646  159.7322 H   0  0  0  0  0  0  0  0  0  0  0  0  # atno 6909 bound_to 6896
  146.1733  140.4341  142.8524 H   0  0  0  0  0  0  0  0  0  0  0  0  # atno 7974 bound_to 7965
  155.1899  140.3307  155.4360 H   0  0  0  0  0  0  0  0  0  0  0  0  # atno 8008 bound_to 7997
  156.2446  140.1912  156.6942 H   0  0  0  0  0  0  0  0  0  0  0  0  # atno 8009 bound_to 7997
  154.6213  140.0595  156.9604 H   0  0  0  0  0  0  0  0  0  0  0  0  # atno 8010 bound_to 7997
  140.5915  143.8785  150.6878 H   0  0  0  0  0  0  0  0  0  0  0  0  # atno 10167 bound_to 10162
  156.0005  130.4998  150.5667 H   0  0  0  0  0  0  0  0  0  0  0  0  # atno 10718 bound_to 10713
  154.7942  135.4751  154.0122 H   0  0  0  0  0  0  0  0  0  0  0  0  # atno 10763 bound_to 10752
  153.1677  135.6820  153.8659 H   0  0  0  0  0  0  0  0  0  0  0  0  # atno 10764 bound_to 10752
  153.8251  135.3199  155.3391 H   0  0  0  0  0  0  0  0  0  0  0  0  # atno 10765 bound_to 10752
  140.7578  133.8539  155.9099 H   0  0  0  0  0  0  0  0  0  0  0  0  # atno 11005 bound_to 11000
  144.8196  140.6528  143.6361 LP  0  0  0  0  0  0  0  0  0  0  0  0  # atno 17320 bound_to 7965
  145.4281  139.1553  143.4037 LP  0  0  0  0  0  0  0  0  0  0  0  0  # atno 17321 bound_to 7965
  140.2309  143.3736  152.1566 LP  0  0  0  0  0  0  0  0  0  0  0  0  # atno 17342 bound_to 10162
  139.5231  144.7067  151.5333 LP  0  0  0  0  0  0  0  0  0  0  0  0  # atno 17343 bound_to 10162
  157.3568  131.0743  151.1669 LP  0  0  0  0  0  0  0  0  0  0  0  0  # atno 17370 bound_to 10713
  157.2467  130.6594  149.5913 LP  0  0  0  0  0  0  0  0  0  0  0  0  # atno 17371 bound_to 10713
  140.9691  134.1555  157.4591 LP  0  0  0  0  0  0  0  0  0  0  0  0  # atno 17394 bound_to 11000
  139.8776  134.9972  156.5835 LP  0  0  0  0  0  0  0  0  0  0  0  0  # atno 17395 bound_to 11000

$$$$
