AV-unprocessed.smi:2999|AV-procd|sdf|11421|dock1
  -GOLD-   2272016343D 1   1.00000     0.00000
 Structure written by MMmdl.
 38 40  0  0  0  0  0  0  0  0  2 V2000
  144.4576  136.6008  152.2063 O   0  0  0  0  0  0  0  0  0  0  0  0
  145.6586  136.3866  152.0418 C   0  0  0  0  0  0  0  0  0  0  0  0
  146.6100  137.2951  152.3004 N   0  0  0  0  0  0  0  0  0  0  0  0
  146.3627  138.6463  152.7929 C   0  0  0  0  0  0  0  0  0  0  0  0
  147.6475  139.3177  153.3110 C   0  0  2  0  0  0  0  0  0  0  0  0
  148.2133  138.5906  154.5495 C   0  0  0  0  0  0  0  0  0  0  0  0
  149.3920  139.2988  155.1041 N   0  3  1  0  0  0  0  0  0  0  0  0
  150.6313  139.0839  154.3208 C   0  0  0  0  0  0  0  0  0  0  0  0
  151.2522  137.7231  154.5326 C   0  0  0  0  0  0  0  0  0  0  0  0
  151.8693  138.9451  155.1756 C   0  0  0  0  0  0  0  0  0  0  0  0
  149.0877  140.7296  155.3419 C   0  0  0  0  0  0  0  0  0  0  0  0
  148.4873  141.3892  154.0871 C   0  0  0  0  0  0  0  0  0  0  0  0
  147.3386  140.6609  153.6713 O   0  0  0  0  0  0  0  0  0  0  0  0
  146.1894  135.2395  151.5893 N   0  0  0  0  0  0  0  0  0  0  0  0
  145.5073  134.0498  151.2334 C   0  0  0  0  0  0  0  0  0  0  0  0
  144.1861  134.0935  151.0529 N   0  0  0  0  0  0  0  0  0  0  0  0
  143.6628  132.8453  150.7036 C   0  0  0  0  0  0  0  0  0  0  0  0
  144.6092  131.8544  150.6182 C   0  0  0  0  0  0  0  0  0  0  0  0
  146.2073  132.4492  150.9784 S   0  0  0  0  0  0  0  0  0  0  0  0
  147.5730  137.0366  152.1410 H   0  0  0  0  0  0  0  0  0  0  0  0
  145.9335  139.2342  151.9812 H   0  0  0  0  0  0  0  0  0  0  0  0
  145.6086  138.6112  153.5810 H   0  0  0  0  0  0  0  0  0  0  0  0
  148.3950  139.3189  152.5162 H   0  0  0  0  0  0  0  0  0  0  0  0
  147.4488  138.5404  155.3260 H   0  0  0  0  0  0  0  0  0  0  0  0
  148.4761  137.5602  154.3068 H   0  0  0  0  0  0  0  0  0  0  0  0
  150.6907  139.5687  153.3484 H   0  0  0  0  0  0  0  0  0  0  0  0
  150.7412  137.0174  155.1854 H   0  0  0  0  0  0  0  0  0  0  0  0
  151.7849  137.2787  153.6943 H   0  0  0  0  0  0  0  0  0  0  0  0
  152.8086  139.3052  154.7610 H   0  0  0  0  0  0  0  0  0  0  0  0
  151.7656  139.0519  156.2540 H   0  0  0  0  0  0  0  0  0  0  0  0
  148.3722  140.7965  156.1626 H   0  0  0  0  0  0  0  0  0  0  0  0
  149.9834  141.2600  155.6673 H   0  0  0  0  0  0  0  0  0  0  0  0
  148.1910  142.4142  154.3103 H   0  0  0  0  0  0  0  0  0  0  0  0
  149.2157  141.4417  153.2767 H   0  0  0  0  0  0  0  0  0  0  0  0
  147.1934  135.2112  151.4887 H   0  0  0  0  0  0  0  0  0  0  0  0
  142.6008  132.7514  150.5320 H   0  0  0  0  0  0  0  0  0  0  0  0
  144.4636  130.8145  150.3667 H   0  0  0  0  0  0  0  0  0  0  0  0
  149.5734  138.8894  156.0097 H   0  0  0  0  0  0  0  0  0  0  0  0
  1  2  2  0  0  0  0
  2  3  1  0  0  0  0
  2 14  1  0  0  0  0
  3  4  1  0  0  0  0
  3 20  1  0  0  0  0
  4  5  1  0  0  0  0
  4 21  1  0  0  0  0
  4 22  1  0  0  0  0
  5 13  1  0  0  0  0
  5  6  1  0  0  0  0
  5 23  1  0  0  0  0
  6  7  1  0  0  0  0
  6 24  1  0  0  0  0
  6 25  1  0  0  0  0
  7  8  1  0  0  0  0
  7 11  1  0  0  0  0
  7 38  1  0  0  0  0
  8 10  1  0  0  0  0
  8  9  1  0  0  0  0
  8 26  1  0  0  0  0
  9 10  1  0  0  0  0
  9 27  1  0  0  0  0
  9 28  1  0  0  0  0
 10 29  1  0  0  0  0
 10 30  1  0  0  0  0
 11 12  1  0  0  0  0
 11 31  1  0  0  0  0
 11 32  1  0  0  0  0
 12 13  1  0  0  0  0
 12 33  1  0  0  0  0
 12 34  1  0  0  0  0
 14 15  1  0  0  0  0
 14 35  1  0  0  0  0
 15 19  1  0  0  0  0
 15 16  2  0  0  0  0
 16 17  1  0  0  0  0
 17 18  2  0  0  0  0
 17 36  1  0  0  0  0
 18 19  1  0  0  0  0
 18 37  1  0  0  0  0
M  CHG  1   7   1
M  END
> <s_m_source_file>
AV-unprocessed.smi

> <i_m_source_file_index>
2999

> <i_lp_mmshare_version>
43012

> <i_f3d_flags>
0

> <s_epik_input>
czFbY0hdW2NIXW5jMVtOSF1DKD1PKVtOSF1bQ0gyXVtDQEBIXTJbQ0gyXU4oW0NIMl1bQ0gyXU8yKVtDSF0zW0NIMl1bQ0gyXTM=

> <s_epik_cmdline>
J2VwaWtfcHl0aG9uJywgJy1waCcsICc3LjAnLCAnLXRuJywgJzgnLCAnLW1hJywgJzIwMCcsICctbWV0YWxfYmluZGluZycsICctaW1hZScsICc8aW5maWxlLm1hZT4nLCAnLW9tYWUnLCAnPG91dGZpbGUubWFlPic=

> <r_lp_tautomer_probability>
0.999

> <r_epik_Ionization_Penalty>
1.55235

> <r_epik_Ionization_Penalty_Charging>
1.55221

> <r_epik_Ionization_Penalty_Neutral>
0.000139685

> <r_epik_State_Penalty>
1.64652

> <r_epik_Charging_Adjusted_Penalty>
3.19873

> <i_epik_Tot_Q>
1

> <i_epik_Tot_abs_Q>
1

> <r_epik_Metal_State_Penalty>
1.68612

> <b_epik_Metal_Only>
0

> <s_lp_Force_Field>
OPLS_2005

> <r_lp_Energy>
21.4475

> <b_lp_Chiralities_Consistent>
1

> <s_lp_Variant>
AV-unprocessed.smi:2999-5

> <Gold.Version>
5.8.1

> <Gold.Id.Protein>
6NUR|6NUR_protein|mol2

> <Gold.PLP.Fitness>
42.0731

> <Gold.PLP.PLP>
-33.5717

> <Gold.PLP.part.hbond>
-2.0000

> <Gold.PLP.part.metal>
0.0000

> <Gold.PLP.part.buried>
-3.3552

> <Gold.PLP.part.nonpolar>
-29.3957

> <Gold.PLP.part.repulsive>
0.6668

> <Gold.PLP.ligand.clash>
0.0000

> <Gold.PLP.ligand.torsion>
0.7810

> <Gold.PLP.Chemscore.Hbond>
1.9280

> <Gold.PLP.Chemscore.CHOScore>
1.0000

> <Gold.PLP.Chemscore.Metal>
0.0000

> <Gold.Chemscore.Hbonds>
donor molecule, donor type, donor heavy atom, donor atom, acceptor molecule, acceptor atom, score
      L1  H     3    20       P1  7948  1.00
      L1  H    14    35       P1  7948  0.93
      L1  C    17    36       P1 10186  0.99

> <Gold.PLP.Chemscore.Internal.Correction>
1.2795

> <Gold.Rescore>
     Score         DG    S(hbond)    S(metal)    S(lipo)     H(rot)  DE(clash)    DE(int)     intcor
     14.65     -16.92       1.94        0.00      77.01       1.58       0.04       2.23       ----

> <Gold.Chemscore.Fitness>
14.6509

> <Gold.Chemscore.DG>
-16.9220

> <Gold.Chemscore.ZeroCoef>
-5.4800

> <Gold.Chemscore.Hbond>
1.9389

> <Gold.Chemscore.Metal>
0.0000

> <Gold.Chemscore.Lipo>
77.0053

> <Gold.Chemscore.Internal_Hbond>
0.0000

> <Gold.Chemscore.DEClash>
0.0393

> <Gold.Chemscore.DEInternal>
2.2319

> <Gold.Chemscore.Rot>
1.5795

> <Gold.Chemscore.Internal.Correction>
   9.000000E+99

> <Gold.Chemscore.Hbonds>
donor molecule, donor type, donor heavy atom, donor atom, acceptor molecule, acceptor atom, score
      L1  H     3    20       P1  7948  0.99
      L1  H    14    35       P1  7948  0.75

> <Gold.Chemscore.Hbond.Weighted>
-6.4759

> <Gold.Chemscore.Metal.Weighted>
-0.0000

> <Gold.Chemscore.Lipo.Weighted>
-9.0096

> <Gold.Chemscore.Internal_Hbond.Weighted>
0.0000

> <Gold.Chemscore.DEClash.Weighted>
0.0393

> <Gold.Chemscore.DEInternal.Weighted>
2.2319

> <Gold.Chemscore.Rot.Weighted>
4.0434

> <Gold.Chemscore.Internal.Correction.Weighted>
   9.000000E+99

> <Gold.Protein.RotatedTorsions>
[ 6907 6896 6895 6894 ] final -144.97 input  -60.11 | X-H torsion
[ 7974 7965 7964 7962 ] final   35.25 input  175.53 | X-H torsion
[ 8008 7997 7996 7995 ] final -136.50 input   59.86 | X-H torsion
[ 10167 10162 10161 10158 ] final  -44.21 input  -65.29 | X-H torsion
[ 10718 10713 10712 10709 ] final  119.39 input   66.30 | X-H torsion
[ 10763 10752 10751 10750 ] final   -7.07 input  -60.55 | X-H torsion
[ 11005 11000 10999 10996 ] final  -12.44 input  -57.11 | X-H torsion

> <Gold.Protein.ActiveResidues>
 VAL166  LYS551  ARG553  GLY616  TRP617  ASP618  TYR619  PRO620  LYS621  CYS622 
 ASP623  PHE694  ASN695  SER759  ASP760  ASP761  ALA762  ILE779  LEU786  VAL792 
 PHE793  MET794  SER795  GLU796  ALA797  LYS798  CYS799  TRP800  GLU811  SER814 

> <Gold.Protein.RotatedAtoms>
  151.1213  133.5102  159.2601 H   0  0  0  0  0  0  0  0  0  0  0  0  # atno 6907 bound_to 6896
  151.1859  135.0381  159.8822 H   0  0  0  0  0  0  0  0  0  0  0  0  # atno 6908 bound_to 6896
  152.5456  134.1059  159.8391 H   0  0  0  0  0  0  0  0  0  0  0  0  # atno 6909 bound_to 6896
  146.1296  139.6166  142.9235 H   0  0  0  0  0  0  0  0  0  0  0  0  # atno 7974 bound_to 7965
  155.3962  140.0503  157.3038 H   0  0  0  0  0  0  0  0  0  0  0  0  # atno 8008 bound_to 7997
  154.5012  140.2157  155.9303 H   0  0  0  0  0  0  0  0  0  0  0  0  # atno 8009 bound_to 7997
  156.1470  140.3143  155.8591 H   0  0  0  0  0  0  0  0  0  0  0  0  # atno 8010 bound_to 7997
  140.6905  143.2942  151.3462 H   0  0  0  0  0  0  0  0  0  0  0  0  # atno 10167 bound_to 10162
  157.5965  131.1057  150.7889 H   0  0  0  0  0  0  0  0  0  0  0  0  # atno 10718 bound_to 10713
  153.4212  135.7010  153.6293 H   0  0  0  0  0  0  0  0  0  0  0  0  # atno 10763 bound_to 10752
  153.4747  135.3707  155.2410 H   0  0  0  0  0  0  0  0  0  0  0  0  # atno 10764 bound_to 10752
  154.8722  135.4051  154.3580 H   0  0  0  0  0  0  0  0  0  0  0  0  # atno 10765 bound_to 10752
  140.7657  133.8478  155.9163 H   0  0  0  0  0  0  0  0  0  0  0  0  # atno 11005 bound_to 11000
  145.5289  141.0428  143.2394 LP  0  0  0  0  0  0  0  0  0  0  0  0  # atno 17320 bound_to 7965
  144.7677  139.6807  143.7208 LP  0  0  0  0  0  0  0  0  0  0  0  0  # atno 17321 bound_to 7965
  139.6304  144.0732  152.2471 LP  0  0  0  0  0  0  0  0  0  0  0  0  # atno 17342 bound_to 10162
  140.0205  144.6157  150.7571 LP  0  0  0  0  0  0  0  0  0  0  0  0  # atno 17343 bound_to 10162
  156.8298  130.5012  149.5333 LP  0  0  0  0  0  0  0  0  0  0  0  0  # atno 17370 bound_to 10713
  156.1029  130.5982  150.9923 LP  0  0  0  0  0  0  0  0  0  0  0  0  # atno 17371 bound_to 10713
  140.9621  134.1642  157.4646 LP  0  0  0  0  0  0  0  0  0  0  0  0  # atno 17394 bound_to 11000
  139.8763  134.9948  156.5713 LP  0  0  0  0  0  0  0  0  0  0  0  0  # atno 17395 bound_to 11000

$$$$
