AV-unprocessed.smi:213|AV-procd|sdf|1635|dock8
  -GOLD-   2262019593D 1   1.00000     0.00000
 Structure written by MMmdl.
 59 62  0  0  0  0  0  0  0  0  2 V2000
  156.6326  135.5215  160.9973 C   0  0  0  0  0  0  0  0  0  0  0  0
  155.4702  134.8577  161.7529 C   0  0  2  0  0  0  0  0  0  0  0  0
  154.7390  133.8218  160.8650 C   0  0  0  0  0  0  0  0  0  0  0  0
  154.6613  132.4764  161.4885 N   0  3  0  0  0  0  0  0  0  0  0  0
  154.2067  132.5124  162.8971 C   0  0  0  0  0  0  0  0  0  0  0  0
  154.2455  131.0982  163.5013 C   0  0  0  0  0  0  0  0  0  0  0  0
  153.4446  130.2205  162.7190 O   0  0  0  0  0  0  0  0  0  0  0  0
  153.9161  130.1170  161.3810 C   0  0  0  0  0  0  0  0  0  0  0  0
  153.8630  131.4987  160.7091 C   0  0  0  0  0  0  0  0  0  0  0  0
  154.5559  135.8597  162.3215 N   0  0  0  0  0  0  0  0  0  0  0  0
  154.6448  136.1949  163.7425 C   0  0  0  0  0  0  0  0  0  0  0  0
  154.1384  136.8456  161.4839 C   0  0  0  0  0  0  0  0  0  0  0  0
  153.3647  136.5258  160.4113 N   0  0  0  0  0  0  0  0  0  0  0  0
  152.9083  137.4816  159.5971 C   0  0  0  0  0  0  0  0  0  0  0  0
  153.0967  138.7998  159.6724 N   0  0  0  0  0  0  0  0  0  0  0  0
  153.8796  139.1280  160.7391 C   0  0  0  0  0  0  0  0  0  0  0  0
  154.4384  138.2231  161.6854 C   0  0  0  0  0  0  0  0  0  0  0  0
  155.1828  138.9258  162.6260 N   0  0  0  0  0  0  0  0  0  0  0  0
  155.0679  140.1731  162.2596 C   0  0  0  0  0  0  0  0  0  0  0  0
  154.3037  140.3840  161.1350 N   0  0  0  0  0  0  0  0  0  0  0  0
  154.0201  141.6634  160.5090 C   0  0  0  0  0  0  0  0  0  0  0  0
  152.5168  142.0111  160.5473 C   0  0  1  0  0  0  0  0  0  0  0  0
  152.1935  142.6834  161.7484 O   0  0  0  0  0  0  0  0  0  0  0  0
  152.0270  142.8616  159.3566 C   0  0  2  0  0  0  0  0  0  0  0  0
  153.0143  143.9372  158.8996 C   0  0  0  0  0  0  0  0  0  0  0  0
  152.1295  144.9769  158.2283 C   0  0  0  0  0  0  0  0  0  0  0  0
  150.7103  144.5999  158.6620 C   0  0  0  0  0  0  0  0  0  0  0  0
  150.8808  143.6317  159.6872 O   0  0  0  0  0  0  0  0  0  0  0  0
  157.3650  134.7773  160.6834 H   0  0  0  0  0  0  0  0  0  0  0  0
  157.1509  136.2415  161.6316 H   0  0  0  0  0  0  0  0  0  0  0  0
  156.2962  136.0429  160.1014 H   0  0  0  0  0  0  0  0  0  0  0  0
  155.9379  134.3069  162.5661 H   0  0  0  0  0  0  0  0  0  0  0  0
  153.7290  134.1842  160.6676 H   0  0  0  0  0  0  0  0  0  0  0  0
  155.2246  133.7411  159.8912 H   0  0  0  0  0  0  0  0  0  0  0  0
  154.8493  133.1752  163.4778 H   0  0  0  0  0  0  0  0  0  0  0  0
  153.1948  132.9177  162.9471 H   0  0  0  0  0  0  0  0  0  0  0  0
  155.2698  130.7251  163.5528 H   0  0  0  0  0  0  0  0  0  0  0  0
  153.8601  131.1145  164.5210 H   0  0  0  0  0  0  0  0  0  0  0  0
  154.9310  129.7164  161.3687 H   0  0  0  0  0  0  0  0  0  0  0  0
  153.2890  129.4102  160.8376 H   0  0  0  0  0  0  0  0  0  0  0  0
  152.8295  131.8412  160.6383 H   0  0  0  0  0  0  0  0  0  0  0  0
  154.2428  131.4165  159.6913 H   0  0  0  0  0  0  0  0  0  0  0  0
  153.7707  136.7642  164.0613 H   0  0  0  0  0  0  0  0  0  0  0  0
  155.5347  136.7903  163.9482 H   0  0  0  0  0  0  0  0  0  0  0  0
  154.6871  135.2979  164.3586 H   0  0  0  0  0  0  0  0  0  0  0  0
  152.3016  137.1428  158.7700 H   0  0  0  0  0  0  0  0  0  0  0  0
  155.5440  140.9787  162.7996 H   0  0  0  0  0  0  0  0  0  0  0  0
  154.6078  142.4340  161.0094 H   0  0  0  0  0  0  0  0  0  0  0  0
  154.3780  141.6206  159.4803 H   0  0  0  0  0  0  0  0  0  0  0  0
  151.9408  141.0848  160.5596 H   0  0  0  0  0  0  0  0  0  0  0  0
  152.3520  143.6072  161.6281 H   0  0  0  0  0  0  0  0  0  0  0  0
  151.7926  142.2209  158.5036 H   0  0  0  0  0  0  0  0  0  0  0  0
  153.5172  144.3900  159.7543 H   0  0  0  0  0  0  0  0  0  0  0  0
  153.7823  143.5425  158.2336 H   0  0  0  0  0  0  0  0  0  0  0  0
  152.3959  145.9821  158.5561 H   0  0  0  0  0  0  0  0  0  0  0  0
  152.2218  144.9430  157.1422 H   0  0  0  0  0  0  0  0  0  0  0  0
  150.1397  145.4566  159.0212 H   0  0  0  0  0  0  0  0  0  0  0  0
  150.1629  144.1507  157.8321 H   0  0  0  0  0  0  0  0  0  0  0  0
  155.6086  132.1252  161.5135 H   0  0  0  0  0  0  0  0  0  0  0  0
  1  2  1  0  0  0  0
  1 29  1  0  0  0  0
  1 30  1  0  0  0  0
  1 31  1  0  0  0  0
  2  3  1  0  0  0  0
  2 10  1  0  0  0  0
  2 32  1  0  0  0  0
  3  4  1  0  0  0  0
  3 33  1  0  0  0  0
  3 34  1  0  0  0  0
  4  9  1  0  0  0  0
  4  5  1  0  0  0  0
  4 59  1  0  0  0  0
  5  6  1  0  0  0  0
  5 35  1  0  0  0  0
  5 36  1  0  0  0  0
  6  7  1  0  0  0  0
  6 37  1  0  0  0  0
  6 38  1  0  0  0  0
  7  8  1  0  0  0  0
  8  9  1  0  0  0  0
  8 39  1  0  0  0  0
  8 40  1  0  0  0  0
  9 41  1  0  0  0  0
  9 42  1  0  0  0  0
 10 11  1  0  0  0  0
 10 12  1  0  0  0  0
 11 43  1  0  0  0  0
 11 44  1  0  0  0  0
 11 45  1  0  0  0  0
 12 17  1  0  0  0  0
 12 13  2  0  0  0  0
 13 14  1  0  0  0  0
 14 15  2  0  0  0  0
 14 46  1  0  0  0  0
 15 16  1  0  0  0  0
 16 20  1  0  0  0  0
 16 17  2  0  0  0  0
 17 18  1  0  0  0  0
 18 19  2  0  0  0  0
 19 20  1  0  0  0  0
 19 47  1  0  0  0  0
 20 21  1  0  0  0  0
 21 22  1  0  0  0  0
 21 48  1  0  0  0  0
 21 49  1  0  0  0  0
 22 23  1  0  0  0  0
 22 24  1  0  0  0  0
 22 50  1  0  0  0  0
 23 51  1  0  0  0  0
 24 28  1  0  0  0  0
 24 25  1  0  0  0  0
 24 52  1  0  0  0  0
 25 26  1  0  0  0  0
 25 53  1  0  0  0  0
 25 54  1  0  0  0  0
 26 27  1  0  0  0  0
 26 55  1  0  0  0  0
 26 56  1  0  0  0  0
 27 28  1  0  0  0  0
 27 57  1  0  0  0  0
 27 58  1  0  0  0  0
M  CHG  1   4   1
M  END
> <s_m_source_file>
AV-unprocessed.smi

> <i_m_source_file_index>
213

> <i_lp_mmshare_version>
43012

> <i_f3d_flags>
0

> <s_epik_input>
W0NIMl0xW0NIMl1PW0NIMl1bQ0gyXU4xW0NIMl1bQ0BASF0oW0NIM10pTihbQ0gzXSljKG5bY0hdbjIpYyhjMjMpbltjSF1uM1tDSDJdW0NASF0oW09IXSlbQ0BASF00W0NIMl1bQ0gyXVtDSDJdTzQ=

> <s_epik_cmdline>
J2VwaWtfcHl0aG9uJywgJy1waCcsICc3LjAnLCAnLXRuJywgJzgnLCAnLW1hJywgJzIwMCcsICctbWV0YWxfYmluZGluZycsICctaW1hZScsICc8aW5maWxlLm1hZT4nLCAnLW9tYWUnLCAnPG91dGZpbGUubWFlPic=

> <r_lp_tautomer_probability>
1

> <r_epik_Ionization_Penalty>
0.399679

> <r_epik_Ionization_Penalty_Charging>
0.399433

> <r_epik_Ionization_Penalty_Neutral>
0.000246213

> <r_epik_State_Penalty>
0.286032

> <r_epik_Charging_Adjusted_Penalty>
0.685465

> <i_epik_Tot_Q>
1

> <i_epik_Tot_abs_Q>
1

> <r_epik_Metal_State_Penalty>
0.286072

> <b_epik_Metal_Only>
0

> <s_lp_Force_Field>
OPLS_2005

> <r_lp_Energy>
46.8913

> <b_lp_Chiralities_Consistent>
1

> <s_lp_Variant>
AV-unprocessed.smi:213-3

> <Gold.Version>
5.8.1

> <Gold.Id.Protein>
6NUR|6NUR_protein|mol2

> <Gold.PLP.Fitness>
46.9142

> <Gold.PLP.PLP>
-47.4098

> <Gold.PLP.part.hbond>
-1.9721

> <Gold.PLP.part.metal>
0.0000

> <Gold.PLP.part.buried>
-6.4063

> <Gold.PLP.part.nonpolar>
-38.9675

> <Gold.PLP.part.repulsive>
0.1283

> <Gold.PLP.ligand.clash>
0.0000

> <Gold.PLP.ligand.torsion>
2.9482

> <Gold.PLP.Chemscore.Hbond>
1.3948

> <Gold.PLP.Chemscore.CHOScore>
0.0000

> <Gold.PLP.Chemscore.Metal>
0.0000

> <Gold.Chemscore.Hbonds>
donor molecule, donor type, donor heavy atom, donor atom, acceptor molecule, acceptor atom, score
      P1  H  6896  6909       L1    13  1.00
      P1  H  6933  6945       L1    23  0.09

> <Gold.PLP.Chemscore.Internal.Correction>
1.2165

> <Gold.Rescore>
     Score         DG    S(hbond)    S(metal)    S(lipo)     H(rot)  DE(clash)    DE(int)     intcor
     11.71     -14.99       1.54        0.00      99.17       2.83       0.05       3.24       ----

> <Gold.Chemscore.Fitness>
11.7087

> <Gold.Chemscore.DG>
-14.9924

> <Gold.Chemscore.ZeroCoef>
-5.4800

> <Gold.Chemscore.Hbond>
1.5397

> <Gold.Chemscore.Metal>
0.0000

> <Gold.Chemscore.Lipo>
99.1698

> <Gold.Chemscore.Internal_Hbond>
0.0000

> <Gold.Chemscore.DEClash>
0.0466

> <Gold.Chemscore.DEInternal>
3.2370

> <Gold.Chemscore.Rot>
2.8254

> <Gold.Chemscore.Internal.Correction>
   9.000000E+99

> <Gold.Chemscore.Hbonds>
donor molecule, donor type, donor heavy atom, donor atom, acceptor molecule, acceptor atom, score
      P1  H  6896  6909       L1    13  0.53
      P1  H  6933  6945       L1    23  0.03

> <Gold.Chemscore.Hbond.Weighted>
-5.1425

> <Gold.Chemscore.Metal.Weighted>
-0.0000

> <Gold.Chemscore.Lipo.Weighted>
-11.6029

> <Gold.Chemscore.Internal_Hbond.Weighted>
0.0000

> <Gold.Chemscore.DEClash.Weighted>
0.0466

> <Gold.Chemscore.DEInternal.Weighted>
3.2370

> <Gold.Chemscore.Rot.Weighted>
7.2330

> <Gold.Chemscore.Internal.Correction.Weighted>
   9.000000E+99

> <Gold.Protein.RotatedTorsions>
[ 6907 6896 6895 6894 ] final  161.58 input  -60.11 | X-H torsion
[ 7974 7965 7964 7962 ] final   98.80 input  175.53 | X-H torsion
[ 8008 7997 7996 7995 ] final  -23.24 input   59.86 | X-H torsion
[ 10167 10162 10161 10158 ] final   18.88 input  -65.29 | X-H torsion
[ 10718 10713 10712 10709 ] final -163.97 input   66.30 | X-H torsion
[ 10763 10752 10751 10750 ] final   52.49 input  -60.55 | X-H torsion
[ 11005 11000 10999 10996 ] final   52.71 input  -57.11 | X-H torsion

> <Gold.Protein.ActiveResidues>
 VAL166  LYS551  ARG553  GLY616  TRP617  ASP618  TYR619  PRO620  LYS621  CYS622 
 ASP623  PHE694  ASN695  SER759  ASP760  ASP761  ALA762  ILE779  LEU786  VAL792 
 PHE793  MET794  SER795  GLU796  ALA797  LYS798  CYS799  TRP800  GLU811  SER814 

> <Gold.Protein.RotatedAtoms>
  151.9534  133.3673  159.4008 H   0  0  0  0  0  0  0  0  0  0  0  0  # atno 6907 bound_to 6896
  150.6976  134.4316  159.5260 H   0  0  0  0  0  0  0  0  0  0  0  0  # atno 6908 bound_to 6896
  152.1993  134.8602  160.0560 H   0  0  0  0  0  0  0  0  0  0  0  0  # atno 6909 bound_to 6896
  145.4073  139.2339  143.3267 H   0  0  0  0  0  0  0  0  0  0  0  0  # atno 7974 bound_to 7965
  154.4597  140.1986  156.0280 H   0  0  0  0  0  0  0  0  0  0  0  0  # atno 8008 bound_to 7997
  156.0815  140.3271  155.7672 H   0  0  0  0  0  0  0  0  0  0  0  0  # atno 8009 bound_to 7997
  155.5103  140.0561  157.2915 H   0  0  0  0  0  0  0  0  0  0  0  0  # atno 8010 bound_to 7997
  140.5620  143.9319  150.6649 H   0  0  0  0  0  0  0  0  0  0  0  0  # atno 10167 bound_to 10162
  156.6323  130.8935  151.2980 H   0  0  0  0  0  0  0  0  0  0  0  0  # atno 10718 bound_to 10713
  152.9789  135.5811  154.4586 H   0  0  0  0  0  0  0  0  0  0  0  0  # atno 10763 bound_to 10752
  154.4166  135.2771  155.2005 H   0  0  0  0  0  0  0  0  0  0  0  0  # atno 10764 bound_to 10752
  154.3772  135.6155  153.5825 H   0  0  0  0  0  0  0  0  0  0  0  0  # atno 10765 bound_to 10752
  140.0826  134.5317  155.8931 H   0  0  0  0  0  0  0  0  0  0  0  0  # atno 11005 bound_to 11000
  146.2722  140.4780  142.8810 LP  0  0  0  0  0  0  0  0  0  0  0  0  # atno 17320 bound_to 7965
  144.8333  140.6741  143.6277 LP  0  0  0  0  0  0  0  0  0  0  0  0  # atno 17321 bound_to 7965
  140.2773  143.3414  152.1184 LP  0  0  0  0  0  0  0  0  0  0  0  0  # atno 17342 bound_to 10162
  139.5075  144.6832  151.5954 LP  0  0  0  0  0  0  0  0  0  0  0  0  # atno 17343 bound_to 10162
  157.7196  130.9541  150.1387 LP  0  0  0  0  0  0  0  0  0  0  0  0  # atno 17370 bound_to 10713
  156.2225  130.3675  149.8540 LP  0  0  0  0  0  0  0  0  0  0  0  0  # atno 17371 bound_to 10713
  141.2052  133.6645  156.6165 LP  0  0  0  0  0  0  0  0  0  0  0  0  # atno 17394 bound_to 11000
  140.3465  134.7804  157.4436 LP  0  0  0  0  0  0  0  0  0  0  0  0  # atno 17395 bound_to 11000

$$$$
