AV-unprocessed.smi:282|AV-procd|sdf|2120|dock2
  -GOLD-   2262021423D 1   1.00000     0.00000
 Structure written by MMmdl.
 65 69  0  0  0  0  0  0  0  0  2 V2000
  149.2993  140.4452  154.5055 C   0  0  0  0  0  0  0  0  0  0  0  0
  150.6217  140.1113  155.2097 C   0  0  0  0  0  0  0  0  0  0  0  0
  151.0179  141.1027  156.3368 C   0  0  1  0  0  0  0  0  0  0  0  0
  150.6884  142.5631  155.9300 C   0  0  0  0  0  0  0  0  0  0  0  0
  150.9472  143.5389  157.0180 N   0  3  2  0  0  0  0  0  0  0  0  0
  152.3927  143.8371  157.2065 C   0  0  0  0  0  0  0  0  0  0  0  0
  152.6032  144.9289  158.2666 C   0  0  0  0  0  0  0  0  0  0  0  0
  151.9554  144.5285  159.5972 C   0  0  0  0  0  0  0  0  0  0  0  0
  150.4678  144.2171  159.3814 C   0  0  0  0  0  0  0  0  0  0  0  0
  150.2432  143.1652  158.2756 C   0  0  2  0  0  0  0  0  0  0  0  0
  150.6116  141.7336  158.7053 C   0  0  0  0  0  0  0  0  0  0  0  0
  150.3738  140.7837  157.6208 N   0  0  0  0  0  0  0  0  0  0  0  0
  150.5234  139.5064  158.0389 C   0  0  0  0  0  0  0  0  0  0  0  0
  151.7675  138.9908  158.2205 N   0  0  0  0  0  0  0  0  0  0  0  0
  151.9086  137.7210  158.6133 C   0  0  0  0  0  0  0  0  0  0  0  0
  150.9610  136.8142  158.8630 N   0  0  0  0  0  0  0  0  0  0  0  0
  149.7128  137.3298  158.6712 C   0  0  0  0  0  0  0  0  0  0  0  0
  149.4088  138.6602  158.2712 C   0  0  0  0  0  0  0  0  0  0  0  0
  148.0345  138.8349  158.1861 N   0  0  0  0  0  0  0  0  0  0  0  0
  147.5504  137.6687  158.5167 C   0  0  0  0  0  0  0  0  0  0  0  0
  148.4870  136.6992  158.8029 N   0  0  0  0  0  0  0  0  0  0  0  0
  148.2213  135.3197  159.1880 C   0  0  0  0  0  0  0  0  0  0  0  0
  147.2613  135.1510  160.4040 C   0  0  0  0  0  0  0  0  0  0  0  0
  145.7767  135.2282  159.9453 C   0  0  0  0  0  0  0  0  0  0  0  0
  145.4242  134.1596  159.0900 O   0  0  0  0  0  0  0  0  0  0  0  0
  147.5725  133.7952  161.0874 C   0  0  0  0  0  0  0  0  0  0  0  0
  146.8836  133.6407  162.4546 C   0  0  0  0  0  0  0  0  0  0  0  0
  147.2693  134.7089  163.3094 O   0  0  0  0  0  0  0  0  0  0  0  0
  146.8694  135.9802  162.8158 C   0  0  0  0  0  0  0  0  0  0  0  0
  147.5354  136.2580  161.4548 C   0  0  0  0  0  0  0  0  0  0  0  0
  149.1419  139.7831  153.6539 H   0  0  0  0  0  0  0  0  0  0  0  0
  149.2994  141.4695  154.1318 H   0  0  0  0  0  0  0  0  0  0  0  0
  148.4430  140.3241  155.1682 H   0  0  0  0  0  0  0  0  0  0  0  0
  150.5746  139.0973  155.6087 H   0  0  0  0  0  0  0  0  0  0  0  0
  151.3897  140.0948  154.4360 H   0  0  0  0  0  0  0  0  0  0  0  0
  152.0953  141.0218  156.4869 H   0  0  0  0  0  0  0  0  0  0  0  0
  151.2499  142.8650  155.0460 H   0  0  0  0  0  0  0  0  0  0  0  0
  149.6334  142.6345  155.6614 H   0  0  0  0  0  0  0  0  0  0  0  0
  152.9332  142.9350  157.4940 H   0  0  0  0  0  0  0  0  0  0  0  0
  152.8203  144.1677  156.2592 H   0  0  0  0  0  0  0  0  0  0  0  0
  153.6690  145.1080  158.4107 H   0  0  0  0  0  0  0  0  0  0  0  0
  152.1755  145.8696  157.9169 H   0  0  0  0  0  0  0  0  0  0  0  0
  152.4655  143.6589  160.0128 H   0  0  0  0  0  0  0  0  0  0  0  0
  152.0682  145.3312  160.3266 H   0  0  0  0  0  0  0  0  0  0  0  0
  150.0139  143.8854  160.3158 H   0  0  0  0  0  0  0  0  0  0  0  0
  149.9519  145.1380  159.1055 H   0  0  0  0  0  0  0  0  0  0  0  0
  149.1754  143.1649  158.0501 H   0  0  0  0  0  0  0  0  0  0  0  0
  151.6572  141.6847  159.0112 H   0  0  0  0  0  0  0  0  0  0  0  0
  150.0167  141.4488  159.5747 H   0  0  0  0  0  0  0  0  0  0  0  0
  152.9254  137.3804  158.7425 H   0  0  0  0  0  0  0  0  0  0  0  0
  146.4871  137.4796  158.5503 H   0  0  0  0  0  0  0  0  0  0  0  0
  147.8310  134.7916  158.3173 H   0  0  0  0  0  0  0  0  0  0  0  0
  149.1829  134.8520  159.4042 H   0  0  0  0  0  0  0  0  0  0  0  0
  145.0908  135.2062  160.7902 H   0  0  0  0  0  0  0  0  0  0  0  0
  145.5793  136.1662  159.4266 H   0  0  0  0  0  0  0  0  0  0  0  0
  144.9649  133.5076  159.5971 H   0  0  0  0  0  0  0  0  0  0  0  0
  147.3014  132.9617  160.4391 H   0  0  0  0  0  0  0  0  0  0  0  0
  148.6484  133.7079  161.2448 H   0  0  0  0  0  0  0  0  0  0  0  0
  145.7982  133.6037  162.3569 H   0  0  0  0  0  0  0  0  0  0  0  0
  147.1864  132.7009  162.9164 H   0  0  0  0  0  0  0  0  0  0  0  0
  145.7824  136.0332  162.7505 H   0  0  0  0  0  0  0  0  0  0  0  0
  147.1713  136.7408  163.5357 H   0  0  0  0  0  0  0  0  0  0  0  0
  148.6107  136.3446  161.6169 H   0  0  0  0  0  0  0  0  0  0  0  0
  147.2040  137.2295  161.0870 H   0  0  0  0  0  0  0  0  0  0  0  0
  150.5344  144.4094  156.7150 H   0  0  0  0  0  0  0  0  0  0  0  0
  1  2  1  0  0  0  0
  1 31  1  0  0  0  0
  1 32  1  0  0  0  0
  1 33  1  0  0  0  0
  2  3  1  0  0  0  0
  2 34  1  0  0  0  0
  2 35  1  0  0  0  0
  3 12  1  0  0  0  0
  3  4  1  0  0  0  0
  3 36  1  0  0  0  0
  4  5  1  0  0  0  0
  4 37  1  0  0  0  0
  4 38  1  0  0  0  0
  5 10  1  0  0  0  0
  5  6  1  0  0  0  0
  5 65  1  0  0  0  0
  6  7  1  0  0  0  0
  6 39  1  0  0  0  0
  6 40  1  0  0  0  0
  7  8  1  0  0  0  0
  7 41  1  0  0  0  0
  7 42  1  0  0  0  0
  8  9  1  0  0  0  0
  8 43  1  0  0  0  0
  8 44  1  0  0  0  0
  9 10  1  0  0  0  0
  9 45  1  0  0  0  0
  9 46  1  0  0  0  0
 10 11  1  0  0  0  0
 10 47  1  0  0  0  0
 11 12  1  0  0  0  0
 11 48  1  0  0  0  0
 11 49  1  0  0  0  0
 12 13  1  0  0  0  0
 13 18  1  0  0  0  0
 13 14  2  0  0  0  0
 14 15  1  0  0  0  0
 15 16  2  0  0  0  0
 15 50  1  0  0  0  0
 16 17  1  0  0  0  0
 17 21  1  0  0  0  0
 17 18  2  0  0  0  0
 18 19  1  0  0  0  0
 19 20  2  0  0  0  0
 20 21  1  0  0  0  0
 20 51  1  0  0  0  0
 21 22  1  0  0  0  0
 22 23  1  0  0  0  0
 22 52  1  0  0  0  0
 22 53  1  0  0  0  0
 23 30  1  0  0  0  0
 23 24  1  0  0  0  0
 23 26  1  0  0  0  0
 24 25  1  0  0  0  0
 24 54  1  0  0  0  0
 24 55  1  0  0  0  0
 25 56  1  0  0  0  0
 26 27  1  0  0  0  0
 26 57  1  0  0  0  0
 26 58  1  0  0  0  0
 27 28  1  0  0  0  0
 27 59  1  0  0  0  0
 27 60  1  0  0  0  0
 28 29  1  0  0  0  0
 29 30  1  0  0  0  0
 29 61  1  0  0  0  0
 29 62  1  0  0  0  0
 30 63  1  0  0  0  0
 30 64  1  0  0  0  0
M  CHG  1   5   1
M  END
> <s_m_source_file>
AV-unprocessed.smi

> <i_m_source_file_index>
282

> <i_lp_mmshare_version>
43012

> <i_f3d_flags>
0

> <s_epik_input>
W0NIMl0xW0NIMl1bQ0gyXVtDSDJdW0NAQEhdKE4xMilbQ0gyXU4oW0NAQEhdKFtDSDJdMilbQ0gyXVtDSDNdKWMobltjSF1uMyljKGMzNCluW2NIXW40W0NIMl1DNShbQ0gyXVtPSF0pW0NIMl1bQ0gyXU9bQ0gyXVtDSDJdNQ==

> <s_epik_cmdline>
J2VwaWtfcHl0aG9uJywgJy1waCcsICc3LjAnLCAnLXRuJywgJzgnLCAnLW1hJywgJzIwMCcsICctbWV0YWxfYmluZGluZycsICctaW1hZScsICc8aW5maWxlLm1hZT4nLCAnLW9tYWUnLCAnPG91dGZpbGUubWFlPic=

> <r_lp_tautomer_probability>
1

> <r_epik_Ionization_Penalty>
0.00308583

> <r_epik_Ionization_Penalty_Charging>
0.00300384

> <r_epik_Ionization_Penalty_Neutral>
8.19894e-05

> <r_epik_State_Penalty>
-0

> <r_epik_Charging_Adjusted_Penalty>
0.00300384

> <i_epik_Tot_Q>
1

> <i_epik_Tot_abs_Q>
1

> <r_epik_Metal_State_Penalty>
-0

> <b_epik_Metal_Only>
0

> <s_lp_Force_Field>
OPLS_2005

> <r_lp_Energy>
59.0592

> <b_lp_Chiralities_Consistent>
1

> <s_lp_Variant>
AV-unprocessed.smi:282-4

> <Gold.Version>
5.8.1

> <Gold.Id.Protein>
6NUR|6NUR_protein|mol2

> <Gold.PLP.Fitness>
55.2483

> <Gold.PLP.PLP>
-49.8499

> <Gold.PLP.part.hbond>
-4.1947

> <Gold.PLP.part.metal>
0.0000

> <Gold.PLP.part.buried>
-5.7105

> <Gold.PLP.part.nonpolar>
-40.5888

> <Gold.PLP.part.repulsive>
0.0447

> <Gold.PLP.ligand.clash>
0.0000

> <Gold.PLP.ligand.torsion>
0.8674

> <Gold.PLP.Chemscore.Hbond>
2.2720

> <Gold.PLP.Chemscore.CHOScore>
0.0000

> <Gold.PLP.Chemscore.Metal>
0.0000

> <Gold.Chemscore.Hbonds>
donor molecule, donor type, donor heavy atom, donor atom, acceptor molecule, acceptor atom, score
      L1  H     5    65       P1  8028  1.25
      P1  H  6896  6909       L1    16  0.96

> <Gold.PLP.Chemscore.Internal.Correction>
0.3173

> <Gold.Rescore>
     Score         DG    S(hbond)    S(metal)    S(lipo)     H(rot)  DE(clash)    DE(int)     intcor
     17.46     -20.46       1.75        0.00     131.89       2.46       2.13       0.88       ----

> <Gold.Chemscore.Fitness>
17.4552

> <Gold.Chemscore.DG>
-20.4649

> <Gold.Chemscore.ZeroCoef>
-5.4800

> <Gold.Chemscore.Hbond>
1.7499

> <Gold.Chemscore.Metal>
0.0000

> <Gold.Chemscore.Lipo>
131.8948

> <Gold.Chemscore.Internal_Hbond>
0.0000

> <Gold.Chemscore.DEClash>
2.1310

> <Gold.Chemscore.DEInternal>
0.8787

> <Gold.Chemscore.Rot>
2.4576

> <Gold.Chemscore.Internal.Correction>
   9.000000E+99

> <Gold.Chemscore.Hbonds>
donor molecule, donor type, donor heavy atom, donor atom, acceptor molecule, acceptor atom, score
      L1  H     5    65       P1  8028  0.60
      P1  H  6896  6909       L1    16  0.81

> <Gold.Chemscore.Hbond.Weighted>
-5.8447

> <Gold.Chemscore.Metal.Weighted>
-0.0000

> <Gold.Chemscore.Lipo.Weighted>
-15.4317

> <Gold.Chemscore.Internal_Hbond.Weighted>
0.0000

> <Gold.Chemscore.DEClash.Weighted>
2.1310

> <Gold.Chemscore.DEInternal.Weighted>
0.8787

> <Gold.Chemscore.Rot.Weighted>
6.2915

> <Gold.Chemscore.Internal.Correction.Weighted>
   9.000000E+99

> <Gold.Protein.RotatedTorsions>
[ 6907 6896 6895 6894 ] final   85.99 input  -60.11 | X-H torsion
[ 7974 7965 7964 7962 ] final  177.86 input  175.53 | X-H torsion
[ 8008 7997 7996 7995 ] final  154.91 input   59.86 | X-H torsion
[ 10167 10162 10161 10158 ] final   27.28 input  -65.29 | X-H torsion
[ 10718 10713 10712 10709 ] final  -73.35 input   66.30 | X-H torsion
[ 10763 10752 10751 10750 ] final -149.84 input  -60.55 | X-H torsion
[ 11005 11000 10999 10996 ] final -105.78 input  -57.11 | X-H torsion

> <Gold.Protein.ActiveResidues>
 VAL166  LYS551  ARG553  GLY616  TRP617  ASP618  TYR619  PRO620  LYS621  CYS622 
 ASP623  PHE694  ASN695  SER759  ASP760  ASP761  ALA762  ILE779  LEU786  VAL792 
 PHE793  MET794  SER795  GLU796  ALA797  LYS798  CYS799  TRP800  GLU811  SER814 

> <Gold.Protein.RotatedAtoms>
  152.5386  134.2501  159.8895 H   0  0  0  0  0  0  0  0  0  0  0  0  # atno 6907 bound_to 6896
  151.2465  133.4366  159.2617 H   0  0  0  0  0  0  0  0  0  0  0  0  # atno 6908 bound_to 6896
  151.0579  134.9731  159.8301 H   0  0  0  0  0  0  0  0  0  0  0  0  # atno 6909 bound_to 6896
  144.7163  140.0310  143.6439 H   0  0  0  0  0  0  0  0  0  0  0  0  # atno 7974 bound_to 7965
  156.2506  140.1953  156.6720 H   0  0  0  0  0  0  0  0  0  0  0  0  # atno 8008 bound_to 7997
  154.6386  140.0586  156.9844 H   0  0  0  0  0  0  0  0  0  0  0  0  # atno 8009 bound_to 7997
  155.1599  140.3259  155.4416 H   0  0  0  0  0  0  0  0  0  0  0  0  # atno 8010 bound_to 7997
  140.4951  144.0404  150.6311 H   0  0  0  0  0  0  0  0  0  0  0  0  # atno 10167 bound_to 10162
  156.0284  130.4392  150.2729 H   0  0  0  0  0  0  0  0  0  0  0  0  # atno 10718 bound_to 10713
  154.8154  135.3299  154.7191 H   0  0  0  0  0  0  0  0  0  0  0  0  # atno 10763 bound_to 10752
  153.7833  135.6917  153.4889 H   0  0  0  0  0  0  0  0  0  0  0  0  # atno 10764 bound_to 10752
  153.1966  135.4531  155.0162 H   0  0  0  0  0  0  0  0  0  0  0  0  # atno 10765 bound_to 10752
  141.1037  133.8837  157.1776 H   0  0  0  0  0  0  0  0  0  0  0  0  # atno 11005 bound_to 11000
  146.0102  139.3164  143.0875 LP  0  0  0  0  0  0  0  0  0  0  0  0  # atno 17320 bound_to 7965
  145.8690  140.9431  143.0660 LP  0  0  0  0  0  0  0  0  0  0  0  0  # atno 17321 bound_to 7965
  140.3685  143.2868  152.0305 LP  0  0  0  0  0  0  0  0  0  0  0  0  # atno 17342 bound_to 10162
  139.4859  144.6248  151.7185 LP  0  0  0  0  0  0  0  0  0  0  0  0  # atno 17343 bound_to 10162
  157.0832  131.0149  151.3149 LP  0  0  0  0  0  0  0  0  0  0  0  0  # atno 17370 bound_to 10713
  157.4911  130.7823  149.7509 LP  0  0  0  0  0  0  0  0  0  0  0  0  # atno 17371 bound_to 10713
  139.9898  135.0069  156.9948 LP  0  0  0  0  0  0  0  0  0  0  0  0  # atno 17394 bound_to 11000
  140.4958  134.1147  155.7241 LP  0  0  0  0  0  0  0  0  0  0  0  0  # atno 17395 bound_to 11000

$$$$
