AV-unprocessed.smi:1005|AV-procd|sdf|4364|dock3
  -GOLD-   22720 2263D 1   1.00000     0.00000
 Structure written by MMmdl.
 56 58  0  0  0  0  0  0  0  0  2 V2000
  153.2184  142.5828  161.5922 C   0  0  0  0  0  0  0  0  0  0  0  0
  152.5609  142.2765  160.2582 C   0  0  0  0  0  0  0  0  0  0  0  0
  152.8770  141.0681  159.5976 C   0  0  0  0  0  0  0  0  0  0  0  0
  152.2857  140.7447  158.3568 C   0  0  0  0  0  0  0  0  0  0  0  0
  152.4448  139.6320  157.5488 N   0  0  0  0  0  0  0  0  0  0  0  0
  151.6290  139.9165  156.5382 C   0  0  0  0  0  0  0  0  0  0  0  0
  150.9522  141.0791  156.5998 N   0  0  0  0  0  0  0  0  0  0  0  0
  150.0021  141.5854  155.6254 C   0  0  0  0  0  0  0  0  0  0  0  0
  149.3171  140.4523  154.8389 C   0  0  2  0  0  0  0  0  0  0  0  0
  150.1491  140.1194  153.7475 O   0  0  0  0  0  0  0  0  0  0  0  0
  147.9276  140.8443  154.2867 C   0  0  0  0  0  0  0  0  0  0  0  0
  147.2991  141.9950  154.9360 N   0  0  0  0  0  0  0  0  0  0  0  0
  146.7626  141.6236  156.2406 C   0  0  0  0  0  0  0  0  0  0  0  0
  146.0852  142.8121  156.9418 C   0  0  0  0  0  0  0  0  0  0  0  0
  145.0587  143.3332  156.1040 O   0  0  0  0  0  0  0  0  0  0  0  0
  145.5395  143.7600  154.8317 C   0  0  2  0  0  0  0  0  0  0  0  0
  144.3420  144.2861  154.0211 C   0  0  0  0  0  0  0  0  0  0  0  0
  143.3949  145.0744  154.8496 N   0  3  0  0  0  0  0  0  0  0  0  0
  143.9403  146.3821  155.2806 C   0  0  0  0  0  0  0  0  0  0  0  0
  142.0755  145.2250  154.1972 C   0  0  0  0  0  0  0  0  0  0  0  0
  146.2180  142.5647  154.1322 C   0  0  0  0  0  0  0  0  0  0  0  0
  151.3615  141.6707  157.7902 C   0  0  0  0  0  0  0  0  0  0  0  0
  151.0397  142.8767  158.4374 C   0  0  0  0  0  0  0  0  0  0  0  0
  151.6409  143.1850  159.6757 C   0  0  0  0  0  0  0  0  0  0  0  0
  151.2864  144.4899  160.3661 C   0  0  0  0  0  0  0  0  0  0  0  0
  153.8544  141.7605  161.9216 H   0  0  0  0  0  0  0  0  0  0  0  0
  152.4645  142.7498  162.3617 H   0  0  0  0  0  0  0  0  0  0  0  0
  153.8390  143.4759  161.5150 H   0  0  0  0  0  0  0  0  0  0  0  0
  153.5778  140.3757  160.0405 H   0  0  0  0  0  0  0  0  0  0  0  0
  151.5095  139.2367  155.7072 H   0  0  0  0  0  0  0  0  0  0  0  0
  149.2609  142.1991  156.1388 H   0  0  0  0  0  0  0  0  0  0  0  0
  150.5385  142.2484  154.9451 H   0  0  0  0  0  0  0  0  0  0  0  0
  149.2559  139.5797  155.4875 H   0  0  0  0  0  0  0  0  0  0  0  0
  149.6116  140.0472  152.9735 H   0  0  0  0  0  0  0  0  0  0  0  0
  147.9960  141.0524  153.2189 H   0  0  0  0  0  0  0  0  0  0  0  0
  147.2741  139.9739  154.3647 H   0  0  0  0  0  0  0  0  0  0  0  0
  146.0410  140.8129  156.1274 H   0  0  0  0  0  0  0  0  0  0  0  0
  147.5629  141.2415  156.8755 H   0  0  0  0  0  0  0  0  0  0  0  0
  145.6473  142.4953  157.8884 H   0  0  0  0  0  0  0  0  0  0  0  0
  146.8121  143.5934  157.1694 H   0  0  0  0  0  0  0  0  0  0  0  0
  146.2791  144.5489  154.9718 H   0  0  0  0  0  0  0  0  0  0  0  0
  144.6830  144.8943  153.1819 H   0  0  0  0  0  0  0  0  0  0  0  0
  143.8233  143.4299  153.5866 H   0  0  0  0  0  0  0  0  0  0  0  0
  144.1664  147.0141  154.4207 H   0  0  0  0  0  0  0  0  0  0  0  0
  144.8510  146.2641  155.8668 H   0  0  0  0  0  0  0  0  0  0  0  0
  143.2200  146.9091  155.9073 H   0  0  0  0  0  0  0  0  0  0  0  0
  142.1625  145.7799  153.2621 H   0  0  0  0  0  0  0  0  0  0  0  0
  141.3810  145.7572  154.8481 H   0  0  0  0  0  0  0  0  0  0  0  0
  141.6377  144.2502  153.9787 H   0  0  0  0  0  0  0  0  0  0  0  0
  146.5953  142.8988  153.1671 H   0  0  0  0  0  0  0  0  0  0  0  0
  145.4717  141.7966  153.9223 H   0  0  0  0  0  0  0  0  0  0  0  0
  150.3345  143.5582  157.9853 H   0  0  0  0  0  0  0  0  0  0  0  0
  150.6197  145.0962  159.7522 H   0  0  0  0  0  0  0  0  0  0  0  0
  152.1837  145.0769  160.5624 H   0  0  0  0  0  0  0  0  0  0  0  0
  150.7847  144.2946  161.3141 H   0  0  0  0  0  0  0  0  0  0  0  0
  143.2300  144.5333  155.6871 H   0  0  0  0  0  0  0  0  0  0  0  0
  1  2  1  0  0  0  0
  1 26  1  0  0  0  0
  1 27  1  0  0  0  0
  1 28  1  0  0  0  0
  2 24  1  0  0  0  0
  2  3  2  0  0  0  0
  3  4  1  0  0  0  0
  3 29  1  0  0  0  0
  4 22  2  0  0  0  0
  4  5  1  0  0  0  0
  5  6  2  0  0  0  0
  6  7  1  0  0  0  0
  6 30  1  0  0  0  0
  7  8  1  0  0  0  0
  7 22  1  0  0  0  0
  8  9  1  0  0  0  0
  8 31  1  0  0  0  0
  8 32  1  0  0  0  0
  9 10  1  0  0  0  0
  9 11  1  0  0  0  0
  9 33  1  0  0  0  0
 10 34  1  0  0  0  0
 11 12  1  0  0  0  0
 11 35  1  0  0  0  0
 11 36  1  0  0  0  0
 12 21  1  0  0  0  0
 12 13  1  0  0  0  0
 13 14  1  0  0  0  0
 13 37  1  0  0  0  0
 13 38  1  0  0  0  0
 14 15  1  0  0  0  0
 14 39  1  0  0  0  0
 14 40  1  0  0  0  0
 15 16  1  0  0  0  0
 16 17  1  0  0  0  0
 16 21  1  0  0  0  0
 16 41  1  0  0  0  0
 17 18  1  0  0  0  0
 17 42  1  0  0  0  0
 17 43  1  0  0  0  0
 18 19  1  0  0  0  0
 18 20  1  0  0  0  0
 18 56  1  0  0  0  0
 19 44  1  0  0  0  0
 19 45  1  0  0  0  0
 19 46  1  0  0  0  0
 20 47  1  0  0  0  0
 20 48  1  0  0  0  0
 20 49  1  0  0  0  0
 21 50  1  0  0  0  0
 21 51  1  0  0  0  0
 22 23  1  0  0  0  0
 23 24  2  0  0  0  0
 23 52  1  0  0  0  0
 24 25  1  0  0  0  0
 25 53  1  0  0  0  0
 25 54  1  0  0  0  0
 25 55  1  0  0  0  0
M  CHG  1  18   1
M  END
> <s_m_source_file>
AV-unprocessed.smi

> <i_m_source_file_index>
1005

> <i_lp_mmshare_version>
43012

> <i_f3d_flags>
0

> <s_epik_input>
W0NIM11jKFtjSF0xKWMoW0NIM10pW2NIXWMoYzEyKW4oW2NIXW4yKVtDSDJdW0NASF0oW09IXSlbQ0gyXU4zW0NIMl1bQ0gyXU9bQ0BIXShbQ0gyXTMpW0NIMl1OKFtDSDNdKVtDSDNd

> <s_epik_cmdline>
J2VwaWtfcHl0aG9uJywgJy1waCcsICc3LjAnLCAnLXRuJywgJzgnLCAnLW1hJywgJzIwMCcsICctbWV0YWxfYmluZGluZycsICctaW1hZScsICc8aW5maWxlLm1hZT4nLCAnLW9tYWUnLCAnPG91dGZpbGUubWFlPic=

> <r_epik_Ionization_Penalty>
0.226781

> <r_epik_Ionization_Penalty_Charging>
0.00915946

> <r_epik_Ionization_Penalty_Neutral>
0.217622

> <r_epik_State_Penalty>
0.173018

> <r_epik_Charging_Adjusted_Penalty>
0.182178

> <i_epik_Tot_Q>
1

> <i_epik_Tot_abs_Q>
1

> <r_epik_Metal_State_Penalty>
0.0905268

> <b_epik_Metal_Only>
0

> <s_lp_Force_Field>
OPLS_2005

> <r_lp_Energy>
37.9452

> <b_lp_Chiralities_Consistent>
1

> <s_lp_Variant>
AV-unprocessed.smi:1005-3

> <Gold.Version>
5.8.1

> <Gold.Id.Protein>
6NUR|6NUR_protein|mol2

> <Gold.PLP.Fitness>
52.9209

> <Gold.PLP.PLP>
-48.2922

> <Gold.PLP.part.hbond>
-2.6117

> <Gold.PLP.part.metal>
0.0000

> <Gold.PLP.part.buried>
-6.0337

> <Gold.PLP.part.nonpolar>
-39.5589

> <Gold.PLP.part.repulsive>
0.2939

> <Gold.PLP.ligand.clash>
0.0000

> <Gold.PLP.ligand.torsion>
1.6628

> <Gold.PLP.Chemscore.Hbond>
2.5680

> <Gold.PLP.Chemscore.CHOScore>
0.0000

> <Gold.PLP.Chemscore.Metal>
0.0000

> <Gold.Chemscore.Hbonds>
donor molecule, donor type, donor heavy atom, donor atom, acceptor molecule, acceptor atom, score
      L1  H    10    34       P1  7957  0.90
      P1  H  7989  7998       L1    10  0.80
      P1  H  7997  8008       L1     5  0.62

> <Gold.PLP.Chemscore.Internal.Correction>
0.2503

> <Gold.Rescore>
     Score         DG    S(hbond)    S(metal)    S(lipo)     H(rot)  DE(clash)    DE(int)     intcor
     18.77     -21.11       1.88        0.00     132.65       2.41       0.87       1.47       ----

> <Gold.Chemscore.Fitness>
18.7734

> <Gold.Chemscore.DG>
-21.1116

> <Gold.Chemscore.ZeroCoef>
-5.4800

> <Gold.Chemscore.Hbond>
1.8832

> <Gold.Chemscore.Metal>
0.0000

> <Gold.Chemscore.Lipo>
132.6527

> <Gold.Chemscore.Internal_Hbond>
0.0000

> <Gold.Chemscore.DEClash>
0.8663

> <Gold.Chemscore.DEInternal>
1.4719

> <Gold.Chemscore.Rot>
2.4136

> <Gold.Chemscore.Internal.Correction>
   9.000000E+99

> <Gold.Chemscore.Hbonds>
donor molecule, donor type, donor heavy atom, donor atom, acceptor molecule, acceptor atom, score
      L1  H    10    34       P1  7957  0.88
      P1  H  7989  7998       L1    10  0.67
      P1  H  7997  8008       L1     5  0.04

> <Gold.Chemscore.Hbond.Weighted>
-6.2900

> <Gold.Chemscore.Metal.Weighted>
-0.0000

> <Gold.Chemscore.Lipo.Weighted>
-15.5204

> <Gold.Chemscore.Internal_Hbond.Weighted>
0.0000

> <Gold.Chemscore.DEClash.Weighted>
0.8663

> <Gold.Chemscore.DEInternal.Weighted>
1.4719

> <Gold.Chemscore.Rot.Weighted>
6.1788

> <Gold.Chemscore.Internal.Correction.Weighted>
   9.000000E+99

> <Gold.Protein.RotatedTorsions>
[ 6907 6896 6895 6894 ] final  134.43 input  -60.11 | X-H torsion
[ 7974 7965 7964 7962 ] final   -0.60 input  175.53 | X-H torsion
[ 8008 7997 7996 7995 ] final  -58.04 input   59.86 | X-H torsion
[ 10167 10162 10161 10158 ] final   -9.07 input  -65.29 | X-H torsion
[ 10718 10713 10712 10709 ] final  -75.95 input   66.30 | X-H torsion
[ 10763 10752 10751 10750 ] final  -77.07 input  -60.55 | X-H torsion
[ 11005 11000 10999 10996 ] final -150.79 input  -57.11 | X-H torsion

> <Gold.Protein.ActiveResidues>
 VAL166  LYS551  ARG553  GLY616  TRP617  ASP618  TYR619  PRO620  LYS621  CYS622 
 ASP623  PHE694  ASN695  SER759  ASP760  ASP761  ALA762  ILE779  LEU786  VAL792 
 PHE793  MET794  SER795  GLU796  ALA797  LYS798  CYS799  TRP800  GLU811  SER814 

> <Gold.Protein.RotatedAtoms>
  152.3114  133.5756  159.5682 H   0  0  0  0  0  0  0  0  0  0  0  0  # atno 6907 bound_to 6896
  150.7325  134.0147  159.3690 H   0  0  0  0  0  0  0  0  0  0  0  0  # atno 6908 bound_to 6896
  151.8039  135.0701  160.0455 H   0  0  0  0  0  0  0  0  0  0  0  0  # atno 6909 bound_to 6896
  146.2426  140.1294  142.8338 H   0  0  0  0  0  0  0  0  0  0  0  0  # atno 7974 bound_to 7965
  154.4292  140.1093  156.5893 H   0  0  0  0  0  0  0  0  0  0  0  0  # atno 8008 bound_to 7997
  155.6029  140.3493  155.4580 H   0  0  0  0  0  0  0  0  0  0  0  0  # atno 8009 bound_to 7997
  156.0159  140.1229  157.0396 H   0  0  0  0  0  0  0  0  0  0  0  0  # atno 8010 bound_to 7997
  140.7077  143.5898  150.8905 H   0  0  0  0  0  0  0  0  0  0  0  0  # atno 10167 bound_to 10162
  156.0191  130.4453  150.3120 H   0  0  0  0  0  0  0  0  0  0  0  0  # atno 10718 bound_to 10713
  154.5081  135.5776  153.6583 H   0  0  0  0  0  0  0  0  0  0  0  0  # atno 10763 bound_to 10752
  152.9891  135.6152  154.2915 H   0  0  0  0  0  0  0  0  0  0  0  0  # atno 10764 bound_to 10752
  154.2828  135.2850  155.2669 H   0  0  0  0  0  0  0  0  0  0  0  0  # atno 10765 bound_to 10752
  140.7364  134.3563  157.5156 H   0  0  0  0  0  0  0  0  0  0  0  0  # atno 11005 bound_to 11000
  145.0339  140.8892  143.5093 LP  0  0  0  0  0  0  0  0  0  0  0  0  # atno 17320 bound_to 7965
  145.1363  139.2600  143.5513 LP  0  0  0  0  0  0  0  0  0  0  0  0  # atno 17321 bound_to 7965
  139.9624  143.6149  152.2998 LP  0  0  0  0  0  0  0  0  0  0  0  0  # atno 17342 bound_to 10162
  139.6706  144.7661  151.1790 LP  0  0  0  0  0  0  0  0  0  0  0  0  # atno 17343 bound_to 10162
  157.1221  131.0249  151.3005 LP  0  0  0  0  0  0  0  0  0  0  0  0  # atno 17370 bound_to 10713
  157.4619  130.7658  149.7244 LP  0  0  0  0  0  0  0  0  0  0  0  0  # atno 17371 bound_to 10713
  139.8815  134.9052  156.2894 LP  0  0  0  0  0  0  0  0  0  0  0  0  # atno 17394 bound_to 11000
  140.9875  133.7229  156.0764 LP  0  0  0  0  0  0  0  0  0  0  0  0  # atno 17395 bound_to 11000

$$$$
