AV-unprocessed.smi:3212|AV-procd|sdf|12278|dock2
  -GOLD-   2272018113D 1   1.00000     0.00000
 Structure written by MMmdl.
 40 40  0  0  0  0  0  0  0  0  2 V2000
  150.5543  138.5856  153.8126 C   0  0  0  0  0  0  0  0  0  0  0  0
  151.5814  137.8814  152.9132 C   0  0  2  0  0  0  0  0  0  0  0  0
  151.1342  137.9448  151.5030 N   0  3  0  0  0  0  0  0  0  0  0  0
  152.2063  137.8124  150.4914 C   0  0  0  0  0  0  0  0  0  0  0  0
  151.7475  138.3144  149.1130 C   0  0  0  0  0  0  0  0  0  0  0  0
  152.8408  138.8746  148.3385 N   0  0  0  0  0  0  0  0  0  0  0  0
  153.2942  138.4893  147.0943 C   0  0  0  0  0  0  0  0  0  0  0  0
  154.3438  139.3021  146.7747 C   0  0  0  0  0  0  0  0  0  0  0  0
  154.4583  140.1653  147.8998 C   0  0  0  0  0  0  0  0  0  0  0  0
  153.5579  139.9063  148.8346 N   0  0  0  0  0  0  0  0  0  0  0  0
  151.7910  136.4362  153.3867 C   0  0  0  0  0  0  0  0  0  0  0  0
  152.8818  136.0869  153.8386 O   0  0  0  0  0  0  0  0  0  0  0  0
  150.7331  135.6150  153.2612 N   0  0  0  0  0  0  0  0  0  0  0  0
  150.6308  134.1960  153.6221 C   0  0  0  0  0  0  0  0  0  0  0  0
  150.8703  134.1034  155.1394 C   0  0  0  0  0  0  0  0  0  0  0  0
  151.7096  133.3678  152.8929 C   0  0  0  0  0  0  0  0  0  0  0  0
  149.2219  133.6535  153.3029 C   0  0  0  0  0  0  0  0  0  0  0  0
  150.8692  138.5808  154.8571 H   0  0  0  0  0  0  0  0  0  0  0  0
  149.5769  138.1044  153.7579 H   0  0  0  0  0  0  0  0  0  0  0  0
  150.4266  139.6275  153.5171 H   0  0  0  0  0  0  0  0  0  0  0  0
  152.5265  138.4214  152.9941 H   0  0  0  0  0  0  0  0  0  0  0  0
  150.4439  137.2232  151.3507 H   0  0  0  0  0  0  0  0  0  0  0  0
  153.0900  138.3654  150.8125 H   0  0  0  0  0  0  0  0  0  0  0  0
  152.4978  136.7645  150.4140 H   0  0  0  0  0  0  0  0  0  0  0  0
  151.3204  137.4871  148.5448 H   0  0  0  0  0  0  0  0  0  0  0  0
  150.9592  139.0620  149.2130 H   0  0  0  0  0  0  0  0  0  0  0  0
  152.8385  137.6778  146.5458 H   0  0  0  0  0  0  0  0  0  0  0  0
  154.9390  139.2836  145.8738 H   0  0  0  0  0  0  0  0  0  0  0  0
  155.1646  140.9656  148.0644 H   0  0  0  0  0  0  0  0  0  0  0  0
  149.8958  136.0177  152.8653 H   0  0  0  0  0  0  0  0  0  0  0  0
  150.8111  133.0720  155.4890 H   0  0  0  0  0  0  0  0  0  0  0  0
  150.1298  134.6798  155.6957 H   0  0  0  0  0  0  0  0  0  0  0  0
  151.8554  134.4844  155.4114 H   0  0  0  0  0  0  0  0  0  0  0  0
  152.7083  133.7663  153.0756 H   0  0  0  0  0  0  0  0  0  0  0  0
  151.5543  133.3485  151.8144 H   0  0  0  0  0  0  0  0  0  0  0  0
  151.7040  132.3317  153.2332 H   0  0  0  0  0  0  0  0  0  0  0  0
  149.1084  132.6276  153.6548 H   0  0  0  0  0  0  0  0  0  0  0  0
  149.0168  133.6469  152.2323 H   0  0  0  0  0  0  0  0  0  0  0  0
  148.4470  134.2518  153.7837 H   0  0  0  0  0  0  0  0  0  0  0  0
  150.6947  138.8428  151.3573 H   0  0  0  0  0  0  0  0  0  0  0  0
  1  2  1  0  0  0  0
  1 18  1  0  0  0  0
  1 19  1  0  0  0  0
  1 20  1  0  0  0  0
  2  3  1  0  0  0  0
  2 11  1  0  0  0  0
  2 21  1  0  0  0  0
  3  4  1  0  0  0  0
  3 22  1  0  0  0  0
  3 40  1  0  0  0  0
  4  5  1  0  0  0  0
  4 23  1  0  0  0  0
  4 24  1  0  0  0  0
  5  6  1  0  0  0  0
  5 25  1  0  0  0  0
  5 26  1  0  0  0  0
  6 10  1  0  0  0  0
  6  7  1  0  0  0  0
  7  8  2  0  0  0  0
  7 27  1  0  0  0  0
  8  9  1  0  0  0  0
  8 28  1  0  0  0  0
  9 10  2  0  0  0  0
  9 29  1  0  0  0  0
 11 12  2  0  0  0  0
 11 13  1  0  0  0  0
 13 14  1  0  0  0  0
 13 30  1  0  0  0  0
 14 15  1  0  0  0  0
 14 16  1  0  0  0  0
 14 17  1  0  0  0  0
 15 31  1  0  0  0  0
 15 32  1  0  0  0  0
 15 33  1  0  0  0  0
 16 34  1  0  0  0  0
 16 35  1  0  0  0  0
 16 36  1  0  0  0  0
 17 37  1  0  0  0  0
 17 38  1  0  0  0  0
 17 39  1  0  0  0  0
M  CHG  1   3   1
M  END
> <s_m_source_file>
AV-unprocessed.smi

> <i_m_source_file_index>
3212

> <i_lp_mmshare_version>
43012

> <i_f3d_flags>
0

> <s_epik_input>
W0NIM11DKFtDSDNdKShbQ0gzXSlbTkhdQyg9TylbQ0BIXShbQ0gzXSlbTkhdW0NIMl1bQ0gyXW4xW2NIXVtjSF1bY0hdbjE=

> <s_epik_cmdline>
J2VwaWtfcHl0aG9uJywgJy1waCcsICc3LjAnLCAnLXRuJywgJzgnLCAnLW1hJywgJzIwMCcsICctbWV0YWxfYmluZGluZycsICctaW1hZScsICc8aW5maWxlLm1hZT4nLCAnLW9tYWUnLCAnPG91dGZpbGUubWFlPic=

> <r_lp_tautomer_probability>
1

> <r_epik_Ionization_Penalty>
0.198377

> <r_epik_Ionization_Penalty_Charging>
0.198374

> <r_epik_Ionization_Penalty_Neutral>
3.0924e-06

> <r_epik_State_Penalty>
0.188176

> <r_epik_Charging_Adjusted_Penalty>
0.38655

> <i_epik_Tot_Q>
1

> <i_epik_Tot_abs_Q>
1

> <r_epik_Metal_State_Penalty>
0.188456

> <b_epik_Metal_Only>
0

> <s_lp_Force_Field>
OPLS_2005

> <r_lp_Energy>
6.00749

> <b_lp_Chiralities_Consistent>
1

> <s_lp_Variant>
AV-unprocessed.smi:3212-1

> <Gold.Version>
5.8.1

> <Gold.Id.Protein>
6NUR|6NUR_protein|mol2

> <Gold.PLP.Fitness>
42.9651

> <Gold.PLP.PLP>
-29.3975

> <Gold.PLP.part.hbond>
-3.9127

> <Gold.PLP.part.metal>
0.0000

> <Gold.PLP.part.buried>
0.5467

> <Gold.PLP.part.nonpolar>
-25.6709

> <Gold.PLP.part.repulsive>
0.3332

> <Gold.PLP.ligand.clash>
0.0000

> <Gold.PLP.ligand.torsion>
0.5553

> <Gold.PLP.Chemscore.Hbond>
3.8640

> <Gold.PLP.Chemscore.CHOScore>
1.0000

> <Gold.PLP.Chemscore.Metal>
0.0000

> <Gold.Chemscore.Hbonds>
donor molecule, donor type, donor heavy atom, donor atom, acceptor molecule, acceptor atom, score
      L1  H    13    30       P1  7948  0.03

> <Gold.PLP.Chemscore.Internal.Correction>
0.0863

> <Gold.Rescore>
     Score         DG    S(hbond)    S(metal)    S(lipo)     H(rot)  DE(clash)    DE(int)     intcor
     16.64     -17.06       2.90        0.00      61.29       2.07       0.05       0.37       ----

> <Gold.Chemscore.Fitness>
16.6425

> <Gold.Chemscore.DG>
-17.0635

> <Gold.Chemscore.ZeroCoef>
-5.4800

> <Gold.Chemscore.Hbond>
2.9045

> <Gold.Chemscore.Metal>
0.0000

> <Gold.Chemscore.Lipo>
61.2919

> <Gold.Chemscore.Internal_Hbond>
0.0000

> <Gold.Chemscore.DEClash>
0.0506

> <Gold.Chemscore.DEInternal>
0.3704

> <Gold.Chemscore.Rot>
2.0659

> <Gold.Chemscore.Internal.Correction>
   9.000000E+99

> <Gold.Chemscore.Hbond.Weighted>
-9.7010

> <Gold.Chemscore.Metal.Weighted>
-0.0000

> <Gold.Chemscore.Lipo.Weighted>
-7.1711

> <Gold.Chemscore.Internal_Hbond.Weighted>
0.0000

> <Gold.Chemscore.DEClash.Weighted>
0.0506

> <Gold.Chemscore.DEInternal.Weighted>
0.3704

> <Gold.Chemscore.Rot.Weighted>
5.2886

> <Gold.Chemscore.Internal.Correction.Weighted>
   9.000000E+99

> <Gold.Protein.RotatedTorsions>
[ 6907 6896 6895 6894 ] final -128.53 input  -60.11 | X-H torsion
[ 7974 7965 7964 7962 ] final  -43.11 input  175.53 | X-H torsion
[ 8008 7997 7996 7995 ] final   83.14 input   59.86 | X-H torsion
[ 10167 10162 10161 10158 ] final  -41.53 input  -65.29 | X-H torsion
[ 10718 10713 10712 10709 ] final  140.20 input   66.30 | X-H torsion
[ 10763 10752 10751 10750 ] final  -32.34 input  -60.55 | X-H torsion
[ 11005 11000 10999 10996 ] final   -8.02 input  -57.11 | X-H torsion

> <Gold.Protein.ActiveResidues>
 VAL166  LYS551  ARG553  GLY616  TRP617  ASP618  TYR619  PRO620  LYS621  CYS622 
 ASP623  PHE694  ASN695  SER759  ASP760  ASP761  ALA762  ILE779  LEU786  VAL792 
 PHE793  MET794  SER795  GLU796  ALA797  LYS798  CYS799  TRP800  GLU811  SER814 

> <Gold.Protein.RotatedAtoms>
  150.9189  133.6905  159.2836 H   0  0  0  0  0  0  0  0  0  0  0  0  # atno 6907 bound_to 6896
  151.4366  135.1014  159.9667 H   0  0  0  0  0  0  0  0  0  0  0  0  # atno 6908 bound_to 6896
  152.4969  133.8607  159.7303 H   0  0  0  0  0  0  0  0  0  0  0  0  # atno 6909 bound_to 6896
  146.0051  140.7030  142.9252 H   0  0  0  0  0  0  0  0  0  0  0  0  # atno 7974 bound_to 7965
  155.9200  140.3422  155.6165 H   0  0  0  0  0  0  0  0  0  0  0  0  # atno 8008 bound_to 7997
  155.7284  140.0792  157.2318 H   0  0  0  0  0  0  0  0  0  0  0  0  # atno 8009 bound_to 7997
  154.4068  140.1592  156.2469 H   0  0  0  0  0  0  0  0  0  0  0  0  # atno 8010 bound_to 7997
  140.6999  143.3089  151.3080 H   0  0  0  0  0  0  0  0  0  0  0  0  # atno 10167 bound_to 10162
  157.4059  131.1022  151.0504 H   0  0  0  0  0  0  0  0  0  0  0  0  # atno 10718 bound_to 10713
  153.8122  135.6881  153.4839 H   0  0  0  0  0  0  0  0  0  0  0  0  # atno 10763 bound_to 10752
  153.1621  135.4576  154.9785 H   0  0  0  0  0  0  0  0  0  0  0  0  # atno 10764 bound_to 10752
  154.7963  135.3320  154.7602 H   0  0  0  0  0  0  0  0  0  0  0  0  # atno 10765 bound_to 10752
  140.7190  133.8844  155.8807 H   0  0  0  0  0  0  0  0  0  0  0  0  # atno 11005 bound_to 11000
  144.6933  140.3300  143.7217 LP  0  0  0  0  0  0  0  0  0  0  0  0  # atno 17320 bound_to 7965
  145.7429  139.1769  143.2366 LP  0  0  0  0  0  0  0  0  0  0  0  0  # atno 17321 bound_to 7965
  139.6505  144.0371  152.2622 LP  0  0  0  0  0  0  0  0  0  0  0  0  # atno 17342 bound_to 10162
  139.9906  144.6364  150.7818 LP  0  0  0  0  0  0  0  0  0  0  0  0  # atno 17343 bound_to 10162
  157.1486  130.6174  149.5575 LP  0  0  0  0  0  0  0  0  0  0  0  0  # atno 17370 bound_to 10713
  155.9836  130.4857  150.6943 LP  0  0  0  0  0  0  0  0  0  0  0  0  # atno 17371 bound_to 10713
  141.0019  134.1138  157.4308 LP  0  0  0  0  0  0  0  0  0  0  0  0  # atno 17394 bound_to 11000
  139.8853  135.0071  156.6423 LP  0  0  0  0  0  0  0  0  0  0  0  0  # atno 17395 bound_to 11000

$$$$
