AV-unprocessed.smi:1730|AV-procd|sdf|6971|dock1
  -GOLD-   22720 8183D 1   1.00000     0.00000
 Structure written by MMmdl.
 38 39  0  0  0  0  0  0  0  0  1 V2000
  151.5591  138.2107  154.4730 C   0  0  0  0  0  0  0  0  0  0  0  0
  150.1991  138.1670  154.0558 O   0  0  0  0  0  0  0  0  0  0  0  0
  149.4495  139.3258  154.1254 C   0  0  0  0  0  0  0  0  0  0  0  0
  150.0246  140.4357  154.6531 N   0  0  0  0  0  0  0  0  0  0  0  0
  149.2917  141.5655  154.7276 C   0  0  0  0  0  0  0  0  0  0  0  0
  147.9568  141.6478  154.2918 C   0  0  0  0  0  0  0  0  0  0  0  0
  147.3581  140.4985  153.7435 C   0  0  0  0  0  0  0  0  0  0  0  0
  148.1195  139.3083  153.6441 C   0  0  0  0  0  0  0  0  0  0  0  0
  147.6128  138.0849  153.1245 N   0  0  0  0  0  0  0  0  0  0  0  0
  146.3552  137.6132  153.1535 C   0  0  0  0  0  0  0  0  0  0  0  0
  145.3868  138.1948  153.6416 O   0  0  0  0  0  0  0  0  0  0  0  0
  146.2816  136.4121  152.5629 N   0  0  0  0  0  0  0  0  0  0  0  0
  145.0765  135.5967  152.4172 C   0  0  1  0  0  0  0  0  0  0  0  0
  143.8840  136.5014  152.0742 C   0  0  0  0  0  0  0  0  0  0  0  0
  145.2893  134.4912  151.3627 C   0  0  2  0  0  0  0  0  0  0  0  0
  144.0537  133.6463  151.0382 C   0  0  0  0  0  0  0  0  0  0  0  0
  144.6862  132.3803  150.5073 C   0  0  0  0  0  0  0  0  0  0  0  0
  145.8983  132.2329  151.4226 C   0  0  0  0  0  0  0  0  0  0  0  0
  146.2839  133.5574  151.7809 O   0  0  0  0  0  0  0  0  0  0  0  0
  152.0026  137.2218  154.3585 H   0  0  0  0  0  0  0  0  0  0  0  0
  151.6448  138.4921  155.5235 H   0  0  0  0  0  0  0  0  0  0  0  0
  152.1406  138.9063  153.8661 H   0  0  0  0  0  0  0  0  0  0  0  0
  149.7818  142.4282  155.1540 H   0  0  0  0  0  0  0  0  0  0  0  0
  147.4028  142.5705  154.3800 H   0  0  0  0  0  0  0  0  0  0  0  0
  146.3284  140.5518  153.4271 H   0  0  0  0  0  0  0  0  0  0  0  0
  148.2829  137.5252  152.6176 H   0  0  0  0  0  0  0  0  0  0  0  0
  147.1331  136.0182  152.1895 H   0  0  0  0  0  0  0  0  0  0  0  0
  144.8418  135.1029  153.3615 H   0  0  0  0  0  0  0  0  0  0  0  0
  142.9656  135.9217  151.9783 H   0  0  0  0  0  0  0  0  0  0  0  0
  144.0428  137.0312  151.1344 H   0  0  0  0  0  0  0  0  0  0  0  0
  143.7210  137.2469  152.8533 H   0  0  0  0  0  0  0  0  0  0  0  0
  145.6441  134.9416  150.4342 H   0  0  0  0  0  0  0  0  0  0  0  0
  143.4763  133.4177  151.9344 H   0  0  0  0  0  0  0  0  0  0  0  0
  143.3888  134.1261  150.3199 H   0  0  0  0  0  0  0  0  0  0  0  0
  144.0191  131.5184  150.5408 H   0  0  0  0  0  0  0  0  0  0  0  0
  145.0077  132.5264  149.4751 H   0  0  0  0  0  0  0  0  0  0  0  0
  145.6243  131.6963  152.3317 H   0  0  0  0  0  0  0  0  0  0  0  0
  146.7172  131.6946  150.9452 H   0  0  0  0  0  0  0  0  0  0  0  0
  1  2  1  0  0  0  0
  1 20  1  0  0  0  0
  1 21  1  0  0  0  0
  1 22  1  0  0  0  0
  2  3  1  0  0  0  0
  3  8  1  0  0  0  0
  3  4  2  0  0  0  0
  4  5  1  0  0  0  0
  5  6  2  0  0  0  0
  5 23  1  0  0  0  0
  6  7  1  0  0  0  0
  6 24  1  0  0  0  0
  7  8  2  0  0  0  0
  7 25  1  0  0  0  0
  8  9  1  0  0  0  0
  9 10  1  0  0  0  0
  9 26  1  0  0  0  0
 10 11  2  0  0  0  0
 10 12  1  0  0  0  0
 12 13  1  0  0  0  0
 12 27  1  0  0  0  0
 13 14  1  0  0  0  0
 13 15  1  0  0  0  0
 13 28  1  0  0  0  0
 14 29  1  0  0  0  0
 14 30  1  0  0  0  0
 14 31  1  0  0  0  0
 15 19  1  0  0  0  0
 15 16  1  0  0  0  0
 15 32  1  0  0  0  0
 16 17  1  0  0  0  0
 16 33  1  0  0  0  0
 16 34  1  0  0  0  0
 17 18  1  0  0  0  0
 17 35  1  0  0  0  0
 17 36  1  0  0  0  0
 18 19  1  0  0  0  0
 18 37  1  0  0  0  0
 18 38  1  0  0  0  0
M  END
> <s_m_source_file>
AV-unprocessed.smi

> <i_m_source_file_index>
1730

> <i_lp_mmshare_version>
43012

> <i_f3d_flags>
0

> <s_epik_input>
W0NIM11PYzFuW2NIXVtjSF1bY0hdYzFbTkhdQyg9TylbTkhdW0NASF0oW0NIM10pW0NAQEhdMltDSDJdW0NIMl1bQ0gyXU8y

> <s_epik_cmdline>
J2VwaWtfcHl0aG9uJywgJy1waCcsICc3LjAnLCAnLXRuJywgJzgnLCAnLW1hJywgJzIwMCcsICctbWV0YWxfYmluZGluZycsICctaW1hZScsICc8aW5maWxlLm1hZT4nLCAnLW9tYWUnLCAnPG91dGZpbGUubWFlPic=

> <r_lp_tautomer_probability>
1

> <r_epik_Ionization_Penalty>
9.187e-05

> <r_epik_Ionization_Penalty_Charging>
0

> <r_epik_Ionization_Penalty_Neutral>
9.187e-05

> <r_epik_State_Penalty>
-0

> <r_epik_Charging_Adjusted_Penalty>
0

> <i_epik_Tot_Q>
0

> <i_epik_Tot_abs_Q>
0

> <r_epik_Metal_State_Penalty>
-0

> <b_epik_Metal_Only>
0

> <s_lp_Force_Field>
OPLS_2005

> <r_lp_Energy>
21.6149

> <b_lp_Chiralities_Consistent>
1

> <s_lp_Variant>
AV-unprocessed.smi:1730-2

> <Gold.Version>
5.8.1

> <Gold.Id.Protein>
6NUR|6NUR_protein|mol2

> <Gold.PLP.Fitness>
42.3653

> <Gold.PLP.PLP>
-31.6201

> <Gold.PLP.part.hbond>
-3.0000

> <Gold.PLP.part.metal>
0.0000

> <Gold.PLP.part.buried>
-2.6573

> <Gold.PLP.part.nonpolar>
-26.8984

> <Gold.PLP.part.repulsive>
0.7436

> <Gold.PLP.ligand.clash>
0.0000

> <Gold.PLP.ligand.torsion>
0.4950

> <Gold.PLP.Chemscore.Hbond>
2.9040

> <Gold.PLP.Chemscore.CHOScore>
1.0000

> <Gold.PLP.Chemscore.Metal>
0.0000

> <Gold.Chemscore.Hbonds>
donor molecule, donor type, donor heavy atom, donor atom, acceptor molecule, acceptor atom, score
      L1  H     9    26       P1  7948  1.00
      L1  H    12    27       P1  7948  0.98
      P1  H  7989  7998       L1     4  0.93
      L1  C     5    23       P1  8028  1.00

> <Gold.PLP.Chemscore.Internal.Correction>
0.0231

> <Gold.Rescore>
     Score         DG    S(hbond)    S(metal)    S(lipo)     H(rot)  DE(clash)    DE(int)     intcor
     13.96     -17.40       2.13        0.00      73.38       1.47       0.42       3.02       ----

> <Gold.Chemscore.Fitness>
13.9636

> <Gold.Chemscore.DG>
-17.4035

> <Gold.Chemscore.ZeroCoef>
-5.4800

> <Gold.Chemscore.Hbond>
2.1254

> <Gold.Chemscore.Metal>
0.0000

> <Gold.Chemscore.Lipo>
73.3835

> <Gold.Chemscore.Internal_Hbond>
0.0000

> <Gold.Chemscore.DEClash>
0.4200

> <Gold.Chemscore.DEInternal>
3.0199

> <Gold.Chemscore.Rot>
1.4693

> <Gold.Chemscore.Internal.Correction>
   9.000000E+99

> <Gold.Chemscore.Hbonds>
donor molecule, donor type, donor heavy atom, donor atom, acceptor molecule, acceptor atom, score
      L1  H     9    26       P1  7948  0.99
      L1  H    12    27       P1  7948  0.93
      P1  H  7989  7998       L1     4  0.28

> <Gold.Chemscore.Hbond.Weighted>
-7.0989

> <Gold.Chemscore.Metal.Weighted>
-0.0000

> <Gold.Chemscore.Lipo.Weighted>
-8.5859

> <Gold.Chemscore.Internal_Hbond.Weighted>
0.0000

> <Gold.Chemscore.DEClash.Weighted>
0.4200

> <Gold.Chemscore.DEInternal.Weighted>
3.0199

> <Gold.Chemscore.Rot.Weighted>
3.7613

> <Gold.Chemscore.Internal.Correction.Weighted>
   9.000000E+99

> <Gold.Protein.RotatedTorsions>
[ 6907 6896 6895 6894 ] final -124.63 input  -60.11 | X-H torsion
[ 7974 7965 7964 7962 ] final  153.09 input  175.53 | X-H torsion
[ 8008 7997 7996 7995 ] final  -29.89 input   59.86 | X-H torsion
[ 10167 10162 10161 10158 ] final  -61.32 input  -65.29 | X-H torsion
[ 10718 10713 10712 10709 ] final -142.68 input   66.30 | X-H torsion
[ 10763 10752 10751 10750 ] final -176.38 input  -60.55 | X-H torsion
[ 11005 11000 10999 10996 ] final   27.19 input  -57.11 | X-H torsion

> <Gold.Protein.ActiveResidues>
 VAL166  LYS551  ARG553  GLY616  TRP617  ASP618  TYR619  PRO620  LYS621  CYS622 
 ASP623  PHE694  ASN695  SER759  ASP760  ASP761  ALA762  ILE779  LEU786  VAL792 
 PHE793  MET794  SER795  GLU796  ALA797  LYS798  CYS799  TRP800  GLU811  SER814 

> <Gold.Protein.RotatedAtoms>
  150.8787  133.7402  159.2938 H   0  0  0  0  0  0  0  0  0  0  0  0  # atno 6907 bound_to 6896
  151.4991  135.1059  159.9833 H   0  0  0  0  0  0  0  0  0  0  0  0  # atno 6908 bound_to 6896
  152.4745  133.8060  159.7034 H   0  0  0  0  0  0  0  0  0  0  0  0  # atno 6909 bound_to 6896
  144.8178  139.6755  143.6114 H   0  0  0  0  0  0  0  0  0  0  0  0  # atno 7974 bound_to 7965
  154.4272  140.1806  156.1319 H   0  0  0  0  0  0  0  0  0  0  0  0  # atno 8008 bound_to 7997
  156.0061  140.3355  155.6868 H   0  0  0  0  0  0  0  0  0  0  0  0  # atno 8009 bound_to 7997
  155.6176  140.0656  157.2678 H   0  0  0  0  0  0  0  0  0  0  0  0  # atno 8010 bound_to 7997
  140.6014  143.2362  151.5921 H   0  0  0  0  0  0  0  0  0  0  0  0  # atno 10167 bound_to 10162
  156.3488  130.7677  151.1826 H   0  0  0  0  0  0  0  0  0  0  0  0  # atno 10718 bound_to 10713
  154.5730  135.2829  155.0808 H   0  0  0  0  0  0  0  0  0  0  0  0  # atno 10763 bound_to 10752
  154.2174  135.6397  153.5137 H   0  0  0  0  0  0  0  0  0  0  0  0  # atno 10764 bound_to 10752
  153.0063  135.5506  154.6359 H   0  0  0  0  0  0  0  0  0  0  0  0  # atno 10765 bound_to 10752
  140.3290  134.2459  155.7705 H   0  0  0  0  0  0  0  0  0  0  0  0  # atno 11005 bound_to 11000
  146.2482  139.6143  142.9445 LP  0  0  0  0  0  0  0  0  0  0  0  0  # atno 17320 bound_to 7965
  145.5175  141.0433  143.2454 LP  0  0  0  0  0  0  0  0  0  0  0  0  # atno 17321 bound_to 7965
  139.5293  144.2963  152.1111 LP  0  0  0  0  0  0  0  0  0  0  0  0  # atno 17342 bound_to 10162
  140.2144  144.4530  150.6370 LP  0  0  0  0  0  0  0  0  0  0  0  0  # atno 17343 bound_to 10162
  157.7458  131.0433  150.4738 LP  0  0  0  0  0  0  0  0  0  0  0  0  # atno 17370 bound_to 10713
  156.4930  130.4099  149.6396 LP  0  0  0  0  0  0  0  0  0  0  0  0  # atno 17371 bound_to 10713
  141.2068  133.7823  157.0155 LP  0  0  0  0  0  0  0  0  0  0  0  0  # atno 17394 bound_to 11000
  140.0877  134.9611  157.1726 LP  0  0  0  0  0  0  0  0  0  0  0  0  # atno 17395 bound_to 11000

$$$$
