AV-unprocessed.smi:2253|AV-procd|sdf|9122|dock4
  -GOLD-   2272012323D 1   1.00000     0.00000
 Structure written by MMmdl.
 51 53  0  0  0  0  0  0  0  0  2 V2000
  152.8165  139.3531  158.0073 C   0  0  0  0  0  0  0  0  0  0  0  0
  151.5455  139.7729  157.4337 N   0  0  0  0  0  0  0  0  0  0  0  0
  151.6231  139.6931  155.9781 C   0  0  0  0  0  0  0  0  0  0  0  0
  150.2653  140.0602  155.3561 C   0  0  0  0  0  0  0  0  0  0  0  0
  149.8039  141.4832  155.7543 C   0  0  0  0  0  0  0  0  0  0  0  0
  148.4230  141.8086  155.2610 N   0  3  2  0  0  0  0  0  0  0  0  0
  147.3141  141.0069  155.8538 C   0  0  0  0  0  0  0  0  0  0  0  0
  147.3188  139.5569  155.3352 C   0  0  0  0  0  0  0  0  0  0  0  0
  147.2013  139.5274  153.8016 C   0  0  2  0  0  0  0  0  0  0  0  0
  147.2990  138.1520  153.3208 N   0  0  0  0  0  0  0  0  0  0  0  0
  146.2803  137.4386  152.8182 C   0  0  0  0  0  0  0  0  0  0  0  0
  145.1458  137.8936  152.6799 O   0  0  0  0  0  0  0  0  0  0  0  0
  146.6735  136.1934  152.4978 N   0  0  0  0  0  0  0  0  0  0  0  0
  145.9199  135.1049  151.9733 C   0  0  0  0  0  0  0  0  0  0  0  0
  144.6965  135.2290  151.2691 C   0  0  0  0  0  0  0  0  0  0  0  0
  144.0585  134.0585  150.8111 C   0  0  0  0  0  0  0  0  0  0  0  0
  144.5495  132.8168  151.0064 N   0  0  0  0  0  0  0  0  0  0  0  0
  145.7143  132.7012  151.6777 C   0  0  0  0  0  0  0  0  0  0  0  0
  146.4324  133.8058  152.1778 C   0  0  0  0  0  0  0  0  0  0  0  0
  147.5964  133.6168  152.8456 F   0  0  0  0  0  0  0  0  0  0  0  0
  148.2886  140.4173  153.1668 C   0  0  0  0  0  0  0  0  0  0  0  0
  148.2770  141.8336  153.7766 C   0  0  0  0  0  0  0  0  0  0  0  0
  149.8948  141.5886  157.2954 C   0  0  0  0  0  0  0  0  0  0  0  0
  151.2689  141.1505  157.8299 C   0  0  0  0  0  0  0  0  0  0  0  0
  153.0416  138.3236  157.7269 H   0  0  0  0  0  0  0  0  0  0  0  0
  152.7781  139.3978  159.0962 H   0  0  0  0  0  0  0  0  0  0  0  0
  153.6369  139.9872  157.6678 H   0  0  0  0  0  0  0  0  0  0  0  0
  152.4058  140.3545  155.6024 H   0  0  0  0  0  0  0  0  0  0  0  0
  151.8933  138.6781  155.6835 H   0  0  0  0  0  0  0  0  0  0  0  0
  150.3760  139.9770  154.2754 H   0  0  0  0  0  0  0  0  0  0  0  0
  149.5168  139.3253  155.6564 H   0  0  0  0  0  0  0  0  0  0  0  0
  150.5114  142.1896  155.3198 H   0  0  0  0  0  0  0  0  0  0  0  0
  147.3184  141.0374  156.9416 H   0  0  0  0  0  0  0  0  0  0  0  0
  146.3705  141.4777  155.5729 H   0  0  0  0  0  0  0  0  0  0  0  0
  148.2289  139.0484  155.6561 H   0  0  0  0  0  0  0  0  0  0  0  0
  146.4886  139.0065  155.7798 H   0  0  0  0  0  0  0  0  0  0  0  0
  146.2209  139.9266  153.5332 H   0  0  0  0  0  0  0  0  0  0  0  0
  148.2009  137.7046  153.3960 H   0  0  0  0  0  0  0  0  0  0  0  0
  147.6477  135.9864  152.6639 H   0  0  0  0  0  0  0  0  0  0  0  0
  144.2298  136.1798  151.0688 H   0  0  0  0  0  0  0  0  0  0  0  0
  143.1248  134.1225  150.2721 H   0  0  0  0  0  0  0  0  0  0  0  0
  146.0848  131.6971  151.8221 H   0  0  0  0  0  0  0  0  0  0  0  0
  149.2708  139.9617  153.2956 H   0  0  0  0  0  0  0  0  0  0  0  0
  148.1297  140.4877  152.0900 H   0  0  0  0  0  0  0  0  0  0  0  0
  147.3243  142.3095  153.5405 H   0  0  0  0  0  0  0  0  0  0  0  0
  149.0267  142.4614  153.3003 H   0  0  0  0  0  0  0  0  0  0  0  0
  149.7306  142.6109  157.6310 H   0  0  0  0  0  0  0  0  0  0  0  0
  149.1151  140.9801  157.7564 H   0  0  0  0  0  0  0  0  0  0  0  0
  151.2732  141.2231  158.9184 H   0  0  0  0  0  0  0  0  0  0  0  0
  152.0512  141.8167  157.4617 H   0  0  0  0  0  0  0  0  0  0  0  0
  148.2594  142.7566  155.5695 H   0  0  0  0  0  0  0  0  0  0  0  0
  1  2  1  0  0  0  0
  1 25  1  0  0  0  0
  1 26  1  0  0  0  0
  1 27  1  0  0  0  0
  2 24  1  0  0  0  0
  2  3  1  0  0  0  0
  3  4  1  0  0  0  0
  3 28  1  0  0  0  0
  3 29  1  0  0  0  0
  4  5  1  0  0  0  0
  4 30  1  0  0  0  0
  4 31  1  0  0  0  0
  5  6  1  0  0  0  0
  5 23  1  0  0  0  0
  5 32  1  0  0  0  0
  6 22  1  0  0  0  0
  6  7  1  0  0  0  0
  6 51  1  0  0  0  0
  7  8  1  0  0  0  0
  7 33  1  0  0  0  0
  7 34  1  0  0  0  0
  8  9  1  0  0  0  0
  8 35  1  0  0  0  0
  8 36  1  0  0  0  0
  9 10  1  0  0  0  0
  9 21  1  0  0  0  0
  9 37  1  0  0  0  0
 10 11  1  0  0  0  0
 10 38  1  0  0  0  0
 11 12  2  0  0  0  0
 11 13  1  0  0  0  0
 13 14  1  0  0  0  0
 13 39  1  0  0  0  0
 14 19  1  0  0  0  0
 14 15  2  0  0  0  0
 15 16  1  0  0  0  0
 15 40  1  0  0  0  0
 16 17  2  0  0  0  0
 16 41  1  0  0  0  0
 17 18  1  0  0  0  0
 18 19  2  0  0  0  0
 18 42  1  0  0  0  0
 19 20  1  0  0  0  0
 21 22  1  0  0  0  0
 21 43  1  0  0  0  0
 21 44  1  0  0  0  0
 22 45  1  0  0  0  0
 22 46  1  0  0  0  0
 23 24  1  0  0  0  0
 23 47  1  0  0  0  0
 23 48  1  0  0  0  0
 24 49  1  0  0  0  0
 24 50  1  0  0  0  0
M  CHG  1   6   1
M  END
> <s_m_source_file>
AV-unprocessed.smi

> <i_m_source_file_index>
2253

> <i_lp_mmshare_version>
43012

> <i_f3d_flags>
0

> <s_epik_input>
W0NIM11OMVtDSDJdW0NIMl1bQ0hdKFtDSDJdW0NIMl0xKU4yW0NIMl1bQ0gyXVtDSF0oW0NIMl1bQ0gyXTIpW05IXUMoPU8pW05IXWMzW2NIXVtjSF1uW2NIXWMzRg==

> <s_epik_cmdline>
J2VwaWtfcHl0aG9uJywgJy1waCcsICc3LjAnLCAnLXRuJywgJzgnLCAnLW1hJywgJzIwMCcsICctbWV0YWxfYmluZGluZycsICctaW1hZScsICc8aW5maWxlLm1hZT4nLCAnLW9tYWUnLCAnPG91dGZpbGUubWFlPic=

> <r_epik_Ionization_Penalty>
1.37522

> <r_epik_Ionization_Penalty_Charging>
0.00081195

> <r_epik_Ionization_Penalty_Neutral>
1.3744

> <r_epik_State_Penalty>
1.55149

> <r_epik_Charging_Adjusted_Penalty>
1.5523

> <i_epik_Tot_Q>
1

> <i_epik_Tot_abs_Q>
1

> <r_epik_Metal_State_Penalty>
1.55158

> <b_epik_Metal_Only>
0

> <s_lp_Force_Field>
OPLS_2005

> <r_lp_Energy>
38.6229

> <b_lp_Chiralities_Consistent>
1

> <s_lp_Variant>
AV-unprocessed.smi:2253-8

> <Gold.Version>
5.8.1

> <Gold.Id.Protein>
6NUR|6NUR_protein|mol2

> <Gold.PLP.Fitness>
39.1219

> <Gold.PLP.PLP>
-29.4709

> <Gold.PLP.part.hbond>
-2.5668

> <Gold.PLP.part.metal>
0.0000

> <Gold.PLP.part.buried>
3.6881

> <Gold.PLP.part.nonpolar>
-30.4452

> <Gold.PLP.part.repulsive>
1.4759

> <Gold.PLP.ligand.clash>
1.3128

> <Gold.PLP.ligand.torsion>
0.2286

> <Gold.PLP.Chemscore.Hbond>
2.7899

> <Gold.PLP.Chemscore.CHOScore>
1.0000

> <Gold.PLP.Chemscore.Metal>
0.0000

> <Gold.Chemscore.Hbonds>
donor molecule, donor type, donor heavy atom, donor atom, acceptor molecule, acceptor atom, score
      L1  H     6    51       P1  8028  1.90
      L1  H    10    38       P1  7948  0.20
      L1  H    13    39       P1  7948  0.67
      L1  C    16    41       P1 10186  1.00

> <Gold.PLP.Chemscore.Internal.Correction>
0.0512

> <Gold.Rescore>
     Score         DG    S(hbond)    S(metal)    S(lipo)     H(rot)  DE(clash)    DE(int)     intcor
     13.21     -17.44       1.55        0.00      84.95       1.24       1.70       2.54       ----

> <Gold.Chemscore.Fitness>
13.2102

> <Gold.Chemscore.DG>
-17.4439

> <Gold.Chemscore.ZeroCoef>
-5.4800

> <Gold.Chemscore.Hbond>
1.5548

> <Gold.Chemscore.Metal>
0.0000

> <Gold.Chemscore.Lipo>
84.9520

> <Gold.Chemscore.Internal_Hbond>
0.0000

> <Gold.Chemscore.DEClash>
1.6977

> <Gold.Chemscore.DEInternal>
2.5360

> <Gold.Chemscore.Rot>
1.2377

> <Gold.Chemscore.Internal.Correction>
   9.000000E+99

> <Gold.Chemscore.Hbonds>
donor molecule, donor type, donor heavy atom, donor atom, acceptor molecule, acceptor atom, score
      L1  H     6    51       P1  8028  0.84
      L1  H    10    38       P1  7948  0.21
      L1  H    13    39       P1  7948  0.64

> <Gold.Chemscore.Hbond.Weighted>
-5.1931

> <Gold.Chemscore.Metal.Weighted>
-0.0000

> <Gold.Chemscore.Lipo.Weighted>
-9.9394

> <Gold.Chemscore.Internal_Hbond.Weighted>
0.0000

> <Gold.Chemscore.DEClash.Weighted>
1.6977

> <Gold.Chemscore.DEInternal.Weighted>
2.5360

> <Gold.Chemscore.Rot.Weighted>
3.1685

> <Gold.Chemscore.Internal.Correction.Weighted>
   9.000000E+99

> <Gold.Protein.RotatedTorsions>
[ 6907 6896 6895 6894 ] final   51.54 input  -60.11 | X-H torsion
[ 7974 7965 7964 7962 ] final -147.89 input  175.53 | X-H torsion
[ 8008 7997 7996 7995 ] final  108.80 input   59.86 | X-H torsion
[ 10167 10162 10161 10158 ] final   16.43 input  -65.29 | X-H torsion
[ 10718 10713 10712 10709 ] final   -2.36 input   66.30 | X-H torsion
[ 10763 10752 10751 10750 ] final   46.40 input  -60.55 | X-H torsion
[ 11005 11000 10999 10996 ] final  137.99 input  -57.11 | X-H torsion

> <Gold.Protein.ActiveResidues>
 VAL166  LYS551  ARG553  GLY616  TRP617  ASP618  TYR619  PRO620  LYS621  CYS622 
 ASP623  PHE694  ASN695  SER759  ASP760  ASP761  ALA762  ILE779  LEU786  VAL792 
 PHE793  MET794  SER795  GLU796  ALA797  LYS798  CYS799  TRP800  GLU811  SER814 

> <Gold.Protein.RotatedAtoms>
  152.3138  134.7465  160.0330 H   0  0  0  0  0  0  0  0  0  0  0  0  # atno 6907 bound_to 6896
  151.7937  133.3357  159.3514 H   0  0  0  0  0  0  0  0  0  0  0  0  # atno 6908 bound_to 6896
  150.7334  134.5749  159.5953 H   0  0  0  0  0  0  0  0  0  0  0  0  # atno 6909 bound_to 6896
  144.8064  140.5268  143.5672 H   0  0  0  0  0  0  0  0  0  0  0  0  # atno 7974 bound_to 7965
  156.1931  140.3069  155.9372 H   0  0  0  0  0  0  0  0  0  0  0  0  # atno 8008 bound_to 7997
  155.3128  140.0452  157.3053 H   0  0  0  0  0  0  0  0  0  0  0  0  # atno 8009 bound_to 7997
  154.5476  140.2281  155.8547 H   0  0  0  0  0  0  0  0  0  0  0  0  # atno 8010 bound_to 7997
  140.5798  143.9003  150.6780 H   0  0  0  0  0  0  0  0  0  0  0  0  # atno 10167 bound_to 10162
  156.7920  130.5365  149.5734 H   0  0  0  0  0  0  0  0  0  0  0  0  # atno 10718 bound_to 10713
  152.9811  135.6009  154.3594 H   0  0  0  0  0  0  0  0  0  0  0  0  # atno 10763 bound_to 10752
  154.3277  135.2769  155.2489 H   0  0  0  0  0  0  0  0  0  0  0  0  # atno 10764 bound_to 10752
  154.4627  135.5962  153.6322 H   0  0  0  0  0  0  0  0  0  0  0  0  # atno 10765 bound_to 10752
  140.0152  134.9421  157.0361 H   0  0  0  0  0  0  0  0  0  0  0  0  # atno 11005 bound_to 11000
  145.5427  139.1475  143.3438 LP  0  0  0  0  0  0  0  0  0  0  0  0  # atno 17320 bound_to 7965
  146.2356  140.5567  142.8956 LP  0  0  0  0  0  0  0  0  0  0  0  0  # atno 17321 bound_to 7965
  140.2500  143.3600  152.1414 LP  0  0  0  0  0  0  0  0  0  0  0  0  # atno 17342 bound_to 10162
  139.5163  144.6975  151.5588 LP  0  0  0  0  0  0  0  0  0  0  0  0  # atno 17343 bound_to 10162
  156.1153  130.6070  151.0111 LP  0  0  0  0  0  0  0  0  0  0  0  0  # atno 17370 bound_to 10713
  157.6596  131.0883  150.7869 LP  0  0  0  0  0  0  0  0  0  0  0  0  # atno 17371 bound_to 10713
  140.4483  134.1608  155.7179 LP  0  0  0  0  0  0  0  0  0  0  0  0  # atno 17394 bound_to 11000
  141.1738  133.8555  157.1487 LP  0  0  0  0  0  0  0  0  0  0  0  0  # atno 17395 bound_to 11000

$$$$
