AV-unprocessed.smi:224|AV-procd|sdf|1714|dock7
  -GOLD-   2262020183D 1   1.00000     0.00000
 Structure written by MMmdl.
 56 59  0  0  0  0  0  0  0  0  2 V2000
  145.5348  132.0568  149.5583 C   0  0  0  0  0  0  0  0  0  0  0  0
  144.1258  132.6632  149.5428 C   0  0  1  0  0  0  0  0  0  0  0  0
  143.2762  131.7661  148.8557 O   0  0  0  0  0  0  0  0  0  0  0  0
  143.5892  132.8931  150.9713 C   0  0  0  0  0  0  0  0  0  0  0  0
  143.3988  134.3274  151.3234 N   0  3  1  0  0  0  0  0  0  0  0  0
  142.6727  134.4951  152.6110 C   0  0  0  0  0  0  0  0  0  0  0  0
  142.3438  135.9749  152.8782 C   0  0  0  0  0  0  0  0  0  0  0  0
  143.5427  136.7985  152.7815 N   0  0  0  0  0  0  0  0  0  0  0  0
  144.2497  137.1624  153.8881 C   0  0  0  0  0  0  0  0  0  0  0  0
  143.7188  136.8417  155.0974 N   0  0  0  0  0  0  0  0  0  0  0  0
  144.3521  137.1571  156.2296 C   0  0  0  0  0  0  0  0  0  0  0  0
  145.5147  137.7893  156.3833 N   0  0  0  0  0  0  0  0  0  0  0  0
  146.0591  138.1228  155.1793 C   0  0  0  0  0  0  0  0  0  0  0  0
  145.5042  137.8485  153.8941 C   0  0  0  0  0  0  0  0  0  0  0  0
  146.3531  138.3512  152.9131 N   0  0  0  0  0  0  0  0  0  0  0  0
  147.3482  138.8746  153.5736 C   0  0  0  0  0  0  0  0  0  0  0  0
  147.2473  138.7923  154.9424 N   0  0  0  0  0  0  0  0  0  0  0  0
  148.2060  139.2934  155.9163 C   0  0  0  0  0  0  0  0  0  0  0  0
  149.6399  138.7503  155.7110 C   0  0  2  0  0  0  0  0  0  0  0  0
  149.6197  137.3376  155.8284 O   0  0  0  0  0  0  0  0  0  0  0  0
  150.6333  139.3006  156.7262 C   0  0  0  0  0  0  0  0  0  0  0  0
  151.9514  139.2496  155.9654 C   0  0  0  0  0  0  0  0  0  0  0  0
  151.5786  139.6456  154.6561 O   0  0  0  0  0  0  0  0  0  0  0  0
  150.2880  139.1188  154.3602 C   0  0  0  0  0  0  0  0  0  0  0  0
  144.2511  136.6699  151.5084 C   0  0  0  0  0  0  0  0  0  0  0  0
  144.6129  135.1977  151.2136 C   0  0  1  0  0  0  0  0  0  0  0  0
  145.7988  134.7149  152.0758 C   0  0  0  0  0  0  0  0  0  0  0  0
  146.2400  132.7189  150.0619 H   0  0  0  0  0  0  0  0  0  0  0  0
  145.9041  131.8935  148.5451 H   0  0  0  0  0  0  0  0  0  0  0  0
  145.5511  131.0976  150.0771 H   0  0  0  0  0  0  0  0  0  0  0  0
  144.1721  133.5982  148.9857 H   0  0  0  0  0  0  0  0  0  0  0  0
  142.8640  132.2212  148.1379 H   0  0  0  0  0  0  0  0  0  0  0  0
  142.6290  132.3826  151.0605 H   0  0  0  0  0  0  0  0  0  0  0  0
  144.2417  132.4172  151.7035 H   0  0  0  0  0  0  0  0  0  0  0  0
  141.7436  133.9249  152.5869 H   0  0  0  0  0  0  0  0  0  0  0  0
  143.2705  134.0792  153.4218 H   0  0  0  0  0  0  0  0  0  0  0  0
  141.6408  136.3264  152.1224 H   0  0  0  0  0  0  0  0  0  0  0  0
  141.8329  136.1087  153.8307 H   0  0  0  0  0  0  0  0  0  0  0  0
  143.8573  136.8591  157.1423 H   0  0  0  0  0  0  0  0  0  0  0  0
  148.1853  139.3446  153.0778 H   0  0  0  0  0  0  0  0  0  0  0  0
  148.2073  140.3830  155.8669 H   0  0  0  0  0  0  0  0  0  0  0  0
  147.8448  139.0353  156.9128 H   0  0  0  0  0  0  0  0  0  0  0  0
  150.1174  136.9718  155.1130 H   0  0  0  0  0  0  0  0  0  0  0  0
  150.3995  140.3403  156.9599 H   0  0  0  0  0  0  0  0  0  0  0  0
  150.6563  138.7463  157.6654 H   0  0  0  0  0  0  0  0  0  0  0  0
  152.7092  139.9109  156.3862 H   0  0  0  0  0  0  0  0  0  0  0  0
  152.3518  138.2349  155.9419 H   0  0  0  0  0  0  0  0  0  0  0  0
  150.3734  138.2603  153.6923 H   0  0  0  0  0  0  0  0  0  0  0  0
  149.7278  139.8888  153.8314 H   0  0  0  0  0  0  0  0  0  0  0  0
  143.5877  137.0409  150.7261 H   0  0  0  0  0  0  0  0  0  0  0  0
  145.1439  137.2927  151.4537 H   0  0  0  0  0  0  0  0  0  0  0  0
  144.9459  135.1805  150.1770 H   0  0  0  0  0  0  0  0  0  0  0  0
  146.6375  135.4070  151.9967 H   0  0  0  0  0  0  0  0  0  0  0  0
  146.1653  133.7406  151.7534 H   0  0  0  0  0  0  0  0  0  0  0  0
  145.5387  134.6424  153.1316 H   0  0  0  0  0  0  0  0  0  0  0  0
  142.7598  134.6828  150.6270 H   0  0  0  0  0  0  0  0  0  0  0  0
  1  2  1  0  0  0  0
  1 28  1  0  0  0  0
  1 29  1  0  0  0  0
  1 30  1  0  0  0  0
  2  3  1  0  0  0  0
  2  4  1  0  0  0  0
  2 31  1  0  0  0  0
  3 32  1  0  0  0  0
  4  5  1  0  0  0  0
  4 33  1  0  0  0  0
  4 34  1  0  0  0  0
  5 26  1  0  0  0  0
  5  6  1  0  0  0  0
  5 56  1  0  0  0  0
  6  7  1  0  0  0  0
  6 35  1  0  0  0  0
  6 36  1  0  0  0  0
  7  8  1  0  0  0  0
  7 37  1  0  0  0  0
  7 38  1  0  0  0  0
  8  9  1  0  0  0  0
  8 25  1  0  0  0  0
  9 14  1  0  0  0  0
  9 10  2  0  0  0  0
 10 11  1  0  0  0  0
 11 12  2  0  0  0  0
 11 39  1  0  0  0  0
 12 13  1  0  0  0  0
 13 17  1  0  0  0  0
 13 14  2  0  0  0  0
 14 15  1  0  0  0  0
 15 16  2  0  0  0  0
 16 17  1  0  0  0  0
 16 40  1  0  0  0  0
 17 18  1  0  0  0  0
 18 19  1  0  0  0  0
 18 41  1  0  0  0  0
 18 42  1  0  0  0  0
 19 24  1  0  0  0  0
 19 20  1  0  0  0  0
 19 21  1  0  0  0  0
 20 43  1  0  0  0  0
 21 22  1  0  0  0  0
 21 44  1  0  0  0  0
 21 45  1  0  0  0  0
 22 23  1  0  0  0  0
 22 46  1  0  0  0  0
 22 47  1  0  0  0  0
 23 24  1  0  0  0  0
 24 48  1  0  0  0  0
 24 49  1  0  0  0  0
 25 26  1  0  0  0  0
 25 50  1  0  0  0  0
 25 51  1  0  0  0  0
 26 27  1  0  0  0  0
 26 52  1  0  0  0  0
 27 53  1  0  0  0  0
 27 54  1  0  0  0  0
 27 55  1  0  0  0  0
M  CHG  1   5   1
M  END
> <s_m_source_file>
AV-unprocessed.smi

> <i_m_source_file_index>
224

> <i_lp_mmshare_version>
43012

> <i_f3d_flags>
0

> <s_epik_input>
W0NIM11bQ0BIXShbT0hdKVtDSDJdTjFbQ0gyXVtDSDJdTihbQ0gyXVtDQEhdMVtDSDNdKWMobltjSF1uMiljKGMyMyluW2NIXW4zW0NIMl1bQ0BAXTQoW09IXSlbQ0gyXVtDSDJdT1tDSDJdNA==

> <s_epik_cmdline>
J2VwaWtfcHl0aG9uJywgJy1waCcsICc3LjAnLCAnLXRuJywgJzgnLCAnLW1hJywgJzIwMCcsICctbWV0YWxfYmluZGluZycsICctaW1hZScsICc8aW5maWxlLm1hZT4nLCAnLW9tYWUnLCAnPG91dGZpbGUubWFlPic=

> <r_lp_tautomer_probability>
1

> <r_epik_Ionization_Penalty>
0.00516958

> <r_epik_Ionization_Penalty_Charging>
0.00509693

> <r_epik_Ionization_Penalty_Neutral>
7.26542e-05

> <r_epik_State_Penalty>
-0

> <r_epik_Charging_Adjusted_Penalty>
0.00509693

> <i_epik_Tot_Q>
1

> <i_epik_Tot_abs_Q>
1

> <r_epik_Metal_State_Penalty>
-0

> <b_epik_Metal_Only>
0

> <s_lp_Force_Field>
OPLS_2005

> <r_lp_Energy>
50.9618

> <b_lp_Chiralities_Consistent>
1

> <s_lp_Variant>
AV-unprocessed.smi:224-8

> <Gold.Version>
5.8.1

> <Gold.Id.Protein>
6NUR|6NUR_protein|mol2

> <Gold.PLP.Fitness>
47.2428

> <Gold.PLP.PLP>
-34.5909

> <Gold.PLP.part.hbond>
-4.0000

> <Gold.PLP.part.metal>
0.0000

> <Gold.PLP.part.buried>
-4.6685

> <Gold.PLP.part.nonpolar>
-27.9676

> <Gold.PLP.part.repulsive>
0.3663

> <Gold.PLP.ligand.clash>
0.0000

> <Gold.PLP.ligand.torsion>
0.8880

> <Gold.PLP.Chemscore.Hbond>
3.7300

> <Gold.PLP.Chemscore.CHOScore>
1.0000

> <Gold.PLP.Chemscore.Metal>
0.0000

> <Gold.Chemscore.Hbonds>
donor molecule, donor type, donor heavy atom, donor atom, acceptor molecule, acceptor atom, score
      L1  H     5    56       P1 10186  1.63
      P1  H  7989  7998       L1    23  1.00
      P1  H 10785 10796       L1     3  0.94
      L1  C    16    40       P1  7957  1.00

> <Gold.PLP.Chemscore.Internal.Correction>
0.2379

> <Gold.Rescore>
     Score         DG    S(hbond)    S(metal)    S(lipo)     H(rot)  DE(clash)    DE(int)     intcor
     10.85     -14.32       1.85        0.00      88.92       3.02       1.64       1.82       ----

> <Gold.Chemscore.Fitness>
10.8519

> <Gold.Chemscore.DG>
-14.3152

> <Gold.Chemscore.ZeroCoef>
-5.4800

> <Gold.Chemscore.Hbond>
1.8476

> <Gold.Chemscore.Metal>
0.0000

> <Gold.Chemscore.Lipo>
88.9175

> <Gold.Chemscore.Internal_Hbond>
0.0000

> <Gold.Chemscore.DEClash>
1.6414

> <Gold.Chemscore.DEInternal>
1.8219

> <Gold.Chemscore.Rot>
3.0231

> <Gold.Chemscore.Internal.Correction>
   9.000000E+99

> <Gold.Chemscore.Hbonds>
donor molecule, donor type, donor heavy atom, donor atom, acceptor molecule, acceptor atom, score
      L1  H     5    56       P1 10186  0.15
      P1  H  7989  7998       L1    23  0.25
      P1  H 10785 10796       L1     3  0.77

> <Gold.Chemscore.Hbond.Weighted>
-6.1709

> <Gold.Chemscore.Metal.Weighted>
-0.0000

> <Gold.Chemscore.Lipo.Weighted>
-10.4033

> <Gold.Chemscore.Internal_Hbond.Weighted>
0.0000

> <Gold.Chemscore.DEClash.Weighted>
1.6414

> <Gold.Chemscore.DEInternal.Weighted>
1.8219

> <Gold.Chemscore.Rot.Weighted>
7.7391

> <Gold.Chemscore.Internal.Correction.Weighted>
   9.000000E+99

> <Gold.Protein.RotatedTorsions>
[ 6907 6896 6895 6894 ] final  142.35 input  -60.11 | X-H torsion
[ 7974 7965 7964 7962 ] final -140.00 input  175.53 | X-H torsion
[ 8008 7997 7996 7995 ] final  -60.72 input   59.86 | X-H torsion
[ 10167 10162 10161 10158 ] final   65.42 input  -65.29 | X-H torsion
[ 10718 10713 10712 10709 ] final  146.74 input   66.30 | X-H torsion
[ 10763 10752 10751 10750 ] final    4.47 input  -60.55 | X-H torsion
[ 11005 11000 10999 10996 ] final  -82.03 input  -57.11 | X-H torsion

> <Gold.Protein.ActiveResidues>
 VAL166  LYS551  ARG553  GLY616  TRP617  ASP618  TYR619  PRO620  LYS621  CYS622 
 ASP623  PHE694  ASN695  SER759  ASP760  ASP761  ALA762  ILE779  LEU786  VAL792 
 PHE793  MET794  SER795  GLU796  ALA797  LYS798  CYS799  TRP800  GLU811  SER814 

> <Gold.Protein.RotatedAtoms>
  152.2197  133.4974  159.5155 H   0  0  0  0  0  0  0  0  0  0  0  0  # atno 6907 bound_to 6896
  150.7010  134.1358  159.4095 H   0  0  0  0  0  0  0  0  0  0  0  0  # atno 6908 bound_to 6896
  151.9279  135.0269  160.0577 H   0  0  0  0  0  0  0  0  0  0  0  0  # atno 6909 bound_to 6896
  144.8632  140.6252  143.5315 H   0  0  0  0  0  0  0  0  0  0  0  0  # atno 7974 bound_to 7965
  154.4412  140.1033  156.6319 H   0  0  0  0  0  0  0  0  0  0  0  0  # atno 8008 bound_to 7997
  155.5596  140.3487  155.4469 H   0  0  0  0  0  0  0  0  0  0  0  0  # atno 8009 bound_to 7997
  156.0470  140.1295  157.0082 H   0  0  0  0  0  0  0  0  0  0  0  0  # atno 8010 bound_to 7997
  140.1114  144.4814  150.6975 H   0  0  0  0  0  0  0  0  0  0  0  0  # atno 10167 bound_to 10162
  157.3295  131.0918  151.1174 H   0  0  0  0  0  0  0  0  0  0  0  0  # atno 10718 bound_to 10713
  153.2709  135.6932  153.7481 H   0  0  0  0  0  0  0  0  0  0  0  0  # atno 10763 bound_to 10752
  153.6505  135.3377  155.3099 H   0  0  0  0  0  0  0  0  0  0  0  0  # atno 10764 bound_to 10752
  154.8463  135.4453  154.1731 H   0  0  0  0  0  0  0  0  0  0  0  0  # atno 10765 bound_to 10752
  141.1664  133.7225  156.8511 H   0  0  0  0  0  0  0  0  0  0  0  0  # atno 11005 bound_to 11000
  145.4272  139.1554  143.4042 LP  0  0  0  0  0  0  0  0  0  0  0  0  # atno 17320 bound_to 7965
  146.2876  140.4386  142.8752 LP  0  0  0  0  0  0  0  0  0  0  0  0  # atno 17321 bound_to 7965
  140.6923  143.2383  151.5096 LP  0  0  0  0  0  0  0  0  0  0  0  0  # atno 17342 bound_to 10162
  139.5617  144.2140  152.1701 LP  0  0  0  0  0  0  0  0  0  0  0  0  # atno 17343 bound_to 10162
  157.2427  130.6577  149.5897 LP  0  0  0  0  0  0  0  0  0  0  0  0  # atno 17370 bound_to 10713
  155.9694  130.4563  150.5920 LP  0  0  0  0  0  0  0  0  0  0  0  0  # atno 17371 bound_to 10713
  140.1915  134.8962  157.3066 LP  0  0  0  0  0  0  0  0  0  0  0  0  # atno 17394 bound_to 11000
  140.2285  134.3937  155.7532 LP  0  0  0  0  0  0  0  0  0  0  0  0  # atno 17395 bound_to 11000

$$$$
