AV-unprocessed.smi:3143|AV-procd|sdf|11974|dock10
  -GOLD-   2272017373D 1   1.00000     0.00000
 Structure written by MMmdl.
 38 39  0  0  0  0  0  0  0  0  2 V2000
  150.7202  138.0419  154.4125 C   0  0  0  0  0  0  0  0  0  0  0  0
  149.3958  138.8212  154.4384 C   0  0  2  0  0  0  0  0  0  0  0  0
  148.6971  138.6494  153.1435 N   0  3  0  0  0  0  0  0  0  0  0  0
  147.2449  138.9242  153.1756 C   0  0  0  0  0  0  0  0  0  0  0  0
  146.6046  138.6551  151.8058 C   0  0  0  0  0  0  0  0  0  0  0  0
  145.7034  137.5188  151.8416 N   0  0  0  0  0  0  0  0  0  0  0  0
  144.5255  137.3795  152.5455 C   0  0  0  0  0  0  0  0  0  0  0  0
  144.0357  136.1337  152.2753 C   0  0  0  0  0  0  0  0  0  0  0  0
  145.0003  135.5756  151.3905 C   0  0  0  0  0  0  0  0  0  0  0  0
  145.9991  136.4058  151.1358 N   0  0  0  0  0  0  0  0  0  0  0  0
  149.6660  140.3086  154.7429 C   0  0  0  0  0  0  0  0  0  0  0  0
  149.3688  141.1508  153.8942 O   0  0  0  0  0  0  0  0  0  0  0  0
  150.2320  140.6516  155.9202 N   0  0  0  0  0  0  0  0  0  0  0  0
  150.5190  142.0351  156.2967 C   0  0  0  0  0  0  0  0  0  0  0  0
  150.8941  141.9945  157.7779 C   0  0  0  0  0  0  0  0  0  0  0  0
  151.4248  140.5836  157.9861 C   0  0  0  0  0  0  0  0  0  0  0  0
  150.6337  139.7366  156.9892 C   0  0  0  0  0  0  0  0  0  0  0  0
  151.2570  138.1315  155.3575 H   0  0  0  0  0  0  0  0  0  0  0  0
  151.3810  138.4005  153.6220 H   0  0  0  0  0  0  0  0  0  0  0  0
  150.5448  136.9798  154.2393 H   0  0  0  0  0  0  0  0  0  0  0  0
  148.7590  138.3826  155.2067 H   0  0  0  0  0  0  0  0  0  0  0  0
  149.1338  139.2557  152.4633 H   0  0  0  0  0  0  0  0  0  0  0  0
  146.7776  138.2947  153.9340 H   0  0  0  0  0  0  0  0  0  0  0  0
  147.0762  139.9608  153.4694 H   0  0  0  0  0  0  0  0  0  0  0  0
  146.0452  139.5279  151.4662 H   0  0  0  0  0  0  0  0  0  0  0  0
  147.3759  138.4614  151.0590 H   0  0  0  0  0  0  0  0  0  0  0  0
  144.1366  138.1685  153.1725 H   0  0  0  0  0  0  0  0  0  0  0  0
  143.1281  135.6877  152.6543 H   0  0  0  0  0  0  0  0  0  0  0  0
  145.0049  134.5984  150.9304 H   0  0  0  0  0  0  0  0  0  0  0  0
  151.3570  142.3987  155.7003 H   0  0  0  0  0  0  0  0  0  0  0  0
  149.6677  142.6951  156.1228 H   0  0  0  0  0  0  0  0  0  0  0  0
  151.6158  142.7642  158.0533 H   0  0  0  0  0  0  0  0  0  0  0  0
  150.0001  142.1414  158.3856 H   0  0  0  0  0  0  0  0  0  0  0  0
  152.4854  140.5520  157.7331 H   0  0  0  0  0  0  0  0  0  0  0  0
  151.3167  140.2377  159.0146 H   0  0  0  0  0  0  0  0  0  0  0  0
  149.7396  139.3310  157.4650 H   0  0  0  0  0  0  0  0  0  0  0  0
  151.2353  138.9039  156.6232 H   0  0  0  0  0  0  0  0  0  0  0  0
  148.8192  137.6916  152.8476 H   0  0  0  0  0  0  0  0  0  0  0  0
  1  2  1  0  0  0  0
  1 18  1  0  0  0  0
  1 19  1  0  0  0  0
  1 20  1  0  0  0  0
  2  3  1  0  0  0  0
  2 11  1  0  0  0  0
  2 21  1  0  0  0  0
  3  4  1  0  0  0  0
  3 22  1  0  0  0  0
  3 38  1  0  0  0  0
  4  5  1  0  0  0  0
  4 23  1  0  0  0  0
  4 24  1  0  0  0  0
  5  6  1  0  0  0  0
  5 25  1  0  0  0  0
  5 26  1  0  0  0  0
  6 10  1  0  0  0  0
  6  7  1  0  0  0  0
  7  8  2  0  0  0  0
  7 27  1  0  0  0  0
  8  9  1  0  0  0  0
  8 28  1  0  0  0  0
  9 10  2  0  0  0  0
  9 29  1  0  0  0  0
 11 12  2  0  0  0  0
 11 13  1  0  0  0  0
 13 17  1  0  0  0  0
 13 14  1  0  0  0  0
 14 15  1  0  0  0  0
 14 30  1  0  0  0  0
 14 31  1  0  0  0  0
 15 16  1  0  0  0  0
 15 32  1  0  0  0  0
 15 33  1  0  0  0  0
 16 17  1  0  0  0  0
 16 34  1  0  0  0  0
 16 35  1  0  0  0  0
 17 36  1  0  0  0  0
 17 37  1  0  0  0  0
M  CHG  1   3   1
M  END
> <s_m_source_file>
AV-unprocessed.smi

> <i_m_source_file_index>
3143

> <i_lp_mmshare_version>
43012

> <i_f3d_flags>
0

> <s_epik_input>
W0NIMl0xW0NIMl1bQ0gyXVtDSDJdTjFDKD1PKVtDQEhdKFtDSDNdKVtOSF1bQ0gyXVtDSDJdbjJbY0hdW2NIXVtjSF1uMg==

> <s_epik_cmdline>
J2VwaWtfcHl0aG9uJywgJy1waCcsICc3LjAnLCAnLXRuJywgJzgnLCAnLW1hJywgJzIwMCcsICctbWV0YWxfYmluZGluZycsICctaW1hZScsICc8aW5maWxlLm1hZT4nLCAnLW9tYWUnLCAnPG91dGZpbGUubWFlPic=

> <r_lp_tautomer_probability>
1

> <r_epik_Ionization_Penalty>
0.203171

> <r_epik_Ionization_Penalty_Charging>
0.203168

> <r_epik_Ionization_Penalty_Neutral>
2.46932e-06

> <r_epik_State_Penalty>
0.193072

> <r_epik_Charging_Adjusted_Penalty>
0.39624

> <i_epik_Tot_Q>
1

> <i_epik_Tot_abs_Q>
1

> <r_epik_Metal_State_Penalty>
0.193323

> <b_epik_Metal_Only>
0

> <s_lp_Force_Field>
OPLS_2005

> <r_lp_Energy>
30.2015

> <b_lp_Chiralities_Consistent>
1

> <s_lp_Variant>
AV-unprocessed.smi:3143-1

> <Gold.Version>
5.8.1

> <Gold.Id.Protein>
6NUR|6NUR_protein|mol2

> <Gold.PLP.Fitness>
47.5439

> <Gold.PLP.PLP>
-34.6083

> <Gold.PLP.part.hbond>
-4.0000

> <Gold.PLP.part.metal>
0.0000

> <Gold.PLP.part.buried>
-2.5037

> <Gold.PLP.part.nonpolar>
-31.3511

> <Gold.PLP.part.repulsive>
2.3642

> <Gold.PLP.ligand.clash>
0.0000

> <Gold.PLP.ligand.torsion>
0.5898

> <Gold.PLP.Chemscore.Hbond>
3.8960

> <Gold.PLP.Chemscore.CHOScore>
0.7979

> <Gold.PLP.Chemscore.Metal>
0.0000

> <Gold.Chemscore.Hbonds>
donor molecule, donor type, donor heavy atom, donor atom, acceptor molecule, acceptor atom, score
      L1  H     3    22       P1  7957  1.00
      L1  H     3    38       P1  7948  2.00
      P1  H  8011  8017       L1    12  0.83
      L1  C     7    27       P1 10175  0.92

> <Gold.PLP.Chemscore.Internal.Correction>
0.0336

> <Gold.Rescore>
     Score         DG    S(hbond)    S(metal)    S(lipo)     H(rot)  DE(clash)    DE(int)     intcor
     16.91     -17.99       2.79        0.00      67.62       1.84       0.45       0.63       ----

> <Gold.Chemscore.Fitness>
16.9084

> <Gold.Chemscore.DG>
-17.9854

> <Gold.Chemscore.ZeroCoef>
-5.4800

> <Gold.Chemscore.Hbond>
2.7861

> <Gold.Chemscore.Metal>
0.0000

> <Gold.Chemscore.Lipo>
67.6211

> <Gold.Chemscore.Internal_Hbond>
0.0000

> <Gold.Chemscore.DEClash>
0.4472

> <Gold.Chemscore.DEInternal>
0.6298

> <Gold.Chemscore.Rot>
1.8405

> <Gold.Chemscore.Internal.Correction>
   9.000000E+99

> <Gold.Chemscore.Hbonds>
donor molecule, donor type, donor heavy atom, donor atom, acceptor molecule, acceptor atom, score
      L1  H     3    22       P1  7957  0.98
      L1  H     3    38       P1  7948  1.00
      P1  H  8011  8017       L1    12  0.78

> <Gold.Chemscore.Hbond.Weighted>
-9.3054

> <Gold.Chemscore.Metal.Weighted>
-0.0000

> <Gold.Chemscore.Lipo.Weighted>
-7.9117

> <Gold.Chemscore.Internal_Hbond.Weighted>
0.0000

> <Gold.Chemscore.DEClash.Weighted>
0.4472

> <Gold.Chemscore.DEInternal.Weighted>
0.6298

> <Gold.Chemscore.Rot.Weighted>
4.7117

> <Gold.Chemscore.Internal.Correction.Weighted>
   9.000000E+99

> <Gold.Protein.RotatedTorsions>
[ 6907 6896 6895 6894 ] final  134.23 input  -60.11 | X-H torsion
[ 7974 7965 7964 7962 ] final  108.38 input  175.53 | X-H torsion
[ 8008 7997 7996 7995 ] final -172.07 input   59.86 | X-H torsion
[ 10167 10162 10161 10158 ] final  -69.87 input  -65.29 | X-H torsion
[ 10718 10713 10712 10709 ] final  -85.92 input   66.30 | X-H torsion
[ 10763 10752 10751 10750 ] final  117.57 input  -60.55 | X-H torsion
[ 11005 11000 10999 10996 ] final   80.41 input  -57.11 | X-H torsion

> <Gold.Protein.ActiveResidues>
 VAL166  LYS551  ARG553  GLY616  TRP617  ASP618  TYR619  PRO620  LYS621  CYS622 
 ASP623  PHE694  ASN695  SER759  ASP760  ASP761  ALA762  ILE779  LEU786  VAL792 
 PHE793  MET794  SER795  GLU796  ALA797  LYS798  CYS799  TRP800  GLU811  SER814 

> <Gold.Protein.RotatedAtoms>
  152.3136  133.5778  159.5696 H   0  0  0  0  0  0  0  0  0  0  0  0  # atno 6907 bound_to 6896
  150.7335  134.0116  159.3680 H   0  0  0  0  0  0  0  0  0  0  0  0  # atno 6908 bound_to 6896
  151.8007  135.0710  160.0451 H   0  0  0  0  0  0  0  0  0  0  0  0  # atno 6909 bound_to 6896
  145.2815  139.2631  143.3913 H   0  0  0  0  0  0  0  0  0  0  0  0  # atno 7974 bound_to 7965
  155.9398  140.1106  157.1065 H   0  0  0  0  0  0  0  0  0  0  0  0  # atno 8008 bound_to 7997
  154.4087  140.1221  156.4978 H   0  0  0  0  0  0  0  0  0  0  0  0  # atno 8009 bound_to 7997
  155.6976  140.3472  155.4922 H   0  0  0  0  0  0  0  0  0  0  0  0  # atno 8010 bound_to 7997
  140.5397  143.2315  151.7112 H   0  0  0  0  0  0  0  0  0  0  0  0  # atno 10167 bound_to 10162
  155.9993  130.4747  150.4636 H   0  0  0  0  0  0  0  0  0  0  0  0  # atno 10718 bound_to 10713
  153.5544  135.3533  155.2773 H   0  0  0  0  0  0  0  0  0  0  0  0  # atno 10763 bound_to 10752
  154.8703  135.4121  154.2901 H   0  0  0  0  0  0  0  0  0  0  0  0  # atno 10764 bound_to 10752
  153.3634  135.7061  153.6763 H   0  0  0  0  0  0  0  0  0  0  0  0  # atno 10765 bound_to 10752
  139.9135  134.7918  156.1906 H   0  0  0  0  0  0  0  0  0  0  0  0  # atno 11005 bound_to 11000
  146.3215  140.3283  142.8638 LP  0  0  0  0  0  0  0  0  0  0  0  0  # atno 17320 bound_to 7965
  144.9249  140.7910  143.5725 LP  0  0  0  0  0  0  0  0  0  0  0  0  # atno 17321 bound_to 7965
  139.4984  144.3987  152.0204 LP  0  0  0  0  0  0  0  0  0  0  0  0  # atno 17342 bound_to 10162
  140.3095  144.3554  150.6037 LP  0  0  0  0  0  0  0  0  0  0  0  0  # atno 17343 bound_to 10162
  157.2658  131.0576  151.2291 LP  0  0  0  0  0  0  0  0  0  0  0  0  # atno 17370 bound_to 10713
  157.3390  130.7023  149.6370 LP  0  0  0  0  0  0  0  0  0  0  0  0  # atno 17371 bound_to 10713
  141.0586  133.6853  156.1909 LP  0  0  0  0  0  0  0  0  0  0  0  0  # atno 17394 bound_to 11000
  140.6697  134.4881  157.5587 LP  0  0  0  0  0  0  0  0  0  0  0  0  # atno 17395 bound_to 11000

$$$$
