AV-unprocessed.smi:2023|AV-procd|sdf|8190|dock10
  -GOLD-   2272010443D 1   1.00000     0.00000
 Structure written by MMmdl.
 34 35  0  0  0  0  0  0  0  0  2 V2000
  150.6955  139.7275  154.4305 O   0  0  0  0  0  0  0  0  0  0  0  0
  151.7076  138.9878  155.2022 S   0  0  0  0  0  0  0  0  0  0  0  0
  152.6689  138.1590  154.4563 O   0  0  0  0  0  0  0  0  0  0  0  0
  152.4084  139.8637  156.3706 N   0  5  0  0  0  0  0  0  0  0  0  0
  151.7543  141.0716  156.8415 C   0  0  0  0  0  0  0  0  0  0  0  0
  152.0746  141.3041  158.3341 C   0  0  0  0  0  0  0  0  0  0  0  0
  151.8927  142.7421  158.8096 C   0  0  0  0  0  0  0  0  0  0  0  0
  152.3600  143.1540  160.0766 C   0  0  0  0  0  0  0  0  0  0  0  0
  152.1794  144.4947  160.4668 C   0  0  0  0  0  0  0  0  0  0  0  0
  151.5396  145.3730  159.5700 C   0  0  0  0  0  0  0  0  0  0  0  0
  151.0941  144.9964  158.3526 N   0  0  0  0  0  0  0  0  0  0  0  0
  151.2695  143.7079  157.9869 C   0  0  0  0  0  0  0  0  0  0  0  0
  150.8229  137.9060  156.2342 N   0  0  0  0  0  0  0  0  0  0  0  0
  150.3460  138.4518  157.5162 C   0  0  0  0  0  0  0  0  0  0  0  0
  149.3758  137.4804  158.2077 C   0  0  0  0  0  0  0  0  0  0  0  0
  149.9779  136.2036  158.3514 O   0  0  0  0  0  0  0  0  0  0  0  0
  150.2818  135.6340  157.0878 C   0  0  0  0  0  0  0  0  0  0  0  0
  151.2994  136.5118  156.3428 C   0  0  0  0  0  0  0  0  0  0  0  0
  152.0554  141.9489  156.2681 H   0  0  0  0  0  0  0  0  0  0  0  0
  150.6723  141.0001  156.7290 H   0  0  0  0  0  0  0  0  0  0  0  0
  151.4307  140.6638  158.9379 H   0  0  0  0  0  0  0  0  0  0  0  0
  153.0951  140.9845  158.5501 H   0  0  0  0  0  0  0  0  0  0  0  0
  152.8475  142.4542  160.7391 H   0  0  0  0  0  0  0  0  0  0  0  0
  152.5228  144.8411  161.4301 H   0  0  0  0  0  0  0  0  0  0  0  0
  151.3850  146.4080  159.8372 H   0  0  0  0  0  0  0  0  0  0  0  0
  150.9006  143.4390  157.0079 H   0  0  0  0  0  0  0  0  0  0  0  0
  151.2067  138.6458  158.1573 H   0  0  0  0  0  0  0  0  0  0  0  0
  149.8468  139.4063  157.3515 H   0  0  0  0  0  0  0  0  0  0  0  0
  149.1107  137.8583  159.1950 H   0  0  0  0  0  0  0  0  0  0  0  0
  148.4464  137.3947  157.6423 H   0  0  0  0  0  0  0  0  0  0  0  0
  150.6925  134.6359  157.2402 H   0  0  0  0  0  0  0  0  0  0  0  0
  149.3706  135.5140  156.4996 H   0  0  0  0  0  0  0  0  0  0  0  0
  151.4819  136.0905  155.3551 H   0  0  0  0  0  0  0  0  0  0  0  0
  152.2538  136.5070  156.8704 H   0  0  0  0  0  0  0  0  0  0  0  0
  1  2  2  0  0  0  0
  2  3  2  0  0  0  0
  2  4  1  0  0  0  0
  2 13  1  0  0  0  0
  4  5  1  0  0  0  0
  5  6  1  0  0  0  0
  5 19  1  0  0  0  0
  5 20  1  0  0  0  0
  6  7  1  0  0  0  0
  6 21  1  0  0  0  0
  6 22  1  0  0  0  0
  7 12  1  0  0  0  0
  7  8  2  0  0  0  0
  8  9  1  0  0  0  0
  8 23  1  0  0  0  0
  9 10  2  0  0  0  0
  9 24  1  0  0  0  0
 10 11  1  0  0  0  0
 10 25  1  0  0  0  0
 11 12  2  0  0  0  0
 12 26  1  0  0  0  0
 13 18  1  0  0  0  0
 13 14  1  0  0  0  0
 14 15  1  0  0  0  0
 14 27  1  0  0  0  0
 14 28  1  0  0  0  0
 15 16  1  0  0  0  0
 15 29  1  0  0  0  0
 15 30  1  0  0  0  0
 16 17  1  0  0  0  0
 17 18  1  0  0  0  0
 17 31  1  0  0  0  0
 17 32  1  0  0  0  0
 18 33  1  0  0  0  0
 18 34  1  0  0  0  0
M  CHG  1   4  -1
M  END
> <s_m_source_file>
AV-unprocessed.smi

> <i_m_source_file_index>
2023

> <i_lp_mmshare_version>
43012

> <i_f3d_flags>
0

> <s_epik_input>
W0NIMl0xW0NIMl1PW0NIMl1bQ0gyXU4xUyg9TykoPU8pW05IXVtDSDJdW0NIMl1jMltjSF1bY0hdW2NIXW5bY0hdMg==

> <s_epik_cmdline>
J2VwaWtfcHl0aG9uJywgJy1waCcsICc3LjAnLCAnLXRuJywgJzgnLCAnLW1hJywgJzIwMCcsICctbWV0YWxfYmluZGluZycsICctaW1hZScsICc8aW5maWxlLm1hZT4nLCAnLW9tYWUnLCAnPG91dGZpbGUubWFlPic=

> <r_epik_Ionization_Penalty>
1.23471

> <r_epik_Ionization_Penalty_Charging>
1.20871

> <r_epik_Ionization_Penalty_Neutral>
0.025996

> <r_epik_State_Penalty>
1.46261

> <r_epik_Charging_Adjusted_Penalty>
2.67132

> <i_epik_Tot_Q>
-1

> <i_epik_Tot_abs_Q>
1

> <r_epik_Metal_State_Penalty>
0.521406

> <b_epik_Metal_Only>
0

> <s_lp_Force_Field>
OPLS_2005

> <r_lp_Energy>
4.19534

> <b_lp_Chiralities_Consistent>
1

> <s_lp_Variant>
AV-unprocessed.smi:2023-2

> <Gold.Version>
5.8.1

> <Gold.Id.Protein>
6NUR|6NUR_protein|mol2

> <Gold.PLP.Fitness>
44.0292

> <Gold.PLP.PLP>
-32.3320

> <Gold.PLP.part.hbond>
-3.4545

> <Gold.PLP.part.metal>
0.0000

> <Gold.PLP.part.buried>
-5.5588

> <Gold.PLP.part.nonpolar>
-22.4061

> <Gold.PLP.part.repulsive>
0.3463

> <Gold.PLP.ligand.clash>
0.0212

> <Gold.PLP.ligand.torsion>
1.6223

> <Gold.PLP.Chemscore.Hbond>
4.0000

> <Gold.PLP.Chemscore.CHOScore>
0.4734

> <Gold.PLP.Chemscore.Metal>
0.0000

> <Gold.Chemscore.Hbonds>
donor molecule, donor type, donor heavy atom, donor atom, acceptor molecule, acceptor atom, score
      P1  H  6896  6907       L1    16  0.89
      P1  H  7989  7998       L1     1  1.00
      P1  H  7997  8009       L1     4  2.00
      L1  C    12    26       P1  8028  0.45

> <Gold.PLP.Chemscore.Internal.Correction>
1.5428

> <Gold.Rescore>
     Score         DG    S(hbond)    S(metal)    S(lipo)     H(rot)  DE(clash)    DE(int)     intcor
     17.51     -19.43       2.34        0.00      86.61       1.56       0.61       1.30       ----

> <Gold.Chemscore.Fitness>
17.5146

> <Gold.Chemscore.DG>
-19.4255

> <Gold.Chemscore.ZeroCoef>
-5.4800

> <Gold.Chemscore.Hbond>
2.3392

> <Gold.Chemscore.Metal>
0.0000

> <Gold.Chemscore.Lipo>
86.6141

> <Gold.Chemscore.Internal_Hbond>
0.0000

> <Gold.Chemscore.DEClash>
0.6149

> <Gold.Chemscore.DEInternal>
1.2961

> <Gold.Chemscore.Rot>
1.5630

> <Gold.Chemscore.Internal.Correction>
   9.000000E+99

> <Gold.Chemscore.Hbonds>
donor molecule, donor type, donor heavy atom, donor atom, acceptor molecule, acceptor atom, score
      P1  H  6896  6907       L1    16  0.29
      P1  H  7989  7998       L1     1  0.45
      P1  H  7997  8009       L1     4  0.68

> <Gold.Chemscore.Hbond.Weighted>
-7.8130

> <Gold.Chemscore.Metal.Weighted>
-0.0000

> <Gold.Chemscore.Lipo.Weighted>
-10.1338

> <Gold.Chemscore.Internal_Hbond.Weighted>
0.0000

> <Gold.Chemscore.DEClash.Weighted>
0.6149

> <Gold.Chemscore.DEInternal.Weighted>
1.2961

> <Gold.Chemscore.Rot.Weighted>
4.0013

> <Gold.Chemscore.Internal.Correction.Weighted>
   9.000000E+99

> <Gold.Protein.RotatedTorsions>
[ 6907 6896 6895 6894 ] final  -54.29 input  -60.11 | X-H torsion
[ 7974 7965 7964 7962 ] final   73.71 input  175.53 | X-H torsion
[ 8008 7997 7996 7995 ] final -150.19 input   59.86 | X-H torsion
[ 10167 10162 10161 10158 ] final  131.63 input  -65.29 | X-H torsion
[ 10718 10713 10712 10709 ] final  133.26 input   66.30 | X-H torsion
[ 10763 10752 10751 10750 ] final    7.85 input  -60.55 | X-H torsion
[ 11005 11000 10999 10996 ] final   34.58 input  -57.11 | X-H torsion

> <Gold.Protein.ActiveResidues>
 VAL166  LYS551  ARG553  GLY616  TRP617  ASP618  TYR619  PRO620  LYS621  CYS622 
 ASP623  PHE694  ASN695  SER759  ASP760  ASP761  ALA762  ILE779  LEU786  VAL792 
 PHE793  MET794  SER795  GLU796  ALA797  LYS798  CYS799  TRP800  GLU811  SER814 

> <Gold.Protein.RotatedAtoms>
  150.8351  134.7621  159.6885 H   0  0  0  0  0  0  0  0  0  0  0  0  # atno 6907 bound_to 6896
  152.4449  134.5511  159.9877 H   0  0  0  0  0  0  0  0  0  0  0  0  # atno 6908 bound_to 6896
  151.5663  133.3358  159.3017 H   0  0  0  0  0  0  0  0  0  0  0  0  # atno 6909 bound_to 6896
  145.7374  139.2707  143.1506 H   0  0  0  0  0  0  0  0  0  0  0  0  # atno 7974 bound_to 7965
  155.6195  140.0680  157.2682 H   0  0  0  0  0  0  0  0  0  0  0  0  # atno 8008 bound_to 7997
  154.4233  140.1787  156.1405 H   0  0  0  0  0  0  0  0  0  0  0  0  # atno 8009 bound_to 7997
  156.0020  140.3335  155.6859 H   0  0  0  0  0  0  0  0  0  0  0  0  # atno 8010 bound_to 7997
  139.5375  144.6698  151.4735 H   0  0  0  0  0  0  0  0  0  0  0  0  # atno 10167 bound_to 10162
  157.4790  131.1084  150.9706 H   0  0  0  0  0  0  0  0  0  0  0  0  # atno 10718 bound_to 10713
  153.2317  135.6893  153.7883 H   0  0  0  0  0  0  0  0  0  0  0  0  # atno 10763 bound_to 10752
  153.7045  135.3292  155.3233 H   0  0  0  0  0  0  0  0  0  0  0  0  # atno 10764 bound_to 10752
  154.8317  135.4575  154.1204 H   0  0  0  0  0  0  0  0  0  0  0  0  # atno 10765 bound_to 10752
  140.2514  134.3298  155.7889 H   0  0  0  0  0  0  0  0  0  0  0  0  # atno 11005 bound_to 11000
  146.0480  140.8098  142.9795 LP  0  0  0  0  0  0  0  0  0  0  0  0  # atno 17320 bound_to 7965
  144.6878  140.3010  143.7263 LP  0  0  0  0  0  0  0  0  0  0  0  0  # atno 17321 bound_to 7965
  140.6589  143.8540  150.6866 LP  0  0  0  0  0  0  0  0  0  0  0  0  # atno 17342 bound_to 10162
  140.1928  143.4022  152.1850 LP  0  0  0  0  0  0  0  0  0  0  0  0  # atno 17343 bound_to 10162
  157.0445  130.5762  149.5361 LP  0  0  0  0  0  0  0  0  0  0  0  0  # atno 17370 bound_to 10713
  156.0112  130.5203  150.7993 LP  0  0  0  0  0  0  0  0  0  0  0  0  # atno 17371 bound_to 10713
  141.2201  133.7356  156.9043 LP  0  0  0  0  0  0  0  0  0  0  0  0  # atno 17394 bound_to 11000
  140.1554  134.9202  157.2647 LP  0  0  0  0  0  0  0  0  0  0  0  0  # atno 17395 bound_to 11000

$$$$
