AV-unprocessed.smi:1605|AV-procd|sdf|6456|dock6
  -GOLD-   22720 7113D 1   1.00000     0.00000
 Structure written by MMmdl.
 52 54  0  0  0  0  0  0  0  0  3 V2000
  144.7055  135.8900  151.2830 C   0  0  0  0  0  0  0  0  0  0  0  0
  144.3122  136.8113  152.2886 O   0  0  0  0  0  0  0  0  0  0  0  0
  145.3659  137.6286  152.7803 C   0  0  2  0  0  0  0  0  0  0  0  0
  144.7970  138.4825  153.9229 C   0  0  0  0  0  0  0  0  0  0  0  0
  145.8420  139.4802  154.4486 C   0  0  0  0  0  0  0  0  0  0  0  0
  146.3439  140.3531  153.3561 N   0  3  1  0  0  0  0  0  0  0  0  0
  147.2434  141.4241  153.8585 C   0  0  0  0  0  0  0  0  0  0  0  0
  148.5697  140.8768  154.4316 C   0  0  1  0  0  0  0  0  0  0  0  0
  149.5084  140.7600  153.3801 O   0  0  0  0  0  0  0  0  0  0  0  0
  149.1623  141.7629  155.5516 C   0  0  0  0  0  0  0  0  0  0  0  0
  150.1701  141.0919  156.3899 N   0  0  0  0  0  0  0  0  0  0  0  0
  150.7289  139.8568  156.2635 C   0  0  0  0  0  0  0  0  0  0  0  0
  151.6151  139.6990  157.2851 N   0  3  0  0  0  0  0  0  0  0  0  0
  151.6318  140.8532  158.0706 C   0  0  0  0  0  0  0  0  0  0  0  0
  152.3634  141.1682  159.2097 C   0  0  0  0  0  0  0  0  0  0  0  0
  152.1514  142.4435  159.7806 C   0  0  0  0  0  0  0  0  0  0  0  0
  152.9293  142.8175  161.0309 C   0  0  0  0  0  0  0  0  0  0  0  0
  151.2335  143.3579  159.2024 C   0  0  0  0  0  0  0  0  0  0  0  0
  151.0145  144.7282  159.8209 C   0  0  0  0  0  0  0  0  0  0  0  0
  150.5008  143.0188  158.0428 C   0  0  0  0  0  0  0  0  0  0  0  0
  150.7142  141.7549  157.4973 C   0  0  0  0  0  0  0  0  0  0  0  0
  146.9376  139.5511  152.2530 C   0  0  0  0  0  0  0  0  0  0  0  0
  145.9160  138.5548  151.6798 C   0  0  0  0  0  0  0  0  0  0  0  0
  143.8480  135.2814  150.9956 H   0  0  0  0  0  0  0  0  0  0  0  0
  145.4845  135.2181  151.6451 H   0  0  0  0  0  0  0  0  0  0  0  0
  145.0658  136.3945  150.3869 H   0  0  0  0  0  0  0  0  0  0  0  0
  146.1678  137.0045  153.1793 H   0  0  0  0  0  0  0  0  0  0  0  0
  143.9182  139.0270  153.5746 H   0  0  0  0  0  0  0  0  0  0  0  0
  144.4586  137.8383  154.7352 H   0  0  0  0  0  0  0  0  0  0  0  0
  145.3871  140.0899  155.2302 H   0  0  0  0  0  0  0  0  0  0  0  0
  146.6776  138.9479  154.9060 H   0  0  0  0  0  0  0  0  0  0  0  0
  147.4740  142.1152  153.0463 H   0  0  0  0  0  0  0  0  0  0  0  0
  146.7143  142.0089  154.6127 H   0  0  0  0  0  0  0  0  0  0  0  0
  148.4224  139.8824  154.8508 H   0  0  0  0  0  0  0  0  0  0  0  0
  149.2243  140.0813  152.7870 H   0  0  0  0  0  0  0  0  0  0  0  0
  149.6482  142.6324  155.1071 H   0  0  0  0  0  0  0  0  0  0  0  0
  148.3750  142.1586  156.1941 H   0  0  0  0  0  0  0  0  0  0  0  0
  150.5081  139.1312  155.4940 H   0  0  0  0  0  0  0  0  0  0  0  0
  153.0637  140.4685  159.6422 H   0  0  0  0  0  0  0  0  0  0  0  0
  153.5633  143.6839  160.8422 H   0  0  0  0  0  0  0  0  0  0  0  0
  153.5704  141.9999  161.3617 H   0  0  0  0  0  0  0  0  0  0  0  0
  152.2490  143.0574  161.8485 H   0  0  0  0  0  0  0  0  0  0  0  0
  150.2933  145.3129  159.2491 H   0  0  0  0  0  0  0  0  0  0  0  0
  151.9486  145.2893  159.8507 H   0  0  0  0  0  0  0  0  0  0  0  0
  150.6340  144.6323  160.8381 H   0  0  0  0  0  0  0  0  0  0  0  0
  149.7999  143.7149  157.6068 H   0  0  0  0  0  0  0  0  0  0  0  0
  147.2816  140.2005  151.4493 H   0  0  0  0  0  0  0  0  0  0  0  0
  147.8148  139.0165  152.6210 H   0  0  0  0  0  0  0  0  0  0  0  0
  146.3879  137.9738  150.8878 H   0  0  0  0  0  0  0  0  0  0  0  0
  145.0945  139.1018  151.2149 H   0  0  0  0  0  0  0  0  0  0  0  0
  145.5310  140.8190  152.9791 H   0  0  0  0  0  0  0  0  0  0  0  0
  152.1712  138.8659  157.4307 H   0  0  0  0  0  0  0  0  0  0  0  0
  1  2  1  0  0  0  0
  1 24  1  0  0  0  0
  1 25  1  0  0  0  0
  1 26  1  0  0  0  0
  2  3  1  0  0  0  0
  3 23  1  0  0  0  0
  3  4  1  0  0  0  0
  3 27  1  0  0  0  0
  4  5  1  0  0  0  0
  4 28  1  0  0  0  0
  4 29  1  0  0  0  0
  5  6  1  0  0  0  0
  5 30  1  0  0  0  0
  5 31  1  0  0  0  0
  6  7  1  0  0  0  0
  6 22  1  0  0  0  0
  6 51  1  0  0  0  0
  7  8  1  0  0  0  0
  7 32  1  0  0  0  0
  7 33  1  0  0  0  0
  8  9  1  0  0  0  0
  8 10  1  0  0  0  0
  8 34  1  0  0  0  0
  9 35  1  0  0  0  0
 10 11  1  0  0  0  0
 10 36  1  0  0  0  0
 10 37  1  0  0  0  0
 11 21  1  0  0  0  0
 11 12  1  0  0  0  0
 12 13  2  0  0  0  0
 12 38  1  0  0  0  0
 13 14  1  0  0  0  0
 13 52  1  0  0  0  0
 14 21  2  0  0  0  0
 14 15  1  0  0  0  0
 15 16  2  0  0  0  0
 15 39  1  0  0  0  0
 16 17  1  0  0  0  0
 16 18  1  0  0  0  0
 17 40  1  0  0  0  0
 17 41  1  0  0  0  0
 17 42  1  0  0  0  0
 18 19  1  0  0  0  0
 18 20  2  0  0  0  0
 19 43  1  0  0  0  0
 19 44  1  0  0  0  0
 19 45  1  0  0  0  0
 20 21  1  0  0  0  0
 20 46  1  0  0  0  0
 22 23  1  0  0  0  0
 22 47  1  0  0  0  0
 22 48  1  0  0  0  0
 23 49  1  0  0  0  0
 23 50  1  0  0  0  0
M  CHG  1   6   1
M  CHG  1  13   1
M  END
> <s_m_source_file>
AV-unprocessed.smi

> <i_m_source_file_index>
1605

> <i_lp_mmshare_version>
43012

> <i_f3d_flags>
0

> <s_epik_input>
W0NIM11PW0NIXTFbQ0gyXVtDSDJdTihbQ0gyXVtDSDJdMSlbQ0gyXVtDQEhdKFtPSF0pW0NIMl1uKFtjSF1uMiljKGMyMylbY0hdYyhbQ0gzXSljKFtjSF0zKVtDSDNd

> <s_epik_cmdline>
J2VwaWtfcHl0aG9uJywgJy1waCcsICc3LjAnLCAnLXRuJywgJzgnLCAnLW1hJywgJzIwMCcsICctbWV0YWxfYmluZGluZycsICctaW1hZScsICc8aW5maWxlLm1hZT4nLCAnLW9tYWUnLCAnPG91dGZpbGUubWFlPic=

> <r_epik_Ionization_Penalty>
1.19848

> <r_epik_Ionization_Penalty_Charging>
1.19848

> <r_epik_Ionization_Penalty_Neutral>
1.67134e-06

> <r_epik_State_Penalty>
1.2782

> <r_epik_Charging_Adjusted_Penalty>
2.47668

> <i_epik_Tot_Q>
2

> <i_epik_Tot_abs_Q>
2

> <r_epik_Metal_State_Penalty>
5.29544

> <b_epik_Metal_Only>
0

> <s_lp_Force_Field>
OPLS_2005

> <r_lp_Energy>
33.6993

> <b_lp_Chiralities_Consistent>
1

> <s_lp_Variant>
AV-unprocessed.smi:1605-6

> <Gold.Version>
5.8.1

> <Gold.Id.Protein>
6NUR|6NUR_protein|mol2

> <Gold.PLP.Fitness>
55.7862

> <Gold.PLP.PLP>
-44.9342

> <Gold.PLP.part.hbond>
-3.3648

> <Gold.PLP.part.metal>
0.0000

> <Gold.PLP.part.buried>
0.7824

> <Gold.PLP.part.nonpolar>
-43.5364

> <Gold.PLP.part.repulsive>
0.3235

> <Gold.PLP.ligand.clash>
0.0000

> <Gold.PLP.ligand.torsion>
0.5358

> <Gold.PLP.Chemscore.Hbond>
3.9552

> <Gold.PLP.Chemscore.CHOScore>
0.0000

> <Gold.PLP.Chemscore.Metal>
0.0000

> <Gold.Chemscore.Hbonds>
donor molecule, donor type, donor heavy atom, donor atom, acceptor molecule, acceptor atom, score
      L1  H     6    51       P1 10175  1.70
      L1  H     9    35       P1  7957  0.48
      P1  H  7989  7998       L1     9  0.26
      P1  H  8011  8017       L1     9  1.00

> <Gold.PLP.Chemscore.Internal.Correction>
0.0580

> <Gold.Rescore>
     Score         DG    S(hbond)    S(metal)    S(lipo)     H(rot)  DE(clash)    DE(int)     intcor
     20.87     -22.06       2.35        0.00     124.59       2.28       0.23       0.96       ----

> <Gold.Chemscore.Fitness>
20.8746

> <Gold.Chemscore.DG>
-22.0611

> <Gold.Chemscore.ZeroCoef>
-5.4800

> <Gold.Chemscore.Hbond>
2.3505

> <Gold.Chemscore.Metal>
0.0000

> <Gold.Chemscore.Lipo>
124.5934

> <Gold.Chemscore.Internal_Hbond>
0.0000

> <Gold.Chemscore.DEClash>
0.2270

> <Gold.Chemscore.DEInternal>
0.9595

> <Gold.Chemscore.Rot>
2.2839

> <Gold.Chemscore.Internal.Correction>
   9.000000E+99

> <Gold.Chemscore.Hbonds>
donor molecule, donor type, donor heavy atom, donor atom, acceptor molecule, acceptor atom, score
      L1  H     6    51       P1 10175  0.41
      L1  H     9    35       P1  7957  0.48
      P1  H  7989  7998       L1     9  0.22
      P1  H  8011  8017       L1     9  0.58

> <Gold.Chemscore.Hbond.Weighted>
-7.8505

> <Gold.Chemscore.Metal.Weighted>
-0.0000

> <Gold.Chemscore.Lipo.Weighted>
-14.5774

> <Gold.Chemscore.Internal_Hbond.Weighted>
0.0000

> <Gold.Chemscore.DEClash.Weighted>
0.2270

> <Gold.Chemscore.DEInternal.Weighted>
0.9595

> <Gold.Chemscore.Rot.Weighted>
5.8469

> <Gold.Chemscore.Internal.Correction.Weighted>
   9.000000E+99

> <Gold.Protein.RotatedTorsions>
[ 6907 6896 6895 6894 ] final   21.44 input  -60.11 | X-H torsion
[ 7974 7965 7964 7962 ] final  179.17 input  175.53 | X-H torsion
[ 8008 7997 7996 7995 ] final  110.84 input   59.86 | X-H torsion
[ 10167 10162 10161 10158 ] final -116.78 input  -65.29 | X-H torsion
[ 10718 10713 10712 10709 ] final  -81.53 input   66.30 | X-H torsion
[ 10763 10752 10751 10750 ] final   12.81 input  -60.55 | X-H torsion
[ 11005 11000 10999 10996 ] final  139.78 input  -57.11 | X-H torsion

> <Gold.Protein.ActiveResidues>
 VAL166  LYS551  ARG553  GLY616  TRP617  ASP618  TYR619  PRO620  LYS621  CYS622 
 ASP623  PHE694  ASN695  SER759  ASP760  ASP761  ALA762  ILE779  LEU786  VAL792 
 PHE793  MET794  SER795  GLU796  ALA797  LYS798  CYS799  TRP800  GLU811  SER814 

> <Gold.Protein.RotatedAtoms>
  151.9119  135.0335  160.0514 H   0  0  0  0  0  0  0  0  0  0  0  0  # atno 6907 bound_to 6896
  152.2272  133.5025  159.5204 H   0  0  0  0  0  0  0  0  0  0  0  0  # atno 6908 bound_to 6896
  150.7015  134.1180  159.4067 H   0  0  0  0  0  0  0  0  0  0  0  0  # atno 6909 bound_to 6896
  144.7148  140.0508  143.6435 H   0  0  0  0  0  0  0  0  0  0  0  0  # atno 7974 bound_to 7965
  156.2082  140.3031  155.9673 H   0  0  0  0  0  0  0  0  0  0  0  0  # atno 8008 bound_to 7997
  155.2790  140.0437  157.3031 H   0  0  0  0  0  0  0  0  0  0  0  0  # atno 8009 bound_to 7997
  154.5662  140.2335  155.8269 H   0  0  0  0  0  0  0  0  0  0  0  0  # atno 8010 bound_to 7997
  140.0755  143.4837  152.1955 H   0  0  0  0  0  0  0  0  0  0  0  0  # atno 10167 bound_to 10162
  156.0049  130.4606  150.3966 H   0  0  0  0  0  0  0  0  0  0  0  0  # atno 10718 bound_to 10713
  153.1784  135.6824  153.8511 H   0  0  0  0  0  0  0  0  0  0  0  0  # atno 10763 bound_to 10752
  153.7851  135.3177  155.3372 H   0  0  0  0  0  0  0  0  0  0  0  0  # atno 10764 bound_to 10752
  154.8044  135.4758  154.0450 H   0  0  0  0  0  0  0  0  0  0  0  0  # atno 10765 bound_to 10752
  140.0279  134.9366  157.0605 H   0  0  0  0  0  0  0  0  0  0  0  0  # atno 11005 bound_to 11000
  145.9946  139.3042  143.0964 LP  0  0  0  0  0  0  0  0  0  0  0  0  # atno 17320 bound_to 7965
  145.8864  140.9331  143.0575 LP  0  0  0  0  0  0  0  0  0  0  0  0  # atno 17321 bound_to 7965
  139.5810  144.7510  151.3639 LP  0  0  0  0  0  0  0  0  0  0  0  0  # atno 17342 bound_to 10162
  140.7104  143.7405  150.7557 LP  0  0  0  0  0  0  0  0  0  0  0  0  # atno 17343 bound_to 10162
  157.2037  131.0444  151.2636 LP  0  0  0  0  0  0  0  0  0  0  0  0  # atno 17370 bound_to 10713
  157.3952  130.7303  149.6726 LP  0  0  0  0  0  0  0  0  0  0  0  0  # atno 17371 bound_to 10713
  140.4275  134.1815  155.7166 LP  0  0  0  0  0  0  0  0  0  0  0  0  # atno 17394 bound_to 11000
  141.1814  133.8406  157.1245 LP  0  0  0  0  0  0  0  0  0  0  0  0  # atno 17395 bound_to 11000

$$$$
