AV-unprocessed.smi:1547|AV-procd|sdf|6220|dock7
  -GOLD-   22720 6393D 1   1.00000     0.00000
 Structure written by MMmdl.
 40 41  0  0  0  0  0  0  0  0  2 V2000
  152.3705  138.4867  155.6059 C   0  0  0  0  0  0  0  0  0  0  0  0
  151.3720  139.6029  155.6954 C   0  0  0  0  0  0  0  0  0  0  0  0
  150.9050  140.2703  156.8648 C   0  0  0  0  0  0  0  0  0  0  0  0
  150.0214  141.1836  156.3578 C   0  0  0  0  0  0  0  0  0  0  0  0
  149.2717  142.1060  157.0181 N   0  0  0  0  0  0  0  0  0  0  0  0
  149.1630  142.3059  158.3433 C   0  0  0  0  0  0  0  0  0  0  0  0
  149.7256  141.6437  159.2157 O   0  0  0  0  0  0  0  0  0  0  0  0
  148.3501  143.3371  158.6155 N   0  0  0  0  0  0  0  0  0  0  0  0
  148.0231  143.8040  159.9579 C   0  0  0  0  0  0  0  0  0  0  0  0
  146.5160  144.0828  160.1105 C   0  0  0  0  0  0  0  0  0  0  0  0
  145.8917  144.4772  158.8266 N   0  3  0  0  0  0  0  0  0  0  0  0
  145.3871  143.3530  157.9997 C   0  0  0  0  0  0  0  0  0  0  0  0
  144.0013  143.7633  157.4847 C   0  0  0  0  0  0  0  0  0  0  0  0
  143.9369  145.2690  157.7176 C   0  0  0  0  0  0  0  0  0  0  0  0
  144.7913  145.4526  158.9672 C   0  0  0  0  0  0  0  0  0  0  0  0
  149.9839  141.0528  154.9873 N   0  0  0  0  0  0  0  0  0  0  0  0
  149.2048  141.7904  154.0120 C   0  0  0  0  0  0  0  0  0  0  0  0
  150.8197  140.0721  154.5824 N   0  0  0  0  0  0  0  0  0  0  0  0
  152.7642  138.2304  156.5896 H   0  0  0  0  0  0  0  0  0  0  0  0
  153.2141  138.7637  154.9733 H   0  0  0  0  0  0  0  0  0  0  0  0
  151.9177  137.5884  155.1858 H   0  0  0  0  0  0  0  0  0  0  0  0
  151.1862  140.0928  157.8920 H   0  0  0  0  0  0  0  0  0  0  0  0
  148.7324  142.7224  156.4281 H   0  0  0  0  0  0  0  0  0  0  0  0
  147.9240  143.8277  157.8424 H   0  0  0  0  0  0  0  0  0  0  0  0
  148.3331  143.0378  160.6689 H   0  0  0  0  0  0  0  0  0  0  0  0
  148.6134  144.6934  160.1844 H   0  0  0  0  0  0  0  0  0  0  0  0
  145.9933  143.2136  160.5131 H   0  0  0  0  0  0  0  0  0  0  0  0
  146.3769  144.8915  160.8295 H   0  0  0  0  0  0  0  0  0  0  0  0
  146.0797  143.1903  157.1734 H   0  0  0  0  0  0  0  0  0  0  0  0
  145.3221  142.4209  158.5635 H   0  0  0  0  0  0  0  0  0  0  0  0
  143.8418  143.4915  156.4407 H   0  0  0  0  0  0  0  0  0  0  0  0
  143.2301  143.2696  158.0774 H   0  0  0  0  0  0  0  0  0  0  0  0
  144.3880  145.7964  156.8760 H   0  0  0  0  0  0  0  0  0  0  0  0
  142.9179  145.6370  157.8415 H   0  0  0  0  0  0  0  0  0  0  0  0
  144.1982  145.2160  159.8526 H   0  0  0  0  0  0  0  0  0  0  0  0
  145.1665  146.4709  159.0743 H   0  0  0  0  0  0  0  0  0  0  0  0
  149.3456  142.8609  154.1628 H   0  0  0  0  0  0  0  0  0  0  0  0
  148.1484  141.5488  154.1304 H   0  0  0  0  0  0  0  0  0  0  0  0
  149.5158  141.5342  152.9983 H   0  0  0  0  0  0  0  0  0  0  0  0
  146.6013  144.9385  158.2757 H   0  0  0  0  0  0  0  0  0  0  0  0
  1  2  1  0  0  0  0
  1 19  1  0  0  0  0
  1 20  1  0  0  0  0
  1 21  1  0  0  0  0
  2 18  2  0  0  0  0
  2  3  1  0  0  0  0
  3  4  2  0  0  0  0
  3 22  1  0  0  0  0
  4  5  1  0  0  0  0
  4 16  1  0  0  0  0
  5  6  1  0  0  0  0
  5 23  1  0  0  0  0
  6  7  2  0  0  0  0
  6  8  1  0  0  0  0
  8  9  1  0  0  0  0
  8 24  1  0  0  0  0
  9 10  1  0  0  0  0
  9 25  1  0  0  0  0
  9 26  1  0  0  0  0
 10 11  1  0  0  0  0
 10 27  1  0  0  0  0
 10 28  1  0  0  0  0
 11 15  1  0  0  0  0
 11 12  1  0  0  0  0
 11 40  1  0  0  0  0
 12 13  1  0  0  0  0
 12 29  1  0  0  0  0
 12 30  1  0  0  0  0
 13 14  1  0  0  0  0
 13 31  1  0  0  0  0
 13 32  1  0  0  0  0
 14 15  1  0  0  0  0
 14 33  1  0  0  0  0
 14 34  1  0  0  0  0
 15 35  1  0  0  0  0
 15 36  1  0  0  0  0
 16 17  1  0  0  0  0
 16 18  1  0  0  0  0
 17 37  1  0  0  0  0
 17 38  1  0  0  0  0
 17 39  1  0  0  0  0
M  CHG  1  11   1
M  END
> <s_m_source_file>
AV-unprocessed.smi

> <i_m_source_file_index>
1547

> <i_lp_mmshare_version>
43012

> <i_f3d_flags>
0

> <s_epik_input>
W0NIM11jMVtjSF1jKG4objEpW0NIM10pW05IXUMoPU8pW05IXVtDSDJdW0NIMl1OMltDSDJdW0NIMl1bQ0gyXVtDSDJdMg==

> <s_epik_cmdline>
J2VwaWtfcHl0aG9uJywgJy1waCcsICc3LjAnLCAnLXRuJywgJzgnLCAnLW1hJywgJzIwMCcsICctbWV0YWxfYmluZGluZycsICctaW1hZScsICc8aW5maWxlLm1hZT4nLCAnLW9tYWUnLCAnPG91dGZpbGUubWFlPic=

> <r_lp_tautomer_probability>
1

> <r_epik_Ionization_Penalty>
0.00226577

> <r_epik_Ionization_Penalty_Charging>
0.00218899

> <r_epik_Ionization_Penalty_Neutral>
7.67743e-05

> <r_epik_State_Penalty>
0.00150446

> <r_epik_Charging_Adjusted_Penalty>
0.00369345

> <i_epik_Tot_Q>
1

> <i_epik_Tot_abs_Q>
1

> <r_epik_Metal_State_Penalty>
-0

> <b_epik_Metal_Only>
0

> <s_lp_Force_Field>
OPLS_2005

> <r_lp_Energy>
27.1917

> <b_lp_Chiralities_Consistent>
1

> <s_lp_Variant>
AV-unprocessed.smi:1547-1

> <Gold.Version>
5.8.1

> <Gold.Id.Protein>
6NUR|6NUR_protein|mol2

> <Gold.PLP.Fitness>
46.6386

> <Gold.PLP.PLP>
-33.9260

> <Gold.PLP.part.hbond>
-4.2591

> <Gold.PLP.part.metal>
0.0000

> <Gold.PLP.part.buried>
-4.1823

> <Gold.PLP.part.nonpolar>
-25.1377

> <Gold.PLP.part.repulsive>
0.3187

> <Gold.PLP.ligand.clash>
0.0000

> <Gold.PLP.ligand.torsion>
0.6967

> <Gold.PLP.Chemscore.Hbond>
4.6940

> <Gold.PLP.Chemscore.CHOScore>
0.0000

> <Gold.PLP.Chemscore.Metal>
0.0000

> <Gold.Chemscore.Hbonds>
donor molecule, donor type, donor heavy atom, donor atom, acceptor molecule, acceptor atom, score
      L1  H     5    23       P1  8028  0.56
      L1  H     8    24       P1  8029  0.23
      L1  H    11    40       P1  8029  2.00
      P1  H  7989  7998       L1    18  0.95

> <Gold.PLP.Chemscore.Internal.Correction>
0.0240

> <Gold.Rescore>
     Score         DG    S(hbond)    S(metal)    S(lipo)     H(rot)  DE(clash)    DE(int)     intcor
     12.26     -15.96       2.35        0.00      55.55       1.52       1.65       2.04       ----

> <Gold.Chemscore.Fitness>
12.2591

> <Gold.Chemscore.DG>
-15.9561

> <Gold.Chemscore.ZeroCoef>
-5.4800

> <Gold.Chemscore.Hbond>
2.3526

> <Gold.Chemscore.Metal>
0.0000

> <Gold.Chemscore.Lipo>
55.5513

> <Gold.Chemscore.Internal_Hbond>
0.0000

> <Gold.Chemscore.DEClash>
1.6543

> <Gold.Chemscore.DEInternal>
2.0427

> <Gold.Chemscore.Rot>
1.5160

> <Gold.Chemscore.Internal.Correction>
   9.000000E+99

> <Gold.Chemscore.Hbonds>
donor molecule, donor type, donor heavy atom, donor atom, acceptor molecule, acceptor atom, score
      L1  H     5    23       P1  8028  0.54
      L1  H     8    24       P1  8029  0.01
      L1  H    11    40       P1  8029  0.96
      P1  H  7989  7998       L1    18  0.21

> <Gold.Chemscore.Hbond.Weighted>
-7.8575

> <Gold.Chemscore.Metal.Weighted>
-0.0000

> <Gold.Chemscore.Lipo.Weighted>
-6.4995

> <Gold.Chemscore.Internal_Hbond.Weighted>
0.0000

> <Gold.Chemscore.DEClash.Weighted>
1.6543

> <Gold.Chemscore.DEInternal.Weighted>
2.0427

> <Gold.Chemscore.Rot.Weighted>
3.8809

> <Gold.Chemscore.Internal.Correction.Weighted>
   9.000000E+99

> <Gold.Protein.RotatedTorsions>
[ 6907 6896 6895 6894 ] final   69.63 input  -60.11 | X-H torsion
[ 7974 7965 7964 7962 ] final -144.22 input  175.53 | X-H torsion
[ 8008 7997 7996 7995 ] final   50.92 input   59.86 | X-H torsion
[ 10167 10162 10161 10158 ] final -134.19 input  -65.29 | X-H torsion
[ 10718 10713 10712 10709 ] final   24.35 input   66.30 | X-H torsion
[ 10763 10752 10751 10750 ] final   78.95 input  -60.55 | X-H torsion
[ 11005 11000 10999 10996 ] final  -44.02 input  -57.11 | X-H torsion

> <Gold.Protein.ActiveResidues>
 VAL166  LYS551  ARG553  GLY616  TRP617  ASP618  TYR619  PRO620  LYS621  CYS622 
 ASP623  PHE694  ASN695  SER759  ASP760  ASP761  ALA762  ILE779  LEU786  VAL792 
 PHE793  MET794  SER795  GLU796  ALA797  LYS798  CYS799  TRP800  GLU811  SER814 

> <Gold.Protein.RotatedAtoms>
  152.4698  134.4988  159.9717 H   0  0  0  0  0  0  0  0  0  0  0  0  # atno 6907 bound_to 6896
  151.5017  133.3497  159.2878 H   0  0  0  0  0  0  0  0  0  0  0  0  # atno 6908 bound_to 6896
  150.8702  134.8102  159.7210 H   0  0  0  0  0  0  0  0  0  0  0  0  # atno 6909 bound_to 6896
  144.8313  140.5737  143.5513 H   0  0  0  0  0  0  0  0  0  0  0  0  # atno 7974 bound_to 7965
  155.4267  140.3449  155.4276 H   0  0  0  0  0  0  0  0  0  0  0  0  # atno 8008 bound_to 7997
  156.1361  140.1528  156.9023 H   0  0  0  0  0  0  0  0  0  0  0  0  # atno 8009 bound_to 7997
  154.4933  140.0835  156.7621 H   0  0  0  0  0  0  0  0  0  0  0  0  # atno 8010 bound_to 7997
  139.8906  143.6727  152.2613 H   0  0  0  0  0  0  0  0  0  0  0  0  # atno 10167 bound_to 10162
  157.1786  130.6792  149.6104 H   0  0  0  0  0  0  0  0  0  0  0  0  # atno 10718 bound_to 10713
  153.0914  135.4858  154.8697 H   0  0  0  0  0  0  0  0  0  0  0  0  # atno 10763 bound_to 10752
  154.7274  135.3052  154.8951 H   0  0  0  0  0  0  0  0  0  0  0  0  # atno 10764 bound_to 10752
  153.9597  135.6814  153.4798 H   0  0  0  0  0  0  0  0  0  0  0  0  # atno 10765 bound_to 10752
  141.0422  133.6775  156.2813 H   0  0  0  0  0  0  0  0  0  0  0  0  # atno 11005 bound_to 11000
  145.4889  139.1490  143.3720 LP  0  0  0  0  0  0  0  0  0  0  0  0  # atno 17320 bound_to 7965
  146.2616  140.5027  142.8851 LP  0  0  0  0  0  0  0  0  0  0  0  0  # atno 17321 bound_to 7965
  139.7113  144.7619  151.1107 LP  0  0  0  0  0  0  0  0  0  0  0  0  # atno 17342 bound_to 10162
  140.7727  143.5327  150.9405 LP  0  0  0  0  0  0  0  0  0  0  0  0  # atno 17343 bound_to 10162
  155.9727  130.4654  150.6253 LP  0  0  0  0  0  0  0  0  0  0  0  0  # atno 17370 bound_to 10713
  157.3974  131.0805  151.1339 LP  0  0  0  0  0  0  0  0  0  0  0  0  # atno 17371 bound_to 10713
  140.6212  134.5359  157.5548 LP  0  0  0  0  0  0  0  0  0  0  0  0  # atno 17394 bound_to 11000
  139.9285  134.8010  156.1000 LP  0  0  0  0  0  0  0  0  0  0  0  0  # atno 17395 bound_to 11000

$$$$
