AV-unprocessed.smi:79|AV-procd|sdf|781|dock7
  -GOLD-   2262017143D 1   1.00000     0.00000
 Structure written by MMmdl.
 56 59  0  0  0  0  0  0  0  0  2 V2000
  144.3574  132.2876  150.9762 C   0  0  0  0  0  0  0  0  0  0  0  0
  144.3846  133.7834  150.6358 C   0  0  2  0  0  0  0  0  0  0  0  0
  143.6681  133.9663  149.4310 O   0  0  0  0  0  0  0  0  0  0  0  0
  145.8269  134.3016  150.4599 C   0  0  0  0  0  0  0  0  0  0  0  0
  146.5958  134.3284  151.7312 N   0  3  2  0  0  0  0  0  0  0  0  0
  147.0556  132.9778  152.1370 C   0  0  0  0  0  0  0  0  0  0  0  0
  147.9280  133.0510  153.3986 C   0  0  0  0  0  0  0  0  0  0  0  0
  147.2377  133.7527  154.4769 N   0  0  0  0  0  0  0  0  0  0  0  0
  147.9318  133.6873  155.6355 C   0  0  0  0  0  0  0  0  0  0  0  0
  149.2905  133.7150  155.6166 N   0  0  0  0  0  0  0  0  0  0  0  0
  149.9721  133.6679  156.7656 C   0  0  0  0  0  0  0  0  0  0  0  0
  149.5018  133.5957  158.0132 N   0  0  0  0  0  0  0  0  0  0  0  0
  148.1379  133.5666  158.0299 C   0  0  0  0  0  0  0  0  0  0  0  0
  147.2829  133.6058  156.8944 C   0  0  0  0  0  0  0  0  0  0  0  0
  145.9537  133.5623  157.2931 N   0  0  0  0  0  0  0  0  0  0  0  0
  146.0183  133.5019  158.5959 C   0  0  0  0  0  0  0  0  0  0  0  0
  147.2913  133.4936  159.1227 N   0  0  0  0  0  0  0  0  0  0  0  0
  147.6540  133.4405  160.5308 C   0  0  0  0  0  0  0  0  0  0  0  0
  147.2136  134.6770  161.3360 C   0  0  0  0  0  0  0  0  0  0  0  0
  148.0812  135.8780  160.9083 C   0  0  0  0  0  0  0  0  0  0  0  0
  147.6369  137.0954  161.4736 O   0  0  0  0  0  0  0  0  0  0  0  0
  145.6970  134.9130  161.3770 C   0  0  0  0  0  0  0  0  0  0  0  0
  145.6858  134.9737  162.8205 O   0  0  0  0  0  0  0  0  0  0  0  0
  147.0419  134.4762  162.8486 C   0  0  0  0  0  0  0  0  0  0  0  0
  146.7441  135.0874  154.1179 C   0  0  2  0  0  0  0  0  0  0  0  0
  145.9421  135.7546  155.2541 C   0  0  0  0  0  0  0  0  0  0  0  0
  145.8799  135.0091  152.8416 C   0  0  0  0  0  0  0  0  0  0  0  0
  144.8796  132.0907  151.9131 H   0  0  0  0  0  0  0  0  0  0  0  0
  144.8359  131.6920  150.1978 H   0  0  0  0  0  0  0  0  0  0  0  0
  143.3341  131.9275  151.0896 H   0  0  0  0  0  0  0  0  0  0  0  0
  143.8674  134.3213  151.4292 H   0  0  0  0  0  0  0  0  0  0  0  0
  142.7464  134.0351  149.6272 H   0  0  0  0  0  0  0  0  0  0  0  0
  146.3648  133.6912  149.7328 H   0  0  0  0  0  0  0  0  0  0  0  0
  145.7818  135.3060  150.0352 H   0  0  0  0  0  0  0  0  0  0  0  0
  146.1900  132.3380  152.3170 H   0  0  0  0  0  0  0  0  0  0  0  0
  147.6285  132.5206  151.3294 H   0  0  0  0  0  0  0  0  0  0  0  0
  148.1916  132.0429  153.7221 H   0  0  0  0  0  0  0  0  0  0  0  0
  148.8617  133.5658  153.1670 H   0  0  0  0  0  0  0  0  0  0  0  0
  151.0480  133.6945  156.6730 H   0  0  0  0  0  0  0  0  0  0  0  0
  145.1313  133.4647  159.2112 H   0  0  0  0  0  0  0  0  0  0  0  0
  147.2312  132.5328  160.9630 H   0  0  0  0  0  0  0  0  0  0  0  0
  148.7361  133.3147  160.5865 H   0  0  0  0  0  0  0  0  0  0  0  0
  149.1185  135.7430  161.2145 H   0  0  0  0  0  0  0  0  0  0  0  0
  148.0825  135.9896  159.8237 H   0  0  0  0  0  0  0  0  0  0  0  0
  147.3184  136.9234  162.3466 H   0  0  0  0  0  0  0  0  0  0  0  0
  145.3719  135.8450  160.9134 H   0  0  0  0  0  0  0  0  0  0  0  0
  145.1072  134.0737  161.0056 H   0  0  0  0  0  0  0  0  0  0  0  0
  147.0775  133.4342  163.1682 H   0  0  0  0  0  0  0  0  0  0  0  0
  147.7031  135.0917  163.4596 H   0  0  0  0  0  0  0  0  0  0  0  0
  147.6096  135.7154  153.8996 H   0  0  0  0  0  0  0  0  0  0  0  0
  145.5503  136.7220  154.9385 H   0  0  0  0  0  0  0  0  0  0  0  0
  146.5561  135.9350  156.1369 H   0  0  0  0  0  0  0  0  0  0  0  0
  145.0956  135.1374  155.5567 H   0  0  0  0  0  0  0  0  0  0  0  0
  145.5929  136.0168  152.5444 H   0  0  0  0  0  0  0  0  0  0  0  0
  144.9556  134.4684  153.0528 H   0  0  0  0  0  0  0  0  0  0  0  0
  147.4331  134.8624  151.5483 H   0  0  0  0  0  0  0  0  0  0  0  0
  1  2  1  0  0  0  0
  1 28  1  0  0  0  0
  1 29  1  0  0  0  0
  1 30  1  0  0  0  0
  2  3  1  0  0  0  0
  2  4  1  0  0  0  0
  2 31  1  0  0  0  0
  3 32  1  0  0  0  0
  4  5  1  0  0  0  0
  4 33  1  0  0  0  0
  4 34  1  0  0  0  0
  5 27  1  0  0  0  0
  5  6  1  0  0  0  0
  5 56  1  0  0  0  0
  6  7  1  0  0  0  0
  6 35  1  0  0  0  0
  6 36  1  0  0  0  0
  7  8  1  0  0  0  0
  7 37  1  0  0  0  0
  7 38  1  0  0  0  0
  8  9  1  0  0  0  0
  8 25  1  0  0  0  0
  9 14  1  0  0  0  0
  9 10  2  0  0  0  0
 10 11  1  0  0  0  0
 11 12  2  0  0  0  0
 11 39  1  0  0  0  0
 12 13  1  0  0  0  0
 13 17  1  0  0  0  0
 13 14  2  0  0  0  0
 14 15  1  0  0  0  0
 15 16  2  0  0  0  0
 16 17  1  0  0  0  0
 16 40  1  0  0  0  0
 17 18  1  0  0  0  0
 18 19  1  0  0  0  0
 18 41  1  0  0  0  0
 18 42  1  0  0  0  0
 19 24  1  0  0  0  0
 19 20  1  0  0  0  0
 19 22  1  0  0  0  0
 20 21  1  0  0  0  0
 20 43  1  0  0  0  0
 20 44  1  0  0  0  0
 21 45  1  0  0  0  0
 22 23  1  0  0  0  0
 22 46  1  0  0  0  0
 22 47  1  0  0  0  0
 23 24  1  0  0  0  0
 24 48  1  0  0  0  0
 24 49  1  0  0  0  0
 25 26  1  0  0  0  0
 25 27  1  0  0  0  0
 25 50  1  0  0  0  0
 26 51  1  0  0  0  0
 26 52  1  0  0  0  0
 26 53  1  0  0  0  0
 27 54  1  0  0  0  0
 27 55  1  0  0  0  0
M  CHG  1   5   1
M  END
> <s_m_source_file>
AV-unprocessed.smi

> <i_m_source_file_index>
79

> <i_lp_mmshare_version>
43012

> <i_f3d_flags>
0

> <s_epik_input>
W0NIM11bQ0BIXShbT0hdKVtDSDJdTjFbQ0gyXVtDSDJdTihbQ0BASF0oW0NIM10pW0NIMl0xKWMobltjSF1uMiljKGMyMyluW2NIXW4zW0NIMl1DNChbQ0gyXVtPSF0pW0NIMl1PW0NIMl00

> <s_epik_cmdline>
J2VwaWtfcHl0aG9uJywgJy1waCcsICc3LjAnLCAnLXRuJywgJzgnLCAnLW1hJywgJzIwMCcsICctbWV0YWxfYmluZGluZycsICctaW1hZScsICc8aW5maWxlLm1hZT4nLCAnLW9tYWUnLCAnPG91dGZpbGUubWFlPic=

> <r_lp_tautomer_probability>
1

> <r_epik_Ionization_Penalty>
0.00515943

> <r_epik_Ionization_Penalty_Charging>
0.00509693

> <r_epik_Ionization_Penalty_Neutral>
6.25007e-05

> <r_epik_State_Penalty>
-0

> <r_epik_Charging_Adjusted_Penalty>
0.00509693

> <i_epik_Tot_Q>
1

> <i_epik_Tot_abs_Q>
1

> <r_epik_Metal_State_Penalty>
-0

> <b_epik_Metal_Only>
0

> <s_lp_Force_Field>
OPLS_2005

> <r_lp_Energy>
51.6894

> <b_lp_Chiralities_Consistent>
1

> <s_lp_Variant>
AV-unprocessed.smi:79-5

> <Gold.Version>
5.8.1

> <Gold.Id.Protein>
6NUR|6NUR_protein|mol2

> <Gold.PLP.Fitness>
48.5182

> <Gold.PLP.PLP>
-32.5048

> <Gold.PLP.part.hbond>
-5.6388

> <Gold.PLP.part.metal>
0.0000

> <Gold.PLP.part.buried>
-3.6335

> <Gold.PLP.part.nonpolar>
-24.2639

> <Gold.PLP.part.repulsive>
0.1479

> <Gold.PLP.ligand.clash>
0.0000

> <Gold.PLP.ligand.torsion>
1.0848

> <Gold.PLP.Chemscore.Hbond>
5.8240

> <Gold.PLP.Chemscore.CHOScore>
0.0000

> <Gold.PLP.Chemscore.Metal>
0.0000

> <Gold.Chemscore.Hbonds>
donor molecule, donor type, donor heavy atom, donor atom, acceptor molecule, acceptor atom, score
      L1  H     3    32       P1 10186  1.00
      L1  H     5    56       P1  7948  2.00
      P1  H  6896  6907       L1    12  1.00
      P1  H  6931  6943       L1    21  0.90
      P1  H  6934  6947       L1    21  0.78

> <Gold.PLP.Chemscore.Internal.Correction>
0.7111

> <Gold.Rescore>
     Score         DG    S(hbond)    S(metal)    S(lipo)     H(rot)  DE(clash)    DE(int)     intcor
     15.19     -16.93       3.74        0.00      72.44       3.72       0.46       1.28       ----

> <Gold.Chemscore.Fitness>
15.1932

> <Gold.Chemscore.DG>
-16.9316

> <Gold.Chemscore.ZeroCoef>
-5.4800

> <Gold.Chemscore.Hbond>
3.7444

> <Gold.Chemscore.Metal>
0.0000

> <Gold.Chemscore.Lipo>
72.4375

> <Gold.Chemscore.Internal_Hbond>
0.0000

> <Gold.Chemscore.DEClash>
0.4625

> <Gold.Chemscore.DEInternal>
1.2759

> <Gold.Chemscore.Rot>
3.7226

> <Gold.Chemscore.Internal.Correction>
   9.000000E+99

> <Gold.Chemscore.Hbonds>
donor molecule, donor type, donor heavy atom, donor atom, acceptor molecule, acceptor atom, score
      L1  H     3    32       P1 10186  1.00
      L1  H     5    56       P1  7948  0.52
      P1  H  6896  6907       L1    12  0.78
      P1  H  6931  6943       L1    21  0.15
      P1  H  6934  6947       L1    21  0.55

> <Gold.Chemscore.Hbond.Weighted>
-12.5062

> <Gold.Chemscore.Metal.Weighted>
-0.0000

> <Gold.Chemscore.Lipo.Weighted>
-8.4752

> <Gold.Chemscore.Internal_Hbond.Weighted>
0.0000

> <Gold.Chemscore.DEClash.Weighted>
0.4625

> <Gold.Chemscore.DEInternal.Weighted>
1.2759

> <Gold.Chemscore.Rot.Weighted>
9.5298

> <Gold.Chemscore.Internal.Correction.Weighted>
   9.000000E+99

> <Gold.Protein.RotatedTorsions>
[ 6907 6896 6895 6894 ] final -129.86 input  -60.11 | X-H torsion
[ 7974 7965 7964 7962 ] final   23.83 input  175.53 | X-H torsion
[ 8008 7997 7996 7995 ] final  -48.25 input   59.86 | X-H torsion
[ 10167 10162 10161 10158 ] final  -63.14 input  -65.29 | X-H torsion
[ 10718 10713 10712 10709 ] final  102.58 input   66.30 | X-H torsion
[ 10763 10752 10751 10750 ] final   98.34 input  -60.55 | X-H torsion
[ 11005 11000 10999 10996 ] final  121.65 input  -57.11 | X-H torsion

> <Gold.Protein.ActiveResidues>
 VAL166  LYS551  ARG553  GLY616  TRP617  ASP618  TYR619  PRO620  LYS621  CYS622 
 ASP623  PHE694  ASN695  SER759  ASP760  ASP761  ALA762  ILE779  LEU786  VAL792 
 PHE793  MET794  SER795  GLU796  ALA797  LYS798  CYS799  TRP800  GLU811  SER814 

> <Gold.Protein.RotatedAtoms>
  150.9334  133.6740  159.2805 H   0  0  0  0  0  0  0  0  0  0  0  0  # atno 6907 bound_to 6896
  151.4154  135.0989  159.9607 H   0  0  0  0  0  0  0  0  0  0  0  0  # atno 6908 bound_to 6896
  152.5036  133.8797  159.7395 H   0  0  0  0  0  0  0  0  0  0  0  0  # atno 6909 bound_to 6896
  146.1966  139.7690  142.8792 H   0  0  0  0  0  0  0  0  0  0  0  0  # atno 7974 bound_to 7965
  154.4026  140.1326  156.4309 H   0  0  0  0  0  0  0  0  0  0  0  0  # atno 8008 bound_to 7997
  155.7552  140.3487  155.5150 H   0  0  0  0  0  0  0  0  0  0  0  0  # atno 8009 bound_to 7997
  155.8912  140.1003  157.1407 H   0  0  0  0  0  0  0  0  0  0  0  0  # atno 8010 bound_to 7997
  140.5891  143.2338  151.6178 H   0  0  0  0  0  0  0  0  0  0  0  0  # atno 10167 bound_to 10162
  157.6798  131.0757  150.5426 H   0  0  0  0  0  0  0  0  0  0  0  0  # atno 10718 bound_to 10713
  153.2879  135.4151  155.1139 H   0  0  0  0  0  0  0  0  0  0  0  0  # atno 10763 bound_to 10752
  154.8511  135.3511  154.6022 H   0  0  0  0  0  0  0  0  0  0  0  0  # atno 10764 bound_to 10752
  153.6444  135.7055  153.5288 H   0  0  0  0  0  0  0  0  0  0  0  0  # atno 10765 bound_to 10752
  139.9235  134.9639  156.7990 H   0  0  0  0  0  0  0  0  0  0  0  0  # atno 11005 bound_to 11000
  145.3622  141.0328  143.3278 LP  0  0  0  0  0  0  0  0  0  0  0  0  # atno 17320 bound_to 7965
  144.8594  139.5200  143.6819 LP  0  0  0  0  0  0  0  0  0  0  0  0  # atno 17321 bound_to 7965
  139.5216  144.3188  152.0929 LP  0  0  0  0  0  0  0  0  0  0  0  0  # atno 17342 bound_to 10162
  140.2349  144.4330  150.6284 LP  0  0  0  0  0  0  0  0  0  0  0  0  # atno 17343 bound_to 10162
  156.5733  130.4285  149.6010 LP  0  0  0  0  0  0  0  0  0  0  0  0  # atno 17370 bound_to 10713
  156.2722  130.7023  151.1824 LP  0  0  0  0  0  0  0  0  0  0  0  0  # atno 17371 bound_to 10713
  140.6405  133.9823  155.7705 LP  0  0  0  0  0  0  0  0  0  0  0  0  # atno 17394 bound_to 11000
  141.0774  134.0114  157.3437 LP  0  0  0  0  0  0  0  0  0  0  0  0  # atno 17395 bound_to 11000

$$$$
