AV-unprocessed.smi:315|AV-procd|sdf|2323|dock2
  -GOLD-   2262022223D 1   1.00000     0.00000
 Structure written by MMmdl.
 47 49  0  0  0  0  0  0  0  0  2 V2000
  151.8164  138.7249  155.8572 C   0  0  0  0  0  0  0  0  0  0  0  0
  151.6330  138.2596  154.4106 C   0  0  0  0  0  0  0  0  0  0  0  0
  150.2386  138.1531  154.1437 O   0  0  0  0  0  0  0  0  0  0  0  0
  149.4679  139.3004  154.1606 C   0  0  0  0  0  0  0  0  0  0  0  0
  149.9975  140.4298  154.6936 N   0  0  0  0  0  0  0  0  0  0  0  0
  149.2422  141.5473  154.7087 C   0  0  0  0  0  0  0  0  0  0  0  0
  147.9287  141.5970  154.2060 C   0  0  0  0  0  0  0  0  0  0  0  0
  147.3771  140.4263  153.6534 C   0  0  0  0  0  0  0  0  0  0  0  0
  148.1639  139.2501  153.6170 C   0  0  0  0  0  0  0  0  0  0  0  0
  147.7055  138.0088  153.1006 N   0  0  0  0  0  0  0  0  0  0  0  0
  146.4475  137.5327  153.0374 C   0  0  0  0  0  0  0  0  0  0  0  0
  145.4533  138.1172  153.4612 O   0  0  0  0  0  0  0  0  0  0  0  0
  146.3472  136.3339  152.4359 N   0  0  0  0  0  0  0  0  0  0  0  0
  145.1352  135.5455  152.2056 C   0  0  1  0  0  0  0  0  0  0  0  0
  145.3679  134.2666  151.3840 C   0  0  0  0  0  0  0  0  0  0  0  0
  144.4809  133.1899  152.0395 C   0  0  0  0  0  0  0  0  0  0  0  0
  143.6999  133.8702  153.0975 N   0  3  2  0  0  0  0  0  0  0  0  0
  142.3373  134.2479  152.6311 C   0  0  0  0  0  0  0  0  0  0  0  0
  141.6143  135.1545  153.6354 C   0  0  0  0  0  0  0  0  0  0  0  0
  142.4362  136.4205  153.8902 C   0  0  0  0  0  0  0  0  0  0  0  0
  143.8224  136.0328  154.4170 C   0  0  0  0  0  0  0  0  0  0  0  0
  144.5513  135.0100  153.5166 C   0  0  2  0  0  0  0  0  0  0  0  0
  152.8738  138.8209  156.1042 H   0  0  0  0  0  0  0  0  0  0  0  0
  151.3728  138.0153  156.5561 H   0  0  0  0  0  0  0  0  0  0  0  0
  151.3455  139.6949  156.0188 H   0  0  0  0  0  0  0  0  0  0  0  0
  152.0978  138.9770  153.7324 H   0  0  0  0  0  0  0  0  0  0  0  0
  152.1225  137.2943  154.2716 H   0  0  0  0  0  0  0  0  0  0  0  0
  149.6961  142.4274  155.1400 H   0  0  0  0  0  0  0  0  0  0  0  0
  147.3559  142.5116  154.2468 H   0  0  0  0  0  0  0  0  0  0  0  0
  146.3638  140.4495  153.2832 H   0  0  0  0  0  0  0  0  0  0  0  0
  148.4105  137.4514  152.6413 H   0  0  0  0  0  0  0  0  0  0  0  0
  147.2079  135.9308  152.0941 H   0  0  0  0  0  0  0  0  0  0  0  0
  144.3820  136.1602  151.7098 H   0  0  0  0  0  0  0  0  0  0  0  0
  145.1024  134.4245  150.3381 H   0  0  0  0  0  0  0  0  0  0  0  0
  146.4131  133.9545  151.4120 H   0  0  0  0  0  0  0  0  0  0  0  0
  143.8482  132.6726  151.3168 H   0  0  0  0  0  0  0  0  0  0  0  0
  145.1121  132.4366  152.5126 H   0  0  0  0  0  0  0  0  0  0  0  0
  142.4006  134.7562  151.6674 H   0  0  0  0  0  0  0  0  0  0  0  0
  141.7548  133.3409  152.4660 H   0  0  0  0  0  0  0  0  0  0  0  0
  140.6285  135.4214  153.2529 H   0  0  0  0  0  0  0  0  0  0  0  0
  141.4511  134.6193  154.5718 H   0  0  0  0  0  0  0  0  0  0  0  0
  142.5281  136.9998  152.9707 H   0  0  0  0  0  0  0  0  0  0  0  0
  141.9277  137.0609  154.6114 H   0  0  0  0  0  0  0  0  0  0  0  0
  144.4365  136.9240  154.5501 H   0  0  0  0  0  0  0  0  0  0  0  0
  143.7046  135.5994  155.4111 H   0  0  0  0  0  0  0  0  0  0  0  0
  145.3722  134.5861  154.0990 H   0  0  0  0  0  0  0  0  0  0  0  0
  143.5848  133.2459  153.8831 H   0  0  0  0  0  0  0  0  0  0  0  0
  1  2  1  0  0  0  0
  1 23  1  0  0  0  0
  1 24  1  0  0  0  0
  1 25  1  0  0  0  0
  2  3  1  0  0  0  0
  2 26  1  0  0  0  0
  2 27  1  0  0  0  0
  3  4  1  0  0  0  0
  4  9  1  0  0  0  0
  4  5  2  0  0  0  0
  5  6  1  0  0  0  0
  6  7  2  0  0  0  0
  6 28  1  0  0  0  0
  7  8  1  0  0  0  0
  7 29  1  0  0  0  0
  8  9  2  0  0  0  0
  8 30  1  0  0  0  0
  9 10  1  0  0  0  0
 10 11  1  0  0  0  0
 10 31  1  0  0  0  0
 11 12  2  0  0  0  0
 11 13  1  0  0  0  0
 13 14  1  0  0  0  0
 13 32  1  0  0  0  0
 14 22  1  0  0  0  0
 14 15  1  0  0  0  0
 14 33  1  0  0  0  0
 15 16  1  0  0  0  0
 15 34  1  0  0  0  0
 15 35  1  0  0  0  0
 16 17  1  0  0  0  0
 16 36  1  0  0  0  0
 16 37  1  0  0  0  0
 17 22  1  0  0  0  0
 17 18  1  0  0  0  0
 17 47  1  0  0  0  0
 18 19  1  0  0  0  0
 18 38  1  0  0  0  0
 18 39  1  0  0  0  0
 19 20  1  0  0  0  0
 19 40  1  0  0  0  0
 19 41  1  0  0  0  0
 20 21  1  0  0  0  0
 20 42  1  0  0  0  0
 20 43  1  0  0  0  0
 21 22  1  0  0  0  0
 21 44  1  0  0  0  0
 21 45  1  0  0  0  0
 22 46  1  0  0  0  0
M  CHG  1  17   1
M  END
> <s_m_source_file>
AV-unprocessed.smi

> <i_m_source_file_index>
315

> <i_lp_mmshare_version>
43012

> <i_f3d_flags>
0

> <s_epik_input>
W0NIM11bQ0gyXU9jMW5bY0hdW2NIXVtjSF1jMVtOSF1DKD1PKVtOSF1bQ0BIXShbQ0gyXVtDSDJdMilbQ0BASF0oTjIzKVtDSDJdW0NIMl1bQ0gyXVtDSDJdMw==

> <s_epik_cmdline>
J2VwaWtfcHl0aG9uJywgJy1waCcsICc3LjAnLCAnLXRuJywgJzgnLCAnLW1hJywgJzIwMCcsICctbWV0YWxfYmluZGluZycsICctaW1hZScsICc8aW5maWxlLm1hZT4nLCAnLW9tYWUnLCAnPG91dGZpbGUubWFlPic=

> <r_lp_tautomer_probability>
1

> <r_epik_Ionization_Penalty>
0.00106455

> <r_epik_Ionization_Penalty_Charging>
0.000974069

> <r_epik_Ionization_Penalty_Neutral>
9.04821e-05

> <r_epik_State_Penalty>
0.000633842

> <r_epik_Charging_Adjusted_Penalty>
0.00160791

> <i_epik_Tot_Q>
1

> <i_epik_Tot_abs_Q>
1

> <r_epik_Metal_State_Penalty>
-0

> <b_epik_Metal_Only>
0

> <s_lp_Force_Field>
OPLS_2005

> <r_lp_Energy>
51.0433

> <b_lp_Chiralities_Consistent>
1

> <s_lp_Variant>
AV-unprocessed.smi:315-8

> <Gold.Version>
5.8.1

> <Gold.Id.Protein>
6NUR|6NUR_protein|mol2

> <Gold.PLP.Fitness>
51.2697

> <Gold.PLP.PLP>
-34.4297

> <Gold.PLP.part.hbond>
-3.9698

> <Gold.PLP.part.metal>
0.0000

> <Gold.PLP.part.buried>
-2.8831

> <Gold.PLP.part.nonpolar>
-28.9956

> <Gold.PLP.part.repulsive>
1.1936

> <Gold.PLP.ligand.clash>
0.0000

> <Gold.PLP.ligand.torsion>
0.3822

> <Gold.PLP.Chemscore.Hbond>
4.8560

> <Gold.PLP.Chemscore.CHOScore>
1.0000

> <Gold.PLP.Chemscore.Metal>
0.0000

> <Gold.Chemscore.Hbonds>
donor molecule, donor type, donor heavy atom, donor atom, acceptor molecule, acceptor atom, score
      L1  H    10    31       P1  7948  1.00
      L1  H    13    32       P1  7948  0.91
      L1  H    17    47       P1 10957  2.00
      P1  H  7989  7998       L1     5  0.84
      L1  C     6    28       P1  8028  1.00

> <Gold.PLP.Chemscore.Internal.Correction>
0.0365

> <Gold.Rescore>
     Score         DG    S(hbond)    S(metal)    S(lipo)     H(rot)  DE(clash)    DE(int)     intcor
     16.64     -21.10       3.12        0.00      74.60       1.38       0.97       3.50       ----

> <Gold.Chemscore.Fitness>
16.6384

> <Gold.Chemscore.DG>
-21.1035

> <Gold.Chemscore.ZeroCoef>
-5.4800

> <Gold.Chemscore.Hbond>
3.1199

> <Gold.Chemscore.Metal>
0.0000

> <Gold.Chemscore.Lipo>
74.5990

> <Gold.Chemscore.Internal_Hbond>
0.0000

> <Gold.Chemscore.DEClash>
0.9662

> <Gold.Chemscore.DEInternal>
3.4989

> <Gold.Chemscore.Rot>
1.3770

> <Gold.Chemscore.Internal.Correction>
   9.000000E+99

> <Gold.Chemscore.Hbonds>
donor molecule, donor type, donor heavy atom, donor atom, acceptor molecule, acceptor atom, score
      L1  H    10    31       P1  7948  0.92
      L1  H    13    32       P1  7948  0.88
      L1  H    17    47       P1 10957  0.94
      P1  H  7989  7998       L1     5  0.20

> <Gold.Chemscore.Hbond.Weighted>
-10.4206

> <Gold.Chemscore.Metal.Weighted>
-0.0000

> <Gold.Chemscore.Lipo.Weighted>
-8.7281

> <Gold.Chemscore.Internal_Hbond.Weighted>
0.0000

> <Gold.Chemscore.DEClash.Weighted>
0.9662

> <Gold.Chemscore.DEInternal.Weighted>
3.4989

> <Gold.Chemscore.Rot.Weighted>
3.5252

> <Gold.Chemscore.Internal.Correction.Weighted>
   9.000000E+99

> <Gold.Protein.RotatedTorsions>
[ 6907 6896 6895 6894 ] final  143.17 input  -60.11 | X-H torsion
[ 7974 7965 7964 7962 ] final  -68.50 input  175.53 | X-H torsion
[ 8008 7997 7996 7995 ] final -104.43 input   59.86 | X-H torsion
[ 10167 10162 10161 10158 ] final  -15.31 input  -65.29 | X-H torsion
[ 10718 10713 10712 10709 ] final   96.04 input   66.30 | X-H torsion
[ 10763 10752 10751 10750 ] final -176.51 input  -60.55 | X-H torsion
[ 11005 11000 10999 10996 ] final  149.91 input  -57.11 | X-H torsion

> <Gold.Protein.ActiveResidues>
 VAL166  LYS551  ARG553  GLY616  TRP617  ASP618  TYR619  PRO620  LYS621  CYS622 
 ASP623  PHE694  ASN695  SER759  ASP760  ASP761  ALA762  ILE779  LEU786  VAL792 
 PHE793  MET794  SER795  GLU796  ALA797  LYS798  CYS799  TRP800  GLU811  SER814 

> <Gold.Protein.RotatedAtoms>
  152.2097  133.4902  159.5102 H   0  0  0  0  0  0  0  0  0  0  0  0  # atno 6907 bound_to 6896
  150.6987  134.1483  159.4140 H   0  0  0  0  0  0  0  0  0  0  0  0  # atno 6908 bound_to 6896
  151.9403  135.0216  160.0586 H   0  0  0  0  0  0  0  0  0  0  0  0  # atno 6909 bound_to 6896
  145.7158  140.9059  143.0656 H   0  0  0  0  0  0  0  0  0  0  0  0  # atno 7974 bound_to 7965
  154.8851  140.0418  157.1806 H   0  0  0  0  0  0  0  0  0  0  0  0  # atno 8008 bound_to 7997
  154.8598  140.2942  155.5525 H   0  0  0  0  0  0  0  0  0  0  0  0  # atno 8009 bound_to 7997
  156.2998  140.2449  156.3571 H   0  0  0  0  0  0  0  0  0  0  0  0  # atno 8010 bound_to 7997
  140.7216  143.5231  150.9609 H   0  0  0  0  0  0  0  0  0  0  0  0  # atno 10167 bound_to 10162
  157.6932  131.0565  150.4431 H   0  0  0  0  0  0  0  0  0  0  0  0  # atno 10718 bound_to 10713
  154.5715  135.2828  155.0823 H   0  0  0  0  0  0  0  0  0  0  0  0  # atno 10763 bound_to 10752
  154.2194  135.6394  153.5143 H   0  0  0  0  0  0  0  0  0  0  0  0  # atno 10764 bound_to 10752
  153.0059  135.5510  154.6339 H   0  0  0  0  0  0  0  0  0  0  0  0  # atno 10765 bound_to 10752
  140.1086  134.8938  157.1902 H   0  0  0  0  0  0  0  0  0  0  0  0  # atno 11005 bound_to 11000
  144.6930  139.9135  143.7464 LP  0  0  0  0  0  0  0  0  0  0  0  0  # atno 17320 bound_to 7965
  146.0671  139.3662  143.0545 LP  0  0  0  0  0  0  0  0  0  0  0  0  # atno 17321 bound_to 7965
  139.8949  143.6907  152.3140 LP  0  0  0  0  0  0  0  0  0  0  0  0  # atno 17342 bound_to 10162
  139.7236  144.7597  151.0915 LP  0  0  0  0  0  0  0  0  0  0  0  0  # atno 17343 bound_to 10162
  156.4788  130.4069  149.6474 LP  0  0  0  0  0  0  0  0  0  0  0  0  # atno 17370 bound_to 10713
  156.3527  130.7440  151.2402 LP  0  0  0  0  0  0  0  0  0  0  0  0  # atno 17371 bound_to 10713
  140.3122  134.3011  155.7264 LP  0  0  0  0  0  0  0  0  0  0  0  0  # atno 17394 bound_to 11000
  141.2124  133.7657  156.9792 LP  0  0  0  0  0  0  0  0  0  0  0  0  # atno 17395 bound_to 11000

$$$$
