AV-unprocessed.smi:1704|AV-procd|sdf|6881|dock5
  -GOLD-   22720 8 83D 1   1.00000     0.00000
 Structure written by MMmdl.
 41 43  0  0  0  0  0  0  0  0  1 V2000
  152.5321  143.7288  162.2753 C   0  0  0  0  0  0  0  0  0  0  0  0
  152.6260  142.6978  161.2244 N   0  0  0  0  0  0  0  0  0  0  0  0
  151.7103  142.7263  160.2053 C   0  0  0  0  0  0  0  0  0  0  0  0
  150.7906  143.5395  160.1097 O   0  0  0  0  0  0  0  0  0  0  0  0
  151.9097  141.6780  159.1984 C   0  0  0  0  0  0  0  0  0  0  0  0
  152.8860  140.7430  159.2943 C   0  0  0  0  0  0  0  0  0  0  0  0
  152.8490  139.8578  158.2234 N   0  0  0  0  0  0  0  0  0  0  0  0
  151.8212  140.3253  157.5144 C   0  0  0  0  0  0  0  0  0  0  0  0
  151.2117  141.4186  158.0184 N   0  0  0  0  0  0  0  0  0  0  0  0
  150.0760  142.1183  157.4286 C   0  0  0  0  0  0  0  0  0  0  0  0
  149.0583  141.1975  156.7048 C   0  0  0  0  0  0  0  0  0  0  0  0
  147.9452  141.9860  156.3244 O   0  0  0  0  0  0  0  0  0  0  0  0
  149.6482  140.5564  155.4231 C   0  0  0  0  0  0  0  0  0  0  0  0
  148.7088  139.5218  154.7769 C   0  0  0  0  0  0  0  0  0  0  0  0
  148.2804  138.4444  155.7824 C   0  0  0  0  0  0  0  0  0  0  0  0
  147.6271  139.0778  157.0179 C   0  0  0  0  0  0  0  0  0  0  0  0
  148.5623  140.1046  157.6810 C   0  0  0  0  0  0  0  0  0  0  0  0
  153.7634  140.7857  160.4060 N   0  0  0  0  0  0  0  0  0  0  0  0
  154.8000  139.7517  160.4804 C   0  0  0  0  0  0  0  0  0  0  0  0
  153.6465  141.7709  161.3565 C   0  0  0  0  0  0  0  0  0  0  0  0
  154.4328  141.8260  162.3060 O   0  0  0  0  0  0  0  0  0  0  0  0
  151.7131  144.4384  162.1523 H   0  0  0  0  0  0  0  0  0  0  0  0
  153.4491  144.3190  162.3103 H   0  0  0  0  0  0  0  0  0  0  0  0
  152.3940  143.2651  163.2534 H   0  0  0  0  0  0  0  0  0  0  0  0
  151.5052  139.8624  156.5911 H   0  0  0  0  0  0  0  0  0  0  0  0
  149.5688  142.6567  158.2305 H   0  0  0  0  0  0  0  0  0  0  0  0
  150.4466  142.8899  156.7545 H   0  0  0  0  0  0  0  0  0  0  0  0
  148.2610  142.8249  156.0255 H   0  0  0  0  0  0  0  0  0  0  0  0
  149.8892  141.3224  154.6853 H   0  0  0  0  0  0  0  0  0  0  0  0
  150.5906  140.0660  155.6701 H   0  0  0  0  0  0  0  0  0  0  0  0
  147.8253  140.0222  154.3791 H   0  0  0  0  0  0  0  0  0  0  0  0
  149.2043  139.0556  153.9249 H   0  0  0  0  0  0  0  0  0  0  0  0
  147.5861  137.7491  155.3095 H   0  0  0  0  0  0  0  0  0  0  0  0
  149.1487  137.8581  156.0850 H   0  0  0  0  0  0  0  0  0  0  0  0
  146.6908  139.5584  156.7322 H   0  0  0  0  0  0  0  0  0  0  0  0
  147.3647  138.3006  157.7362 H   0  0  0  0  0  0  0  0  0  0  0  0
  149.4224  139.5733  158.0914 H   0  0  0  0  0  0  0  0  0  0  0  0
  148.0578  140.5621  158.5330 H   0  0  0  0  0  0  0  0  0  0  0  0
  155.4076  139.7868  161.3852 H   0  0  0  0  0  0  0  0  0  0  0  0
  155.4752  139.8410  159.6288 H   0  0  0  0  0  0  0  0  0  0  0  0
  154.3422  138.7626  160.4410 H   0  0  0  0  0  0  0  0  0  0  0  0
  1  2  1  0  0  0  0
  1 22  1  0  0  0  0
  1 23  1  0  0  0  0
  1 24  1  0  0  0  0
  2 20  1  0  0  0  0
  2  3  1  0  0  0  0
  3  4  2  0  0  0  0
  3  5  1  0  0  0  0
  5  9  1  0  0  0  0
  5  6  2  0  0  0  0
  6  7  1  0  0  0  0
  6 18  1  0  0  0  0
  7  8  2  0  0  0  0
  8  9  1  0  0  0  0
  8 25  1  0  0  0  0
  9 10  1  0  0  0  0
 10 11  1  0  0  0  0
 10 26  1  0  0  0  0
 10 27  1  0  0  0  0
 11 17  1  0  0  0  0
 11 12  1  0  0  0  0
 11 13  1  0  0  0  0
 12 28  1  0  0  0  0
 13 14  1  0  0  0  0
 13 29  1  0  0  0  0
 13 30  1  0  0  0  0
 14 15  1  0  0  0  0
 14 31  1  0  0  0  0
 14 32  1  0  0  0  0
 15 16  1  0  0  0  0
 15 33  1  0  0  0  0
 15 34  1  0  0  0  0
 16 17  1  0  0  0  0
 16 35  1  0  0  0  0
 16 36  1  0  0  0  0
 17 37  1  0  0  0  0
 17 38  1  0  0  0  0
 18 19  1  0  0  0  0
 18 20  1  0  0  0  0
 19 39  1  0  0  0  0
 19 40  1  0  0  0  0
 19 41  1  0  0  0  0
 20 21  2  0  0  0  0
M  END
> <s_m_source_file>
AV-unprocessed.smi

> <i_m_source_file_index>
1704

> <i_lp_mmshare_version>
43012

> <i_f3d_flags>
0

> <s_epik_input>
Tz1jMW4oW0NIM10pYyg9TyluKFtDSDNdKWMoYzEyKW5bY0hdbjJbQ0gyXUMzKFtPSF0pW0NIMl1bQ0gyXVtDSDJdW0NIMl1bQ0gyXTM=

> <s_epik_cmdline>
J2VwaWtfcHl0aG9uJywgJy1waCcsICc3LjAnLCAnLXRuJywgJzgnLCAnLW1hJywgJzIwMCcsICctbWV0YWxfYmluZGluZycsICctaW1hZScsICc8aW5maWxlLm1hZT4nLCAnLW9tYWUnLCAnPG91dGZpbGUubWFlPic=

> <r_lp_tautomer_probability>
1

> <r_epik_Ionization_Penalty>
6.70257e-06

> <r_epik_Ionization_Penalty_Charging>
6.65152e-09

> <r_epik_Ionization_Penalty_Neutral>
6.69592e-06

> <r_epik_State_Penalty>
-0

> <r_epik_Charging_Adjusted_Penalty>
6.65152e-09

> <i_epik_Tot_Q>
0

> <i_epik_Tot_abs_Q>
0

> <r_epik_Metal_State_Penalty>
-0

> <b_epik_Metal_Only>
0

> <s_lp_Force_Field>
OPLS_2005

> <r_lp_Energy>
39.0788

> <b_lp_Chiralities_Consistent>
1

> <s_lp_Variant>
AV-unprocessed.smi:1704-1

> <Gold.Version>
5.8.1

> <Gold.Id.Protein>
6NUR|6NUR_protein|mol2

> <Gold.PLP.Fitness>
45.6997

> <Gold.PLP.PLP>
-40.4801

> <Gold.PLP.part.hbond>
-3.0000

> <Gold.PLP.part.metal>
0.0000

> <Gold.PLP.part.buried>
-3.1594

> <Gold.PLP.part.nonpolar>
-33.5474

> <Gold.PLP.part.repulsive>
0.0647

> <Gold.PLP.ligand.clash>
0.0000

> <Gold.PLP.ligand.torsion>
0.3803

> <Gold.PLP.Chemscore.Hbond>
1.9920

> <Gold.PLP.Chemscore.CHOScore>
0.0000

> <Gold.PLP.Chemscore.Metal>
0.0000

> <Gold.Chemscore.Hbonds>
donor molecule, donor type, donor heavy atom, donor atom, acceptor molecule, acceptor atom, score
      L1  H    12    28       P1  8028  1.00
      P1  H  7997  8010       L1     7  0.57

> <Gold.PLP.Chemscore.Internal.Correction>
0.0041

> <Gold.Rescore>
     Score         DG    S(hbond)    S(metal)    S(lipo)     H(rot)  DE(clash)    DE(int)     intcor
     11.79     -12.71       1.49        0.00      59.44       1.84       0.60       0.31       ----

> <Gold.Chemscore.Fitness>
11.7929

> <Gold.Chemscore.DG>
-12.7092

> <Gold.Chemscore.ZeroCoef>
-5.4800

> <Gold.Chemscore.Hbond>
1.4918

> <Gold.Chemscore.Metal>
0.0000

> <Gold.Chemscore.Lipo>
59.4380

> <Gold.Chemscore.Internal_Hbond>
0.0000

> <Gold.Chemscore.DEClash>
0.6026

> <Gold.Chemscore.DEInternal>
0.3137

> <Gold.Chemscore.Rot>
1.8389

> <Gold.Chemscore.Internal.Correction>
   9.000000E+99

> <Gold.Chemscore.Hbonds>
donor molecule, donor type, donor heavy atom, donor atom, acceptor molecule, acceptor atom, score
      L1  H    12    28       P1  8028  0.86
      P1  H  7997  8010       L1     7  0.29

> <Gold.Chemscore.Hbond.Weighted>
-4.9825

> <Gold.Chemscore.Metal.Weighted>
-0.0000

> <Gold.Chemscore.Lipo.Weighted>
-6.9542

> <Gold.Chemscore.Internal_Hbond.Weighted>
0.0000

> <Gold.Chemscore.DEClash.Weighted>
0.6026

> <Gold.Chemscore.DEInternal.Weighted>
0.3137

> <Gold.Chemscore.Rot.Weighted>
4.7076

> <Gold.Chemscore.Internal.Correction.Weighted>
   9.000000E+99

> <Gold.Protein.RotatedTorsions>
[ 6907 6896 6895 6894 ] final -167.11 input  -60.11 | X-H torsion
[ 7974 7965 7964 7962 ] final  132.90 input  175.53 | X-H torsion
[ 8008 7997 7996 7995 ] final   20.99 input   59.86 | X-H torsion
[ 10167 10162 10161 10158 ] final   75.76 input  -65.29 | X-H torsion
[ 10718 10713 10712 10709 ] final  136.59 input   66.30 | X-H torsion
[ 10763 10752 10751 10750 ] final  -10.55 input  -60.55 | X-H torsion
[ 11005 11000 10999 10996 ] final  -10.74 input  -57.11 | X-H torsion

> <Gold.Protein.ActiveResidues>
 VAL166  LYS551  ARG553  GLY616  TRP617  ASP618  TYR619  PRO620  LYS621  CYS622 
 ASP623  PHE694  ASN695  SER759  ASP760  ASP761  ALA762  ILE779  LEU786  VAL792 
 PHE793  MET794  SER795  GLU796  ALA797  LYS798  CYS799  TRP800  GLU811  SER814 

> <Gold.Protein.RotatedAtoms>
  151.4544  133.3609  159.2799 H   0  0  0  0  0  0  0  0  0  0  0  0  # atno 6907 bound_to 6896
  150.9069  134.8486  159.7409 H   0  0  0  0  0  0  0  0  0  0  0  0  # atno 6908 bound_to 6896
  152.4911  134.4470  159.9614 H   0  0  0  0  0  0  0  0  0  0  0  0  # atno 6909 bound_to 6896
  144.9920  139.4397  143.5334 H   0  0  0  0  0  0  0  0  0  0  0  0  # atno 7974 bound_to 7965
  154.9439  140.3057  155.5107 H   0  0  0  0  0  0  0  0  0  0  0  0  # atno 8008 bound_to 7997
  156.2993  140.2331  156.4448 H   0  0  0  0  0  0  0  0  0  0  0  0  # atno 8009 bound_to 7997
  154.8119  140.0428  157.1337 H   0  0  0  0  0  0  0  0  0  0  0  0  # atno 8010 bound_to 7997
  139.9995  144.5697  150.7749 H   0  0  0  0  0  0  0  0  0  0  0  0  # atno 10167 bound_to 10162
  157.4450  131.1061  151.0100 H   0  0  0  0  0  0  0  0  0  0  0  0  # atno 10718 bound_to 10713
  153.4708  135.7017  153.5995 H   0  0  0  0  0  0  0  0  0  0  0  0  # atno 10763 bound_to 10752
  153.4250  135.3816  155.2135 H   0  0  0  0  0  0  0  0  0  0  0  0  # atno 10764 bound_to 10752
  154.8725  135.3937  154.4145 H   0  0  0  0  0  0  0  0  0  0  0  0  # atno 10765 bound_to 10752
  140.7479  133.8616  155.9021 H   0  0  0  0  0  0  0  0  0  0  0  0  # atno 11005 bound_to 11000
  146.3433  139.9258  142.8760 LP  0  0  0  0  0  0  0  0  0  0  0  0  # atno 17320 bound_to 7965
  145.2272  140.9958  143.4012 LP  0  0  0  0  0  0  0  0  0  0  0  0  # atno 17321 bound_to 7965
  140.7424  143.2832  151.3539 LP  0  0  0  0  0  0  0  0  0  0  0  0  # atno 17342 bound_to 10162
  139.6282  144.0773  152.2453 LP  0  0  0  0  0  0  0  0  0  0  0  0  # atno 17343 bound_to 10162
  157.0949  130.5958  149.5447 LP  0  0  0  0  0  0  0  0  0  0  0  0  # atno 17370 bound_to 10713
  155.9964  130.5033  150.7494 LP  0  0  0  0  0  0  0  0  0  0  0  0  # atno 17371 bound_to 10713
  140.9777  134.1446  157.4521 LP  0  0  0  0  0  0  0  0  0  0  0  0  # atno 17394 bound_to 11000
  139.8793  135.0000  156.5987 LP  0  0  0  0  0  0  0  0  0  0  0  0  # atno 17395 bound_to 11000

$$$$
