AV-unprocessed.smi:702|AV-procd|sdf|3425|dock2
  -GOLD-   22720 0403D 1   1.00000     0.00000
 Structure written by MMmdl.
 50 52  0  0  0  0  0  0  0  0  4 V2000
  144.3681  135.1700  154.3382 C   0  0  0  0  0  0  0  0  0  0  0  0
  145.1044  135.3118  152.9898 C   0  0  1  0  0  0  0  0  0  0  0  0
  146.2861  136.1533  153.2129 N   0  5  0  0  0  0  0  0  0  0  0  0
  146.2885  137.3448  153.8697 C   0  0  0  0  0  0  0  0  0  0  0  0
  145.3817  137.8283  154.5560 O   0  0  0  0  0  0  0  0  0  0  0  0
  147.4507  138.0038  153.7164 N   0  0  0  0  0  0  0  0  0  0  0  0
  147.8214  139.2902  154.1931 C   0  0  0  0  0  0  0  0  0  0  0  0
  149.1598  139.4765  154.6035 C   0  0  0  0  0  0  0  0  0  0  0  0
  149.5765  140.7429  155.0614 C   0  0  0  0  0  0  0  0  0  0  0  0
  148.6990  141.7687  155.0926 N   0  3  0  0  0  0  0  0  0  0  0  0
  147.4150  141.6438  154.6936 C   0  0  0  0  0  0  0  0  0  0  0  0
  146.9411  140.4015  154.2255 C   0  0  0  0  0  0  0  0  0  0  0  0
  145.5166  133.9551  152.2670 C   0  0  0  0  0  0  0  0  0  0  0  0
  146.5821  133.1556  153.0121 N   0  3  0  0  0  0  0  0  0  0  0  0
  148.0071  133.5917  152.8836 C   0  0  0  0  0  0  0  0  0  0  0  0
  148.9497  132.4750  153.3550 C   0  0  0  0  0  0  0  0  0  0  0  0
  148.6528  132.1456  154.7050 O   0  0  0  0  0  0  0  0  0  0  0  0
  147.3268  131.6552  154.8491 C   0  0  0  0  0  0  0  0  0  0  0  0
  146.3146  132.7297  154.4185 C   0  0  0  0  0  0  0  0  0  0  0  0
  144.2937  133.0603  151.9027 C   0  0  0  0  0  0  0  0  0  0  0  0
  144.7943  132.0720  150.8423 C   0  0  0  0  0  0  0  0  0  0  0  0
  145.9336  132.8026  150.1226 C   0  0  0  0  0  0  0  0  0  0  0  0
  146.0519  134.1661  150.8202 C   0  0  0  0  0  0  0  0  0  0  0  0
  143.4273  134.6313  154.2398 H   0  0  0  0  0  0  0  0  0  0  0  0
  144.1142  136.1520  154.7396 H   0  0  0  0  0  0  0  0  0  0  0  0
  144.9718  134.6672  155.0929 H   0  0  0  0  0  0  0  0  0  0  0  0
  144.3903  135.8021  152.3271 H   0  0  0  0  0  0  0  0  0  0  0  0
  148.1771  137.4896  153.2400 H   0  0  0  0  0  0  0  0  0  0  0  0
  149.8615  138.6553  154.5747 H   0  0  0  0  0  0  0  0  0  0  0  0
  150.5784  140.9645  155.3985 H   0  0  0  0  0  0  0  0  0  0  0  0
  146.8102  142.5367  154.7537 H   0  0  0  0  0  0  0  0  0  0  0  0
  145.9185  140.3254  153.8887 H   0  0  0  0  0  0  0  0  0  0  0  0
  148.2585  133.8547  151.8580 H   0  0  0  0  0  0  0  0  0  0  0  0
  148.1884  134.4802  153.4898 H   0  0  0  0  0  0  0  0  0  0  0  0
  148.8598  131.5925  152.7194 H   0  0  0  0  0  0  0  0  0  0  0  0
  149.9860  132.8081  153.2944 H   0  0  0  0  0  0  0  0  0  0  0  0
  147.1980  130.7439  154.2626 H   0  0  0  0  0  0  0  0  0  0  0  0
  147.1643  131.3855  155.8930 H   0  0  0  0  0  0  0  0  0  0  0  0
  146.3838  133.5765  155.0994 H   0  0  0  0  0  0  0  0  0  0  0  0
  145.3246  132.2991  154.5406 H   0  0  0  0  0  0  0  0  0  0  0  0
  143.8013  132.5745  152.7439 H   0  0  0  0  0  0  0  0  0  0  0  0
  143.5068  133.6427  151.4207 H   0  0  0  0  0  0  0  0  0  0  0  0
  145.1720  131.1646  151.3152 H   0  0  0  0  0  0  0  0  0  0  0  0
  143.9969  131.7788  150.1588 H   0  0  0  0  0  0  0  0  0  0  0  0
  146.8617  132.2391  150.2261 H   0  0  0  0  0  0  0  0  0  0  0  0
  145.7371  132.9168  149.0560 H   0  0  0  0  0  0  0  0  0  0  0  0
  145.4270  134.8519  150.2469 H   0  0  0  0  0  0  0  0  0  0  0  0
  147.0629  134.5658  150.7579 H   0  0  0  0  0  0  0  0  0  0  0  0
  146.5588  132.2795  152.5113 H   0  0  0  0  0  0  0  0  0  0  0  0
  149.0206  142.6776  155.4261 H   0  0  0  0  0  0  0  0  0  0  0  0
  1  2  1  0  0  0  0
  1 24  1  0  0  0  0
  1 25  1  0  0  0  0
  1 26  1  0  0  0  0
  2  3  1  0  0  0  0
  2 13  1  0  0  0  0
  2 27  1  0  0  0  0
  3  4  1  0  0  0  0
  4  5  2  0  0  0  0
  4  6  1  0  0  0  0
  6  7  1  0  0  0  0
  6 28  1  0  0  0  0
  7 12  1  0  0  0  0
  7  8  2  0  0  0  0
  8  9  1  0  0  0  0
  8 29  1  0  0  0  0
  9 10  2  0  0  0  0
  9 30  1  0  0  0  0
 10 11  1  0  0  0  0
 10 50  1  0  0  0  0
 11 12  2  0  0  0  0
 11 31  1  0  0  0  0
 12 32  1  0  0  0  0
 13 23  1  0  0  0  0
 13 14  1  0  0  0  0
 13 20  1  0  0  0  0
 14 19  1  0  0  0  0
 14 15  1  0  0  0  0
 14 49  1  0  0  0  0
 15 16  1  0  0  0  0
 15 33  1  0  0  0  0
 15 34  1  0  0  0  0
 16 17  1  0  0  0  0
 16 35  1  0  0  0  0
 16 36  1  0  0  0  0
 17 18  1  0  0  0  0
 18 19  1  0  0  0  0
 18 37  1  0  0  0  0
 18 38  1  0  0  0  0
 19 39  1  0  0  0  0
 19 40  1  0  0  0  0
 20 21  1  0  0  0  0
 20 41  1  0  0  0  0
 20 42  1  0  0  0  0
 21 22  1  0  0  0  0
 21 43  1  0  0  0  0
 21 44  1  0  0  0  0
 22 23  1  0  0  0  0
 22 45  1  0  0  0  0
 22 46  1  0  0  0  0
 23 47  1  0  0  0  0
 23 48  1  0  0  0  0
M  CHG  1   3  -1
M  CHG  1  10   1
M  CHG  1  14   1
M  END
> <s_m_source_file>
AV-unprocessed.smi

> <i_m_source_file_index>
702

> <i_lp_mmshare_version>
43012

> <i_f3d_flags>
0

> <s_epik_input>
W0NIMl0xW0NIMl1PW0NIMl1bQ0gyXU4xQzIoW0NIMl1bQ0gyXVtDSDJdW0NIMl0yKVtDQEhdKFtDSDNdKVtOSF1DKD1PKVtOSF1jM1tjSF1bY0hdbltjSF1bY0hdMw==

> <s_epik_cmdline>
J2VwaWtfcHl0aG9uJywgJy1waCcsICc3LjAnLCAnLXRuJywgJzgnLCAnLW1hJywgJzIwMCcsICctbWV0YWxfYmluZGluZycsICctaW1hZScsICc8aW5maWxlLm1hZT4nLCAnLW9tYWUnLCAnPG91dGZpbGUubWFlPic=

> <r_epik_Ionization_Penalty>
8.33674

> <r_epik_Ionization_Penalty_Charging>
8.33674

> <r_epik_Ionization_Penalty_Neutral>
3.60854e-06

> <r_epik_State_Penalty>
8.24268

> <r_epik_Charging_Adjusted_Penalty>
16.5794

> <i_epik_Tot_Q>
1

> <i_epik_Tot_abs_Q>
3

> <r_epik_Metal_State_Penalty>
4.24853

> <b_epik_Metal_Only>
1

> <s_lp_Force_Field>
OPLS_2005

> <r_lp_Energy>
61.2868

> <b_lp_Chiralities_Consistent>
1

> <s_lp_Variant>
AV-unprocessed.smi:702-10

> <Gold.Version>
5.8.1

> <Gold.Id.Protein>
6NUR|6NUR_protein|mol2

> <Gold.PLP.Fitness>
41.2865

> <Gold.PLP.PLP>
-33.3438

> <Gold.PLP.part.hbond>
-2.0000

> <Gold.PLP.part.metal>
0.0000

> <Gold.PLP.part.buried>
-4.7286

> <Gold.PLP.part.nonpolar>
-27.7168

> <Gold.PLP.part.repulsive>
1.9048

> <Gold.PLP.ligand.clash>
0.0000

> <Gold.PLP.ligand.torsion>
0.7577

> <Gold.PLP.Chemscore.Hbond>
3.0000

> <Gold.PLP.Chemscore.CHOScore>
0.0000

> <Gold.PLP.Chemscore.Metal>
0.0000

> <Gold.Chemscore.Hbonds>
donor molecule, donor type, donor heavy atom, donor atom, acceptor molecule, acceptor atom, score
      L1  H     6    28       P1  7948  1.00
      L1  H    10    50       P1  8028  1.89

> <Gold.PLP.Chemscore.Internal.Correction>
0.4580

> <Gold.Rescore>
     Score         DG    S(hbond)    S(metal)    S(lipo)     H(rot)  DE(clash)    DE(int)     intcor
     15.01     -18.40       1.93        0.00      87.07       1.45       0.15       3.24       ----

> <Gold.Chemscore.Fitness>
15.0088

> <Gold.Chemscore.DG>
-18.3962

> <Gold.Chemscore.ZeroCoef>
-5.4800

> <Gold.Chemscore.Hbond>
1.9288

> <Gold.Chemscore.Metal>
0.0000

> <Gold.Chemscore.Lipo>
87.0678

> <Gold.Chemscore.Internal_Hbond>
0.0000

> <Gold.Chemscore.DEClash>
0.1513

> <Gold.Chemscore.DEInternal>
3.2361

> <Gold.Chemscore.Rot>
1.4504

> <Gold.Chemscore.Internal.Correction>
   9.000000E+99

> <Gold.Chemscore.Hbonds>
donor molecule, donor type, donor heavy atom, donor atom, acceptor molecule, acceptor atom, score
      L1  H     6    28       P1  7948  0.94
      L1  H    10    50       P1  8028  0.87

> <Gold.Chemscore.Hbond.Weighted>
-6.4421

> <Gold.Chemscore.Metal.Weighted>
-0.0000

> <Gold.Chemscore.Lipo.Weighted>
-10.1869

> <Gold.Chemscore.Internal_Hbond.Weighted>
0.0000

> <Gold.Chemscore.DEClash.Weighted>
0.1513

> <Gold.Chemscore.DEInternal.Weighted>
3.2361

> <Gold.Chemscore.Rot.Weighted>
3.7129

> <Gold.Chemscore.Internal.Correction.Weighted>
   9.000000E+99

> <Gold.Protein.RotatedTorsions>
[ 6907 6896 6895 6894 ] final  118.96 input  -60.11 | X-H torsion
[ 7974 7965 7964 7962 ] final  -48.64 input  175.53 | X-H torsion
[ 8008 7997 7996 7995 ] final  -18.16 input   59.86 | X-H torsion
[ 10167 10162 10161 10158 ] final   -0.90 input  -65.29 | X-H torsion
[ 10718 10713 10712 10709 ] final  -73.16 input   66.30 | X-H torsion
[ 10763 10752 10751 10750 ] final  161.87 input  -60.55 | X-H torsion
[ 11005 11000 10999 10996 ] final -175.91 input  -57.11 | X-H torsion

> <Gold.Protein.ActiveResidues>
 VAL166  LYS551  ARG553  GLY616  TRP617  ASP618  TYR619  PRO620  LYS621  CYS622 
 ASP623  PHE694  ASN695  SER759  ASP760  ASP761  ALA762  ILE779  LEU786  VAL792 
 PHE793  MET794  SER795  GLU796  ALA797  LYS798  CYS799  TRP800  GLU811  SER814 

> <Gold.Protein.RotatedAtoms>
  152.4506  133.7621  159.6752 H   0  0  0  0  0  0  0  0  0  0  0  0  # atno 6907 bound_to 6896
  150.8417  133.7916  159.3064 H   0  0  0  0  0  0  0  0  0  0  0  0  # atno 6908 bound_to 6896
  151.5538  135.1069  160.0008 H   0  0  0  0  0  0  0  0  0  0  0  0  # atno 6909 bound_to 6896
  145.9490  140.7590  142.9514 H   0  0  0  0  0  0  0  0  0  0  0  0  # atno 7974 bound_to 7965
  154.4926  140.2123  155.9516 H   0  0  0  0  0  0  0  0  0  0  0  0  # atno 8008 bound_to 7997
  156.1326  140.3194  155.8341 H   0  0  0  0  0  0  0  0  0  0  0  0  # atno 8009 bound_to 7997
  155.4268  140.0500  157.3012 H   0  0  0  0  0  0  0  0  0  0  0  0  # atno 8010 bound_to 7997
  140.6787  143.6839  150.8083 H   0  0  0  0  0  0  0  0  0  0  0  0  # atno 10167 bound_to 10162
  156.0291  130.4388  150.2701 H   0  0  0  0  0  0  0  0  0  0  0  0  # atno 10718 bound_to 10713
  154.2696  135.2766  155.2744 H   0  0  0  0  0  0  0  0  0  0  0  0  # atno 10763 bound_to 10752
  154.5313  135.5729  153.6765 H   0  0  0  0  0  0  0  0  0  0  0  0  # atno 10764 bound_to 10752
  152.9947  135.6228  154.2850 H   0  0  0  0  0  0  0  0  0  0  0  0  # atno 10765 bound_to 10752
  140.4580  134.6281  157.4830 H   0  0  0  0  0  0  0  0  0  0  0  0  # atno 11005 bound_to 11000
  144.6792  140.2404  143.7344 LP  0  0  0  0  0  0  0  0  0  0  0  0  # atno 17320 bound_to 7965
  145.8197  139.2038  143.1945 LP  0  0  0  0  0  0  0  0  0  0  0  0  # atno 17321 bound_to 7965
  140.0536  143.5225  152.2662 LP  0  0  0  0  0  0  0  0  0  0  0  0  # atno 17342 bound_to 10162
  139.6096  144.7605  151.2983 LP  0  0  0  0  0  0  0  0  0  0  0  0  # atno 17343 bound_to 10162
  157.0804  131.0141  151.3158 LP  0  0  0  0  0  0  0  0  0  0  0  0  # atno 17370 bound_to 10713
  157.4932  130.7834  149.7528 LP  0  0  0  0  0  0  0  0  0  0  0  0  # atno 17371 bound_to 10713
  139.9964  134.6905  155.9603 LP  0  0  0  0  0  0  0  0  0  0  0  0  # atno 17394 bound_to 11000
  141.1634  133.6538  156.4397 LP  0  0  0  0  0  0  0  0  0  0  0  0  # atno 17395 bound_to 11000

$$$$
