AV-unprocessed.smi:2858|AV-procd|sdf|11002|dock3
  -GOLD-   2272015463D 1   1.00000     0.00000
 Structure written by MMmdl.
 39 40  0  0  0  0  0  0  0  0  3 V2000
  151.7431  136.5888  155.0922 O   0  0  0  0  0  0  0  0  0  0  0  0
  150.5251  136.7491  155.0569 C   0  0  0  0  0  0  0  0  0  0  0  0
  150.0129  138.1121  154.5176 C   0  0  0  0  0  0  0  0  0  0  0  0
  148.5864  138.0522  154.0846 N   0  3  2  0  0  0  0  0  0  0  0  0
  148.0583  139.3646  153.6343 C   0  0  0  0  0  0  0  0  0  0  0  0
  148.2782  140.4726  154.6772 C   0  0  0  0  0  0  0  0  0  0  0  0
  149.6776  141.1003  154.5775 C   0  0  0  0  0  0  0  0  0  0  0  0
  149.8275  142.2134  155.5074 N   0  0  0  0  0  0  0  0  0  0  0  0
  150.4884  142.1554  156.6727 C   0  0  0  0  0  0  0  0  0  0  0  0
  151.0604  141.1424  157.0767 O   0  0  0  0  0  0  0  0  0  0  0  0
  150.4297  143.3297  157.3249 N   0  0  0  0  0  0  0  0  0  0  0  0
  151.0123  143.6699  158.5748 C   0  0  0  0  0  0  0  0  0  0  0  0
  151.0733  145.0549  158.8485 C   0  0  0  0  0  0  0  0  0  0  0  0
  151.6378  145.4974  160.0604 C   0  0  0  0  0  0  0  0  0  0  0  0
  152.1278  144.5422  160.9687 C   0  0  0  0  0  0  0  0  0  0  0  0
  152.0284  143.1829  160.6193 C   0  0  0  0  0  0  0  0  0  0  0  0
  151.4872  142.7564  159.4584 N   0  0  0  0  0  0  0  0  0  0  0  0
  147.7223  137.4097  155.1083 C   0  0  0  0  0  0  0  0  0  0  0  0
  148.1397  135.9417  155.3180 C   0  0  0  0  0  0  0  0  0  0  0  0
  149.5929  135.8472  155.4958 N   0  5  0  0  0  0  0  0  0  0  0  0
  150.1326  138.8602  155.3026 H   0  0  0  0  0  0  0  0  0  0  0  0
  150.6466  138.4123  153.6834 H   0  0  0  0  0  0  0  0  0  0  0  0
  148.5713  139.6618  152.7186 H   0  0  0  0  0  0  0  0  0  0  0  0
  147.0014  139.2731  153.3799 H   0  0  0  0  0  0  0  0  0  0  0  0
  147.5328  141.2590  154.5599 H   0  0  0  0  0  0  0  0  0  0  0  0
  148.1344  140.0557  155.6751 H   0  0  0  0  0  0  0  0  0  0  0  0
  150.4495  140.3508  154.7611 H   0  0  0  0  0  0  0  0  0  0  0  0
  149.8450  141.4771  153.5681 H   0  0  0  0  0  0  0  0  0  0  0  0
  149.3867  143.0847  155.2510 H   0  0  0  0  0  0  0  0  0  0  0  0
  149.9095  144.0680  156.8748 H   0  0  0  0  0  0  0  0  0  0  0  0
  150.6924  145.7755  158.1391 H   0  0  0  0  0  0  0  0  0  0  0  0
  151.6938  146.5517  160.2879 H   0  0  0  0  0  0  0  0  0  0  0  0
  152.5687  144.8429  161.9077 H   0  0  0  0  0  0  0  0  0  0  0  0
  152.3930  142.4174  161.2882 H   0  0  0  0  0  0  0  0  0  0  0  0
  147.7897  137.9665  156.0445 H   0  0  0  0  0  0  0  0  0  0  0  0
  146.6774  137.4363  154.7973 H   0  0  0  0  0  0  0  0  0  0  0  0
  147.5967  135.5298  156.1682 H   0  0  0  0  0  0  0  0  0  0  0  0
  147.8193  135.3623  154.4517 H   0  0  0  0  0  0  0  0  0  0  0  0
  148.5543  137.4342  153.2867 H   0  0  0  0  0  0  0  0  0  0  0  0
  1  2  2  0  0  0  0
  2 20  1  0  0  0  0
  2  3  1  0  0  0  0
  3  4  1  0  0  0  0
  3 21  1  0  0  0  0
  3 22  1  0  0  0  0
  4  5  1  0  0  0  0
  4 18  1  0  0  0  0
  4 39  1  0  0  0  0
  5  6  1  0  0  0  0
  5 23  1  0  0  0  0
  5 24  1  0  0  0  0
  6  7  1  0  0  0  0
  6 25  1  0  0  0  0
  6 26  1  0  0  0  0
  7  8  1  0  0  0  0
  7 27  1  0  0  0  0
  7 28  1  0  0  0  0
  8  9  1  0  0  0  0
  8 29  1  0  0  0  0
  9 10  2  0  0  0  0
  9 11  1  0  0  0  0
 11 12  1  0  0  0  0
 11 30  1  0  0  0  0
 12 17  1  0  0  0  0
 12 13  2  0  0  0  0
 13 14  1  0  0  0  0
 13 31  1  0  0  0  0
 14 15  2  0  0  0  0
 14 32  1  0  0  0  0
 15 16  1  0  0  0  0
 15 33  1  0  0  0  0
 16 17  2  0  0  0  0
 16 34  1  0  0  0  0
 18 19  1  0  0  0  0
 18 35  1  0  0  0  0
 18 36  1  0  0  0  0
 19 20  1  0  0  0  0
 19 37  1  0  0  0  0
 19 38  1  0  0  0  0
M  CHG  1   4   1
M  CHG  1  20  -1
M  END
> <s_m_source_file>
AV-unprocessed.smi

> <i_m_source_file_index>
2858

> <i_lp_mmshare_version>
43012

> <i_f3d_flags>
0

> <s_epik_input>
Tz1DMVtDSDJdTihbQ0gyXVtDSDJdW05IXTEpW0NIMl1bQ0gyXVtDSDJdW05IXUMoPU8pW05IXWMyW2NIXVtjSF1bY0hdW2NIXW4y

> <s_epik_cmdline>
J2VwaWtfcHl0aG9uJywgJy1waCcsICc3LjAnLCAnLXRuJywgJzgnLCAnLW1hJywgJzIwMCcsICctbWV0YWxfYmluZGluZycsICctaW1hZScsICc8aW5maWxlLm1hZT4nLCAnLW9tYWUnLCAnPG91dGZpbGUubWFlPic=

> <r_epik_Ionization_Penalty>
5.09835

> <r_epik_Ionization_Penalty_Charging>
5.09831

> <r_epik_Ionization_Penalty_Neutral>
4.20822e-05

> <r_epik_State_Penalty>
5.19693

> <r_epik_Charging_Adjusted_Penalty>
10.2952

> <i_epik_Tot_Q>
0

> <i_epik_Tot_abs_Q>
2

> <r_epik_Metal_State_Penalty>
1.27693

> <b_epik_Metal_Only>
1

> <s_lp_Force_Field>
OPLS_2005

> <r_lp_Energy>
13.8629

> <b_lp_Chiralities_Consistent>
1

> <s_lp_Variant>
AV-unprocessed.smi:2858-4

> <Gold.Version>
5.8.1

> <Gold.Id.Protein>
6NUR|6NUR_protein|mol2

> <Gold.PLP.Fitness>
50.1463

> <Gold.PLP.PLP>
-35.8498

> <Gold.PLP.part.hbond>
-3.8585

> <Gold.PLP.part.metal>
0.0000

> <Gold.PLP.part.buried>
-4.8657

> <Gold.PLP.part.nonpolar>
-28.1397

> <Gold.PLP.part.repulsive>
0.4581

> <Gold.PLP.ligand.clash>
0.0000

> <Gold.PLP.ligand.torsion>
0.3741

> <Gold.PLP.Chemscore.Hbond>
5.0000

> <Gold.PLP.Chemscore.CHOScore>
0.0000

> <Gold.PLP.Chemscore.Metal>
0.0000

> <Gold.Chemscore.Hbonds>
donor molecule, donor type, donor heavy atom, donor atom, acceptor molecule, acceptor atom, score
      L1  H     4    39       P1  7948  2.00
      L1  H     8    29       P1  8028  1.00
      L1  H    11    30       P1  8028  1.00
      P1  H 10752 10765       L1     1  1.00

> <Gold.PLP.Chemscore.Internal.Correction>
0.0447

> <Gold.Rescore>
     Score         DG    S(hbond)    S(metal)    S(lipo)     H(rot)  DE(clash)    DE(int)     intcor
     19.68     -22.21       3.89        0.00      76.05       2.02       0.80       1.73       ----

> <Gold.Chemscore.Fitness>
19.6832

> <Gold.Chemscore.DG>
-22.2126

> <Gold.Chemscore.ZeroCoef>
-5.4800

> <Gold.Chemscore.Hbond>
3.8950

> <Gold.Chemscore.Metal>
0.0000

> <Gold.Chemscore.Lipo>
76.0493

> <Gold.Chemscore.Internal_Hbond>
0.0000

> <Gold.Chemscore.DEClash>
0.8018

> <Gold.Chemscore.DEInternal>
1.7276

> <Gold.Chemscore.Rot>
2.0213

> <Gold.Chemscore.Internal.Correction>
   9.000000E+99

> <Gold.Chemscore.Hbonds>
donor molecule, donor type, donor heavy atom, donor atom, acceptor molecule, acceptor atom, score
      L1  H     4    39       P1  7948  1.00
      L1  H     8    29       P1  8028  0.95
      L1  H    11    30       P1  8028  0.93
      P1  H 10752 10765       L1     1  0.99

> <Gold.Chemscore.Hbond.Weighted>
-13.0092

> <Gold.Chemscore.Metal.Weighted>
-0.0000

> <Gold.Chemscore.Lipo.Weighted>
-8.8978

> <Gold.Chemscore.Internal_Hbond.Weighted>
0.0000

> <Gold.Chemscore.DEClash.Weighted>
0.8018

> <Gold.Chemscore.DEInternal.Weighted>
1.7276

> <Gold.Chemscore.Rot.Weighted>
5.1744

> <Gold.Chemscore.Internal.Correction.Weighted>
   9.000000E+99

> <Gold.Protein.RotatedTorsions>
[ 6907 6896 6895 6894 ] final  -15.92 input  -60.11 | X-H torsion
[ 7974 7965 7964 7962 ] final  101.03 input  175.53 | X-H torsion
[ 8008 7997 7996 7995 ] final  -77.15 input   59.86 | X-H torsion
[ 10167 10162 10161 10158 ] final   36.25 input  -65.29 | X-H torsion
[ 10718 10713 10712 10709 ] final   39.06 input   66.30 | X-H torsion
[ 10763 10752 10751 10750 ] final -179.57 input  -60.55 | X-H torsion
[ 11005 11000 10999 10996 ] final   72.94 input  -57.11 | X-H torsion

> <Gold.Protein.ActiveResidues>
 VAL166  LYS551  ARG553  GLY616  TRP617  ASP618  TYR619  PRO620  LYS621  CYS622 
 ASP623  PHE694  ASN695  SER759  ASP760  ASP761  ALA762  ILE779  LEU786  VAL792 
 PHE793  MET794  SER795  GLU796  ALA797  LYS798  CYS799  TRP800  GLU811  SER814 

> <Gold.Protein.RotatedAtoms>
  151.3166  135.0808  159.9290 H   0  0  0  0  0  0  0  0  0  0  0  0  # atno 6907 bound_to 6896
  152.5266  133.9682  159.7759 H   0  0  0  0  0  0  0  0  0  0  0  0  # atno 6908 bound_to 6896
  150.9995  133.6018  159.2727 H   0  0  0  0  0  0  0  0  0  0  0  0  # atno 6909 bound_to 6896
  145.3777  139.2386  143.3420 H   0  0  0  0  0  0  0  0  0  0  0  0  # atno 7974 bound_to 7965
  154.5570  140.0715  156.8759 H   0  0  0  0  0  0  0  0  0  0  0  0  # atno 8008 bound_to 7997
  155.2883  140.3376  155.4236 H   0  0  0  0  0  0  0  0  0  0  0  0  # atno 8009 bound_to 7997
  156.2010  140.1722  156.7884 H   0  0  0  0  0  0  0  0  0  0  0  0  # atno 8010 bound_to 7997
  140.4145  144.1546  150.6142 H   0  0  0  0  0  0  0  0  0  0  0  0  # atno 10167 bound_to 10162
  157.3662  130.7676  149.7084 H   0  0  0  0  0  0  0  0  0  0  0  0  # atno 10718 bound_to 10713
  154.5334  135.2801  155.1160 H   0  0  0  0  0  0  0  0  0  0  0  0  # atno 10763 bound_to 10752
  154.2671  135.6311  153.5300 H   0  0  0  0  0  0  0  0  0  0  0  0  # atno 10764 bound_to 10752
  152.9962  135.5619  154.5854 H   0  0  0  0  0  0  0  0  0  0  0  0  # atno 10765 bound_to 10752
  139.9465  134.7304  156.0967 H   0  0  0  0  0  0  0  0  0  0  0  0  # atno 11005 bound_to 11000
  146.2856  140.4439  142.8759 LP  0  0  0  0  0  0  0  0  0  0  0  0  # atno 17320 bound_to 7965
  144.8530  140.7029  143.6156 LP  0  0  0  0  0  0  0  0  0  0  0  0  # atno 17321 bound_to 7965
  140.4601  143.2452  151.9231 LP  0  0  0  0  0  0  0  0  0  0  0  0  # atno 17342 bound_to 10162
  139.4782  144.5476  151.8435 LP  0  0  0  0  0  0  0  0  0  0  0  0  # atno 17343 bound_to 10162
  155.9746  130.4100  150.3907 LP  0  0  0  0  0  0  0  0  0  0  0  0  # atno 17370 bound_to 10713
  157.1991  131.0434  151.2660 LP  0  0  0  0  0  0  0  0  0  0  0  0  # atno 17371 bound_to 10713
  141.1117  133.6641  156.2994 LP  0  0  0  0  0  0  0  0  0  0  0  0  # atno 17394 bound_to 11000
  140.5822  134.5734  157.5482 LP  0  0  0  0  0  0  0  0  0  0  0  0  # atno 17395 bound_to 11000

$$$$
