AV-unprocessed.smi:888|AV-procd|sdf|4054|dock5
  -GOLD-   22720 1543D 1   1.00000     0.00000
 Structure written by MMmdl.
 45 46  0  0  0  0  0  0  0  0  1 V2000
  148.6856  141.6124  156.5507 C   0  0  0  0  0  0  0  0  0  0  0  0
  149.4795  141.6115  155.2385 C   0  0  0  0  0  0  0  0  0  0  0  0
  149.8261  140.2285  154.7721 C   0  0  0  0  0  0  0  0  0  0  0  0
  151.0921  139.8068  154.6580 N   0  0  0  0  0  0  0  0  0  0  0  0
  151.0174  138.5040  154.2126 N   0  0  0  0  0  0  0  0  0  0  0  0
  149.7124  138.2611  154.1131 C   0  0  0  0  0  0  0  0  0  0  0  0
  148.9118  139.2839  154.4507 N   0  0  0  0  0  0  0  0  0  0  0  0
  147.4568  139.2944  154.4599 C   0  0  0  0  0  0  0  0  0  0  0  0
  146.8497  138.9812  153.0787 C   0  0  0  0  0  0  0  0  0  0  0  0
  146.9516  137.5667  152.7191 N   0  0  0  0  0  0  0  0  0  0  0  0
  145.9919  136.6263  152.7783 C   0  0  0  0  0  0  0  0  0  0  0  0
  144.8586  136.8805  153.1809 O   0  0  0  0  0  0  0  0  0  0  0  0
  146.3815  135.4039  152.3801 N   0  0  0  0  0  0  0  0  0  0  0  0
  145.5461  134.2041  152.3806 C   0  0  2  0  0  0  0  0  0  0  0  0
  146.3446  133.0039  151.8349 C   0  0  0  0  0  0  0  0  0  0  0  0
  145.6329  132.5569  150.5610 C   0  0  0  0  0  0  0  0  0  0  0  0
  144.1822  132.9701  150.7838 C   0  0  0  0  0  0  0  0  0  0  0  0
  144.2546  134.3256  151.5114 C   0  0  0  0  0  0  0  0  0  0  0  0
  143.0090  134.5393  152.3919 C   0  0  0  0  0  0  0  0  0  0  0  0
  144.3176  135.4599  150.4593 C   0  0  0  0  0  0  0  0  0  0  0  0
  148.4754  142.6313  156.8762 H   0  0  0  0  0  0  0  0  0  0  0  0
  149.2351  141.1140  157.3487 H   0  0  0  0  0  0  0  0  0  0  0  0
  147.7315  141.0978  156.4347 H   0  0  0  0  0  0  0  0  0  0  0  0
  148.8947  142.0997  154.4583 H   0  0  0  0  0  0  0  0  0  0  0  0
  150.3778  142.2128  155.3621 H   0  0  0  0  0  0  0  0  0  0  0  0
  149.3278  137.3048  153.7900 H   0  0  0  0  0  0  0  0  0  0  0  0
  147.1289  138.5333  155.1689 H   0  0  0  0  0  0  0  0  0  0  0  0
  147.0913  140.2392  154.8591 H   0  0  0  0  0  0  0  0  0  0  0  0
  145.7954  139.2589  153.0663 H   0  0  0  0  0  0  0  0  0  0  0  0
  147.3272  139.5933  152.3118 H   0  0  0  0  0  0  0  0  0  0  0  0
  147.8633  137.2582  152.4125 H   0  0  0  0  0  0  0  0  0  0  0  0
  147.3329  135.2933  152.0610 H   0  0  0  0  0  0  0  0  0  0  0  0
  145.2793  133.9636  153.4118 H   0  0  0  0  0  0  0  0  0  0  0  0
  147.3953  133.2308  151.6479 H   0  0  0  0  0  0  0  0  0  0  0  0
  146.3202  132.1938  152.5651 H   0  0  0  0  0  0  0  0  0  0  0  0
  146.0431  133.0866  149.7004 H   0  0  0  0  0  0  0  0  0  0  0  0
  145.7403  131.4880  150.3747 H   0  0  0  0  0  0  0  0  0  0  0  0
  143.6141  133.0103  149.8537 H   0  0  0  0  0  0  0  0  0  0  0  0
  143.7009  132.2259  151.4202 H   0  0  0  0  0  0  0  0  0  0  0  0
  142.0986  134.5528  151.7920 H   0  0  0  0  0  0  0  0  0  0  0  0
  143.0641  135.4860  152.9301 H   0  0  0  0  0  0  0  0  0  0  0  0
  142.9011  133.7472  153.1337 H   0  0  0  0  0  0  0  0  0  0  0  0
  143.4438  135.4395  149.8071 H   0  0  0  0  0  0  0  0  0  0  0  0
  145.1994  135.3769  149.8235 H   0  0  0  0  0  0  0  0  0  0  0  0
  144.3386  136.4443  150.9280 H   0  0  0  0  0  0  0  0  0  0  0  0
  1  2  1  0  0  0  0
  1 21  1  0  0  0  0
  1 22  1  0  0  0  0
  1 23  1  0  0  0  0
  2  3  1  0  0  0  0
  2 24  1  0  0  0  0
  2 25  1  0  0  0  0
  3  7  1  0  0  0  0
  3  4  2  0  0  0  0
  4  5  1  0  0  0  0
  5  6  2  0  0  0  0
  6  7  1  0  0  0  0
  6 26  1  0  0  0  0
  7  8  1  0  0  0  0
  8  9  1  0  0  0  0
  8 27  1  0  0  0  0
  8 28  1  0  0  0  0
  9 10  1  0  0  0  0
  9 29  1  0  0  0  0
  9 30  1  0  0  0  0
 10 11  1  0  0  0  0
 10 31  1  0  0  0  0
 11 12  2  0  0  0  0
 11 13  1  0  0  0  0
 13 14  1  0  0  0  0
 13 32  1  0  0  0  0
 14 18  1  0  0  0  0
 14 15  1  0  0  0  0
 14 33  1  0  0  0  0
 15 16  1  0  0  0  0
 15 34  1  0  0  0  0
 15 35  1  0  0  0  0
 16 17  1  0  0  0  0
 16 36  1  0  0  0  0
 16 37  1  0  0  0  0
 17 18  1  0  0  0  0
 17 38  1  0  0  0  0
 17 39  1  0  0  0  0
 18 19  1  0  0  0  0
 18 20  1  0  0  0  0
 19 40  1  0  0  0  0
 19 41  1  0  0  0  0
 19 42  1  0  0  0  0
 20 43  1  0  0  0  0
 20 44  1  0  0  0  0
 20 45  1  0  0  0  0
M  END
> <s_m_source_file>
AV-unprocessed.smi

> <i_m_source_file_index>
888

> <i_lp_mmshare_version>
43012

> <i_f3d_flags>
0

> <s_epik_input>
W0NIM11bQ0gyXWMxbm5bY0hdbjFbQ0gyXVtDSDJdW05IXUMoPU8pW05IXVtDQEBIXShDMihbQ0gzXSlbQ0gzXSlbQ0gyXVtDSDJdW0NIMl0y

> <s_epik_cmdline>
J2VwaWtfcHl0aG9uJywgJy1waCcsICc3LjAnLCAnLXRuJywgJzgnLCAnLW1hJywgJzIwMCcsICctbWV0YWxfYmluZGluZycsICctaW1hZScsICc8aW5maWxlLm1hZT4nLCAnLW9tYWUnLCAnPG91dGZpbGUubWFlPic=

> <r_lp_tautomer_probability>
1

> <r_epik_Ionization_Penalty>
0.000379534

> <r_epik_Ionization_Penalty_Charging>
0

> <r_epik_Ionization_Penalty_Neutral>
0.000379534

> <r_epik_State_Penalty>
-0

> <r_epik_Charging_Adjusted_Penalty>
0

> <i_epik_Tot_Q>
0

> <i_epik_Tot_abs_Q>
0

> <r_epik_Metal_State_Penalty>
-0

> <b_epik_Metal_Only>
0

> <s_lp_Force_Field>
OPLS_2005

> <r_lp_Energy>
31.9266

> <b_lp_Chiralities_Consistent>
1

> <s_lp_Variant>
AV-unprocessed.smi:888-1

> <Gold.Version>
5.8.1

> <Gold.Id.Protein>
6NUR|6NUR_protein|mol2

> <Gold.PLP.Fitness>
43.6420

> <Gold.PLP.PLP>
-32.4179

> <Gold.PLP.part.hbond>
-2.9409

> <Gold.PLP.part.metal>
0.0000

> <Gold.PLP.part.buried>
-1.4436

> <Gold.PLP.part.nonpolar>
-27.9550

> <Gold.PLP.part.repulsive>
0.4920

> <Gold.PLP.ligand.clash>
0.0000

> <Gold.PLP.ligand.torsion>
0.1873

> <Gold.PLP.Chemscore.Hbond>
2.8640

> <Gold.PLP.Chemscore.CHOScore>
1.0000

> <Gold.PLP.Chemscore.Metal>
0.0000

> <Gold.Chemscore.Hbonds>
donor molecule, donor type, donor heavy atom, donor atom, acceptor molecule, acceptor atom, score
      L1  H    10    31       P1  7948  1.00
      L1  H    13    32       P1  7948  0.88
      P1  H  7989  7998       L1     4  1.00
      L1  C     6    26       P1  7948  1.00

> <Gold.PLP.Chemscore.Internal.Correction>
0.0067

> <Gold.Rescore>
     Score         DG    S(hbond)    S(metal)    S(lipo)     H(rot)  DE(clash)    DE(int)     intcor
     15.35     -15.99       2.47        0.00      63.77       2.03       0.40       0.24       ----

> <Gold.Chemscore.Fitness>
15.3509

> <Gold.Chemscore.DG>
-15.9938

> <Gold.Chemscore.ZeroCoef>
-5.4800

> <Gold.Chemscore.Hbond>
2.4692

> <Gold.Chemscore.Metal>
0.0000

> <Gold.Chemscore.Lipo>
63.7744

> <Gold.Chemscore.Internal_Hbond>
0.0000

> <Gold.Chemscore.DEClash>
0.4014

> <Gold.Chemscore.DEInternal>
0.2415

> <Gold.Chemscore.Rot>
2.0293

> <Gold.Chemscore.Internal.Correction>
   9.000000E+99

> <Gold.Chemscore.Hbonds>
donor molecule, donor type, donor heavy atom, donor atom, acceptor molecule, acceptor atom, score
      L1  H    10    31       P1  7948  0.97
      L1  H    13    32       P1  7948  0.86
      P1  H  7989  7998       L1     4  0.22

> <Gold.Chemscore.Hbond.Weighted>
-8.2472

> <Gold.Chemscore.Metal.Weighted>
-0.0000

> <Gold.Chemscore.Lipo.Weighted>
-7.4616

> <Gold.Chemscore.Internal_Hbond.Weighted>
0.0000

> <Gold.Chemscore.DEClash.Weighted>
0.4014

> <Gold.Chemscore.DEInternal.Weighted>
0.2415

> <Gold.Chemscore.Rot.Weighted>
5.1950

> <Gold.Chemscore.Internal.Correction.Weighted>
   9.000000E+99

> <Gold.Protein.RotatedTorsions>
[ 6907 6896 6895 6894 ] final   74.90 input  -60.11 | X-H torsion
[ 7974 7965 7964 7962 ] final   31.52 input  175.53 | X-H torsion
[ 8008 7997 7996 7995 ] final  139.74 input   59.86 | X-H torsion
[ 10167 10162 10161 10158 ] final  138.16 input  -65.29 | X-H torsion
[ 10718 10713 10712 10709 ] final   55.72 input   66.30 | X-H torsion
[ 10763 10752 10751 10750 ] final  108.38 input  -60.55 | X-H torsion
[ 11005 11000 10999 10996 ] final -116.53 input  -57.11 | X-H torsion

> <Gold.Protein.ActiveResidues>
 VAL166  LYS551  ARG553  GLY616  TRP617  ASP618  TYR619  PRO620  LYS621  CYS622 
 ASP623  PHE694  ASN695  SER759  ASP760  ASP761  ALA762  ILE779  LEU786  VAL792 
 PHE793  MET794  SER795  GLU796  ALA797  LYS798  CYS799  TRP800  GLU811  SER814 

> <Gold.Protein.RotatedAtoms>
  152.4999  134.4201  159.9477 H   0  0  0  0  0  0  0  0  0  0  0  0  # atno 6907 bound_to 6896
  151.4173  133.3703  159.2759 H   0  0  0  0  0  0  0  0  0  0  0  0  # atno 6908 bound_to 6896
  150.9248  134.8687  159.7572 H   0  0  0  0  0  0  0  0  0  0  0  0  # atno 6909 bound_to 6896
  146.1545  139.6646  142.9076 H   0  0  0  0  0  0  0  0  0  0  0  0  # atno 7974 bound_to 7965
  156.2987  140.2359  156.4287 H   0  0  0  0  0  0  0  0  0  0  0  0  # atno 8008 bound_to 7997
  154.8290  140.0434  157.1484 H   0  0  0  0  0  0  0  0  0  0  0  0  # atno 8009 bound_to 7997
  154.9229  140.3006  155.5210 H   0  0  0  0  0  0  0  0  0  0  0  0  # atno 8010 bound_to 7997
  139.5120  144.6369  151.5672 H   0  0  0  0  0  0  0  0  0  0  0  0  # atno 10167 bound_to 10162
  157.5369  130.8670  149.8766 H   0  0  0  0  0  0  0  0  0  0  0  0  # atno 10718 bound_to 10713
  153.4198  135.3814  155.2104 H   0  0  0  0  0  0  0  0  0  0  0  0  # atno 10763 bound_to 10752
  154.8744  135.3814  154.4397 H   0  0  0  0  0  0  0  0  0  0  0  0  # atno 10764 bound_to 10752
  153.4916  135.7088  153.5943 H   0  0  0  0  0  0  0  0  0  0  0  0  # atno 10765 bound_to 10752
  141.0416  133.9827  157.2986 H   0  0  0  0  0  0  0  0  0  0  0  0  # atno 11005 bound_to 11000
  145.4743  141.0437  143.2681 LP  0  0  0  0  0  0  0  0  0  0  0  0  # atno 17320 bound_to 7965
  144.7945  139.6261  143.7098 LP  0  0  0  0  0  0  0  0  0  0  0  0  # atno 17321 bound_to 7965
  140.6122  143.9416  150.6461 LP  0  0  0  0  0  0  0  0  0  0  0  0  # atno 17342 bound_to 10162
  140.2662  143.3488  152.1279 LP  0  0  0  0  0  0  0  0  0  0  0  0  # atno 17343 bound_to 10162
  156.0466  130.3726  150.1303 LP  0  0  0  0  0  0  0  0  0  0  0  0  # atno 17370 bound_to 10713
  156.9485  130.9767  151.3503 LP  0  0  0  0  0  0  0  0  0  0  0  0  # atno 17371 bound_to 10713
  139.9280  135.0201  156.8301 LP  0  0  0  0  0  0  0  0  0  0  0  0  # atno 17394 bound_to 11000
  140.6224  133.9981  155.7624 LP  0  0  0  0  0  0  0  0  0  0  0  0  # atno 17395 bound_to 11000

$$$$
