AV-unprocessed.smi:2521|AV-procd|sdf|9918|dock1
  -GOLD-   2272013553D 1   1.00000     0.00000
 Structure written by MMmdl.
 35 36  0  0  0  0  0  0  0  0  2 V2000
  146.0196  134.3308  162.4741 C   0  0  0  0  0  0  0  0  0  0  0  0
  145.9422  135.8363  162.1817 C   0  0  0  0  0  0  0  0  0  0  0  0
  144.5417  136.2959  161.7508 C   0  0  0  0  0  0  0  0  0  0  0  0
  147.0014  136.2796  161.2216 C   0  0  0  0  0  0  0  0  0  0  0  0
  147.1136  137.5387  160.7873 N   0  0  0  0  0  0  0  0  0  0  0  0
  148.1727  137.6976  159.9061 N   0  0  0  0  0  0  0  0  0  0  0  0
  148.8414  136.5589  159.6772 C   0  0  0  0  0  0  0  0  0  0  0  0
  149.9029  136.4988  158.8564 N   0  5  0  0  0  0  0  0  0  0  0  0
  150.7700  137.5351  158.7956 C   0  0  0  0  0  0  0  0  0  0  0  0
  151.9478  137.5258  159.1607 O   0  0  0  0  0  0  0  0  0  0  0  0
  150.2398  138.6533  158.2831 N   0  0  0  0  0  0  0  0  0  0  0  0
  150.9482  139.9148  158.1073 C   0  0  0  0  0  0  0  0  0  0  0  0
  151.4340  140.0762  156.6578 C   0  0  1  0  0  0  0  0  0  0  0  0
  152.0415  138.8205  156.0682 C   0  0  0  0  0  0  0  0  0  0  0  0
  151.9881  139.1207  154.5738 C   0  0  0  0  0  0  0  0  0  0  0  0
  150.8276  139.9244  154.3822 O   0  0  0  0  0  0  0  0  0  0  0  0
  150.3316  140.3763  155.6398 C   0  0  0  0  0  0  0  0  0  0  0  0
  148.2071  135.1793  160.5731 S   0  0  0  0  0  0  0  0  0  0  0  0
  147.0022  134.0568  162.8594 H   0  0  0  0  0  0  0  0  0  0  0  0
  145.8388  133.7420  161.5743 H   0  0  0  0  0  0  0  0  0  0  0  0
  145.2792  134.0364  163.2182 H   0  0  0  0  0  0  0  0  0  0  0  0
  146.1526  136.3418  163.1250 H   0  0  0  0  0  0  0  0  0  0  0  0
  144.5034  137.3795  161.6348 H   0  0  0  0  0  0  0  0  0  0  0  0
  143.7914  136.0161  162.4906 H   0  0  0  0  0  0  0  0  0  0  0  0
  144.2529  135.8490  160.7990 H   0  0  0  0  0  0  0  0  0  0  0  0
  149.2734  138.6224  157.9936 H   0  0  0  0  0  0  0  0  0  0  0  0
  150.2841  140.7410  158.3660 H   0  0  0  0  0  0  0  0  0  0  0  0
  151.7915  139.9523  158.7985 H   0  0  0  0  0  0  0  0  0  0  0  0
  152.1789  140.8727  156.6123 H   0  0  0  0  0  0  0  0  0  0  0  0
  153.0526  138.6243  156.4261 H   0  0  0  0  0  0  0  0  0  0  0  0
  151.4220  137.9521  156.2975 H   0  0  0  0  0  0  0  0  0  0  0  0
  152.8632  139.6971  154.2706 H   0  0  0  0  0  0  0  0  0  0  0  0
  151.9520  138.2156  153.9674 H   0  0  0  0  0  0  0  0  0  0  0  0
  149.4267  139.8139  155.8734 H   0  0  0  0  0  0  0  0  0  0  0  0
  150.0711  141.4344  155.6067 H   0  0  0  0  0  0  0  0  0  0  0  0
  1  2  1  0  0  0  0
  1 19  1  0  0  0  0
  1 20  1  0  0  0  0
  1 21  1  0  0  0  0
  2  3  1  0  0  0  0
  2  4  1  0  0  0  0
  2 22  1  0  0  0  0
  3 23  1  0  0  0  0
  3 24  1  0  0  0  0
  3 25  1  0  0  0  0
  4 18  1  0  0  0  0
  4  5  2  0  0  0  0
  5  6  1  0  0  0  0
  6  7  2  0  0  0  0
  7  8  1  0  0  0  0
  7 18  1  0  0  0  0
  8  9  1  0  0  0  0
  9 10  2  0  0  0  0
  9 11  1  0  0  0  0
 11 12  1  0  0  0  0
 11 26  1  0  0  0  0
 12 13  1  0  0  0  0
 12 27  1  0  0  0  0
 12 28  1  0  0  0  0
 13 17  1  0  0  0  0
 13 14  1  0  0  0  0
 13 29  1  0  0  0  0
 14 15  1  0  0  0  0
 14 30  1  0  0  0  0
 14 31  1  0  0  0  0
 15 16  1  0  0  0  0
 15 32  1  0  0  0  0
 15 33  1  0  0  0  0
 16 17  1  0  0  0  0
 17 34  1  0  0  0  0
 17 35  1  0  0  0  0
M  CHG  1   8  -1
M  END
> <s_m_source_file>
AV-unprocessed.smi

> <i_m_source_file_index>
2521

> <i_lp_mmshare_version>
43012

> <i_f3d_flags>
0

> <s_epik_input>
W0NIM11bQ0hdKFtDSDNdKWMxbm5jKHMxKVtOSF1DKD1PKVtOSF1bQ0gyXVtDQEBIXTJbQ0gyXVtDSDJdT1tDSDJdMg==

> <s_epik_cmdline>
J2VwaWtfcHl0aG9uJywgJy1waCcsICc3LjAnLCAnLXRuJywgJzgnLCAnLW1hJywgJzIwMCcsICctbWV0YWxfYmluZGluZycsICctaW1hZScsICc8aW5maWxlLm1hZT4nLCAnLW9tYWUnLCAnPG91dGZpbGUubWFlPic=

> <r_lp_tautomer_probability>
1

> <r_epik_Ionization_Penalty>
4.4451

> <r_epik_Ionization_Penalty_Charging>
4.28522

> <r_epik_Ionization_Penalty_Neutral>
0.159875

> <r_epik_State_Penalty>
4.28479

> <r_epik_Charging_Adjusted_Penalty>
8.57002

> <i_epik_Tot_Q>
-1

> <i_epik_Tot_abs_Q>
1

> <r_epik_Metal_State_Penalty>
0.721771

> <b_epik_Metal_Only>
1

> <s_lp_Force_Field>
OPLS_2005

> <r_lp_Energy>
10.1938

> <b_lp_Chiralities_Consistent>
1

> <s_lp_Variant>
AV-unprocessed.smi:2521-4

> <Gold.Version>
5.8.1

> <Gold.Id.Protein>
6NUR|6NUR_protein|mol2

> <Gold.PLP.Fitness>
37.9751

> <Gold.PLP.PLP>
-29.8752

> <Gold.PLP.part.hbond>
-6.5140

> <Gold.PLP.part.metal>
0.0000

> <Gold.PLP.part.buried>
-2.3898

> <Gold.PLP.part.nonpolar>
-20.9080

> <Gold.PLP.part.repulsive>
0.2384

> <Gold.PLP.ligand.clash>
0.0000

> <Gold.PLP.ligand.torsion>
1.2573

> <Gold.PLP.Chemscore.Hbond>
3.5000

> <Gold.PLP.Chemscore.CHOScore>
0.0000

> <Gold.PLP.Chemscore.Metal>
0.0000

> <Gold.Chemscore.Hbonds>
donor molecule, donor type, donor heavy atom, donor atom, acceptor molecule, acceptor atom, score
      P1  H  6896  6907       L1     8  1.79
      P1  H  6934  6947       L1     5  0.22
      P1  H  7989  7998       L1    16  0.49

> <Gold.PLP.Chemscore.Internal.Correction>
0.1145

> <Gold.Rescore>
     Score         DG    S(hbond)    S(metal)    S(lipo)     H(rot)  DE(clash)    DE(int)     intcor
     13.04     -14.38       1.78        0.00      56.30       1.42       0.00       1.34       ----

> <Gold.Chemscore.Fitness>
13.0351

> <Gold.Chemscore.DG>
-14.3766

> <Gold.Chemscore.ZeroCoef>
-5.4800

> <Gold.Chemscore.Hbond>
1.7794

> <Gold.Chemscore.Metal>
0.0000

> <Gold.Chemscore.Lipo>
56.2980

> <Gold.Chemscore.Internal_Hbond>
0.0000

> <Gold.Chemscore.DEClash>
0.0000

> <Gold.Chemscore.DEInternal>
1.3415

> <Gold.Chemscore.Rot>
1.4193

> <Gold.Chemscore.Internal.Correction>
   9.000000E+99

> <Gold.Chemscore.Hbonds>
donor molecule, donor type, donor heavy atom, donor atom, acceptor molecule, acceptor atom, score
      P1  H  6896  6907       L1     8  0.12
      P1  H  7989  7998       L1    16  0.02

> <Gold.Chemscore.Hbond.Weighted>
-5.9431

> <Gold.Chemscore.Metal.Weighted>
-0.0000

> <Gold.Chemscore.Lipo.Weighted>
-6.5869

> <Gold.Chemscore.Internal_Hbond.Weighted>
0.0000

> <Gold.Chemscore.DEClash.Weighted>
0.0000

> <Gold.Chemscore.DEInternal.Weighted>
1.3415

> <Gold.Chemscore.Rot.Weighted>
3.6333

> <Gold.Chemscore.Internal.Correction.Weighted>
   9.000000E+99

> <Gold.Protein.RotatedTorsions>
[ 6907 6896 6895 6894 ] final  -43.29 input  -60.11 | X-H torsion
[ 7974 7965 7964 7962 ] final   49.04 input  175.53 | X-H torsion
[ 8008 7997 7996 7995 ] final   37.88 input   59.86 | X-H torsion
[ 10167 10162 10161 10158 ] final  -48.53 input  -65.29 | X-H torsion
[ 10718 10713 10712 10709 ] final -133.92 input   66.30 | X-H torsion
[ 10763 10752 10751 10750 ] final -110.34 input  -60.55 | X-H torsion
[ 11005 11000 10999 10996 ] final -155.62 input  -57.11 | X-H torsion

> <Gold.Protein.ActiveResidues>
 VAL166  LYS551  ARG553  GLY616  TRP617  ASP618  TYR619  PRO620  LYS621  CYS622 
 ASP623  PHE694  ASN695  SER759  ASP760  ASP761  ALA762  ILE779  LEU786  VAL792 
 PHE793  MET794  SER795  GLU796  ALA797  LYS798  CYS799  TRP800  GLU811  SER814 

> <Gold.Protein.RotatedAtoms>
  150.9456  134.8861  159.7639 H   0  0  0  0  0  0  0  0  0  0  0  0  # atno 6907 bound_to 6896
  152.5098  134.3879  159.9384 H   0  0  0  0  0  0  0  0  0  0  0  0  # atno 6908 bound_to 6896
  151.3898  133.3752  159.2754 H   0  0  0  0  0  0  0  0  0  0  0  0  # atno 6909 bound_to 6896
  146.0147  139.4583  142.9934 H   0  0  0  0  0  0  0  0  0  0  0  0  # atno 7974 bound_to 7965
  155.2111  140.3323  155.4329 H   0  0  0  0  0  0  0  0  0  0  0  0  # atno 8008 bound_to 7997
  156.2370  140.1877  156.7141 H   0  0  0  0  0  0  0  0  0  0  0  0  # atno 8009 bound_to 7997
  154.6077  140.0613  156.9439 H   0  0  0  0  0  0  0  0  0  0  0  0  # atno 8010 bound_to 7997
  140.6727  143.2736  151.4084 H   0  0  0  0  0  0  0  0  0  0  0  0  # atno 10167 bound_to 10162
  156.2500  130.7147  151.1043 H   0  0  0  0  0  0  0  0  0  0  0  0  # atno 10718 bound_to 10713
  154.8242  135.4568  154.0870 H   0  0  0  0  0  0  0  0  0  0  0  0  # atno 10763 bound_to 10752
  153.2197  135.6892  153.8021 H   0  0  0  0  0  0  0  0  0  0  0  0  # atno 10764 bound_to 10752
  153.7442  135.3308  155.3286 H   0  0  0  0  0  0  0  0  0  0  0  0  # atno 10765 bound_to 10752
  140.6845  134.4109  157.5224 H   0  0  0  0  0  0  0  0  0  0  0  0  # atno 11005 bound_to 11000
  145.7287  141.0050  143.1363 LP  0  0  0  0  0  0  0  0  0  0  0  0  # atno 17320 bound_to 7965
  144.6966  139.8958  143.7456 LP  0  0  0  0  0  0  0  0  0  0  0  0  # atno 17321 bound_to 7965
  139.6003  144.1311  152.2190 LP  0  0  0  0  0  0  0  0  0  0  0  0  # atno 17342 bound_to 10162
  140.0692  144.5793  150.7204 LP  0  0  0  0  0  0  0  0  0  0  0  0  # atno 17343 bound_to 10162
  157.7210  131.0681  150.6133 LP  0  0  0  0  0  0  0  0  0  0  0  0  # atno 17370 bound_to 10713
  156.6212  130.4406  149.5821 LP  0  0  0  0  0  0  0  0  0  0  0  0  # atno 17371 bound_to 10713
  139.8942  134.8713  156.2189 LP  0  0  0  0  0  0  0  0  0  0  0  0  # atno 17394 bound_to 11000
  141.0291  133.6998  156.1399 LP  0  0  0  0  0  0  0  0  0  0  0  0  # atno 17395 bound_to 11000

$$$$
