AV-unprocessed.smi:101|AV-procd|sdf|933|dock9
  -GOLD-   2262017453D 1   1.00000     0.00000
 Structure written by MMmdl.
 43 45  0  0  0  0  0  0  0  0  2 V2000
  148.4704  135.1010  156.7991 C   0  0  0  0  0  0  0  0  0  0  0  0
  149.6252  135.9153  156.2420 C   0  0  0  0  0  0  0  0  0  0  0  0
  149.4363  137.0868  155.5945 C   0  0  0  0  0  0  0  0  0  0  0  0
  150.4915  137.8257  155.0823 N   0  0  0  0  0  0  0  0  0  0  0  0
  150.2790  139.1556  154.3744 C   0  0  2  0  0  0  0  0  0  0  0  0
  151.1111  140.1334  154.9236 O   0  0  0  0  0  0  0  0  0  0  0  0
  150.4059  140.8516  155.9263 C   0  0  1  0  0  0  0  0  0  0  0  0
  151.0872  142.2056  156.1600 C   0  0  0  0  0  0  0  0  0  0  0  0
  151.3316  142.3772  157.5466 O   0  0  0  0  0  0  0  0  0  0  0  0
  152.1715  141.5481  158.1950 C   0  0  0  0  0  0  0  0  0  0  0  0
  152.6154  140.5070  157.7064 O   0  0  0  0  0  0  0  0  0  0  0  0
  152.5072  142.0229  159.5685 C   0  0  0  0  0  0  0  0  0  0  0  0
  153.4040  141.2704  160.3625 C   0  0  0  0  0  0  0  0  0  0  0  0
  153.7366  141.6925  161.6644 C   0  0  0  0  0  0  0  0  0  0  0  0
  153.1767  142.8720  162.1886 C   0  0  0  0  0  0  0  0  0  0  0  0
  152.2845  143.6303  161.4082 C   0  0  0  0  0  0  0  0  0  0  0  0
  151.9512  143.2106  160.1055 C   0  0  0  0  0  0  0  0  0  0  0  0
  148.9874  140.9482  155.3612 C   0  0  2  0  0  0  0  0  0  0  0  0
  148.0433  140.9900  156.4131 O   0  0  0  0  0  0  0  0  0  0  0  0
  148.8288  139.6631  154.5488 C   0  0  1  0  0  0  0  0  0  0  0  0
  148.2277  139.9519  153.3027 O   0  0  0  0  0  0  0  0  0  0  0  0
  151.8214  137.3729  155.2942 C   0  0  0  0  0  0  0  0  0  0  0  0
  152.7436  138.0787  154.8858 O   0  0  0  0  0  0  0  0  0  0  0  0
  152.0215  136.1879  155.9375 N   0  5  0  0  0  0  0  0  0  0  0  0
  150.9973  135.4246  156.4138 C   0  0  0  0  0  0  0  0  0  0  0  0
  151.1912  134.3497  156.9808 O   0  0  0  0  0  0  0  0  0  0  0  0
  147.5136  135.5904  156.6148 H   0  0  0  0  0  0  0  0  0  0  0  0
  148.5807  134.9696  157.8760 H   0  0  0  0  0  0  0  0  0  0  0  0
  148.4413  134.1160  156.3326 H   0  0  0  0  0  0  0  0  0  0  0  0
  148.4246  137.4454  155.4897 H   0  0  0  0  0  0  0  0  0  0  0  0
  150.5702  138.9647  153.3399 H   0  0  0  0  0  0  0  0  0  0  0  0
  150.4108  140.2633  156.8453 H   0  0  0  0  0  0  0  0  0  0  0  0
  152.0373  142.2420  155.6258 H   0  0  0  0  0  0  0  0  0  0  0  0
  150.4636  143.0136  155.7745 H   0  0  0  0  0  0  0  0  0  0  0  0
  153.8458  140.3607  159.9821 H   0  0  0  0  0  0  0  0  0  0  0  0
  154.4222  141.1095  162.2616 H   0  0  0  0  0  0  0  0  0  0  0  0
  153.4311  143.1944  163.1874 H   0  0  0  0  0  0  0  0  0  0  0  0
  151.8546  144.5365  161.8089 H   0  0  0  0  0  0  0  0  0  0  0  0
  151.2638  143.8167  159.5334 H   0  0  0  0  0  0  0  0  0  0  0  0
  148.8894  141.8316  154.7279 H   0  0  0  0  0  0  0  0  0  0  0  0
  147.5552  140.1808  156.4064 H   0  0  0  0  0  0  0  0  0  0  0  0
  148.2300  138.9219  155.0811 H   0  0  0  0  0  0  0  0  0  0  0  0
  148.8754  139.8367  152.6246 H   0  0  0  0  0  0  0  0  0  0  0  0
  1  2  1  0  0  0  0
  1 27  1  0  0  0  0
  1 28  1  0  0  0  0
  1 29  1  0  0  0  0
  2 25  1  0  0  0  0
  2  3  2  0  0  0  0
  3  4  1  0  0  0  0
  3 30  1  0  0  0  0
  4  5  1  0  0  0  0
  4 22  1  0  0  0  0
  5 20  1  0  0  0  0
  5  6  1  0  0  0  0
  5 31  1  0  0  0  0
  6  7  1  0  0  0  0
  7  8  1  0  0  0  0
  7 18  1  0  0  0  0
  7 32  1  0  0  0  0
  8  9  1  0  0  0  0
  8 33  1  0  0  0  0
  8 34  1  0  0  0  0
  9 10  1  0  0  0  0
 10 11  2  0  0  0  0
 10 12  1  0  0  0  0
 12 17  1  0  0  0  0
 12 13  2  0  0  0  0
 13 14  1  0  0  0  0
 13 35  1  0  0  0  0
 14 15  2  0  0  0  0
 14 36  1  0  0  0  0
 15 16  1  0  0  0  0
 15 37  1  0  0  0  0
 16 17  2  0  0  0  0
 16 38  1  0  0  0  0
 17 39  1  0  0  0  0
 18 19  1  0  0  0  0
 18 20  1  0  0  0  0
 18 40  1  0  0  0  0
 19 41  1  0  0  0  0
 20 21  1  0  0  0  0
 20 42  1  0  0  0  0
 21 43  1  0  0  0  0
 22 23  2  0  0  0  0
 22 24  1  0  0  0  0
 24 25  1  0  0  0  0
 25 26  2  0  0  0  0
M  CHG  1  24  -1
M  END
> <s_m_source_file>
AV-unprocessed.smi

> <i_m_source_file_index>
101

> <i_lp_mmshare_version>
43012

> <i_f3d_flags>
0

> <s_epik_input>
Tz1jMVtuSF1jKD1PKW4oW2NIXWMxW0NIM10pW0NAQEhdMk9bQ0BIXShbQ0BASF0oW09IXSlbQ0BIXTJbT0hdKVtDSDJdT0MoPU8pYzNbY0hdW2NIXVtjSF1bY0hdW2NIXTM=

> <s_epik_cmdline>
J2VwaWtfcHl0aG9uJywgJy1waCcsICc3LjAnLCAnLXRuJywgJzgnLCAnLW1hJywgJzIwMCcsICctbWV0YWxfYmluZGluZycsICctaW1hZScsICc8aW5maWxlLm1hZT4nLCAnLW9tYWUnLCAnPG91dGZpbGUubWFlPic=

> <r_lp_tautomer_probability>
0.999537

> <r_epik_Ionization_Penalty>
3.21006

> <r_epik_Ionization_Penalty_Charging>
5.75142e-08

> <r_epik_Ionization_Penalty_Neutral>
3.21006

> <r_epik_State_Penalty>
3.20925

> <r_epik_Charging_Adjusted_Penalty>
3.20925

> <i_epik_Tot_Q>
-1

> <i_epik_Tot_abs_Q>
1

> <r_epik_Metal_State_Penalty>
0.119957

> <b_epik_Metal_Only>
1

> <s_epik_Chemistry_Notes>
This compound has an ester and may undergo hydrolysis at high or low pH. This compound contains an acetal/aminal-like group ( X-CH(R)-Y where X, Y are N, S, or O) that may be acid/base labile, releasing an aldehyde.

> <s_lp_Force_Field>
OPLS_2005

> <r_lp_Energy>
40.7876

> <b_lp_Chiralities_Consistent>
1

> <s_lp_Variant>
AV-unprocessed.smi:101-21

> <Gold.Version>
5.8.1

> <Gold.Id.Protein>
6NUR|6NUR_protein|mol2

> <Gold.PLP.Fitness>
59.2670

> <Gold.PLP.PLP>
-47.3464

> <Gold.PLP.part.hbond>
-5.6338

> <Gold.PLP.part.metal>
0.0000

> <Gold.PLP.part.buried>
-6.9241

> <Gold.PLP.part.nonpolar>
-34.1974

> <Gold.PLP.part.repulsive>
0.1771

> <Gold.PLP.ligand.clash>
0.0000

> <Gold.PLP.ligand.torsion>
1.0937

> <Gold.PLP.Chemscore.Hbond>
4.6780

> <Gold.PLP.Chemscore.CHOScore>
0.0000

> <Gold.PLP.Chemscore.Metal>
0.0000

> <Gold.Chemscore.Hbonds>
donor molecule, donor type, donor heavy atom, donor atom, acceptor molecule, acceptor atom, score
      L1  H    21    43       P1  7957  1.00
      P1  H  6896  6908       L1    26  0.08
      P1  H  7989  7998       L1     6  0.95
      P1  H  7997  8010       L1    11  0.76
      P1  H 10752 10763       L1    24  2.00

> <Gold.PLP.Chemscore.Internal.Correction>
0.0741

> <Gold.Rescore>
     Score         DG    S(hbond)    S(metal)    S(lipo)     H(rot)  DE(clash)    DE(int)     intcor
     13.60     -17.78       2.77        0.00      97.63       3.27       0.21       3.97       ----

> <Gold.Chemscore.Fitness>
13.6032

> <Gold.Chemscore.DG>
-17.7807

> <Gold.Chemscore.ZeroCoef>
-5.4800

> <Gold.Chemscore.Hbond>
2.7659

> <Gold.Chemscore.Metal>
0.0000

> <Gold.Chemscore.Lipo>
97.6262

> <Gold.Chemscore.Internal_Hbond>
0.0000

> <Gold.Chemscore.DEClash>
0.2075

> <Gold.Chemscore.DEInternal>
3.9700

> <Gold.Chemscore.Rot>
3.2656

> <Gold.Chemscore.Internal.Correction>
   9.000000E+99

> <Gold.Chemscore.Hbonds>
donor molecule, donor type, donor heavy atom, donor atom, acceptor molecule, acceptor atom, score
      L1  H    21    43       P1  7957  0.99
      P1  H  6896  6908       L1    26  0.08
      P1  H  7989  7998       L1     6  0.21
      P1  H  7997  8010       L1    11  0.71
      P1  H 10752 10763       L1    24  0.24

> <Gold.Chemscore.Hbond.Weighted>
-9.2382

> <Gold.Chemscore.Metal.Weighted>
-0.0000

> <Gold.Chemscore.Lipo.Weighted>
-11.4223

> <Gold.Chemscore.Internal_Hbond.Weighted>
0.0000

> <Gold.Chemscore.DEClash.Weighted>
0.2075

> <Gold.Chemscore.DEInternal.Weighted>
3.9700

> <Gold.Chemscore.Rot.Weighted>
8.3598

> <Gold.Chemscore.Internal.Correction.Weighted>
   9.000000E+99

> <Gold.Protein.RotatedTorsions>
[ 6907 6896 6895 6894 ] final  109.14 input  -60.11 | X-H torsion
[ 7974 7965 7964 7962 ] final   37.93 input  175.53 | X-H torsion
[ 8008 7997 7996 7995 ] final   49.68 input   59.86 | X-H torsion
[ 10167 10162 10161 10158 ] final -149.14 input  -65.29 | X-H torsion
[ 10718 10713 10712 10709 ] final  -20.92 input   66.30 | X-H torsion
[ 10763 10752 10751 10750 ] final   82.38 input  -60.55 | X-H torsion
[ 11005 11000 10999 10996 ] final   95.27 input  -57.11 | X-H torsion

> <Gold.Protein.ActiveResidues>
 VAL166  LYS551  ARG553  GLY616  TRP617  ASP618  TYR619  PRO620  LYS621  CYS622 
 ASP623  PHE694  ASN695  SER759  ASP760  ASP761  ALA762  ILE779  LEU786  VAL792 
 PHE793  MET794  SER795  GLU796  ALA797  LYS798  CYS799  TRP800  GLU811  SER814 

> <Gold.Protein.RotatedAtoms>
  152.5081  133.8987  159.7429 H   0  0  0  0  0  0  0  0  0  0  0  0  # atno 6907 bound_to 6896
  150.9408  133.6650  159.2798 H   0  0  0  0  0  0  0  0  0  0  0  0  # atno 6908 bound_to 6896
  151.3962  135.0969  159.9594 H   0  0  0  0  0  0  0  0  0  0  0  0  # atno 6909 bound_to 6896
  146.1100  139.5833  142.9358 H   0  0  0  0  0  0  0  0  0  0  0  0  # atno 7974 bound_to 7965
  155.4062  140.3440  155.4260 H   0  0  0  0  0  0  0  0  0  0  0  0  # atno 8008 bound_to 7997
  156.1475  140.1560  156.8855 H   0  0  0  0  0  0  0  0  0  0  0  0  # atno 8009 bound_to 7997
  154.5023  140.0811  156.7804 H   0  0  0  0  0  0  0  0  0  0  0  0  # atno 8010 bound_to 7997
  139.7469  143.8577  152.2577 H   0  0  0  0  0  0  0  0  0  0  0  0  # atno 10167 bound_to 10162
  156.5252  130.4642  149.6576 H   0  0  0  0  0  0  0  0  0  0  0  0  # atno 10718 bound_to 10713
  153.1198  135.4730  154.9176 H   0  0  0  0  0  0  0  0  0  0  0  0  # atno 10763 bound_to 10752
  154.7564  135.3119  154.8464 H   0  0  0  0  0  0  0  0  0  0  0  0  # atno 10764 bound_to 10752
  153.9032  135.6873  153.4808 H   0  0  0  0  0  0  0  0  0  0  0  0  # atno 10765 bound_to 10752
  139.8790  134.8890  156.3987 H   0  0  0  0  0  0  0  0  0  0  0  0  # atno 11005 bound_to 11000
  145.5683  141.0397  143.2188 LP  0  0  0  0  0  0  0  0  0  0  0  0  # atno 17320 bound_to 7965
  144.7503  139.7210  143.7275 LP  0  0  0  0  0  0  0  0  0  0  0  0  # atno 17321 bound_to 7965
  139.8544  144.7148  150.9175 LP  0  0  0  0  0  0  0  0  0  0  0  0  # atno 17342 bound_to 10162
  140.7793  143.3871  151.1374 LP  0  0  0  0  0  0  0  0  0  0  0  0  # atno 17343 bound_to 10162
  156.3111  130.7230  151.2122 LP  0  0  0  0  0  0  0  0  0  0  0  0  # atno 17370 bound_to 10713
  157.7430  131.0481  150.4977 LP  0  0  0  0  0  0  0  0  0  0  0  0  # atno 17371 bound_to 10713
  140.9282  133.7597  155.9991 LP  0  0  0  0  0  0  0  0  0  0  0  0  # atno 17394 bound_to 11000
  140.8361  134.3121  157.5331 LP  0  0  0  0  0  0  0  0  0  0  0  0  # atno 17395 bound_to 11000

$$$$
