AV-unprocessed.smi:1578|AV-procd|sdf|6352|dock4
  -GOLD-   22720 6573D 1   1.00000     0.00000
 Structure written by MMmdl.
 45 46  0  0  0  0  0  0  0  0  2 V2000
  146.7185  140.4623  157.1354 C   0  0  0  0  0  0  0  0  0  0  0  0
  146.8357  141.6751  156.2029 C   0  0  2  0  0  0  0  0  0  0  0  0
  146.1867  141.4031  154.8278 C   0  0  0  0  0  0  0  0  0  0  0  0
  144.7142  141.5960  154.8413 N   0  3  0  0  0  0  0  0  0  0  0  0
  144.0085  140.6516  155.7379 C   0  0  0  0  0  0  0  0  0  0  0  0
  142.4876  140.8543  155.6291 C   0  0  0  0  0  0  0  0  0  0  0  0
  142.1614  142.2050  155.9339 O   0  0  0  0  0  0  0  0  0  0  0  0
  142.7719  143.1194  155.0310 C   0  0  0  0  0  0  0  0  0  0  0  0
  144.3011  142.9912  155.1248 C   0  0  0  0  0  0  0  0  0  0  0  0
  148.2457  142.0242  156.0367 N   0  0  0  0  0  0  0  0  0  0  0  0
  149.2718  141.1638  155.9098 C   0  0  0  0  0  0  0  0  0  0  0  0
  149.1196  139.9440  155.8693 O   0  0  0  0  0  0  0  0  0  0  0  0
  150.6975  141.7394  155.8729 C   0  0  0  0  0  0  0  0  0  0  0  0
  151.3379  141.8596  157.1948 N   0  0  0  0  0  0  0  0  0  0  0  0
  151.0194  143.0087  157.9454 C   0  0  0  0  0  0  0  0  0  0  0  0
  151.5388  143.2574  159.1624 C   0  0  0  0  0  0  0  0  0  0  0  0
  151.2328  144.5448  159.9118 C   0  0  0  0  0  0  0  0  0  0  0  0
  149.9183  144.7337  160.0260 F   0  0  0  0  0  0  0  0  0  0  0  0
  151.7600  144.5225  161.1368 F   0  0  0  0  0  0  0  0  0  0  0  0
  151.7481  145.5842  159.2574 F   0  0  0  0  0  0  0  0  0  0  0  0
  152.4799  142.2800  159.6730 C   0  0  0  0  0  0  0  0  0  0  0  0
  152.8078  141.1837  158.9613 C   0  0  0  0  0  0  0  0  0  0  0  0
  152.2318  140.9263  157.6395 C   0  0  0  0  0  0  0  0  0  0  0  0
  152.5426  139.9424  156.9688 O   0  0  0  0  0  0  0  0  0  0  0  0
  145.6749  140.1888  157.2930 H   0  0  0  0  0  0  0  0  0  0  0  0
  147.1532  140.6754  158.1125 H   0  0  0  0  0  0  0  0  0  0  0  0
  147.2325  139.5920  156.7253 H   0  0  0  0  0  0  0  0  0  0  0  0
  146.3052  142.4977  156.6840 H   0  0  0  0  0  0  0  0  0  0  0  0
  146.6236  142.0962  154.1070 H   0  0  0  0  0  0  0  0  0  0  0  0
  146.4304  140.4010  154.4720 H   0  0  0  0  0  0  0  0  0  0  0  0
  144.2599  139.6252  155.4683 H   0  0  0  0  0  0  0  0  0  0  0  0
  144.3378  140.8059  156.7667 H   0  0  0  0  0  0  0  0  0  0  0  0
  142.1318  140.5999  154.6293 H   0  0  0  0  0  0  0  0  0  0  0  0
  141.9693  140.1978  156.3281 H   0  0  0  0  0  0  0  0  0  0  0  0
  142.4272  142.9309  154.0128 H   0  0  0  0  0  0  0  0  0  0  0  0
  142.4630  144.1322  155.2897 H   0  0  0  0  0  0  0  0  0  0  0  0
  144.6402  143.2805  156.1206 H   0  0  0  0  0  0  0  0  0  0  0  0
  144.7670  143.6763  154.4170 H   0  0  0  0  0  0  0  0  0  0  0  0
  148.4660  143.0099  156.0480 H   0  0  0  0  0  0  0  0  0  0  0  0
  151.3084  141.0997  155.2338 H   0  0  0  0  0  0  0  0  0  0  0  0
  150.6670  142.7009  155.3579 H   0  0  0  0  0  0  0  0  0  0  0  0
  150.3343  143.6862  157.4557 H   0  0  0  0  0  0  0  0  0  0  0  0
  152.9262  142.4253  160.6459 H   0  0  0  0  0  0  0  0  0  0  0  0
  153.5109  140.4754  159.3750 H   0  0  0  0  0  0  0  0  0  0  0  0
  144.3958  141.3826  153.9068 H   0  0  0  0  0  0  0  0  0  0  0  0
  1  2  1  0  0  0  0
  1 25  1  0  0  0  0
  1 26  1  0  0  0  0
  1 27  1  0  0  0  0
  2  3  1  0  0  0  0
  2 10  1  0  0  0  0
  2 28  1  0  0  0  0
  3  4  1  0  0  0  0
  3 29  1  0  0  0  0
  3 30  1  0  0  0  0
  4  9  1  0  0  0  0
  4  5  1  0  0  0  0
  4 45  1  0  0  0  0
  5  6  1  0  0  0  0
  5 31  1  0  0  0  0
  5 32  1  0  0  0  0
  6  7  1  0  0  0  0
  6 33  1  0  0  0  0
  6 34  1  0  0  0  0
  7  8  1  0  0  0  0
  8  9  1  0  0  0  0
  8 35  1  0  0  0  0
  8 36  1  0  0  0  0
  9 37  1  0  0  0  0
  9 38  1  0  0  0  0
 10 11  1  0  0  0  0
 10 39  1  0  0  0  0
 11 12  2  0  0  0  0
 11 13  1  0  0  0  0
 13 14  1  0  0  0  0
 13 40  1  0  0  0  0
 13 41  1  0  0  0  0
 14 23  1  0  0  0  0
 14 15  1  0  0  0  0
 15 16  2  0  0  0  0
 15 42  1  0  0  0  0
 16 17  1  0  0  0  0
 16 21  1  0  0  0  0
 17 18  1  0  0  0  0
 17 19  1  0  0  0  0
 17 20  1  0  0  0  0
 21 22  2  0  0  0  0
 21 43  1  0  0  0  0
 22 23  1  0  0  0  0
 22 44  1  0  0  0  0
 23 24  2  0  0  0  0
M  CHG  1   4   1
M  END
> <s_m_source_file>
AV-unprocessed.smi

> <i_m_source_file_index>
1578

> <i_lp_mmshare_version>
43012

> <i_f3d_flags>
0

> <s_epik_input>
W0NIMl0xW0NIMl1PW0NIMl1bQ0gyXU4xW0NIMl1bQ0BASF0oW0NIM10pW05IXUMoPU8pW0NIMl1uMltjSF1jKEMoRikoRilGKVtjSF1bY0hdYzI9Tw==

> <s_epik_cmdline>
J2VwaWtfcHl0aG9uJywgJy1waCcsICc3LjAnLCAnLXRuJywgJzgnLCAnLW1hJywgJzIwMCcsICctbWV0YWxfYmluZGluZycsICctaW1hZScsICc8aW5maWxlLm1hZT4nLCAnLW9tYWUnLCAnPG91dGZpbGUubWFlPic=

> <r_lp_tautomer_probability>
1

> <r_epik_Ionization_Penalty>
0.656654

> <r_epik_Ionization_Penalty_Charging>
0.656653

> <r_epik_Ionization_Penalty_Neutral>
9.12373e-08

> <r_epik_State_Penalty>
0.675641

> <r_epik_Charging_Adjusted_Penalty>
1.33229

> <i_epik_Tot_Q>
1

> <i_epik_Tot_abs_Q>
1

> <r_epik_Metal_State_Penalty>
0.675695

> <b_epik_Metal_Only>
0

> <s_lp_Force_Field>
OPLS_2005

> <r_lp_Energy>
34.2523

> <b_lp_Chiralities_Consistent>
1

> <s_lp_Variant>
AV-unprocessed.smi:1578-3

> <Gold.Version>
5.8.1

> <Gold.Id.Protein>
6NUR|6NUR_protein|mol2

> <Gold.PLP.Fitness>
52.9972

> <Gold.PLP.PLP>
-40.6592

> <Gold.PLP.part.hbond>
-3.0000

> <Gold.PLP.part.metal>
0.0000

> <Gold.PLP.part.buried>
-5.8358

> <Gold.PLP.part.nonpolar>
-31.8217

> <Gold.PLP.part.repulsive>
0.1100

> <Gold.PLP.ligand.clash>
0.0000

> <Gold.PLP.ligand.torsion>
1.4355

> <Gold.PLP.Chemscore.Hbond>
4.0000

> <Gold.PLP.Chemscore.CHOScore>
0.9970

> <Gold.PLP.Chemscore.Metal>
0.0000

> <Gold.Chemscore.Hbonds>
donor molecule, donor type, donor heavy atom, donor atom, acceptor molecule, acceptor atom, score
      L1  H     4    45       P1 10175  2.00
      L1  H    10    39       P1  8028  1.00
      P1  H  7997  8010       L1    24  1.00
      L1  C    15    42       P1  8028  1.00

> <Gold.PLP.Chemscore.Internal.Correction>
0.2180

> <Gold.Rescore>
     Score         DG    S(hbond)    S(metal)    S(lipo)     H(rot)  DE(clash)    DE(int)     intcor
     13.29     -17.02       2.73        0.00      68.17       2.17       1.04       2.69       ----

> <Gold.Chemscore.Fitness>
13.2862

> <Gold.Chemscore.DG>
-17.0230

> <Gold.Chemscore.ZeroCoef>
-5.4800

> <Gold.Chemscore.Hbond>
2.7323

> <Gold.Chemscore.Metal>
0.0000

> <Gold.Chemscore.Lipo>
68.1729

> <Gold.Chemscore.Internal_Hbond>
0.0000

> <Gold.Chemscore.DEClash>
1.0423

> <Gold.Chemscore.DEInternal>
2.6945

> <Gold.Chemscore.Rot>
2.1716

> <Gold.Chemscore.Internal.Correction>
   9.000000E+99

> <Gold.Chemscore.Hbonds>
donor molecule, donor type, donor heavy atom, donor atom, acceptor molecule, acceptor atom, score
      L1  H     4    45       P1 10175  0.30
      L1  H    10    39       P1  8028  0.96
      P1  H  7997  8010       L1    24  0.65

> <Gold.Chemscore.Hbond.Weighted>
-9.1259

> <Gold.Chemscore.Metal.Weighted>
-0.0000

> <Gold.Chemscore.Lipo.Weighted>
-7.9762

> <Gold.Chemscore.Internal_Hbond.Weighted>
0.0000

> <Gold.Chemscore.DEClash.Weighted>
1.0423

> <Gold.Chemscore.DEInternal.Weighted>
2.6945

> <Gold.Chemscore.Rot.Weighted>
5.5592

> <Gold.Chemscore.Internal.Correction.Weighted>
   9.000000E+99

> <Gold.Protein.RotatedTorsions>
[ 6907 6896 6895 6894 ] final  -23.47 input  -60.11 | X-H torsion
[ 7974 7965 7964 7962 ] final   53.39 input  175.53 | X-H torsion
[ 8008 7997 7996 7995 ] final   67.74 input   59.86 | X-H torsion
[ 10167 10162 10161 10158 ] final -130.39 input  -65.29 | X-H torsion
[ 10718 10713 10712 10709 ] final  148.91 input   66.30 | X-H torsion
[ 10763 10752 10751 10750 ] final -129.94 input  -60.55 | X-H torsion
[ 11005 11000 10999 10996 ] final  130.31 input  -57.11 | X-H torsion

> <Gold.Protein.ActiveResidues>
 VAL166  LYS551  ARG553  GLY616  TRP617  ASP618  TYR619  PRO620  LYS621  CYS622 
 ASP623  PHE694  ASN695  SER759  ASP760  ASP761  ALA762  ILE779  LEU786  VAL792 
 PHE793  MET794  SER795  GLU796  ALA797  LYS798  CYS799  TRP800  GLU811  SER814 

> <Gold.Protein.RotatedAtoms>
  151.2035  135.0452  159.8881 H   0  0  0  0  0  0  0  0  0  0  0  0  # atno 6907 bound_to 6896
  152.5431  134.0823  159.8251 H   0  0  0  0  0  0  0  0  0  0  0  0  # atno 6908 bound_to 6896
  151.0967  133.5227  159.2644 H   0  0  0  0  0  0  0  0  0  0  0  0  # atno 6909 bound_to 6896
  145.9717  139.4155  143.0186 H   0  0  0  0  0  0  0  0  0  0  0  0  # atno 7974 bound_to 7965
  155.6976  140.3495  155.4919 H   0  0  0  0  0  0  0  0  0  0  0  0  # atno 8008 bound_to 7997
  155.9469  140.1112  157.1031 H   0  0  0  0  0  0  0  0  0  0  0  0  # atno 8009 bound_to 7997
  154.4114  140.1202  156.4987 H   0  0  0  0  0  0  0  0  0  0  0  0  # atno 8010 bound_to 7997
  139.9298  143.6285  152.2532 H   0  0  0  0  0  0  0  0  0  0  0  0  # atno 10167 bound_to 10162
  157.3028  131.0874  151.1377 H   0  0  0  0  0  0  0  0  0  0  0  0  # atno 10718 bound_to 10713
  154.8756  135.3879  154.4003 H   0  0  0  0  0  0  0  0  0  0  0  0  # atno 10763 bound_to 10752
  153.4728  135.7030  153.5988 H   0  0  0  0  0  0  0  0  0  0  0  0  # atno 10764 bound_to 10752
  153.4438  135.3850  155.2211 H   0  0  0  0  0  0  0  0  0  0  0  0  # atno 10765 bound_to 10752
  139.9665  134.9589  156.9275 H   0  0  0  0  0  0  0  0  0  0  0  0  # atno 11005 bound_to 11000
  145.7897  140.9820  143.1055 LP  0  0  0  0  0  0  0  0  0  0  0  0  # atno 17320 bound_to 7965
  144.6838  139.9667  143.7481 LP  0  0  0  0  0  0  0  0  0  0  0  0  # atno 17321 bound_to 7965
  139.6792  144.7656  151.1640 LP  0  0  0  0  0  0  0  0  0  0  0  0  # atno 17342 bound_to 10162
  140.7640  143.5750  150.8955 LP  0  0  0  0  0  0  0  0  0  0  0  0  # atno 17343 bound_to 10162
  157.2730  130.6713  149.6028 LP  0  0  0  0  0  0  0  0  0  0  0  0  # atno 17370 bound_to 10713
  155.9672  130.4473  150.5576 LP  0  0  0  0  0  0  0  0  0  0  0  0  # atno 17371 bound_to 10713
  140.5386  134.0742  155.7335 LP  0  0  0  0  0  0  0  0  0  0  0  0  # atno 17394 bound_to 11000
  141.1344  133.9246  157.2465 LP  0  0  0  0  0  0  0  0  0  0  0  0  # atno 17395 bound_to 11000

$$$$
