AV-unprocessed.smi:2975|AV-procd|sdf|11355|dock8
  -GOLD-   2272016273D 1   1.00000     0.00000
 Structure written by MMmdl.
 39 41  0  0  0  0  0  0  0  0  1 V2000
  153.1671  138.7638  154.5939 C   0  0  0  0  0  0  0  0  0  0  0  0
  151.8530  137.9879  154.7534 C   0  0  2  0  0  0  0  0  0  0  0  0
  151.8503  136.9297  153.8160 O   0  0  0  0  0  0  0  0  0  0  0  0
  150.6529  138.8843  154.6093 C   0  0  0  0  0  0  0  0  0  0  0  0
  149.6646  138.6178  153.7522 N   0  0  0  0  0  0  0  0  0  0  0  0
  148.8004  139.6782  153.9392 C   0  0  0  0  0  0  0  0  0  0  0  0
  147.5588  139.9695  153.3303 C   0  0  0  0  0  0  0  0  0  0  0  0
  146.8420  141.1291  153.6911 C   0  0  0  0  0  0  0  0  0  0  0  0
  147.3556  142.0121  154.6629 C   0  0  0  0  0  0  0  0  0  0  0  0
  148.5918  141.7412  155.2802 C   0  0  0  0  0  0  0  0  0  0  0  0
  149.3032  140.5823  154.9164 C   0  0  0  0  0  0  0  0  0  0  0  0
  150.5168  140.0341  155.3191 N   0  0  0  0  0  0  0  0  0  0  0  0
  151.4229  140.6000  156.3060 C   0  0  0  0  0  0  0  0  0  0  0  0
  150.7403  140.7601  157.6697 C   0  0  0  0  0  0  0  0  0  0  0  0
  151.4682  141.7136  158.4298 O   0  0  0  0  0  0  0  0  0  0  0  0
  152.3679  141.2521  159.3672 C   0  0  0  0  0  0  0  0  0  0  0  0
  152.8828  139.9305  159.3921 C   0  0  0  0  0  0  0  0  0  0  0  0
  153.7997  139.5408  160.3877 C   0  0  0  0  0  0  0  0  0  0  0  0
  154.2132  140.4619  161.3676 C   0  0  0  0  0  0  0  0  0  0  0  0
  153.7078  141.7749  161.3512 C   0  0  0  0  0  0  0  0  0  0  0  0
  152.7906  142.1658  160.3566 C   0  0  0  0  0  0  0  0  0  0  0  0
  152.3119  143.4330  160.3517 F   0  0  0  0  0  0  0  0  0  0  0  0
  153.2418  139.5627  155.3321 H   0  0  0  0  0  0  0  0  0  0  0  0
  153.2417  139.2177  153.6050 H   0  0  0  0  0  0  0  0  0  0  0  0
  154.0299  138.1106  154.7270 H   0  0  0  0  0  0  0  0  0  0  0  0
  151.8354  137.5165  155.7352 H   0  0  0  0  0  0  0  0  0  0  0  0
  151.2425  137.1443  153.1251 H   0  0  0  0  0  0  0  0  0  0  0  0
  147.1566  139.2985  152.5857 H   0  0  0  0  0  0  0  0  0  0  0  0
  145.8934  141.3415  153.2203 H   0  0  0  0  0  0  0  0  0  0  0  0
  146.7996  142.8976  154.9343 H   0  0  0  0  0  0  0  0  0  0  0  0
  148.9874  142.4154  156.0252 H   0  0  0  0  0  0  0  0  0  0  0  0
  152.3104  139.9723  156.3867 H   0  0  0  0  0  0  0  0  0  0  0  0
  151.7702  141.5691  155.9462 H   0  0  0  0  0  0  0  0  0  0  0  0
  149.7110  141.0939  157.5274 H   0  0  0  0  0  0  0  0  0  0  0  0
  150.7196  139.8018  158.1910 H   0  0  0  0  0  0  0  0  0  0  0  0
  152.5894  139.1951  158.6588 H   0  0  0  0  0  0  0  0  0  0  0  0
  154.1857  138.5321  160.3987 H   0  0  0  0  0  0  0  0  0  0  0  0
  154.9164  140.1617  162.1305 H   0  0  0  0  0  0  0  0  0  0  0  0
  154.0237  142.4841  162.1023 H   0  0  0  0  0  0  0  0  0  0  0  0
  1  2  1  0  0  0  0
  1 23  1  0  0  0  0
  1 24  1  0  0  0  0
  1 25  1  0  0  0  0
  2  3  1  0  0  0  0
  2  4  1  0  0  0  0
  2 26  1  0  0  0  0
  3 27  1  0  0  0  0
  4 12  1  0  0  0  0
  4  5  2  0  0  0  0
  5  6  1  0  0  0  0
  6 11  2  0  0  0  0
  6  7  1  0  0  0  0
  7  8  2  0  0  0  0
  7 28  1  0  0  0  0
  8  9  1  0  0  0  0
  8 29  1  0  0  0  0
  9 10  2  0  0  0  0
  9 30  1  0  0  0  0
 10 11  1  0  0  0  0
 10 31  1  0  0  0  0
 11 12  1  0  0  0  0
 12 13  1  0  0  0  0
 13 14  1  0  0  0  0
 13 32  1  0  0  0  0
 13 33  1  0  0  0  0
 14 15  1  0  0  0  0
 14 34  1  0  0  0  0
 14 35  1  0  0  0  0
 15 16  1  0  0  0  0
 16 21  1  0  0  0  0
 16 17  2  0  0  0  0
 17 18  1  0  0  0  0
 17 36  1  0  0  0  0
 18 19  2  0  0  0  0
 18 37  1  0  0  0  0
 19 20  1  0  0  0  0
 19 38  1  0  0  0  0
 20 21  2  0  0  0  0
 20 39  1  0  0  0  0
 21 22  1  0  0  0  0
M  END
> <s_m_source_file>
AV-unprocessed.smi

> <i_m_source_file_index>
2975

> <i_lp_mmshare_version>
43012

> <i_f3d_flags>
0

> <s_epik_input>
W2NIXTFbY0hdW2NIXVtjSF1jKGMxMiluKGMobjIpW0NASF0oW0NIM10pW09IXSlbQ0gyXVtDSDJdT2MzW2NIXVtjSF1bY0hdW2NIXWMzRg==

> <s_epik_cmdline>
J2VwaWtfcHl0aG9uJywgJy1waCcsICc3LjAnLCAnLXRuJywgJzgnLCAnLW1hJywgJzIwMCcsICctbWV0YWxfYmluZGluZycsICctaW1hZScsICc8aW5maWxlLm1hZT4nLCAnLW9tYWUnLCAnPG91dGZpbGUubWFlPic=

> <r_lp_tautomer_probability>
1

> <r_epik_Ionization_Penalty>
0.0404035

> <r_epik_Ionization_Penalty_Charging>
0

> <r_epik_Ionization_Penalty_Neutral>
0.0404035

> <r_epik_State_Penalty>
0.0340039

> <r_epik_Charging_Adjusted_Penalty>
0.0340039

> <i_epik_Tot_Q>
0

> <i_epik_Tot_abs_Q>
0

> <r_epik_Metal_State_Penalty>
3.49976e-05

> <b_epik_Metal_Only>
0

> <s_lp_Force_Field>
OPLS_2005

> <r_lp_Energy>
15.721

> <b_lp_Chiralities_Consistent>
1

> <s_lp_Variant>
AV-unprocessed.smi:2975-1

> <Gold.Version>
5.8.1

> <Gold.Id.Protein>
6NUR|6NUR_protein|mol2

> <Gold.PLP.Fitness>
52.6406

> <Gold.PLP.PLP>
-49.8101

> <Gold.PLP.part.hbond>
-2.0000

> <Gold.PLP.part.metal>
0.0000

> <Gold.PLP.part.buried>
-1.1185

> <Gold.PLP.part.nonpolar>
-48.0870

> <Gold.PLP.part.repulsive>
1.1937

> <Gold.PLP.ligand.clash>
0.0000

> <Gold.PLP.ligand.torsion>
0.6952

> <Gold.PLP.Chemscore.Hbond>
1.4004

> <Gold.PLP.Chemscore.CHOScore>
0.0000

> <Gold.PLP.Chemscore.Metal>
0.0000

> <Gold.Chemscore.Hbonds>
donor molecule, donor type, donor heavy atom, donor atom, acceptor molecule, acceptor atom, score
      L1  H     3    27       P1  7949  0.38
      P1  H 10752 10765       L1     3  1.00

> <Gold.PLP.Chemscore.Internal.Correction>
0.0198

> <Gold.Rescore>
     Score         DG    S(hbond)    S(metal)    S(lipo)     H(rot)  DE(clash)    DE(int)     intcor
     17.10     -17.91       1.17        0.00     121.07       2.21       0.16       0.64       ----

> <Gold.Chemscore.Fitness>
17.0982

> <Gold.Chemscore.DG>
-17.9054

> <Gold.Chemscore.ZeroCoef>
-5.4800

> <Gold.Chemscore.Hbond>
1.1700

> <Gold.Chemscore.Metal>
0.0000

> <Gold.Chemscore.Lipo>
121.0683

> <Gold.Chemscore.Internal_Hbond>
0.0000

> <Gold.Chemscore.DEClash>
0.1629

> <Gold.Chemscore.DEInternal>
0.6442

> <Gold.Chemscore.Rot>
2.2060

> <Gold.Chemscore.Internal.Correction>
   9.000000E+99

> <Gold.Chemscore.Hbonds>
donor molecule, donor type, donor heavy atom, donor atom, acceptor molecule, acceptor atom, score
      L1  H     3    27       P1  7949  0.22
      P1  H 10752 10765       L1     3  0.95

> <Gold.Chemscore.Hbond.Weighted>
-3.9077

> <Gold.Chemscore.Metal.Weighted>
-0.0000

> <Gold.Chemscore.Lipo.Weighted>
-14.1650

> <Gold.Chemscore.Internal_Hbond.Weighted>
0.0000

> <Gold.Chemscore.DEClash.Weighted>
0.1629

> <Gold.Chemscore.DEInternal.Weighted>
0.6442

> <Gold.Chemscore.Rot.Weighted>
5.6473

> <Gold.Chemscore.Internal.Correction.Weighted>
   9.000000E+99

> <Gold.Protein.RotatedTorsions>
[ 6907 6896 6895 6894 ] final  -63.48 input  -60.11 | X-H torsion
[ 7974 7965 7964 7962 ] final  155.37 input  175.53 | X-H torsion
[ 8008 7997 7996 7995 ] final   21.19 input   59.86 | X-H torsion
[ 10167 10162 10161 10158 ] final -127.07 input  -65.29 | X-H torsion
[ 10718 10713 10712 10709 ] final -137.37 input   66.30 | X-H torsion
[ 10763 10752 10751 10750 ] final  141.81 input  -60.55 | X-H torsion
[ 11005 11000 10999 10996 ] final  -94.19 input  -57.11 | X-H torsion

> <Gold.Protein.ActiveResidues>
 VAL166  LYS551  ARG553  GLY616  TRP617  ASP618  TYR619  PRO620  LYS621  CYS622 
 ASP623  PHE694  ASN695  SER759  ASP760  ASP761  ALA762  ILE779  LEU786  VAL792 
 PHE793  MET794  SER795  GLU796  ALA797  LYS798  CYS799  TRP800  GLU811  SER814 

> <Gold.Protein.RotatedAtoms>
  150.7647  134.6430  159.6246 H   0  0  0  0  0  0  0  0  0  0  0  0  # atno 6907 bound_to 6896
  152.3672  134.6784  160.0197 H   0  0  0  0  0  0  0  0  0  0  0  0  # atno 6908 bound_to 6896
  151.7155  133.3277  159.3338 H   0  0  0  0  0  0  0  0  0  0  0  0  # atno 6909 bound_to 6896
  144.8029  139.7059  143.6174 H   0  0  0  0  0  0  0  0  0  0  0  0  # atno 7974 bound_to 7965
  154.9468  140.3060  155.5094 H   0  0  0  0  0  0  0  0  0  0  0  0  # atno 8008 bound_to 7997
  156.2991  140.2326  156.4480 H   0  0  0  0  0  0  0  0  0  0  0  0  # atno 8009 bound_to 7997
  154.8092  140.0429  157.1319 H   0  0  0  0  0  0  0  0  0  0  0  0  # atno 8010 bound_to 7997
  139.9647  143.5911  152.2433 H   0  0  0  0  0  0  0  0  0  0  0  0  # atno 10167 bound_to 10162
  156.2874  130.7355  151.1371 H   0  0  0  0  0  0  0  0  0  0  0  0  # atno 10718 bound_to 10713
  153.9455  135.2975  155.3441 H   0  0  0  0  0  0  0  0  0  0  0  0  # atno 10763 bound_to 10752
  154.7454  135.5005  153.9198 H   0  0  0  0  0  0  0  0  0  0  0  0  # atno 10764 bound_to 10752
  153.1020  135.6737  153.9762 H   0  0  0  0  0  0  0  0  0  0  0  0  # atno 10765 bound_to 10752
  141.1477  133.7939  157.0264 H   0  0  0  0  0  0  0  0  0  0  0  0  # atno 11005 bound_to 11000
  146.2315  139.5822  142.9552 LP  0  0  0  0  0  0  0  0  0  0  0  0  # atno 17320 bound_to 7965
  145.5508  141.0413  143.2279 LP  0  0  0  0  0  0  0  0  0  0  0  0  # atno 17321 bound_to 7965
  139.6526  144.7661  151.2117 LP  0  0  0  0  0  0  0  0  0  0  0  0  # atno 17342 bound_to 10162
  140.7541  143.6136  150.8581 LP  0  0  0  0  0  0  0  0  0  0  0  0  # atno 17343 bound_to 10162
  157.7332  131.0593  150.5587 LP  0  0  0  0  0  0  0  0  0  0  0  0  # atno 17370 bound_to 10713
  156.5699  130.4277  149.6024 LP  0  0  0  0  0  0  0  0  0  0  0  0  # atno 17371 bound_to 10713
  140.0783  134.9663  157.1581 LP  0  0  0  0  0  0  0  0  0  0  0  0  # atno 17394 bound_to 11000
  140.3613  134.2491  155.7187 LP  0  0  0  0  0  0  0  0  0  0  0  0  # atno 17395 bound_to 11000

$$$$
