AV-unprocessed.smi:1626|AV-procd|sdf|6510|dock7
  -GOLD-   22720 7183D 1   1.00000     0.00000
 Structure written by MMmdl.
 49 51  0  0  0  0  0  0  0  0  3 V2000
  145.4585  129.7841  152.1741 C   0  0  0  0  0  0  0  0  0  0  0  0
  145.4834  131.2910  151.9821 C   0  0  0  0  0  0  0  0  0  0  0  0
  144.4296  131.8964  151.2604 C   0  0  0  0  0  0  0  0  0  0  0  0
  144.4782  133.2765  151.1049 C   0  0  0  0  0  0  0  0  0  0  0  0
  143.6045  134.1573  150.4632 N   0  3  0  0  0  0  0  0  0  0  0  0
  144.0739  135.4304  150.5818 C   0  0  0  0  0  0  0  0  0  0  0  0
  145.2416  135.3734  151.2793 N   0  0  0  0  0  0  0  0  0  0  0  0
  146.1507  136.4504  151.6927 C   0  0  0  0  0  0  0  0  0  0  0  0
  145.5220  137.4267  152.7086 C   0  0  2  0  0  0  0  0  0  0  0  0
  144.5267  138.1587  152.0229 O   0  0  0  0  0  0  0  0  0  0  0  0
  146.5411  138.4114  153.3243 C   0  0  0  0  0  0  0  0  0  0  0  0
  147.8078  137.7493  153.7301 N   0  3  2  0  0  0  0  0  0  0  0  0
  147.6004  136.7568  154.8167 C   0  0  0  0  0  0  0  0  0  0  0  0
  148.8951  135.9836  155.1181 C   0  0  0  0  0  0  0  0  0  0  0  0
  150.0381  136.9459  155.4728 C   0  0  1  0  0  0  0  0  0  0  0  0
  151.2349  136.2175  155.6438 O   0  0  0  0  0  0  0  0  0  0  0  0
  150.2147  137.9808  154.3520 C   0  0  0  0  0  0  0  0  0  0  0  0
  148.8913  138.7118  154.0691 C   0  0  0  0  0  0  0  0  0  0  0  0
  145.5275  134.0514  151.6358 C   0  0  0  0  0  0  0  0  0  0  0  0
  146.5724  133.4718  152.3511 C   0  0  0  0  0  0  0  0  0  0  0  0
  146.5418  132.0689  152.5191 C   0  0  0  0  0  0  0  0  0  0  0  0
  147.6698  131.4077  153.2927 C   0  0  0  0  0  0  0  0  0  0  0  0
  144.5602  129.3416  151.7428 H   0  0  0  0  0  0  0  0  0  0  0  0
  145.4760  129.5318  153.2346 H   0  0  0  0  0  0  0  0  0  0  0  0
  146.3218  129.3232  151.6936 H   0  0  0  0  0  0  0  0  0  0  0  0
  143.6197  131.3105  150.8508 H   0  0  0  0  0  0  0  0  0  0  0  0
  143.6044  136.3224  150.1919 H   0  0  0  0  0  0  0  0  0  0  0  0
  147.0371  135.9794  152.1203 H   0  0  0  0  0  0  0  0  0  0  0  0
  146.4820  136.9771  150.7963 H   0  0  0  0  0  0  0  0  0  0  0  0
  145.0298  136.8477  153.4886 H   0  0  0  0  0  0  0  0  0  0  0  0
  144.4761  139.0293  152.3866 H   0  0  0  0  0  0  0  0  0  0  0  0
  146.7798  139.2165  152.6285 H   0  0  0  0  0  0  0  0  0  0  0  0
  146.0766  138.8894  154.1883 H   0  0  0  0  0  0  0  0  0  0  0  0
  147.2463  137.2656  155.7149 H   0  0  0  0  0  0  0  0  0  0  0  0
  146.8235  136.0484  154.5258 H   0  0  0  0  0  0  0  0  0  0  0  0
  148.7262  135.2826  155.9366 H   0  0  0  0  0  0  0  0  0  0  0  0
  149.1690  135.3844  154.2482 H   0  0  0  0  0  0  0  0  0  0  0  0
  149.8109  137.4550  156.4105 H   0  0  0  0  0  0  0  0  0  0  0  0
  151.1717  135.7111  156.4396 H   0  0  0  0  0  0  0  0  0  0  0  0
  150.9860  138.7023  154.6249 H   0  0  0  0  0  0  0  0  0  0  0  0
  150.5584  137.4887  153.4406 H   0  0  0  0  0  0  0  0  0  0  0  0
  149.0461  139.4167  153.2531 H   0  0  0  0  0  0  0  0  0  0  0  0
  148.5968  139.3003  154.9396 H   0  0  0  0  0  0  0  0  0  0  0  0
  147.3744  134.0646  152.7657 H   0  0  0  0  0  0  0  0  0  0  0  0
  148.4211  132.1347  153.6020 H   0  0  0  0  0  0  0  0  0  0  0  0
  148.1680  130.6565  152.6794 H   0  0  0  0  0  0  0  0  0  0  0  0
  147.2849  130.9236  154.1905 H   0  0  0  0  0  0  0  0  0  0  0  0
  148.1211  137.2199  152.9292 H   0  0  0  0  0  0  0  0  0  0  0  0
  142.7458  133.9108  149.9875 H   0  0  0  0  0  0  0  0  0  0  0  0
  1  2  1  0  0  0  0
  1 23  1  0  0  0  0
  1 24  1  0  0  0  0
  1 25  1  0  0  0  0
  2 21  1  0  0  0  0
  2  3  2  0  0  0  0
  3  4  1  0  0  0  0
  3 26  1  0  0  0  0
  4 19  2  0  0  0  0
  4  5  1  0  0  0  0
  5  6  2  0  0  0  0
  5 49  1  0  0  0  0
  6  7  1  0  0  0  0
  6 27  1  0  0  0  0
  7  8  1  0  0  0  0
  7 19  1  0  0  0  0
  8  9  1  0  0  0  0
  8 28  1  0  0  0  0
  8 29  1  0  0  0  0
  9 10  1  0  0  0  0
  9 11  1  0  0  0  0
  9 30  1  0  0  0  0
 10 31  1  0  0  0  0
 11 12  1  0  0  0  0
 11 32  1  0  0  0  0
 11 33  1  0  0  0  0
 12 18  1  0  0  0  0
 12 13  1  0  0  0  0
 12 48  1  0  0  0  0
 13 14  1  0  0  0  0
 13 34  1  0  0  0  0
 13 35  1  0  0  0  0
 14 15  1  0  0  0  0
 14 36  1  0  0  0  0
 14 37  1  0  0  0  0
 15 16  1  0  0  0  0
 15 17  1  0  0  0  0
 15 38  1  0  0  0  0
 16 39  1  0  0  0  0
 17 18  1  0  0  0  0
 17 40  1  0  0  0  0
 17 41  1  0  0  0  0
 18 42  1  0  0  0  0
 18 43  1  0  0  0  0
 19 20  1  0  0  0  0
 20 21  2  0  0  0  0
 20 44  1  0  0  0  0
 21 22  1  0  0  0  0
 22 45  1  0  0  0  0
 22 46  1  0  0  0  0
 22 47  1  0  0  0  0
M  CHG  1   5   1
M  CHG  1  12   1
M  END
> <s_m_source_file>
AV-unprocessed.smi

> <i_m_source_file_index>
1626

> <i_lp_mmshare_version>
43012

> <i_f3d_flags>
0

> <s_epik_input>
W0NIM11jKFtjSF0xKWMoW0NIM10pW2NIXWMoYzEyKW4oW2NIXW4yKVtDSDJdW0NASF0oW09IXSlbQ0gyXU4zW0NIMl1bQ0gyXVtDSF0oW09IXSlbQ0gyXVtDSDJdMw==

> <s_epik_cmdline>
J2VwaWtfcHl0aG9uJywgJy1waCcsICc3LjAnLCAnLXRuJywgJzgnLCAnLW1hJywgJzIwMCcsICctbWV0YWxfYmluZGluZycsICctaW1hZScsICc8aW5maWxlLm1hZT4nLCAnLW9tYWUnLCAnPG91dGZpbGUubWFlPic=

> <r_epik_Ionization_Penalty>
1.19369

> <r_epik_Ionization_Penalty_Charging>
1.19369

> <r_epik_Ionization_Penalty_Neutral>
1.68219e-06

> <r_epik_State_Penalty>
1.27429

> <r_epik_Charging_Adjusted_Penalty>
2.46798

> <i_epik_Tot_Q>
2

> <i_epik_Tot_abs_Q>
2

> <r_epik_Metal_State_Penalty>
5.29157

> <b_epik_Metal_Only>
0

> <s_lp_Force_Field>
OPLS_2005

> <r_lp_Energy>
33.2617

> <b_lp_Chiralities_Consistent>
1

> <s_lp_Variant>
AV-unprocessed.smi:1626-5

> <Gold.Version>
5.8.1

> <Gold.Id.Protein>
6NUR|6NUR_protein|mol2

> <Gold.PLP.Fitness>
55.6711

> <Gold.PLP.PLP>
-35.9151

> <Gold.PLP.part.hbond>
-4.4786

> <Gold.PLP.part.metal>
0.0000

> <Gold.PLP.part.buried>
-2.0535

> <Gold.PLP.part.nonpolar>
-30.0586

> <Gold.PLP.part.repulsive>
0.0245

> <Gold.PLP.ligand.clash>
0.0000

> <Gold.PLP.ligand.torsion>
0.2386

> <Gold.PLP.Chemscore.Hbond>
5.7360

> <Gold.PLP.Chemscore.CHOScore>
1.0000

> <Gold.PLP.Chemscore.Metal>
0.0000

> <Gold.Chemscore.Hbonds>
donor molecule, donor type, donor heavy atom, donor atom, acceptor molecule, acceptor atom, score
      L1  H     5    49       P1 10186  1.86
      L1  H    10    31       P1 10175  0.93
      L1  H    12    48       P1  7948  2.00
      P1  H 10752 10765       L1    16  0.91
      L1  C     6    27       P1 10171  1.00

> <Gold.PLP.Chemscore.Internal.Correction>
0.0253

> <Gold.Rescore>
     Score         DG    S(hbond)    S(metal)    S(lipo)     H(rot)  DE(clash)    DE(int)     intcor
     19.14     -20.93       3.48        0.00      92.71       2.74       1.60       0.20       ----

> <Gold.Chemscore.Fitness>
19.1409

> <Gold.Chemscore.DG>
-20.9335

> <Gold.Chemscore.ZeroCoef>
-5.4800

> <Gold.Chemscore.Hbond>
3.4782

> <Gold.Chemscore.Metal>
0.0000

> <Gold.Chemscore.Lipo>
92.7058

> <Gold.Chemscore.Internal_Hbond>
0.0000

> <Gold.Chemscore.DEClash>
1.5963

> <Gold.Chemscore.DEInternal>
0.1963

> <Gold.Chemscore.Rot>
2.7384

> <Gold.Chemscore.Internal.Correction>
   9.000000E+99

> <Gold.Chemscore.Hbonds>
donor molecule, donor type, donor heavy atom, donor atom, acceptor molecule, acceptor atom, score
      L1  H     5    49       P1 10186  0.89
      L1  H    10    31       P1 10175  0.90
      L1  H    12    48       P1  7948  1.00
      P1  H 10752 10765       L1    16  0.26

> <Gold.Chemscore.Hbond.Weighted>
-11.6173

> <Gold.Chemscore.Metal.Weighted>
-0.0000

> <Gold.Chemscore.Lipo.Weighted>
-10.8466

> <Gold.Chemscore.Internal_Hbond.Weighted>
0.0000

> <Gold.Chemscore.DEClash.Weighted>
1.5963

> <Gold.Chemscore.DEInternal.Weighted>
0.1963

> <Gold.Chemscore.Rot.Weighted>
7.0103

> <Gold.Chemscore.Internal.Correction.Weighted>
   9.000000E+99

> <Gold.Protein.RotatedTorsions>
[ 6907 6896 6895 6894 ] final   20.60 input  -60.11 | X-H torsion
[ 7974 7965 7964 7962 ] final   25.16 input  175.53 | X-H torsion
[ 8008 7997 7996 7995 ] final -101.32 input   59.86 | X-H torsion
[ 10167 10162 10161 10158 ] final   70.62 input  -65.29 | X-H torsion
[ 10718 10713 10712 10709 ] final  -74.46 input   66.30 | X-H torsion
[ 10763 10752 10751 10750 ] final -163.58 input  -60.55 | X-H torsion
[ 11005 11000 10999 10996 ] final  107.70 input  -57.11 | X-H torsion

> <Gold.Protein.ActiveResidues>
 VAL166  LYS551  ARG553  GLY616  TRP617  ASP618  TYR619  PRO620  LYS621  CYS622 
 ASP623  PHE694  ASN695  SER759  ASP760  ASP761  ALA762  ILE779  LEU786  VAL792 
 PHE793  MET794  SER795  GLU796  ALA797  LYS798  CYS799  TRP800  GLU811  SER814 

> <Gold.Protein.RotatedAtoms>
  151.8989  135.0386  160.0504 H   0  0  0  0  0  0  0  0  0  0  0  0  # atno 6907 bound_to 6896
  152.2375  133.5103  159.5259 H   0  0  0  0  0  0  0  0  0  0  0  0  # atno 6908 bound_to 6896
  150.7043  134.1051  159.4022 H   0  0  0  0  0  0  0  0  0  0  0  0  # atno 6909 bound_to 6896
  146.1902  139.7505  142.8837 H   0  0  0  0  0  0  0  0  0  0  0  0  # atno 7974 bound_to 7965
  154.8409  140.0435  157.1541 H   0  0  0  0  0  0  0  0  0  0  0  0  # atno 8008 bound_to 7997
  154.9048  140.3005  155.5278 H   0  0  0  0  0  0  0  0  0  0  0  0  # atno 8009 bound_to 7997
  156.2992  140.2369  156.4080 H   0  0  0  0  0  0  0  0  0  0  0  0  # atno 8010 bound_to 7997
  140.0549  144.5281  150.7336 H   0  0  0  0  0  0  0  0  0  0  0  0  # atno 10167 bound_to 10162
  156.0242  130.4417  150.2895 H   0  0  0  0  0  0  0  0  0  0  0  0  # atno 10718 bound_to 10713
  154.7109  135.3006  154.9198 H   0  0  0  0  0  0  0  0  0  0  0  0  # atno 10763 bound_to 10752
  154.0100  135.6696  153.4769 H   0  0  0  0  0  0  0  0  0  0  0  0  # atno 10764 bound_to 10752
  153.0754  135.5037  154.8307 H   0  0  0  0  0  0  0  0  0  0  0  0  # atno 10765 bound_to 10752
  139.8832  134.9409  156.5860 H   0  0  0  0  0  0  0  0  0  0  0  0  # atno 11005 bound_to 11000
  145.3815  141.0359  143.3175 LP  0  0  0  0  0  0  0  0  0  0  0  0  # atno 17320 bound_to 7965
  144.8473  139.5377  143.6873 LP  0  0  0  0  0  0  0  0  0  0  0  0  # atno 17321 bound_to 7965
  140.7199  143.2579  151.4312 LP  0  0  0  0  0  0  0  0  0  0  0  0  # atno 17342 bound_to 10162
  139.5930  144.1459  152.2110 LP  0  0  0  0  0  0  0  0  0  0  0  0  # atno 17343 bound_to 10162
  157.0999  131.0192  151.3089 LP  0  0  0  0  0  0  0  0  0  0  0  0  # atno 17370 bound_to 10713
  157.4788  130.7753  149.7394 LP  0  0  0  0  0  0  0  0  0  0  0  0  # atno 17371 bound_to 10713
  140.7991  133.8520  155.8711 LP  0  0  0  0  0  0  0  0  0  0  0  0  # atno 17394 bound_to 11000
  140.9608  134.1657  157.4655 LP  0  0  0  0  0  0  0  0  0  0  0  0  # atno 17395 bound_to 11000

$$$$
