AV-unprocessed.smi:1271|AV-procd|sdf|5332|dock3
  -GOLD-   22720 4463D 1   1.00000     0.00000
 Structure written by MMmdl.
 35 36  0  0  0  0  0  0  0  0  1 V2000
  151.5788  139.5728  156.4523 C   0  0  0  0  0  0  0  0  0  0  0  0
  150.8820  140.8774  156.8606 C   0  0  2  0  0  0  0  0  0  0  0  0
  150.4761  141.7148  155.6307 C   0  0  0  0  0  0  0  0  0  0  0  0
  149.4712  141.0574  154.8129 N   0  0  0  0  0  0  0  0  0  0  0  0
  148.2777  141.5689  154.3489 C   0  0  0  0  0  0  0  0  0  0  0  0
  147.6622  140.5811  153.6353 C   0  0  0  0  0  0  0  0  0  0  0  0
  148.5731  139.4909  153.7132 C   0  0  0  0  0  0  0  0  0  0  0  0
  149.6569  139.7805  154.4148 N   0  0  0  0  0  0  0  0  0  0  0  0
  151.7739  141.6516  157.7231 N   0  0  0  0  0  0  0  0  0  0  0  0
  152.3739  141.2104  158.8428 C   0  0  0  0  0  0  0  0  0  0  0  0
  152.2936  140.0402  159.2183 O   0  0  0  0  0  0  0  0  0  0  0  0
  153.0902  142.1523  159.5074 N   0  0  0  0  0  0  0  0  0  0  0  0
  153.0923  143.5953  159.2152 C   0  0  0  0  0  0  0  0  0  0  0  0
  152.0546  144.2902  160.1126 C   0  0  0  0  0  0  0  0  0  0  0  0
  152.4844  144.1064  161.8716 S   0  0  0  0  0  0  0  0  0  0  0  0
  152.7726  142.3099  161.9325 C   0  0  0  0  0  0  0  0  0  0  0  0
  153.7168  141.8638  160.8030 C   0  0  0  0  0  0  0  0  0  0  0  0
  150.9310  138.9638  155.8209 H   0  0  0  0  0  0  0  0  0  0  0  0
  151.8386  138.9768  157.3278 H   0  0  0  0  0  0  0  0  0  0  0  0
  152.4968  139.7680  155.8969 H   0  0  0  0  0  0  0  0  0  0  0  0
  149.9736  140.6034  157.3998 H   0  0  0  0  0  0  0  0  0  0  0  0
  150.0895  142.6862  155.9420 H   0  0  0  0  0  0  0  0  0  0  0  0
  151.3471  141.9120  155.0043 H   0  0  0  0  0  0  0  0  0  0  0  0
  147.9654  142.5791  154.5693 H   0  0  0  0  0  0  0  0  0  0  0  0
  146.7071  140.6296  153.1341 H   0  0  0  0  0  0  0  0  0  0  0  0
  148.4797  138.5047  153.2829 H   0  0  0  0  0  0  0  0  0  0  0  0
  151.9112  142.6200  157.4736 H   0  0  0  0  0  0  0  0  0  0  0  0
  154.0832  144.0112  159.4027 H   0  0  0  0  0  0  0  0  0  0  0  0
  152.8893  143.8198  158.1680 H   0  0  0  0  0  0  0  0  0  0  0  0
  151.9954  145.3525  159.8761 H   0  0  0  0  0  0  0  0  0  0  0  0
  151.0633  143.8693  159.9449 H   0  0  0  0  0  0  0  0  0  0  0  0
  153.1958  142.0558  162.9044 H   0  0  0  0  0  0  0  0  0  0  0  0
  151.8157  141.7922  161.8559 H   0  0  0  0  0  0  0  0  0  0  0  0
  153.9548  140.8045  160.9106 H   0  0  0  0  0  0  0  0  0  0  0  0
  154.6725  142.3835  160.8836 H   0  0  0  0  0  0  0  0  0  0  0  0
  1  2  1  0  0  0  0
  1 18  1  0  0  0  0
  1 19  1  0  0  0  0
  1 20  1  0  0  0  0
  2  3  1  0  0  0  0
  2  9  1  0  0  0  0
  2 21  1  0  0  0  0
  3  4  1  0  0  0  0
  3 22  1  0  0  0  0
  3 23  1  0  0  0  0
  4  8  1  0  0  0  0
  4  5  1  0  0  0  0
  5  6  2  0  0  0  0
  5 24  1  0  0  0  0
  6  7  1  0  0  0  0
  6 25  1  0  0  0  0
  7  8  2  0  0  0  0
  7 26  1  0  0  0  0
  9 10  1  0  0  0  0
  9 27  1  0  0  0  0
 10 11  2  0  0  0  0
 10 12  1  0  0  0  0
 12 17  1  0  0  0  0
 12 13  1  0  0  0  0
 13 14  1  0  0  0  0
 13 28  1  0  0  0  0
 13 29  1  0  0  0  0
 14 15  1  0  0  0  0
 14 30  1  0  0  0  0
 14 31  1  0  0  0  0
 15 16  1  0  0  0  0
 16 17  1  0  0  0  0
 16 32  1  0  0  0  0
 16 33  1  0  0  0  0
 17 34  1  0  0  0  0
 17 35  1  0  0  0  0
M  END
> <s_m_source_file>
AV-unprocessed.smi

> <i_m_source_file_index>
1271

> <i_lp_mmshare_version>
43012

> <i_f3d_flags>
0

> <s_epik_input>
bjFbY0hdW2NIXVtjSF1uMVtDSDJdW0NAQEhdKFtDSDNdKVtOSF1DKD1PKU4yW0NIMl1bQ0gyXVNbQ0gyXVtDSDJdMg==

> <s_epik_cmdline>
J2VwaWtfcHl0aG9uJywgJy1waCcsICc3LjAnLCAnLXRuJywgJzgnLCAnLW1hJywgJzIwMCcsICctbWV0YWxfYmluZGluZycsICctaW1hZScsICc8aW5maWxlLm1hZT4nLCAnLW9tYWUnLCAnPG91dGZpbGUubWFlPic=

> <r_lp_tautomer_probability>
1

> <r_epik_Ionization_Penalty>
5.86346e-05

> <r_epik_Ionization_Penalty_Charging>
0

> <r_epik_Ionization_Penalty_Neutral>
5.86346e-05

> <r_epik_State_Penalty>
-0

> <r_epik_Charging_Adjusted_Penalty>
0

> <i_epik_Tot_Q>
0

> <i_epik_Tot_abs_Q>
0

> <r_epik_Metal_State_Penalty>
-0

> <b_epik_Metal_Only>
0

> <s_lp_Force_Field>
OPLS_2005

> <r_lp_Energy>
22.4021

> <b_lp_Chiralities_Consistent>
1

> <s_lp_Variant>
AV-unprocessed.smi:1271-1

> <Gold.Version>
5.8.1

> <Gold.Id.Protein>
6NUR|6NUR_protein|mol2

> <Gold.PLP.Fitness>
45.0720

> <Gold.PLP.PLP>
-40.8741

> <Gold.PLP.part.hbond>
0.0000

> <Gold.PLP.part.metal>
0.0000

> <Gold.PLP.part.buried>
-1.6265

> <Gold.PLP.part.nonpolar>
-37.7471

> <Gold.PLP.part.repulsive>
0.1897

> <Gold.PLP.ligand.clash>
0.0000

> <Gold.PLP.ligand.torsion>
0.1516

> <Gold.PLP.Chemscore.Hbond>
0.0000

> <Gold.PLP.Chemscore.CHOScore>
1.4800

> <Gold.PLP.Chemscore.Metal>
0.0000

> <Gold.Chemscore.Hbonds>
donor molecule, donor type, donor heavy atom, donor atom, acceptor molecule, acceptor atom, score
      L1  C     5    24       P1  8028  0.97
      L1  C     7    26       P1  7948  0.57

> <Gold.PLP.Chemscore.Internal.Correction>
0.0611

> <Gold.Rescore>
     Score         DG    S(hbond)    S(metal)    S(lipo)     H(rot)  DE(clash)    DE(int)     intcor
     10.98     -13.48       0.00        0.00      99.16       1.41       0.03       2.47       ----

> <Gold.Chemscore.Fitness>
10.9820

> <Gold.Chemscore.DG>
-13.4799

> <Gold.Chemscore.ZeroCoef>
-5.4800

> <Gold.Chemscore.Hbond>
0.0000

> <Gold.Chemscore.Metal>
0.0000

> <Gold.Chemscore.Lipo>
99.1590

> <Gold.Chemscore.Internal_Hbond>
0.0000

> <Gold.Chemscore.DEClash>
0.0285

> <Gold.Chemscore.DEInternal>
2.4694

> <Gold.Chemscore.Rot>
1.4069

> <Gold.Chemscore.Internal.Correction>
   9.000000E+99

> <Gold.Chemscore.Hbond.Weighted>
-0.0000

> <Gold.Chemscore.Metal.Weighted>
-0.0000

> <Gold.Chemscore.Lipo.Weighted>
-11.6016

> <Gold.Chemscore.Internal_Hbond.Weighted>
0.0000

> <Gold.Chemscore.DEClash.Weighted>
0.0285

> <Gold.Chemscore.DEInternal.Weighted>
2.4694

> <Gold.Chemscore.Rot.Weighted>
3.6017

> <Gold.Chemscore.Internal.Correction.Weighted>
   9.000000E+99

> <Gold.Protein.RotatedTorsions>
[ 6907 6896 6895 6894 ] final   26.37 input  -60.11 | X-H torsion
[ 7974 7965 7964 7962 ] final  175.62 input  175.53 | X-H torsion
[ 8008 7997 7996 7995 ] final  160.39 input   59.86 | X-H torsion
[ 10167 10162 10161 10158 ] final  -40.26 input  -65.29 | X-H torsion
[ 10718 10713 10712 10709 ] final   89.95 input   66.30 | X-H torsion
[ 10763 10752 10751 10750 ] final   32.16 input  -60.55 | X-H torsion
[ 11005 11000 10999 10996 ] final  -85.92 input  -57.11 | X-H torsion

> <Gold.Protein.ActiveResidues>
 VAL166  LYS551  ARG553  GLY616  TRP617  ASP618  TYR619  PRO620  LYS621  CYS622 
 ASP623  PHE694  ASN695  SER759  ASP760  ASP761  ALA762  ILE779  LEU786  VAL792 
 PHE793  MET794  SER795  GLU796  ALA797  LYS798  CYS799  TRP800  GLU811  SER814 

> <Gold.Protein.RotatedAtoms>
  151.9865  135.0001  160.0559 H   0  0  0  0  0  0  0  0  0  0  0  0  # atno 6907 bound_to 6896
  152.1648  133.4600  159.4887 H   0  0  0  0  0  0  0  0  0  0  0  0  # atno 6908 bound_to 6896
  150.6893  134.1944  159.4341 H   0  0  0  0  0  0  0  0  0  0  0  0  # atno 6909 bound_to 6896
  144.7198  139.9975  143.6440 H   0  0  0  0  0  0  0  0  0  0  0  0  # atno 7974 bound_to 7965
  156.2175  140.1805  156.7554 H   0  0  0  0  0  0  0  0  0  0  0  0  # atno 8008 bound_to 7997
  154.5814  140.0665  156.9139 H   0  0  0  0  0  0  0  0  0  0  0  0  # atno 8009 bound_to 7997
  155.2495  140.3328  155.4286 H   0  0  0  0  0  0  0  0  0  0  0  0  # atno 8010 bound_to 7997
  140.7040  143.3164  151.2898 H   0  0  0  0  0  0  0  0  0  0  0  0  # atno 10167 bound_to 10162
  157.6957  131.0352  150.3503 H   0  0  0  0  0  0  0  0  0  0  0  0  # atno 10718 bound_to 10713
  153.0277  135.6420  154.1311 H   0  0  0  0  0  0  0  0  0  0  0  0  # atno 10763 bound_to 10752
  154.1038  135.2857  155.3247 H   0  0  0  0  0  0  0  0  0  0  0  0  # atno 10764 bound_to 10752
  154.6380  135.5469  153.7819 H   0  0  0  0  0  0  0  0  0  0  0  0  # atno 10765 bound_to 10752
  141.1636  133.7426  156.9086 H   0  0  0  0  0  0  0  0  0  0  0  0  # atno 11005 bound_to 11000
  146.0362  139.3380  143.0725 LP  0  0  0  0  0  0  0  0  0  0  0  0  # atno 17320 bound_to 7965
  145.8391  140.9590  143.0808 LP  0  0  0  0  0  0  0  0  0  0  0  0  # atno 17321 bound_to 7965
  139.6604  144.0199  152.2688 LP  0  0  0  0  0  0  0  0  0  0  0  0  # atno 17342 bound_to 10162
  139.9765  144.6458  150.7941 LP  0  0  0  0  0  0  0  0  0  0  0  0  # atno 17343 bound_to 10162
  156.3952  130.3905  149.7000 LP  0  0  0  0  0  0  0  0  0  0  0  0  # atno 17370 bound_to 10713
  156.4336  130.7827  151.2847 LP  0  0  0  0  0  0  0  0  0  0  0  0  # atno 17371 bound_to 10713
  140.1532  134.9216  157.2620 LP  0  0  0  0  0  0  0  0  0  0  0  0  # atno 17394 bound_to 11000
  140.2698  134.3474  155.7377 LP  0  0  0  0  0  0  0  0  0  0  0  0  # atno 17395 bound_to 11000

$$$$
