AV-unprocessed.smi:2735|AV-procd|sdf|10542|dock1
  -GOLD-   2272014593D 1   1.00000     0.00000
 Structure written by MMmdl.
 42 42  0  0  0  0  0  0  0  0  2 V2000
  155.0194  139.7770  160.3534 C   0  0  0  0  0  0  0  0  0  0  0  0
  154.1957  140.9974  160.6413 C   0  0  0  0  0  0  0  0  0  0  0  0
  154.0045  141.6563  161.8866 C   0  0  0  0  0  0  0  0  0  0  0  0
  153.1619  142.6917  161.5955 C   0  0  0  0  0  0  0  0  0  0  0  0
  152.5753  143.7269  162.4990 C   0  0  0  0  0  0  0  0  0  0  0  0
  152.9002  142.6336  160.2354 N   0  0  0  0  0  0  0  0  0  0  0  0
  152.0054  143.4709  159.4334 C   0  0  1  0  0  0  0  0  0  0  0  0
  152.7845  144.4330  158.5123 C   0  0  0  0  0  0  0  0  0  0  0  0
  150.9972  142.5916  158.6727 C   0  0  0  0  0  0  0  0  0  0  0  0
  149.7873  142.6828  158.8837 O   0  0  0  0  0  0  0  0  0  0  0  0
  151.5247  141.7468  157.7733 N   0  0  0  0  0  0  0  0  0  0  0  0
  150.7828  140.8710  156.8711 C   0  0  1  0  0  0  0  0  0  0  0  0
  149.9710  141.7497  155.8880 C   0  0  0  0  0  0  0  0  0  0  0  0
  149.0658  140.9734  154.9010 C   0  0  0  0  0  0  0  0  0  0  0  0
  147.9636  141.8534  154.2893 C   0  0  0  0  0  0  0  0  0  0  0  0
  148.4545  139.7409  155.5839 C   0  0  0  0  0  0  0  0  0  0  0  0
  151.7663  140.0124  156.0598 C   0  0  0  0  0  0  0  0  0  0  0  0
  152.6152  139.3609  156.7067 O   0  0  0  0  0  0  0  0  0  0  0  0
  151.6527  140.0127  154.8128 O   0  5  0  0  0  0  0  0  0  0  0  0
  153.5321  141.5835  159.6599 N   0  0  0  0  0  0  0  0  0  0  0  0
  150.1129  140.2176  157.4324 H   0  0  0  0  0  0  0  0  0  0  0  0
  155.1389  139.1656  161.2477 H   0  0  0  0  0  0  0  0  0  0  0  0
  156.0141  140.0509  160.0021 H   0  0  0  0  0  0  0  0  0  0  0  0
  154.5541  139.1537  159.5889 H   0  0  0  0  0  0  0  0  0  0  0  0
  154.4147  141.3999  162.8521 H   0  0  0  0  0  0  0  0  0  0  0  0
  152.9064  143.5785  163.5269 H   0  0  0  0  0  0  0  0  0  0  0  0
  151.4862  143.6806  162.4907 H   0  0  0  0  0  0  0  0  0  0  0  0
  152.8773  144.7282  162.1917 H   0  0  0  0  0  0  0  0  0  0  0  0
  151.4248  144.0898  160.1177 H   0  0  0  0  0  0  0  0  0  0  0  0
  152.1083  145.1096  157.9888 H   0  0  0  0  0  0  0  0  0  0  0  0
  153.3655  143.8985  157.7593 H   0  0  0  0  0  0  0  0  0  0  0  0
  153.4765  145.0470  159.0894 H   0  0  0  0  0  0  0  0  0  0  0  0
  152.5295  141.7263  157.6842 H   0  0  0  0  0  0  0  0  0  0  0  0
  149.3421  142.4395  156.4542 H   0  0  0  0  0  0  0  0  0  0  0  0
  150.6594  142.3764  155.3185 H   0  0  0  0  0  0  0  0  0  0  0  0
  149.6815  140.6016  154.0813 H   0  0  0  0  0  0  0  0  0  0  0  0
  147.3374  142.2995  155.0624 H   0  0  0  0  0  0  0  0  0  0  0  0
  147.3175  141.2704  153.6322 H   0  0  0  0  0  0  0  0  0  0  0  0
  148.3831  142.6603  153.6886 H   0  0  0  0  0  0  0  0  0  0  0  0
  147.8103  140.0270  156.4158 H   0  0  0  0  0  0  0  0  0  0  0  0
  149.2307  139.0823  155.9748 H   0  0  0  0  0  0  0  0  0  0  0  0
  147.8550  139.1593  154.8831 H   0  0  0  0  0  0  0  0  0  0  0  0
  1  2  1  0  0  0  0
  1 22  1  0  0  0  0
  1 23  1  0  0  0  0
  1 24  1  0  0  0  0
  2 20  2  0  0  0  0
  2  3  1  0  0  0  0
  3  4  2  0  0  0  0
  3 25  1  0  0  0  0
  4  5  1  0  0  0  0
  4  6  1  0  0  0  0
  5 26  1  0  0  0  0
  5 27  1  0  0  0  0
  5 28  1  0  0  0  0
  6  7  1  0  0  0  0
  6 20  1  0  0  0  0
  7  8  1  0  0  0  0
  7  9  1  0  0  0  0
  7 29  1  0  0  0  0
  8 30  1  0  0  0  0
  8 31  1  0  0  0  0
  8 32  1  0  0  0  0
  9 10  2  0  0  0  0
  9 11  1  0  0  0  0
 11 12  1  0  0  0  0
 11 33  1  0  0  0  0
 12 21  1  0  0  0  0
 12 13  1  0  0  0  0
 12 17  1  0  0  0  0
 13 14  1  0  0  0  0
 13 34  1  0  0  0  0
 13 35  1  0  0  0  0
 14 15  1  0  0  0  0
 14 16  1  0  0  0  0
 14 36  1  0  0  0  0
 15 37  1  0  0  0  0
 15 38  1  0  0  0  0
 15 39  1  0  0  0  0
 16 40  1  0  0  0  0
 16 41  1  0  0  0  0
 16 42  1  0  0  0  0
 17 18  2  0  0  0  0
 17 19  1  0  0  0  0
M  CHG  1  19  -1
M  END
> <s_m_source_file>
AV-unprocessed.smi

> <i_m_source_file_index>
2735

> <i_lp_mmshare_version>
43012

> <i_f3d_flags>
0

> <s_epik_input>
W0NIM11jMVtjSF1jKFtDSDNdKW4objEpW0NASF0oW0NIM10pQyg9TylbTkhdW0NASF0oQyg9TylbT0hdKVtDSDJdW0NIXShbQ0gzXSlbQ0gzXQ==

> <s_epik_cmdline>
J2VwaWtfcHl0aG9uJywgJy1waCcsICc3LjAnLCAnLXRuJywgJzgnLCAnLW1hJywgJzIwMCcsICctbWV0YWxfYmluZGluZycsICctaW1hZScsICc8aW5maWxlLm1hZT4nLCAnLW9tYWUnLCAnPG91dGZpbGUubWFlPic=

> <r_lp_tautomer_probability>
1

> <r_epik_Ionization_Penalty>
0.0012303

> <r_epik_Ionization_Penalty_Charging>
0.000186407

> <r_epik_Ionization_Penalty_Neutral>
0.0010439

> <r_epik_State_Penalty>
-0

> <r_epik_Charging_Adjusted_Penalty>
0.000186407

> <i_epik_Tot_Q>
-1

> <i_epik_Tot_abs_Q>
1

> <r_epik_Metal_State_Penalty>
-0

> <b_epik_Metal_Only>
0

> <s_lp_Force_Field>
OPLS_2005

> <r_lp_Energy>
6.48876

> <b_lp_Chiralities_Consistent>
1

> <s_lp_Variant>
AV-unprocessed.smi:2735-2

> <Gold.Version>
5.8.1

> <Gold.Id.Protein>
6NUR|6NUR_protein|mol2

> <Gold.PLP.Fitness>
56.2260

> <Gold.PLP.PLP>
-48.1508

> <Gold.PLP.part.hbond>
-1.8437

> <Gold.PLP.part.metal>
0.0000

> <Gold.PLP.part.buried>
-3.1406

> <Gold.PLP.part.nonpolar>
-41.4419

> <Gold.PLP.part.repulsive>
0.2482

> <Gold.PLP.ligand.clash>
0.0000

> <Gold.PLP.ligand.torsion>
0.5918

> <Gold.PLP.Chemscore.Hbond>
2.9920

> <Gold.PLP.Chemscore.CHOScore>
0.0000

> <Gold.PLP.Chemscore.Metal>
0.0000

> <Gold.Chemscore.Hbonds>
donor molecule, donor type, donor heavy atom, donor atom, acceptor molecule, acceptor atom, score
      P1  H  7989  7998       L1    19  1.00
      P1  H  7997  8008       L1    18  2.00

> <Gold.PLP.Chemscore.Internal.Correction>
0.2829

> <Gold.Rescore>
     Score         DG    S(hbond)    S(metal)    S(lipo)     H(rot)  DE(clash)    DE(int)     intcor
     16.11     -19.02       1.94        0.00     109.37       2.24       0.08       2.84       ----

> <Gold.Chemscore.Fitness>
16.1070

> <Gold.Chemscore.DG>
-19.0249

> <Gold.Chemscore.ZeroCoef>
-5.4800

> <Gold.Chemscore.Hbond>
1.9401

> <Gold.Chemscore.Metal>
0.0000

> <Gold.Chemscore.Lipo>
109.3706

> <Gold.Chemscore.Internal_Hbond>
0.0000

> <Gold.Chemscore.DEClash>
0.0820

> <Gold.Chemscore.DEInternal>
2.8359

> <Gold.Chemscore.Rot>
2.2388

> <Gold.Chemscore.Internal.Correction>
   9.000000E+99

> <Gold.Chemscore.Hbonds>
donor molecule, donor type, donor heavy atom, donor atom, acceptor molecule, acceptor atom, score
      P1  H  7989  7998       L1    19  0.93
      P1  H  7997  8008       L1    18  0.92

> <Gold.Chemscore.Hbond.Weighted>
-6.4799

> <Gold.Chemscore.Metal.Weighted>
-0.0000

> <Gold.Chemscore.Lipo.Weighted>
-12.7964

> <Gold.Chemscore.Internal_Hbond.Weighted>
0.0000

> <Gold.Chemscore.DEClash.Weighted>
0.0820

> <Gold.Chemscore.DEInternal.Weighted>
2.8359

> <Gold.Chemscore.Rot.Weighted>
5.7314

> <Gold.Chemscore.Internal.Correction.Weighted>
   9.000000E+99

> <Gold.Protein.RotatedTorsions>
[ 6907 6896 6895 6894 ] final  -51.04 input  -60.11 | X-H torsion
[ 7974 7965 7964 7962 ] final  -81.01 input  175.53 | X-H torsion
[ 8008 7997 7996 7995 ] final  -72.78 input   59.86 | X-H torsion
[ 10167 10162 10161 10158 ] final   69.57 input  -65.29 | X-H torsion
[ 10718 10713 10712 10709 ] final  -30.53 input   66.30 | X-H torsion
[ 10763 10752 10751 10750 ] final  154.18 input  -60.55 | X-H torsion
[ 11005 11000 10999 10996 ] final   92.69 input  -57.11 | X-H torsion

> <Gold.Protein.ActiveResidues>
 VAL166  LYS551  ARG553  GLY616  TRP617  ASP618  TYR619  PRO620  LYS621  CYS622 
 ASP623  PHE694  ASN695  SER759  ASP760  ASP761  ALA762  ILE779  LEU786  VAL792 
 PHE793  MET794  SER795  GLU796  ALA797  LYS798  CYS799  TRP800  GLU811  SER814 

> <Gold.Protein.RotatedAtoms>
  150.8649  134.8010  159.7110 H   0  0  0  0  0  0  0  0  0  0  0  0  # atno 6907 bound_to 6896
  152.4674  134.5039  159.9743 H   0  0  0  0  0  0  0  0  0  0  0  0  # atno 6908 bound_to 6896
  151.5137  133.3441  159.2925 H   0  0  0  0  0  0  0  0  0  0  0  0  # atno 6909 bound_to 6896
  145.5523  140.9495  143.1492 H   0  0  0  0  0  0  0  0  0  0  0  0  # atno 7974 bound_to 7965
  154.5194  140.0791  156.8143 H   0  0  0  0  0  0  0  0  0  0  0  0  # atno 8008 bound_to 7997
  155.3609  140.3418  155.4222 H   0  0  0  0  0  0  0  0  0  0  0  0  # atno 8009 bound_to 7997
  156.1664  140.1605  156.8511 H   0  0  0  0  0  0  0  0  0  0  0  0  # atno 8010 bound_to 7997
  140.0664  144.5189  150.7258 H   0  0  0  0  0  0  0  0  0  0  0  0  # atno 10167 bound_to 10162
  156.3986  130.4386  149.7339 H   0  0  0  0  0  0  0  0  0  0  0  0  # atno 10718 bound_to 10713
  154.1482  135.2816  155.3142 H   0  0  0  0  0  0  0  0  0  0  0  0  # atno 10763 bound_to 10752
  154.6237  135.5459  153.7606 H   0  0  0  0  0  0  0  0  0  0  0  0  # atno 10764 bound_to 10752
  153.0229  135.6445  154.1627 H   0  0  0  0  0  0  0  0  0  0  0  0  # atno 10765 bound_to 10752
  139.8820  134.8747  156.3609 H   0  0  0  0  0  0  0  0  0  0  0  0  # atno 11005 bound_to 11000
  144.7523  139.7162  143.7268 LP  0  0  0  0  0  0  0  0  0  0  0  0  # atno 17320 bound_to 7965
  146.1908  139.5147  142.9806 LP  0  0  0  0  0  0  0  0  0  0  0  0  # atno 17321 bound_to 7965
  140.7147  143.2534  151.4472 LP  0  0  0  0  0  0  0  0  0  0  0  0  # atno 17342 bound_to 10162
  139.5862  144.1599  152.2032 LP  0  0  0  0  0  0  0  0  0  0  0  0  # atno 17343 bound_to 10162
  156.4364  130.7840  151.2861 LP  0  0  0  0  0  0  0  0  0  0  0  0  # atno 17370 bound_to 10713
  157.7503  131.0138  150.3439 LP  0  0  0  0  0  0  0  0  0  0  0  0  # atno 17371 bound_to 10713
  140.9530  133.7438  156.0298 LP  0  0  0  0  0  0  0  0  0  0  0  0  # atno 17394 bound_to 11000
  140.8082  134.3430  157.5419 LP  0  0  0  0  0  0  0  0  0  0  0  0  # atno 17395 bound_to 11000

$$$$
