AV-unprocessed.smi:340|AV-procd|sdf|2380|dock8
  -GOLD-   2262022303D 1   1.00000     0.00000
 Structure written by MMmdl.
 35 36  0  0  0  0  0  0  0  0  1 V2000
  156.5269  135.4874  158.3677 C   0  0  0  0  0  0  0  0  0  0  0  0
  154.7031  135.4406  158.6062 S   0  0  0  0  0  0  0  0  0  0  0  0
  154.0968  134.9607  157.3554 O   0  0  0  0  0  0  0  0  0  0  0  0
  154.4067  134.7722  159.8826 O   0  0  0  0  0  0  0  0  0  0  0  0
  154.2871  137.1095  158.7652 N   0  0  0  0  0  0  0  0  0  0  0  0
  154.1120  137.7734  160.0581 C   0  0  0  0  0  0  0  0  0  0  0  0
  153.6752  139.2199  159.9359 C   0  0  0  0  0  0  0  0  0  0  0  0
  154.4224  140.2539  160.5319 C   0  0  0  0  0  0  0  0  0  0  0  0
  153.9676  141.5805  160.4096 C   0  0  0  0  0  0  0  0  0  0  0  0
  152.7761  141.8391  159.6902 C   0  0  0  0  0  0  0  0  0  0  0  0
  152.2994  143.1615  159.5581 N   0  0  0  0  0  0  0  0  0  0  0  0
  151.9131  143.8245  160.8015 C   0  0  0  0  0  0  0  0  0  0  0  0
  151.1292  145.1137  160.5001 C   0  0  0  0  0  0  0  0  0  0  0  0
  151.8915  145.9526  159.6385 O   0  0  0  0  0  0  0  0  0  0  0  0
  152.1589  145.3248  158.3889 C   0  0  0  0  0  0  0  0  0  0  0  0
  152.9838  144.0474  158.6179 C   0  0  0  0  0  0  0  0  0  0  0  0
  152.0596  140.8375  159.1213 N   0  0  0  0  0  0  0  0  0  0  0  0
  152.5006  139.5675  159.2394 C   0  0  0  0  0  0  0  0  0  0  0  0
  156.8902  134.4785  158.1740 H   0  0  0  0  0  0  0  0  0  0  0  0
  157.0110  135.8726  159.2640 H   0  0  0  0  0  0  0  0  0  0  0  0
  156.7686  136.1272  157.5193 H   0  0  0  0  0  0  0  0  0  0  0  0
  153.9638  137.5922  157.9269 H   0  0  0  0  0  0  0  0  0  0  0  0
  153.3597  137.2295  160.6296 H   0  0  0  0  0  0  0  0  0  0  0  0
  155.0419  137.7048  160.6240 H   0  0  0  0  0  0  0  0  0  0  0  0
  155.3248  140.0344  161.0834 H   0  0  0  0  0  0  0  0  0  0  0  0
  154.5246  142.3763  160.8811 H   0  0  0  0  0  0  0  0  0  0  0  0
  151.3038  143.1792  161.4324 H   0  0  0  0  0  0  0  0  0  0  0  0
  152.8148  144.0613  161.3678 H   0  0  0  0  0  0  0  0  0  0  0  0
  150.1651  144.8844  160.0430 H   0  0  0  0  0  0  0  0  0  0  0  0
  150.9221  145.6511  161.4255 H   0  0  0  0  0  0  0  0  0  0  0  0
  151.2229  145.0970  157.8760 H   0  0  0  0  0  0  0  0  0  0  0  0
  152.7097  146.0182  157.7533 H   0  0  0  0  0  0  0  0  0  0  0  0
  153.9673  144.3042  159.0138 H   0  0  0  0  0  0  0  0  0  0  0  0
  153.1369  143.5410  157.6640 H   0  0  0  0  0  0  0  0  0  0  0  0
  151.8907  138.8074  158.7732 H   0  0  0  0  0  0  0  0  0  0  0  0
  1  2  1  0  0  0  0
  1 19  1  0  0  0  0
  1 20  1  0  0  0  0
  1 21  1  0  0  0  0
  2  3  2  0  0  0  0
  2  4  2  0  0  0  0
  2  5  1  0  0  0  0
  5  6  1  0  0  0  0
  5 22  1  0  0  0  0
  6  7  1  0  0  0  0
  6 23  1  0  0  0  0
  6 24  1  0  0  0  0
  7 18  1  0  0  0  0
  7  8  2  0  0  0  0
  8  9  1  0  0  0  0
  8 25  1  0  0  0  0
  9 10  2  0  0  0  0
  9 26  1  0  0  0  0
 10 11  1  0  0  0  0
 10 17  1  0  0  0  0
 11 16  1  0  0  0  0
 11 12  1  0  0  0  0
 12 13  1  0  0  0  0
 12 27  1  0  0  0  0
 12 28  1  0  0  0  0
 13 14  1  0  0  0  0
 13 29  1  0  0  0  0
 13 30  1  0  0  0  0
 14 15  1  0  0  0  0
 15 16  1  0  0  0  0
 15 31  1  0  0  0  0
 15 32  1  0  0  0  0
 16 33  1  0  0  0  0
 16 34  1  0  0  0  0
 17 18  2  0  0  0  0
 18 35  1  0  0  0  0
M  END
> <s_m_source_file>
AV-unprocessed.smi

> <i_m_source_file_index>
340

> <i_lp_mmshare_version>
43012

> <i_f3d_flags>
0

> <s_epik_input>
W0NIM11TKD1PKSg9TylbTkhdW0NIMl1jMVtjSF1bY0hdYyhuW2NIXTEpTjJbQ0gyXVtDSDJdT1tDSDJdW0NIMl0y

> <s_epik_cmdline>
J2VwaWtfcHl0aG9uJywgJy1waCcsICc3LjAnLCAnLXRuJywgJzgnLCAnLW1hJywgJzIwMCcsICctbWV0YWxfYmluZGluZycsICctaW1hZScsICc8aW5maWxlLm1hZT4nLCAnLW9tYWUnLCAnPG91dGZpbGUubWFlPic=

> <r_lp_tautomer_probability>
1

> <r_epik_Ionization_Penalty>
0.00676355

> <r_epik_Ionization_Penalty_Charging>
0

> <r_epik_Ionization_Penalty_Neutral>
0.00676355

> <r_epik_State_Penalty>
0.00499739

> <r_epik_Charging_Adjusted_Penalty>
0.00499739

> <i_epik_Tot_Q>
0

> <i_epik_Tot_abs_Q>
0

> <r_epik_Metal_State_Penalty>
0.025736

> <b_epik_Metal_Only>
0

> <s_lp_Force_Field>
OPLS_2005

> <r_lp_Energy>
12.1718

> <b_lp_Chiralities_Consistent>
1

> <s_lp_Variant>
AV-unprocessed.smi:340-1

> <Gold.Version>
5.8.1

> <Gold.Id.Protein>
6NUR|6NUR_protein|mol2

> <Gold.PLP.Fitness>
39.3499

> <Gold.PLP.PLP>
-33.4494

> <Gold.PLP.part.hbond>
-3.0000

> <Gold.PLP.part.metal>
0.0000

> <Gold.PLP.part.buried>
-5.5702

> <Gold.PLP.part.nonpolar>
-25.2437

> <Gold.PLP.part.repulsive>
0.2507

> <Gold.PLP.ligand.clash>
0.0000

> <Gold.PLP.ligand.torsion>
0.7259

> <Gold.PLP.Chemscore.Hbond>
2.0000

> <Gold.PLP.Chemscore.CHOScore>
0.0000

> <Gold.PLP.Chemscore.Metal>
0.0000

> <Gold.Chemscore.Hbonds>
donor molecule, donor type, donor heavy atom, donor atom, acceptor molecule, acceptor atom, score
      P1  H  6896  6909       L1     4  1.00
      P1  H 10752 10764       L1     3  1.00

> <Gold.PLP.Chemscore.Internal.Correction>
1.3524

> <Gold.Rescore>
     Score         DG    S(hbond)    S(metal)    S(lipo)     H(rot)  DE(clash)    DE(int)     intcor
     17.48     -18.27       2.00        0.00      87.10       1.59       0.09       0.69       ----

> <Gold.Chemscore.Fitness>
17.4797

> <Gold.Chemscore.DG>
-18.2655

> <Gold.Chemscore.ZeroCoef>
-5.4800

> <Gold.Chemscore.Hbond>
1.9972

> <Gold.Chemscore.Metal>
0.0000

> <Gold.Chemscore.Lipo>
87.0984

> <Gold.Chemscore.Internal_Hbond>
0.0000

> <Gold.Chemscore.DEClash>
0.0926

> <Gold.Chemscore.DEInternal>
0.6931

> <Gold.Chemscore.Rot>
1.5921

> <Gold.Chemscore.Internal.Correction>
   9.000000E+99

> <Gold.Chemscore.Hbonds>
donor molecule, donor type, donor heavy atom, donor atom, acceptor molecule, acceptor atom, score
      P1  H  6896  6909       L1     4  0.69
      P1  H 10752 10764       L1     3  0.98

> <Gold.Chemscore.Hbond.Weighted>
-6.6706

> <Gold.Chemscore.Metal.Weighted>
-0.0000

> <Gold.Chemscore.Lipo.Weighted>
-10.1905

> <Gold.Chemscore.Internal_Hbond.Weighted>
0.0000

> <Gold.Chemscore.DEClash.Weighted>
0.0926

> <Gold.Chemscore.DEInternal.Weighted>
0.6931

> <Gold.Chemscore.Rot.Weighted>
4.0757

> <Gold.Chemscore.Internal.Correction.Weighted>
   9.000000E+99

> <Gold.Protein.RotatedTorsions>
[ 6907 6896 6895 6894 ] final -145.02 input  -60.11 | X-H torsion
[ 7974 7965 7964 7962 ] final  101.08 input  175.53 | X-H torsion
[ 8008 7997 7996 7995 ] final -116.01 input   59.86 | X-H torsion
[ 10167 10162 10161 10158 ] final    3.42 input  -65.29 | X-H torsion
[ 10718 10713 10712 10709 ] final   31.94 input   66.30 | X-H torsion
[ 10763 10752 10751 10750 ] final   22.27 input  -60.55 | X-H torsion
[ 11005 11000 10999 10996 ] final -155.43 input  -57.11 | X-H torsion

> <Gold.Protein.ActiveResidues>
 VAL166  LYS551  ARG553  GLY616  TRP617  ASP618  TYR619  PRO620  LYS621  CYS622 
 ASP623  PHE694  ASN695  SER759  ASP760  ASP761  ALA762  ILE779  LEU786  VAL792 
 PHE793  MET794  SER795  GLU796  ALA797  LYS798  CYS799  TRP800  GLU811  SER814 

> <Gold.Protein.RotatedAtoms>
  151.1220  133.5097  159.2601 H   0  0  0  0  0  0  0  0  0  0  0  0  # atno 6907 bound_to 6896
  151.1851  135.0377  159.8819 H   0  0  0  0  0  0  0  0  0  0  0  0  # atno 6908 bound_to 6896
  152.5456  134.1067  159.8394 H   0  0  0  0  0  0  0  0  0  0  0  0  # atno 6909 bound_to 6896
  145.3770  139.2387  143.3424 H   0  0  0  0  0  0  0  0  0  0  0  0  # atno 7974 bound_to 7965
  155.0611  140.0393  157.2577 H   0  0  0  0  0  0  0  0  0  0  0  0  # atno 8008 bound_to 7997
  154.7059  140.2683  155.6651 H   0  0  0  0  0  0  0  0  0  0  0  0  # atno 8009 bound_to 7997
  156.2775  140.2731  156.1685 H   0  0  0  0  0  0  0  0  0  0  0  0  # atno 8010 bound_to 7997
  140.6587  143.7361  150.7699 H   0  0  0  0  0  0  0  0  0  0  0  0  # atno 10167 bound_to 10162
  157.2789  130.7245  149.6545 H   0  0  0  0  0  0  0  0  0  0  0  0  # atno 10718 bound_to 10713
  153.0929  135.6651  153.9820 H   0  0  0  0  0  0  0  0  0  0  0  0  # atno 10763 bound_to 10752
  153.9411  135.2994  155.3444 H   0  0  0  0  0  0  0  0  0  0  0  0  # atno 10764 bound_to 10752
  154.7345  135.5108  153.9092 H   0  0  0  0  0  0  0  0  0  0  0  0  # atno 10765 bound_to 10752
  140.6866  134.4087  157.5222 H   0  0  0  0  0  0  0  0  0  0  0  0  # atno 11005 bound_to 11000
  146.2859  140.4431  142.8758 LP  0  0  0  0  0  0  0  0  0  0  0  0  # atno 17320 bound_to 7965
  144.8535  140.7035  143.6153 LP  0  0  0  0  0  0  0  0  0  0  0  0  # atno 17321 bound_to 7965
  140.1026  143.4774  152.2417 LP  0  0  0  0  0  0  0  0  0  0  0  0  # atno 17342 bound_to 10162
  139.5815  144.7512  151.3628 LP  0  0  0  0  0  0  0  0  0  0  0  0  # atno 17343 bound_to 10162
  155.9664  130.4344  150.5048 LP  0  0  0  0  0  0  0  0  0  0  0  0  # atno 17370 bound_to 10713
  157.2988  131.0641  151.2083 LP  0  0  0  0  0  0  0  0  0  0  0  0  # atno 17371 bound_to 10713
  139.8936  134.8727  156.2217 LP  0  0  0  0  0  0  0  0  0  0  0  0  # atno 17394 bound_to 11000
  141.0275  133.7007  156.1373 LP  0  0  0  0  0  0  0  0  0  0  0  0  # atno 17395 bound_to 11000

$$$$
