AV-unprocessed.smi:2829|AV-procd|sdf|10901|dock10
  -GOLD-   2272015353D 1   1.00000     0.00000
 Structure written by MMmdl.
 50 53  0  0  0  0  0  0  0  0  1 V2000
  145.6601  132.4009  162.3818 C   0  0  0  0  0  0  0  0  0  0  0  0
  144.8877  133.6750  161.9807 C   0  0  0  0  0  0  0  0  0  0  0  0
  143.6289  133.2932  161.1739 C   0  0  0  0  0  0  0  0  0  0  0  0
  144.4142  134.3604  163.2825 C   0  0  0  0  0  0  0  0  0  0  0  0
  145.7926  134.5860  161.1316 C   0  0  0  0  0  0  0  0  0  0  0  0
  147.0271  135.0971  161.5925 C   0  0  0  0  0  0  0  0  0  0  0  0
  147.7605  135.9202  160.7214 C   0  0  0  0  0  0  0  0  0  0  0  0
  147.2288  136.1905  159.4447 C   0  0  0  0  0  0  0  0  0  0  0  0
  148.0222  137.0303  158.6206 N   0  0  0  0  0  0  0  0  0  0  0  0
  149.3650  137.0595  158.5071 C   0  0  0  0  0  0  0  0  0  0  0  0
  150.1383  136.3359  159.1317 O   0  0  0  0  0  0  0  0  0  0  0  0
  149.8204  137.9848  157.6444 N   0  0  0  0  0  0  0  0  0  0  0  0
  151.2141  138.2704  157.2967 C   0  0  1  0  0  0  0  0  0  0  0  0
  151.5402  138.0977  155.7942 C   0  0  1  0  0  0  0  0  0  0  0  0
  150.4793  137.9195  154.7382 C   0  0  0  0  0  0  0  0  0  0  0  0
  150.0023  139.3470  154.4910 C   0  0  0  0  0  0  0  0  0  0  0  0
  151.1492  140.1591  154.7414 O   0  0  0  0  0  0  0  0  0  0  0  0
  151.9735  139.5613  155.7457 C   0  0  1  0  0  0  0  0  0  0  0  0
  151.5134  139.7759  157.1993 C   0  0  0  0  0  0  0  0  0  0  0  0
  150.4998  140.8781  157.5724 C   0  0  0  0  0  0  0  0  0  0  0  0
  151.6785  141.7319  158.0447 C   0  0  0  0  0  0  0  0  0  0  0  0
  152.4778  140.4357  158.1979 C   0  0  0  0  0  0  0  0  0  0  0  0
  146.0365  135.6648  159.0672 N   0  0  0  0  0  0  0  0  0  0  0  0
  145.3346  134.8805  159.8903 N   0  0  0  0  0  0  0  0  0  0  0  0
  145.0498  131.7457  163.0041 H   0  0  0  0  0  0  0  0  0  0  0  0
  146.5605  132.6460  162.9467 H   0  0  0  0  0  0  0  0  0  0  0  0
  145.9670  131.8209  161.5106 H   0  0  0  0  0  0  0  0  0  0  0  0
  143.8797  132.7397  160.2682 H   0  0  0  0  0  0  0  0  0  0  0  0
  143.0687  134.1794  160.8728 H   0  0  0  0  0  0  0  0  0  0  0  0
  142.9578  132.6632  161.7587 H   0  0  0  0  0  0  0  0  0  0  0  0
  143.7735  133.6989  163.8669 H   0  0  0  0  0  0  0  0  0  0  0  0
  143.8362  135.2619  163.0763 H   0  0  0  0  0  0  0  0  0  0  0  0
  145.2542  134.6354  163.9217 H   0  0  0  0  0  0  0  0  0  0  0  0
  147.4198  134.8821  162.5741 H   0  0  0  0  0  0  0  0  0  0  0  0
  148.7095  136.3335  161.0309 H   0  0  0  0  0  0  0  0  0  0  0  0
  147.5122  137.6890  158.0509 H   0  0  0  0  0  0  0  0  0  0  0  0
  149.1279  138.5765  157.2079 H   0  0  0  0  0  0  0  0  0  0  0  0
  151.9435  137.7673  157.9343 H   0  0  0  0  0  0  0  0  0  0  0  0
  152.3847  137.4194  155.6669 H   0  0  0  0  0  0  0  0  0  0  0  0
  150.9231  137.5161  153.8275 H   0  0  0  0  0  0  0  0  0  0  0  0
  149.6694  137.2516  155.0305 H   0  0  0  0  0  0  0  0  0  0  0  0
  149.6182  139.4944  153.4816 H   0  0  0  0  0  0  0  0  0  0  0  0
  149.2115  139.6103  155.1944 H   0  0  0  0  0  0  0  0  0  0  0  0
  153.0424  139.7067  155.5856 H   0  0  0  0  0  0  0  0  0  0  0  0
  149.9391  141.3093  156.7435 H   0  0  0  0  0  0  0  0  0  0  0  0
  149.8415  140.6006  158.3971 H   0  0  0  0  0  0  0  0  0  0  0  0
  152.0708  142.3801  157.2592 H   0  0  0  0  0  0  0  0  0  0  0  0
  151.5064  142.2767  158.9734 H   0  0  0  0  0  0  0  0  0  0  0  0
  152.4006  140.0122  159.2008 H   0  0  0  0  0  0  0  0  0  0  0  0
  153.5152  140.4980  157.8683 H   0  0  0  0  0  0  0  0  0  0  0  0
  1  2  1  0  0  0  0
  1 25  1  0  0  0  0
  1 26  1  0  0  0  0
  1 27  1  0  0  0  0
  2  3  1  0  0  0  0
  2  4  1  0  0  0  0
  2  5  1  0  0  0  0
  3 28  1  0  0  0  0
  3 29  1  0  0  0  0
  3 30  1  0  0  0  0
  4 31  1  0  0  0  0
  4 32  1  0  0  0  0
  4 33  1  0  0  0  0
  5 24  1  0  0  0  0
  5  6  2  0  0  0  0
  6  7  1  0  0  0  0
  6 34  1  0  0  0  0
  7  8  2  0  0  0  0
  7 35  1  0  0  0  0
  8  9  1  0  0  0  0
  8 23  1  0  0  0  0
  9 10  1  0  0  0  0
  9 36  1  0  0  0  0
 10 11  2  0  0  0  0
 10 12  1  0  0  0  0
 12 13  1  0  0  0  0
 12 37  1  0  0  0  0
 13 19  1  0  0  0  0
 13 14  1  0  0  0  0
 13 38  1  0  0  0  0
 14 18  1  0  0  0  0
 14 15  1  0  0  0  0
 14 39  1  0  0  0  0
 15 16  1  0  0  0  0
 15 40  1  0  0  0  0
 15 41  1  0  0  0  0
 16 17  1  0  0  0  0
 16 42  1  0  0  0  0
 16 43  1  0  0  0  0
 17 18  1  0  0  0  0
 18 19  1  0  0  0  0
 18 44  1  0  0  0  0
 19 22  1  0  0  0  0
 19 20  1  0  0  0  0
 20 21  1  0  0  0  0
 20 45  1  0  0  0  0
 20 46  1  0  0  0  0
 21 22  1  0  0  0  0
 21 47  1  0  0  0  0
 21 48  1  0  0  0  0
 22 49  1  0  0  0  0
 22 50  1  0  0  0  0
 23 24  2  0  0  0  0
M  END
> <s_m_source_file>
AV-unprocessed.smi

> <i_m_source_file_index>
2829

> <i_lp_mmshare_version>
43012

> <i_f3d_flags>
0

> <s_epik_input>
W0NIM11DKFtDSDNdKShbQ0gzXSljMVtjSF1bY0hdYyhubjEpW05IXUMoPU8pW05IXVtDQEBIXTJbQ0BIXShbQ0gyXVtDSDJdTzMpW0NAQEhdM0MyNFtDSDJdW0NIMl1bQ0gyXTQ=

> <s_epik_cmdline>
J2VwaWtfcHl0aG9uJywgJy1waCcsICc3LjAnLCAnLXRuJywgJzgnLCAnLW1hJywgJzIwMCcsICctbWV0YWxfYmluZGluZycsICctaW1hZScsICc8aW5maWxlLm1hZT4nLCAnLW9tYWUnLCAnPG91dGZpbGUubWFlPic=

> <r_lp_tautomer_probability>
1

> <r_epik_Ionization_Penalty>
0.011915

> <r_epik_Ionization_Penalty_Charging>
0

> <r_epik_Ionization_Penalty_Neutral>
0.011915

> <r_epik_State_Penalty>
0.00486223

> <r_epik_Charging_Adjusted_Penalty>
0.00486223

> <i_epik_Tot_Q>
0

> <i_epik_Tot_abs_Q>
0

> <r_epik_Metal_State_Penalty>
-0

> <b_epik_Metal_Only>
0

> <s_lp_Force_Field>
OPLS_2005

> <r_lp_Energy>
61.8896

> <b_lp_Chiralities_Consistent>
1

> <s_lp_Variant>
AV-unprocessed.smi:2829-4

> <Gold.Version>
5.8.1

> <Gold.Id.Protein>
6NUR|6NUR_protein|mol2

> <Gold.PLP.Fitness>
38.2536

> <Gold.PLP.PLP>
-32.9314

> <Gold.PLP.part.hbond>
-1.8895

> <Gold.PLP.part.metal>
0.0000

> <Gold.PLP.part.buried>
-5.5338

> <Gold.PLP.part.nonpolar>
-26.0884

> <Gold.PLP.part.repulsive>
0.2287

> <Gold.PLP.ligand.clash>
0.0000

> <Gold.PLP.ligand.torsion>
0.4080

> <Gold.PLP.Chemscore.Hbond>
1.9913

> <Gold.PLP.Chemscore.CHOScore>
0.0000

> <Gold.PLP.Chemscore.Metal>
0.0000

> <Gold.Chemscore.Hbonds>
donor molecule, donor type, donor heavy atom, donor atom, acceptor molecule, acceptor atom, score
      P1  H  6896  6907       L1    11  1.00
      P1  H  7989  7998       L1    17  0.94

> <Gold.PLP.Chemscore.Internal.Correction>
0.1644

> <Gold.Rescore>
     Score         DG    S(hbond)    S(metal)    S(lipo)     H(rot)  DE(clash)    DE(int)     intcor
     19.02     -20.82       1.94        0.00     101.24       1.16       0.02       1.78       ----

> <Gold.Chemscore.Fitness>
19.0203

> <Gold.Chemscore.DG>
-20.8241

> <Gold.Chemscore.ZeroCoef>
-5.4800

> <Gold.Chemscore.Hbond>
1.9381

> <Gold.Chemscore.Metal>
0.0000

> <Gold.Chemscore.Lipo>
101.2389

> <Gold.Chemscore.Internal_Hbond>
0.0000

> <Gold.Chemscore.DEClash>
0.0197

> <Gold.Chemscore.DEInternal>
1.7841

> <Gold.Chemscore.Rot>
1.1618

> <Gold.Chemscore.Internal.Correction>
   9.000000E+99

> <Gold.Chemscore.Hbonds>
donor molecule, donor type, donor heavy atom, donor atom, acceptor molecule, acceptor atom, score
      P1  H  6896  6907       L1    11  0.99
      P1  H  7989  7998       L1    17  0.77

> <Gold.Chemscore.Hbond.Weighted>
-6.4733

> <Gold.Chemscore.Metal.Weighted>
-0.0000

> <Gold.Chemscore.Lipo.Weighted>
-11.8449

> <Gold.Chemscore.Internal_Hbond.Weighted>
0.0000

> <Gold.Chemscore.DEClash.Weighted>
0.0197

> <Gold.Chemscore.DEInternal.Weighted>
1.7841

> <Gold.Chemscore.Rot.Weighted>
2.9741

> <Gold.Chemscore.Internal.Correction.Weighted>
   9.000000E+99

> <Gold.Protein.RotatedTorsions>
[ 6907 6896 6895 6894 ] final  -56.34 input  -60.11 | X-H torsion
[ 7974 7965 7964 7962 ] final    7.21 input  175.53 | X-H torsion
[ 8008 7997 7996 7995 ] final   41.87 input   59.86 | X-H torsion
[ 10167 10162 10161 10158 ] final  173.24 input  -65.29 | X-H torsion
[ 10718 10713 10712 10709 ] final  123.00 input   66.30 | X-H torsion
[ 10763 10752 10751 10750 ] final   20.01 input  -60.55 | X-H torsion
[ 11005 11000 10999 10996 ] final  -43.88 input  -57.11 | X-H torsion

> <Gold.Protein.ActiveResidues>
 VAL166  LYS551  ARG553  GLY616  TRP617  ASP618  TYR619  PRO620  LYS621  CYS622 
 ASP623  PHE694  ASN695  SER759  ASP760  ASP761  ALA762  ILE779  LEU786  VAL792 
 PHE793  MET794  SER795  GLU796  ALA797  LYS798  CYS799  TRP800  GLU811  SER814 

> <Gold.Protein.RotatedAtoms>
  150.8176  134.7366  159.6743 H   0  0  0  0  0  0  0  0  0  0  0  0  # atno 6907 bound_to 6896
  152.4293  134.5804  159.9956 H   0  0  0  0  0  0  0  0  0  0  0  0  # atno 6908 bound_to 6896
  151.5997  133.3320  159.3081 H   0  0  0  0  0  0  0  0  0  0  0  0  # atno 6909 bound_to 6896
  146.2428  140.0117  142.8406 H   0  0  0  0  0  0  0  0  0  0  0  0  # atno 7974 bound_to 7965
  155.2768  140.3369  155.4261 H   0  0  0  0  0  0  0  0  0  0  0  0  # atno 8008 bound_to 7997
  156.2108  140.1769  156.7740 H   0  0  0  0  0  0  0  0  0  0  0  0  # atno 8009 bound_to 7997
  154.5684  140.0674  156.8911 H   0  0  0  0  0  0  0  0  0  0  0  0  # atno 8010 bound_to 7997
  139.5102  144.3283  152.0136 H   0  0  0  0  0  0  0  0  0  0  0  0  # atno 10167 bound_to 10162
  157.5698  131.1084  150.8387 H   0  0  0  0  0  0  0  0  0  0  0  0  # atno 10718 bound_to 10713
  153.1114  135.6697  153.9494 H   0  0  0  0  0  0  0  0  0  0  0  0  # atno 10763 bound_to 10752
  153.9037  135.3033  155.3450 H   0  0  0  0  0  0  0  0  0  0  0  0  # atno 10764 bound_to 10752
  154.7533  135.5024  153.9406 H   0  0  0  0  0  0  0  0  0  0  0  0  # atno 10765 bound_to 10752
  141.0413  133.6779  156.2794 H   0  0  0  0  0  0  0  0  0  0  0  0  # atno 11005 bound_to 11000
  145.1322  140.9524  143.4538 LP  0  0  0  0  0  0  0  0  0  0  0  0  # atno 17320 bound_to 7965
  145.0377  139.3286  143.5992 LP  0  0  0  0  0  0  0  0  0  0  0  0  # atno 17321 bound_to 7965
  140.2723  144.3951  150.6147 LP  0  0  0  0  0  0  0  0  0  0  0  0  # atno 17342 bound_to 10162
  140.6079  143.2168  151.6944 LP  0  0  0  0  0  0  0  0  0  0  0  0  # atno 17343 bound_to 10162
  156.8862  130.5196  149.5288 LP  0  0  0  0  0  0  0  0  0  0  0  0  # atno 17370 bound_to 10713
  156.0744  130.5770  150.9446 LP  0  0  0  0  0  0  0  0  0  0  0  0  # atno 17371 bound_to 10713
  140.6229  134.5343  157.5550 LP  0  0  0  0  0  0  0  0  0  0  0  0  # atno 17394 bound_to 11000
  139.9278  134.8022  156.1018 LP  0  0  0  0  0  0  0  0  0  0  0  0  # atno 17395 bound_to 11000

$$$$
