AV-unprocessed.smi:1087|AV-procd|sdf|4727|dock9
  -GOLD-   22720 3253D 1   1.00000     0.00000
 Structure written by MMmdl.
 46 47  0  0  0  0  0  0  0  0  1 V2000
  150.6697  144.8319  160.3640 C   0  0  0  0  0  0  0  0  0  0  0  0
  151.3195  143.5853  160.5557 O   0  0  0  0  0  0  0  0  0  0  0  0
  152.6680  143.5538  160.1053 C   0  0  0  0  0  0  0  0  0  0  0  0
  153.3591  142.1882  160.3059 C   0  0  0  0  0  0  0  0  0  0  0  0
  152.5864  141.0145  159.8939 N   0  0  0  0  0  0  0  0  0  0  0  0
  153.4000  139.7983  159.8211 C   0  0  0  0  0  0  0  0  0  0  0  0
  152.5792  138.5586  159.4260 C   0  0  0  0  0  0  0  0  0  0  0  0
  151.8600  138.7729  158.0823 C   0  0  0  0  0  0  0  0  0  0  0  0
  150.9900  137.5528  157.7122 C   0  0  0  0  0  0  0  0  0  0  0  0
  149.7777  137.4681  158.5194 N   0  0  0  0  0  0  0  0  0  0  0  0
  149.0927  136.3421  158.7677 C   0  0  0  0  0  0  0  0  0  0  0  0
  149.4472  135.2332  158.3659 O   0  0  0  0  0  0  0  0  0  0  0  0
  147.8204  136.5009  159.6116 C   0  0  0  0  0  0  0  0  0  0  0  0
  147.7681  135.5778  160.7571 N   0  0  0  0  0  0  0  0  0  0  0  0
  147.7739  134.1995  160.4834 C   0  0  0  0  0  0  0  0  0  0  0  0
  147.7265  133.3006  161.4770 C   0  0  0  0  0  0  0  0  0  0  0  0
  147.6688  133.8388  162.8424 C   0  0  0  0  0  0  0  0  0  0  0  0
  147.6608  135.0944  163.0952 N   0  0  0  0  0  0  0  0  0  0  0  0
  147.7077  136.0365  162.0501 C   0  0  0  0  0  0  0  0  0  0  0  0
  147.6955  137.2452  162.2854 O   0  0  0  0  0  0  0  0  0  0  0  0
  151.0546  140.0864  158.1491 C   0  0  0  0  0  0  0  0  0  0  0  0
  151.9491  141.2534  158.5984 C   0  0  0  0  0  0  0  0  0  0  0  0
  149.6335  144.7534  160.6929 H   0  0  0  0  0  0  0  0  0  0  0  0
  150.6641  145.1170  159.3111 H   0  0  0  0  0  0  0  0  0  0  0  0
  151.1381  145.6290  160.9410 H   0  0  0  0  0  0  0  0  0  0  0  0
  152.6790  143.8098  159.0452 H   0  0  0  0  0  0  0  0  0  0  0  0
  153.2361  144.3379  160.6080 H   0  0  0  0  0  0  0  0  0  0  0  0
  154.2687  142.2171  159.7045 H   0  0  0  0  0  0  0  0  0  0  0  0
  153.7006  142.0720  161.3343 H   0  0  0  0  0  0  0  0  0  0  0  0
  154.2172  139.9393  159.1119 H   0  0  0  0  0  0  0  0  0  0  0  0
  153.8578  139.5944  160.7873 H   0  0  0  0  0  0  0  0  0  0  0  0
  153.2332  137.6881  159.3668 H   0  0  0  0  0  0  0  0  0  0  0  0
  151.8490  138.3450  160.2079 H   0  0  0  0  0  0  0  0  0  0  0  0
  152.6268  138.8896  157.3147 H   0  0  0  0  0  0  0  0  0  0  0  0
  150.7248  137.5821  156.6541 H   0  0  0  0  0  0  0  0  0  0  0  0
  151.5567  136.6329  157.8599 H   0  0  0  0  0  0  0  0  0  0  0  0
  149.4192  138.3339  158.8951 H   0  0  0  0  0  0  0  0  0  0  0  0
  147.7658  137.5367  159.9489 H   0  0  0  0  0  0  0  0  0  0  0  0
  146.9404  136.3564  158.9816 H   0  0  0  0  0  0  0  0  0  0  0  0
  147.8129  133.9302  159.4380 H   0  0  0  0  0  0  0  0  0  0  0  0
  147.7257  132.2297  161.3367 H   0  0  0  0  0  0  0  0  0  0  0  0
  147.6325  133.0909  163.6386 H   0  0  0  0  0  0  0  0  0  0  0  0
  150.6212  140.3196  157.1761 H   0  0  0  0  0  0  0  0  0  0  0  0
  150.2205  139.9774  158.8438 H   0  0  0  0  0  0  0  0  0  0  0  0
  151.3410  142.1574  158.6497 H   0  0  0  0  0  0  0  0  0  0  0  0
  152.7112  141.4385  157.8397 H   0  0  0  0  0  0  0  0  0  0  0  0
  1  2  1  0  0  0  0
  1 23  1  0  0  0  0
  1 24  1  0  0  0  0
  1 25  1  0  0  0  0
  2  3  1  0  0  0  0
  3  4  1  0  0  0  0
  3 26  1  0  0  0  0
  3 27  1  0  0  0  0
  4  5  1  0  0  0  0
  4 28  1  0  0  0  0
  4 29  1  0  0  0  0
  5 22  1  0  0  0  0
  5  6  1  0  0  0  0
  6  7  1  0  0  0  0
  6 30  1  0  0  0  0
  6 31  1  0  0  0  0
  7  8  1  0  0  0  0
  7 32  1  0  0  0  0
  7 33  1  0  0  0  0
  8  9  1  0  0  0  0
  8 21  1  0  0  0  0
  8 34  1  0  0  0  0
  9 10  1  0  0  0  0
  9 35  1  0  0  0  0
  9 36  1  0  0  0  0
 10 11  1  0  0  0  0
 10 37  1  0  0  0  0
 11 12  2  0  0  0  0
 11 13  1  0  0  0  0
 13 14  1  0  0  0  0
 13 38  1  0  0  0  0
 13 39  1  0  0  0  0
 14 19  1  0  0  0  0
 14 15  1  0  0  0  0
 15 16  2  0  0  0  0
 15 40  1  0  0  0  0
 16 17  1  0  0  0  0
 16 41  1  0  0  0  0
 17 18  2  0  0  0  0
 17 42  1  0  0  0  0
 18 19  1  0  0  0  0
 19 20  2  0  0  0  0
 21 22  1  0  0  0  0
 21 43  1  0  0  0  0
 21 44  1  0  0  0  0
 22 45  1  0  0  0  0
 22 46  1  0  0  0  0
M  END
> <s_m_source_file>
AV-unprocessed.smi

> <i_m_source_file_index>
1087

> <i_lp_mmshare_version>
43012

> <i_f3d_flags>
0

> <s_epik_input>
W0NIM11PW0NIMl1bQ0gyXU4xW0NIMl1bQ0gyXVtDSF0oW0NIMl1bQ0gyXTEpW0NIMl1bTkhdQyg9TylbQ0gyXW4yW2NIXVtjSF1bY0hdbmMyPU8=

> <s_epik_cmdline>
J2VwaWtfcHl0aG9uJywgJy1waCcsICc3LjAnLCAnLXRuJywgJzgnLCAnLW1hJywgJzIwMCcsICctbWV0YWxfYmluZGluZycsICctaW1hZScsICc8aW5maWxlLm1hZT4nLCAnLW9tYWUnLCAnPG91dGZpbGUubWFlPic=

> <r_lp_tautomer_probability>
1

> <r_epik_Ionization_Penalty>
2.43401

> <r_epik_Ionization_Penalty_Charging>
1.64716e-08

> <r_epik_Ionization_Penalty_Neutral>
2.43401

> <r_epik_State_Penalty>
2.59428

> <r_epik_Charging_Adjusted_Penalty>
2.59428

> <i_epik_Tot_Q>
0

> <i_epik_Tot_abs_Q>
0

> <r_epik_Metal_State_Penalty>
2.59427

> <b_epik_Metal_Only>
0

> <s_lp_Force_Field>
OPLS_2005

> <r_lp_Energy>
30.2677

> <b_lp_Chiralities_Consistent>
1

> <s_lp_Variant>
AV-unprocessed.smi:1087-3

> <Gold.Version>
5.8.1

> <Gold.Id.Protein>
6NUR|6NUR_protein|mol2

> <Gold.PLP.Fitness>
47.5735

> <Gold.PLP.PLP>
-40.7752

> <Gold.PLP.part.hbond>
-3.3227

> <Gold.PLP.part.metal>
0.0000

> <Gold.PLP.part.buried>
-7.2312

> <Gold.PLP.part.nonpolar>
-30.2561

> <Gold.PLP.part.repulsive>
0.2165

> <Gold.PLP.ligand.clash>
0.0000

> <Gold.PLP.ligand.torsion>
0.4768

> <Gold.PLP.Chemscore.Hbond>
2.5520

> <Gold.PLP.Chemscore.CHOScore>
0.0000

> <Gold.PLP.Chemscore.Metal>
0.0000

> <Gold.Chemscore.Hbonds>
donor molecule, donor type, donor heavy atom, donor atom, acceptor molecule, acceptor atom, score
      P1  H  6896  6907       L1    12  0.99
      P1  H  6931  6943       L1    20  0.91
      P1  H  6934  6947       L1    20  0.21

> <Gold.PLP.Chemscore.Internal.Correction>
0.0959

> <Gold.Rescore>
     Score         DG    S(hbond)    S(metal)    S(lipo)     H(rot)  DE(clash)    DE(int)     intcor
     16.82     -18.58       2.67        0.00      87.60       2.37       0.04       1.72       ----

> <Gold.Chemscore.Fitness>
16.8169

> <Gold.Chemscore.DG>
-18.5765

> <Gold.Chemscore.ZeroCoef>
-5.4800

> <Gold.Chemscore.Hbond>
2.6707

> <Gold.Chemscore.Metal>
0.0000

> <Gold.Chemscore.Lipo>
87.6033

> <Gold.Chemscore.Internal_Hbond>
0.0000

> <Gold.Chemscore.DEClash>
0.0354

> <Gold.Chemscore.DEInternal>
1.7243

> <Gold.Chemscore.Rot>
2.3723

> <Gold.Chemscore.Internal.Correction>
   9.000000E+99

> <Gold.Chemscore.Hbonds>
donor molecule, donor type, donor heavy atom, donor atom, acceptor molecule, acceptor atom, score
      P1  H  6896  6907       L1    12  0.92
      P1  H  6931  6943       L1    20  0.87
      P1  H  6934  6947       L1    20  0.20

> <Gold.Chemscore.Hbond.Weighted>
-8.9201

> <Gold.Chemscore.Metal.Weighted>
-0.0000

> <Gold.Chemscore.Lipo.Weighted>
-10.2496

> <Gold.Chemscore.Internal_Hbond.Weighted>
0.0000

> <Gold.Chemscore.DEClash.Weighted>
0.0354

> <Gold.Chemscore.DEInternal.Weighted>
1.7243

> <Gold.Chemscore.Rot.Weighted>
6.0731

> <Gold.Chemscore.Internal.Correction.Weighted>
   9.000000E+99

> <Gold.Protein.RotatedTorsions>
[ 6907 6896 6895 6894 ] final  -95.58 input  -60.11 | X-H torsion
[ 7974 7965 7964 7962 ] final  136.24 input  175.53 | X-H torsion
[ 8008 7997 7996 7995 ] final -145.24 input   59.86 | X-H torsion
[ 10167 10162 10161 10158 ] final    6.43 input  -65.29 | X-H torsion
[ 10718 10713 10712 10709 ] final -114.27 input   66.30 | X-H torsion
[ 10763 10752 10751 10750 ] final  -60.75 input  -60.55 | X-H torsion
[ 11005 11000 10999 10996 ] final -153.81 input  -57.11 | X-H torsion

> <Gold.Protein.ActiveResidues>
 VAL166  LYS551  ARG553  GLY616  TRP617  ASP618  TYR619  PRO620  LYS621  CYS622 
 ASP623  PHE694  ASN695  SER759  ASP760  ASP761  ALA762  ILE779  LEU786  VAL792 
 PHE793  MET794  SER795  GLU796  ALA797  LYS798  CYS799  TRP800  GLU811  SER814 

> <Gold.Protein.RotatedAtoms>
  150.6967  134.1636  159.4185 H   0  0  0  0  0  0  0  0  0  0  0  0  # atno 6907 bound_to 6896
  151.9616  135.0118  160.0557 H   0  0  0  0  0  0  0  0  0  0  0  0  # atno 6908 bound_to 6896
  152.1922  133.4746  159.5050 H   0  0  0  0  0  0  0  0  0  0  0  0  # atno 6909 bound_to 6896
  144.9584  139.4738  143.5491 H   0  0  0  0  0  0  0  0  0  0  0  0  # atno 7974 bound_to 7965
  155.5400  140.0607  157.2872 H   0  0  0  0  0  0  0  0  0  0  0  0  # atno 8008 bound_to 7997
  154.4455  140.1921  156.0625 H   0  0  0  0  0  0  0  0  0  0  0  0  # atno 8009 bound_to 7997
  156.0591  140.3274  155.7445 H   0  0  0  0  0  0  0  0  0  0  0  0  # atno 8010 bound_to 7997
  140.6428  143.7734  150.7453 H   0  0  0  0  0  0  0  0  0  0  0  0  # atno 10167 bound_to 10162
  156.0819  130.6017  150.8752 H   0  0  0  0  0  0  0  0  0  0  0  0  # atno 10718 bound_to 10713
  154.2740  135.6285  153.5321 H   0  0  0  0  0  0  0  0  0  0  0  0  # atno 10763 bound_to 10752
  152.9876  135.5617  154.5569 H   0  0  0  0  0  0  0  0  0  0  0  0  # atno 10764 bound_to 10752
  154.5145  135.2879  155.1290 H   0  0  0  0  0  0  0  0  0  0  0  0  # atno 10765 bound_to 10752
  140.7041  134.3905  157.5206 H   0  0  0  0  0  0  0  0  0  0  0  0  # atno 11005 bound_to 11000
  146.3345  139.8718  142.8839 LP  0  0  0  0  0  0  0  0  0  0  0  0  # atno 17320 bound_to 7965
  145.2737  141.0117  143.3757 LP  0  0  0  0  0  0  0  0  0  0  0  0  # atno 17321 bound_to 7965
  140.1369  143.4476  152.2219 LP  0  0  0  0  0  0  0  0  0  0  0  0  # atno 17342 bound_to 10162
  139.5637  144.7422  151.4082 LP  0  0  0  0  0  0  0  0  0  0  0  0  # atno 17343 bound_to 10162
  157.5939  131.0943  150.9073 LP  0  0  0  0  0  0  0  0  0  0  0  0  # atno 17370 bound_to 10713
  156.9244  130.5327  149.5279 LP  0  0  0  0  0  0  0  0  0  0  0  0  # atno 17371 bound_to 10713
  139.8889  134.8844  156.2450 LP  0  0  0  0  0  0  0  0  0  0  0  0  # atno 17394 bound_to 11000
  141.0139  133.7079  156.1157 LP  0  0  0  0  0  0  0  0  0  0  0  0  # atno 17395 bound_to 11000

$$$$
