AV-unprocessed.smi:36|AV-procd|sdf|279|dock5
  -GOLD-   2262016 53D 1   1.00000     0.00000
 Structure written by MMmdl.
 64 67  0  0  0  0  0  0  0  0  1 V2000
  144.2409  133.9345  152.4739 C   0  0  0  0  0  0  0  0  0  0  0  0
  144.6125  133.6543  151.0083 C   0  0  0  0  0  0  0  0  0  0  0  0
  143.5588  132.7340  150.3687 C   0  0  0  0  0  0  0  0  0  0  0  0
  144.6887  134.9758  150.2253 C   0  0  0  0  0  0  0  0  0  0  0  0
  146.3151  132.7907  150.9356 Si  0  0  0  0  0  0  0  0  0  0  0  0
  146.2935  131.1292  151.8562 C   0  0  0  0  0  0  0  0  0  0  0  0
  146.8686  132.5273  149.1363 C   0  0  0  0  0  0  0  0  0  0  0  0
  147.4315  133.8025  151.7037 O   0  0  0  0  0  0  0  0  0  0  0  0
  148.6832  133.3753  152.2038 C   0  0  0  0  0  0  0  0  0  0  0  0
  148.7809  133.7153  153.6982 C   0  0  2  0  0  0  0  0  0  0  0  0
  149.0887  135.1010  153.8523 O   0  0  0  0  0  0  0  0  0  0  0  0
  150.3658  135.2059  154.3909 C   0  0  1  0  0  0  0  0  0  0  0  0
  150.4711  136.4845  155.1459 N   0  0  0  0  0  0  0  0  0  0  0  0
  149.9219  136.8253  156.3631 C   0  0  0  0  0  0  0  0  0  0  0  0
  150.1856  138.0383  156.7715 N   0  0  0  0  0  0  0  0  0  0  0  0
  150.9805  138.5688  155.7627 C   0  0  0  0  0  0  0  0  0  0  0  0
  151.6094  139.8248  155.5608 C   0  0  0  0  0  0  0  0  0  0  0  0
  151.4693  140.8110  156.4777 N   0  0  0  0  0  0  0  0  0  0  0  0
  152.3031  141.0851  157.6351 C   0  0  0  0  0  0  0  0  0  0  0  0
  153.3105  140.4241  157.8890 O   0  0  0  0  0  0  0  0  0  0  0  0
  151.9109  142.2735  158.4643 C   0  0  0  0  0  0  0  0  0  0  0  0
  152.6750  142.6241  159.6004 C   0  0  0  0  0  0  0  0  0  0  0  0
  152.3092  143.7296  160.3928 C   0  0  0  0  0  0  0  0  0  0  0  0
  151.1721  144.4896  160.0606 C   0  0  0  0  0  0  0  0  0  0  0  0
  150.3978  144.1401  158.9382 C   0  0  0  0  0  0  0  0  0  0  0  0
  150.7623  143.0344  158.1448 C   0  0  0  0  0  0  0  0  0  0  0  0
  152.3349  139.9843  154.4221 N   0  0  0  0  0  0  0  0  0  0  0  0
  152.4349  138.9846  153.5407 C   0  0  0  0  0  0  0  0  0  0  0  0
  151.8968  137.7643  153.5984 N   0  0  0  0  0  0  0  0  0  0  0  0
  151.1690  137.5988  154.7401 C   0  0  0  0  0  0  0  0  0  0  0  0
  150.5113  134.0108  155.3185 C   0  0  0  0  0  0  0  0  0  0  0  0
  149.8699  132.9369  154.4633 C   0  0  1  0  0  0  0  0  0  0  0  0
  149.3364  131.9012  155.2620 O   0  0  0  0  0  0  0  0  0  0  0  0
  143.2707  134.4270  152.5489 H   0  0  0  0  0  0  0  0  0  0  0  0
  144.9758  134.5820  152.9534 H   0  0  0  0  0  0  0  0  0  0  0  0
  144.1864  133.0127  153.0534 H   0  0  0  0  0  0  0  0  0  0  0  0
  143.4746  131.7901  150.9075 H   0  0  0  0  0  0  0  0  0  0  0  0
  143.8123  132.4999  149.3343 H   0  0  0  0  0  0  0  0  0  0  0  0
  142.5727  133.1998  150.3686 H   0  0  0  0  0  0  0  0  0  0  0  0
  143.7275  135.4905  150.2210 H   0  0  0  0  0  0  0  0  0  0  0  0
  144.9756  134.8047  149.1869 H   0  0  0  0  0  0  0  0  0  0  0  0
  145.4223  135.6545  150.6617 H   0  0  0  0  0  0  0  0  0  0  0  0
  145.5848  130.4324  151.4095 H   0  0  0  0  0  0  0  0  0  0  0  0
  146.0131  131.2537  152.9020 H   0  0  0  0  0  0  0  0  0  0  0  0
  147.2727  130.6513  151.8397 H   0  0  0  0  0  0  0  0  0  0  0  0
  146.1787  131.8786  148.5972 H   0  0  0  0  0  0  0  0  0  0  0  0
  147.8546  132.0668  149.0819 H   0  0  0  0  0  0  0  0  0  0  0  0
  146.9207  133.4684  148.5894 H   0  0  0  0  0  0  0  0  0  0  0  0
  148.7757  132.2997  152.0511 H   0  0  0  0  0  0  0  0  0  0  0  0
  149.4972  133.8494  151.6546 H   0  0  0  0  0  0  0  0  0  0  0  0
  147.8074  133.5588  154.1654 H   0  0  0  0  0  0  0  0  0  0  0  0
  151.1224  135.2540  153.6058 H   0  0  0  0  0  0  0  0  0  0  0  0
  149.3129  136.1452  156.9408 H   0  0  0  0  0  0  0  0  0  0  0  0
  150.6829  141.4299  156.3446 H   0  0  0  0  0  0  0  0  0  0  0  0
  153.5506  142.0504  159.8691 H   0  0  0  0  0  0  0  0  0  0  0  0
  152.9020  143.9935  161.2561 H   0  0  0  0  0  0  0  0  0  0  0  0
  150.8921  145.3374  160.6686 H   0  0  0  0  0  0  0  0  0  0  0  0
  149.5216  144.7193  158.6865 H   0  0  0  0  0  0  0  0  0  0  0  0
  150.1485  142.7789  157.2932 H   0  0  0  0  0  0  0  0  0  0  0  0
  153.0292  139.1934  152.6637 H   0  0  0  0  0  0  0  0  0  0  0  0
  151.5558  133.8197  155.5673 H   0  0  0  0  0  0  0  0  0  0  0  0
  149.9416  134.1918  156.2319 H   0  0  0  0  0  0  0  0  0  0  0  0
  150.6138  132.5247  153.7815 H   0  0  0  0  0  0  0  0  0  0  0  0
  148.6465  131.4732  154.7785 H   0  0  0  0  0  0  0  0  0  0  0  0
  1  2  1  0  0  0  0
  1 34  1  0  0  0  0
  1 35  1  0  0  0  0
  1 36  1  0  0  0  0
  2  3  1  0  0  0  0
  2  4  1  0  0  0  0
  2  5  1  0  0  0  0
  3 37  1  0  0  0  0
  3 38  1  0  0  0  0
  3 39  1  0  0  0  0
  4 40  1  0  0  0  0
  4 41  1  0  0  0  0
  4 42  1  0  0  0  0
  5  6  1  0  0  0  0
  5  7  1  0  0  0  0
  5  8  1  0  0  0  0
  6 43  1  0  0  0  0
  6 44  1  0  0  0  0
  6 45  1  0  0  0  0
  7 46  1  0  0  0  0
  7 47  1  0  0  0  0
  7 48  1  0  0  0  0
  8  9  1  0  0  0  0
  9 10  1  0  0  0  0
  9 49  1  0  0  0  0
  9 50  1  0  0  0  0
 10 32  1  0  0  0  0
 10 11  1  0  0  0  0
 10 51  1  0  0  0  0
 11 12  1  0  0  0  0
 12 13  1  0  0  0  0
 12 31  1  0  0  0  0
 12 52  1  0  0  0  0
 13 30  1  0  0  0  0
 13 14  1  0  0  0  0
 14 15  2  0  0  0  0
 14 53  1  0  0  0  0
 15 16  1  0  0  0  0
 16 30  2  0  0  0  0
 16 17  1  0  0  0  0
 17 18  1  0  0  0  0
 17 27  2  0  0  0  0
 18 19  1  0  0  0  0
 18 54  1  0  0  0  0
 19 20  2  0  0  0  0
 19 21  1  0  0  0  0
 21 26  1  0  0  0  0
 21 22  2  0  0  0  0
 22 23  1  0  0  0  0
 22 55  1  0  0  0  0
 23 24  2  0  0  0  0
 23 56  1  0  0  0  0
 24 25  1  0  0  0  0
 24 57  1  0  0  0  0
 25 26  2  0  0  0  0
 25 58  1  0  0  0  0
 26 59  1  0  0  0  0
 27 28  1  0  0  0  0
 28 29  2  0  0  0  0
 28 60  1  0  0  0  0
 29 30  1  0  0  0  0
 31 32  1  0  0  0  0
 31 61  1  0  0  0  0
 31 62  1  0  0  0  0
 32 33  1  0  0  0  0
 32 63  1  0  0  0  0
 33 64  1  0  0  0  0
M  END
> <s_m_source_file>
AV-unprocessed.smi

> <i_m_source_file_index>
36

> <i_lp_mmshare_version>
43012

> <i_f3d_flags>
0

> <s_epik_input>
W0NIM11DKFtDSDNdKShbQ0gzXSlbU2ldKFtDSDNdKShbQ0gzXSlPW0NIMl1bQ0BASF0xT1tDQEhdKFtDSDJdW0NASF0xW09IXSluKFtjSF1uMiljKGMyMyluW2NIXW5jM1tOSF1DKD1PKWM0W2NIXVtjSF1bY0hdW2NIXVtjSF00

> <s_epik_cmdline>
J2VwaWtfcHl0aG9uJywgJy1waCcsICc3LjAnLCAnLXRuJywgJzgnLCAnLW1hJywgJzIwMCcsICctbWV0YWxfYmluZGluZycsICctaW1hZScsICc8aW5maWxlLm1hZT4nLCAnLW9tYWUnLCAnPG91dGZpbGUubWFlPic=

> <r_lp_tautomer_probability>
1

> <r_epik_Ionization_Penalty>
0.00150433

> <r_epik_Ionization_Penalty_Charging>
0

> <r_epik_Ionization_Penalty_Neutral>
0.00150433

> <r_epik_State_Penalty>
0.00724046

> <r_epik_Charging_Adjusted_Penalty>
0.00724046

> <i_epik_Tot_Q>
0

> <i_epik_Tot_abs_Q>
0

> <r_epik_Metal_State_Penalty>
0.323355

> <b_epik_Metal_Only>
0

> <s_epik_Chemistry_Notes>
This compound contains an acetal/aminal-like group ( X-CH(R)-Y where X, Y are N, S, or O) that may be acid/base labile, releasing an aldehyde.

> <s_lp_Force_Field>
OPLS_2005

> <r_lp_Energy>
30.8875

> <b_lp_Chiralities_Consistent>
1

> <s_lp_Variant>
AV-unprocessed.smi:36-1

> <Gold.Version>
5.8.1

> <Gold.Id.Protein>
6NUR|6NUR_protein|mol2

> <Gold.PLP.Fitness>
56.4698

> <Gold.PLP.PLP>
-52.1262

> <Gold.PLP.part.hbond>
-3.0000

> <Gold.PLP.part.metal>
0.0000

> <Gold.PLP.part.buried>
-4.4998

> <Gold.PLP.part.nonpolar>
-47.2429

> <Gold.PLP.part.repulsive>
2.7672

> <Gold.PLP.ligand.clash>
0.0000

> <Gold.PLP.ligand.torsion>
1.9582

> <Gold.PLP.Chemscore.Hbond>
2.6589

> <Gold.PLP.Chemscore.CHOScore>
0.0000

> <Gold.PLP.Chemscore.Metal>
0.0000

> <Gold.Chemscore.Hbonds>
donor molecule, donor type, donor heavy atom, donor atom, acceptor molecule, acceptor atom, score
      P1  H  7989  7998       L1    27  0.31
      P1  H  7997  8010       L1    20  0.78

> <Gold.PLP.Chemscore.Internal.Correction>
0.2833

> <Gold.Rescore>
     Score         DG    S(hbond)    S(metal)    S(lipo)     H(rot)  DE(clash)    DE(int)     intcor
     14.61     -19.12       1.75        0.00     125.95       2.70       2.32       2.20       ----

> <Gold.Chemscore.Fitness>
14.6114

> <Gold.Chemscore.DG>
-19.1245

> <Gold.Chemscore.ZeroCoef>
-5.4800

> <Gold.Chemscore.Hbond>
1.7456

> <Gold.Chemscore.Metal>
0.0000

> <Gold.Chemscore.Lipo>
125.9536

> <Gold.Chemscore.Internal_Hbond>
0.0000

> <Gold.Chemscore.DEClash>
2.3152

> <Gold.Chemscore.DEInternal>
2.1980

> <Gold.Chemscore.Rot>
2.7041

> <Gold.Chemscore.Internal.Correction>
   9.000000E+99

> <Gold.Chemscore.Hbonds>
donor molecule, donor type, donor heavy atom, donor atom, acceptor molecule, acceptor atom, score
      P1  H  7989  7998       L1    27  0.03
      P1  H  7997  8010       L1    20  0.76

> <Gold.Chemscore.Hbond.Weighted>
-5.8305

> <Gold.Chemscore.Metal.Weighted>
-0.0000

> <Gold.Chemscore.Lipo.Weighted>
-14.7366

> <Gold.Chemscore.Internal_Hbond.Weighted>
0.0000

> <Gold.Chemscore.DEClash.Weighted>
2.3152

> <Gold.Chemscore.DEInternal.Weighted>
2.1980

> <Gold.Chemscore.Rot.Weighted>
6.9225

> <Gold.Chemscore.Internal.Correction.Weighted>
   9.000000E+99

> <Gold.Protein.RotatedTorsions>
[ 6907 6896 6895 6894 ] final   95.67 input  -60.11 | X-H torsion
[ 7974 7965 7964 7962 ] final -177.93 input  175.53 | X-H torsion
[ 8008 7997 7996 7995 ] final   34.96 input   59.86 | X-H torsion
[ 10167 10162 10161 10158 ] final -115.06 input  -65.29 | X-H torsion
[ 10718 10713 10712 10709 ] final  131.28 input   66.30 | X-H torsion
[ 10763 10752 10751 10750 ] final  -75.29 input  -60.55 | X-H torsion
[ 11005 11000 10999 10996 ] final  -72.90 input  -57.11 | X-H torsion

> <Gold.Protein.ActiveResidues>
 VAL166  LYS551  ARG553  GLY616  TRP617  ASP618  TYR619  PRO620  LYS621  CYS622 
 ASP623  PHE694  ASN695  SER759  ASP760  ASP761  ALA762  ILE779  LEU786  VAL792 
 PHE793  MET794  SER795  GLU796  ALA797  LYS798  CYS799  TRP800  GLU811  SER814 

> <Gold.Protein.RotatedAtoms>
  152.5442  134.1005  159.8315 H   0  0  0  0  0  0  0  0  0  0  0  0  # atno 6907 bound_to 6896
  151.1083  133.5184  159.2614 H   0  0  0  0  0  0  0  0  0  0  0  0  # atno 6908 bound_to 6896
  151.1913  135.0413  159.8888 H   0  0  0  0  0  0  0  0  0  0  0  0  # atno 6909 bound_to 6896
  144.7129  140.0945  143.6419 H   0  0  0  0  0  0  0  0  0  0  0  0  # atno 7974 bound_to 7965
  155.1633  140.3285  155.4407 H   0  0  0  0  0  0  0  0  0  0  0  0  # atno 8008 bound_to 7997
  156.2535  140.1956  156.6690 H   0  0  0  0  0  0  0  0  0  0  0  0  # atno 8009 bound_to 7997
  154.6389  140.0573  156.9808 H   0  0  0  0  0  0  0  0  0  0  0  0  # atno 8010 bound_to 7997
  140.0942  143.4671  152.1851 H   0  0  0  0  0  0  0  0  0  0  0  0  # atno 10167 bound_to 10162
  157.4983  131.1093  150.9462 H   0  0  0  0  0  0  0  0  0  0  0  0  # atno 10718 bound_to 10713
  154.4845  135.5836  153.6414 H   0  0  0  0  0  0  0  0  0  0  0  0  # atno 10763 bound_to 10752
  152.9852  135.6098  154.3204 H   0  0  0  0  0  0  0  0  0  0  0  0  # atno 10764 bound_to 10752
  154.3098  135.2845  155.2551 H   0  0  0  0  0  0  0  0  0  0  0  0  # atno 10765 bound_to 10752
  141.1615  133.6861  156.7129 H   0  0  0  0  0  0  0  0  0  0  0  0  # atno 11005 bound_to 11000
  145.9591  139.2788  143.1166 LP  0  0  0  0  0  0  0  0  0  0  0  0  # atno 17320 bound_to 7965
  145.9240  140.9095  143.0390 LP  0  0  0  0  0  0  0  0  0  0  0  0  # atno 17321 bound_to 7965
  139.5707  144.7461  151.3898 LP  0  0  0  0  0  0  0  0  0  0  0  0  # atno 17342 bound_to 10162
  140.7012  143.7626  150.7406 LP  0  0  0  0  0  0  0  0  0  0  0  0  # atno 17343 bound_to 10162
  157.0142  130.5648  149.5324 LP  0  0  0  0  0  0  0  0  0  0  0  0  # atno 17370 bound_to 10713
  156.0214  130.5308  150.8285 LP  0  0  0  0  0  0  0  0  0  0  0  0  # atno 17371 bound_to 10713
  140.2873  134.8268  157.3986 LP  0  0  0  0  0  0  0  0  0  0  0  0  # atno 17394 bound_to 11000
  140.1378  134.5011  155.8055 LP  0  0  0  0  0  0  0  0  0  0  0  0  # atno 17395 bound_to 11000

$$$$
