AV-unprocessed.smi:2498|AV-procd|sdf|9830|dock2
  -GOLD-   2272013463D 1   1.00000     0.00000
 Structure written by MMmdl.
 36 36  0  0  0  0  0  0  0  0  2 V2000
  150.7179  141.2720  156.2775 C   0  0  0  0  0  0  0  0  0  0  0  0
  151.3959  141.7531  157.5291 C   0  0  0  0  0  0  0  0  0  0  0  0
  151.5713  143.0526  157.6969 N   0  0  0  0  0  0  0  0  0  0  0  0
  152.1514  143.1717  158.9091 N   0  0  0  0  0  0  0  0  0  0  0  0
  152.5092  144.4883  159.4082 C   0  0  0  0  0  0  0  0  0  0  0  0
  152.2107  145.4133  158.4963 F   0  0  0  0  0  0  0  0  0  0  0  0
  151.8684  144.7521  160.5483 F   0  0  0  0  0  0  0  0  0  0  0  0
  152.3801  141.9387  159.4889 C   0  0  0  0  0  0  0  0  0  0  0  0
  153.0322  141.7979  160.8261 C   0  0  0  0  0  0  0  0  0  0  0  0
  151.8979  140.9906  158.6261 C   0  0  0  0  0  0  0  0  0  0  0  0
  151.8822  139.4908  158.7962 C   0  0  0  0  0  0  0  0  0  0  0  0
  153.2247  139.0247  159.3592 C   0  0  0  0  0  0  0  0  0  0  0  0
  154.2636  139.3326  158.7768 O   0  0  0  0  0  0  0  0  0  0  0  0
  153.1540  138.2914  160.4858 N   0  0  0  0  0  0  0  0  0  0  0  0
  154.1911  137.7747  161.3897 C   0  0  0  0  0  0  0  0  0  0  0  0
  155.2017  138.9139  161.6470 C   0  0  0  0  0  0  0  0  0  0  0  0
  153.6647  137.2515  162.7524 C   0  0  0  0  0  0  0  0  0  0  0  0
  154.8708  136.6175  160.6207 C   0  0  0  0  0  0  0  0  0  0  0  0
  154.1713  135.6279  160.3078 O   0  0  0  0  0  0  0  0  0  0  0  0
  156.0757  136.7539  160.3098 O   0  5  0  0  0  0  0  0  0  0  0  0
  150.7309  140.1853  156.2026 H   0  0  0  0  0  0  0  0  0  0  0  0
  151.2058  141.6694  155.3872 H   0  0  0  0  0  0  0  0  0  0  0  0
  149.6745  141.5883  156.2553 H   0  0  0  0  0  0  0  0  0  0  0  0
  153.5787  144.5400  159.6123 H   0  0  0  0  0  0  0  0  0  0  0  0
  153.2407  140.7541  161.0588 H   0  0  0  0  0  0  0  0  0  0  0  0
  152.3869  142.1904  161.6119 H   0  0  0  0  0  0  0  0  0  0  0  0
  153.9764  142.3418  160.8578 H   0  0  0  0  0  0  0  0  0  0  0  0
  151.0848  139.1686  159.4661 H   0  0  0  0  0  0  0  0  0  0  0  0
  151.6943  138.9840  157.8492 H   0  0  0  0  0  0  0  0  0  0  0  0
  152.2165  138.1260  160.8223 H   0  0  0  0  0  0  0  0  0  0  0  0
  156.0589  138.5635  162.2235 H   0  0  0  0  0  0  0  0  0  0  0  0
  154.7394  139.7242  162.2114 H   0  0  0  0  0  0  0  0  0  0  0  0
  155.5801  139.3470  160.7197 H   0  0  0  0  0  0  0  0  0  0  0  0
  154.4679  136.8003  163.3365 H   0  0  0  0  0  0  0  0  0  0  0  0
  152.8864  136.4959  162.6355 H   0  0  0  0  0  0  0  0  0  0  0  0
  153.2531  138.0594  163.3578 H   0  0  0  0  0  0  0  0  0  0  0  0
  1  2  1  0  0  0  0
  1 21  1  0  0  0  0
  1 22  1  0  0  0  0
  1 23  1  0  0  0  0
  2 10  1  0  0  0  0
  2  3  2  0  0  0  0
  3  4  1  0  0  0  0
  4  5  1  0  0  0  0
  4  8  1  0  0  0  0
  5  6  1  0  0  0  0
  5  7  1  0  0  0  0
  5 24  1  0  0  0  0
  8  9  1  0  0  0  0
  8 10  2  0  0  0  0
  9 25  1  0  0  0  0
  9 26  1  0  0  0  0
  9 27  1  0  0  0  0
 10 11  1  0  0  0  0
 11 12  1  0  0  0  0
 11 28  1  0  0  0  0
 11 29  1  0  0  0  0
 12 13  2  0  0  0  0
 12 14  1  0  0  0  0
 14 15  1  0  0  0  0
 14 30  1  0  0  0  0
 15 16  1  0  0  0  0
 15 17  1  0  0  0  0
 15 18  1  0  0  0  0
 16 31  1  0  0  0  0
 16 32  1  0  0  0  0
 16 33  1  0  0  0  0
 17 34  1  0  0  0  0
 17 35  1  0  0  0  0
 17 36  1  0  0  0  0
 18 19  2  0  0  0  0
 18 20  1  0  0  0  0
M  CHG  1  20  -1
M  END
> <s_m_source_file>
AV-unprocessed.smi

> <i_m_source_file_index>
2498

> <i_lp_mmshare_version>
43012

> <i_f3d_flags>
0

> <s_epik_input>
W0NIM11jMW5uKFtDSF0oRilGKWMoW0NIM10pYzFbQ0gyXUMoPU8pW05IXUMoW0NIM10pKFtDSDNdKUMoPU8pW09IXQ==

> <s_epik_cmdline>
J2VwaWtfcHl0aG9uJywgJy1waCcsICc3LjAnLCAnLXRuJywgJzgnLCAnLW1hJywgJzIwMCcsICctbWV0YWxfYmluZGluZycsICctaW1hZScsICc8aW5maWxlLm1hZT4nLCAnLW9tYWUnLCAnPG91dGZpbGUubWFlPic=

> <r_lp_tautomer_probability>
1

> <r_epik_Ionization_Penalty>
0.000275972

> <r_epik_Ionization_Penalty_Charging>
0.000275542

> <r_epik_Ionization_Penalty_Neutral>
4.29922e-07

> <r_epik_State_Penalty>
-0

> <r_epik_Charging_Adjusted_Penalty>
0.000275542

> <i_epik_Tot_Q>
-1

> <i_epik_Tot_abs_Q>
1

> <r_epik_Metal_State_Penalty>
-0

> <b_epik_Metal_Only>
0

> <s_lp_Force_Field>
OPLS_2005

> <r_lp_Energy>
1.362

> <b_lp_Chiralities_Consistent>
1

> <s_lp_Variant>
AV-unprocessed.smi:2498-1

> <Gold.Version>
5.8.1

> <Gold.Id.Protein>
6NUR|6NUR_protein|mol2

> <Gold.PLP.Fitness>
48.6407

> <Gold.PLP.PLP>
-40.6514

> <Gold.PLP.part.hbond>
-2.0000

> <Gold.PLP.part.metal>
0.0000

> <Gold.PLP.part.buried>
-5.4016

> <Gold.PLP.part.nonpolar>
-33.2607

> <Gold.PLP.part.repulsive>
0.1451

> <Gold.PLP.ligand.clash>
0.0000

> <Gold.PLP.ligand.torsion>
0.5479

> <Gold.PLP.Chemscore.Hbond>
3.0000

> <Gold.PLP.Chemscore.CHOScore>
0.0000

> <Gold.PLP.Chemscore.Metal>
0.0000

> <Gold.Chemscore.Hbonds>
donor molecule, donor type, donor heavy atom, donor atom, acceptor molecule, acceptor atom, score
      P1  H  6896  6907       L1    19  2.00
      P1  H  7997  8010       L1    13  1.00

> <Gold.PLP.Chemscore.Internal.Correction>
0.0852

> <Gold.Rescore>
     Score         DG    S(hbond)    S(metal)    S(lipo)     H(rot)  DE(clash)    DE(int)     intcor
     15.61     -15.86       2.00        0.00      78.68       2.15       0.00       0.24       ----

> <Gold.Chemscore.Fitness>
15.6099

> <Gold.Chemscore.DG>
-15.8555

> <Gold.Chemscore.ZeroCoef>
-5.4800

> <Gold.Chemscore.Hbond>
1.9982

> <Gold.Chemscore.Metal>
0.0000

> <Gold.Chemscore.Lipo>
78.6823

> <Gold.Chemscore.Internal_Hbond>
0.0000

> <Gold.Chemscore.DEClash>
0.0015

> <Gold.Chemscore.DEInternal>
0.2441

> <Gold.Chemscore.Rot>
2.1501

> <Gold.Chemscore.Internal.Correction>
   9.000000E+99

> <Gold.Chemscore.Hbonds>
donor molecule, donor type, donor heavy atom, donor atom, acceptor molecule, acceptor atom, score
      P1  H  6896  6907       L1    19  0.97
      P1  H  7997  8010       L1    13  1.00

> <Gold.Chemscore.Hbond.Weighted>
-6.6740

> <Gold.Chemscore.Metal.Weighted>
-0.0000

> <Gold.Chemscore.Lipo.Weighted>
-9.2058

> <Gold.Chemscore.Internal_Hbond.Weighted>
0.0000

> <Gold.Chemscore.DEClash.Weighted>
0.0015

> <Gold.Chemscore.DEInternal.Weighted>
0.2441

> <Gold.Chemscore.Rot.Weighted>
5.5043

> <Gold.Chemscore.Internal.Correction.Weighted>
   9.000000E+99

> <Gold.Protein.RotatedTorsions>
[ 6907 6896 6895 6894 ] final   60.02 input  -60.11 | X-H torsion
[ 7974 7965 7964 7962 ] final   20.47 input  175.53 | X-H torsion
[ 8008 7997 7996 7995 ] final    0.14 input   59.86 | X-H torsion
[ 10167 10162 10161 10158 ] final  -45.63 input  -65.29 | X-H torsion
[ 10718 10713 10712 10709 ] final -152.22 input   66.30 | X-H torsion
[ 10763 10752 10751 10750 ] final -142.26 input  -60.55 | X-H torsion
[ 11005 11000 10999 10996 ] final    8.38 input  -57.11 | X-H torsion

> <Gold.Protein.ActiveResidues>
 VAL166  LYS551  ARG553  GLY616  TRP617  ASP618  TYR619  PRO620  LYS621  CYS622 
 ASP623  PHE694  ASN695  SER759  ASP760  ASP761  ALA762  ILE779  LEU786  VAL792 
 PHE793  MET794  SER795  GLU796  ALA797  LYS798  CYS799  TRP800  GLU811  SER814 

> <Gold.Protein.RotatedAtoms>
  152.3966  134.6354  160.0086 H   0  0  0  0  0  0  0  0  0  0  0  0  # atno 6907 bound_to 6896
  151.6572  133.3313  159.3173 H   0  0  0  0  0  0  0  0  0  0  0  0  # atno 6908 bound_to 6896
  150.7873  134.6911  159.6542 H   0  0  0  0  0  0  0  0  0  0  0  0  # atno 6909 bound_to 6896
  146.2110  139.8164  142.8689 H   0  0  0  0  0  0  0  0  0  0  0  0  # atno 7974 bound_to 7965
  154.6646  140.2598  155.7071 H   0  0  0  0  0  0  0  0  0  0  0  0  # atno 8008 bound_to 7997
  156.2633  140.2841  156.1054 H   0  0  0  0  0  0  0  0  0  0  0  0  # atno 8009 bound_to 7997
  155.1257  140.0378  157.2752 H   0  0  0  0  0  0  0  0  0  0  0  0  # atno 8010 bound_to 7997
  140.6850  143.2870  151.3666 H   0  0  0  0  0  0  0  0  0  0  0  0  # atno 10167 bound_to 10162
  156.4696  130.8252  151.2481 H   0  0  0  0  0  0  0  0  0  0  0  0  # atno 10718 bound_to 10713
  154.8515  135.3501  154.6000 H   0  0  0  0  0  0  0  0  0  0  0  0  # atno 10763 bound_to 10752
  153.6609  135.6989  153.5182 H   0  0  0  0  0  0  0  0  0  0  0  0  # atno 10764 bound_to 10752
  153.2819  135.4261  155.1043 H   0  0  0  0  0  0  0  0  0  0  0  0  # atno 10765 bound_to 10752
  140.5377  134.0405  155.7893 H   0  0  0  0  0  0  0  0  0  0  0  0  # atno 11005 bound_to 11000
  145.3142  141.0227  143.3537 LP  0  0  0  0  0  0  0  0  0  0  0  0  # atno 17320 bound_to 7965
  144.8914  139.4770  143.6676 LP  0  0  0  0  0  0  0  0  0  0  0  0  # atno 17321 bound_to 7965
  139.6202  144.0923  152.2384 LP  0  0  0  0  0  0  0  0  0  0  0  0  # atno 17342 bound_to 10162
  140.0364  144.6041  150.7446 LP  0  0  0  0  0  0  0  0  0  0  0  0  # atno 17343 bound_to 10162
  157.7492  131.0080  150.3214 LP  0  0  0  0  0  0  0  0  0  0  0  0  # atno 17370 bound_to 10713
  156.3632  130.3850  149.7234 LP  0  0  0  0  0  0  0  0  0  0  0  0  # atno 17371 bound_to 10713
  141.1245  133.9405  157.2662 LP  0  0  0  0  0  0  0  0  0  0  0  0  # atno 17394 bound_to 11000
  139.9521  135.0173  156.9023 LP  0  0  0  0  0  0  0  0  0  0  0  0  # atno 17395 bound_to 11000

$$$$
