AV-unprocessed.smi:679|AV-procd|sdf|3322|dock4
  -GOLD-   22720 0293D 1   1.00000     0.00000
 Structure written by MMmdl.
 41 43  0  0  0  0  0  0  0  0  1 V2000
  144.1159  132.1969  149.7349 C   0  0  0  0  0  0  0  0  0  0  0  0
  145.1320  133.1146  150.4182 C   0  0  0  0  0  0  0  0  0  0  0  0
  144.4320  134.0666  151.2007 O   0  0  0  0  0  0  0  0  0  0  0  0
  145.2737  135.0827  151.7228 C   0  0  1  0  0  0  0  0  0  0  0  0
  145.8474  136.0442  150.6774 C   0  0  0  0  0  0  0  0  0  0  0  0
  145.5754  137.1787  151.6723 C   0  0  2  0  0  0  0  0  0  0  0  0
  146.7393  137.4207  152.5264 N   0  0  0  0  0  0  0  0  0  0  0  0
  146.7206  138.1426  153.6561 C   0  0  0  0  0  0  0  0  0  0  0  0
  145.7045  138.6854  154.0921 O   0  0  0  0  0  0  0  0  0  0  0  0
  148.0514  138.2510  154.4069 C   0  0  0  0  0  0  0  0  0  0  0  0
  148.7830  139.4558  154.0563 N   0  0  0  0  0  0  0  0  0  0  0  0
  148.4319  140.5143  153.3228 C   0  0  0  0  0  0  0  0  0  0  0  0
  149.4121  141.4011  153.2434 N   0  0  0  0  0  0  0  0  0  0  0  0
  150.4238  140.8192  153.9888 N   0  0  0  0  0  0  0  0  0  0  0  0
  150.0572  139.6638  154.4714 N   0  0  0  0  0  0  0  0  0  0  0  0
  144.4984  136.2762  152.3323 C   0  0  0  0  0  0  0  0  0  0  0  0
  143.0570  136.4796  151.8585 C   0  0  0  0  0  0  0  0  0  0  0  0
  142.1450  135.7630  152.8598 C   0  0  0  0  0  0  0  0  0  0  0  0
  142.9763  135.5978  154.1358 C   0  0  0  0  0  0  0  0  0  0  0  0
  144.3124  136.2855  153.8485 C   0  0  0  0  0  0  0  0  0  0  0  0
  144.6174  131.4426  149.1282 H   0  0  0  0  0  0  0  0  0  0  0  0
  143.4523  132.7652  149.0826 H   0  0  0  0  0  0  0  0  0  0  0  0
  143.5004  131.6795  150.4711 H   0  0  0  0  0  0  0  0  0  0  0  0
  145.7987  132.5256  151.0498 H   0  0  0  0  0  0  0  0  0  0  0  0
  145.7442  133.6159  149.6674 H   0  0  0  0  0  0  0  0  0  0  0  0
  146.0363  134.6971  152.4030 H   0  0  0  0  0  0  0  0  0  0  0  0
  146.8966  135.8775  150.4300 H   0  0  0  0  0  0  0  0  0  0  0  0
  145.2305  136.1140  149.7800 H   0  0  0  0  0  0  0  0  0  0  0  0
  145.1750  138.0749  151.1950 H   0  0  0  0  0  0  0  0  0  0  0  0
  147.6131  137.0043  152.2392 H   0  0  0  0  0  0  0  0  0  0  0  0
  147.8590  138.2417  155.4808 H   0  0  0  0  0  0  0  0  0  0  0  0
  148.6837  137.3905  154.1835 H   0  0  0  0  0  0  0  0  0  0  0  0
  147.4671  140.6340  152.8524 H   0  0  0  0  0  0  0  0  0  0  0  0
  142.8172  137.5439  151.8557 H   0  0  0  0  0  0  0  0  0  0  0  0
  142.8889  136.1231  150.8415 H   0  0  0  0  0  0  0  0  0  0  0  0
  141.2308  136.3297  153.0388 H   0  0  0  0  0  0  0  0  0  0  0  0
  141.8550  134.7837  152.4767 H   0  0  0  0  0  0  0  0  0  0  0  0
  142.4826  136.0252  155.0090 H   0  0  0  0  0  0  0  0  0  0  0  0
  143.1375  134.5375  154.3346 H   0  0  0  0  0  0  0  0  0  0  0  0
  145.1317  135.7962  154.3761 H   0  0  0  0  0  0  0  0  0  0  0  0
  144.2704  137.3130  154.2121 H   0  0  0  0  0  0  0  0  0  0  0  0
  1  2  1  0  0  0  0
  1 21  1  0  0  0  0
  1 22  1  0  0  0  0
  1 23  1  0  0  0  0
  2  3  1  0  0  0  0
  2 24  1  0  0  0  0
  2 25  1  0  0  0  0
  3  4  1  0  0  0  0
  4 16  1  0  0  0  0
  4  5  1  0  0  0  0
  4 26  1  0  0  0  0
  5  6  1  0  0  0  0
  5 27  1  0  0  0  0
  5 28  1  0  0  0  0
  6  7  1  0  0  0  0
  6 16  1  0  0  0  0
  6 29  1  0  0  0  0
  7  8  1  0  0  0  0
  7 30  1  0  0  0  0
  8  9  2  0  0  0  0
  8 10  1  0  0  0  0
 10 11  1  0  0  0  0
 10 31  1  0  0  0  0
 10 32  1  0  0  0  0
 11 15  1  0  0  0  0
 11 12  1  0  0  0  0
 12 13  2  0  0  0  0
 12 33  1  0  0  0  0
 13 14  1  0  0  0  0
 14 15  2  0  0  0  0
 16 20  1  0  0  0  0
 16 17  1  0  0  0  0
 17 18  1  0  0  0  0
 17 34  1  0  0  0  0
 17 35  1  0  0  0  0
 18 19  1  0  0  0  0
 18 36  1  0  0  0  0
 18 37  1  0  0  0  0
 19 20  1  0  0  0  0
 19 38  1  0  0  0  0
 19 39  1  0  0  0  0
 20 40  1  0  0  0  0
 20 41  1  0  0  0  0
M  END
> <s_m_source_file>
AV-unprocessed.smi

> <i_m_source_file_index>
679

> <i_lp_mmshare_version>
43012

> <i_f3d_flags>
0

> <s_epik_input>
W0NIMl0xW0NIMl1bQ0gyXVtDSDJdQzEyW0NASF0oT1tDSDJdW0NIM10pW0NIMl1bQ0BIXTJbTkhdQyg9TylbQ0gyXW4zW2NIXW5ubjM=

> <s_epik_cmdline>
J2VwaWtfcHl0aG9uJywgJy1waCcsICc3LjAnLCAnLXRuJywgJzgnLCAnLW1hJywgJzIwMCcsICctbWV0YWxfYmluZGluZycsICctaW1hZScsICc8aW5maWxlLm1hZT4nLCAnLW9tYWUnLCAnPG91dGZpbGUubWFlPic=

> <r_lp_tautomer_probability>
1

> <r_epik_Ionization_Penalty>
7.96741e-07

> <r_epik_Ionization_Penalty_Charging>
0

> <r_epik_Ionization_Penalty_Neutral>
7.96741e-07

> <r_epik_State_Penalty>
-0

> <r_epik_Charging_Adjusted_Penalty>
0

> <i_epik_Tot_Q>
0

> <i_epik_Tot_abs_Q>
0

> <r_epik_Metal_State_Penalty>
-0

> <b_epik_Metal_Only>
0

> <s_lp_Force_Field>
OPLS_2005

> <r_lp_Energy>
39.7046

> <b_lp_Chiralities_Consistent>
1

> <s_lp_Variant>
AV-unprocessed.smi:679-4

> <Gold.Version>
5.8.1

> <Gold.Id.Protein>
6NUR|6NUR_protein|mol2

> <Gold.PLP.Fitness>
34.6177

> <Gold.PLP.PLP>
-26.9241

> <Gold.PLP.part.hbond>
-3.7524

> <Gold.PLP.part.metal>
0.0000

> <Gold.PLP.part.buried>
-3.3744

> <Gold.PLP.part.nonpolar>
-20.2812

> <Gold.PLP.part.repulsive>
1.6505

> <Gold.PLP.ligand.clash>
0.0000

> <Gold.PLP.ligand.torsion>
0.6110

> <Gold.PLP.Chemscore.Hbond>
2.8484

> <Gold.PLP.Chemscore.CHOScore>
0.0000

> <Gold.PLP.Chemscore.Metal>
0.0000

> <Gold.Chemscore.Hbonds>
donor molecule, donor type, donor heavy atom, donor atom, acceptor molecule, acceptor atom, score
      L1  H     7    30       P1  7948  1.00
      P1  H  7989  7998       L1    14  0.25
      P1  H  8011  8017       L1    13  0.71

> <Gold.PLP.Chemscore.Internal.Correction>
0.3703

> <Gold.Rescore>
     Score         DG    S(hbond)    S(metal)    S(lipo)     H(rot)  DE(clash)    DE(int)     intcor
     10.12     -12.84       2.07        0.00      56.39       2.41       0.08       2.64       ----

> <Gold.Chemscore.Fitness>
10.1239

> <Gold.Chemscore.DG>
-12.8404

> <Gold.Chemscore.ZeroCoef>
-5.4800

> <Gold.Chemscore.Hbond>
2.0748

> <Gold.Chemscore.Metal>
0.0000

> <Gold.Chemscore.Lipo>
56.3882

> <Gold.Chemscore.Internal_Hbond>
0.0000

> <Gold.Chemscore.DEClash>
0.0761

> <Gold.Chemscore.DEInternal>
2.6404

> <Gold.Chemscore.Rot>
2.4089

> <Gold.Chemscore.Internal.Correction>
   9.000000E+99

> <Gold.Chemscore.Hbonds>
donor molecule, donor type, donor heavy atom, donor atom, acceptor molecule, acceptor atom, score
      L1  H     7    30       P1  7948  0.97
      P1  H  7989  7998       L1    14  0.22
      P1  H  8011  8017       L1    13  0.64

> <Gold.Chemscore.Hbond.Weighted>
-6.9298

> <Gold.Chemscore.Metal.Weighted>
-0.0000

> <Gold.Chemscore.Lipo.Weighted>
-6.5974

> <Gold.Chemscore.Internal_Hbond.Weighted>
0.0000

> <Gold.Chemscore.DEClash.Weighted>
0.0761

> <Gold.Chemscore.DEInternal.Weighted>
2.6404

> <Gold.Chemscore.Rot.Weighted>
6.1668

> <Gold.Chemscore.Internal.Correction.Weighted>
   9.000000E+99

> <Gold.Protein.RotatedTorsions>
[ 6907 6896 6895 6894 ] final   88.77 input  -60.11 | X-H torsion
[ 7974 7965 7964 7962 ] final -179.14 input  175.53 | X-H torsion
[ 8008 7997 7996 7995 ] final -136.15 input   59.86 | X-H torsion
[ 10167 10162 10161 10158 ] final -114.23 input  -65.29 | X-H torsion
[ 10718 10713 10712 10709 ] final   80.01 input   66.30 | X-H torsion
[ 10763 10752 10751 10750 ] final  -67.45 input  -60.55 | X-H torsion
[ 11005 11000 10999 10996 ] final  132.97 input  -57.11 | X-H torsion

> <Gold.Protein.ActiveResidues>
 VAL166  LYS551  ARG553  GLY616  TRP617  ASP618  TYR619  PRO620  LYS621  CYS622 
 ASP623  PHE694  ASN695  SER759  ASP760  ASP761  ALA762  ILE779  LEU786  VAL792 
 PHE793  MET794  SER795  GLU796  ALA797  LYS798  CYS799  TRP800  GLU811  SER814 

> <Gold.Protein.RotatedAtoms>
  152.5429  134.2070  159.8734 H   0  0  0  0  0  0  0  0  0  0  0  0  # atno 6907 bound_to 6896
  151.2055  133.4579  159.2604 H   0  0  0  0  0  0  0  0  0  0  0  0  # atno 6908 bound_to 6896
  151.0948  134.9950  159.8476 H   0  0  0  0  0  0  0  0  0  0  0  0  # atno 6909 bound_to 6896
  144.7135  140.0763  143.6427 H   0  0  0  0  0  0  0  0  0  0  0  0  # atno 7974 bound_to 7965
  155.3904  140.0499  157.3041 H   0  0  0  0  0  0  0  0  0  0  0  0  # atno 8008 bound_to 7997
  154.5039  140.2167  155.9252 H   0  0  0  0  0  0  0  0  0  0  0  0  # atno 8009 bound_to 7997
  156.1501  140.3137  155.8640 H   0  0  0  0  0  0  0  0  0  0  0  0  # atno 8010 bound_to 7997
  140.1032  143.4594  152.1799 H   0  0  0  0  0  0  0  0  0  0  0  0  # atno 10167 bound_to 10162
  157.6794  130.9940  150.2017 H   0  0  0  0  0  0  0  0  0  0  0  0  # atno 10718 bound_to 10713
  154.3747  135.6087  153.5758 H   0  0  0  0  0  0  0  0  0  0  0  0  # atno 10763 bound_to 10752
  152.9789  135.5846  154.4481 H   0  0  0  0  0  0  0  0  0  0  0  0  # atno 10764 bound_to 10752
  154.4240  135.2846  155.1934 H   0  0  0  0  0  0  0  0  0  0  0  0  # atno 10765 bound_to 10752
  139.9823  134.9544  156.9658 H   0  0  0  0  0  0  0  0  0  0  0  0  # atno 11005 bound_to 11000
  145.9740  139.2891  143.1081 LP  0  0  0  0  0  0  0  0  0  0  0  0  # atno 17320 bound_to 7965
  145.9084  140.9196  143.0466 LP  0  0  0  0  0  0  0  0  0  0  0  0  # atno 17321 bound_to 7965
  139.5660  144.7435  151.4022 LP  0  0  0  0  0  0  0  0  0  0  0  0  # atno 17342 bound_to 10162
  140.6966  143.7733  150.7337 LP  0  0  0  0  0  0  0  0  0  0  0  0  # atno 17343 bound_to 10162
  156.2706  130.3721  149.8035 LP  0  0  0  0  0  0  0  0  0  0  0  0  # atno 17370 bound_to 10713
  156.5753  130.8442  151.3368 LP  0  0  0  0  0  0  0  0  0  0  0  0  # atno 17371 bound_to 10713
  140.5072  134.1038  155.7262 LP  0  0  0  0  0  0  0  0  0  0  0  0  # atno 17394 bound_to 11000
  141.1493  133.8998  157.2138 LP  0  0  0  0  0  0  0  0  0  0  0  0  # atno 17395 bound_to 11000

$$$$
