AV-unprocessed.smi:1399|AV-procd|sdf|5684|dock6
  -GOLD-   22720 5313D 1   1.00000     0.00000
 Structure written by MMmdl.
 37 38  0  0  0  0  0  0  0  0  3 V2000
  147.9571  142.9067  154.1207 N   0  5  0  0  0  0  0  0  0  0  0  0
  146.6490  142.5867  154.1246 C   0  0  0  0  0  0  0  0  0  0  0  0
  145.7128  143.2274  153.6511 O   0  0  0  0  0  0  0  0  0  0  0  0
  146.3780  141.2371  154.7978 C   0  0  0  0  0  0  0  0  0  0  0  0
  146.1056  140.1995  153.7721 N   0  3  2  0  0  0  0  0  0  0  0  0
  145.8417  138.8675  154.3732 C   0  0  0  0  0  0  0  0  0  0  0  0
  145.4217  137.8467  153.3019 C   0  0  0  0  0  0  0  0  0  0  0  0
  146.4815  137.7363  152.1943 C   0  0  1  0  0  0  0  0  0  0  0  0
  146.0201  136.8252  151.1509 N   0  0  0  0  0  0  0  0  0  0  0  0
  145.4113  135.6503  151.3684 C   0  0  0  0  0  0  0  0  0  0  0  0
  145.1652  135.2099  152.4912 O   0  0  0  0  0  0  0  0  0  0  0  0
  145.1190  135.0296  150.2141 N   0  0  0  0  0  0  0  0  0  0  0  0
  144.4751  133.7769  150.0545 C   0  0  0  0  0  0  0  0  0  0  0  0
  144.3116  132.9892  148.8770 C   0  0  0  0  0  0  0  0  0  0  0  0
  143.6500  131.8703  149.1366 N   0  0  0  0  0  0  0  0  0  0  0  0
  143.3912  131.9350  150.4621 N   0  0  0  0  0  0  0  0  0  0  0  0
  143.8769  133.0771  151.0596 C   0  0  0  0  0  0  0  0  0  0  0  0
  146.7647  139.1334  151.6133 C   0  0  0  0  0  0  0  0  0  0  0  0
  147.1549  140.1270  152.7197 C   0  0  0  0  0  0  0  0  0  0  0  0
  142.8873  131.2002  150.9382 H   0  0  0  0  0  0  0  0  0  0  0  0
  148.6047  142.3274  153.5729 H   0  0  0  0  0  0  0  0  0  0  0  0
  147.1901  140.9210  155.4564 H   0  0  0  0  0  0  0  0  0  0  0  0
  145.5013  141.3736  155.4324 H   0  0  0  0  0  0  0  0  0  0  0  0
  146.7341  138.5208  154.8968 H   0  0  0  0  0  0  0  0  0  0  0  0
  145.0484  138.9500  155.1171 H   0  0  0  0  0  0  0  0  0  0  0  0
  145.2619  136.8724  153.7653 H   0  0  0  0  0  0  0  0  0  0  0  0
  144.4641  138.1467  152.8731 H   0  0  0  0  0  0  0  0  0  0  0  0
  147.3983  137.3415  152.6370 H   0  0  0  0  0  0  0  0  0  0  0  0
  146.1812  137.1071  150.1949 H   0  0  0  0  0  0  0  0  0  0  0  0
  145.3897  135.4972  149.3614 H   0  0  0  0  0  0  0  0  0  0  0  0
  144.6393  133.1769  147.8655 H   0  0  0  0  0  0  0  0  0  0  0  0
  143.7557  133.2841  152.1126 H   0  0  0  0  0  0  0  0  0  0  0  0
  147.5637  139.0797  150.8729 H   0  0  0  0  0  0  0  0  0  0  0  0
  145.8824  139.5043  151.0892 H   0  0  0  0  0  0  0  0  0  0  0  0
  147.3115  141.1095  152.2739 H   0  0  0  0  0  0  0  0  0  0  0  0
  148.1038  139.8319  153.1703 H   0  0  0  0  0  0  0  0  0  0  0  0
  145.2497  140.4832  153.3168 H   0  0  0  0  0  0  0  0  0  0  0  0
  1  2  1  0  0  0  0
  1 21  1  0  0  0  0
  2  3  2  0  0  0  0
  2  4  1  0  0  0  0
  4  5  1  0  0  0  0
  4 22  1  0  0  0  0
  4 23  1  0  0  0  0
  5 19  1  0  0  0  0
  5  6  1  0  0  0  0
  5 37  1  0  0  0  0
  6  7  1  0  0  0  0
  6 24  1  0  0  0  0
  6 25  1  0  0  0  0
  7  8  1  0  0  0  0
  7 26  1  0  0  0  0
  7 27  1  0  0  0  0
  8  9  1  0  0  0  0
  8 18  1  0  0  0  0
  8 28  1  0  0  0  0
  9 10  1  0  0  0  0
  9 29  1  0  0  0  0
 10 11  2  0  0  0  0
 10 12  1  0  0  0  0
 12 13  1  0  0  0  0
 12 30  1  0  0  0  0
 13 17  2  0  0  0  0
 13 14  1  0  0  0  0
 14 15  2  0  0  0  0
 14 31  1  0  0  0  0
 15 16  1  0  0  0  0
 16 20  1  0  0  0  0
 16 17  1  0  0  0  0
 17 32  1  0  0  0  0
 18 19  1  0  0  0  0
 18 33  1  0  0  0  0
 18 34  1  0  0  0  0
 19 35  1  0  0  0  0
 19 36  1  0  0  0  0
M  CHG  1   1  -1
M  CHG  1   5   1
M  END
> <s_m_source_file>
AV-unprocessed.smi

> <i_m_source_file_index>
1399

> <i_lp_mmshare_version>
43012

> <i_f3d_flags>
0

> <s_epik_input>
W05IMl1DKD1PKVtDSDJdTjFbQ0gyXVtDSDJdW0NIXShbQ0gyXVtDSDJdMSlbTkhdQyg9TylbTkhdYzJbY0hdbltuSF1bY0hdMg==

> <s_epik_cmdline>
J2VwaWtfcHl0aG9uJywgJy1waCcsICc3LjAnLCAnLXRuJywgJzgnLCAnLW1hJywgJzIwMCcsICctbWV0YWxfYmluZGluZycsICctaW1hZScsICc8aW5maWxlLm1hZT4nLCAnLW9tYWUnLCAnPG91dGZpbGUubWFlPic=

> <r_lp_tautomer_probability>
0.5

> <r_epik_Ionization_Penalty>
5.72885

> <r_epik_Ionization_Penalty_Charging>
5.7288

> <r_epik_Ionization_Penalty_Neutral>
4.21226e-05

> <r_epik_State_Penalty>
6.54882

> <r_epik_Charging_Adjusted_Penalty>
12.2776

> <i_epik_Tot_Q>
0

> <i_epik_Tot_abs_Q>
2

> <r_epik_Metal_State_Penalty>
2.51297

> <b_epik_Metal_Only>
1

> <s_lp_Force_Field>
OPLS_2005

> <r_lp_Energy>
11.0753

> <b_lp_Chiralities_Consistent>
1

> <s_lp_Variant>
AV-unprocessed.smi:1399-4

> <Gold.Version>
5.8.1

> <Gold.Id.Protein>
6NUR|6NUR_protein|mol2

> <Gold.PLP.Fitness>
48.6690

> <Gold.PLP.PLP>
-33.9421

> <Gold.PLP.part.hbond>
-8.5491

> <Gold.PLP.part.metal>
0.0000

> <Gold.PLP.part.buried>
2.2739

> <Gold.PLP.part.nonpolar>
-27.9856

> <Gold.PLP.part.repulsive>
0.8063

> <Gold.PLP.ligand.clash>
0.0000

> <Gold.PLP.ligand.torsion>
0.4501

> <Gold.PLP.Chemscore.Hbond>
4.4800

> <Gold.PLP.Chemscore.CHOScore>
0.7220

> <Gold.PLP.Chemscore.Metal>
0.0000

> <Gold.Chemscore.Hbonds>
donor molecule, donor type, donor heavy atom, donor atom, acceptor molecule, acceptor atom, score
      L1  H     5    37       P1 10175  2.00
      L1  H    12    30       P1  7921  0.66
      P1  H  8022  8030       L1     1  0.90
      P1  H 10785 10796       L1    15  0.85
      L1  C    14    31       P1  7921  0.74

> <Gold.PLP.Chemscore.Internal.Correction>
0.0212

> <Gold.Rescore>
     Score         DG    S(hbond)    S(metal)    S(lipo)     H(rot)  DE(clash)    DE(int)     intcor
     12.32     -18.05       3.09        0.00      64.36       2.06       2.53       3.21       ----

> <Gold.Chemscore.Fitness>
12.3175

> <Gold.Chemscore.DG>
-18.0545

> <Gold.Chemscore.ZeroCoef>
-5.4800

> <Gold.Chemscore.Hbond>
3.0881

> <Gold.Chemscore.Metal>
0.0000

> <Gold.Chemscore.Lipo>
64.3565

> <Gold.Chemscore.Internal_Hbond>
0.0000

> <Gold.Chemscore.DEClash>
2.5254

> <Gold.Chemscore.DEInternal>
3.2116

> <Gold.Chemscore.Rot>
2.0584

> <Gold.Chemscore.Internal.Correction>
   9.000000E+99

> <Gold.Chemscore.Hbonds>
donor molecule, donor type, donor heavy atom, donor atom, acceptor molecule, acceptor atom, score
      L1  H     5    37       P1 10175  0.98
      L1  H    12    30       P1  7921  0.64
      P1  H  8022  8030       L1     1  0.25
      P1  H 10785 10796       L1    15  0.34

> <Gold.Chemscore.Hbond.Weighted>
-10.3142

> <Gold.Chemscore.Metal.Weighted>
-0.0000

> <Gold.Chemscore.Lipo.Weighted>
-7.5297

> <Gold.Chemscore.Internal_Hbond.Weighted>
0.0000

> <Gold.Chemscore.DEClash.Weighted>
2.5254

> <Gold.Chemscore.DEInternal.Weighted>
3.2116

> <Gold.Chemscore.Rot.Weighted>
5.2695

> <Gold.Chemscore.Internal.Correction.Weighted>
   9.000000E+99

> <Gold.Protein.RotatedTorsions>
[ 6907 6896 6895 6894 ] final    5.00 input  -60.11 | X-H torsion
[ 7974 7965 7964 7962 ] final   -0.62 input  175.53 | X-H torsion
[ 8008 7997 7996 7995 ] final -118.69 input   59.86 | X-H torsion
[ 10167 10162 10161 10158 ] final  -61.30 input  -65.29 | X-H torsion
[ 10718 10713 10712 10709 ] final    2.66 input   66.30 | X-H torsion
[ 10763 10752 10751 10750 ] final  -76.69 input  -60.55 | X-H torsion
[ 11005 11000 10999 10996 ] final  -56.33 input  -57.11 | X-H torsion

> <Gold.Protein.ActiveResidues>
 VAL166  LYS551  ARG553  GLY616  TRP617  ASP618  TYR619  PRO620  LYS621  CYS622 
 ASP623  PHE694  ASN695  SER759  ASP760  ASP761  ALA762  ILE779  LEU786  VAL792 
 PHE793  MET794  SER795  GLU796  ALA797  LYS798  CYS799  TRP800  GLU811  SER814 

> <Gold.Protein.RotatedAtoms>
  151.6504  135.1002  160.0159 H   0  0  0  0  0  0  0  0  0  0  0  0  # atno 6907 bound_to 6896
  152.4004  133.6805  159.6320 H   0  0  0  0  0  0  0  0  0  0  0  0  # atno 6908 bound_to 6896
  150.7905  133.8718  159.3302 H   0  0  0  0  0  0  0  0  0  0  0  0  # atno 6909 bound_to 6896
  146.2425  140.1297  142.8338 H   0  0  0  0  0  0  0  0  0  0  0  0  # atno 7974 bound_to 7965
  155.1037  140.0396  157.2704 H   0  0  0  0  0  0  0  0  0  0  0  0  # atno 8008 bound_to 7997
  154.6738  140.2618  155.6953 H   0  0  0  0  0  0  0  0  0  0  0  0  # atno 8009 bound_to 7997
  156.2669  140.2792  156.1257 H   0  0  0  0  0  0  0  0  0  0  0  0  # atno 8010 bound_to 7997
  140.6015  143.2363  151.5918 H   0  0  0  0  0  0  0  0  0  0  0  0  # atno 10167 bound_to 10162
  156.8663  130.5604  149.5660 H   0  0  0  0  0  0  0  0  0  0  0  0  # atno 10718 bound_to 10713
  154.5032  135.5789  153.6547 H   0  0  0  0  0  0  0  0  0  0  0  0  # atno 10763 bound_to 10752
  152.9882  135.6141  154.2975 H   0  0  0  0  0  0  0  0  0  0  0  0  # atno 10764 bound_to 10752
  154.2884  135.2849  155.2645 H   0  0  0  0  0  0  0  0  0  0  0  0  # atno 10765 bound_to 10752
  141.1115  133.6610  156.4602 H   0  0  0  0  0  0  0  0  0  0  0  0  # atno 11005 bound_to 11000
  145.0337  140.8891  143.5094 LP  0  0  0  0  0  0  0  0  0  0  0  0  # atno 17320 bound_to 7965
  145.1365  139.2599  143.5512 LP  0  0  0  0  0  0  0  0  0  0  0  0  # atno 17321 bound_to 7965
  139.5294  144.2960  152.1113 LP  0  0  0  0  0  0  0  0  0  0  0  0  # atno 17342 bound_to 10162
  140.2142  144.4532  150.6372 LP  0  0  0  0  0  0  0  0  0  0  0  0  # atno 17343 bound_to 10162
  156.0750  130.5774  150.9456 LP  0  0  0  0  0  0  0  0  0  0  0  0  # atno 17370 bound_to 10713
  157.6221  131.0929  150.8602 LP  0  0  0  0  0  0  0  0  0  0  0  0  # atno 17371 bound_to 10713
  140.4762  134.6707  157.5151 LP  0  0  0  0  0  0  0  0  0  0  0  0  # atno 17394 bound_to 11000
  140.0011  134.6834  155.9528 LP  0  0  0  0  0  0  0  0  0  0  0  0  # atno 17395 bound_to 11000

$$$$
