AV-unprocessed.smi:197|AV-procd|sdf|1549|dock8
  -GOLD-   2262019413D 1   1.00000     0.00000
 Structure written by MMmdl.
 54 57  0  0  0  0  0  0  0  0  1 V2000
  140.6990  138.4994  154.3328 C   0  0  0  0  0  0  0  0  0  0  0  0
  141.4235  137.8893  153.2751 O   0  0  0  0  0  0  0  0  0  0  0  0
  141.9429  136.6051  153.5916 C   0  0  0  0  0  0  0  0  0  0  0  0
  142.6823  135.9795  152.3947 C   0  0  0  0  0  0  0  0  0  0  0  0
  143.7427  134.9272  152.8042 C   0  0  1  0  0  0  0  0  0  0  0  0
  143.6909  133.6477  151.9404 C   0  0  0  0  0  0  0  0  0  0  0  0
  144.1454  133.9251  150.6198 O   0  0  0  0  0  0  0  0  0  0  0  0
  145.5028  134.3526  150.6063 C   0  0  0  0  0  0  0  0  0  0  0  0
  145.6434  135.6518  151.4146 C   0  0  0  0  0  0  0  0  0  0  0  0
  145.1062  135.4696  152.7631 N   0  0  0  0  0  0  0  0  0  0  0  0
  145.4025  136.4133  153.6977 C   0  0  0  0  0  0  0  0  0  0  0  0
  144.9431  136.2662  154.9699 N   0  0  0  0  0  0  0  0  0  0  0  0
  145.2693  137.1499  155.9166 C   0  0  0  0  0  0  0  0  0  0  0  0
  146.0360  138.2360  155.8138 N   0  0  0  0  0  0  0  0  0  0  0  0
  146.4890  138.4011  154.5387 C   0  0  0  0  0  0  0  0  0  0  0  0
  146.2140  137.5534  153.4280 C   0  0  0  0  0  0  0  0  0  0  0  0
  146.8311  138.0590  152.2893 N   0  0  0  0  0  0  0  0  0  0  0  0
  147.4569  139.1243  152.7078 C   0  0  0  0  0  0  0  0  0  0  0  0
  147.3220  139.3922  154.0507 N   0  0  0  0  0  0  0  0  0  0  0  0
  147.9359  140.4852  154.7866 C   0  0  0  0  0  0  0  0  0  0  0  0
  149.4723  140.3443  154.9159 C   0  0  1  0  0  0  0  0  0  0  0  0
  150.0568  140.6336  153.6558 O   0  0  0  0  0  0  0  0  0  0  0  0
  150.0599  141.3020  155.9409 C   0  0  0  0  0  0  0  0  0  0  0  0
  151.3616  140.6139  156.3285 C   0  0  0  0  0  0  0  0  0  0  0  0
  151.0365  139.2317  156.3413 O   0  0  0  0  0  0  0  0  0  0  0  0
  149.9566  138.9704  155.4457 C   0  0  2  0  0  0  0  0  0  0  0  0
  150.3777  137.9252  154.3968 C   0  0  0  0  0  0  0  0  0  0  0  0
  140.2996  139.4546  153.9923 H   0  0  0  0  0  0  0  0  0  0  0  0
  141.3272  138.6963  155.2010 H   0  0  0  0  0  0  0  0  0  0  0  0
  139.8577  137.8798  154.6448 H   0  0  0  0  0  0  0  0  0  0  0  0
  142.5866  136.6554  154.4716 H   0  0  0  0  0  0  0  0  0  0  0  0
  141.0942  135.9791  153.8647 H   0  0  0  0  0  0  0  0  0  0  0  0
  141.9590  135.5424  151.7057 H   0  0  0  0  0  0  0  0  0  0  0  0
  143.1747  136.7779  151.8417 H   0  0  0  0  0  0  0  0  0  0  0  0
  143.5156  134.6194  153.8226 H   0  0  0  0  0  0  0  0  0  0  0  0
  144.3118  132.8668  152.3830 H   0  0  0  0  0  0  0  0  0  0  0  0
  142.6817  133.2412  151.8928 H   0  0  0  0  0  0  0  0  0  0  0  0
  146.1458  133.5707  151.0139 H   0  0  0  0  0  0  0  0  0  0  0  0
  145.8149  134.5153  149.5748 H   0  0  0  0  0  0  0  0  0  0  0  0
  146.6960  135.9342  151.4626 H   0  0  0  0  0  0  0  0  0  0  0  0
  145.1134  136.4627  150.9138 H   0  0  0  0  0  0  0  0  0  0  0  0
  144.8661  136.9533  156.8991 H   0  0  0  0  0  0  0  0  0  0  0  0
  148.0517  139.7390  152.0478 H   0  0  0  0  0  0  0  0  0  0  0  0
  147.6795  141.4220  154.2901 H   0  0  0  0  0  0  0  0  0  0  0  0
  147.4774  140.5295  155.7752 H   0  0  0  0  0  0  0  0  0  0  0  0
  149.9949  139.8612  153.1146 H   0  0  0  0  0  0  0  0  0  0  0  0
  150.2049  142.3154  155.5644 H   0  0  0  0  0  0  0  0  0  0  0  0
  149.4136  141.3624  156.8176 H   0  0  0  0  0  0  0  0  0  0  0  0
  152.1316  140.7925  155.5767 H   0  0  0  0  0  0  0  0  0  0  0  0
  151.7438  140.9456  157.2939 H   0  0  0  0  0  0  0  0  0  0  0  0
  149.1720  138.5364  156.0657 H   0  0  0  0  0  0  0  0  0  0  0  0
  149.5706  137.7131  153.6959 H   0  0  0  0  0  0  0  0  0  0  0  0
  150.6476  136.9853  154.8780 H   0  0  0  0  0  0  0  0  0  0  0  0
  151.2431  138.2567  153.8228 H   0  0  0  0  0  0  0  0  0  0  0  0
  1  2  1  0  0  0  0
  1 28  1  0  0  0  0
  1 29  1  0  0  0  0
  1 30  1  0  0  0  0
  2  3  1  0  0  0  0
  3  4  1  0  0  0  0
  3 31  1  0  0  0  0
  3 32  1  0  0  0  0
  4  5  1  0  0  0  0
  4 33  1  0  0  0  0
  4 34  1  0  0  0  0
  5 10  1  0  0  0  0
  5  6  1  0  0  0  0
  5 35  1  0  0  0  0
  6  7  1  0  0  0  0
  6 36  1  0  0  0  0
  6 37  1  0  0  0  0
  7  8  1  0  0  0  0
  8  9  1  0  0  0  0
  8 38  1  0  0  0  0
  8 39  1  0  0  0  0
  9 10  1  0  0  0  0
  9 40  1  0  0  0  0
  9 41  1  0  0  0  0
 10 11  1  0  0  0  0
 11 16  1  0  0  0  0
 11 12  2  0  0  0  0
 12 13  1  0  0  0  0
 13 14  2  0  0  0  0
 13 42  1  0  0  0  0
 14 15  1  0  0  0  0
 15 19  1  0  0  0  0
 15 16  2  0  0  0  0
 16 17  1  0  0  0  0
 17 18  2  0  0  0  0
 18 19  1  0  0  0  0
 18 43  1  0  0  0  0
 19 20  1  0  0  0  0
 20 21  1  0  0  0  0
 20 44  1  0  0  0  0
 20 45  1  0  0  0  0
 21 26  1  0  0  0  0
 21 22  1  0  0  0  0
 21 23  1  0  0  0  0
 22 46  1  0  0  0  0
 23 24  1  0  0  0  0
 23 47  1  0  0  0  0
 23 48  1  0  0  0  0
 24 25  1  0  0  0  0
 24 49  1  0  0  0  0
 24 50  1  0  0  0  0
 25 26  1  0  0  0  0
 26 27  1  0  0  0  0
 26 51  1  0  0  0  0
 27 52  1  0  0  0  0
 27 53  1  0  0  0  0
 27 54  1  0  0  0  0
M  END
> <s_m_source_file>
AV-unprocessed.smi

> <i_m_source_file_index>
197

> <i_lp_mmshare_version>
43012

> <i_f3d_flags>
0

> <s_epik_input>
W0NIM11PW0NIMl1bQ0gyXVtDQEBIXTFbQ0gyXU9bQ0gyXVtDSDJdTjFjKG5bY0hdbjIpYyhjMjMpbltjSF1uM1tDSDJdW0NAQF00KFtPSF0pW0NIMl1bQ0gyXU9bQ0BIXTRbQ0gzXQ==

> <s_epik_cmdline>
J2VwaWtfcHl0aG9uJywgJy1waCcsICc3LjAnLCAnLXRuJywgJzgnLCAnLW1hJywgJzIwMCcsICctbWV0YWxfYmluZGluZycsICctaW1hZScsICc8aW5maWxlLm1hZT4nLCAnLW9tYWUnLCAnPG91dGZpbGUubWFlPic=

> <r_lp_tautomer_probability>
1

> <r_epik_Ionization_Penalty>
0.000106218

> <r_epik_Ionization_Penalty_Charging>
0

> <r_epik_Ionization_Penalty_Neutral>
0.000106218

> <r_epik_State_Penalty>
-0

> <r_epik_Charging_Adjusted_Penalty>
0

> <i_epik_Tot_Q>
0

> <i_epik_Tot_abs_Q>
0

> <r_epik_Metal_State_Penalty>
-0

> <b_epik_Metal_Only>
0

> <s_lp_Force_Field>
OPLS_2005

> <r_lp_Energy>
41.5492

> <b_lp_Chiralities_Consistent>
1

> <s_lp_Variant>
AV-unprocessed.smi:197-6

> <Gold.Version>
5.8.1

> <Gold.Id.Protein>
6NUR|6NUR_protein|mol2

> <Gold.PLP.Fitness>
39.4398

> <Gold.PLP.PLP>
-32.9468

> <Gold.PLP.part.hbond>
-2.8716

> <Gold.PLP.part.metal>
0.0000

> <Gold.PLP.part.buried>
-3.8451

> <Gold.PLP.part.nonpolar>
-26.5120

> <Gold.PLP.part.repulsive>
0.7197

> <Gold.PLP.ligand.clash>
0.0000

> <Gold.PLP.ligand.torsion>
1.2177

> <Gold.PLP.Chemscore.Hbond>
1.7874

> <Gold.PLP.Chemscore.CHOScore>
0.9959

> <Gold.PLP.Chemscore.Metal>
0.0000

> <Gold.Chemscore.Hbonds>
donor molecule, donor type, donor heavy atom, donor atom, acceptor molecule, acceptor atom, score
      L1  H    22    46       P1  7957  0.40
      P1  H  7989  7998       L1    22  0.44
      P1  H  8011  8017       L1    22  0.50
      L1  C    18    43       P1  7957  0.41

> <Gold.PLP.Chemscore.Internal.Correction>
0.5784

> <Gold.Rescore>
     Score         DG    S(hbond)    S(metal)    S(lipo)     H(rot)  DE(clash)    DE(int)     intcor
      9.29     -12.11       1.44        0.00      77.67       2.84       0.38       2.44       ----

> <Gold.Chemscore.Fitness>
9.2876

> <Gold.Chemscore.DG>
-12.1106

> <Gold.Chemscore.ZeroCoef>
-5.4800

> <Gold.Chemscore.Hbond>
1.4378

> <Gold.Chemscore.Metal>
0.0000

> <Gold.Chemscore.Lipo>
77.6735

> <Gold.Chemscore.Internal_Hbond>
0.0000

> <Gold.Chemscore.DEClash>
0.3785

> <Gold.Chemscore.DEInternal>
2.4445

> <Gold.Chemscore.Rot>
2.8358

> <Gold.Chemscore.Internal.Correction>
   9.000000E+99

> <Gold.Chemscore.Hbonds>
donor molecule, donor type, donor heavy atom, donor atom, acceptor molecule, acceptor atom, score
      L1  H    22    46       P1  7957  0.39
      P1  H  7989  7998       L1    22  0.07
      P1  H  8011  8017       L1    22  0.32

> <Gold.Chemscore.Hbond.Weighted>
-4.8023

> <Gold.Chemscore.Metal.Weighted>
-0.0000

> <Gold.Chemscore.Lipo.Weighted>
-9.0878

> <Gold.Chemscore.Internal_Hbond.Weighted>
0.0000

> <Gold.Chemscore.DEClash.Weighted>
0.3785

> <Gold.Chemscore.DEInternal.Weighted>
2.4445

> <Gold.Chemscore.Rot.Weighted>
7.2596

> <Gold.Chemscore.Internal.Correction.Weighted>
   9.000000E+99

> <Gold.Protein.RotatedTorsions>
[ 6907 6896 6895 6894 ] final -104.10 input  -60.11 | X-H torsion
[ 7974 7965 7964 7962 ] final  -16.82 input  175.53 | X-H torsion
[ 8008 7997 7996 7995 ] final  -42.82 input   59.86 | X-H torsion
[ 10167 10162 10161 10158 ] final    5.94 input  -65.29 | X-H torsion
[ 10718 10713 10712 10709 ] final -136.54 input   66.30 | X-H torsion
[ 10763 10752 10751 10750 ] final  -21.02 input  -60.55 | X-H torsion
[ 11005 11000 10999 10996 ] final   75.16 input  -57.11 | X-H torsion

> <Gold.Protein.ActiveResidues>
 VAL166  LYS551  ARG553  GLY616  TRP617  ASP618  TYR619  PRO620  LYS621  CYS622 
 ASP623  PHE694  ASN695  SER759  ASP760  ASP761  ALA762  ILE779  LEU786  VAL792 
 PHE793  MET794  SER795  GLU796  ALA797  LYS798  CYS799  TRP800  GLU811  SER814 

> <Gold.Protein.RotatedAtoms>
  150.7271  134.0328  159.3738 H   0  0  0  0  0  0  0  0  0  0  0  0  # atno 6907 bound_to 6896
  151.8298  135.0623  160.0445 H   0  0  0  0  0  0  0  0  0  0  0  0  # atno 6908 bound_to 6896
  152.2942  133.5555  159.5613 H   0  0  0  0  0  0  0  0  0  0  0  0  # atno 6909 bound_to 6896
  146.1970  140.3691  142.8437 H   0  0  0  0  0  0  0  0  0  0  0  0  # atno 7974 bound_to 7965
  154.3998  140.1463  156.3418 H   0  0  0  0  0  0  0  0  0  0  0  0  # atno 8008 bound_to 7997
  155.8349  140.3464  155.5574 H   0  0  0  0  0  0  0  0  0  0  0  0  # atno 8009 bound_to 7997
  155.8148  140.0889  157.1873 H   0  0  0  0  0  0  0  0  0  0  0  0  # atno 8010 bound_to 7997
  140.6455  143.7672  150.7492 H   0  0  0  0  0  0  0  0  0  0  0  0  # atno 10167 bound_to 10162
  156.2782  130.7305  151.1294 H   0  0  0  0  0  0  0  0  0  0  0  0  # atno 10718 bound_to 10713
  153.6296  135.6989  153.5280 H   0  0  0  0  0  0  0  0  0  0  0  0  # atno 10763 bound_to 10752
  153.2870  135.4168  155.1131 H   0  0  0  0  0  0  0  0  0  0  0  0  # atno 10764 bound_to 10752
  154.8525  135.3616  154.5838 H   0  0  0  0  0  0  0  0  0  0  0  0  # atno 10765 bound_to 10752
  139.9356  134.7494  156.1237 H   0  0  0  0  0  0  0  0  0  0  0  0  # atno 11005 bound_to 11000
  144.8601  140.7127  143.6113 LP  0  0  0  0  0  0  0  0  0  0  0  0  # atno 17320 bound_to 7965
  145.3611  139.1681  143.4383 LP  0  0  0  0  0  0  0  0  0  0  0  0  # atno 17321 bound_to 7965
  140.1313  143.4524  152.2253 LP  0  0  0  0  0  0  0  0  0  0  0  0  # atno 17342 bound_to 10162
  139.5665  144.7438  151.4007 LP  0  0  0  0  0  0  0  0  0  0  0  0  # atno 17343 bound_to 10162
  157.7306  131.0615  150.5719 LP  0  0  0  0  0  0  0  0  0  0  0  0  # atno 17370 bound_to 10713
  156.5822  130.4307  149.5972 LP  0  0  0  0  0  0  0  0  0  0  0  0  # atno 17371 bound_to 10713
  141.0968  133.6692  156.2664 LP  0  0  0  0  0  0  0  0  0  0  0  0  # atno 17394 bound_to 11000
  140.6084  134.5484  157.5529 LP  0  0  0  0  0  0  0  0  0  0  0  0  # atno 17395 bound_to 11000

$$$$
