AV-unprocessed.smi:1083|AV-procd|sdf|4715|dock1
  -GOLD-   22720 3243D 1   1.00000     0.00000
 Structure written by MMmdl.
 43 45  0  0  0  0  0  0  0  0  1 V2000
  151.4868  141.4067  157.4136 O   0  0  0  0  0  0  0  0  0  0  0  0
  150.9841  142.3541  156.8093 C   0  0  0  0  0  0  0  0  0  0  0  0
  150.1494  142.2490  155.7628 N   0  0  0  0  0  0  0  0  0  0  0  0
  149.7104  141.0612  155.1134 C   0  0  0  0  0  0  0  0  0  0  0  0
  150.3942  139.8299  155.2554 C   0  0  0  0  0  0  0  0  0  0  0  0
  149.8776  138.6823  154.6280 C   0  0  0  0  0  0  0  0  0  0  0  0
  148.6877  138.8041  153.8891 C   0  0  0  0  0  0  0  0  0  0  0  0
  148.0179  139.9669  153.7551 N   0  0  0  0  0  0  0  0  0  0  0  0
  148.5103  141.0795  154.3528 C   0  0  0  0  0  0  0  0  0  0  0  0
  147.7988  142.2827  154.1721 N   0  0  0  0  0  0  0  0  0  0  0  0
  147.5617  142.6173  152.7722 C   0  0  0  0  0  0  0  0  0  0  0  0
  147.0249  144.0544  152.6590 C   0  0  0  0  0  0  0  0  0  0  0  0
  145.8550  144.1945  153.4607 O   0  0  0  0  0  0  0  0  0  0  0  0
  146.1142  143.9387  154.8383 C   0  0  0  0  0  0  0  0  0  0  0  0
  146.6221  142.4967  155.0090 C   0  0  0  0  0  0  0  0  0  0  0  0
  151.2273  143.6384  157.1054 N   0  0  0  0  0  0  0  0  0  0  0  0
  152.1224  144.1036  158.1614 C   0  0  0  0  0  0  0  0  0  0  0  0
  151.9862  143.2246  159.4201 C   0  0  0  0  0  0  0  0  0  0  0  0
  151.7839  144.1865  160.5925 C   0  0  0  0  0  0  0  0  0  0  0  0
  151.1082  145.4051  159.9721 C   0  0  0  0  0  0  0  0  0  0  0  0
  151.7697  145.5384  158.6007 C   0  0  0  0  0  0  0  0  0  0  0  0
  149.8937  143.1125  155.3063 H   0  0  0  0  0  0  0  0  0  0  0  0
  151.2921  139.7454  155.8487 H   0  0  0  0  0  0  0  0  0  0  0  0
  150.3776  137.7293  154.7187 H   0  0  0  0  0  0  0  0  0  0  0  0
  148.2588  137.9441  153.3966 H   0  0  0  0  0  0  0  0  0  0  0  0
  148.4748  142.5172  152.1853 H   0  0  0  0  0  0  0  0  0  0  0  0
  146.8387  141.9146  152.3559 H   0  0  0  0  0  0  0  0  0  0  0  0
  147.7811  144.7769  152.9705 H   0  0  0  0  0  0  0  0  0  0  0  0
  146.7748  144.2819  151.6228 H   0  0  0  0  0  0  0  0  0  0  0  0
  146.8419  144.6557  155.2218 H   0  0  0  0  0  0  0  0  0  0  0  0
  145.1946  144.0830  155.4057 H   0  0  0  0  0  0  0  0  0  0  0  0
  145.8361  141.7947  154.7270 H   0  0  0  0  0  0  0  0  0  0  0  0
  146.8695  142.3078  156.0543 H   0  0  0  0  0  0  0  0  0  0  0  0
  150.7717  144.3486  156.5514 H   0  0  0  0  0  0  0  0  0  0  0  0
  153.1550  144.0740  157.8081 H   0  0  0  0  0  0  0  0  0  0  0  0
  151.1162  142.5703  159.3430 H   0  0  0  0  0  0  0  0  0  0  0  0
  152.8562  142.5839  159.5686 H   0  0  0  0  0  0  0  0  0  0  0  0
  151.1986  143.7468  161.4004 H   0  0  0  0  0  0  0  0  0  0  0  0
  152.7527  144.4751  161.0025 H   0  0  0  0  0  0  0  0  0  0  0  0
  150.0417  145.2119  159.8492 H   0  0  0  0  0  0  0  0  0  0  0  0
  151.2178  146.3031  160.5808 H   0  0  0  0  0  0  0  0  0  0  0  0
  152.6885  146.1175  158.7012 H   0  0  0  0  0  0  0  0  0  0  0  0
  151.1353  146.0694  157.8895 H   0  0  0  0  0  0  0  0  0  0  0  0
  1  2  2  0  0  0  0
  2  3  1  0  0  0  0
  2 16  1  0  0  0  0
  3  4  1  0  0  0  0
  3 22  1  0  0  0  0
  4  9  1  0  0  0  0
  4  5  2  0  0  0  0
  5  6  1  0  0  0  0
  5 23  1  0  0  0  0
  6  7  2  0  0  0  0
  6 24  1  0  0  0  0
  7  8  1  0  0  0  0
  7 25  1  0  0  0  0
  8  9  2  0  0  0  0
  9 10  1  0  0  0  0
 10 15  1  0  0  0  0
 10 11  1  0  0  0  0
 11 12  1  0  0  0  0
 11 26  1  0  0  0  0
 11 27  1  0  0  0  0
 12 13  1  0  0  0  0
 12 28  1  0  0  0  0
 12 29  1  0  0  0  0
 13 14  1  0  0  0  0
 14 15  1  0  0  0  0
 14 30  1  0  0  0  0
 14 31  1  0  0  0  0
 15 32  1  0  0  0  0
 15 33  1  0  0  0  0
 16 17  1  0  0  0  0
 16 34  1  0  0  0  0
 17 21  1  0  0  0  0
 17 18  1  0  0  0  0
 17 35  1  0  0  0  0
 18 19  1  0  0  0  0
 18 36  1  0  0  0  0
 18 37  1  0  0  0  0
 19 20  1  0  0  0  0
 19 38  1  0  0  0  0
 19 39  1  0  0  0  0
 20 21  1  0  0  0  0
 20 40  1  0  0  0  0
 20 41  1  0  0  0  0
 21 42  1  0  0  0  0
 21 43  1  0  0  0  0
M  END
> <s_m_source_file>
AV-unprocessed.smi

> <i_m_source_file_index>
1083

> <i_lp_mmshare_version>
43012

> <i_f3d_flags>
0

> <s_epik_input>
W0NIMl0xW0NIMl1bQ0gyXVtDSDJdW0NIXTFbTkhdQyg9TylbTkhdYzJbY0hdW2NIXVtjSF1uYzJOM1tDSDJdW0NIMl1PW0NIMl1bQ0gyXTM=

> <s_epik_cmdline>
J2VwaWtfcHl0aG9uJywgJy1waCcsICc3LjAnLCAnLXRuJywgJzgnLCAnLW1hJywgJzIwMCcsICctbWV0YWxfYmluZGluZycsICctaW1hZScsICc8aW5maWxlLm1hZT4nLCAnLW9tYWUnLCAnPG91dGZpbGUubWFlPic=

> <r_lp_tautomer_probability>
1

> <r_epik_Ionization_Penalty>
0.00217669

> <r_epik_Ionization_Penalty_Charging>
0

> <r_epik_Ionization_Penalty_Neutral>
0.00217669

> <r_epik_State_Penalty>
0.00146536

> <r_epik_Charging_Adjusted_Penalty>
0.00146536

> <i_epik_Tot_Q>
0

> <i_epik_Tot_abs_Q>
0

> <r_epik_Metal_State_Penalty>
-0

> <b_epik_Metal_Only>
0

> <s_lp_Force_Field>
OPLS_2005

> <r_lp_Energy>
35.5183

> <b_lp_Chiralities_Consistent>
1

> <s_lp_Variant>
AV-unprocessed.smi:1083-1

> <Gold.Version>
5.8.1

> <Gold.Id.Protein>
6NUR|6NUR_protein|mol2

> <Gold.PLP.Fitness>
52.0524

> <Gold.PLP.PLP>
-44.2207

> <Gold.PLP.part.hbond>
-2.0000

> <Gold.PLP.part.metal>
0.0000

> <Gold.PLP.part.buried>
-4.6797

> <Gold.PLP.part.nonpolar>
-38.1978

> <Gold.PLP.part.repulsive>
0.5716

> <Gold.PLP.ligand.clash>
0.0000

> <Gold.PLP.ligand.torsion>
0.6950

> <Gold.PLP.Chemscore.Hbond>
2.0000

> <Gold.PLP.Chemscore.CHOScore>
1.0000

> <Gold.PLP.Chemscore.Metal>
0.0000

> <Gold.Chemscore.Hbonds>
donor molecule, donor type, donor heavy atom, donor atom, acceptor molecule, acceptor atom, score
      L1  H     3    22       P1  8028  0.82
      L1  H    16    34       P1  8028  0.70
      L1  C     7    25       P1  7948  1.00

> <Gold.PLP.Chemscore.Internal.Correction>
0.2217

> <Gold.Rescore>
     Score         DG    S(hbond)    S(metal)    S(lipo)     H(rot)  DE(clash)    DE(int)     intcor
     19.43     -21.32       1.96        0.00     105.53       1.19       0.15       1.75       ----

> <Gold.Chemscore.Fitness>
19.4270

> <Gold.Chemscore.DG>
-21.3241

> <Gold.Chemscore.ZeroCoef>
-5.4800

> <Gold.Chemscore.Hbond>
1.9597

> <Gold.Chemscore.Metal>
0.0000

> <Gold.Chemscore.Lipo>
105.5324

> <Gold.Chemscore.Internal_Hbond>
0.0000

> <Gold.Chemscore.DEClash>
0.1512

> <Gold.Chemscore.DEInternal>
1.7459

> <Gold.Chemscore.Rot>
1.1909

> <Gold.Chemscore.Internal.Correction>
   9.000000E+99

> <Gold.Chemscore.Hbonds>
donor molecule, donor type, donor heavy atom, donor atom, acceptor molecule, acceptor atom, score
      L1  H     3    22       P1  8028  0.81
      L1  H    16    34       P1  8028  0.68

> <Gold.Chemscore.Hbond.Weighted>
-6.5455

> <Gold.Chemscore.Metal.Weighted>
-0.0000

> <Gold.Chemscore.Lipo.Weighted>
-12.3473

> <Gold.Chemscore.Internal_Hbond.Weighted>
0.0000

> <Gold.Chemscore.DEClash.Weighted>
0.1512

> <Gold.Chemscore.DEInternal.Weighted>
1.7459

> <Gold.Chemscore.Rot.Weighted>
3.0487

> <Gold.Chemscore.Internal.Correction.Weighted>
   9.000000E+99

> <Gold.Protein.RotatedTorsions>
[ 6907 6896 6895 6894 ] final -143.00 input  -60.11 | X-H torsion
[ 7974 7965 7964 7962 ] final  125.20 input  175.53 | X-H torsion
[ 8008 7997 7996 7995 ] final -156.63 input   59.86 | X-H torsion
[ 10167 10162 10161 10158 ] final  146.89 input  -65.29 | X-H torsion
[ 10718 10713 10712 10709 ] final -173.63 input   66.30 | X-H torsion
[ 10763 10752 10751 10750 ] final   38.16 input  -60.55 | X-H torsion
[ 11005 11000 10999 10996 ] final    1.13 input  -57.11 | X-H torsion

> <Gold.Protein.ActiveResidues>
 VAL166  LYS551  ARG553  GLY616  TRP617  ASP618  TYR619  PRO620  LYS621  CYS622 
 ASP623  PHE694  ASN695  SER759  ASP760  ASP761  ALA762  ILE779  LEU786  VAL792 
 PHE793  MET794  SER795  GLU796  ALA797  LYS798  CYS799  TRP800  GLU811  SER814 

> <Gold.Protein.RotatedAtoms>
  151.0945  133.5290  159.2612 H   0  0  0  0  0  0  0  0  0  0  0  0  # atno 6907 bound_to 6896
  151.2144  135.0493  159.8934 H   0  0  0  0  0  0  0  0  0  0  0  0  # atno 6908 bound_to 6896
  152.5437  134.0756  159.8267 H   0  0  0  0  0  0  0  0  0  0  0  0  # atno 6909 bound_to 6896
  145.0757  139.3696  143.4935 H   0  0  0  0  0  0  0  0  0  0  0  0  # atno 7974 bound_to 7965
  155.7201  140.0789  157.2334 H   0  0  0  0  0  0  0  0  0  0  0  0  # atno 8008 bound_to 7997
  154.4046  140.1614  156.2446 H   0  0  0  0  0  0  0  0  0  0  0  0  # atno 8009 bound_to 7997
  155.9204  140.3398  155.6171 H   0  0  0  0  0  0  0  0  0  0  0  0  # atno 8010 bound_to 7997
  139.4899  144.5796  151.6897 H   0  0  0  0  0  0  0  0  0  0  0  0  # atno 10167 bound_to 10162
  156.7731  130.9456  151.3120 H   0  0  0  0  0  0  0  0  0  0  0  0  # atno 10718 bound_to 10713
  153.0011  135.6257  154.2261 H   0  0  0  0  0  0  0  0  0  0  0  0  # atno 10763 bound_to 10752
  154.2003  135.2804  155.2994 H   0  0  0  0  0  0  0  0  0  0  0  0  # atno 10764 bound_to 10752
  154.5689  135.5683  153.7135 H   0  0  0  0  0  0  0  0  0  0  0  0  # atno 10765 bound_to 10752
  140.6189  133.9679  155.8215 H   0  0  0  0  0  0  0  0  0  0  0  0  # atno 11005 bound_to 11000
  146.3530  140.0523  142.8635 LP  0  0  0  0  0  0  0  0  0  0  0  0  # atno 17320 bound_to 7965
  145.1239  140.9478  143.4584 LP  0  0  0  0  0  0  0  0  0  0  0  0  # atno 17321 bound_to 7965
  140.5400  144.0595  150.6084 LP  0  0  0  0  0  0  0  0  0  0  0  0  # atno 17342 bound_to 10162
  140.3614  143.2906  152.0380 LP  0  0  0  0  0  0  0  0  0  0  0  0  # atno 17343 bound_to 10162
  157.6682  130.9026  149.9979 LP  0  0  0  0  0  0  0  0  0  0  0  0  # atno 17370 bound_to 10713
  156.1265  130.3644  149.9801 LP  0  0  0  0  0  0  0  0  0  0  0  0  # atno 17371 bound_to 10713
  141.0756  134.0140  157.3462 LP  0  0  0  0  0  0  0  0  0  0  0  0  # atno 17394 bound_to 11000
  139.9161  135.0197  156.7887 LP  0  0  0  0  0  0  0  0  0  0  0  0  # atno 17395 bound_to 11000

$$$$
