AV-unprocessed.smi:905|AV-procd|sdf|4099|dock4
  -GOLD-   22720 1593D 1   1.00000     0.00000
 Structure written by MMmdl.
 37 38  0  0  0  0  0  0  0  0  1 V2000
  144.4013  144.6726  154.8657 N   0  0  0  0  0  0  0  0  0  0  0  0
  145.1630  143.4938  154.8158 C   0  0  0  0  0  0  0  0  0  0  0  0
  145.0555  142.5321  155.7224 N   0  0  0  0  0  0  0  0  0  0  0  0
  145.9763  141.5702  155.2824 O   0  0  0  0  0  0  0  0  0  0  0  0
  146.5425  142.0854  154.1645 C   0  0  0  0  0  0  0  0  0  0  0  0
  147.5470  141.2680  153.4241 C   0  0  0  0  0  0  0  0  0  0  0  0
  148.6929  140.7867  154.3293 C   0  0  0  0  0  0  0  0  0  0  0  0
  149.2054  141.8626  155.1702 N   0  0  0  0  0  0  0  0  0  0  0  0
  150.2288  141.7405  156.0271 C   0  0  0  0  0  0  0  0  0  0  0  0
  150.8557  140.6961  156.2056 O   0  0  0  0  0  0  0  0  0  0  0  0
  150.4839  142.8894  156.6690 N   0  0  0  0  0  0  0  0  0  0  0  0
  151.5312  143.0765  157.6691 C   0  0  0  0  0  0  0  0  0  0  0  0
  151.4141  142.0172  158.7851 C   0  0  0  0  0  0  0  0  0  0  0  0
  152.4645  142.2413  159.8850 C   0  0  0  0  0  0  0  0  0  0  0  0
  152.3762  143.6632  160.4612 C   0  0  0  0  0  0  0  0  0  0  0  0
  152.4964  144.7202  159.3519 C   0  0  0  0  0  0  0  0  0  0  0  0
  151.4425  144.4985  158.2549 C   0  0  0  0  0  0  0  0  0  0  0  0
  146.0595  143.2758  153.8164 N   0  0  0  0  0  0  0  0  0  0  0  0
  144.5101  145.3804  154.1538 H   0  0  0  0  0  0  0  0  0  0  0  0
  143.7300  144.8158  155.6060 H   0  0  0  0  0  0  0  0  0  0  0  0
  147.0385  140.4138  152.9748 H   0  0  0  0  0  0  0  0  0  0  0  0
  147.9361  141.8680  152.6007 H   0  0  0  0  0  0  0  0  0  0  0  0
  148.3633  139.9537  154.9530 H   0  0  0  0  0  0  0  0  0  0  0  0
  149.5152  140.4113  153.7190 H   0  0  0  0  0  0  0  0  0  0  0  0
  148.7522  142.7612  155.0907 H   0  0  0  0  0  0  0  0  0  0  0  0
  149.9129  143.6933  156.4531 H   0  0  0  0  0  0  0  0  0  0  0  0
  152.5047  142.9718  157.1860 H   0  0  0  0  0  0  0  0  0  0  0  0
  150.4167  142.0528  159.2255 H   0  0  0  0  0  0  0  0  0  0  0  0
  151.5319  141.0158  158.3692 H   0  0  0  0  0  0  0  0  0  0  0  0
  152.3304  141.5084  160.6813 H   0  0  0  0  0  0  0  0  0  0  0  0
  153.4617  142.0741  159.4758 H   0  0  0  0  0  0  0  0  0  0  0  0
  151.4268  143.7876  160.9834 H   0  0  0  0  0  0  0  0  0  0  0  0
  153.1598  143.8127  161.2046 H   0  0  0  0  0  0  0  0  0  0  0  0
  152.3872  145.7186  159.7761 H   0  0  0  0  0  0  0  0  0  0  0  0
  153.4941  144.6780  158.9130 H   0  0  0  0  0  0  0  0  0  0  0  0
  151.5762  145.2382  157.4644 H   0  0  0  0  0  0  0  0  0  0  0  0
  150.4481  144.6676  158.6712 H   0  0  0  0  0  0  0  0  0  0  0  0
  1  2  1  0  0  0  0
  1 19  1  0  0  0  0
  1 20  1  0  0  0  0
  2 18  1  0  0  0  0
  2  3  2  0  0  0  0
  3  4  1  0  0  0  0
  4  5  1  0  0  0  0
  5  6  1  0  0  0  0
  5 18  2  0  0  0  0
  6  7  1  0  0  0  0
  6 21  1  0  0  0  0
  6 22  1  0  0  0  0
  7  8  1  0  0  0  0
  7 23  1  0  0  0  0
  7 24  1  0  0  0  0
  8  9  1  0  0  0  0
  8 25  1  0  0  0  0
  9 10  2  0  0  0  0
  9 11  1  0  0  0  0
 11 12  1  0  0  0  0
 11 26  1  0  0  0  0
 12 17  1  0  0  0  0
 12 13  1  0  0  0  0
 12 27  1  0  0  0  0
 13 14  1  0  0  0  0
 13 28  1  0  0  0  0
 13 29  1  0  0  0  0
 14 15  1  0  0  0  0
 14 30  1  0  0  0  0
 14 31  1  0  0  0  0
 15 16  1  0  0  0  0
 15 32  1  0  0  0  0
 15 33  1  0  0  0  0
 16 17  1  0  0  0  0
 16 34  1  0  0  0  0
 16 35  1  0  0  0  0
 17 36  1  0  0  0  0
 17 37  1  0  0  0  0
M  END
> <s_m_source_file>
AV-unprocessed.smi

> <i_m_source_file_index>
905

> <i_lp_mmshare_version>
43012

> <i_f3d_flags>
0

> <s_epik_input>
W05IMl1jMW5vYyhuMSlbQ0gyXVtDSDJdW05IXUMoPU8pW05IXVtDSF0yW0NIMl1bQ0gyXVtDSDJdW0NIMl1bQ0gyXTI=

> <s_epik_cmdline>
J2VwaWtfcHl0aG9uJywgJy1waCcsICc3LjAnLCAnLXRuJywgJzgnLCAnLW1hJywgJzIwMCcsICctbWV0YWxfYmluZGluZycsICctaW1hZScsICc8aW5maWxlLm1hZT4nLCAnLW9tYWUnLCAnPG91dGZpbGUubWFlPic=

> <r_lp_tautomer_probability>
1

> <r_epik_Ionization_Penalty>
0.000203748

> <r_epik_Ionization_Penalty_Charging>
0

> <r_epik_Ionization_Penalty_Neutral>
0.000203748

> <r_epik_State_Penalty>
-0

> <r_epik_Charging_Adjusted_Penalty>
0

> <i_epik_Tot_Q>
0

> <i_epik_Tot_abs_Q>
0

> <r_epik_Metal_State_Penalty>
-0

> <b_epik_Metal_Only>
0

> <s_lp_Force_Field>
OPLS_2005

> <r_lp_Energy>
0.830847

> <b_lp_Chiralities_Consistent>
1

> <s_lp_Variant>
AV-unprocessed.smi:905-1

> <Gold.Version>
5.8.1

> <Gold.Id.Protein>
6NUR|6NUR_protein|mol2

> <Gold.PLP.Fitness>
43.4619

> <Gold.PLP.PLP>
-38.0542

> <Gold.PLP.part.hbond>
-2.0000

> <Gold.PLP.part.metal>
0.0000

> <Gold.PLP.part.buried>
-7.2447

> <Gold.PLP.part.nonpolar>
-29.4916

> <Gold.PLP.part.repulsive>
0.7657

> <Gold.PLP.ligand.clash>
0.0000

> <Gold.PLP.ligand.torsion>
0.1483

> <Gold.PLP.Chemscore.Hbond>
1.8960

> <Gold.PLP.Chemscore.CHOScore>
0.0000

> <Gold.PLP.Chemscore.Metal>
0.0000

> <Gold.Chemscore.Hbonds>
donor molecule, donor type, donor heavy atom, donor atom, acceptor molecule, acceptor atom, score
      L1  H     8    25       P1  8028  0.90
      L1  H    11    26       P1  8028  1.00

> <Gold.PLP.Chemscore.Internal.Correction>
0.0163

> <Gold.Rescore>
     Score         DG    S(hbond)    S(metal)    S(lipo)     H(rot)  DE(clash)    DE(int)     intcor
     15.16     -15.28       1.83        0.00      83.82       2.39       0.06       0.06       ----

> <Gold.Chemscore.Fitness>
15.1562

> <Gold.Chemscore.DG>
-15.2775

> <Gold.Chemscore.ZeroCoef>
-5.4800

> <Gold.Chemscore.Hbond>
1.8262

> <Gold.Chemscore.Metal>
0.0000

> <Gold.Chemscore.Lipo>
83.8233

> <Gold.Chemscore.Internal_Hbond>
0.0000

> <Gold.Chemscore.DEClash>
0.0603

> <Gold.Chemscore.DEInternal>
0.0611

> <Gold.Chemscore.Rot>
2.3865

> <Gold.Chemscore.Internal.Correction>
   9.000000E+99

> <Gold.Chemscore.Hbonds>
donor molecule, donor type, donor heavy atom, donor atom, acceptor molecule, acceptor atom, score
      L1  H     8    25       P1  8028  0.81
      L1  H    11    26       P1  8028  0.99

> <Gold.Chemscore.Hbond.Weighted>
-6.0996

> <Gold.Chemscore.Metal.Weighted>
-0.0000

> <Gold.Chemscore.Lipo.Weighted>
-9.8073

> <Gold.Chemscore.Internal_Hbond.Weighted>
0.0000

> <Gold.Chemscore.DEClash.Weighted>
0.0603

> <Gold.Chemscore.DEInternal.Weighted>
0.0611

> <Gold.Chemscore.Rot.Weighted>
6.1093

> <Gold.Chemscore.Internal.Correction.Weighted>
   9.000000E+99

> <Gold.Protein.RotatedTorsions>
[ 6907 6896 6895 6894 ] final  -70.79 input  -60.11 | X-H torsion
[ 7974 7965 7964 7962 ] final  164.67 input  175.53 | X-H torsion
[ 8008 7997 7996 7995 ] final  -93.10 input   59.86 | X-H torsion
[ 10167 10162 10161 10158 ] final   30.72 input  -65.29 | X-H torsion
[ 10718 10713 10712 10709 ] final  134.92 input   66.30 | X-H torsion
[ 10763 10752 10751 10750 ] final -143.59 input  -60.55 | X-H torsion
[ 11005 11000 10999 10996 ] final -167.04 input  -57.11 | X-H torsion

> <Gold.Protein.ActiveResidues>
 VAL166  LYS551  ARG553  GLY616  TRP617  ASP618  TYR619  PRO620  LYS621  CYS622 
 ASP623  PHE694  ASN695  SER759  ASP760  ASP761  ALA762  ILE779  LEU786  VAL792 
 PHE793  MET794  SER795  GLU796  ALA797  LYS798  CYS799  TRP800  GLU811  SER814 

> <Gold.Protein.RotatedAtoms>
  150.7242  134.5403  159.5743 H   0  0  0  0  0  0  0  0  0  0  0  0  # atno 6907 bound_to 6896
  152.2915  134.7713  160.0386 H   0  0  0  0  0  0  0  0  0  0  0  0  # atno 6908 bound_to 6896
  151.8325  133.3375  159.3654 H   0  0  0  0  0  0  0  0  0  0  0  0  # atno 6909 bound_to 6896
  144.7535  139.8359  143.6358 H   0  0  0  0  0  0  0  0  0  0  0  0  # atno 7974 bound_to 7965
  154.7314  140.0502  157.0730 H   0  0  0  0  0  0  0  0  0  0  0  0  # atno 8008 bound_to 7997
  155.0297  140.3156  155.4744 H   0  0  0  0  0  0  0  0  0  0  0  0  # atno 8009 bound_to 7997
  156.2842  140.2152  156.5418 H   0  0  0  0  0  0  0  0  0  0  0  0  # atno 8010 bound_to 7997
  140.4653  144.0845  150.6223 H   0  0  0  0  0  0  0  0  0  0  0  0  # atno 10167 bound_to 10162
  157.4623  131.1074  150.9904 H   0  0  0  0  0  0  0  0  0  0  0  0  # atno 10718 bound_to 10713
  154.8464  135.3464  154.6211 H   0  0  0  0  0  0  0  0  0  0  0  0  # atno 10763 bound_to 10752
  153.6820  135.6979  153.5120 H   0  0  0  0  0  0  0  0  0  0  0  0  # atno 10764 bound_to 10752
  153.2661  135.4307  155.0898 H   0  0  0  0  0  0  0  0  0  0  0  0  # atno 10765 bound_to 10752
  140.5577  134.5364  157.5136 H   0  0  0  0  0  0  0  0  0  0  0  0  # atno 11005 bound_to 11000
  146.1516  139.4601  143.0045 LP  0  0  0  0  0  0  0  0  0  0  0  0  # atno 17320 bound_to 7965
  145.6860  141.0178  143.1581 LP  0  0  0  0  0  0  0  0  0  0  0  0  # atno 17321 bound_to 7965
  140.4044  143.2688  151.9909 LP  0  0  0  0  0  0  0  0  0  0  0  0  # atno 17342 bound_to 10162
  139.4811  144.5970  151.7673 LP  0  0  0  0  0  0  0  0  0  0  0  0  # atno 17343 bound_to 10162
  157.0697  130.5859  149.5400 LP  0  0  0  0  0  0  0  0  0  0  0  0  # atno 17370 bound_to 10713
  156.0034  130.5117  150.7746 LP  0  0  0  0  0  0  0  0  0  0  0  0  # atno 17371 bound_to 10713
  139.9423  134.7764  156.0648 LP  0  0  0  0  0  0  0  0  0  0  0  0  # atno 17394 bound_to 11000
  141.1133  133.6636  156.3032 LP  0  0  0  0  0  0  0  0  0  0  0  0  # atno 17395 bound_to 11000

$$$$
