AV-unprocessed.smi:283|AV-procd|sdf|2137|dock2
  -GOLD-   2262021463D 1   1.00000     0.00000
 Structure written by MMmdl.
 48 51  0  0  0  0  0  0  0  0  1 V2000
  153.3621  139.4661  158.6899 C   0  0  0  0  0  0  0  0  0  0  0  0
  152.0080  140.1628  158.8774 C   0  0  2  0  0  0  0  0  0  0  0  0
  151.0376  139.6309  157.9218 N   0  0  0  0  0  0  0  0  0  0  0  0
  150.3589  138.4912  158.1830 C   0  0  0  0  0  0  0  0  0  0  0  0
  150.4142  137.9043  159.4074 N   0  0  0  0  0  0  0  0  0  0  0  0
  149.7357  136.7771  159.6398 C   0  0  0  0  0  0  0  0  0  0  0  0
  148.9576  136.0843  158.8048 N   0  0  0  0  0  0  0  0  0  0  0  0
  148.9010  136.6690  157.5728 C   0  0  0  0  0  0  0  0  0  0  0  0
  149.5712  137.8619  157.1849 C   0  0  0  0  0  0  0  0  0  0  0  0
  149.2873  138.1489  155.8572 N   0  0  0  0  0  0  0  0  0  0  0  0
  148.4997  137.1757  155.4855 C   0  0  0  0  0  0  0  0  0  0  0  0
  148.2007  136.2462  156.4628 N   0  0  0  0  0  0  0  0  0  0  0  0
  147.3660  134.9984  156.3908 C   0  0  2  0  0  0  0  0  0  0  0  0
  147.9496  134.1458  155.4599 O   0  0  0  0  0  0  0  0  0  0  0  0
  147.4440  134.4446  154.1665 C   0  0  1  0  0  0  0  0  0  0  0  0
  147.6320  133.2331  153.2406 C   0  0  0  0  0  0  0  0  0  0  0  0
  146.6248  133.2158  152.2519 O   0  0  0  0  0  0  0  0  0  0  0  0
  145.9687  134.7804  154.4408 C   0  0  2  0  0  0  0  0  0  0  0  0
  145.5309  135.7880  153.5502 O   0  0  0  0  0  0  0  0  0  0  0  0
  145.9422  135.2870  155.8872 C   0  0  1  0  0  0  0  0  0  0  0  0
  144.9821  134.5803  156.6459 O   0  0  0  0  0  0  0  0  0  0  0  0
  152.1758  141.6832  158.8238 C   0  0  0  0  0  0  0  0  0  0  0  0
  152.9745  142.3351  159.7922 C   0  0  0  0  0  0  0  0  0  0  0  0
  153.1428  143.7321  159.7621 C   0  0  0  0  0  0  0  0  0  0  0  0
  152.5080  144.4946  158.7654 C   0  0  0  0  0  0  0  0  0  0  0  0
  151.7022  143.8583  157.8034 C   0  0  0  0  0  0  0  0  0  0  0  0
  151.5300  142.4596  157.8288 C   0  0  0  0  0  0  0  0  0  0  0  0
  150.5184  141.7340  156.6288 Cl  0  0  0  0  0  0  0  0  0  0  0  0
  147.4020  134.5814  157.3979 H   0  0  0  0  0  0  0  0  0  0  0  0
  147.9648  135.3176  153.7689 H   0  0  0  0  0  0  0  0  0  0  0  0
  145.3457  133.8914  154.3278 H   0  0  0  0  0  0  0  0  0  0  0  0
  145.7141  136.3505  155.9682 H   0  0  0  0  0  0  0  0  0  0  0  0
  154.0765  139.7896  159.4476 H   0  0  0  0  0  0  0  0  0  0  0  0
  153.7915  139.6866  157.7120 H   0  0  0  0  0  0  0  0  0  0  0  0
  153.2621  138.3836  158.7746 H   0  0  0  0  0  0  0  0  0  0  0  0
  151.6390  139.8834  159.8636 H   0  0  0  0  0  0  0  0  0  0  0  0
  150.7983  140.2437  157.1556 H   0  0  0  0  0  0  0  0  0  0  0  0
  149.8295  136.3728  160.6369 H   0  0  0  0  0  0  0  0  0  0  0  0
  148.1179  137.1180  154.4775 H   0  0  0  0  0  0  0  0  0  0  0  0
  148.6194  133.2353  152.7781 H   0  0  0  0  0  0  0  0  0  0  0  0
  147.5438  132.3086  153.8118 H   0  0  0  0  0  0  0  0  0  0  0  0
  147.0198  132.9922  151.4231 H   0  0  0  0  0  0  0  0  0  0  0  0
  146.2714  136.0909  153.0482 H   0  0  0  0  0  0  0  0  0  0  0  0
  144.2346  134.4039  156.0953 H   0  0  0  0  0  0  0  0  0  0  0  0
  153.4656  141.7643  160.5666 H   0  0  0  0  0  0  0  0  0  0  0  0
  153.7578  144.2183  160.5050 H   0  0  0  0  0  0  0  0  0  0  0  0
  152.6357  145.5668  158.7406 H   0  0  0  0  0  0  0  0  0  0  0  0
  151.2121  144.4476  157.0425 H   0  0  0  0  0  0  0  0  0  0  0  0
  1  2  1  0  0  0  0
  1 33  1  0  0  0  0
  1 34  1  0  0  0  0
  1 35  1  0  0  0  0
  2  3  1  0  0  0  0
  2 22  1  0  0  0  0
  2 36  1  0  0  0  0
  3  4  1  0  0  0  0
  3 37  1  0  0  0  0
  4  9  1  0  0  0  0
  4  5  2  0  0  0  0
  5  6  1  0  0  0  0
  6  7  2  0  0  0  0
  6 38  1  0  0  0  0
  7  8  1  0  0  0  0
  8 12  1  0  0  0  0
  8  9  2  0  0  0  0
  9 10  1  0  0  0  0
 10 11  2  0  0  0  0
 11 12  1  0  0  0  0
 11 39  1  0  0  0  0
 12 13  1  0  0  0  0
 13 29  1  0  0  0  0
 13 20  1  0  0  0  0
 13 14  1  0  0  0  0
 14 15  1  0  0  0  0
 15 30  1  0  0  0  0
 15 16  1  0  0  0  0
 15 18  1  0  0  0  0
 16 17  1  0  0  0  0
 16 40  1  0  0  0  0
 16 41  1  0  0  0  0
 17 42  1  0  0  0  0
 18 31  1  0  0  0  0
 18 19  1  0  0  0  0
 18 20  1  0  0  0  0
 19 43  1  0  0  0  0
 20 32  1  0  0  0  0
 20 21  1  0  0  0  0
 21 44  1  0  0  0  0
 22 27  1  0  0  0  0
 22 23  2  0  0  0  0
 23 24  1  0  0  0  0
 23 45  1  0  0  0  0
 24 25  2  0  0  0  0
 24 46  1  0  0  0  0
 25 26  1  0  0  0  0
 25 47  1  0  0  0  0
 26 27  2  0  0  0  0
 26 48  1  0  0  0  0
 27 28  1  0  0  0  0
M  END
> <s_m_source_file>
AV-unprocessed.smi

> <i_m_source_file_index>
283

> <i_lp_mmshare_version>
43012

> <i_f3d_flags>
0

> <s_epik_input>
Q2xjMVtjSF1bY0hdW2NIXVtjSF1jMVtDQEhdKFtDSDNdKVtOSF1jKG5bY0hdbjIpYyhjMjMpbltjSF1uM1tDQEBIXTRPW0NASF0oW0NIMl1bT0hdKVtDQEBIXShbT0hdKVtDQEhdNFtPSF0=

> <s_epik_cmdline>
J2VwaWtfcHl0aG9uJywgJy1waCcsICc3LjAnLCAnLXRuJywgJzgnLCAnLW1hJywgJzIwMCcsICctbWV0YWxfYmluZGluZycsICctaW1hZScsICc8aW5maWxlLm1hZT4nLCAnLW9tYWUnLCAnPG91dGZpbGUubWFlPic=

> <r_lp_tautomer_probability>
1

> <r_epik_Ionization_Penalty>
0.000266407

> <r_epik_Ionization_Penalty_Charging>
0

> <r_epik_Ionization_Penalty_Neutral>
0.000266407

> <r_epik_State_Penalty>
-0

> <r_epik_Charging_Adjusted_Penalty>
0

> <i_epik_Tot_Q>
0

> <i_epik_Tot_abs_Q>
0

> <r_epik_Metal_State_Penalty>
-0

> <b_epik_Metal_Only>
0

> <s_epik_Chemistry_Notes>
This compound contains an acetal/aminal-like group ( X-CH(R)-Y where X, Y are N, S, or O) that may be acid/base labile, releasing an aldehyde.

> <s_lp_Force_Field>
OPLS_2005

> <r_lp_Energy>
39.6204

> <b_lp_Chiralities_Consistent>
1

> <s_lp_Variant>
AV-unprocessed.smi:283-13

> <Gold.Version>
5.8.1

> <Gold.Id.Protein>
6NUR|6NUR_protein|mol2

> <Gold.PLP.Fitness>
48.6809

> <Gold.PLP.PLP>
-41.2672

> <Gold.PLP.part.hbond>
-3.0000

> <Gold.PLP.part.metal>
0.0000

> <Gold.PLP.part.buried>
-6.2746

> <Gold.PLP.part.nonpolar>
-32.8354

> <Gold.PLP.part.repulsive>
0.1557

> <Gold.PLP.ligand.clash>
0.0000

> <Gold.PLP.ligand.torsion>
0.7696

> <Gold.PLP.Chemscore.Hbond>
1.9280

> <Gold.PLP.Chemscore.CHOScore>
1.0000

> <Gold.PLP.Chemscore.Metal>
0.0000

> <Gold.Chemscore.Hbonds>
donor molecule, donor type, donor heavy atom, donor atom, acceptor molecule, acceptor atom, score
      L1  C    11    39       P1  7948  0.12

> <Gold.PLP.Chemscore.Internal.Correction>
0.1688

> <Gold.Rescore>
     Score         DG    S(hbond)    S(metal)    S(lipo)     H(rot)  DE(clash)    DE(int)     intcor
     11.14     -13.77       1.93        0.00     105.34       4.10       0.02       2.61       ----

> <Gold.Chemscore.Fitness>
11.1359

> <Gold.Chemscore.DG>
-13.7698

> <Gold.Chemscore.ZeroCoef>
-5.4800

> <Gold.Chemscore.Hbond>
1.9320

> <Gold.Chemscore.Metal>
0.0000

> <Gold.Chemscore.Lipo>
105.3392

> <Gold.Chemscore.Internal_Hbond>
0.0000

> <Gold.Chemscore.DEClash>
0.0207

> <Gold.Chemscore.DEInternal>
2.6132

> <Gold.Chemscore.Rot>
4.0968

> <Gold.Chemscore.Internal.Correction>
   9.000000E+99

> <Gold.Chemscore.Hbond.Weighted>
-6.4530

> <Gold.Chemscore.Metal.Weighted>
-0.0000

> <Gold.Chemscore.Lipo.Weighted>
-12.3247

> <Gold.Chemscore.Internal_Hbond.Weighted>
0.0000

> <Gold.Chemscore.DEClash.Weighted>
0.0207

> <Gold.Chemscore.DEInternal.Weighted>
2.6132

> <Gold.Chemscore.Rot.Weighted>
10.4879

> <Gold.Chemscore.Internal.Correction.Weighted>
   9.000000E+99

> <Gold.Protein.RotatedTorsions>
[ 6907 6896 6895 6894 ] final  153.01 input  -60.11 | X-H torsion
[ 7974 7965 7964 7962 ] final  -15.64 input  175.53 | X-H torsion
[ 8008 7997 7996 7995 ] final   61.22 input   59.86 | X-H torsion
[ 10167 10162 10161 10158 ] final   93.10 input  -65.29 | X-H torsion
[ 10718 10713 10712 10709 ] final -117.46 input   66.30 | X-H torsion
[ 10763 10752 10751 10750 ] final  171.50 input  -60.55 | X-H torsion
[ 11005 11000 10999 10996 ] final  -93.52 input  -57.11 | X-H torsion

> <Gold.Protein.ActiveResidues>
 VAL166  LYS551  ARG553  GLY616  TRP617  ASP618  TYR619  PRO620  LYS621  CYS622 
 ASP623  PHE694  ASN695  SER759  ASP760  ASP761  ALA762  ILE779  LEU786  VAL792 
 PHE793  MET794  SER795  GLU796  ALA797  LYS798  CYS799  TRP800  GLU811  SER814 

> <Gold.Protein.RotatedAtoms>
  152.0787  133.4142  159.4490 H   0  0  0  0  0  0  0  0  0  0  0  0  # atno 6907 bound_to 6896
  150.6862  134.3008  159.4714 H   0  0  0  0  0  0  0  0  0  0  0  0  # atno 6908 bound_to 6896
  152.0847  134.9447  160.0623 H   0  0  0  0  0  0  0  0  0  0  0  0  # atno 6909 bound_to 6896
  146.2023  140.3522  142.8419 H   0  0  0  0  0  0  0  0  0  0  0  0  # atno 7974 bound_to 7965
  155.5949  140.3493  155.4577 H   0  0  0  0  0  0  0  0  0  0  0  0  # atno 8008 bound_to 7997
  156.0273  140.1267  157.0320 H   0  0  0  0  0  0  0  0  0  0  0  0  # atno 8009 bound_to 7997
  154.4338  140.1050  156.6035 H   0  0  0  0  0  0  0  0  0  0  0  0  # atno 8010 bound_to 7997
  139.8213  144.6730  150.9515 H   0  0  0  0  0  0  0  0  0  0  0  0  # atno 10167 bound_to 10162
  156.1036  130.6192  150.9167 H   0  0  0  0  0  0  0  0  0  0  0  0  # atno 10718 bound_to 10713
  154.4128  135.2756  155.2025 H   0  0  0  0  0  0  0  0  0  0  0  0  # atno 10763 bound_to 10752
  154.4004  135.6046  153.5897 H   0  0  0  0  0  0  0  0  0  0  0  0  # atno 10764 bound_to 10752
  152.9831  135.5925  154.4413 H   0  0  0  0  0  0  0  0  0  0  0  0  # atno 10765 bound_to 10752
  141.1495  133.7893  157.0170 H   0  0  0  0  0  0  0  0  0  0  0  0  # atno 11005 bound_to 11000
  144.8711  140.7274  143.6046 LP  0  0  0  0  0  0  0  0  0  0  0  0  # atno 17320 bound_to 7965
  145.3441  139.1724  143.4470 LP  0  0  0  0  0  0  0  0  0  0  0  0  # atno 17321 bound_to 7965
  140.7813  143.4089  151.1025 LP  0  0  0  0  0  0  0  0  0  0  0  0  # atno 17342 bound_to 10162
  139.7749  143.8439  152.3127 LP  0  0  0  0  0  0  0  0  0  0  0  0  # atno 17343 bound_to 10162
  157.6209  131.0929  150.8623 LP  0  0  0  0  0  0  0  0  0  0  0  0  # atno 17370 bound_to 10713
  156.8747  130.5158  149.5294 LP  0  0  0  0  0  0  0  0  0  0  0  0  # atno 17371 bound_to 10713
  140.0840  134.9631  157.1670 LP  0  0  0  0  0  0  0  0  0  0  0  0  # atno 17394 bound_to 11000
  140.3537  134.2570  155.7195 LP  0  0  0  0  0  0  0  0  0  0  0  0  # atno 17395 bound_to 11000

$$$$
