AV-unprocessed.smi:287|AV-procd|sdf|2181|dock1
  -GOLD-   2262021553D 1   1.00000     0.00000
 Structure written by MMmdl.
 55 58  0  0  0  0  0  0  0  0  1 V2000
  151.7672  145.5259  159.5377 C   0  0  0  0  0  0  0  0  0  0  0  0
  152.0349  144.0599  159.5517 C   0  0  0  0  0  0  0  0  0  0  0  0
  151.8167  143.0516  158.6587 C   0  0  0  0  0  0  0  0  0  0  0  0
  152.2922  141.8449  159.2534 C   0  0  0  0  0  0  0  0  0  0  0  0
  152.2468  140.4625  158.6164 C   0  0  1  0  0  0  0  0  0  0  0  0
  153.4592  139.6336  159.0741 C   0  0  0  0  0  0  0  0  0  0  0  0
  151.1148  139.7099  159.0078 O   0  0  0  0  0  0  0  0  0  0  0  0
  152.2046  140.5353  157.0736 C   0  0  0  0  0  0  0  0  0  0  0  0
  151.3858  139.4867  156.4787 N   0  0  0  0  0  0  0  0  0  0  0  0
  150.2965  139.7878  155.7411 C   0  0  0  0  0  0  0  0  0  0  0  0
  150.1439  141.0990  155.4370 N   0  0  0  0  0  0  0  0  0  0  0  0
  149.0992  141.5036  154.7094 C   0  0  0  0  0  0  0  0  0  0  0  0
  148.1099  140.7730  154.1920 N   0  0  0  0  0  0  0  0  0  0  0  0
  148.2573  139.4505  154.4929 C   0  0  0  0  0  0  0  0  0  0  0  0
  149.3109  138.8752  155.2594 C   0  0  0  0  0  0  0  0  0  0  0  0
  149.1071  137.5022  155.3535 N   0  0  0  0  0  0  0  0  0  0  0  0
  148.0062  137.2881  154.6855 C   0  0  0  0  0  0  0  0  0  0  0  0
  147.4365  138.4086  154.1203 N   0  0  0  0  0  0  0  0  0  0  0  0
  146.1858  138.5363  153.3056 C   0  0  2  0  0  0  0  0  0  0  0  0
  145.1221  138.7909  154.1737 O   0  0  0  0  0  0  0  0  0  0  0  0
  144.4636  137.5681  154.4882 C   0  0  1  0  0  0  0  0  0  0  0  0
  143.0681  137.8187  155.0861 C   0  0  0  0  0  0  0  0  0  0  0  0
  142.4131  138.8449  154.3709 O   0  0  0  0  0  0  0  0  0  0  0  0
  144.4888  136.8448  153.1365 C   0  0  1  0  0  0  0  0  0  0  0  0
  143.4445  137.3162  152.2998 O   0  0  0  0  0  0  0  0  0  0  0  0
  145.8768  137.1996  152.6034 C   0  0  1  0  0  0  0  0  0  0  0  0
  145.9181  137.2849  151.1911 O   0  0  0  0  0  0  0  0  0  0  0  0
  152.7758  142.2265  160.4824 C   0  0  0  0  0  0  0  0  0  0  0  0
  153.4120  141.4993  161.6210 C   0  0  0  0  0  0  0  0  0  0  0  0
  152.6233  143.5672  160.6703 O   0  0  0  0  0  0  0  0  0  0  0  0
  146.3696  139.3793  152.6382 H   0  0  0  0  0  0  0  0  0  0  0  0
  145.0740  136.9989  155.1922 H   0  0  0  0  0  0  0  0  0  0  0  0
  144.3689  135.7671  153.2524 H   0  0  0  0  0  0  0  0  0  0  0  0
  146.5909  136.4421  152.9310 H   0  0  0  0  0  0  0  0  0  0  0  0
  151.0794  145.7880  158.7334 H   0  0  0  0  0  0  0  0  0  0  0  0
  152.6909  146.0851  159.3891 H   0  0  0  0  0  0  0  0  0  0  0  0
  151.3231  145.8484  160.4797 H   0  0  0  0  0  0  0  0  0  0  0  0
  151.3616  143.1645  157.6860 H   0  0  0  0  0  0  0  0  0  0  0  0
  154.3970  140.1053  158.7785 H   0  0  0  0  0  0  0  0  0  0  0  0
  153.4474  138.6329  158.6400 H   0  0  0  0  0  0  0  0  0  0  0  0
  153.4763  139.5229  160.1593 H   0  0  0  0  0  0  0  0  0  0  0  0
  150.9138  139.0924  158.3212 H   0  0  0  0  0  0  0  0  0  0  0  0
  151.7605  141.4895  156.7871 H   0  0  0  0  0  0  0  0  0  0  0  0
  153.2125  140.5148  156.6562 H   0  0  0  0  0  0  0  0  0  0  0  0
  151.6826  138.5402  156.6691 H   0  0  0  0  0  0  0  0  0  0  0  0
  149.0489  142.5647  154.5146 H   0  0  0  0  0  0  0  0  0  0  0  0
  147.5843  136.2981  154.5891 H   0  0  0  0  0  0  0  0  0  0  0  0
  142.4631  136.9114  155.0828 H   0  0  0  0  0  0  0  0  0  0  0  0
  143.1576  138.1483  156.1216 H   0  0  0  0  0  0  0  0  0  0  0  0
  142.9739  139.1214  153.6623 H   0  0  0  0  0  0  0  0  0  0  0  0
  143.8313  137.8193  151.5991 H   0  0  0  0  0  0  0  0  0  0  0  0
  145.3415  137.9829  150.9190 H   0  0  0  0  0  0  0  0  0  0  0  0
  154.3194  140.9904  161.2958 H   0  0  0  0  0  0  0  0  0  0  0  0
  152.7310  140.7527  162.0300 H   0  0  0  0  0  0  0  0  0  0  0  0
  153.6819  142.1834  162.4260 H   0  0  0  0  0  0  0  0  0  0  0  0
  1  2  1  0  0  0  0
  1 35  1  0  0  0  0
  1 36  1  0  0  0  0
  1 37  1  0  0  0  0
  2 30  1  0  0  0  0
  2  3  2  0  0  0  0
  3  4  1  0  0  0  0
  3 38  1  0  0  0  0
  4  5  1  0  0  0  0
  4 28  2  0  0  0  0
  5  6  1  0  0  0  0
  5  7  1  0  0  0  0
  5  8  1  0  0  0  0
  6 39  1  0  0  0  0
  6 40  1  0  0  0  0
  6 41  1  0  0  0  0
  7 42  1  0  0  0  0
  8  9  1  0  0  0  0
  8 43  1  0  0  0  0
  8 44  1  0  0  0  0
  9 10  1  0  0  0  0
  9 45  1  0  0  0  0
 10 15  1  0  0  0  0
 10 11  2  0  0  0  0
 11 12  1  0  0  0  0
 12 13  2  0  0  0  0
 12 46  1  0  0  0  0
 13 14  1  0  0  0  0
 14 18  1  0  0  0  0
 14 15  2  0  0  0  0
 15 16  1  0  0  0  0
 16 17  2  0  0  0  0
 17 18  1  0  0  0  0
 17 47  1  0  0  0  0
 18 19  1  0  0  0  0
 19 31  1  0  0  0  0
 19 26  1  0  0  0  0
 19 20  1  0  0  0  0
 20 21  1  0  0  0  0
 21 32  1  0  0  0  0
 21 22  1  0  0  0  0
 21 24  1  0  0  0  0
 22 23  1  0  0  0  0
 22 48  1  0  0  0  0
 22 49  1  0  0  0  0
 23 50  1  0  0  0  0
 24 33  1  0  0  0  0
 24 25  1  0  0  0  0
 24 26  1  0  0  0  0
 25 51  1  0  0  0  0
 26 34  1  0  0  0  0
 26 27  1  0  0  0  0
 27 52  1  0  0  0  0
 28 29  1  0  0  0  0
 28 30  1  0  0  0  0
 29 53  1  0  0  0  0
 29 54  1  0  0  0  0
 29 55  1  0  0  0  0
M  END
> <s_m_source_file>
AV-unprocessed.smi

> <i_m_source_file_index>
287

> <i_lp_mmshare_version>
43012

> <i_f3d_flags>
0

> <s_epik_input>
W0NIM11jMVtjSF1jKGMobzEpW0NIM10pW0NAQF0oW0NIM10pKFtPSF0pW0NIMl1bTkhdYyhuW2NIXW4yKWMoYzIzKW5bY0hdbjNbQ0BASF00T1tDQEhdKFtDSDJdW09IXSlbQ0BASF0oW09IXSlbQ0BIXTRbT0hd

> <s_epik_cmdline>
J2VwaWtfcHl0aG9uJywgJy1waCcsICc3LjAnLCAnLXRuJywgJzgnLCAnLW1hJywgJzIwMCcsICctbWV0YWxfYmluZGluZycsICctaW1hZScsICc8aW5maWxlLm1hZT4nLCAnLW9tYWUnLCAnPG91dGZpbGUubWFlPic=

> <r_lp_tautomer_probability>
1

> <r_epik_Ionization_Penalty>
0.000992612

> <r_epik_Ionization_Penalty_Charging>
0

> <r_epik_Ionization_Penalty_Neutral>
0.000992612

> <r_epik_State_Penalty>
-0

> <r_epik_Charging_Adjusted_Penalty>
0

> <i_epik_Tot_Q>
0

> <i_epik_Tot_abs_Q>
0

> <r_epik_Metal_State_Penalty>
-0

> <b_epik_Metal_Only>
0

> <s_epik_Chemistry_Notes>
This compound contains an acetal/aminal-like group ( X-CH(R)-Y where X, Y are N, S, or O) that may be acid/base labile, releasing an aldehyde.

> <s_lp_Force_Field>
OPLS_2005

> <r_lp_Energy>
45.0467

> <b_lp_Chiralities_Consistent>
1

> <s_lp_Variant>
AV-unprocessed.smi:287-5

> <Gold.Version>
5.8.1

> <Gold.Id.Protein>
6NUR|6NUR_protein|mol2

> <Gold.PLP.Fitness>
48.1039

> <Gold.PLP.PLP>
-41.0992

> <Gold.PLP.part.hbond>
-5.0790

> <Gold.PLP.part.metal>
0.0000

> <Gold.PLP.part.buried>
-5.9286

> <Gold.PLP.part.nonpolar>
-34.2565

> <Gold.PLP.part.repulsive>
3.2175

> <Gold.PLP.ligand.clash>
0.0000

> <Gold.PLP.ligand.torsion>
2.6554

> <Gold.PLP.Chemscore.Hbond>
3.0292

> <Gold.PLP.Chemscore.CHOScore>
1.0000

> <Gold.PLP.Chemscore.Metal>
0.0000

> <Gold.Chemscore.Hbonds>
donor molecule, donor type, donor heavy atom, donor atom, acceptor molecule, acceptor atom, score
      L1  H    23    50       P1 10175  1.00
      L1  H    25    51       P1 10171  1.00
      L1  H    27    52       P1 10171  0.99
      L1  C    12    46       P1  8028  1.00

> <Gold.PLP.Chemscore.Internal.Correction>
0.2279

> <Gold.Rescore>
     Score         DG    S(hbond)    S(metal)    S(lipo)     H(rot)  DE(clash)    DE(int)     intcor
      9.78     -13.20       2.81        0.00     101.11       5.27       1.05       2.37       ----

> <Gold.Chemscore.Fitness>
9.7818

> <Gold.Chemscore.DG>
-13.2026

> <Gold.Chemscore.ZeroCoef>
-5.4800

> <Gold.Chemscore.Hbond>
2.8074

> <Gold.Chemscore.Metal>
0.0000

> <Gold.Chemscore.Lipo>
101.1100

> <Gold.Chemscore.Internal_Hbond>
0.0000

> <Gold.Chemscore.DEClash>
1.0496

> <Gold.Chemscore.DEInternal>
2.3713

> <Gold.Chemscore.Rot>
5.2672

> <Gold.Chemscore.Internal.Correction>
   9.000000E+99

> <Gold.Chemscore.Hbonds>
donor molecule, donor type, donor heavy atom, donor atom, acceptor molecule, acceptor atom, score
      L1  H    23    50       P1 10175  0.95
      L1  H    25    51       P1 10171  0.96
      L1  H    27    52       P1 10171  0.93

> <Gold.Chemscore.Hbond.Weighted>
-9.3767

> <Gold.Chemscore.Metal.Weighted>
-0.0000

> <Gold.Chemscore.Lipo.Weighted>
-11.8299

> <Gold.Chemscore.Internal_Hbond.Weighted>
0.0000

> <Gold.Chemscore.DEClash.Weighted>
1.0496

> <Gold.Chemscore.DEInternal.Weighted>
2.3713

> <Gold.Chemscore.Rot.Weighted>
13.4839

> <Gold.Chemscore.Internal.Correction.Weighted>
   9.000000E+99

> <Gold.Protein.RotatedTorsions>
[ 6907 6896 6895 6894 ] final   32.02 input  -60.11 | X-H torsion
[ 7974 7965 7964 7962 ] final  -66.02 input  175.53 | X-H torsion
[ 8008 7997 7996 7995 ] final -160.76 input   59.86 | X-H torsion
[ 10167 10162 10161 10158 ] final  149.78 input  -65.29 | X-H torsion
[ 10718 10713 10712 10709 ] final  -39.16 input   66.30 | X-H torsion
[ 10763 10752 10751 10750 ] final  -69.22 input  -60.55 | X-H torsion
[ 11005 11000 10999 10996 ] final -176.76 input  -57.11 | X-H torsion

> <Gold.Protein.ActiveResidues>
 VAL166  LYS551  ARG553  GLY616  TRP617  ASP618  TYR619  PRO620  LYS621  CYS622 
 ASP623  PHE694  ASN695  SER759  ASP760  ASP761  ALA762  ILE779  LEU786  VAL792 
 PHE793  MET794  SER795  GLU796  ALA797  LYS798  CYS799  TRP800  GLU811  SER814 

> <Gold.Protein.RotatedAtoms>
  152.0686  134.9548  160.0574 H   0  0  0  0  0  0  0  0  0  0  0  0  # atno 6907 bound_to 6896
  152.0883  133.4182  159.4540 H   0  0  0  0  0  0  0  0  0  0  0  0  # atno 6908 bound_to 6896
  150.6836  134.2821  159.4675 H   0  0  0  0  0  0  0  0  0  0  0  0  # atno 6909 bound_to 6896
  145.7470  140.8926  143.0500 H   0  0  0  0  0  0  0  0  0  0  0  0  # atno 7974 bound_to 7965
  155.7823  140.0866  157.2053 H   0  0  0  0  0  0  0  0  0  0  0  0  # atno 8008 bound_to 7997
  154.3989  140.1505  156.3124 H   0  0  0  0  0  0  0  0  0  0  0  0  # atno 8009 bound_to 7997
  155.8641  140.3429  155.5779 H   0  0  0  0  0  0  0  0  0  0  0  0  # atno 8010 bound_to 7997
  139.4857  144.5574  151.7292 H   0  0  0  0  0  0  0  0  0  0  0  0  # atno 10167 bound_to 10162
  156.2956  130.4233  149.8194 H   0  0  0  0  0  0  0  0  0  0  0  0  # atno 10718 bound_to 10713
  154.4003  135.6032  153.5893 H   0  0  0  0  0  0  0  0  0  0  0  0  # atno 10763 bound_to 10752
  152.9788  135.5905  154.4192 H   0  0  0  0  0  0  0  0  0  0  0  0  # atno 10764 bound_to 10752
  154.3989  135.2842  155.2087 H   0  0  0  0  0  0  0  0  0  0  0  0  # atno 10765 bound_to 10752
  140.4485  134.6365  157.4790 H   0  0  0  0  0  0  0  0  0  0  0  0  # atno 11005 bound_to 11000
  144.6858  139.9539  143.7478 LP  0  0  0  0  0  0  0  0  0  0  0  0  # atno 17320 bound_to 7965
  146.0393  139.3407  143.0707 LP  0  0  0  0  0  0  0  0  0  0  0  0  # atno 17321 bound_to 7965
  140.5138  144.0984  150.6002 LP  0  0  0  0  0  0  0  0  0  0  0  0  # atno 17342 bound_to 10162
  140.3918  143.2748  152.0051 LP  0  0  0  0  0  0  0  0  0  0  0  0  # atno 17343 bound_to 10162
  156.5591  130.8375  151.3323 LP  0  0  0  0  0  0  0  0  0  0  0  0  # atno 17370 bound_to 10713
  157.7354  130.9762  150.2082 LP  0  0  0  0  0  0  0  0  0  0  0  0  # atno 17371 bound_to 10713
  140.0022  134.6818  155.9512 LP  0  0  0  0  0  0  0  0  0  0  0  0  # atno 17394 bound_to 11000
  141.1674  133.6537  156.4530 LP  0  0  0  0  0  0  0  0  0  0  0  0  # atno 17395 bound_to 11000

$$$$
