AV-unprocessed.smi:1019|AV-procd|sdf|4443|dock10
  -GOLD-   22720 2403D 1   1.00000     0.00000
 Structure written by MMmdl.
 44 46  0  0  0  0  0  0  0  0  2 V2000
  146.1116  135.4545  153.5099 C   0  0  0  0  0  0  0  0  0  0  0  0
  146.0036  136.3799  152.3574 N   0  3  1  0  0  0  0  0  0  0  0  0
  145.0387  135.9081  151.3309 C   0  0  0  0  0  0  0  0  0  0  0  0
  145.0700  134.3979  151.1780 C   0  0  0  0  0  0  0  0  0  0  0  0
  146.2921  133.7428  150.9171 C   0  0  0  0  0  0  0  0  0  0  0  0
  146.3282  132.3415  150.7791 C   0  0  0  0  0  0  0  0  0  0  0  0
  145.1428  131.5907  150.8995 C   0  0  0  0  0  0  0  0  0  0  0  0
  143.9206  132.2416  151.1567 C   0  0  0  0  0  0  0  0  0  0  0  0
  143.8833  133.6427  151.2946 C   0  0  0  0  0  0  0  0  0  0  0  0
  145.7580  137.7806  152.7864 C   0  0  0  0  0  0  0  0  0  0  0  0
  147.0699  138.5582  153.0105 C   0  0  2  0  0  0  0  0  0  0  0  0
  147.8890  138.4051  151.8665 O   0  0  0  0  0  0  0  0  0  0  0  0
  147.8277  138.0587  154.2556 C   0  0  0  0  0  0  0  0  0  0  0  0
  149.0046  138.8581  154.5469 N   0  0  0  0  0  0  0  0  0  0  0  0
  150.2199  138.7458  153.9773 C   0  0  0  0  0  0  0  0  0  0  0  0
  151.1687  139.5786  154.3948 N   0  0  0  0  0  0  0  0  0  0  0  0
  150.4898  140.3213  155.3454 C   0  0  0  0  0  0  0  0  0  0  0  0
  150.9328  141.3813  156.1685 C   0  0  0  0  0  0  0  0  0  0  0  0
  150.0483  141.9970  157.0783 C   0  0  0  0  0  0  0  0  0  0  0  0
  148.7104  141.5635  157.1797 C   0  0  0  0  0  0  0  0  0  0  0  0
  148.2459  140.5087  156.3707 C   0  0  0  0  0  0  0  0  0  0  0  0
  149.1317  139.8967  155.4639 C   0  0  0  0  0  0  0  0  0  0  0  0
  145.1666  135.3921  154.0510 H   0  0  0  0  0  0  0  0  0  0  0  0
  146.8819  135.7910  154.2045 H   0  0  0  0  0  0  0  0  0  0  0  0
  146.3888  134.4510  153.1878 H   0  0  0  0  0  0  0  0  0  0  0  0
  144.0314  136.2460  151.5801 H   0  0  0  0  0  0  0  0  0  0  0  0
  145.2701  136.3396  150.3575 H   0  0  0  0  0  0  0  0  0  0  0  0
  147.2053  134.3130  150.8247 H   0  0  0  0  0  0  0  0  0  0  0  0
  147.2652  131.8420  150.5810 H   0  0  0  0  0  0  0  0  0  0  0  0
  145.1709  130.5161  150.7941 H   0  0  0  0  0  0  0  0  0  0  0  0
  143.0116  131.6653  151.2481 H   0  0  0  0  0  0  0  0  0  0  0  0
  142.9420  134.1339  151.4936 H   0  0  0  0  0  0  0  0  0  0  0  0
  145.1342  138.2797  152.0429 H   0  0  0  0  0  0  0  0  0  0  0  0
  145.1870  137.7940  153.7165 H   0  0  0  0  0  0  0  0  0  0  0  0
  146.8640  139.6215  153.1336 H   0  0  0  0  0  0  0  0  0  0  0  0
  148.6668  138.9313  151.9759 H   0  0  0  0  0  0  0  0  0  0  0  0
  147.1749  138.0848  155.1291 H   0  0  0  0  0  0  0  0  0  0  0  0
  148.1327  137.0192  154.1280 H   0  0  0  0  0  0  0  0  0  0  0  0
  150.4207  138.0072  153.2147 H   0  0  0  0  0  0  0  0  0  0  0  0
  151.9554  141.7218  156.0998 H   0  0  0  0  0  0  0  0  0  0  0  0
  150.3981  142.8067  157.7018 H   0  0  0  0  0  0  0  0  0  0  0  0
  148.0407  142.0423  157.8791 H   0  0  0  0  0  0  0  0  0  0  0  0
  147.2218  140.1757  156.4478 H   0  0  0  0  0  0  0  0  0  0  0  0
  146.9132  136.3872  151.9173 H   0  0  0  0  0  0  0  0  0  0  0  0
  1  2  1  0  0  0  0
  1 23  1  0  0  0  0
  1 24  1  0  0  0  0
  1 25  1  0  0  0  0
  2  3  1  0  0  0  0
  2 10  1  0  0  0  0
  2 44  1  0  0  0  0
  3  4  1  0  0  0  0
  3 26  1  0  0  0  0
  3 27  1  0  0  0  0
  4  9  1  0  0  0  0
  4  5  2  0  0  0  0
  5  6  1  0  0  0  0
  5 28  1  0  0  0  0
  6  7  2  0  0  0  0
  6 29  1  0  0  0  0
  7  8  1  0  0  0  0
  7 30  1  0  0  0  0
  8  9  2  0  0  0  0
  8 31  1  0  0  0  0
  9 32  1  0  0  0  0
 10 11  1  0  0  0  0
 10 33  1  0  0  0  0
 10 34  1  0  0  0  0
 11 12  1  0  0  0  0
 11 13  1  0  0  0  0
 11 35  1  0  0  0  0
 12 36  1  0  0  0  0
 13 14  1  0  0  0  0
 13 37  1  0  0  0  0
 13 38  1  0  0  0  0
 14 22  1  0  0  0  0
 14 15  1  0  0  0  0
 15 16  2  0  0  0  0
 15 39  1  0  0  0  0
 16 17  1  0  0  0  0
 17 22  2  0  0  0  0
 17 18  1  0  0  0  0
 18 19  2  0  0  0  0
 18 40  1  0  0  0  0
 19 20  1  0  0  0  0
 19 41  1  0  0  0  0
 20 21  2  0  0  0  0
 20 42  1  0  0  0  0
 21 22  1  0  0  0  0
 21 43  1  0  0  0  0
M  CHG  1   2   1
M  END
> <s_m_source_file>
AV-unprocessed.smi

> <i_m_source_file_index>
1019

> <i_lp_mmshare_version>
43012

> <i_f3d_flags>
0

> <s_epik_input>
W2NIXTFbY0hdW2NIXVtjSF1bY0hdYzFbQ0gyXU4oW0NIM10pW0NIMl1bQ0BIXShbT0hdKVtDSDJdbihbY0hdbjIpYyhjMjMpW2NIXVtjSF1bY0hdW2NIXTM=

> <s_epik_cmdline>
J2VwaWtfcHl0aG9uJywgJy1waCcsICc3LjAnLCAnLXRuJywgJzgnLCAnLW1hJywgJzIwMCcsICctbWV0YWxfYmluZGluZycsICctaW1hZScsICc8aW5maWxlLm1hZT4nLCAnLW9tYWUnLCAnPG91dGZpbGUubWFlPic=

> <r_epik_Ionization_Penalty>
0.0996557

> <r_epik_Ionization_Penalty_Charging>
0.0475377

> <r_epik_Ionization_Penalty_Neutral>
0.0521179

> <r_epik_State_Penalty>
0.0851777

> <r_epik_Charging_Adjusted_Penalty>
0.132715

> <i_epik_Tot_Q>
1

> <i_epik_Tot_abs_Q>
1

> <r_epik_Metal_State_Penalty>
0.0423478

> <b_epik_Metal_Only>
0

> <s_lp_Force_Field>
OPLS_2005

> <r_lp_Energy>
15.2714

> <b_lp_Chiralities_Consistent>
1

> <s_lp_Variant>
AV-unprocessed.smi:1019-1

> <Gold.Version>
5.8.1

> <Gold.Id.Protein>
6NUR|6NUR_protein|mol2

> <Gold.PLP.Fitness>
53.3550

> <Gold.PLP.PLP>
-39.1864

> <Gold.PLP.part.hbond>
-4.1954

> <Gold.PLP.part.metal>
0.0000

> <Gold.PLP.part.buried>
-1.2064

> <Gold.PLP.part.nonpolar>
-33.6748

> <Gold.PLP.part.repulsive>
0.1456

> <Gold.PLP.ligand.clash>
0.0000

> <Gold.PLP.ligand.torsion>
1.0438

> <Gold.PLP.Chemscore.Hbond>
4.4619

> <Gold.PLP.Chemscore.CHOScore>
0.8728

> <Gold.PLP.Chemscore.Metal>
0.0000

> <Gold.Chemscore.Hbonds>
donor molecule, donor type, donor heavy atom, donor atom, acceptor molecule, acceptor atom, score
      L1  H     2    44       P1  7948  2.00
      L1  H    12    36       P1  7957  0.78
      P1  H  7954  7966       L1    12  0.76
      P1  H  7989  7998       L1    16  0.80
      L1  C    15    39       P1  7948  0.63
      L1  C    15    39       P1  7949  0.22

> <Gold.PLP.Chemscore.Internal.Correction>
0.2520

> <Gold.Rescore>
     Score         DG    S(hbond)    S(metal)    S(lipo)     H(rot)  DE(clash)    DE(int)     intcor
     17.29     -18.60       2.57        0.00      90.50       2.36       0.28       1.03       ----

> <Gold.Chemscore.Fitness>
17.2880

> <Gold.Chemscore.DG>
-18.5979

> <Gold.Chemscore.ZeroCoef>
-5.4800

> <Gold.Chemscore.Hbond>
2.5675

> <Gold.Chemscore.Metal>
0.0000

> <Gold.Chemscore.Lipo>
90.4960

> <Gold.Chemscore.Internal_Hbond>
0.0000

> <Gold.Chemscore.DEClash>
0.2846

> <Gold.Chemscore.DEInternal>
1.0253

> <Gold.Chemscore.Rot>
2.3616

> <Gold.Chemscore.Internal.Correction>
   9.000000E+99

> <Gold.Chemscore.Hbonds>
donor molecule, donor type, donor heavy atom, donor atom, acceptor molecule, acceptor atom, score
      L1  H     2    44       P1  7948  0.92
      L1  H    12    36       P1  7957  0.72
      P1  H  7954  7966       L1    12  0.12
      P1  H  7989  7998       L1    16  0.12

> <Gold.Chemscore.Hbond.Weighted>
-8.5756

> <Gold.Chemscore.Metal.Weighted>
-0.0000

> <Gold.Chemscore.Lipo.Weighted>
-10.5880

> <Gold.Chemscore.Internal_Hbond.Weighted>
0.0000

> <Gold.Chemscore.DEClash.Weighted>
0.2846

> <Gold.Chemscore.DEInternal.Weighted>
1.0253

> <Gold.Chemscore.Rot.Weighted>
6.0457

> <Gold.Chemscore.Internal.Correction.Weighted>
   9.000000E+99

> <Gold.Protein.RotatedTorsions>
[ 6907 6896 6895 6894 ] final  -71.91 input  -60.11 | X-H torsion
[ 7974 7965 7964 7962 ] final   84.67 input  175.53 | X-H torsion
[ 8008 7997 7996 7995 ] final  171.15 input   59.86 | X-H torsion
[ 10167 10162 10161 10158 ] final  -49.68 input  -65.29 | X-H torsion
[ 10718 10713 10712 10709 ] final   47.53 input   66.30 | X-H torsion
[ 10763 10752 10751 10750 ] final   71.08 input  -60.55 | X-H torsion
[ 11005 11000 10999 10996 ] final  -98.67 input  -57.11 | X-H torsion

> <Gold.Protein.ActiveResidues>
 VAL166  LYS551  ARG553  GLY616  TRP617  ASP618  TYR619  PRO620  LYS621  CYS622 
 ASP623  PHE694  ASN695  SER759  ASP760  ASP761  ALA762  ILE779  LEU786  VAL792 
 PHE793  MET794  SER795  GLU796  ALA797  LYS798  CYS799  TRP800  GLU811  SER814 

> <Gold.Protein.RotatedAtoms>
  150.7192  134.5239  159.5666 H   0  0  0  0  0  0  0  0  0  0  0  0  # atno 6907 bound_to 6896
  152.2788  134.7849  160.0409 H   0  0  0  0  0  0  0  0  0  0  0  0  # atno 6908 bound_to 6896
  151.8503  133.3403  159.3708 H   0  0  0  0  0  0  0  0  0  0  0  0  # atno 6909 bound_to 6896
  145.5956  139.2344  143.2274 H   0  0  0  0  0  0  0  0  0  0  0  0  # atno 7974 bound_to 7965
  156.1298  140.1519  156.9082 H   0  0  0  0  0  0  0  0  0  0  0  0  # atno 8008 bound_to 7997
  154.4900  140.0854  156.7614 H   0  0  0  0  0  0  0  0  0  0  0  0  # atno 8009 bound_to 7997
  155.4276  140.3426  155.4279 H   0  0  0  0  0  0  0  0  0  0  0  0  # atno 8010 bound_to 7997
  140.6674  143.2688  151.4250 H   0  0  0  0  0  0  0  0  0  0  0  0  # atno 10167 bound_to 10162
  157.4594  130.8187  149.7870 H   0  0  0  0  0  0  0  0  0  0  0  0  # atno 10718 bound_to 10713
  153.0378  135.5150  154.7538 H   0  0  0  0  0  0  0  0  0  0  0  0  # atno 10763 bound_to 10752
  154.6501  135.2924  155.0000 H   0  0  0  0  0  0  0  0  0  0  0  0  # atno 10764 bound_to 10752
  154.0887  135.6653  153.4901 H   0  0  0  0  0  0  0  0  0  0  0  0  # atno 10765 bound_to 10752
  141.1336  133.8263  157.0870 H   0  0  0  0  0  0  0  0  0  0  0  0  # atno 11005 bound_to 11000
  146.1614  140.6782  142.9275 LP  0  0  0  0  0  0  0  0  0  0  0  0  # atno 17320 bound_to 7965
  144.7332  140.4732  143.6923 LP  0  0  0  0  0  0  0  0  0  0  0  0  # atno 17321 bound_to 7965
  139.5928  144.1463  152.2108 LP  0  0  0  0  0  0  0  0  0  0  0  0  # atno 17342 bound_to 10162
  140.0823  144.5690  150.7114 LP  0  0  0  0  0  0  0  0  0  0  0  0  # atno 17343 bound_to 10162
  156.0022  130.3874  150.2564 LP  0  0  0  0  0  0  0  0  0  0  0  0  # atno 17370 bound_to 10713
  157.0740  131.0125  151.3180 LP  0  0  0  0  0  0  0  0  0  0  0  0  # atno 17371 bound_to 10713
  140.0416  134.9851  157.0972 LP  0  0  0  0  0  0  0  0  0  0  0  0  # atno 17394 bound_to 11000
  140.4127  134.1964  155.7163 LP  0  0  0  0  0  0  0  0  0  0  0  0  # atno 17395 bound_to 11000

$$$$
