AV-unprocessed.smi:3100|AV-procd|sdf|11806|dock9
  -GOLD-   2272017183D 1   1.00000     0.00000
 Structure written by MMmdl.
 28 29  0  0  0  0  0  0  0  0  1 V2000
  152.2371  144.9475  158.6647 C   0  0  0  0  0  0  0  0  0  0  0  0
  152.1005  143.7041  159.5492 C   0  0  2  0  0  0  0  0  0  0  0  0
  153.4304  143.1098  159.9991 C   0  0  0  0  0  0  0  0  0  0  0  0
  153.0255  141.6993  160.3770 C   0  0  0  0  0  0  0  0  0  0  0  0
  151.8489  141.3953  159.4315 C   0  0  2  0  0  0  0  0  0  0  0  0
  152.1875  140.4004  158.3151 C   0  0  0  0  0  0  0  0  0  0  0  0
  153.2953  139.8626  158.2896 O   0  0  0  0  0  0  0  0  0  0  0  0
  151.2166  140.1919  157.4068 N   0  0  0  0  0  0  0  0  0  0  0  0
  151.2482  139.3444  156.2682 C   0  0  0  0  0  0  0  0  0  0  0  0
  151.9038  138.1027  156.4444 C   0  0  0  0  0  0  0  0  0  0  0  0
  152.0136  137.1888  155.4546 N   0  0  0  0  0  0  0  0  0  0  0  0
  151.4593  137.5151  154.2674 C   0  0  0  0  0  0  0  0  0  0  0  0
  150.8020  138.7465  154.0737 C   0  0  0  0  0  0  0  0  0  0  0  0
  150.6971  139.6560  155.0670 N   0  0  0  0  0  0  0  0  0  0  0  0
  151.5037  142.6394  158.8240 O   0  0  0  0  0  0  0  0  0  0  0  0
  152.7214  145.7608  159.2055 H   0  0  0  0  0  0  0  0  0  0  0  0
  151.2593  145.3004  158.3366 H   0  0  0  0  0  0  0  0  0  0  0  0
  152.8305  144.7359  157.7746 H   0  0  0  0  0  0  0  0  0  0  0  0
  151.4790  143.9255  160.4186 H   0  0  0  0  0  0  0  0  0  0  0  0
  154.1382  143.0839  159.1690 H   0  0  0  0  0  0  0  0  0  0  0  0
  153.8872  143.6587  160.8230 H   0  0  0  0  0  0  0  0  0  0  0  0
  153.8567  140.9972  160.2962 H   0  0  0  0  0  0  0  0  0  0  0  0
  152.6797  141.6758  161.4112 H   0  0  0  0  0  0  0  0  0  0  0  0
  150.9977  141.0349  160.0118 H   0  0  0  0  0  0  0  0  0  0  0  0
  150.3556  140.6996  157.5485 H   0  0  0  0  0  0  0  0  0  0  0  0
  152.3483  137.8363  157.3925 H   0  0  0  0  0  0  0  0  0  0  0  0
  151.5400  136.7920  153.4693 H   0  0  0  0  0  0  0  0  0  0  0  0
  150.3603  139.0024  153.1220 H   0  0  0  0  0  0  0  0  0  0  0  0
  1  2  1  0  0  0  0
  1 16  1  0  0  0  0
  1 17  1  0  0  0  0
  1 18  1  0  0  0  0
  2 15  1  0  0  0  0
  2  3  1  0  0  0  0
  2 19  1  0  0  0  0
  3  4  1  0  0  0  0
  3 20  1  0  0  0  0
  3 21  1  0  0  0  0
  4  5  1  0  0  0  0
  4 22  1  0  0  0  0
  4 23  1  0  0  0  0
  5  6  1  0  0  0  0
  5 15  1  0  0  0  0
  5 24  1  0  0  0  0
  6  7  2  0  0  0  0
  6  8  1  0  0  0  0
  8  9  1  0  0  0  0
  8 25  1  0  0  0  0
  9 14  1  0  0  0  0
  9 10  2  0  0  0  0
 10 11  1  0  0  0  0
 10 26  1  0  0  0  0
 11 12  2  0  0  0  0
 12 13  1  0  0  0  0
 12 27  1  0  0  0  0
 13 14  2  0  0  0  0
 13 28  1  0  0  0  0
M  END
> <s_m_source_file>
AV-unprocessed.smi

> <i_m_source_file_index>
3100

> <i_lp_mmshare_version>
43012

> <i_f3d_flags>
0

> <s_epik_input>
W0NIM11bQ0BASF0xW0NIMl1bQ0gyXVtDQEhdKE8xKUMoPU8pW05IXWMyW2NIXW5bY0hdW2NIXW4y

> <s_epik_cmdline>
J2VwaWtfcHl0aG9uJywgJy1waCcsICc3LjAnLCAnLXRuJywgJzgnLCAnLW1hJywgJzIwMCcsICctbWV0YWxfYmluZGluZycsICctaW1hZScsICc8aW5maWxlLm1hZT4nLCAnLW9tYWUnLCAnPG91dGZpbGUubWFlPic=

> <r_lp_tautomer_probability>
1

> <r_epik_Ionization_Penalty>
2.81186e-06

> <r_epik_Ionization_Penalty_Charging>
0

> <r_epik_Ionization_Penalty_Neutral>
2.81186e-06

> <r_epik_State_Penalty>
-0

> <r_epik_Charging_Adjusted_Penalty>
0

> <i_epik_Tot_Q>
0

> <i_epik_Tot_abs_Q>
0

> <r_epik_Metal_State_Penalty>
-0

> <b_epik_Metal_Only>
0

> <s_lp_Force_Field>
OPLS_2005

> <r_lp_Energy>
25.9651

> <b_lp_Chiralities_Consistent>
1

> <s_lp_Variant>
AV-unprocessed.smi:3100-3

> <Gold.Version>
5.8.1

> <Gold.Id.Protein>
6NUR|6NUR_protein|mol2

> <Gold.PLP.Fitness>
41.6559

> <Gold.PLP.PLP>
-30.4618

> <Gold.PLP.part.hbond>
-2.0944

> <Gold.PLP.part.metal>
0.0000

> <Gold.PLP.part.buried>
-3.5526

> <Gold.PLP.part.nonpolar>
-24.9493

> <Gold.PLP.part.repulsive>
0.1618

> <Gold.PLP.ligand.clash>
0.0000

> <Gold.PLP.ligand.torsion>
0.3226

> <Gold.PLP.Chemscore.Hbond>
1.9440

> <Gold.PLP.Chemscore.CHOScore>
2.0000

> <Gold.PLP.Chemscore.Metal>
0.0000

> <Gold.Chemscore.Hbonds>
donor molecule, donor type, donor heavy atom, donor atom, acceptor molecule, acceptor atom, score
      P1  H  7997  8009       L1     7  1.00
      P1  H 10752 10765       L1    11  0.82
      L1  C    12    27       P1  7949  1.00
      L1  C    13    28       P1  7957  1.00

> <Gold.PLP.Chemscore.Internal.Correction>
0.0073

> <Gold.Rescore>
     Score         DG    S(hbond)    S(metal)    S(lipo)     H(rot)  DE(clash)    DE(int)     intcor
     15.93     -17.64       1.62        0.00      79.49       1.00       0.08       1.63       ----

> <Gold.Chemscore.Fitness>
15.9320

> <Gold.Chemscore.DG>
-17.6450

> <Gold.Chemscore.ZeroCoef>
-5.4800

> <Gold.Chemscore.Hbond>
1.6240

> <Gold.Chemscore.Metal>
0.0000

> <Gold.Chemscore.Lipo>
79.4945

> <Gold.Chemscore.Internal_Hbond>
0.0000

> <Gold.Chemscore.DEClash>
0.0845

> <Gold.Chemscore.DEInternal>
1.6285

> <Gold.Chemscore.Rot>
1.0000

> <Gold.Chemscore.Internal.Correction>
   9.000000E+99

> <Gold.Chemscore.Hbonds>
donor molecule, donor type, donor heavy atom, donor atom, acceptor molecule, acceptor atom, score
      P1  H  7997  8009       L1     7  0.99
      P1  H 10752 10765       L1    11  0.15

> <Gold.Chemscore.Hbond.Weighted>
-5.4241

> <Gold.Chemscore.Metal.Weighted>
-0.0000

> <Gold.Chemscore.Lipo.Weighted>
-9.3009

> <Gold.Chemscore.Internal_Hbond.Weighted>
0.0000

> <Gold.Chemscore.DEClash.Weighted>
0.0845

> <Gold.Chemscore.DEInternal.Weighted>
1.6285

> <Gold.Chemscore.Rot.Weighted>
2.5600

> <Gold.Chemscore.Internal.Correction.Weighted>
   9.000000E+99

> <Gold.Protein.RotatedTorsions>
[ 6907 6896 6895 6894 ] final  -54.66 input  -60.11 | X-H torsion
[ 7974 7965 7964 7962 ] final  163.81 input  175.53 | X-H torsion
[ 8008 7997 7996 7995 ] final  156.81 input   59.86 | X-H torsion
[ 10167 10162 10161 10158 ] final  -15.65 input  -65.29 | X-H torsion
[ 10718 10713 10712 10709 ] final    8.06 input   66.30 | X-H torsion
[ 10763 10752 10751 10750 ] final -163.96 input  -60.55 | X-H torsion
[ 11005 11000 10999 10996 ] final  120.90 input  -57.11 | X-H torsion

> <Gold.Protein.ActiveResidues>
 VAL166  LYS551  ARG553  GLY616  TRP617  ASP618  TYR619  PRO620  LYS621  CYS622 
 ASP623  PHE694  ASN695  SER759  ASP760  ASP761  ALA762  ILE779  LEU786  VAL792 
 PHE793  MET794  SER795  GLU796  ALA797  LYS798  CYS799  TRP800  GLU811  SER814 

> <Gold.Protein.RotatedAtoms>
  150.8318  134.7575  159.6859 H   0  0  0  0  0  0  0  0  0  0  0  0  # atno 6907 bound_to 6896
  152.4421  134.5565  159.9892 H   0  0  0  0  0  0  0  0  0  0  0  0  # atno 6908 bound_to 6896
  151.5725  133.3350  159.3028 H   0  0  0  0  0  0  0  0  0  0  0  0  # atno 6909 bound_to 6896
  144.7573  139.8235  143.6345 H   0  0  0  0  0  0  0  0  0  0  0  0  # atno 7974 bound_to 7965
  156.2401  140.1902  156.7012 H   0  0  0  0  0  0  0  0  0  0  0  0  # atno 8008 bound_to 7997
  154.6180  140.0612  156.9606 H   0  0  0  0  0  0  0  0  0  0  0  0  # atno 8009 bound_to 7997
  155.1907  140.3284  155.4361 H   0  0  0  0  0  0  0  0  0  0  0  0  # atno 8010 bound_to 7997
  140.7222  143.5196  150.9650 H   0  0  0  0  0  0  0  0  0  0  0  0  # atno 10167 bound_to 10162
  156.9460  130.5879  149.5654 H   0  0  0  0  0  0  0  0  0  0  0  0  # atno 10718 bound_to 10713
  154.7073  135.2999  154.9251 H   0  0  0  0  0  0  0  0  0  0  0  0  # atno 10763 bound_to 10752
  154.0164  135.6688  153.4773 H   0  0  0  0  0  0  0  0  0  0  0  0  # atno 10764 bound_to 10752
  153.0727  135.5052  154.8251 H   0  0  0  0  0  0  0  0  0  0  0  0  # atno 10765 bound_to 10752
  139.9204  134.9637  156.7877 H   0  0  0  0  0  0  0  0  0  0  0  0  # atno 11005 bound_to 11000
  146.1598  139.4708  142.9996 LP  0  0  0  0  0  0  0  0  0  0  0  0  # atno 17320 bound_to 7965
  145.6736  141.0210  143.1644 LP  0  0  0  0  0  0  0  0  0  0  0  0  # atno 17321 bound_to 7965
  139.8913  143.6950  152.3145 LP  0  0  0  0  0  0  0  0  0  0  0  0  # atno 17342 bound_to 10162
  139.7267  144.7591  151.0868 LP  0  0  0  0  0  0  0  0  0  0  0  0  # atno 17343 bound_to 10162
  156.0383  130.5468  150.8709 LP  0  0  0  0  0  0  0  0  0  0  0  0  # atno 17370 bound_to 10713
  157.5753  131.0946  150.9355 LP  0  0  0  0  0  0  0  0  0  0  0  0  # atno 17371 bound_to 10713
  140.6492  133.9747  155.7746 LP  0  0  0  0  0  0  0  0  0  0  0  0  # atno 17394 bound_to 11000
  141.0719  134.0192  157.3513 LP  0  0  0  0  0  0  0  0  0  0  0  0  # atno 17395 bound_to 11000

$$$$
