AV-unprocessed.smi:1833|AV-procd|sdf|7466|dock9
  -GOLD-   22720 9163D 1   1.00000     0.00000
 Structure written by MMmdl.
 42 43  0  0  0  0  0  0  0  0  2 V2000
  143.8889  135.0197  151.4193 C   0  0  0  0  0  0  0  0  0  0  0  0
  145.2812  135.6360  151.2281 C   0  0  0  0  0  0  0  0  0  0  0  0
  146.3137  134.9853  152.0729 N   0  3  2  0  0  0  0  0  0  0  0  0
  146.4719  133.5437  151.7457 C   0  0  0  0  0  0  0  0  0  0  0  0
  147.6352  132.9134  152.5300 C   0  0  0  0  0  0  0  0  0  0  0  0
  147.4683  133.1294  154.0424 C   0  0  0  0  0  0  0  0  0  0  0  0
  147.2651  134.6201  154.3635 C   0  0  1  0  0  0  0  0  0  0  0  0
  148.5055  135.3552  154.1190 N   0  0  0  0  0  0  0  0  0  0  0  0
  149.2401  135.9678  155.0574 C   0  0  0  0  0  0  0  0  0  0  0  0
  148.9371  136.0107  156.2495 O   0  0  0  0  0  0  0  0  0  0  0  0
  150.3436  136.5224  154.5371 N   0  0  0  0  0  0  0  0  0  0  0  0
  151.3848  137.2108  155.2946 C   0  0  0  0  0  0  0  0  0  0  0  0
  151.8625  138.5056  154.6129 C   0  0  0  0  0  0  0  0  0  0  0  0
  151.4508  139.7569  155.3189 C   0  0  0  0  0  0  0  0  0  0  0  0
  150.7443  140.7369  154.7469 N   0  0  0  0  0  0  0  0  0  0  0  0
  150.4885  141.7912  155.6274 C   0  0  0  0  0  0  0  0  0  0  0  0
  150.9836  141.5851  156.8894 C   0  0  0  0  0  0  0  0  0  0  0  0
  151.8083  140.0566  157.0163 S   0  0  0  0  0  0  0  0  0  0  0  0
  146.0951  135.1877  153.5311 C   0  0  0  0  0  0  0  0  0  0  0  0
  143.1395  135.5874  150.8676 H   0  0  0  0  0  0  0  0  0  0  0  0
  143.5975  135.0225  152.4700 H   0  0  0  0  0  0  0  0  0  0  0  0
  143.8437  133.9930  151.0579 H   0  0  0  0  0  0  0  0  0  0  0  0
  145.5776  135.6004  150.1789 H   0  0  0  0  0  0  0  0  0  0  0  0
  145.2143  136.6917  151.4945 H   0  0  0  0  0  0  0  0  0  0  0  0
  145.5421  133.0166  151.9652 H   0  0  0  0  0  0  0  0  0  0  0  0
  146.6586  133.4251  150.6777 H   0  0  0  0  0  0  0  0  0  0  0  0
  147.6943  131.8466  152.3126 H   0  0  0  0  0  0  0  0  0  0  0  0
  148.5788  133.3455  152.1946 H   0  0  0  0  0  0  0  0  0  0  0  0
  146.6044  132.5634  154.3932 H   0  0  0  0  0  0  0  0  0  0  0  0
  148.3316  132.7345  154.5798 H   0  0  0  0  0  0  0  0  0  0  0  0
  147.0191  134.7073  155.4235 H   0  0  0  0  0  0  0  0  0  0  0  0
  148.8463  135.3691  153.1687 H   0  0  0  0  0  0  0  0  0  0  0  0
  150.4947  136.4345  153.5429 H   0  0  0  0  0  0  0  0  0  0  0  0
  151.0508  137.4199  156.3123 H   0  0  0  0  0  0  0  0  0  0  0  0
  152.2269  136.5253  155.3887 H   0  0  0  0  0  0  0  0  0  0  0  0
  152.9507  138.4988  154.5453 H   0  0  0  0  0  0  0  0  0  0  0  0
  151.4946  138.5426  153.5867 H   0  0  0  0  0  0  0  0  0  0  0  0
  149.9456  142.6541  155.2727 H   0  0  0  0  0  0  0  0  0  0  0  0
  150.9175  142.2377  157.7473 H   0  0  0  0  0  0  0  0  0  0  0  0
  145.9737  136.2467  153.7564 H   0  0  0  0  0  0  0  0  0  0  0  0
  145.1625  134.7034  153.8253 H   0  0  0  0  0  0  0  0  0  0  0  0
  147.1923  135.4278  151.8437 H   0  0  0  0  0  0  0  0  0  0  0  0
  1  2  1  0  0  0  0
  1 20  1  0  0  0  0
  1 21  1  0  0  0  0
  1 22  1  0  0  0  0
  2  3  1  0  0  0  0
  2 23  1  0  0  0  0
  2 24  1  0  0  0  0
  3 19  1  0  0  0  0
  3  4  1  0  0  0  0
  3 42  1  0  0  0  0
  4  5  1  0  0  0  0
  4 25  1  0  0  0  0
  4 26  1  0  0  0  0
  5  6  1  0  0  0  0
  5 27  1  0  0  0  0
  5 28  1  0  0  0  0
  6  7  1  0  0  0  0
  6 29  1  0  0  0  0
  6 30  1  0  0  0  0
  7  8  1  0  0  0  0
  7 19  1  0  0  0  0
  7 31  1  0  0  0  0
  8  9  1  0  0  0  0
  8 32  1  0  0  0  0
  9 10  2  0  0  0  0
  9 11  1  0  0  0  0
 11 12  1  0  0  0  0
 11 33  1  0  0  0  0
 12 13  1  0  0  0  0
 12 34  1  0  0  0  0
 12 35  1  0  0  0  0
 13 14  1  0  0  0  0
 13 36  1  0  0  0  0
 13 37  1  0  0  0  0
 14 18  1  0  0  0  0
 14 15  2  0  0  0  0
 15 16  1  0  0  0  0
 16 17  2  0  0  0  0
 16 38  1  0  0  0  0
 17 18  1  0  0  0  0
 17 39  1  0  0  0  0
 19 40  1  0  0  0  0
 19 41  1  0  0  0  0
M  CHG  1   3   1
M  END
> <s_m_source_file>
AV-unprocessed.smi

> <i_m_source_file_index>
1833

> <i_lp_mmshare_version>
43012

> <i_f3d_flags>
0

> <s_epik_input>
W0NIM11bQ0gyXU4xW0NIMl1bQ0gyXVtDSDJdW0NASF0oW0NIMl0xKVtOSF1DKD1PKVtOSF1bQ0gyXVtDSDJdYzJuW2NIXVtjSF1zMg==

> <s_epik_cmdline>
J2VwaWtfcHl0aG9uJywgJy1waCcsICc3LjAnLCAnLXRuJywgJzgnLCAnLW1hJywgJzIwMCcsICctbWV0YWxfYmluZGluZycsICctaW1hZScsICc8aW5maWxlLm1hZT4nLCAnLW9tYWUnLCAnPG91dGZpbGUubWFlPic=

> <r_lp_tautomer_probability>
1

> <r_epik_Ionization_Penalty>
0.00269629

> <r_epik_Ionization_Penalty_Charging>
0.00233899

> <r_epik_Ionization_Penalty_Neutral>
0.000357304

> <r_epik_State_Penalty>
-0

> <r_epik_Charging_Adjusted_Penalty>
0.00233899

> <i_epik_Tot_Q>
1

> <i_epik_Tot_abs_Q>
1

> <r_epik_Metal_State_Penalty>
-0

> <b_epik_Metal_Only>
0

> <s_lp_Force_Field>
OPLS_2005

> <r_lp_Energy>
14.5557

> <b_lp_Chiralities_Consistent>
1

> <s_lp_Variant>
AV-unprocessed.smi:1833-2

> <Gold.Version>
5.8.1

> <Gold.Id.Protein>
6NUR|6NUR_protein|mol2

> <Gold.PLP.Fitness>
46.2723

> <Gold.PLP.PLP>
-31.6000

> <Gold.PLP.part.hbond>
-4.2421

> <Gold.PLP.part.metal>
0.0000

> <Gold.PLP.part.buried>
-1.7700

> <Gold.PLP.part.nonpolar>
-25.8084

> <Gold.PLP.part.repulsive>
0.1963

> <Gold.PLP.ligand.clash>
0.0000

> <Gold.PLP.ligand.torsion>
0.5095

> <Gold.PLP.Chemscore.Hbond>
4.2125

> <Gold.PLP.Chemscore.CHOScore>
1.0000

> <Gold.PLP.Chemscore.Metal>
0.0000

> <Gold.Chemscore.Hbonds>
donor molecule, donor type, donor heavy atom, donor atom, acceptor molecule, acceptor atom, score
      L1  H     3    42       P1  7948  2.00
      L1  H     8    32       P1  7948  0.93
      L1  H    11    33       P1  7949  0.20
      P1  H  7989  7998       L1    15  0.76
      L1  C    16    38       P1  8028  1.00

> <Gold.PLP.Chemscore.Internal.Correction>
0.0537

> <Gold.Rescore>
     Score         DG    S(hbond)    S(metal)    S(lipo)     H(rot)  DE(clash)    DE(int)     intcor
     17.57     -18.18       2.78        0.00      66.58       1.71       0.05       0.55       ----

> <Gold.Chemscore.Fitness>
17.5720

> <Gold.Chemscore.DG>
-18.1806

> <Gold.Chemscore.ZeroCoef>
-5.4800

> <Gold.Chemscore.Hbond>
2.7844

> <Gold.Chemscore.Metal>
0.0000

> <Gold.Chemscore.Lipo>
66.5827

> <Gold.Chemscore.Internal_Hbond>
0.0000

> <Gold.Chemscore.DEClash>
0.0544

> <Gold.Chemscore.DEInternal>
0.5542

> <Gold.Chemscore.Rot>
1.7147

> <Gold.Chemscore.Internal.Correction>
   9.000000E+99

> <Gold.Chemscore.Hbonds>
donor molecule, donor type, donor heavy atom, donor atom, acceptor molecule, acceptor atom, score
      L1  H     3    42       P1  7948  1.00
      L1  H     8    32       P1  7948  0.60
      P1  H  7989  7998       L1    15  0.12

> <Gold.Chemscore.Hbond.Weighted>
-9.3000

> <Gold.Chemscore.Metal.Weighted>
-0.0000

> <Gold.Chemscore.Lipo.Weighted>
-7.7902

> <Gold.Chemscore.Internal_Hbond.Weighted>
0.0000

> <Gold.Chemscore.DEClash.Weighted>
0.0544

> <Gold.Chemscore.DEInternal.Weighted>
0.5542

> <Gold.Chemscore.Rot.Weighted>
4.3896

> <Gold.Chemscore.Internal.Correction.Weighted>
   9.000000E+99

> <Gold.Protein.RotatedTorsions>
[ 6907 6896 6895 6894 ] final -150.09 input  -60.11 | X-H torsion
[ 7974 7965 7964 7962 ] final  172.68 input  175.53 | X-H torsion
[ 8008 7997 7996 7995 ] final  -66.62 input   59.86 | X-H torsion
[ 10167 10162 10161 10158 ] final   38.77 input  -65.29 | X-H torsion
[ 10718 10713 10712 10709 ] final   12.93 input   66.30 | X-H torsion
[ 10763 10752 10751 10750 ] final   13.72 input  -60.55 | X-H torsion
[ 11005 11000 10999 10996 ] final -146.05 input  -57.11 | X-H torsion

> <Gold.Protein.ActiveResidues>
 VAL166  LYS551  ARG553  GLY616  TRP617  ASP618  TYR619  PRO620  LYS621  CYS622 
 ASP623  PHE694  ASN695  SER759  ASP760  ASP761  ALA762  ILE779  LEU786  VAL792 
 PHE793  MET794  SER795  GLU796  ALA797  LYS798  CYS799  TRP800  GLU811  SER814 

> <Gold.Protein.RotatedAtoms>
  151.1936  133.4652  159.2594 H   0  0  0  0  0  0  0  0  0  0  0  0  # atno 6907 bound_to 6896
  151.1139  135.0042  159.8517 H   0  0  0  0  0  0  0  0  0  0  0  0  # atno 6908 bound_to 6896
  152.5452  134.1853  159.8705 H   0  0  0  0  0  0  0  0  0  0  0  0  # atno 6909 bound_to 6896
  144.7262  139.9534  143.6432 H   0  0  0  0  0  0  0  0  0  0  0  0  # atno 7974 bound_to 7965
  154.4746  140.0909  156.7231 H   0  0  0  0  0  0  0  0  0  0  0  0  # atno 8008 bound_to 7997
  155.4630  140.3461  155.4297 H   0  0  0  0  0  0  0  0  0  0  0  0  # atno 8009 bound_to 7997
  156.1096  140.1444  156.9345 H   0  0  0  0  0  0  0  0  0  0  0  0  # atno 8010 bound_to 7997
  140.3905  144.1859  150.6131 H   0  0  0  0  0  0  0  0  0  0  0  0  # atno 10167 bound_to 10162
  157.0173  130.6141  149.5716 H   0  0  0  0  0  0  0  0  0  0  0  0  # atno 10718 bound_to 10713
  153.1693  135.6809  153.8630 H   0  0  0  0  0  0  0  0  0  0  0  0  # atno 10763 bound_to 10752
  153.8000  135.3157  155.3390 H   0  0  0  0  0  0  0  0  0  0  0  0  # atno 10764 bound_to 10752
  154.7987  135.4791  154.0314 H   0  0  0  0  0  0  0  0  0  0  0  0  # atno 10765 bound_to 10752
  140.7860  134.3024  157.5029 H   0  0  0  0  0  0  0  0  0  0  0  0  # atno 11005 bound_to 11000
  146.0693  139.3683  143.0533 LP  0  0  0  0  0  0  0  0  0  0  0  0  # atno 17320 bound_to 7965
  145.7989  140.9780  143.1009 LP  0  0  0  0  0  0  0  0  0  0  0  0  # atno 17321 bound_to 7965
  140.4845  143.2368  151.8908 LP  0  0  0  0  0  0  0  0  0  0  0  0  # atno 17342 bound_to 10162
  139.4789  144.5233  151.8770 LP  0  0  0  0  0  0  0  0  0  0  0  0  # atno 17343 bound_to 10162
  156.0115  130.5206  150.8002 LP  0  0  0  0  0  0  0  0  0  0  0  0  # atno 17370 bound_to 10713
  157.5276  131.0935  150.9997 LP  0  0  0  0  0  0  0  0  0  0  0  0  # atno 17371 bound_to 10713
  139.8736  134.9346  156.3613 LP  0  0  0  0  0  0  0  0  0  0  0  0  # atno 17394 bound_to 11000
  140.9436  133.7498  156.0179 LP  0  0  0  0  0  0  0  0  0  0  0  0  # atno 17395 bound_to 11000

$$$$
