AV-unprocessed.smi:959|AV-procd|sdf|4269|dock7
  -GOLD-   22720 2173D 1   1.00000     0.00000
 Structure written by MMmdl.
 33 34  0  0  0  0  0  0  0  0  2 V2000
  152.3077  143.9058  160.4150 C   0  0  0  0  0  0  0  0  0  0  0  0
  152.4792  142.6213  161.2395 C   0  0  0  0  0  0  0  0  0  0  0  0
  153.1669  142.9039  162.5866 C   0  0  0  0  0  0  0  0  0  0  0  0
  153.1806  141.6033  160.4614 N   0  0  0  0  0  0  0  0  0  0  0  0
  154.4324  141.1372  160.6193 C   0  0  0  0  0  0  0  0  0  0  0  0
  154.8117  140.2138  159.7389 N   0  0  0  0  0  0  0  0  0  0  0  0
  153.7238  140.0628  158.9078 N   0  0  0  0  0  0  0  0  0  0  0  0
  152.7983  140.9217  159.3558 C   0  0  0  0  0  0  0  0  0  0  0  0
  151.4509  141.0755  158.7039 C   0  0  2  0  0  0  0  0  0  0  0  0
  151.1361  139.9019  157.7574 C   0  0  0  0  0  0  0  0  0  0  0  0
  149.7629  140.0955  157.0961 C   0  0  0  0  0  0  0  0  0  0  0  0
  149.6783  141.4604  156.3930 C   0  0  0  0  0  0  0  0  0  0  0  0
  149.9805  142.5556  157.3401 N   0  3  0  0  0  0  0  0  0  0  0  0
  151.3144  142.4253  157.9676 C   0  0  0  0  0  0  0  0  0  0  0  0
  151.7486  144.6576  160.9729 H   0  0  0  0  0  0  0  0  0  0  0  0
  151.7662  143.7138  159.4885 H   0  0  0  0  0  0  0  0  0  0  0  0
  153.2737  144.3379  160.1514 H   0  0  0  0  0  0  0  0  0  0  0  0
  151.4915  142.2288  161.4800 H   0  0  0  0  0  0  0  0  0  0  0  0
  152.5679  143.5849  163.1919 H   0  0  0  0  0  0  0  0  0  0  0  0
  154.1460  143.3652  162.4535 H   0  0  0  0  0  0  0  0  0  0  0  0
  153.3007  141.9875  163.1625 H   0  0  0  0  0  0  0  0  0  0  0  0
  155.0923  141.4768  161.4038 H   0  0  0  0  0  0  0  0  0  0  0  0
  150.6883  141.0770  159.4810 H   0  0  0  0  0  0  0  0  0  0  0  0
  151.9037  139.8283  156.9855 H   0  0  0  0  0  0  0  0  0  0  0  0
  151.1552  138.9595  158.3063 H   0  0  0  0  0  0  0  0  0  0  0  0
  149.5784  139.2943  156.3799 H   0  0  0  0  0  0  0  0  0  0  0  0
  148.9790  140.0224  157.8511 H   0  0  0  0  0  0  0  0  0  0  0  0
  150.3800  141.5025  155.5587 H   0  0  0  0  0  0  0  0  0  0  0  0
  148.6812  141.6126  155.9793 H   0  0  0  0  0  0  0  0  0  0  0  0
  149.9344  143.4365  156.8478 H   0  0  0  0  0  0  0  0  0  0  0  0
  151.4578  143.2534  158.6627 H   0  0  0  0  0  0  0  0  0  0  0  0
  152.0768  142.5232  157.1932 H   0  0  0  0  0  0  0  0  0  0  0  0
  149.2805  142.5523  158.0683 H   0  0  0  0  0  0  0  0  0  0  0  0
  1  2  1  0  0  0  0
  1 15  1  0  0  0  0
  1 16  1  0  0  0  0
  1 17  1  0  0  0  0
  2  3  1  0  0  0  0
  2  4  1  0  0  0  0
  2 18  1  0  0  0  0
  3 19  1  0  0  0  0
  3 20  1  0  0  0  0
  3 21  1  0  0  0  0
  4  8  1  0  0  0  0
  4  5  1  0  0  0  0
  5  6  2  0  0  0  0
  5 22  1  0  0  0  0
  6  7  1  0  0  0  0
  7  8  2  0  0  0  0
  8  9  1  0  0  0  0
  9 14  1  0  0  0  0
  9 10  1  0  0  0  0
  9 23  1  0  0  0  0
 10 11  1  0  0  0  0
 10 24  1  0  0  0  0
 10 25  1  0  0  0  0
 11 12  1  0  0  0  0
 11 26  1  0  0  0  0
 11 27  1  0  0  0  0
 12 13  1  0  0  0  0
 12 28  1  0  0  0  0
 12 29  1  0  0  0  0
 13 14  1  0  0  0  0
 13 30  1  0  0  0  0
 13 33  1  0  0  0  0
 14 31  1  0  0  0  0
 14 32  1  0  0  0  0
M  CHG  1  13   1
M  END
> <s_m_source_file>
AV-unprocessed.smi

> <i_m_source_file_index>
959

> <i_lp_mmshare_version>
43012

> <i_f3d_flags>
0

> <s_epik_input>
W0NIM11bQ0hdKFtDSDNdKW4xW2NIXW5uYzFbQ0BASF0yW0NIMl1bQ0gyXVtDSDJdW05IXVtDSDJdMg==

> <s_epik_cmdline>
J2VwaWtfcHl0aG9uJywgJy1waCcsICc3LjAnLCAnLXRuJywgJzgnLCAnLW1hJywgJzIwMCcsICctbWV0YWxfYmluZGluZycsICctaW1hZScsICc8aW5maWxlLm1hZT4nLCAnLW9tYWUnLCAnPG91dGZpbGUubWFlPic=

> <r_lp_tautomer_probability>
1

> <r_epik_Ionization_Penalty>
0.000442722

> <r_epik_Ionization_Penalty_Charging>
0.000426856

> <r_epik_Ionization_Penalty_Neutral>
1.58656e-05

> <r_epik_State_Penalty>
-0

> <r_epik_Charging_Adjusted_Penalty>
0.000426856

> <i_epik_Tot_Q>
1

> <i_epik_Tot_abs_Q>
1

> <r_epik_Metal_State_Penalty>
-0

> <b_epik_Metal_Only>
0

> <s_lp_Force_Field>
OPLS_2005

> <r_lp_Energy>
20.311

> <b_lp_Chiralities_Consistent>
1

> <s_lp_Variant>
AV-unprocessed.smi:959-1

> <Gold.Version>
5.8.1

> <Gold.Id.Protein>
6NUR|6NUR_protein|mol2

> <Gold.PLP.Fitness>
39.5506

> <Gold.PLP.PLP>
-31.9154

> <Gold.PLP.part.hbond>
-2.1660

> <Gold.PLP.part.metal>
0.0000

> <Gold.PLP.part.buried>
-4.5078

> <Gold.PLP.part.nonpolar>
-25.4932

> <Gold.PLP.part.repulsive>
0.0200

> <Gold.PLP.ligand.clash>
0.0000

> <Gold.PLP.ligand.torsion>
0.5865

> <Gold.PLP.Chemscore.Hbond>
2.9120

> <Gold.PLP.Chemscore.CHOScore>
0.0000

> <Gold.PLP.Chemscore.Metal>
0.0000

> <Gold.Chemscore.Hbonds>
donor molecule, donor type, donor heavy atom, donor atom, acceptor molecule, acceptor atom, score
      L1  H    13    30       P1  8028  1.97
      P1  H  7997  8010       L1     7  0.89

> <Gold.PLP.Chemscore.Internal.Correction>
0.0722

> <Gold.Rescore>
     Score         DG    S(hbond)    S(metal)    S(lipo)     H(rot)  DE(clash)    DE(int)     intcor
     13.77     -14.86       1.52        0.00      63.78       1.24       0.25       0.85       ----

> <Gold.Chemscore.Fitness>
13.7672

> <Gold.Chemscore.DG>
-14.8612

> <Gold.Chemscore.ZeroCoef>
-5.4800

> <Gold.Chemscore.Hbond>
1.5218

> <Gold.Chemscore.Metal>
0.0000

> <Gold.Chemscore.Lipo>
63.7767

> <Gold.Chemscore.Internal_Hbond>
0.0000

> <Gold.Chemscore.DEClash>
0.2460

> <Gold.Chemscore.DEInternal>
0.8480

> <Gold.Chemscore.Rot>
1.2357

> <Gold.Chemscore.Internal.Correction>
   9.000000E+99

> <Gold.Chemscore.Hbonds>
donor molecule, donor type, donor heavy atom, donor atom, acceptor molecule, acceptor atom, score
      L1  H    13    30       P1  8028  0.87
      P1  H  7997  8010       L1     7  0.21

> <Gold.Chemscore.Hbond.Weighted>
-5.0827

> <Gold.Chemscore.Metal.Weighted>
-0.0000

> <Gold.Chemscore.Lipo.Weighted>
-7.4619

> <Gold.Chemscore.Internal_Hbond.Weighted>
0.0000

> <Gold.Chemscore.DEClash.Weighted>
0.2460

> <Gold.Chemscore.DEInternal.Weighted>
0.8480

> <Gold.Chemscore.Rot.Weighted>
3.1634

> <Gold.Chemscore.Internal.Correction.Weighted>
   9.000000E+99

> <Gold.Protein.RotatedTorsions>
[ 6907 6896 6895 6894 ] final -130.91 input  -60.11 | X-H torsion
[ 7974 7965 7964 7962 ] final -179.73 input  175.53 | X-H torsion
[ 8008 7997 7996 7995 ] final   31.39 input   59.86 | X-H torsion
[ 10167 10162 10161 10158 ] final -126.17 input  -65.29 | X-H torsion
[ 10718 10713 10712 10709 ] final  111.97 input   66.30 | X-H torsion
[ 10763 10752 10751 10750 ] final  149.19 input  -60.55 | X-H torsion
[ 11005 11000 10999 10996 ] final  154.53 input  -57.11 | X-H torsion

> <Gold.Protein.ActiveResidues>
 VAL166  LYS551  ARG553  GLY616  TRP617  ASP618  TYR619  PRO620  LYS621  CYS622 
 ASP623  PHE694  ASN695  SER759  ASP760  ASP761  ALA762  ILE779  LEU786  VAL792 
 PHE793  MET794  SER795  GLU796  ALA797  LYS798  CYS799  TRP800  GLU811  SER814 

> <Gold.Protein.RotatedAtoms>
  150.9450  133.6613  159.2782 H   0  0  0  0  0  0  0  0  0  0  0  0  # atno 6907 bound_to 6896
  151.3989  135.0966  159.9559 H   0  0  0  0  0  0  0  0  0  0  0  0  # atno 6908 bound_to 6896
  152.5086  133.8949  159.7467 H   0  0  0  0  0  0  0  0  0  0  0  0  # atno 6909 bound_to 6896
  144.7139  140.0673  143.6430 H   0  0  0  0  0  0  0  0  0  0  0  0  # atno 7974 bound_to 7965
  155.1057  140.3234  155.4535 H   0  0  0  0  0  0  0  0  0  0  0  0  # atno 8008 bound_to 7997
  156.2705  140.2053  156.6129 H   0  0  0  0  0  0  0  0  0  0  0  0  # atno 8009 bound_to 7997
  154.6795  140.0528  157.0238 H   0  0  0  0  0  0  0  0  0  0  0  0  # atno 8010 bound_to 7997
  139.9743  143.5812  152.2401 H   0  0  0  0  0  0  0  0  0  0  0  0  # atno 10167 bound_to 10162
  157.6417  131.0960  150.6826 H   0  0  0  0  0  0  0  0  0  0  0  0  # atno 10718 bound_to 10713
  154.0671  135.2869  155.3315 H   0  0  0  0  0  0  0  0  0  0  0  0  # atno 10763 bound_to 10752
  154.6771  135.5278  153.8216 H   0  0  0  0  0  0  0  0  0  0  0  0  # atno 10764 bound_to 10752
  153.0499  135.6572  154.0855 H   0  0  0  0  0  0  0  0  0  0  0  0  # atno 10765 bound_to 10752
  140.1498  134.8682  157.2440 H   0  0  0  0  0  0  0  0  0  0  0  0  # atno 11005 bound_to 11000
  145.9813  139.2943  143.1040 LP  0  0  0  0  0  0  0  0  0  0  0  0  # atno 17320 bound_to 7965
  145.9007  140.9244  143.0504 LP  0  0  0  0  0  0  0  0  0  0  0  0  # atno 17321 bound_to 7965
  139.6458  144.7658  151.2247 LP  0  0  0  0  0  0  0  0  0  0  0  0  # atno 17342 bound_to 10162
  140.7511  143.6242  150.8484 LP  0  0  0  0  0  0  0  0  0  0  0  0  # atno 17343 bound_to 10162
  156.7149  130.4663  149.5537 LP  0  0  0  0  0  0  0  0  0  0  0  0  # atno 17370 bound_to 10713
  156.1705  130.6433  151.0831 LP  0  0  0  0  0  0  0  0  0  0  0  0  # atno 17371 bound_to 10713
  140.2619  134.3561  155.7404 LP  0  0  0  0  0  0  0  0  0  0  0  0  # atno 17394 bound_to 11000
  141.2197  133.7374  156.9092 LP  0  0  0  0  0  0  0  0  0  0  0  0  # atno 17395 bound_to 11000

$$$$
