AV-unprocessed.smi:788|AV-procd|sdf|3733|dock7
  -GOLD-   22720 1163D 1   1.00000     0.00000
 Structure written by MMmdl.
 35 36  0  0  0  0  0  0  0  0  1 V2000
  145.0979  135.7581  151.0921 C   0  0  0  0  0  0  0  0  0  0  0  0
  145.5236  134.2947  150.8741 C   0  0  2  0  0  0  0  0  0  0  0  0
  144.3765  133.4914  150.2320 C   0  0  0  0  0  0  0  0  0  0  0  0
  144.7803  132.0336  149.9776 C   0  0  0  0  0  0  0  0  0  0  0  0
  145.2421  131.3590  151.2754 C   0  0  0  0  0  0  0  0  0  0  0  0
  146.4020  132.1292  151.9350 C   0  0  2  0  0  0  0  0  0  0  0  0
  146.8583  131.4147  153.2203 C   0  0  0  0  0  0  0  0  0  0  0  0
  146.0091  133.6099  152.1783 C   0  0  1  0  0  0  0  0  0  0  0  0
  147.1504  134.3425  152.7286 N   0  0  0  0  0  0  0  0  0  0  0  0
  147.5869  134.3015  153.9991 C   0  0  0  0  0  0  0  0  0  0  0  0
  147.0525  133.6147  154.8679 O   0  0  0  0  0  0  0  0  0  0  0  0
  148.6555  135.0740  154.2894 N   0  0  0  0  0  0  0  0  0  0  0  0
  149.3767  135.2808  155.5013 C   0  0  0  0  0  0  0  0  0  0  0  0
  149.0840  134.6938  156.6735 N   0  0  0  0  0  0  0  0  0  0  0  0
  149.9482  135.0878  157.6863 N   0  0  0  0  0  0  0  0  0  0  0  0
  150.8549  135.9629  157.2430 C   0  0  0  0  0  0  0  0  0  0  0  0
  150.7391  136.3920  155.5458 S   0  0  0  0  0  0  0  0  0  0  0  0
  144.2987  135.8308  151.8299 H   0  0  0  0  0  0  0  0  0  0  0  0
  144.7357  136.2026  150.1647 H   0  0  0  0  0  0  0  0  0  0  0  0
  145.9284  136.3732  151.4386 H   0  0  0  0  0  0  0  0  0  0  0  0
  146.3550  134.3010  150.1672 H   0  0  0  0  0  0  0  0  0  0  0  0
  143.4997  133.5183  150.8806 H   0  0  0  0  0  0  0  0  0  0  0  0
  144.0773  133.9538  149.2906 H   0  0  0  0  0  0  0  0  0  0  0  0
  143.9396  131.4846  149.5526 H   0  0  0  0  0  0  0  0  0  0  0  0
  145.5807  131.9966  149.2372 H   0  0  0  0  0  0  0  0  0  0  0  0
  144.4026  131.2914  151.9687 H   0  0  0  0  0  0  0  0  0  0  0  0
  145.5477  130.3343  151.0614 H   0  0  0  0  0  0  0  0  0  0  0  0
  147.2433  132.1138  151.2401 H   0  0  0  0  0  0  0  0  0  0  0  0
  146.0778  131.4341  153.9816 H   0  0  0  0  0  0  0  0  0  0  0  0
  147.7497  131.8766  153.6449 H   0  0  0  0  0  0  0  0  0  0  0  0
  147.1025  130.3709  153.0218 H   0  0  0  0  0  0  0  0  0  0  0  0
  145.1802  133.6218  152.8886 H   0  0  0  0  0  0  0  0  0  0  0  0
  147.6538  134.9357  152.0842 H   0  0  0  0  0  0  0  0  0  0  0  0
  149.0085  135.6015  153.5043 H   0  0  0  0  0  0  0  0  0  0  0  0
  151.5957  136.3609  157.9206 H   0  0  0  0  0  0  0  0  0  0  0  0
  1  2  1  0  0  0  0
  1 18  1  0  0  0  0
  1 19  1  0  0  0  0
  1 20  1  0  0  0  0
  2  8  1  0  0  0  0
  2  3  1  0  0  0  0
  2 21  1  0  0  0  0
  3  4  1  0  0  0  0
  3 22  1  0  0  0  0
  3 23  1  0  0  0  0
  4  5  1  0  0  0  0
  4 24  1  0  0  0  0
  4 25  1  0  0  0  0
  5  6  1  0  0  0  0
  5 26  1  0  0  0  0
  5 27  1  0  0  0  0
  6  7  1  0  0  0  0
  6  8  1  0  0  0  0
  6 28  1  0  0  0  0
  7 29  1  0  0  0  0
  7 30  1  0  0  0  0
  7 31  1  0  0  0  0
  8  9  1  0  0  0  0
  8 32  1  0  0  0  0
  9 10  1  0  0  0  0
  9 33  1  0  0  0  0
 10 11  2  0  0  0  0
 10 12  1  0  0  0  0
 12 13  1  0  0  0  0
 12 34  1  0  0  0  0
 13 17  1  0  0  0  0
 13 14  2  0  0  0  0
 14 15  1  0  0  0  0
 15 16  2  0  0  0  0
 16 17  1  0  0  0  0
 16 35  1  0  0  0  0
M  END
> <s_m_source_file>
AV-unprocessed.smi

> <i_m_source_file_index>
788

> <i_lp_mmshare_version>
43012

> <i_f3d_flags>
0

> <s_epik_input>
W0NIM11bQ0BASF0xW0NIMl1bQ0gyXVtDSDJdW0NAQEhdKFtDSDNdKVtDQEhdMVtOSF1DKD1PKVtOSF1jMm5uW2NIXXMy

> <s_epik_cmdline>
J2VwaWtfcHl0aG9uJywgJy1waCcsICc3LjAnLCAnLXRuJywgJzgnLCAnLW1hJywgJzIwMCcsICctbWV0YWxfYmluZGluZycsICctaW1hZScsICc8aW5maWxlLm1hZT4nLCAnLW9tYWUnLCAnPG91dGZpbGUubWFlPic=

> <r_lp_tautomer_probability>
1

> <r_epik_Ionization_Penalty>
0.000304078

> <r_epik_Ionization_Penalty_Charging>
0

> <r_epik_Ionization_Penalty_Neutral>
0.000304078

> <r_epik_State_Penalty>
-0

> <r_epik_Charging_Adjusted_Penalty>
0

> <i_epik_Tot_Q>
0

> <i_epik_Tot_abs_Q>
0

> <r_epik_Metal_State_Penalty>
0.164801

> <b_epik_Metal_Only>
0

> <s_lp_Force_Field>
OPLS_2005

> <r_lp_Energy>
14.1502

> <b_lp_Chiralities_Consistent>
1

> <s_lp_Variant>
AV-unprocessed.smi:788-3

> <Gold.Version>
5.8.1

> <Gold.Id.Protein>
6NUR|6NUR_protein|mol2

> <Gold.PLP.Fitness>
34.0065

> <Gold.PLP.PLP>
-25.9614

> <Gold.PLP.part.hbond>
-3.0000

> <Gold.PLP.part.metal>
0.0000

> <Gold.PLP.part.buried>
-4.1226

> <Gold.PLP.part.nonpolar>
-20.1810

> <Gold.PLP.part.repulsive>
0.0406

> <Gold.PLP.ligand.clash>
0.0000

> <Gold.PLP.ligand.torsion>
0.2641

> <Gold.PLP.Chemscore.Hbond>
2.8560

> <Gold.PLP.Chemscore.CHOScore>
0.0000

> <Gold.PLP.Chemscore.Metal>
0.0000

> <Gold.Chemscore.Hbonds>
donor molecule, donor type, donor heavy atom, donor atom, acceptor molecule, acceptor atom, score
      L1  H     9    33       P1  7948  0.96
      L1  H    12    34       P1  7948  1.00
      P1  H  6896  6907       L1    15  0.86

> <Gold.PLP.Chemscore.Internal.Correction>
0.0053

> <Gold.Rescore>
     Score         DG    S(hbond)    S(metal)    S(lipo)     H(rot)  DE(clash)    DE(int)     intcor
     15.92     -18.75       2.68        0.00      58.66       1.00       0.00       2.83       ----

> <Gold.Chemscore.Fitness>
15.9196

> <Gold.Chemscore.DG>
-18.7511

> <Gold.Chemscore.ZeroCoef>
-5.4800

> <Gold.Chemscore.Hbond>
2.6849

> <Gold.Chemscore.Metal>
0.0000

> <Gold.Chemscore.Lipo>
58.6633

> <Gold.Chemscore.Internal_Hbond>
0.0000

> <Gold.Chemscore.DEClash>
0.0000

> <Gold.Chemscore.DEInternal>
2.8315

> <Gold.Chemscore.Rot>
1.0000

> <Gold.Chemscore.Internal.Correction>
   9.000000E+99

> <Gold.Chemscore.Hbonds>
donor molecule, donor type, donor heavy atom, donor atom, acceptor molecule, acceptor atom, score
      L1  H     9    33       P1  7948  0.76
      L1  H    12    34       P1  7948  0.77
      P1  H  6896  6907       L1    15  0.48

> <Gold.Chemscore.Hbond.Weighted>
-8.9675

> <Gold.Chemscore.Metal.Weighted>
-0.0000

> <Gold.Chemscore.Lipo.Weighted>
-6.8636

> <Gold.Chemscore.Internal_Hbond.Weighted>
0.0000

> <Gold.Chemscore.DEClash.Weighted>
0.0000

> <Gold.Chemscore.DEInternal.Weighted>
2.8315

> <Gold.Chemscore.Rot.Weighted>
2.5600

> <Gold.Chemscore.Internal.Correction.Weighted>
   9.000000E+99

> <Gold.Protein.RotatedTorsions>
[ 6907 6896 6895 6894 ] final  -85.77 input  -60.11 | X-H torsion
[ 7974 7965 7964 7962 ] final  -94.15 input  175.53 | X-H torsion
[ 8008 7997 7996 7995 ] final -117.61 input   59.86 | X-H torsion
[ 10167 10162 10161 10158 ] final  161.31 input  -65.29 | X-H torsion
[ 10718 10713 10712 10709 ] final   -9.58 input   66.30 | X-H torsion
[ 10763 10752 10751 10750 ] final -107.16 input  -60.55 | X-H torsion
[ 11005 11000 10999 10996 ] final  -82.51 input  -57.11 | X-H torsion

> <Gold.Protein.ActiveResidues>
 VAL166  LYS551  ARG553  GLY616  TRP617  ASP618  TYR619  PRO620  LYS621  CYS622 
 ASP623  PHE694  ASN695  SER759  ASP760  ASP761  ALA762  ILE779  LEU786  VAL792 
 PHE793  MET794  SER795  GLU796  ALA797  LYS798  CYS799  TRP800  GLU811  SER814 

> <Gold.Protein.RotatedAtoms>
  150.6869  134.3153  159.4763 H   0  0  0  0  0  0  0  0  0  0  0  0  # atno 6907 bound_to 6896
  152.1034  134.9323  160.0578 H   0  0  0  0  0  0  0  0  0  0  0  0  # atno 6908 bound_to 6896
  152.0593  133.4020  159.4448 H   0  0  0  0  0  0  0  0  0  0  0  0  # atno 6909 bound_to 6896
  145.3771  140.9513  143.2414 H   0  0  0  0  0  0  0  0  0  0  0  0  # atno 7974 bound_to 7965
  155.0864  140.0394  157.2655 H   0  0  0  0  0  0  0  0  0  0  0  0  # atno 8008 bound_to 7997
  154.6866  140.2644  155.6829 H   0  0  0  0  0  0  0  0  0  0  0  0  # atno 8009 bound_to 7997
  156.2714  140.2768  156.1429 H   0  0  0  0  0  0  0  0  0  0  0  0  # atno 8010 bound_to 7997
  139.4848  144.4549  151.8782 H   0  0  0  0  0  0  0  0  0  0  0  0  # atno 10167 bound_to 10162
  156.6860  130.5051  149.5957 H   0  0  0  0  0  0  0  0  0  0  0  0  # atno 10718 bound_to 10713
  154.8058  135.4685  154.0389 H   0  0  0  0  0  0  0  0  0  0  0  0  # atno 10763 bound_to 10752
  153.1859  135.6848  153.8423 H   0  0  0  0  0  0  0  0  0  0  0  0  # atno 10764 bound_to 10752
  153.7957  135.3237  155.3361 H   0  0  0  0  0  0  0  0  0  0  0  0  # atno 10765 bound_to 10752
  141.1663  133.7248  156.8582 H   0  0  0  0  0  0  0  0  0  0  0  0  # atno 11005 bound_to 11000
  144.8534  139.5286  143.6846 LP  0  0  0  0  0  0  0  0  0  0  0  0  # atno 17320 bound_to 7965
  146.2859  139.7003  142.9196 LP  0  0  0  0  0  0  0  0  0  0  0  0  # atno 17321 bound_to 7965
  140.4007  144.2496  150.5893 LP  0  0  0  0  0  0  0  0  0  0  0  0  # atno 17342 bound_to 10162
  140.5059  143.2304  151.8608 LP  0  0  0  0  0  0  0  0  0  0  0  0  # atno 17343 bound_to 10162
  156.1833  130.6513  151.0976 LP  0  0  0  0  0  0  0  0  0  0  0  0  # atno 17370 bound_to 10713
  157.7026  131.0769  150.6770 LP  0  0  0  0  0  0  0  0  0  0  0  0  # atno 17371 bound_to 10713
  140.1867  134.8995  157.3013 LP  0  0  0  0  0  0  0  0  0  0  0  0  # atno 17394 bound_to 11000
  140.2335  134.3881  155.7511 LP  0  0  0  0  0  0  0  0  0  0  0  0  # atno 17395 bound_to 11000

$$$$
