AV-unprocessed.smi:1796|AV-procd|sdf|7251|dock3
  -GOLD-   22720 8503D 1   1.00000     0.00000
 Structure written by MMmdl.
 42 43  0  0  0  0  0  0  0  0  1 V2000
  152.5220  138.2066  154.1735 C   0  0  0  0  0  0  0  0  0  0  0  0
  152.3484  138.9012  155.5267 C   0  0  0  0  0  0  0  0  0  0  0  0
  153.3464  139.0509  156.2319 O   0  0  0  0  0  0  0  0  0  0  0  0
  151.1165  139.3208  155.9029 N   0  0  0  0  0  0  0  0  0  0  0  0
  149.9367  139.2088  155.0356 C   0  0  0  0  0  0  0  0  0  0  0  0
  149.5096  140.6189  154.5869 C   0  0  0  0  0  0  0  0  0  0  0  0
  149.2637  141.5374  155.7994 C   0  0  0  0  0  0  0  0  0  0  0  0
  150.4595  141.5131  156.7779 C   0  0  1  0  0  0  0  0  0  0  0  0
  150.1711  142.3280  158.0435 C   0  0  0  0  0  0  0  0  0  0  0  0
  149.0972  142.1987  158.6316 O   0  0  0  0  0  0  0  0  0  0  0  0
  151.1595  143.1297  158.4710 N   0  0  0  0  0  0  0  0  0  0  0  0
  151.1828  143.8508  159.7430 C   0  0  2  0  0  0  0  0  0  0  0  0
  150.6970  145.2892  159.5201 C   0  0  0  0  0  0  0  0  0  0  0  0
  152.6037  143.8168  160.3442 C   0  0  0  0  0  0  0  0  0  0  0  0
  153.1563  142.4738  160.3958 N   0  0  0  0  0  0  0  0  0  0  0  0
  153.7973  141.8527  161.4476 C   0  0  0  0  0  0  0  0  0  0  0  0
  154.1675  140.6098  161.0210 C   0  0  0  0  0  0  0  0  0  0  0  0
  153.6965  140.5599  159.6792 C   0  0  0  0  0  0  0  0  0  0  0  0
  153.0897  141.6761  159.3084 N   0  0  0  0  0  0  0  0  0  0  0  0
  150.8129  140.0527  157.1389 C   0  0  0  0  0  0  0  0  0  0  0  0
  151.8954  137.3165  154.1107 H   0  0  0  0  0  0  0  0  0  0  0  0
  153.5575  137.8949  154.0320 H   0  0  0  0  0  0  0  0  0  0  0  0
  152.2633  138.8811  153.3567 H   0  0  0  0  0  0  0  0  0  0  0  0
  150.1119  138.5797  154.1619 H   0  0  0  0  0  0  0  0  0  0  0  0
  149.1272  138.7300  155.5884 H   0  0  0  0  0  0  0  0  0  0  0  0
  150.2881  141.0495  153.9557 H   0  0  0  0  0  0  0  0  0  0  0  0
  148.6102  140.5619  153.9731 H   0  0  0  0  0  0  0  0  0  0  0  0
  149.0725  142.5557  155.4587 H   0  0  0  0  0  0  0  0  0  0  0  0
  148.3579  141.2090  156.3116 H   0  0  0  0  0  0  0  0  0  0  0  0
  151.3217  141.9551  156.2744 H   0  0  0  0  0  0  0  0  0  0  0  0
  151.9976  143.1788  157.9102 H   0  0  0  0  0  0  0  0  0  0  0  0
  150.4986  143.3850  160.4544 H   0  0  0  0  0  0  0  0  0  0  0  0
  150.6852  145.8474  160.4568 H   0  0  0  0  0  0  0  0  0  0  0  0
  149.6841  145.3039  159.1165 H   0  0  0  0  0  0  0  0  0  0  0  0
  151.3425  145.8240  158.8224 H   0  0  0  0  0  0  0  0  0  0  0  0
  153.2789  144.4459  159.7623 H   0  0  0  0  0  0  0  0  0  0  0  0
  152.5952  144.2230  161.3568 H   0  0  0  0  0  0  0  0  0  0  0  0
  153.9449  142.3456  162.3972 H   0  0  0  0  0  0  0  0  0  0  0  0
  154.6960  139.8528  161.5813 H   0  0  0  0  0  0  0  0  0  0  0  0
  153.7776  139.7510  158.9681 H   0  0  0  0  0  0  0  0  0  0  0  0
  149.9697  139.5672  157.6336 H   0  0  0  0  0  0  0  0  0  0  0  0
  151.6225  140.0274  157.8675 H   0  0  0  0  0  0  0  0  0  0  0  0
  1  2  1  0  0  0  0
  1 21  1  0  0  0  0
  1 22  1  0  0  0  0
  1 23  1  0  0  0  0
  2  3  2  0  0  0  0
  2  4  1  0  0  0  0
  4 20  1  0  0  0  0
  4  5  1  0  0  0  0
  5  6  1  0  0  0  0
  5 24  1  0  0  0  0
  5 25  1  0  0  0  0
  6  7  1  0  0  0  0
  6 26  1  0  0  0  0
  6 27  1  0  0  0  0
  7  8  1  0  0  0  0
  7 28  1  0  0  0  0
  7 29  1  0  0  0  0
  8  9  1  0  0  0  0
  8 20  1  0  0  0  0
  8 30  1  0  0  0  0
  9 10  2  0  0  0  0
  9 11  1  0  0  0  0
 11 12  1  0  0  0  0
 11 31  1  0  0  0  0
 12 13  1  0  0  0  0
 12 14  1  0  0  0  0
 12 32  1  0  0  0  0
 13 33  1  0  0  0  0
 13 34  1  0  0  0  0
 13 35  1  0  0  0  0
 14 15  1  0  0  0  0
 14 36  1  0  0  0  0
 14 37  1  0  0  0  0
 15 19  1  0  0  0  0
 15 16  1  0  0  0  0
 16 17  2  0  0  0  0
 16 38  1  0  0  0  0
 17 18  1  0  0  0  0
 17 39  1  0  0  0  0
 18 19  2  0  0  0  0
 18 40  1  0  0  0  0
 20 41  1  0  0  0  0
 20 42  1  0  0  0  0
M  END
> <s_m_source_file>
AV-unprocessed.smi

> <i_m_source_file_index>
1796

> <i_lp_mmshare_version>
43012

> <i_f3d_flags>
0

> <s_epik_input>
W0NIM11DKD1PKU4xW0NIMl1bQ0gyXVtDSDJdW0NASF0oW0NIMl0xKUMoPU8pW05IXVtDQEhdKFtDSDNdKVtDSDJdbjJbY0hdW2NIXVtjSF1uMg==

> <s_epik_cmdline>
J2VwaWtfcHl0aG9uJywgJy1waCcsICc3LjAnLCAnLXRuJywgJzgnLCAnLW1hJywgJzIwMCcsICctbWV0YWxfYmluZGluZycsICctaW1hZScsICc8aW5maWxlLm1hZT4nLCAnLW9tYWUnLCAnPG91dGZpbGUubWFlPic=

> <r_lp_tautomer_probability>
1

> <r_epik_Ionization_Penalty>
0.000315051

> <r_epik_Ionization_Penalty_Charging>
0

> <r_epik_Ionization_Penalty_Neutral>
0.000315051

> <r_epik_State_Penalty>
-0

> <r_epik_Charging_Adjusted_Penalty>
0

> <i_epik_Tot_Q>
0

> <i_epik_Tot_abs_Q>
0

> <r_epik_Metal_State_Penalty>
-0

> <b_epik_Metal_Only>
0

> <s_lp_Force_Field>
OPLS_2005

> <r_lp_Energy>
23.171

> <b_lp_Chiralities_Consistent>
1

> <s_lp_Variant>
AV-unprocessed.smi:1796-1

> <Gold.Version>
5.8.1

> <Gold.Id.Protein>
6NUR|6NUR_protein|mol2

> <Gold.PLP.Fitness>
43.4098

> <Gold.PLP.PLP>
-42.7141

> <Gold.PLP.part.hbond>
-1.2469

> <Gold.PLP.part.metal>
0.0000

> <Gold.PLP.part.buried>
-5.3611

> <Gold.PLP.part.nonpolar>
-36.3830

> <Gold.PLP.part.repulsive>
0.1518

> <Gold.PLP.ligand.clash>
0.0000

> <Gold.PLP.ligand.torsion>
0.9175

> <Gold.PLP.Chemscore.Hbond>
0.8320

> <Gold.PLP.Chemscore.CHOScore>
0.0000

> <Gold.PLP.Chemscore.Metal>
0.0000

> <Gold.Chemscore.Hbonds>
donor molecule, donor type, donor heavy atom, donor atom, acceptor molecule, acceptor atom, score
      P1  H  7997  8008       L1     3  0.78

> <Gold.PLP.Chemscore.Internal.Correction>
0.0347

> <Gold.Rescore>
     Score         DG    S(hbond)    S(metal)    S(lipo)     H(rot)  DE(clash)    DE(int)     intcor
     12.92     -15.88       1.11        0.00      92.97       1.63       0.36       2.60       ----

> <Gold.Chemscore.Fitness>
12.9159

> <Gold.Chemscore.DG>
-15.8775

> <Gold.Chemscore.ZeroCoef>
-5.4800

> <Gold.Chemscore.Hbond>
1.1086

> <Gold.Chemscore.Metal>
0.0000

> <Gold.Chemscore.Lipo>
92.9653

> <Gold.Chemscore.Internal_Hbond>
0.0000

> <Gold.Chemscore.DEClash>
0.3593

> <Gold.Chemscore.DEInternal>
2.6023

> <Gold.Chemscore.Rot>
1.6336

> <Gold.Chemscore.Internal.Correction>
   9.000000E+99

> <Gold.Chemscore.Hbonds>
donor molecule, donor type, donor heavy atom, donor atom, acceptor molecule, acceptor atom, score
      P1  H  7997  8008       L1     3  0.75

> <Gold.Chemscore.Hbond.Weighted>
-3.7027

> <Gold.Chemscore.Metal.Weighted>
-0.0000

> <Gold.Chemscore.Lipo.Weighted>
-10.8769

> <Gold.Chemscore.Internal_Hbond.Weighted>
0.0000

> <Gold.Chemscore.DEClash.Weighted>
0.3593

> <Gold.Chemscore.DEInternal.Weighted>
2.6023

> <Gold.Chemscore.Rot.Weighted>
4.1821

> <Gold.Chemscore.Internal.Correction.Weighted>
   9.000000E+99

> <Gold.Protein.RotatedTorsions>
[ 6907 6896 6895 6894 ] final  -78.53 input  -60.11 | X-H torsion
[ 7974 7965 7964 7962 ] final -164.60 input  175.53 | X-H torsion
[ 8008 7997 7996 7995 ] final  -68.83 input   59.86 | X-H torsion
[ 10167 10162 10161 10158 ] final   42.70 input  -65.29 | X-H torsion
[ 10718 10713 10712 10709 ] final  -36.33 input   66.30 | X-H torsion
[ 10763 10752 10751 10750 ] final  102.14 input  -60.55 | X-H torsion
[ 11005 11000 10999 10996 ] final  -18.34 input  -57.11 | X-H torsion

> <Gold.Protein.ActiveResidues>
 VAL166  LYS551  ARG553  GLY616  TRP617  ASP618  TYR619  PRO620  LYS621  CYS622 
 ASP623  PHE694  ASN695  SER759  ASP760  ASP761  ALA762  ILE779  LEU786  VAL792 
 PHE793  MET794  SER795  GLU796  ALA797  LYS798  CYS799  TRP800  GLU811  SER814 

> <Gold.Protein.RotatedAtoms>
  150.6971  134.4259  159.5225 H   0  0  0  0  0  0  0  0  0  0  0  0  # atno 6907 bound_to 6896
  152.1994  134.8599  160.0518 H   0  0  0  0  0  0  0  0  0  0  0  0  # atno 6908 bound_to 6896
  151.9525  133.3635  159.4042 H   0  0  0  0  0  0  0  0  0  0  0  0  # atno 6909 bound_to 6896
  144.7292  140.2936  143.6216 H   0  0  0  0  0  0  0  0  0  0  0  0  # atno 7974 bound_to 7965
  154.4896  140.0865  156.7563 H   0  0  0  0  0  0  0  0  0  0  0  0  # atno 8008 bound_to 7997
  155.4265  140.3448  155.4258 H   0  0  0  0  0  0  0  0  0  0  0  0  # atno 8009 bound_to 7997
  156.1310  140.1501  156.9053 H   0  0  0  0  0  0  0  0  0  0  0  0  # atno 8010 bound_to 7997
  140.3518  144.2341  150.6145 H   0  0  0  0  0  0  0  0  0  0  0  0  # atno 10167 bound_to 10162
  156.3281  130.4275  149.7898 H   0  0  0  0  0  0  0  0  0  0  0  0  # atno 10718 bound_to 10713
  153.3358  135.4020  155.1532 H   0  0  0  0  0  0  0  0  0  0  0  0  # atno 10763 bound_to 10752
  154.8633  135.3621  154.5411 H   0  0  0  0  0  0  0  0  0  0  0  0  # atno 10764 bound_to 10752
  153.5852  135.7075  153.5506 H   0  0  0  0  0  0  0  0  0  0  0  0  # atno 10765 bound_to 10752
  140.8258  133.8034  155.9707 H   0  0  0  0  0  0  0  0  0  0  0  0  # atno 11005 bound_to 11000
  145.7830  139.1898  143.2147 LP  0  0  0  0  0  0  0  0  0  0  0  0  # atno 17320 bound_to 7965
  146.0818  140.7755  142.9638 LP  0  0  0  0  0  0  0  0  0  0  0  0  # atno 17321 bound_to 7965
  140.5212  143.2265  151.8386 LP  0  0  0  0  0  0  0  0  0  0  0  0  # atno 17342 bound_to 10162
  139.4825  144.4834  151.9277 LP  0  0  0  0  0  0  0  0  0  0  0  0  # atno 17343 bound_to 10162
  156.5181  130.8202  151.3193 LP  0  0  0  0  0  0  0  0  0  0  0  0  # atno 17370 bound_to 10713
  157.7425  130.9892  150.2522 LP  0  0  0  0  0  0  0  0  0  0  0  0  # atno 17371 bound_to 10713
  140.9051  134.2330  157.5019 LP  0  0  0  0  0  0  0  0  0  0  0  0  # atno 17394 bound_to 11000
  139.8706  134.9724  156.4773 LP  0  0  0  0  0  0  0  0  0  0  0  0  # atno 17395 bound_to 11000

$$$$
