AV-unprocessed.smi:1715|AV-procd|sdf|6912|dock7
  -GOLD-   22720 8113D 1   1.00000     0.00000
 Structure written by MMmdl.
 41 42  0  0  0  0  0  0  0  0  2 V2000
  149.4806  135.3438  154.7891 C   0  0  0  0  0  0  0  0  0  0  0  0
  149.4721  136.6408  155.6179 C   0  0  2  0  0  0  0  0  0  0  0  0
  148.3436  137.6154  155.2271 C   0  0  0  0  0  0  0  0  0  0  0  0
  148.6306  138.2803  153.9335 N   0  3  1  0  0  0  0  0  0  0  0  0
  147.5307  139.1799  153.5053 C   0  0  0  0  0  0  0  0  0  0  0  0
  146.2483  138.4081  153.1382 C   0  0  0  0  0  0  0  0  0  0  0  0
  146.5535  137.1495  152.4677 N   0  0  0  0  0  0  0  0  0  0  0  0
  145.6386  136.2652  152.0449 C   0  0  0  0  0  0  0  0  0  0  0  0
  144.4261  136.4236  152.1882 O   0  0  0  0  0  0  0  0  0  0  0  0
  146.2167  135.2046  151.4578 N   0  0  0  0  0  0  0  0  0  0  0  0
  145.5725  134.0707  150.9012 C   0  0  0  0  0  0  0  0  0  0  0  0
  146.2227  132.8491  150.5768 C   0  0  0  0  0  0  0  0  0  0  0  0
  145.3713  131.9668  150.0737 N   0  0  0  0  0  0  0  0  0  0  0  0
  144.1840  132.6138  150.0732 N   0  0  0  0  0  0  0  0  0  0  0  0
  144.2581  133.8967  150.5692 C   0  0  0  0  0  0  0  0  0  0  0  0
  149.9551  138.9455  153.9821 C   0  0  0  0  0  0  0  0  0  0  0  0
  151.0536  137.9308  154.3469 C   0  0  1  0  0  0  0  0  0  0  0  0
  152.4262  138.5968  154.4939 C   0  0  0  0  0  0  0  0  0  0  0  0
  150.7328  137.3098  155.5889 O   0  0  0  0  0  0  0  0  0  0  0  0
  143.3411  132.1711  149.7351 H   0  0  0  0  0  0  0  0  0  0  0  0
  148.5553  134.7859  154.9361 H   0  0  0  0  0  0  0  0  0  0  0  0
  150.3048  134.6966  155.0894 H   0  0  0  0  0  0  0  0  0  0  0  0
  149.5769  135.5344  153.7207 H   0  0  0  0  0  0  0  0  0  0  0  0
  149.3111  136.3480  156.6558 H   0  0  0  0  0  0  0  0  0  0  0  0
  147.3938  137.0814  155.1752 H   0  0  0  0  0  0  0  0  0  0  0  0
  148.2346  138.3774  156.0006 H   0  0  0  0  0  0  0  0  0  0  0  0
  147.2901  139.8637  154.3208 H   0  0  0  0  0  0  0  0  0  0  0  0
  147.8704  139.8000  152.6741 H   0  0  0  0  0  0  0  0  0  0  0  0
  145.6382  138.2023  154.0180 H   0  0  0  0  0  0  0  0  0  0  0  0
  145.6329  139.0086  152.4678 H   0  0  0  0  0  0  0  0  0  0  0  0
  147.5283  136.9404  152.3073 H   0  0  0  0  0  0  0  0  0  0  0  0
  147.2247  135.2065  151.4021 H   0  0  0  0  0  0  0  0  0  0  0  0
  147.2627  132.5788  150.6867 H   0  0  0  0  0  0  0  0  0  0  0  0
  143.3942  134.5415  150.6354 H   0  0  0  0  0  0  0  0  0  0  0  0
  150.1908  139.3961  153.0186 H   0  0  0  0  0  0  0  0  0  0  0  0
  149.9296  139.7549  154.7137 H   0  0  0  0  0  0  0  0  0  0  0  0
  151.1281  137.1751  153.5647 H   0  0  0  0  0  0  0  0  0  0  0  0
  152.7300  139.0813  153.5656 H   0  0  0  0  0  0  0  0  0  0  0  0
  153.1902  137.8621  154.7496 H   0  0  0  0  0  0  0  0  0  0  0  0
  152.4164  139.3536  155.2789 H   0  0  0  0  0  0  0  0  0  0  0  0
  148.6902  137.5455  153.2431 H   0  0  0  0  0  0  0  0  0  0  0  0
  1  2  1  0  0  0  0
  1 21  1  0  0  0  0
  1 22  1  0  0  0  0
  1 23  1  0  0  0  0
  2 19  1  0  0  0  0
  2  3  1  0  0  0  0
  2 24  1  0  0  0  0
  3  4  1  0  0  0  0
  3 25  1  0  0  0  0
  3 26  1  0  0  0  0
  4  5  1  0  0  0  0
  4 16  1  0  0  0  0
  4 41  1  0  0  0  0
  5  6  1  0  0  0  0
  5 27  1  0  0  0  0
  5 28  1  0  0  0  0
  6  7  1  0  0  0  0
  6 29  1  0  0  0  0
  6 30  1  0  0  0  0
  7  8  1  0  0  0  0
  7 31  1  0  0  0  0
  8  9  2  0  0  0  0
  8 10  1  0  0  0  0
 10 11  1  0  0  0  0
 10 32  1  0  0  0  0
 11 15  2  0  0  0  0
 11 12  1  0  0  0  0
 12 13  2  0  0  0  0
 12 33  1  0  0  0  0
 13 14  1  0  0  0  0
 14 20  1  0  0  0  0
 14 15  1  0  0  0  0
 15 34  1  0  0  0  0
 16 17  1  0  0  0  0
 16 35  1  0  0  0  0
 16 36  1  0  0  0  0
 17 18  1  0  0  0  0
 17 19  1  0  0  0  0
 17 37  1  0  0  0  0
 18 38  1  0  0  0  0
 18 39  1  0  0  0  0
 18 40  1  0  0  0  0
M  CHG  1   4   1
M  END
> <s_m_source_file>
AV-unprocessed.smi

> <i_m_source_file_index>
1715

> <i_lp_mmshare_version>
43012

> <i_f3d_flags>
0

> <s_epik_input>
W0NIM11bQ0BASF0xW0NIMl1OKFtDSDJdW0NASF0oTzEpW0NIM10pW0NIMl1bQ0gyXVtOSF1DKD1PKVtOSF1jMltjSF1uW25IXVtjSF0y

> <s_epik_cmdline>
J2VwaWtfcHl0aG9uJywgJy1waCcsICc3LjAnLCAnLXRuJywgJzgnLCAnLW1hJywgJzIwMCcsICctbWV0YWxfYmluZGluZycsICctaW1hZScsICc8aW5maWxlLm1hZT4nLCAnLW9tYWUnLCAnPG91dGZpbGUubWFlPic=

> <r_lp_tautomer_probability>
0.5

> <r_epik_Ionization_Penalty>
0.646007

> <r_epik_Ionization_Penalty_Charging>
0.645968

> <r_epik_Ionization_Penalty_Neutral>
3.91671e-05

> <r_epik_State_Penalty>
0.664063

> <r_epik_Charging_Adjusted_Penalty>
1.31003

> <i_epik_Tot_Q>
1

> <i_epik_Tot_abs_Q>
1

> <r_epik_Metal_State_Penalty>
0.664064

> <b_epik_Metal_Only>
0

> <s_lp_Force_Field>
OPLS_2005

> <r_lp_Energy>
20.2841

> <b_lp_Chiralities_Consistent>
1

> <s_lp_Variant>
AV-unprocessed.smi:1715-4

> <Gold.Version>
5.8.1

> <Gold.Id.Protein>
6NUR|6NUR_protein|mol2

> <Gold.PLP.Fitness>
45.7114

> <Gold.PLP.PLP>
-28.4288

> <Gold.PLP.part.hbond>
-3.0000

> <Gold.PLP.part.metal>
0.0000

> <Gold.PLP.part.buried>
-5.0729

> <Gold.PLP.part.nonpolar>
-22.0235

> <Gold.PLP.part.repulsive>
0.6844

> <Gold.PLP.ligand.clash>
0.0000

> <Gold.PLP.ligand.torsion>
0.2334

> <Gold.PLP.Chemscore.Hbond>
3.9440

> <Gold.PLP.Chemscore.CHOScore>
1.9664

> <Gold.PLP.Chemscore.Metal>
0.0000

> <Gold.Chemscore.Hbonds>
donor molecule, donor type, donor heavy atom, donor atom, acceptor molecule, acceptor atom, score
      L1  H     4    41       P1  7948  2.00
      L1  H     7    31       P1  7948  1.00
      L1  H    10    32       P1  7948  0.94
      L1  C    12    33       P1 10747  1.00
      L1  C    15    34       P1 10186  0.79

> <Gold.PLP.Chemscore.Internal.Correction>
0.0183

> <Gold.Rescore>
     Score         DG    S(hbond)    S(metal)    S(lipo)     H(rot)  DE(clash)    DE(int)     intcor
     17.04     -18.36       2.81        0.00      66.23       1.67       0.15       1.17       ----

> <Gold.Chemscore.Fitness>
17.0399

> <Gold.Chemscore.DG>
-18.3631

> <Gold.Chemscore.ZeroCoef>
-5.4800

> <Gold.Chemscore.Hbond>
2.8149

> <Gold.Chemscore.Metal>
0.0000

> <Gold.Chemscore.Lipo>
66.2302

> <Gold.Chemscore.Internal_Hbond>
0.0000

> <Gold.Chemscore.DEClash>
0.1505

> <Gold.Chemscore.DEInternal>
1.1727

> <Gold.Chemscore.Rot>
1.6671

> <Gold.Chemscore.Internal.Correction>
   9.000000E+99

> <Gold.Chemscore.Hbonds>
donor molecule, donor type, donor heavy atom, donor atom, acceptor molecule, acceptor atom, score
      L1  H     4    41       P1  7948  1.00
      L1  H     7    31       P1  7948  1.00
      L1  H    10    32       P1  7948  0.71

> <Gold.Chemscore.Hbond.Weighted>
-9.4019

> <Gold.Chemscore.Metal.Weighted>
-0.0000

> <Gold.Chemscore.Lipo.Weighted>
-7.7489

> <Gold.Chemscore.Internal_Hbond.Weighted>
0.0000

> <Gold.Chemscore.DEClash.Weighted>
0.1505

> <Gold.Chemscore.DEInternal.Weighted>
1.1727

> <Gold.Chemscore.Rot.Weighted>
4.2677

> <Gold.Chemscore.Internal.Correction.Weighted>
   9.000000E+99

> <Gold.Protein.RotatedTorsions>
[ 6907 6896 6895 6894 ] final  -70.69 input  -60.11 | X-H torsion
[ 7974 7965 7964 7962 ] final  -60.96 input  175.53 | X-H torsion
[ 8008 7997 7996 7995 ] final  -81.73 input   59.86 | X-H torsion
[ 10167 10162 10161 10158 ] final  -96.06 input  -65.29 | X-H torsion
[ 10718 10713 10712 10709 ] final   84.55 input   66.30 | X-H torsion
[ 10763 10752 10751 10750 ] final -105.77 input  -60.55 | X-H torsion
[ 11005 11000 10999 10996 ] final  -20.94 input  -57.11 | X-H torsion

> <Gold.Protein.ActiveResidues>
 VAL166  LYS551  ARG553  GLY616  TRP617  ASP618  TYR619  PRO620  LYS621  CYS622 
 ASP623  PHE694  ASN695  SER759  ASP760  ASP761  ALA762  ILE779  LEU786  VAL792 
 PHE793  MET794  SER795  GLU796  ALA797  LYS798  CYS799  TRP800  GLU811  SER814 

> <Gold.Protein.RotatedAtoms>
  150.7246  134.5416  159.5750 H   0  0  0  0  0  0  0  0  0  0  0  0  # atno 6907 bound_to 6896
  152.2925  134.7701  160.0384 H   0  0  0  0  0  0  0  0  0  0  0  0  # atno 6908 bound_to 6896
  151.8310  133.3373  159.3650 H   0  0  0  0  0  0  0  0  0  0  0  0  # atno 6909 bound_to 6896
  145.8092  140.8609  143.0191 H   0  0  0  0  0  0  0  0  0  0  0  0  # atno 7974 bound_to 7965
  154.6013  140.0643  156.9372 H   0  0  0  0  0  0  0  0  0  0  0  0  # atno 8008 bound_to 7997
  155.2127  140.3324  155.4308 H   0  0  0  0  0  0  0  0  0  0  0  0  # atno 8009 bound_to 7997
  156.2320  140.1845  156.7202 H   0  0  0  0  0  0  0  0  0  0  0  0  # atno 8010 bound_to 7997
  140.2977  143.3182  152.0281 H   0  0  0  0  0  0  0  0  0  0  0  0  # atno 10167 bound_to 10162
  157.6900  131.0138  150.2690 H   0  0  0  0  0  0  0  0  0  0  0  0  # atno 10718 bound_to 10713
  154.7968  135.4737  154.0181 H   0  0  0  0  0  0  0  0  0  0  0  0  # atno 10763 bound_to 10752
  153.1717  135.6826  153.8605 H   0  0  0  0  0  0  0  0  0  0  0  0  # atno 10764 bound_to 10752
  153.8185  135.3207  155.3386 H   0  0  0  0  0  0  0  0  0  0  0  0  # atno 10765 bound_to 10752
  140.8513  133.7855  155.9969 H   0  0  0  0  0  0  0  0  0  0  0  0  # atno 11005 bound_to 11000
  144.6759  140.0371  143.7481 LP  0  0  0  0  0  0  0  0  0  0  0  0  # atno 17320 bound_to 7965
  145.9795  139.2930  143.1050 LP  0  0  0  0  0  0  0  0  0  0  0  0  # atno 17321 bound_to 7965
  139.4922  144.6479  151.6739 LP  0  0  0  0  0  0  0  0  0  0  0  0  # atno 17342 bound_to 10162
  140.5678  144.0160  150.6201 LP  0  0  0  0  0  0  0  0  0  0  0  0  # atno 17343 bound_to 10162
  156.3256  130.3792  149.7536 LP  0  0  0  0  0  0  0  0  0  0  0  0  # atno 17370 bound_to 10713
  156.5093  130.8164  151.3162 LP  0  0  0  0  0  0  0  0  0  0  0  0  # atno 17371 bound_to 10713
  140.8787  134.2638  157.5155 LP  0  0  0  0  0  0  0  0  0  0  0  0  # atno 17394 bound_to 11000
  139.8704  134.9604  156.4363 LP  0  0  0  0  0  0  0  0  0  0  0  0  # atno 17395 bound_to 11000

$$$$
