AV-unprocessed.smi:1978|AV-procd|sdf|8011|dock7
  -GOLD-   2272010203D 1   1.00000     0.00000
 Structure written by MMmdl.
 44 45  0  0  0  0  0  0  0  0  3 V2000
  153.2719  137.6028  157.2747 C   0  0  0  0  0  0  0  0  0  0  0  0
  152.3921  138.2883  156.2868 C   0  0  0  0  0  0  0  0  0  0  0  0
  151.3295  137.8661  155.5387 C   0  0  0  0  0  0  0  0  0  0  0  0
  150.9607  139.0327  154.8175 C   0  0  0  0  0  0  0  0  0  0  0  0
  149.8696  139.0066  153.9095 N   0  0  0  0  0  0  0  0  0  0  0  0
  148.5729  138.7469  154.1576 C   0  0  0  0  0  0  0  0  0  0  0  0
  148.1960  138.4872  155.3067 O   0  0  0  0  0  0  0  0  0  0  0  0
  147.8122  138.8014  153.0295 N   0  5  0  0  0  0  0  0  0  0  0  0
  146.4052  138.4053  152.9463 C   0  0  0  0  0  0  0  0  0  0  0  0
  146.1736  137.0203  153.6159 C   0  0  1  0  0  0  0  0  0  0  0  0
  144.9413  136.9553  154.5543 C   0  0  0  0  0  0  0  0  0  0  0  0
  146.1762  135.9239  152.5857 N   0  3  2  0  0  0  0  0  0  0  0  0
  145.0845  136.0382  151.5653 C   0  0  0  0  0  0  0  0  0  0  0  0
  145.3010  135.0757  150.3916 C   0  0  0  0  0  0  0  0  0  0  0  0
  145.3609  133.6350  150.8984 C   0  0  0  0  0  0  0  0  0  0  0  0
  146.4571  133.5139  151.9601 C   0  0  0  0  0  0  0  0  0  0  0  0
  146.2776  134.5218  153.1198 C   0  0  1  0  0  0  0  0  0  0  0  0
  147.4410  134.3111  154.1139 C   0  0  0  0  0  0  0  0  0  0  0  0
  151.7321  140.0727  155.0986 N   0  0  0  0  0  0  0  0  0  0  0  0
  152.6536  139.6006  156.0410 O   0  0  0  0  0  0  0  0  0  0  0  0
  152.8675  136.6267  157.5435 H   0  0  0  0  0  0  0  0  0  0  0  0
  153.3633  138.1928  158.1866 H   0  0  0  0  0  0  0  0  0  0  0  0
  154.2706  137.4550  156.8640 H   0  0  0  0  0  0  0  0  0  0  0  0
  150.8865  136.8818  155.5145 H   0  0  0  0  0  0  0  0  0  0  0  0
  150.1001  139.2018  152.9467 H   0  0  0  0  0  0  0  0  0  0  0  0
  145.7291  139.1388  153.3873 H   0  0  0  0  0  0  0  0  0  0  0  0
  146.0987  138.3335  151.9019 H   0  0  0  0  0  0  0  0  0  0  0  0
  147.0380  136.8965  154.2604 H   0  0  0  0  0  0  0  0  0  0  0  0
  145.0417  137.6341  155.4029 H   0  0  0  0  0  0  0  0  0  0  0  0
  144.8261  135.9557  154.9736 H   0  0  0  0  0  0  0  0  0  0  0  0
  144.0084  137.2099  154.0486 H   0  0  0  0  0  0  0  0  0  0  0  0
  144.1199  135.8245  152.0276 H   0  0  0  0  0  0  0  0  0  0  0  0
  145.0218  137.0518  151.1697 H   0  0  0  0  0  0  0  0  0  0  0  0
  144.4926  135.1820  149.6676 H   0  0  0  0  0  0  0  0  0  0  0  0
  146.2241  135.3284  149.8681 H   0  0  0  0  0  0  0  0  0  0  0  0
  144.3979  133.3473  151.3224 H   0  0  0  0  0  0  0  0  0  0  0  0
  145.5585  132.9514  150.0723 H   0  0  0  0  0  0  0  0  0  0  0  0
  146.4638  132.4946  152.3478 H   0  0  0  0  0  0  0  0  0  0  0  0
  147.4295  133.6677  151.4894 H   0  0  0  0  0  0  0  0  0  0  0  0
  145.3447  134.2888  153.6356 H   0  0  0  0  0  0  0  0  0  0  0  0
  147.6126  133.2497  154.2952 H   0  0  0  0  0  0  0  0  0  0  0  0
  147.2397  134.7461  155.0922 H   0  0  0  0  0  0  0  0  0  0  0  0
  148.3724  134.7318  153.7331 H   0  0  0  0  0  0  0  0  0  0  0  0
  147.0390  136.0673  152.0804 H   0  0  0  0  0  0  0  0  0  0  0  0
  1  2  1  0  0  0  0
  1 21  1  0  0  0  0
  1 22  1  0  0  0  0
  1 23  1  0  0  0  0
  2 20  1  0  0  0  0
  2  3  2  0  0  0  0
  3  4  1  0  0  0  0
  3 24  1  0  0  0  0
  4  5  1  0  0  0  0
  4 19  2  0  0  0  0
  5  6  1  0  0  0  0
  5 25  1  0  0  0  0
  6  7  2  0  0  0  0
  6  8  1  0  0  0  0
  8  9  1  0  0  0  0
  9 10  1  0  0  0  0
  9 26  1  0  0  0  0
  9 27  1  0  0  0  0
 10 11  1  0  0  0  0
 10 12  1  0  0  0  0
 10 28  1  0  0  0  0
 11 29  1  0  0  0  0
 11 30  1  0  0  0  0
 11 31  1  0  0  0  0
 12 17  1  0  0  0  0
 12 13  1  0  0  0  0
 12 44  1  0  0  0  0
 13 14  1  0  0  0  0
 13 32  1  0  0  0  0
 13 33  1  0  0  0  0
 14 15  1  0  0  0  0
 14 34  1  0  0  0  0
 14 35  1  0  0  0  0
 15 16  1  0  0  0  0
 15 36  1  0  0  0  0
 15 37  1  0  0  0  0
 16 17  1  0  0  0  0
 16 38  1  0  0  0  0
 16 39  1  0  0  0  0
 17 18  1  0  0  0  0
 17 40  1  0  0  0  0
 18 41  1  0  0  0  0
 18 42  1  0  0  0  0
 18 43  1  0  0  0  0
 19 20  1  0  0  0  0
M  CHG  1   8  -1
M  CHG  1  12   1
M  END
> <s_m_source_file>
AV-unprocessed.smi

> <i_m_source_file_index>
1978

> <i_lp_mmshare_version>
43012

> <i_f3d_flags>
0

> <s_epik_input>
W0NIM11jMVtjSF1jKG5vMSlbTkhdQyg9TylbTkhdW0NIMl1bQ0BIXShbQ0gzXSlOMltDSDJdW0NIMl1bQ0gyXVtDSDJdW0NASF0yW0NIM10=

> <s_epik_cmdline>
J2VwaWtfcHl0aG9uJywgJy1waCcsICc3LjAnLCAnLXRuJywgJzgnLCAnLW1hJywgJzIwMCcsICctbWV0YWxfYmluZGluZycsICctaW1hZScsICc8aW5maWxlLm1hZT4nLCAnLW9tYWUnLCAnPG91dGZpbGUubWFlPic=

> <r_epik_Ionization_Penalty>
6.7666

> <r_epik_Ionization_Penalty_Charging>
6.7666

> <r_epik_Ionization_Penalty_Neutral>
5.77131e-06

> <r_epik_State_Penalty>
6.79217

> <r_epik_Charging_Adjusted_Penalty>
13.5588

> <i_epik_Tot_Q>
0

> <i_epik_Tot_abs_Q>
2

> <r_epik_Metal_State_Penalty>
2.72569

> <b_epik_Metal_Only>
1

> <s_lp_Force_Field>
OPLS_2005

> <r_lp_Energy>
21.6667

> <b_lp_Chiralities_Consistent>
1

> <s_lp_Variant>
AV-unprocessed.smi:1978-20

> <Gold.Version>
5.8.1

> <Gold.Id.Protein>
6NUR|6NUR_protein|mol2

> <Gold.PLP.Fitness>
39.6164

> <Gold.PLP.PLP>
-27.0261

> <Gold.PLP.part.hbond>
-4.0000

> <Gold.PLP.part.metal>
0.0000

> <Gold.PLP.part.buried>
-4.4565

> <Gold.PLP.part.nonpolar>
-20.4308

> <Gold.PLP.part.repulsive>
1.0553

> <Gold.PLP.ligand.clash>
0.0000

> <Gold.PLP.ligand.torsion>
1.3044

> <Gold.PLP.Chemscore.Hbond>
4.9920

> <Gold.PLP.Chemscore.CHOScore>
0.0000

> <Gold.PLP.Chemscore.Metal>
0.0000

> <Gold.Chemscore.Hbonds>
donor molecule, donor type, donor heavy atom, donor atom, acceptor molecule, acceptor atom, score
      L1  H     5    25       P1  7957  1.00
      L1  H    12    44       P1  7948  2.00
      P1  H  7989  7998       L1    19  0.86
      P1  H  7997  8009       L1    20  1.00

> <Gold.PLP.Chemscore.Internal.Correction>
0.2231

> <Gold.Rescore>
     Score         DG    S(hbond)    S(metal)    S(lipo)     H(rot)  DE(clash)    DE(int)     intcor
     17.38     -18.93       3.36        0.00      52.32       1.52       0.22       1.34       ----

> <Gold.Chemscore.Fitness>
17.3751

> <Gold.Chemscore.DG>
-18.9313

> <Gold.Chemscore.ZeroCoef>
-5.4800

> <Gold.Chemscore.Hbond>
3.3587

> <Gold.Chemscore.Metal>
0.0000

> <Gold.Chemscore.Lipo>
52.3246

> <Gold.Chemscore.Internal_Hbond>
0.0000

> <Gold.Chemscore.DEClash>
0.2210

> <Gold.Chemscore.DEInternal>
1.3352

> <Gold.Chemscore.Rot>
1.5190

> <Gold.Chemscore.Internal.Correction>
   9.000000E+99

> <Gold.Chemscore.Hbonds>
donor molecule, donor type, donor heavy atom, donor atom, acceptor molecule, acceptor atom, score
      L1  H     5    25       P1  7957  0.82
      L1  H    12    44       P1  7948  0.99
      P1  H  7989  7998       L1    19  0.16
      P1  H  7997  8009       L1    20  0.95

> <Gold.Chemscore.Hbond.Weighted>
-11.2180

> <Gold.Chemscore.Metal.Weighted>
-0.0000

> <Gold.Chemscore.Lipo.Weighted>
-6.1220

> <Gold.Chemscore.Internal_Hbond.Weighted>
0.0000

> <Gold.Chemscore.DEClash.Weighted>
0.2210

> <Gold.Chemscore.DEInternal.Weighted>
1.3352

> <Gold.Chemscore.Rot.Weighted>
3.8886

> <Gold.Chemscore.Internal.Correction.Weighted>
   9.000000E+99

> <Gold.Protein.RotatedTorsions>
[ 6907 6896 6895 6894 ] final   -1.54 input  -60.11 | X-H torsion
[ 7974 7965 7964 7962 ] final  -71.67 input  175.53 | X-H torsion
[ 8008 7997 7996 7995 ] final -143.90 input   59.86 | X-H torsion
[ 10167 10162 10161 10158 ] final  -15.63 input  -65.29 | X-H torsion
[ 10718 10713 10712 10709 ] final   74.09 input   66.30 | X-H torsion
[ 10763 10752 10751 10750 ] final   11.24 input  -60.55 | X-H torsion
[ 11005 11000 10999 10996 ] final  -52.15 input  -57.11 | X-H torsion

> <Gold.Protein.ActiveResidues>
 VAL166  LYS551  ARG553  GLY616  TRP617  ASP618  TYR619  PRO620  LYS621  CYS622 
 ASP623  PHE694  ASN695  SER759  ASP760  ASP761  ALA762  ILE779  LEU786  VAL792 
 PHE793  MET794  SER795  GLU796  ALA797  LYS798  CYS799  TRP800  GLU811  SER814 

> <Gold.Protein.RotatedAtoms>
  151.5444  135.1068  159.9934 H   0  0  0  0  0  0  0  0  0  0  0  0  # atno 6907 bound_to 6896
  152.4520  133.7644  159.6775 H   0  0  0  0  0  0  0  0  0  0  0  0  # atno 6908 bound_to 6896
  150.8452  133.7806  159.3070 H   0  0  0  0  0  0  0  0  0  0  0  0  # atno 6909 bound_to 6896
  145.6750  140.9208  143.0862 H   0  0  0  0  0  0  0  0  0  0  0  0  # atno 7974 bound_to 7965
  155.5181  140.0589  157.2911 H   0  0  0  0  0  0  0  0  0  0  0  0  # atno 8008 bound_to 7997
  154.4527  140.1957  156.0417 H   0  0  0  0  0  0  0  0  0  0  0  0  # atno 8009 bound_to 7997
  156.0738  140.3256  155.7612 H   0  0  0  0  0  0  0  0  0  0  0  0  # atno 8010 bound_to 7997
  140.7221  143.5199  150.9646 H   0  0  0  0  0  0  0  0  0  0  0  0  # atno 10167 bound_to 10162
  157.6577  130.9661  150.1162 H   0  0  0  0  0  0  0  0  0  0  0  0  # atno 10718 bound_to 10713
  153.1947  135.6847  153.8307 H   0  0  0  0  0  0  0  0  0  0  0  0  # atno 10763 bound_to 10752
  153.7594  135.3212  155.3335 H   0  0  0  0  0  0  0  0  0  0  0  0  # atno 10764 bound_to 10752
  154.8137  135.4700  154.0686 H   0  0  0  0  0  0  0  0  0  0  0  0  # atno 10765 bound_to 10752
  141.0909  133.6633  156.3982 H   0  0  0  0  0  0  0  0  0  0  0  0  # atno 11005 bound_to 11000
  144.7044  139.8622  143.7434 LP  0  0  0  0  0  0  0  0  0  0  0  0  # atno 17320 bound_to 7965
  146.1013  139.4009  143.0345 LP  0  0  0  0  0  0  0  0  0  0  0  0  # atno 17321 bound_to 7965
  139.8916  143.6946  152.3144 LP  0  0  0  0  0  0  0  0  0  0  0  0  # atno 17342 bound_to 10162
  139.7264  144.7592  151.0872 LP  0  0  0  0  0  0  0  0  0  0  0  0  # atno 17343 bound_to 10162
  156.2045  130.3662  149.8746 LP  0  0  0  0  0  0  0  0  0  0  0  0  # atno 17370 bound_to 10713
  156.6641  130.8794  151.3552 LP  0  0  0  0  0  0  0  0  0  0  0  0  # atno 17371 bound_to 10713
  140.5254  134.6264  157.5332 LP  0  0  0  0  0  0  0  0  0  0  0  0  # atno 17394 bound_to 11000
  139.9735  134.7254  155.9995 LP  0  0  0  0  0  0  0  0  0  0  0  0  # atno 17395 bound_to 11000

$$$$
