AV-unprocessed.smi:1269|AV-procd|sdf|5328|dock3
  -GOLD-   22720 4453D 1   1.00000     0.00000
 Structure written by MMmdl.
 43 44  0  0  0  0  0  0  0  0  1 V2000
  151.7639  141.0241  158.1229 C   0  0  0  0  0  0  0  0  0  0  0  0
  151.3955  141.0855  156.7493 O   0  0  0  0  0  0  0  0  0  0  0  0
  150.9150  139.9400  156.1483 C   0  0  0  0  0  0  0  0  0  0  0  0
  150.5011  138.8715  156.9678 C   0  0  0  0  0  0  0  0  0  0  0  0
  150.0097  137.7012  156.3594 C   0  0  0  0  0  0  0  0  0  0  0  0
  149.9374  137.6343  154.9535 C   0  0  0  0  0  0  0  0  0  0  0  0
  149.4529  136.4331  154.3684 N   0  0  0  0  0  0  0  0  0  0  0  0
  149.0972  135.2883  154.9765 C   0  0  0  0  0  0  0  0  0  0  0  0
  149.1624  135.0740  156.1865 O   0  0  0  0  0  0  0  0  0  0  0  0
  148.6751  134.3791  154.0853 N   0  0  0  0  0  0  0  0  0  0  0  0
  148.2159  133.0282  154.4016 C   0  0  1  0  0  0  0  0  0  0  0  0
  146.9401  133.1555  155.2488 C   0  0  0  0  0  0  0  0  0  0  0  0
  148.0518  132.2290  153.0845 C   0  0  0  0  0  0  0  0  0  0  0  0
  146.7763  132.3867  152.3792 N   0  0  0  0  0  0  0  0  0  0  0  0
  146.2723  131.0947  151.9202 C   0  0  0  0  0  0  0  0  0  0  0  0
  144.9296  131.2263  151.1806 C   0  0  0  0  0  0  0  0  0  0  0  0
  145.0768  132.1173  150.0805 O   0  0  0  0  0  0  0  0  0  0  0  0
  145.5333  133.4054  150.4783 C   0  0  0  0  0  0  0  0  0  0  0  0
  146.8758  133.2719  151.2183 C   0  0  0  0  0  0  0  0  0  0  0  0
  150.3893  138.7567  154.2169 C   0  0  0  0  0  0  0  0  0  0  0  0
  150.8631  139.8813  154.7947 N   0  0  0  0  0  0  0  0  0  0  0  0
  152.1196  142.0029  158.4449 H   0  0  0  0  0  0  0  0  0  0  0  0
  152.5705  140.3083  158.2877 H   0  0  0  0  0  0  0  0  0  0  0  0
  150.9142  140.7576  158.7531 H   0  0  0  0  0  0  0  0  0  0  0  0
  150.5602  138.9481  158.0434 H   0  0  0  0  0  0  0  0  0  0  0  0
  149.6898  136.8680  156.9681 H   0  0  0  0  0  0  0  0  0  0  0  0
  149.4196  136.4274  153.3596 H   0  0  0  0  0  0  0  0  0  0  0  0
  148.6638  134.6421  153.1108 H   0  0  0  0  0  0  0  0  0  0  0  0
  148.9761  132.5424  155.0163 H   0  0  0  0  0  0  0  0  0  0  0  0
  146.7024  132.2216  155.7554 H   0  0  0  0  0  0  0  0  0  0  0  0
  146.0831  133.4516  154.6432 H   0  0  0  0  0  0  0  0  0  0  0  0
  147.0648  133.9019  156.0343 H   0  0  0  0  0  0  0  0  0  0  0  0
  148.8841  132.4326  152.4090 H   0  0  0  0  0  0  0  0  0  0  0  0
  148.1586  131.1765  153.3519 H   0  0  0  0  0  0  0  0  0  0  0  0
  147.0036  130.6236  151.2610 H   0  0  0  0  0  0  0  0  0  0  0  0
  146.1425  130.4244  152.7709 H   0  0  0  0  0  0  0  0  0  0  0  0
  144.6028  130.2543  150.8109 H   0  0  0  0  0  0  0  0  0  0  0  0
  144.1525  131.5923  151.8533 H   0  0  0  0  0  0  0  0  0  0  0  0
  145.6493  134.0306  149.5930 H   0  0  0  0  0  0  0  0  0  0  0  0
  144.7873  133.8843  151.1144 H   0  0  0  0  0  0  0  0  0  0  0  0
  147.2059  134.2645  151.5086 H   0  0  0  0  0  0  0  0  0  0  0  0
  147.6270  132.8898  150.5254 H   0  0  0  0  0  0  0  0  0  0  0  0
  150.4008  138.7678  153.1386 H   0  0  0  0  0  0  0  0  0  0  0  0
  1  2  1  0  0  0  0
  1 22  1  0  0  0  0
  1 23  1  0  0  0  0
  1 24  1  0  0  0  0
  2  3  1  0  0  0  0
  3 21  1  0  0  0  0
  3  4  2  0  0  0  0
  4  5  1  0  0  0  0
  4 25  1  0  0  0  0
  5  6  2  0  0  0  0
  5 26  1  0  0  0  0
  6  7  1  0  0  0  0
  6 20  1  0  0  0  0
  7  8  1  0  0  0  0
  7 27  1  0  0  0  0
  8  9  2  0  0  0  0
  8 10  1  0  0  0  0
 10 11  1  0  0  0  0
 10 28  1  0  0  0  0
 11 12  1  0  0  0  0
 11 13  1  0  0  0  0
 11 29  1  0  0  0  0
 12 30  1  0  0  0  0
 12 31  1  0  0  0  0
 12 32  1  0  0  0  0
 13 14  1  0  0  0  0
 13 33  1  0  0  0  0
 13 34  1  0  0  0  0
 14 19  1  0  0  0  0
 14 15  1  0  0  0  0
 15 16  1  0  0  0  0
 15 35  1  0  0  0  0
 15 36  1  0  0  0  0
 16 17  1  0  0  0  0
 16 37  1  0  0  0  0
 16 38  1  0  0  0  0
 17 18  1  0  0  0  0
 18 19  1  0  0  0  0
 18 39  1  0  0  0  0
 18 40  1  0  0  0  0
 19 41  1  0  0  0  0
 19 42  1  0  0  0  0
 20 21  2  0  0  0  0
 20 43  1  0  0  0  0
M  END
> <s_m_source_file>
AV-unprocessed.smi

> <i_m_source_file_index>
1269

> <i_lp_mmshare_version>
43012

> <i_f3d_flags>
0

> <s_epik_input>
W0NIM11PYzFbY0hdW2NIXWMoW2NIXW4xKVtOSF1DKD1PKVtOSF1bQ0BIXShbQ0gzXSlbQ0gyXU4yW0NIMl1bQ0gyXU9bQ0gyXVtDSDJdMg==

> <s_epik_cmdline>
J2VwaWtfcHl0aG9uJywgJy1waCcsICc3LjAnLCAnLXRuJywgJzgnLCAnLW1hJywgJzIwMCcsICctbWV0YWxfYmluZGluZycsICctaW1hZScsICc8aW5maWxlLm1hZT4nLCAnLW9tYWUnLCAnPG91dGZpbGUubWFlPic=

> <r_lp_tautomer_probability>
1

> <r_epik_Ionization_Penalty>
0.266086

> <r_epik_Ionization_Penalty_Charging>
0

> <r_epik_Ionization_Penalty_Neutral>
0.266086

> <r_epik_State_Penalty>
0.257924

> <r_epik_Charging_Adjusted_Penalty>
0.257924

> <i_epik_Tot_Q>
0

> <i_epik_Tot_abs_Q>
0

> <r_epik_Metal_State_Penalty>
0.25792

> <b_epik_Metal_Only>
0

> <s_lp_Force_Field>
OPLS_2005

> <r_lp_Energy>
29.6845

> <b_lp_Chiralities_Consistent>
1

> <s_lp_Variant>
AV-unprocessed.smi:1269-2

> <Gold.Version>
5.8.1

> <Gold.Id.Protein>
6NUR|6NUR_protein|mol2

> <Gold.PLP.Fitness>
38.0194

> <Gold.PLP.PLP>
-28.6133

> <Gold.PLP.part.hbond>
-3.0000

> <Gold.PLP.part.metal>
0.0000

> <Gold.PLP.part.buried>
-4.9200

> <Gold.PLP.part.nonpolar>
-21.0114

> <Gold.PLP.part.repulsive>
0.3909

> <Gold.PLP.ligand.clash>
0.0000

> <Gold.PLP.ligand.torsion>
1.1410

> <Gold.PLP.Chemscore.Hbond>
2.8800

> <Gold.PLP.Chemscore.CHOScore>
1.0000

> <Gold.PLP.Chemscore.Metal>
0.0000

> <Gold.Chemscore.Hbonds>
donor molecule, donor type, donor heavy atom, donor atom, acceptor molecule, acceptor atom, score
      L1  H     7    27       P1  7948  1.00
      L1  H    10    28       P1  7948  0.86
      P1  H  7989  7998       L1    21  1.00
      L1  C    20    43       P1  7957  1.00

> <Gold.PLP.Chemscore.Internal.Correction>
0.0481

> <Gold.Rescore>
     Score         DG    S(hbond)    S(metal)    S(lipo)     H(rot)  DE(clash)    DE(int)     intcor
     12.81     -15.36       1.82        0.00      70.01       1.72       0.12       2.43       ----

> <Gold.Chemscore.Fitness>
12.8063

> <Gold.Chemscore.DG>
-15.3590

> <Gold.Chemscore.ZeroCoef>
-5.4800

> <Gold.Chemscore.Hbond>
1.8229

> <Gold.Chemscore.Metal>
0.0000

> <Gold.Chemscore.Lipo>
70.0077

> <Gold.Chemscore.Internal_Hbond>
0.0000

> <Gold.Chemscore.DEClash>
0.1239

> <Gold.Chemscore.DEInternal>
2.4288

> <Gold.Chemscore.Rot>
1.7189

> <Gold.Chemscore.Internal.Correction>
   9.000000E+99

> <Gold.Chemscore.Hbonds>
donor molecule, donor type, donor heavy atom, donor atom, acceptor molecule, acceptor atom, score
      L1  H     7    27       P1  7948  0.71
      L1  H    10    28       P1  7948  0.21
      P1  H  7989  7998       L1    21  0.60

> <Gold.Chemscore.Hbond.Weighted>
-6.0886

> <Gold.Chemscore.Metal.Weighted>
-0.0000

> <Gold.Chemscore.Lipo.Weighted>
-8.1909

> <Gold.Chemscore.Internal_Hbond.Weighted>
0.0000

> <Gold.Chemscore.DEClash.Weighted>
0.1239

> <Gold.Chemscore.DEInternal.Weighted>
2.4288

> <Gold.Chemscore.Rot.Weighted>
4.4004

> <Gold.Chemscore.Internal.Correction.Weighted>
   9.000000E+99

> <Gold.Protein.RotatedTorsions>
[ 6907 6896 6895 6894 ] final   26.81 input  -60.11 | X-H torsion
[ 7974 7965 7964 7962 ] final  -91.59 input  175.53 | X-H torsion
[ 8008 7997 7996 7995 ] final   97.92 input   59.86 | X-H torsion
[ 10167 10162 10161 10158 ] final  106.79 input  -65.29 | X-H torsion
[ 10718 10713 10712 10709 ] final  -13.17 input   66.30 | X-H torsion
[ 10763 10752 10751 10750 ] final  113.66 input  -60.55 | X-H torsion
[ 11005 11000 10999 10996 ] final -117.18 input  -57.11 | X-H torsion

> <Gold.Protein.ActiveResidues>
 VAL166  LYS551  ARG553  GLY616  TRP617  ASP618  TYR619  PRO620  LYS621  CYS622 
 ASP623  PHE694  ASN695  SER759  ASP760  ASP761  ALA762  ILE779  LEU786  VAL792 
 PHE793  MET794  SER795  GLU796  ALA797  LYS798  CYS799  TRP800  GLU811  SER814 

> <Gold.Protein.RotatedAtoms>
  151.9930  134.9969  160.0562 H   0  0  0  0  0  0  0  0  0  0  0  0  # atno 6907 bound_to 6896
  152.1590  133.4565  159.4860 H   0  0  0  0  0  0  0  0  0  0  0  0  # atno 6908 bound_to 6896
  150.6885  134.2012  159.4366 H   0  0  0  0  0  0  0  0  0  0  0  0  # atno 6909 bound_to 6896
  145.4112  140.9545  143.2233 H   0  0  0  0  0  0  0  0  0  0  0  0  # atno 7974 bound_to 7965
  156.0951  140.3251  155.7868 H   0  0  0  0  0  0  0  0  0  0  0  0  # atno 8008 bound_to 7997
  155.4931  140.0563  157.2968 H   0  0  0  0  0  0  0  0  0  0  0  0  # atno 8009 bound_to 7997
  154.4662  140.1990  156.0129 H   0  0  0  0  0  0  0  0  0  0  0  0  # atno 8010 bound_to 7997
  139.6980  144.7098  151.1234 H   0  0  0  0  0  0  0  0  0  0  0  0  # atno 10167 bound_to 10162
  156.6341  130.4910  149.6118 H   0  0  0  0  0  0  0  0  0  0  0  0  # atno 10718 bound_to 10713
  153.4958  135.3648  155.2515 H   0  0  0  0  0  0  0  0  0  0  0  0  # atno 10763 bound_to 10752
  154.8750  135.3988  154.3535 H   0  0  0  0  0  0  0  0  0  0  0  0  # atno 10764 bound_to 10752
  153.4163  135.7079  153.6390 H   0  0  0  0  0  0  0  0  0  0  0  0  # atno 10765 bound_to 10752
  141.0372  133.9892  157.3052 H   0  0  0  0  0  0  0  0  0  0  0  0  # atno 11005 bound_to 11000
  144.8308  139.5632  143.6944 LP  0  0  0  0  0  0  0  0  0  0  0  0  # atno 17320 bound_to 7965
  146.2704  139.6621  142.9300 LP  0  0  0  0  0  0  0  0  0  0  0  0  # atno 17321 bound_to 7965
  140.7702  143.5464  150.9254 LP  0  0  0  0  0  0  0  0  0  0  0  0  # atno 17342 bound_to 10162
  139.9144  143.6681  152.3109 LP  0  0  0  0  0  0  0  0  0  0  0  0  # atno 17343 bound_to 10162
  156.2211  130.6737  151.1369 LP  0  0  0  0  0  0  0  0  0  0  0  0  # atno 17370 bound_to 10713
  157.7191  131.0692  150.6209 LP  0  0  0  0  0  0  0  0  0  0  0  0  # atno 17371 bound_to 10713
  139.9249  135.0201  156.8198 LP  0  0  0  0  0  0  0  0  0  0  0  0  # atno 17394 bound_to 11000
  140.6301  133.9914  155.7658 LP  0  0  0  0  0  0  0  0  0  0  0  0  # atno 17395 bound_to 11000

$$$$
