AV-unprocessed.smi:3111|AV-procd|sdf|11835|dock9
  -GOLD-   2272017213D 1   1.00000     0.00000
 Structure written by MMmdl.
 30 30  0  0  0  0  0  0  0  0  2 V2000
  155.2795  137.9790  163.9398 C   0  0  0  0  0  0  0  0  0  0  0  0
  155.1155  138.6605  162.6649 N   0  0  0  0  0  0  0  0  0  0  0  0
  155.5365  139.9084  162.4165 C   0  0  0  0  0  0  0  0  0  0  0  0
  156.1171  140.6018  163.2541 O   0  0  0  0  0  0  0  0  0  0  0  0
  155.2660  140.4383  161.0015 C   0  0  0  0  0  0  0  0  0  0  0  0
  154.2280  141.4657  160.9676 N   0  0  0  0  0  0  0  0  0  0  0  0
  153.1498  141.4501  160.1674 C   0  0  0  0  0  0  0  0  0  0  0  0
  152.9514  140.5779  159.3208 O   0  0  0  0  0  0  0  0  0  0  0  0
  152.1297  142.5787  160.3827 C   0  0  1  0  0  0  0  0  0  0  0  0
  152.4974  143.5066  161.5565 C   0  0  0  0  0  0  0  0  0  0  0  0
  151.9296  143.3343  159.1346 N   0  0  0  0  0  0  0  0  0  0  0  0
  152.8492  144.1279  158.4960 C   0  0  0  0  0  0  0  0  0  0  0  0
  152.2248  144.6413  157.3884 C   0  0  0  0  0  0  0  0  0  0  0  0
  150.9505  144.1420  157.3951 N   0  3  0  0  0  0  0  0  0  0  0  0
  150.7720  143.3483  158.4556 C   0  0  0  0  0  0  0  0  0  0  0  0
  154.8596  136.9748  163.8814 H   0  0  0  0  0  0  0  0  0  0  0  0
  154.7660  138.5177  164.7371 H   0  0  0  0  0  0  0  0  0  0  0  0
  156.3349  137.8921  164.2014 H   0  0  0  0  0  0  0  0  0  0  0  0
  154.6514  138.1524  161.9258 H   0  0  0  0  0  0  0  0  0  0  0  0
  156.1872  140.8706  160.6101 H   0  0  0  0  0  0  0  0  0  0  0  0
  155.0010  139.6113  160.3401 H   0  0  0  0  0  0  0  0  0  0  0  0
  154.3137  142.2175  161.6360 H   0  0  0  0  0  0  0  0  0  0  0  0
  151.1730  142.1115  160.6234 H   0  0  0  0  0  0  0  0  0  0  0  0
  152.6122  142.9424  162.4828 H   0  0  0  0  0  0  0  0  0  0  0  0
  151.7167  144.2495  161.7226 H   0  0  0  0  0  0  0  0  0  0  0  0
  153.4299  144.0433  161.3780 H   0  0  0  0  0  0  0  0  0  0  0  0
  153.8539  144.2677  158.8677 H   0  0  0  0  0  0  0  0  0  0  0  0
  152.5821  145.3082  156.6173 H   0  0  0  0  0  0  0  0  0  0  0  0
  149.8682  142.8267  158.7166 H   0  0  0  0  0  0  0  0  0  0  0  0
  150.2418  144.3452  156.7011 H   0  0  0  0  0  0  0  0  0  0  0  0
  1  2  1  0  0  0  0
  1 16  1  0  0  0  0
  1 17  1  0  0  0  0
  1 18  1  0  0  0  0
  2  3  1  0  0  0  0
  2 19  1  0  0  0  0
  3  4  2  0  0  0  0
  3  5  1  0  0  0  0
  5  6  1  0  0  0  0
  5 20  1  0  0  0  0
  5 21  1  0  0  0  0
  6  7  1  0  0  0  0
  6 22  1  0  0  0  0
  7  8  2  0  0  0  0
  7  9  1  0  0  0  0
  9 10  1  0  0  0  0
  9 11  1  0  0  0  0
  9 23  1  0  0  0  0
 10 24  1  0  0  0  0
 10 25  1  0  0  0  0
 10 26  1  0  0  0  0
 11 15  1  0  0  0  0
 11 12  1  0  0  0  0
 12 13  2  0  0  0  0
 12 27  1  0  0  0  0
 13 14  1  0  0  0  0
 13 28  1  0  0  0  0
 14 15  2  0  0  0  0
 14 30  1  0  0  0  0
 15 29  1  0  0  0  0
M  CHG  1  14   1
M  END
> <s_m_source_file>
AV-unprocessed.smi

> <i_m_source_file_index>
3111

> <i_lp_mmshare_version>
43012

> <i_f3d_flags>
0

> <s_epik_input>
W0NIM11bTkhdQyg9TylbQ0gyXVtOSF1DKD1PKVtDQEhdKFtDSDNdKW4xW2NIXVtjSF1uW2NIXTE=

> <s_epik_cmdline>
J2VwaWtfcHl0aG9uJywgJy1waCcsICc3LjAnLCAnLXRuJywgJzgnLCAnLW1hJywgJzIwMCcsICctbWV0YWxfYmluZGluZycsICctaW1hZScsICc8aW5maWxlLm1hZT4nLCAnLW9tYWUnLCAnPG91dGZpbGUubWFlPic=

> <r_lp_tautomer_probability>
1

> <r_epik_Ionization_Penalty>
0.581414

> <r_epik_Ionization_Penalty_Charging>
0

> <r_epik_Ionization_Penalty_Neutral>
0.581414

> <r_epik_State_Penalty>
0.594207

> <r_epik_Charging_Adjusted_Penalty>
0.594207

> <i_epik_Tot_Q>
1

> <i_epik_Tot_abs_Q>
1

> <r_epik_Metal_State_Penalty>
0.784638

> <b_epik_Metal_Only>
0

> <s_lp_Force_Field>
OPLS_2005

> <r_lp_Energy>
5.66591

> <b_lp_Chiralities_Consistent>
1

> <s_lp_Variant>
AV-unprocessed.smi:3111-4

> <Gold.Version>
5.8.1

> <Gold.Id.Protein>
6NUR|6NUR_protein|mol2

> <Gold.PLP.Fitness>
39.6239

> <Gold.PLP.PLP>
-34.3172

> <Gold.PLP.part.hbond>
-2.2564

> <Gold.PLP.part.metal>
0.0000

> <Gold.PLP.part.buried>
-5.2303

> <Gold.PLP.part.nonpolar>
-26.9848

> <Gold.PLP.part.repulsive>
0.0467

> <Gold.PLP.ligand.clash>
0.3635

> <Gold.PLP.ligand.torsion>
0.2132

> <Gold.PLP.Chemscore.Hbond>
2.0000

> <Gold.PLP.Chemscore.CHOScore>
0.0000

> <Gold.PLP.Chemscore.Metal>
0.0000

> <Gold.Chemscore.Hbonds>
donor molecule, donor type, donor heavy atom, donor atom, acceptor molecule, acceptor atom, score
      L1  H    14    30       P1  8028  2.00

> <Gold.PLP.Chemscore.Internal.Correction>
0.0965

> <Gold.Rescore>
     Score         DG    S(hbond)    S(metal)    S(lipo)     H(rot)  DE(clash)    DE(int)     intcor
     10.30     -10.62       0.99        0.00      66.76       2.33       0.03       0.29       ----

> <Gold.Chemscore.Fitness>
10.3050

> <Gold.Chemscore.DG>
-10.6244

> <Gold.Chemscore.ZeroCoef>
-5.4800

> <Gold.Chemscore.Hbond>
0.9885

> <Gold.Chemscore.Metal>
0.0000

> <Gold.Chemscore.Lipo>
66.7556

> <Gold.Chemscore.Internal_Hbond>
0.0000

> <Gold.Chemscore.DEClash>
0.0336

> <Gold.Chemscore.DEInternal>
0.2859

> <Gold.Chemscore.Rot>
2.3311

> <Gold.Chemscore.Internal.Correction>
   9.000000E+99

> <Gold.Chemscore.Hbonds>
donor molecule, donor type, donor heavy atom, donor atom, acceptor molecule, acceptor atom, score
      L1  H    14    30       P1  8028  0.97

> <Gold.Chemscore.Hbond.Weighted>
-3.3016

> <Gold.Chemscore.Metal.Weighted>
-0.0000

> <Gold.Chemscore.Lipo.Weighted>
-7.8104

> <Gold.Chemscore.Internal_Hbond.Weighted>
0.0000

> <Gold.Chemscore.DEClash.Weighted>
0.0336

> <Gold.Chemscore.DEInternal.Weighted>
0.2859

> <Gold.Chemscore.Rot.Weighted>
5.9676

> <Gold.Chemscore.Internal.Correction.Weighted>
   9.000000E+99

> <Gold.Protein.RotatedTorsions>
[ 6907 6896 6895 6894 ] final  104.49 input  -60.11 | X-H torsion
[ 7974 7965 7964 7962 ] final -131.72 input  175.53 | X-H torsion
[ 8008 7997 7996 7995 ] final -108.08 input   59.86 | X-H torsion
[ 10167 10162 10161 10158 ] final  109.17 input  -65.29 | X-H torsion
[ 10718 10713 10712 10709 ] final -129.40 input   66.30 | X-H torsion
[ 10763 10752 10751 10750 ] final  -51.59 input  -60.55 | X-H torsion
[ 11005 11000 10999 10996 ] final  158.94 input  -57.11 | X-H torsion

> <Gold.Protein.ActiveResidues>
 VAL166  LYS551  ARG553  GLY616  TRP617  ASP618  TYR619  PRO620  LYS621  CYS622 
 ASP623  PHE694  ASN695  SER759  ASP760  ASP761  ALA762  ILE779  LEU786  VAL792 
 PHE793  MET794  SER795  GLU796  ALA797  LYS798  CYS799  TRP800  GLU811  SER814 

> <Gold.Protein.RotatedAtoms>
  152.5262  133.9668  159.7743 H   0  0  0  0  0  0  0  0  0  0  0  0  # atno 6907 bound_to 6896
  150.9948  133.6106  159.2710 H   0  0  0  0  0  0  0  0  0  0  0  0  # atno 6908 bound_to 6896
  151.3236  135.0831  159.9367 H   0  0  0  0  0  0  0  0  0  0  0  0  # atno 6909 bound_to 6896
  144.9352  140.7175  143.4881 H   0  0  0  0  0  0  0  0  0  0  0  0  # atno 7974 bound_to 7965
  154.9389  140.0403  157.2087 H   0  0  0  0  0  0  0  0  0  0  0  0  # atno 8008 bound_to 7997
  154.8088  140.2864  155.5846 H   0  0  0  0  0  0  0  0  0  0  0  0  # atno 8009 bound_to 7997
  156.2969  140.2541  156.2971 H   0  0  0  0  0  0  0  0  0  0  0  0  # atno 8010 bound_to 7997
  139.6787  144.7120  151.1554 H   0  0  0  0  0  0  0  0  0  0  0  0  # atno 10167 bound_to 10162
  156.2043  130.6877  151.0575 H   0  0  0  0  0  0  0  0  0  0  0  0  # atno 10718 bound_to 10713
  154.1291  135.6523  153.4918 H   0  0  0  0  0  0  0  0  0  0  0  0  # atno 10763 bound_to 10752
  153.0201  135.5288  154.7019 H   0  0  0  0  0  0  0  0  0  0  0  0  # atno 10764 bound_to 10752
  154.6249  135.2969  155.0254 H   0  0  0  0  0  0  0  0  0  0  0  0  # atno 10765 bound_to 10752
  140.1913  134.8405  157.2915 H   0  0  0  0  0  0  0  0  0  0  0  0  # atno 11005 bound_to 11000
  145.3078  139.1829  143.4655 LP  0  0  0  0  0  0  0  0  0  0  0  0  # atno 17320 bound_to 7965
  146.3263  140.3078  142.8625 LP  0  0  0  0  0  0  0  0  0  0  0  0  # atno 17321 bound_to 7965
  140.7645  143.5732  150.8974 LP  0  0  0  0  0  0  0  0  0  0  0  0  # atno 17342 bound_to 10162
  139.9402  143.6390  152.3055 LP  0  0  0  0  0  0  0  0  0  0  0  0  # atno 17343 bound_to 10162
  157.7003  131.0778  150.6841 LP  0  0  0  0  0  0  0  0  0  0  0  0  # atno 17370 bound_to 10713
  156.6899  130.4592  149.5603 LP  0  0  0  0  0  0  0  0  0  0  0  0  # atno 17371 bound_to 10713
  140.2156  134.4085  155.7591 LP  0  0  0  0  0  0  0  0  0  0  0  0  # atno 17394 bound_to 11000
  141.2226  133.7140  156.8408 LP  0  0  0  0  0  0  0  0  0  0  0  0  # atno 17395 bound_to 11000

$$$$
