AV-unprocessed.smi:1360|AV-procd|sdf|5553|dock6
  -GOLD-   22720 5143D 1   1.00000     0.00000
 Structure written by MMmdl.
 36 37  0  0  0  0  0  0  0  0  1 V2000
  153.3671  137.2497  160.0170 C   0  0  0  0  0  0  0  0  0  0  0  0
  152.5726  137.7082  158.7830 C   0  0  2  0  0  0  0  0  0  0  0  0
  153.3600  137.5605  157.4621 C   0  0  0  0  0  0  0  0  0  0  0  0
  152.5895  137.9503  156.2949 N   0  0  0  0  0  0  0  0  0  0  0  0
  152.1376  139.2058  155.9460 C   0  0  0  0  0  0  0  0  0  0  0  0
  151.4574  139.0798  154.7687 C   0  0  0  0  0  0  0  0  0  0  0  0
  151.5436  137.6899  154.4758 C   0  0  0  0  0  0  0  0  0  0  0  0
  152.2198  137.0164  155.3922 N   0  0  0  0  0  0  0  0  0  0  0  0
  152.1606  139.0965  158.9693 N   0  0  0  0  0  0  0  0  0  0  0  0
  152.9896  140.1441  159.1019 C   0  0  0  0  0  0  0  0  0  0  0  0
  154.2165  140.0397  159.0891 O   0  0  0  0  0  0  0  0  0  0  0  0
  152.3324  141.5204  159.2732 C   0  0  1  0  0  0  0  0  0  0  0  0
  153.3866  142.6161  159.5562 C   0  0  0  0  0  0  0  0  0  0  0  0
  152.7988  144.0138  159.4702 C   0  0  0  0  0  0  0  0  0  0  0  0
  151.6157  144.2841  158.8923 C   0  0  0  0  0  0  0  0  0  0  0  0
  150.7348  143.2231  158.2567 C   0  0  0  0  0  0  0  0  0  0  0  0
  151.4843  141.8943  158.0412 C   0  0  0  0  0  0  0  0  0  0  0  0
  153.6132  136.1890  159.9634 H   0  0  0  0  0  0  0  0  0  0  0  0
  152.7917  137.3994  160.9311 H   0  0  0  0  0  0  0  0  0  0  0  0
  154.3008  137.8040  160.1160 H   0  0  0  0  0  0  0  0  0  0  0  0
  151.6777  137.0853  158.7258 H   0  0  0  0  0  0  0  0  0  0  0  0
  154.2676  138.1656  157.4882 H   0  0  0  0  0  0  0  0  0  0  0  0
  153.6806  136.5262  157.3298 H   0  0  0  0  0  0  0  0  0  0  0  0
  152.3384  140.0747  156.5555 H   0  0  0  0  0  0  0  0  0  0  0  0
  150.9713  139.8610  154.2036 H   0  0  0  0  0  0  0  0  0  0  0  0
  151.1372  137.1541  153.6308 H   0  0  0  0  0  0  0  0  0  0  0  0
  151.1674  139.2758  158.9936 H   0  0  0  0  0  0  0  0  0  0  0  0
  151.6600  141.4715  160.1322 H   0  0  0  0  0  0  0  0  0  0  0  0
  153.8048  142.4763  160.5536 H   0  0  0  0  0  0  0  0  0  0  0  0
  154.2186  142.5600  158.8530 H   0  0  0  0  0  0  0  0  0  0  0  0
  153.3866  144.8164  159.8910 H   0  0  0  0  0  0  0  0  0  0  0  0
  151.2458  145.2988  158.8751 H   0  0  0  0  0  0  0  0  0  0  0  0
  149.8729  143.0685  158.9061 H   0  0  0  0  0  0  0  0  0  0  0  0
  150.3532  143.5931  157.3049 H   0  0  0  0  0  0  0  0  0  0  0  0
  152.1324  141.9877  157.1683 H   0  0  0  0  0  0  0  0  0  0  0  0
  150.7686  141.1044  157.8092 H   0  0  0  0  0  0  0  0  0  0  0  0
  1  2  1  0  0  0  0
  1 18  1  0  0  0  0
  1 19  1  0  0  0  0
  1 20  1  0  0  0  0
  2  3  1  0  0  0  0
  2  9  1  0  0  0  0
  2 21  1  0  0  0  0
  3  4  1  0  0  0  0
  3 22  1  0  0  0  0
  3 23  1  0  0  0  0
  4  8  1  0  0  0  0
  4  5  1  0  0  0  0
  5  6  2  0  0  0  0
  5 24  1  0  0  0  0
  6  7  1  0  0  0  0
  6 25  1  0  0  0  0
  7  8  2  0  0  0  0
  7 26  1  0  0  0  0
  9 10  1  0  0  0  0
  9 27  1  0  0  0  0
 10 11  2  0  0  0  0
 10 12  1  0  0  0  0
 12 17  1  0  0  0  0
 12 13  1  0  0  0  0
 12 28  1  0  0  0  0
 13 14  1  0  0  0  0
 13 29  1  0  0  0  0
 13 30  1  0  0  0  0
 14 15  2  0  0  0  0
 14 31  1  0  0  0  0
 15 16  1  0  0  0  0
 15 32  1  0  0  0  0
 16 17  1  0  0  0  0
 16 33  1  0  0  0  0
 16 34  1  0  0  0  0
 17 35  1  0  0  0  0
 17 36  1  0  0  0  0
M  END
> <s_m_source_file>
AV-unprocessed.smi

> <i_m_source_file_index>
1360

> <i_lp_mmshare_version>
43012

> <i_f3d_flags>
0

> <s_epik_input>
bjFbY0hdW2NIXVtjSF1uMVtDSDJdW0NAQEhdKFtDSDNdKVtOSF1DKD1PKVtDQEBIXTJbQ0gyXVtDSF09W0NIXVtDSDJdW0NIMl0y

> <s_epik_cmdline>
J2VwaWtfcHl0aG9uJywgJy1waCcsICc3LjAnLCAnLXRuJywgJzgnLCAnLW1hJywgJzIwMCcsICctbWV0YWxfYmluZGluZycsICctaW1hZScsICc8aW5maWxlLm1hZT4nLCAnLW9tYWUnLCAnPG91dGZpbGUubWFlPic=

> <r_lp_tautomer_probability>
1

> <r_epik_Ionization_Penalty>
0.000315076

> <r_epik_Ionization_Penalty_Charging>
0

> <r_epik_Ionization_Penalty_Neutral>
0.000315076

> <r_epik_State_Penalty>
-0

> <r_epik_Charging_Adjusted_Penalty>
0

> <i_epik_Tot_Q>
0

> <i_epik_Tot_abs_Q>
0

> <r_epik_Metal_State_Penalty>
-0

> <b_epik_Metal_Only>
0

> <s_lp_Force_Field>
OPLS_2005

> <r_lp_Energy>
8.32294

> <b_lp_Chiralities_Consistent>
1

> <s_lp_Variant>
AV-unprocessed.smi:1360-3

> <Gold.Version>
5.8.1

> <Gold.Id.Protein>
6NUR|6NUR_protein|mol2

> <Gold.PLP.Fitness>
43.7631

> <Gold.PLP.PLP>
-34.6404

> <Gold.PLP.part.hbond>
-2.0000

> <Gold.PLP.part.metal>
0.0000

> <Gold.PLP.part.buried>
-3.8697

> <Gold.PLP.part.nonpolar>
-28.9574

> <Gold.PLP.part.repulsive>
0.1547

> <Gold.PLP.ligand.clash>
0.0000

> <Gold.PLP.ligand.torsion>
0.0964

> <Gold.PLP.Chemscore.Hbond>
1.9760

> <Gold.PLP.Chemscore.CHOScore>
1.1151

> <Gold.PLP.Chemscore.Metal>
0.0000

> <Gold.Chemscore.Hbonds>
donor molecule, donor type, donor heavy atom, donor atom, acceptor molecule, acceptor atom, score
      P1  H  7997  8008       L1    11  1.00
      P1  H 10752 10765       L1     8  0.90
      L1  C     7    26       P1  7948  0.01
      L1  C     7    26       P1  7949  1.00

> <Gold.PLP.Chemscore.Internal.Correction>
0.0421

> <Gold.Rescore>
     Score         DG    S(hbond)    S(metal)    S(lipo)     H(rot)  DE(clash)    DE(int)     intcor
     17.84     -19.91       1.88        0.00     102.63       1.51       0.21       1.87       ----

> <Gold.Chemscore.Fitness>
17.8357

> <Gold.Chemscore.DG>
-19.9124

> <Gold.Chemscore.ZeroCoef>
-5.4800

> <Gold.Chemscore.Hbond>
1.8801

> <Gold.Chemscore.Metal>
0.0000

> <Gold.Chemscore.Lipo>
102.6276

> <Gold.Chemscore.Internal_Hbond>
0.0000

> <Gold.Chemscore.DEClash>
0.2111

> <Gold.Chemscore.DEInternal>
1.8656

> <Gold.Chemscore.Rot>
1.5057

> <Gold.Chemscore.Internal.Correction>
   9.000000E+99

> <Gold.Chemscore.Hbonds>
donor molecule, donor type, donor heavy atom, donor atom, acceptor molecule, acceptor atom, score
      P1  H  7997  8008       L1    11  0.86
      P1  H 10752 10765       L1     8  0.75

> <Gold.Chemscore.Hbond.Weighted>
-6.2796

> <Gold.Chemscore.Metal.Weighted>
-0.0000

> <Gold.Chemscore.Lipo.Weighted>
-12.0074

> <Gold.Chemscore.Internal_Hbond.Weighted>
0.0000

> <Gold.Chemscore.DEClash.Weighted>
0.2111

> <Gold.Chemscore.DEInternal.Weighted>
1.8656

> <Gold.Chemscore.Rot.Weighted>
3.8546

> <Gold.Chemscore.Internal.Correction.Weighted>
   9.000000E+99

> <Gold.Protein.RotatedTorsions>
[ 6907 6896 6895 6894 ] final  -55.70 input  -60.11 | X-H torsion
[ 7974 7965 7964 7962 ] final -106.64 input  175.53 | X-H torsion
[ 8008 7997 7996 7995 ] final -115.72 input   59.86 | X-H torsion
[ 10167 10162 10161 10158 ] final  -88.63 input  -65.29 | X-H torsion
[ 10718 10713 10712 10709 ] final  -40.31 input   66.30 | X-H torsion
[ 10763 10752 10751 10750 ] final -169.68 input  -60.55 | X-H torsion
[ 11005 11000 10999 10996 ] final -162.90 input  -57.11 | X-H torsion

> <Gold.Protein.ActiveResidues>
 VAL166  LYS551  ARG553  GLY616  TRP617  ASP618  TYR619  PRO620  LYS621  CYS622 
 ASP623  PHE694  ASN695  SER759  ASP760  ASP761  ALA762  ILE779  LEU786  VAL792 
 PHE793  MET794  SER795  GLU796  ALA797  LYS798  CYS799  TRP800  GLU811  SER814 

> <Gold.Protein.RotatedAtoms>
  150.8229  134.7446  159.6787 H   0  0  0  0  0  0  0  0  0  0  0  0  # atno 6907 bound_to 6896
  152.4343  134.5713  159.9932 H   0  0  0  0  0  0  0  0  0  0  0  0  # atno 6908 bound_to 6896
  151.5893  133.3331  159.3060 H   0  0  0  0  0  0  0  0  0  0  0  0  # atno 6909 bound_to 6896
  145.2153  140.9113  143.3290 H   0  0  0  0  0  0  0  0  0  0  0  0  # atno 7974 bound_to 7965
  155.0565  140.0393  157.2562 H   0  0  0  0  0  0  0  0  0  0  0  0  # atno 8008 bound_to 7997
  154.7095  140.2690  155.6619 H   0  0  0  0  0  0  0  0  0  0  0  0  # atno 8009 bound_to 7997
  156.2785  140.2724  156.1731 H   0  0  0  0  0  0  0  0  0  0  0  0  # atno 8010 bound_to 7997
  140.3728  143.2786  151.9480 H   0  0  0  0  0  0  0  0  0  0  0  0  # atno 10167 bound_to 10162
  156.2827  130.4219  149.8320 H   0  0  0  0  0  0  0  0  0  0  0  0  # atno 10718 bound_to 10713
  154.6496  135.2909  155.0003 H   0  0  0  0  0  0  0  0  0  0  0  0  # atno 10763 bound_to 10752
  154.1100  135.6564  153.4887 H   0  0  0  0  0  0  0  0  0  0  0  0  # atno 10764 bound_to 10752
  153.0369  135.5263  154.7399 H   0  0  0  0  0  0  0  0  0  0  0  0  # atno 10765 bound_to 10752
  140.6041  134.4917  157.5208 H   0  0  0  0  0  0  0  0  0  0  0  0  # atno 11005 bound_to 11000
  144.9817  139.3777  143.6259 LP  0  0  0  0  0  0  0  0  0  0  0  0  # atno 17320 bound_to 7965
  146.3388  139.8960  142.8801 LP  0  0  0  0  0  0  0  0  0  0  0  0  # atno 17321 bound_to 7965
  139.4802  144.5891  151.7802 LP  0  0  0  0  0  0  0  0  0  0  0  0  # atno 17342 bound_to 10162
  140.5016  144.1159  150.5972 LP  0  0  0  0  0  0  0  0  0  0  0  0  # atno 17343 bound_to 10162
  156.5761  130.8446  151.3370 LP  0  0  0  0  0  0  0  0  0  0  0  0  # atno 17370 bound_to 10713
  157.7319  130.9707  150.1903 LP  0  0  0  0  0  0  0  0  0  0  0  0  # atno 17371 bound_to 10713
  139.9220  134.8130  156.1183 LP  0  0  0  0  0  0  0  0  0  0  0  0  # atno 17394 bound_to 11000
  141.0852  133.6737  156.2421 LP  0  0  0  0  0  0  0  0  0  0  0  0  # atno 17395 bound_to 11000

$$$$
