AV-unprocessed.smi:69|AV-procd|sdf|646|dock7
  -GOLD-   2262016543D 1   1.00000     0.00000
 Structure written by MMmdl.
 32 34  0  0  0  0  0  0  0  0  1 V2000
  150.3865  134.1391  155.1997 N   0  0  0  0  0  0  0  0  0  0  0  0
  150.2163  135.4521  154.9931 C   0  0  0  0  0  0  0  0  0  0  0  0
  151.2850  136.1851  154.6024 N   0  0  0  0  0  0  0  0  0  0  0  0
  151.1402  137.4970  154.3889 C   0  0  0  0  0  0  0  0  0  0  0  0
  150.0407  138.2458  154.5060 N   0  0  0  0  0  0  0  0  0  0  0  0
  148.9632  137.5050  154.8986 C   0  0  0  0  0  0  0  0  0  0  0  0
  148.9703  136.1072  155.1627 C   0  0  0  0  0  0  0  0  0  0  0  0
  147.7014  135.6900  155.5411 N   0  0  0  0  0  0  0  0  0  0  0  0
  146.9874  136.7830  155.5013 C   0  0  0  0  0  0  0  0  0  0  0  0
  147.6647  137.9203  155.1182 N   0  0  0  0  0  0  0  0  0  0  0  0
  147.1131  139.3050  154.9692 C   0  0  1  0  0  0  0  0  0  0  0  0
  147.8443  140.1643  155.7853 O   0  0  0  0  0  0  0  0  0  0  0  0
  147.9470  141.4328  155.1503 C   0  0  1  0  0  0  0  0  0  0  0  0
  149.0900  142.2639  155.7589 C   0  0  0  0  0  0  0  0  0  0  0  0
  148.8249  142.5295  157.1198 O   0  0  0  0  0  0  0  0  0  0  0  0
  148.1060  141.0688  153.6663 C   0  0  1  0  0  0  0  0  0  0  0  0
  149.4597  140.7925  153.3491 O   0  0  0  0  0  0  0  0  0  0  0  0
  147.2046  139.8431  153.5247 C   0  0  1  0  0  0  0  0  0  0  0  0
  147.6521  138.9184  152.5458 O   0  0  0  0  0  0  0  0  0  0  0  0
  146.0850  139.2343  155.3278 H   0  0  0  0  0  0  0  0  0  0  0  0
  146.9964  141.9565  155.2703 H   0  0  0  0  0  0  0  0  0  0  0  0
  147.7747  141.8808  153.0183 H   0  0  0  0  0  0  0  0  0  0  0  0
  146.2021  140.1701  153.2453 H   0  0  0  0  0  0  0  0  0  0  0  0
  149.6040  133.5704  155.4903 H   0  0  0  0  0  0  0  0  0  0  0  0
  151.2946  133.7209  155.0600 H   0  0  0  0  0  0  0  0  0  0  0  0
  152.0312  138.0224  154.0788 H   0  0  0  0  0  0  0  0  0  0  0  0
  145.9356  136.7885  155.7474 H   0  0  0  0  0  0  0  0  0  0  0  0
  150.0500  141.7579  155.6517 H   0  0  0  0  0  0  0  0  0  0  0  0
  149.1686  143.2253  155.2502 H   0  0  0  0  0  0  0  0  0  0  0  0
  148.8009  143.4661  157.2430 H   0  0  0  0  0  0  0  0  0  0  0  0
  149.4772  140.1500  152.6561 H   0  0  0  0  0  0  0  0  0  0  0  0
  148.1956  139.3785  151.9247 H   0  0  0  0  0  0  0  0  0  0  0  0
  1  2  1  0  0  0  0
  1 24  1  0  0  0  0
  1 25  1  0  0  0  0
  2  7  1  0  0  0  0
  2  3  2  0  0  0  0
  3  4  1  0  0  0  0
  4  5  2  0  0  0  0
  4 26  1  0  0  0  0
  5  6  1  0  0  0  0
  6 10  1  0  0  0  0
  6  7  2  0  0  0  0
  7  8  1  0  0  0  0
  8  9  2  0  0  0  0
  9 10  1  0  0  0  0
  9 27  1  0  0  0  0
 10 11  1  0  0  0  0
 11 20  1  0  0  0  0
 11 18  1  0  0  0  0
 11 12  1  0  0  0  0
 12 13  1  0  0  0  0
 13 21  1  0  0  0  0
 13 14  1  0  0  0  0
 13 16  1  0  0  0  0
 14 15  1  0  0  0  0
 14 28  1  0  0  0  0
 14 29  1  0  0  0  0
 15 30  1  0  0  0  0
 16 22  1  0  0  0  0
 16 17  1  0  0  0  0
 16 18  1  0  0  0  0
 17 31  1  0  0  0  0
 18 23  1  0  0  0  0
 18 19  1  0  0  0  0
 19 32  1  0  0  0  0
M  END
> <s_m_source_file>
AV-unprocessed.smi

> <i_m_source_file_index>
69

> <i_lp_mmshare_version>
43012

> <i_f3d_flags>
0

> <s_epik_input>
bjFbY0hdbmMoW05IMl0pYyhjMTIpbltjSF1uMltDQEBIXTNPW0NASF0oW0NIMl1bT0hdKVtDQEBIXShbT0hdKVtDQEhdM1tPSF0=

> <s_epik_cmdline>
J2VwaWtfcHl0aG9uJywgJy1waCcsICc3LjAnLCAnLXRuJywgJzgnLCAnLW1hJywgJzIwMCcsICctbWV0YWxfYmluZGluZycsICctaW1hZScsICc8aW5maWxlLm1hZT4nLCAnLW9tYWUnLCAnPG91dGZpbGUubWFlPic=

> <r_lp_tautomer_probability>
1

> <r_epik_Ionization_Penalty>
0.000428445

> <r_epik_Ionization_Penalty_Charging>
0

> <r_epik_Ionization_Penalty_Neutral>
0.000428445

> <r_epik_State_Penalty>
-0

> <r_epik_Charging_Adjusted_Penalty>
0

> <i_epik_Tot_Q>
0

> <i_epik_Tot_abs_Q>
0

> <r_epik_Metal_State_Penalty>
-0

> <b_epik_Metal_Only>
0

> <s_epik_Chemistry_Notes>
This compound contains an acetal/aminal-like group ( X-CH(R)-Y where X, Y are N, S, or O) that may be acid/base labile, releasing an aldehyde.

> <s_lp_Force_Field>
OPLS_2005

> <r_lp_Energy>
45.7014

> <b_lp_Chiralities_Consistent>
1

> <s_lp_Variant>
AV-unprocessed.smi:69-4

> <Gold.Version>
5.8.1

> <Gold.Id.Protein>
6NUR|6NUR_protein|mol2

> <Gold.PLP.Fitness>
32.5272

> <Gold.PLP.PLP>
-19.9388

> <Gold.PLP.part.hbond>
-6.3721

> <Gold.PLP.part.metal>
0.0000

> <Gold.PLP.part.buried>
0.2233

> <Gold.PLP.part.nonpolar>
-14.8478

> <Gold.PLP.part.repulsive>
0.5090

> <Gold.PLP.ligand.clash>
0.0000

> <Gold.PLP.ligand.torsion>
0.0173

> <Gold.PLP.Chemscore.Hbond>
4.2068

> <Gold.PLP.Chemscore.CHOScore>
0.0000

> <Gold.PLP.Chemscore.Metal>
0.0000

> <Gold.Chemscore.Hbonds>
donor molecule, donor type, donor heavy atom, donor atom, acceptor molecule, acceptor atom, score
      L1  H    15    30       P1  8028  0.43
      L1  H    17    31       P1  7957  0.77
      L1  H    19    32       P1  7957  1.00
      P1  H  7989  7998       L1    17  0.14
      P1  H  8011  8017       L1    17  0.85
      P1  H 10752 10764       L1     3  1.00

> <Gold.PLP.Chemscore.Internal.Correction>
0.0026

> <Gold.Rescore>
     Score         DG    S(hbond)    S(metal)    S(lipo)     H(rot)  DE(clash)    DE(int)     intcor
      6.74      -8.51       2.96        0.00      29.42       4.03       1.63       0.13       ----

> <Gold.Chemscore.Fitness>
6.7410

> <Gold.Chemscore.DG>
-8.5054

> <Gold.Chemscore.ZeroCoef>
-5.4800

> <Gold.Chemscore.Hbond>
2.9624

> <Gold.Chemscore.Metal>
0.0000

> <Gold.Chemscore.Lipo>
29.4167

> <Gold.Chemscore.Internal_Hbond>
0.0000

> <Gold.Chemscore.DEClash>
1.6343

> <Gold.Chemscore.DEInternal>
0.1301

> <Gold.Chemscore.Rot>
4.0277

> <Gold.Chemscore.Internal.Correction>
   9.000000E+99

> <Gold.Chemscore.Hbonds>
donor molecule, donor type, donor heavy atom, donor atom, acceptor molecule, acceptor atom, score
      L1  H    15    30       P1  8028  0.13
      L1  H    17    31       P1  7957  0.73
      L1  H    19    32       P1  7957  1.00
      P1  H  7989  7998       L1    17  0.01
      P1  H  8011  8017       L1    17  0.04
      P1  H 10752 10764       L1     3  0.88

> <Gold.Chemscore.Hbond.Weighted>
-9.8946

> <Gold.Chemscore.Metal.Weighted>
-0.0000

> <Gold.Chemscore.Lipo.Weighted>
-3.4418

> <Gold.Chemscore.Internal_Hbond.Weighted>
0.0000

> <Gold.Chemscore.DEClash.Weighted>
1.6343

> <Gold.Chemscore.DEInternal.Weighted>
0.1301

> <Gold.Chemscore.Rot.Weighted>
10.3110

> <Gold.Chemscore.Internal.Correction.Weighted>
   9.000000E+99

> <Gold.Protein.RotatedTorsions>
[ 6907 6896 6895 6894 ] final -147.23 input  -60.11 | X-H torsion
[ 7974 7965 7964 7962 ] final -130.91 input  175.53 | X-H torsion
[ 8008 7997 7996 7995 ] final -132.07 input   59.86 | X-H torsion
[ 10167 10162 10161 10158 ] final   21.63 input  -65.29 | X-H torsion
[ 10718 10713 10712 10709 ] final  -79.88 input   66.30 | X-H torsion
[ 10763 10752 10751 10750 ] final  -68.31 input  -60.55 | X-H torsion
[ 11005 11000 10999 10996 ] final   81.23 input  -57.11 | X-H torsion

> <Gold.Protein.ActiveResidues>
 VAL166  LYS551  ARG553  GLY616  TRP617  ASP618  TYR619  PRO620  LYS621  CYS622 
 ASP623  PHE694  ASN695  SER759  ASP760  ASP761  ALA762  ILE779  LEU786  VAL792 
 PHE793  MET794  SER795  GLU796  ALA797  LYS798  CYS799  TRP800  GLU811  SER814 

> <Gold.Protein.RotatedAtoms>
  151.1528  133.4896  159.2594 H   0  0  0  0  0  0  0  0  0  0  0  0  # atno 6907 bound_to 6896
  151.1536  135.0239  159.8689 H   0  0  0  0  0  0  0  0  0  0  0  0  # atno 6908 bound_to 6896
  152.5463  134.1409  159.8532 H   0  0  0  0  0  0  0  0  0  0  0  0  # atno 6909 bound_to 6896
  144.9429  140.7259  143.4835 H   0  0  0  0  0  0  0  0  0  0  0  0  # atno 7974 bound_to 7965
  155.3228  140.0463  157.3040 H   0  0  0  0  0  0  0  0  0  0  0  0  # atno 8008 bound_to 7997
  154.5371  140.2276  155.8671 H   0  0  0  0  0  0  0  0  0  0  0  0  # atno 8009 bound_to 7997
  156.1845  140.3066  155.9218 H   0  0  0  0  0  0  0  0  0  0  0  0  # atno 8010 bound_to 7997
  140.5412  143.9674  150.6520 H   0  0  0  0  0  0  0  0  0  0  0  0  # atno 10167 bound_to 10162
  156.0082  130.4558  150.3715 H   0  0  0  0  0  0  0  0  0  0  0  0  # atno 10718 bound_to 10713
  154.3871  135.6061  153.5823 H   0  0  0  0  0  0  0  0  0  0  0  0  # atno 10763 bound_to 10752
  152.9787  135.5875  154.4341 H   0  0  0  0  0  0  0  0  0  0  0  0  # atno 10764 bound_to 10752
  154.4120  135.2844  155.2009 H   0  0  0  0  0  0  0  0  0  0  0  0  # atno 10765 bound_to 10752
  139.9105  134.7981  156.2014 H   0  0  0  0  0  0  0  0  0  0  0  0  # atno 11005 bound_to 11000
  145.2963  139.1866  143.4714 LP  0  0  0  0  0  0  0  0  0  0  0  0  # atno 17320 bound_to 7965
  146.3293  140.2947  142.8617 LP  0  0  0  0  0  0  0  0  0  0  0  0  # atno 17321 bound_to 7965
  140.3075  143.3220  152.0912 LP  0  0  0  0  0  0  0  0  0  0  0  0  # atno 17342 bound_to 10162
  139.4989  144.6658  151.6360 LP  0  0  0  0  0  0  0  0  0  0  0  0  # atno 17343 bound_to 10162
  157.1799  131.0389  151.2753 LP  0  0  0  0  0  0  0  0  0  0  0  0  # atno 17370 bound_to 10713
  157.4155  130.7408  149.6872 LP  0  0  0  0  0  0  0  0  0  0  0  0  # atno 17371 bound_to 10713
  141.0522  133.6883  156.1793 LP  0  0  0  0  0  0  0  0  0  0  0  0  # atno 17394 bound_to 11000
  140.6792  134.4785  157.5589 LP  0  0  0  0  0  0  0  0  0  0  0  0  # atno 17395 bound_to 11000

$$$$
