AV-unprocessed.smi:1720|AV-procd|sdf|6933|dock2
  -GOLD-   22720 8143D 1   1.00000     0.00000
 Structure written by MMmdl.
 32 33  0  0  0  0  0  0  0  0  1 V2000
  151.9703  141.2402  157.9733 C   0  0  0  0  0  0  0  0  0  0  0  0
  150.9444  142.3093  158.3768 C   0  0  2  0  0  0  0  0  0  0  0  0
  150.0580  142.5619  157.2417 N   0  0  0  0  0  0  0  0  0  0  0  0
  149.3797  141.6332  156.5520 C   0  0  0  0  0  0  0  0  0  0  0  0
  149.4175  140.4290  156.8050 O   0  0  0  0  0  0  0  0  0  0  0  0
  148.6596  142.1910  155.5652 N   0  0  0  0  0  0  0  0  0  0  0  0
  147.8196  141.5306  154.6332 C   0  0  0  0  0  0  0  0  0  0  0  0
  148.2387  140.4879  153.7630 C   0  0  0  0  0  0  0  0  0  0  0  0
  147.2401  140.0611  153.0034 N   0  0  0  0  0  0  0  0  0  0  0  0
  146.1869  140.8201  153.3818 N   0  0  0  0  0  0  0  0  0  0  0  0
  146.4926  141.7276  154.3719 C   0  0  0  0  0  0  0  0  0  0  0  0
  151.6250  143.6166  158.8328 C   0  0  1  0  0  0  0  0  0  0  0  0
  150.6689  144.7724  159.1389 C   0  0  0  0  0  0  0  0  0  0  0  0
  151.4935  145.6091  160.0889 C   0  0  0  0  0  0  0  0  0  0  0  0
  152.1954  144.5349  160.9132 C   0  0  0  0  0  0  0  0  0  0  0  0
  152.3392  143.4098  160.0502 O   0  0  0  0  0  0  0  0  0  0  0  0
  145.2761  140.7090  152.9592 H   0  0  0  0  0  0  0  0  0  0  0  0
  152.6232  140.9860  158.8088 H   0  0  0  0  0  0  0  0  0  0  0  0
  152.6001  141.5822  157.1513 H   0  0  0  0  0  0  0  0  0  0  0  0
  151.4756  140.3218  157.6552 H   0  0  0  0  0  0  0  0  0  0  0  0
  150.3703  141.9107  159.2152 H   0  0  0  0  0  0  0  0  0  0  0  0
  149.9583  143.5254  156.9570 H   0  0  0  0  0  0  0  0  0  0  0  0
  148.7149  143.1947  155.4727 H   0  0  0  0  0  0  0  0  0  0  0  0
  149.2144  140.0363  153.6587 H   0  0  0  0  0  0  0  0  0  0  0  0
  145.7583  142.4048  154.7823 H   0  0  0  0  0  0  0  0  0  0  0  0
  152.3453  143.9460  158.0816 H   0  0  0  0  0  0  0  0  0  0  0  0
  150.3595  145.3181  158.2471 H   0  0  0  0  0  0  0  0  0  0  0  0
  149.7737  144.4090  159.6458 H   0  0  0  0  0  0  0  0  0  0  0  0
  152.2250  146.1965  159.5321 H   0  0  0  0  0  0  0  0  0  0  0  0
  150.8953  146.2899  160.6953 H   0  0  0  0  0  0  0  0  0  0  0  0
  153.1591  144.8691  161.2975 H   0  0  0  0  0  0  0  0  0  0  0  0
  151.5764  144.2411  161.7617 H   0  0  0  0  0  0  0  0  0  0  0  0
  1  2  1  0  0  0  0
  1 18  1  0  0  0  0
  1 19  1  0  0  0  0
  1 20  1  0  0  0  0
  2  3  1  0  0  0  0
  2 12  1  0  0  0  0
  2 21  1  0  0  0  0
  3  4  1  0  0  0  0
  3 22  1  0  0  0  0
  4  5  2  0  0  0  0
  4  6  1  0  0  0  0
  6  7  1  0  0  0  0
  6 23  1  0  0  0  0
  7 11  2  0  0  0  0
  7  8  1  0  0  0  0
  8  9  2  0  0  0  0
  8 24  1  0  0  0  0
  9 10  1  0  0  0  0
 10 17  1  0  0  0  0
 10 11  1  0  0  0  0
 11 25  1  0  0  0  0
 12 16  1  0  0  0  0
 12 13  1  0  0  0  0
 12 26  1  0  0  0  0
 13 14  1  0  0  0  0
 13 27  1  0  0  0  0
 13 28  1  0  0  0  0
 14 15  1  0  0  0  0
 14 29  1  0  0  0  0
 14 30  1  0  0  0  0
 15 16  1  0  0  0  0
 15 31  1  0  0  0  0
 15 32  1  0  0  0  0
M  END
> <s_m_source_file>
AV-unprocessed.smi

> <i_m_source_file_index>
1720

> <i_lp_mmshare_version>
43012

> <i_f3d_flags>
0

> <s_epik_input>
TzFbQ0gyXVtDSDJdW0NIMl1bQ0BIXTFbQ0BIXShbQ0gzXSlbTkhdQyg9TylbTkhdYzJbY0hdbltuSF1bY0hdMg==

> <s_epik_cmdline>
J2VwaWtfcHl0aG9uJywgJy1waCcsICc3LjAnLCAnLXRuJywgJzgnLCAnLW1hJywgJzIwMCcsICctbWV0YWxfYmluZGluZycsICctaW1hZScsICc8aW5maWxlLm1hZT4nLCAnLW9tYWUnLCAnPG91dGZpbGUubWFlPic=

> <r_lp_tautomer_probability>
1

> <r_epik_Ionization_Penalty>
4.95841e-05

> <r_epik_Ionization_Penalty_Charging>
0

> <r_epik_Ionization_Penalty_Neutral>
4.95841e-05

> <r_epik_State_Penalty>
-0

> <r_epik_Charging_Adjusted_Penalty>
0

> <i_epik_Tot_Q>
0

> <i_epik_Tot_abs_Q>
0

> <r_epik_Metal_State_Penalty>
-0

> <b_epik_Metal_Only>
0

> <s_lp_Force_Field>
OPLS_2005

> <r_lp_Energy>
20.0516

> <b_lp_Chiralities_Consistent>
1

> <s_lp_Variant>
AV-unprocessed.smi:1720-3

> <Gold.Version>
5.8.1

> <Gold.Id.Protein>
6NUR|6NUR_protein|mol2

> <Gold.PLP.Fitness>
38.7119

> <Gold.PLP.PLP>
-30.0280

> <Gold.PLP.part.hbond>
-2.9830

> <Gold.PLP.part.metal>
0.0000

> <Gold.PLP.part.buried>
-5.1339

> <Gold.PLP.part.nonpolar>
-23.6252

> <Gold.PLP.part.repulsive>
1.2300

> <Gold.PLP.ligand.clash>
0.0000

> <Gold.PLP.ligand.torsion>
0.6093

> <Gold.PLP.Chemscore.Hbond>
2.8268

> <Gold.PLP.Chemscore.CHOScore>
0.4708

> <Gold.PLP.Chemscore.Metal>
0.0000

> <Gold.Chemscore.Hbonds>
donor molecule, donor type, donor heavy atom, donor atom, acceptor molecule, acceptor atom, score
      L1  H     3    22       P1  8028  0.80
      L1  H     6    23       P1  8028  1.00
      L1  H    10    17       P1 10175  1.00
      L1  C     8    24       P1  7957  0.47

> <Gold.PLP.Chemscore.Internal.Correction>
0.0095

> <Gold.Rescore>
     Score         DG    S(hbond)    S(metal)    S(lipo)     H(rot)  DE(clash)    DE(int)     intcor
     18.96     -20.76       2.85        0.00      77.83       1.31       0.09       1.71       ----

> <Gold.Chemscore.Fitness>
18.9576

> <Gold.Chemscore.DG>
-20.7574

> <Gold.Chemscore.ZeroCoef>
-5.4800

> <Gold.Chemscore.Hbond>
2.8502

> <Gold.Chemscore.Metal>
0.0000

> <Gold.Chemscore.Lipo>
77.8281

> <Gold.Chemscore.Internal_Hbond>
0.0000

> <Gold.Chemscore.DEClash>
0.0889

> <Gold.Chemscore.DEInternal>
1.7109

> <Gold.Chemscore.Rot>
1.3079

> <Gold.Chemscore.Internal.Correction>
   9.000000E+99

> <Gold.Chemscore.Hbonds>
donor molecule, donor type, donor heavy atom, donor atom, acceptor molecule, acceptor atom, score
      L1  H     3    22       P1  8028  0.74
      L1  H     6    23       P1  8028  0.93
      L1  H    10    17       P1 10175  0.65

> <Gold.Chemscore.Hbond.Weighted>
-9.5198

> <Gold.Chemscore.Metal.Weighted>
-0.0000

> <Gold.Chemscore.Lipo.Weighted>
-9.1059

> <Gold.Chemscore.Internal_Hbond.Weighted>
0.0000

> <Gold.Chemscore.DEClash.Weighted>
0.0889

> <Gold.Chemscore.DEInternal.Weighted>
1.7109

> <Gold.Chemscore.Rot.Weighted>
3.3483

> <Gold.Chemscore.Internal.Correction.Weighted>
   9.000000E+99

> <Gold.Protein.RotatedTorsions>
[ 6907 6896 6895 6894 ] final  148.98 input  -60.11 | X-H torsion
[ 7974 7965 7964 7962 ] final  -28.28 input  175.53 | X-H torsion
[ 8008 7997 7996 7995 ] final   51.38 input   59.86 | X-H torsion
[ 10167 10162 10161 10158 ] final  -40.48 input  -65.29 | X-H torsion
[ 10718 10713 10712 10709 ] final   30.61 input   66.30 | X-H torsion
[ 10763 10752 10751 10750 ] final  -75.60 input  -60.55 | X-H torsion
[ 11005 11000 10999 10996 ] final   85.28 input  -57.11 | X-H torsion

> <Gold.Protein.ActiveResidues>
 VAL166  LYS551  ARG553  GLY616  TRP617  ASP618  TYR619  PRO620  LYS621  CYS622 
 ASP623  PHE694  ASN695  SER759  ASP760  ASP761  ALA762  ILE779  LEU786  VAL792 
 PHE793  MET794  SER795  GLU796  ALA797  LYS798  CYS799  TRP800  GLU811  SER814 

> <Gold.Protein.RotatedAtoms>
  152.1342  133.4425  159.4735 H   0  0  0  0  0  0  0  0  0  0  0  0  # atno 6907 bound_to 6896
  150.6880  134.2383  159.4471 H   0  0  0  0  0  0  0  0  0  0  0  0  # atno 6908 bound_to 6896
  152.0270  134.9790  160.0622 H   0  0  0  0  0  0  0  0  0  0  0  0  # atno 6909 bound_to 6896
  146.1299  140.5262  142.8698 H   0  0  0  0  0  0  0  0  0  0  0  0  # atno 7974 bound_to 7965
  155.4343  140.3452  155.4283 H   0  0  0  0  0  0  0  0  0  0  0  0  # atno 8008 bound_to 7997
  156.1317  140.1516  156.9085 H   0  0  0  0  0  0  0  0  0  0  0  0  # atno 8009 bound_to 7997
  154.4900  140.0844  156.7553 H   0  0  0  0  0  0  0  0  0  0  0  0  # atno 8010 bound_to 7997
  140.7033  143.3151  151.2930 H   0  0  0  0  0  0  0  0  0  0  0  0  # atno 10167 bound_to 10162
  157.2618  130.7165  149.6458 H   0  0  0  0  0  0  0  0  0  0  0  0  # atno 10718 bound_to 10713
  154.4888  135.5825  153.6443 H   0  0  0  0  0  0  0  0  0  0  0  0  # atno 10763 bound_to 10752
  152.9859  135.6107  154.3152 H   0  0  0  0  0  0  0  0  0  0  0  0  # atno 10764 bound_to 10752
  154.3050  135.2846  155.2572 H   0  0  0  0  0  0  0  0  0  0  0  0  # atno 10765 bound_to 10752
  139.8976  134.8276  156.2561 H   0  0  0  0  0  0  0  0  0  0  0  0  # atno 11005 bound_to 11000
  144.7680  140.5574  143.6690 LP  0  0  0  0  0  0  0  0  0  0  0  0  # atno 17320 bound_to 7965
  145.5283  139.1475  143.3513 LP  0  0  0  0  0  0  0  0  0  0  0  0  # atno 17321 bound_to 7965
  139.6587  144.0230  152.2677 LP  0  0  0  0  0  0  0  0  0  0  0  0  # atno 17342 bound_to 10162
  139.9790  144.6442  150.7919 LP  0  0  0  0  0  0  0  0  0  0  0  0  # atno 17343 bound_to 10162
  155.9664  130.4395  150.5261 LP  0  0  0  0  0  0  0  0  0  0  0  0  # atno 17370 bound_to 10713
  157.3167  131.0674  151.1961 LP  0  0  0  0  0  0  0  0  0  0  0  0  # atno 17371 bound_to 10713
  141.0193  133.7051  156.1240 LP  0  0  0  0  0  0  0  0  0  0  0  0  # atno 17394 bound_to 11000
  140.7257  134.4309  157.5571 LP  0  0  0  0  0  0  0  0  0  0  0  0  # atno 17395 bound_to 11000

$$$$
