AV-unprocessed.smi:3319|AV-procd|sdf|12767|dock5
  -GOLD-   2272019103D 1   1.00000     0.00000
 Structure written by MMmdl.
 40 41  0  0  0  0  0  0  0  0  2 V2000
  152.2172  139.6824  156.3172 C   0  0  0  0  0  0  0  0  0  0  0  0
  151.2936  140.4364  156.0533 C   0  0  0  0  0  0  0  0  0  0  0  0
  150.1800  141.3537  155.7491 C   0  0  0  0  0  0  0  0  0  0  0  0
  149.4035  140.9474  154.5777 N   0  0  0  0  0  0  0  0  0  0  0  0
  148.1493  141.7026  154.5573 C   0  0  0  0  0  0  0  0  0  0  0  0
  147.3530  141.3785  153.2814 C   0  0  0  0  0  0  0  0  0  0  0  0
  147.0355  139.8783  153.1914 C   0  0  0  0  0  0  0  0  0  0  0  0
  146.3513  139.5799  151.9136 N   0  3  0  0  0  0  0  0  0  0  0  0
  146.2184  138.1448  151.5863 C   0  0  0  0  0  0  0  0  0  0  0  0
  145.3673  137.4196  152.6374 C   0  0  0  0  0  0  0  0  0  0  0  0
  144.8118  136.1071  152.1192 C   0  0  0  0  0  0  0  0  0  0  0  0
  143.9518  135.3237  152.9164 C   0  0  0  0  0  0  0  0  0  0  0  0
  143.4636  134.1116  152.3873 C   0  0  0  0  0  0  0  0  0  0  0  0
  143.7764  133.6626  151.1528 N   0  0  0  0  0  0  0  0  0  0  0  0
  144.5996  134.4184  150.3948 C   0  0  0  0  0  0  0  0  0  0  0  0
  145.1421  135.6451  150.8286 C   0  0  0  0  0  0  0  0  0  0  0  0
  148.3483  139.0889  153.3410 C   0  0  0  0  0  0  0  0  0  0  0  0
  149.1057  139.5103  154.6125 C   0  0  0  0  0  0  0  0  0  0  0  0
  153.0220  139.0221  156.5508 H   0  0  0  0  0  0  0  0  0  0  0  0
  149.5430  141.4498  156.6294 H   0  0  0  0  0  0  0  0  0  0  0  0
  150.6356  142.3286  155.5709 H   0  0  0  0  0  0  0  0  0  0  0  0
  147.5571  141.4774  155.4461 H   0  0  0  0  0  0  0  0  0  0  0  0
  148.3650  142.7716  154.5795 H   0  0  0  0  0  0  0  0  0  0  0  0
  146.4289  141.9574  153.2711 H   0  0  0  0  0  0  0  0  0  0  0  0
  147.9257  141.6945  152.4079 H   0  0  0  0  0  0  0  0  0  0  0  0
  146.3643  139.6216  154.0127 H   0  0  0  0  0  0  0  0  0  0  0  0
  145.4186  139.9635  151.9703 H   0  0  0  0  0  0  0  0  0  0  0  0
  145.7596  138.0311  150.6042 H   0  0  0  0  0  0  0  0  0  0  0  0
  147.2101  137.6935  151.5356 H   0  0  0  0  0  0  0  0  0  0  0  0
  145.9610  137.2236  153.5314 H   0  0  0  0  0  0  0  0  0  0  0  0
  144.5382  138.0552  152.9514 H   0  0  0  0  0  0  0  0  0  0  0  0
  143.6706  135.6390  153.9107 H   0  0  0  0  0  0  0  0  0  0  0  0
  142.8040  133.4868  152.9713 H   0  0  0  0  0  0  0  0  0  0  0  0
  144.8331  134.0352  149.4125 H   0  0  0  0  0  0  0  0  0  0  0  0
  145.7961  136.2133  150.1832 H   0  0  0  0  0  0  0  0  0  0  0  0
  148.1491  138.0183  153.3875 H   0  0  0  0  0  0  0  0  0  0  0  0
  148.9843  139.2491  152.4689 H   0  0  0  0  0  0  0  0  0  0  0  0
  150.0295  138.9348  154.6764 H   0  0  0  0  0  0  0  0  0  0  0  0
  148.5199  139.2693  155.5011 H   0  0  0  0  0  0  0  0  0  0  0  0
  146.8435  140.0469  151.1653 H   0  0  0  0  0  0  0  0  0  0  0  0
  1  2  3  0  0  0  0
  1 19  1  0  0  0  0
  2  3  1  0  0  0  0
  3  4  1  0  0  0  0
  3 20  1  0  0  0  0
  3 21  1  0  0  0  0
  4 18  1  0  0  0  0
  4  5  1  0  0  0  0
  5  6  1  0  0  0  0
  5 22  1  0  0  0  0
  5 23  1  0  0  0  0
  6  7  1  0  0  0  0
  6 24  1  0  0  0  0
  6 25  1  0  0  0  0
  7  8  1  0  0  0  0
  7 17  1  0  0  0  0
  7 26  1  0  0  0  0
  8  9  1  0  0  0  0
  8 27  1  0  0  0  0
  8 40  1  0  0  0  0
  9 10  1  0  0  0  0
  9 28  1  0  0  0  0
  9 29  1  0  0  0  0
 10 11  1  0  0  0  0
 10 30  1  0  0  0  0
 10 31  1  0  0  0  0
 11 16  1  0  0  0  0
 11 12  2  0  0  0  0
 12 13  1  0  0  0  0
 12 32  1  0  0  0  0
 13 14  2  0  0  0  0
 13 33  1  0  0  0  0
 14 15  1  0  0  0  0
 15 16  2  0  0  0  0
 15 34  1  0  0  0  0
 16 35  1  0  0  0  0
 17 18  1  0  0  0  0
 17 36  1  0  0  0  0
 17 37  1  0  0  0  0
 18 38  1  0  0  0  0
 18 39  1  0  0  0  0
M  CHG  1   8   1
M  END
> <s_m_source_file>
AV-unprocessed.smi

> <i_m_source_file_index>
3319

> <i_lp_mmshare_version>
43012

> <i_f3d_flags>
0

> <s_epik_input>
W0NIXSNDW0NIMl1OMVtDSDJdW0NIMl1bQ0hdKFtDSDJdW0NIMl0xKVtOSF1bQ0gyXVtDSDJdYzJbY0hdW2NIXW5bY0hdW2NIXTI=

> <s_epik_cmdline>
J2VwaWtfcHl0aG9uJywgJy1waCcsICc3LjAnLCAnLXRuJywgJzgnLCAnLW1hJywgJzIwMCcsICctbWV0YWxfYmluZGluZycsICctaW1hZScsICc8aW5maWxlLm1hZT4nLCAnLW9tYWUnLCAnPG91dGZpbGUubWFlPic=

> <r_epik_Ionization_Penalty>
0.00927662

> <r_epik_Ionization_Penalty_Charging>
0.000485704

> <r_epik_Ionization_Penalty_Neutral>
0.00879091

> <r_epik_State_Penalty>
0.00559669

> <r_epik_Charging_Adjusted_Penalty>
0.0060824

> <i_epik_Tot_Q>
1

> <i_epik_Tot_abs_Q>
1

> <r_epik_Metal_State_Penalty>
-0

> <b_epik_Metal_Only>
0

> <s_lp_Force_Field>
OPLS_2005

> <r_lp_Energy>
19.7292

> <b_lp_Chiralities_Consistent>
1

> <s_lp_Variant>
AV-unprocessed.smi:3319-1

> <Gold.Version>
5.8.1

> <Gold.Id.Protein>
6NUR|6NUR_protein|mol2

> <Gold.PLP.Fitness>
44.9138

> <Gold.PLP.PLP>
-33.4221

> <Gold.PLP.part.hbond>
-1.4314

> <Gold.PLP.part.metal>
0.0000

> <Gold.PLP.part.buried>
1.1566

> <Gold.PLP.part.nonpolar>
-34.2668

> <Gold.PLP.part.repulsive>
0.3665

> <Gold.PLP.ligand.clash>
0.0000

> <Gold.PLP.ligand.torsion>
0.2701

> <Gold.PLP.Chemscore.Hbond>
2.0000

> <Gold.PLP.Chemscore.CHOScore>
2.0000

> <Gold.PLP.Chemscore.Metal>
0.0000

> <Gold.Chemscore.Hbonds>
donor molecule, donor type, donor heavy atom, donor atom, acceptor molecule, acceptor atom, score
      L1  H     8    27       P1 10175  2.00
      L1  C    13    33       P1 10957  1.00
      L1  C    15    34       P1  7921  1.00

> <Gold.PLP.Chemscore.Internal.Correction>
0.0319

> <Gold.Rescore>
     Score         DG    S(hbond)    S(metal)    S(lipo)     H(rot)  DE(clash)    DE(int)     intcor
     14.85     -15.14       0.96        0.00      86.68       1.44       0.04       0.25       ----

> <Gold.Chemscore.Fitness>
14.8481

> <Gold.Chemscore.DG>
-15.1404

> <Gold.Chemscore.ZeroCoef>
-5.4800

> <Gold.Chemscore.Hbond>
0.9575

> <Gold.Chemscore.Metal>
0.0000

> <Gold.Chemscore.Lipo>
86.6787

> <Gold.Chemscore.Internal_Hbond>
0.0000

> <Gold.Chemscore.DEClash>
0.0436

> <Gold.Chemscore.DEInternal>
0.2487

> <Gold.Chemscore.Rot>
1.4371

> <Gold.Chemscore.Internal.Correction>
   9.000000E+99

> <Gold.Chemscore.Hbonds>
donor molecule, donor type, donor heavy atom, donor atom, acceptor molecule, acceptor atom, score
      L1  H     8    27       P1 10175  0.60

> <Gold.Chemscore.Hbond.Weighted>
-3.1980

> <Gold.Chemscore.Metal.Weighted>
-0.0000

> <Gold.Chemscore.Lipo.Weighted>
-10.1414

> <Gold.Chemscore.Internal_Hbond.Weighted>
0.0000

> <Gold.Chemscore.DEClash.Weighted>
0.0436

> <Gold.Chemscore.DEInternal.Weighted>
0.2487

> <Gold.Chemscore.Rot.Weighted>
3.6790

> <Gold.Chemscore.Internal.Correction.Weighted>
   9.000000E+99

> <Gold.Protein.RotatedTorsions>
[ 6907 6896 6895 6894 ] final -126.56 input  -60.11 | X-H torsion
[ 7974 7965 7964 7962 ] final  -59.48 input  175.53 | X-H torsion
[ 8008 7997 7996 7995 ] final  110.81 input   59.86 | X-H torsion
[ 10167 10162 10161 10158 ] final  171.41 input  -65.29 | X-H torsion
[ 10718 10713 10712 10709 ] final   61.56 input   66.30 | X-H torsion
[ 10763 10752 10751 10750 ] final   44.52 input  -60.55 | X-H torsion
[ 11005 11000 10999 10996 ] final   45.57 input  -57.11 | X-H torsion

> <Gold.Protein.ActiveResidues>
 VAL166  LYS551  ARG553  GLY616  TRP617  ASP618  TYR619  PRO620  LYS621  CYS622 
 ASP623  PHE694  ASN695  SER759  ASP760  ASP761  ALA762  ILE779  LEU786  VAL792 
 PHE793  MET794  SER795  GLU796  ALA797  LYS798  CYS799  TRP800  GLU811  SER814 

> <Gold.Protein.RotatedAtoms>
  150.8982  133.7153  159.2885 H   0  0  0  0  0  0  0  0  0  0  0  0  # atno 6907 bound_to 6896
  151.4680  135.1042  159.9753 H   0  0  0  0  0  0  0  0  0  0  0  0  # atno 6908 bound_to 6896
  152.4861  133.8329  159.7168 H   0  0  0  0  0  0  0  0  0  0  0  0  # atno 6909 bound_to 6896
  145.8270  140.8504  143.0103 H   0  0  0  0  0  0  0  0  0  0  0  0  # atno 7974 bound_to 7965
  156.2079  140.3031  155.9668 H   0  0  0  0  0  0  0  0  0  0  0  0  # atno 8008 bound_to 7997
  155.2795  140.0437  157.3031 H   0  0  0  0  0  0  0  0  0  0  0  0  # atno 8009 bound_to 7997
  154.5659  140.2334  155.8273 H   0  0  0  0  0  0  0  0  0  0  0  0  # atno 8010 bound_to 7997
  139.5046  144.3489  151.9942 H   0  0  0  0  0  0  0  0  0  0  0  0  # atno 10167 bound_to 10162
  157.5837  130.9001  149.9476 H   0  0  0  0  0  0  0  0  0  0  0  0  # atno 10718 bound_to 10713
  152.9840  135.6068  154.3288 H   0  0  0  0  0  0  0  0  0  0  0  0  # atno 10763 bound_to 10752
  154.2993  135.2773  155.2620 H   0  0  0  0  0  0  0  0  0  0  0  0  # atno 10764 bound_to 10752
  154.4880  135.5899  153.6494 H   0  0  0  0  0  0  0  0  0  0  0  0  # atno 10765 bound_to 10752
  140.1448  134.4537  155.8424 H   0  0  0  0  0  0  0  0  0  0  0  0  # atno 11005 bound_to 11000
  144.6743  140.0616  143.7476 LP  0  0  0  0  0  0  0  0  0  0  0  0  # atno 17320 bound_to 7965
  145.9613  139.2802  143.1154 LP  0  0  0  0  0  0  0  0  0  0  0  0  # atno 17321 bound_to 7965
  140.2926  144.3736  150.6084 LP  0  0  0  0  0  0  0  0  0  0  0  0  # atno 17342 bound_to 10162
  140.5935  143.2167  151.7209 LP  0  0  0  0  0  0  0  0  0  0  0  0  # atno 17343 bound_to 10162
  156.0884  130.3666  150.0442 LP  0  0  0  0  0  0  0  0  0  0  0  0  # atno 17370 bound_to 10713
  156.8577  130.9481  151.3620 LP  0  0  0  0  0  0  0  0  0  0  0  0  # atno 17371 bound_to 10713
  141.2191  133.6848  156.7313 LP  0  0  0  0  0  0  0  0  0  0  0  0  # atno 17394 bound_to 11000
  140.2678  134.8416  157.3819 LP  0  0  0  0  0  0  0  0  0  0  0  0  # atno 17395 bound_to 11000

$$$$
