AV-unprocessed.smi:2684|AV-procd|sdf|10381|dock6
  -GOLD-   2272014413D 1   1.00000     0.00000
 Structure written by MMmdl.
 44 45  0  0  0  0  0  0  0  0  1 V2000
  142.9352  146.8616  154.5619 C   0  0  0  0  0  0  0  0  0  0  0  0
  143.8385  145.6647  154.4814 C   0  0  0  0  0  0  0  0  0  0  0  0
  144.1352  144.7247  155.5086 C   0  0  0  0  0  0  0  0  0  0  0  0
  144.9675  143.7755  155.1127 N   0  0  0  0  0  0  0  0  0  0  0  0
  145.2432  144.0828  153.8270 N   0  0  0  0  0  0  0  0  0  0  0  0
  146.1377  143.2387  153.0541 C   0  0  0  0  0  0  0  0  0  0  0  0
  146.7020  142.0324  153.8412 C   0  0  1  0  0  0  0  0  0  0  0  0
  147.1316  140.9147  152.8806 C   0  0  0  0  0  0  0  0  0  0  0  0
  147.8841  142.4086  154.6127 N   0  0  0  0  0  0  0  0  0  0  0  0
  148.3881  141.3165  155.4574 C   0  0  0  0  0  0  0  0  0  0  0  0
  149.8223  141.5485  155.9563 C   0  0  0  0  0  0  0  0  0  0  0  0
  150.7425  140.8360  155.5572 O   0  0  0  0  0  0  0  0  0  0  0  0
  150.0527  142.5385  156.8359 N   0  0  0  0  0  0  0  0  0  0  0  0
  151.3338  142.9202  157.4281 C   0  0  0  0  0  0  0  0  0  0  0  0
  151.7333  141.9348  158.5394 C   0  0  0  0  0  0  0  0  0  0  0  0
  153.0022  142.4181  159.2593 C   0  0  0  0  0  0  0  0  0  0  0  0
  152.7987  143.7283  159.7783 O   0  0  0  0  0  0  0  0  0  0  0  0
  152.5345  144.6939  158.7658 C   0  0  0  0  0  0  0  0  0  0  0  0
  151.2388  144.3341  158.0194 C   0  0  0  0  0  0  0  0  0  0  0  0
  144.5687  145.2138  153.4183 C   0  0  0  0  0  0  0  0  0  0  0  0
  141.9870  146.6182  155.0415 H   0  0  0  0  0  0  0  0  0  0  0  0
  142.7022  147.2614  153.5748 H   0  0  0  0  0  0  0  0  0  0  0  0
  143.3878  147.6694  155.1361 H   0  0  0  0  0  0  0  0  0  0  0  0
  143.7680  144.7022  156.5242 H   0  0  0  0  0  0  0  0  0  0  0  0
  145.5807  142.8840  152.1859 H   0  0  0  0  0  0  0  0  0  0  0  0
  146.9502  143.8538  152.6644 H   0  0  0  0  0  0  0  0  0  0  0  0
  145.9337  141.6165  154.4954 H   0  0  0  0  0  0  0  0  0  0  0  0
  146.2874  140.5664  152.2847 H   0  0  0  0  0  0  0  0  0  0  0  0
  147.5232  140.0546  153.4252 H   0  0  0  0  0  0  0  0  0  0  0  0
  147.9057  141.2541  152.1911 H   0  0  0  0  0  0  0  0  0  0  0  0
  147.6928  143.2435  155.1474 H   0  0  0  0  0  0  0  0  0  0  0  0
  147.7333  141.1895  156.3157 H   0  0  0  0  0  0  0  0  0  0  0  0
  148.3709  140.3839  154.8917 H   0  0  0  0  0  0  0  0  0  0  0  0
  149.2518  143.0779  157.1313 H   0  0  0  0  0  0  0  0  0  0  0  0
  152.1145  142.9360  156.6662 H   0  0  0  0  0  0  0  0  0  0  0  0
  150.9231  141.8439  159.2642 H   0  0  0  0  0  0  0  0  0  0  0  0
  151.8953  140.9381  158.1303 H   0  0  0  0  0  0  0  0  0  0  0  0
  153.2429  141.7479  160.0844 H   0  0  0  0  0  0  0  0  0  0  0  0
  153.8585  142.4101  158.5832 H   0  0  0  0  0  0  0  0  0  0  0  0
  152.4384  145.6747  159.2316 H   0  0  0  0  0  0  0  0  0  0  0  0
  153.3777  144.7516  158.0758 H   0  0  0  0  0  0  0  0  0  0  0  0
  151.0475  145.0627  157.2309 H   0  0  0  0  0  0  0  0  0  0  0  0
  150.3978  144.3937  158.7119 H   0  0  0  0  0  0  0  0  0  0  0  0
  144.6652  145.6020  152.4150 H   0  0  0  0  0  0  0  0  0  0  0  0
  1  2  1  0  0  0  0
  1 21  1  0  0  0  0
  1 22  1  0  0  0  0
  1 23  1  0  0  0  0
  2 20  2  0  0  0  0
  2  3  1  0  0  0  0
  3  4  2  0  0  0  0
  3 24  1  0  0  0  0
  4  5  1  0  0  0  0
  5  6  1  0  0  0  0
  5 20  1  0  0  0  0
  6  7  1  0  0  0  0
  6 25  1  0  0  0  0
  6 26  1  0  0  0  0
  7  8  1  0  0  0  0
  7  9  1  0  0  0  0
  7 27  1  0  0  0  0
  8 28  1  0  0  0  0
  8 29  1  0  0  0  0
  8 30  1  0  0  0  0
  9 10  1  0  0  0  0
  9 31  1  0  0  0  0
 10 11  1  0  0  0  0
 10 32  1  0  0  0  0
 10 33  1  0  0  0  0
 11 12  2  0  0  0  0
 11 13  1  0  0  0  0
 13 14  1  0  0  0  0
 13 34  1  0  0  0  0
 14 19  1  0  0  0  0
 14 15  1  0  0  0  0
 14 35  1  0  0  0  0
 15 16  1  0  0  0  0
 15 36  1  0  0  0  0
 15 37  1  0  0  0  0
 16 17  1  0  0  0  0
 16 38  1  0  0  0  0
 16 39  1  0  0  0  0
 17 18  1  0  0  0  0
 18 19  1  0  0  0  0
 18 40  1  0  0  0  0
 18 41  1  0  0  0  0
 19 42  1  0  0  0  0
 19 43  1  0  0  0  0
 20 44  1  0  0  0  0
M  END
> <s_m_source_file>
AV-unprocessed.smi

> <i_m_source_file_index>
2684

> <i_lp_mmshare_version>
43012

> <i_f3d_flags>
0

> <s_epik_input>
W0NIM11jMVtjSF1ubihbY0hdMSlbQ0gyXVtDQEhdKFtDSDNdKVtOSF1bQ0gyXUMoPU8pW05IXVtDSF0yW0NIMl1bQ0gyXU9bQ0gyXVtDSDJdMg==

> <s_epik_cmdline>
J2VwaWtfcHl0aG9uJywgJy1waCcsICc3LjAnLCAnLXRuJywgJzgnLCAnLW1hJywgJzIwMCcsICctbWV0YWxfYmluZGluZycsICctaW1hZScsICc8aW5maWxlLm1hZT4nLCAnLW9tYWUnLCAnPG91dGZpbGUubWFlPic=

> <r_lp_tautomer_probability>
1

> <r_epik_Ionization_Penalty>
0.968507

> <r_epik_Ionization_Penalty_Charging>
0

> <r_epik_Ionization_Penalty_Neutral>
0.968507

> <r_epik_State_Penalty>
1.01412

> <r_epik_Charging_Adjusted_Penalty>
1.01412

> <i_epik_Tot_Q>
0

> <i_epik_Tot_abs_Q>
0

> <r_epik_Metal_State_Penalty>
1.01401

> <b_epik_Metal_Only>
0

> <s_lp_Force_Field>
OPLS_2005

> <r_lp_Energy>
12.4601

> <b_lp_Chiralities_Consistent>
1

> <s_lp_Variant>
AV-unprocessed.smi:2684-4

> <Gold.Version>
5.8.1

> <Gold.Id.Protein>
6NUR|6NUR_protein|mol2

> <Gold.PLP.Fitness>
47.0656

> <Gold.PLP.PLP>
-44.8793

> <Gold.PLP.part.hbond>
-2.9697

> <Gold.PLP.part.metal>
0.0000

> <Gold.PLP.part.buried>
-7.3636

> <Gold.PLP.part.nonpolar>
-34.5463

> <Gold.PLP.part.repulsive>
0.2616

> <Gold.PLP.ligand.clash>
0.0000

> <Gold.PLP.ligand.torsion>
0.6199

> <Gold.PLP.Chemscore.Hbond>
1.1266

> <Gold.PLP.Chemscore.CHOScore>
0.0000

> <Gold.PLP.Chemscore.Metal>
0.0000

> <Gold.Chemscore.Hbonds>
donor molecule, donor type, donor heavy atom, donor atom, acceptor molecule, acceptor atom, score
      L1  H     9    31       P1  8028  0.62
      L1  H    13    34       P1  8028  0.10
      P1  H  7989  7998       L1    12  0.39

> <Gold.PLP.Chemscore.Internal.Correction>
0.0463

> <Gold.Rescore>
     Score         DG    S(hbond)    S(metal)    S(lipo)     H(rot)  DE(clash)    DE(int)     intcor
     15.42     -16.38       0.77        0.00     114.40       1.97       0.32       0.64       ----

> <Gold.Chemscore.Fitness>
15.4206

> <Gold.Chemscore.DG>
-16.3803

> <Gold.Chemscore.ZeroCoef>
-5.4800

> <Gold.Chemscore.Hbond>
0.7690

> <Gold.Chemscore.Metal>
0.0000

> <Gold.Chemscore.Lipo>
114.3950

> <Gold.Chemscore.Internal_Hbond>
0.0000

> <Gold.Chemscore.DEClash>
0.3203

> <Gold.Chemscore.DEInternal>
0.6395

> <Gold.Chemscore.Rot>
1.9736

> <Gold.Chemscore.Internal.Correction>
   9.000000E+99

> <Gold.Chemscore.Hbonds>
donor molecule, donor type, donor heavy atom, donor atom, acceptor molecule, acceptor atom, score
      L1  H     9    31       P1  8028  0.28
      L1  H    13    34       P1  8028  0.09
      P1  H  7989  7998       L1    12  0.40

> <Gold.Chemscore.Hbond.Weighted>
-2.5685

> <Gold.Chemscore.Metal.Weighted>
-0.0000

> <Gold.Chemscore.Lipo.Weighted>
-13.3842

> <Gold.Chemscore.Internal_Hbond.Weighted>
0.0000

> <Gold.Chemscore.DEClash.Weighted>
0.3203

> <Gold.Chemscore.DEInternal.Weighted>
0.6395

> <Gold.Chemscore.Rot.Weighted>
5.0523

> <Gold.Chemscore.Internal.Correction.Weighted>
   9.000000E+99

> <Gold.Protein.RotatedTorsions>
[ 6907 6896 6895 6894 ] final  178.18 input  -60.11 | X-H torsion
[ 7974 7965 7964 7962 ] final  -73.41 input  175.53 | X-H torsion
[ 8008 7997 7996 7995 ] final -116.36 input   59.86 | X-H torsion
[ 10167 10162 10161 10158 ] final -102.02 input  -65.29 | X-H torsion
[ 10718 10713 10712 10709 ] final   11.61 input   66.30 | X-H torsion
[ 10763 10752 10751 10750 ] final -145.82 input  -60.55 | X-H torsion
[ 11005 11000 10999 10996 ] final -153.10 input  -57.11 | X-H torsion

> <Gold.Protein.ActiveResidues>
 VAL166  LYS551  ARG553  GLY616  TRP617  ASP618  TYR619  PRO620  LYS621  CYS622 
 ASP623  PHE694  ASN695  SER759  ASP760  ASP761  ALA762  ILE779  LEU786  VAL792 
 PHE793  MET794  SER795  GLU796  ALA797  LYS798  CYS799  TRP800  GLU811  SER814 

> <Gold.Protein.RotatedAtoms>
  151.6920  133.3311  159.3244 H   0  0  0  0  0  0  0  0  0  0  0  0  # atno 6907 bound_to 6896
  150.7775  134.6690  159.6390 H   0  0  0  0  0  0  0  0  0  0  0  0  # atno 6908 bound_to 6896
  152.3821  134.6577  160.0191 H   0  0  0  0  0  0  0  0  0  0  0  0  # atno 6909 bound_to 6896
  145.6525  140.9278  143.0977 H   0  0  0  0  0  0  0  0  0  0  0  0  # atno 7974 bound_to 7965
  155.0665  140.0393  157.2594 H   0  0  0  0  0  0  0  0  0  0  0  0  # atno 8008 bound_to 7997
  154.7017  140.2674  155.6689 H   0  0  0  0  0  0  0  0  0  0  0  0  # atno 8009 bound_to 7997
  156.2762  140.2739  156.1629 H   0  0  0  0  0  0  0  0  0  0  0  0  # atno 8010 bound_to 7997
  140.2351  143.3579  152.0852 H   0  0  0  0  0  0  0  0  0  0  0  0  # atno 10167 bound_to 10162
  156.9981  130.6068  149.5693 H   0  0  0  0  0  0  0  0  0  0  0  0  # atno 10718 bound_to 10713
  154.8365  135.3403  154.6564 H   0  0  0  0  0  0  0  0  0  0  0  0  # atno 10763 bound_to 10752
  153.7179  135.6960  153.5025 H   0  0  0  0  0  0  0  0  0  0  0  0  # atno 10764 bound_to 10752
  153.2403  135.4387  155.0644 H   0  0  0  0  0  0  0  0  0  0  0  0  # atno 10765 bound_to 10752
  140.7118  134.3824  157.5196 H   0  0  0  0  0  0  0  0  0  0  0  0  # atno 11005 bound_to 11000
  144.7117  139.8344  143.7412 LP  0  0  0  0  0  0  0  0  0  0  0  0  # atno 17320 bound_to 7965
  146.1192  139.4207  143.0239 LP  0  0  0  0  0  0  0  0  0  0  0  0  # atno 17321 bound_to 7965
  139.5096  144.6871  151.5859 LP  0  0  0  0  0  0  0  0  0  0  0  0  # atno 17342 bound_to 10162
  140.6156  143.9355  150.6486 LP  0  0  0  0  0  0  0  0  0  0  0  0  # atno 17343 bound_to 10162
  156.0181  130.5276  150.8196 LP  0  0  0  0  0  0  0  0  0  0  0  0  # atno 17370 bound_to 10713
  157.5410  131.0940  150.9827 LP  0  0  0  0  0  0  0  0  0  0  0  0  # atno 17371 bound_to 10713
  139.8870  134.8895  156.2554 LP  0  0  0  0  0  0  0  0  0  0  0  0  # atno 17394 bound_to 11000
  141.0078  133.7113  156.1063 LP  0  0  0  0  0  0  0  0  0  0  0  0  # atno 17395 bound_to 11000

$$$$
