AV-unprocessed.smi:72|AV-procd|sdf|664|dock5
  -GOLD-   2262016563D 1   1.00000     0.00000
 Structure written by MMmdl.
 29 30  0  0  0  0  0  0  0  0  1 V2000
  152.7663  139.5852  156.6519 N   0  0  0  0  0  0  0  0  0  0  0  0
  151.6011  139.4714  156.1218 C   0  0  0  0  0  0  0  0  0  0  0  0
  151.2631  139.8611  154.8170 N   0  0  0  0  0  0  0  0  0  0  0  0
  150.0432  139.6870  154.4112 C   0  0  0  0  0  0  0  0  0  0  0  0
  149.0173  139.1051  155.2652 N   0  0  0  0  0  0  0  0  0  0  0  0
  147.5908  138.8987  154.7908 C   0  0  1  0  0  0  0  0  0  0  0  0
  147.4288  139.4664  153.5205 O   0  0  0  0  0  0  0  0  0  0  0  0
  147.1928  138.4401  152.5637 C   0  0  2  0  0  0  0  0  0  0  0  0
  146.4877  139.0064  151.3182 C   0  0  0  0  0  0  0  0  0  0  0  0
  146.4094  138.0587  150.2734 O   0  0  0  0  0  0  0  0  0  0  0  0
  146.4544  137.3629  153.3589 C   0  0  1  0  0  0  0  0  0  0  0  0
  146.4800  136.0929  152.7343 O   0  0  0  0  0  0  0  0  0  0  0  0
  147.1861  137.4046  154.6976 C   0  0  1  0  0  0  0  0  0  0  0  0
  148.2919  136.5142  154.7347 O   0  0  0  0  0  0  0  0  0  0  0  0
  149.3453  138.6982  156.5809 C   0  0  0  0  0  0  0  0  0  0  0  0
  148.5216  138.1810  157.3352 O   0  0  0  0  0  0  0  0  0  0  0  0
  150.6263  138.9062  156.9549 N   0  0  0  0  0  0  0  0  0  0  0  0
  146.9639  139.4682  155.4790 H   0  0  0  0  0  0  0  0  0  0  0  0
  148.1680  138.0541  152.2618 H   0  0  0  0  0  0  0  0  0  0  0  0
  145.4166  137.6546  153.5225 H   0  0  0  0  0  0  0  0  0  0  0  0
  146.5196  137.1549  155.5236 H   0  0  0  0  0  0  0  0  0  0  0  0
  152.7612  139.2352  157.5987 H   0  0  0  0  0  0  0  0  0  0  0  0
  149.7168  139.9638  153.4090 H   0  0  0  0  0  0  0  0  0  0  0  0
  145.4867  139.3564  151.5713 H   0  0  0  0  0  0  0  0  0  0  0  0
  147.0408  139.8682  150.9442 H   0  0  0  0  0  0  0  0  0  0  0  0
  145.5737  138.1543  149.8424 H   0  0  0  0  0  0  0  0  0  0  0  0
  147.3548  135.9343  152.4146 H   0  0  0  0  0  0  0  0  0  0  0  0
  148.5334  136.2997  153.8468 H   0  0  0  0  0  0  0  0  0  0  0  0
  150.8887  138.6290  157.8893 H   0  0  0  0  0  0  0  0  0  0  0  0
  1  2  2  0  0  0  0
  1 22  1  0  0  0  0
  2 17  1  0  0  0  0
  2  3  1  0  0  0  0
  3  4  2  0  0  0  0
  4  5  1  0  0  0  0
  4 23  1  0  0  0  0
  5  6  1  0  0  0  0
  5 15  1  0  0  0  0
  6 18  1  0  0  0  0
  6 13  1  0  0  0  0
  6  7  1  0  0  0  0
  7  8  1  0  0  0  0
  8 19  1  0  0  0  0
  8  9  1  0  0  0  0
  8 11  1  0  0  0  0
  9 10  1  0  0  0  0
  9 24  1  0  0  0  0
  9 25  1  0  0  0  0
 10 26  1  0  0  0  0
 11 20  1  0  0  0  0
 11 12  1  0  0  0  0
 11 13  1  0  0  0  0
 12 27  1  0  0  0  0
 13 21  1  0  0  0  0
 13 14  1  0  0  0  0
 14 28  1  0  0  0  0
 15 16  2  0  0  0  0
 15 17  1  0  0  0  0
 17 29  1  0  0  0  0
M  END
> <s_m_source_file>
AV-unprocessed.smi

> <i_m_source_file_index>
72

> <i_lp_mmshare_version>
43012

> <i_f3d_flags>
0

> <s_epik_input>
W05IMl1jMW5bY0hdbihjKD1PKW4xKVtDQEBIXTJPW0NASF0oW0NIMl1bT0hdKVtDQEBIXShbT0hdKVtDQEhdMltPSF0=

> <s_epik_cmdline>
J2VwaWtfcHl0aG9uJywgJy1waCcsICc3LjAnLCAnLXRuJywgJzgnLCAnLW1hJywgJzIwMCcsICctbWV0YWxfYmluZGluZycsICctaW1hZScsICc8aW5maWxlLm1hZT4nLCAnLW9tYWUnLCAnPG91dGZpbGUubWFlPic=

> <r_lp_tautomer_probability>
7.17554e-07

> <r_epik_Ionization_Penalty>
0.0066451

> <r_epik_Ionization_Penalty_Charging>
0.00663793

> <r_epik_Ionization_Penalty_Neutral>
7.17052e-06

> <r_epik_State_Penalty>
0.419231

> <r_epik_Charging_Adjusted_Penalty>
0.425868

> <i_epik_Tot_Q>
0

> <i_epik_Tot_abs_Q>
0

> <r_epik_Metal_State_Penalty>
1.44144

> <b_epik_Metal_Only>
0

> <s_epik_Chemistry_Notes>
This compound contains an acetal/aminal-like group ( X-CH(R)-Y where X, Y are N, S, or O) that may be acid/base labile, releasing an aldehyde.

> <s_lp_Force_Field>
OPLS_2005

> <r_lp_Energy>
49.4302

> <b_lp_Chiralities_Consistent>
1

> <s_lp_Variant>
AV-unprocessed.smi:72-2

> <Gold.Version>
5.8.1

> <Gold.Id.Protein>
6NUR|6NUR_protein|mol2

> <Gold.PLP.Fitness>
37.7303

> <Gold.PLP.PLP>
-18.4735

> <Gold.PLP.part.hbond>
-6.0000

> <Gold.PLP.part.metal>
0.0000

> <Gold.PLP.part.buried>
2.3150

> <Gold.PLP.part.nonpolar>
-15.0001

> <Gold.PLP.part.repulsive>
0.2630

> <Gold.PLP.ligand.clash>
0.0000

> <Gold.PLP.ligand.torsion>
0.0979

> <Gold.PLP.Chemscore.Hbond>
5.4680

> <Gold.PLP.Chemscore.CHOScore>
1.0000

> <Gold.PLP.Chemscore.Metal>
0.0000

> <Gold.Chemscore.Hbonds>
donor molecule, donor type, donor heavy atom, donor atom, acceptor molecule, acceptor atom, score
      L1  H    10    26       P1 10171  1.00
      L1  H    12    27       P1  7948  1.00
      L1  H    14    28       P1  7948  1.00
      P1  H  7954  7966       L1    10  0.77
      P1  H  7989  7998       L1     3  0.65
      P1  H  7997  8010       L1     1  1.00
      L1  C     4    23       P1  7957  1.00

> <Gold.PLP.Chemscore.Internal.Correction>
0.0484

> <Gold.Rescore>
     Score         DG    S(hbond)    S(metal)    S(lipo)     H(rot)  DE(clash)    DE(int)     intcor
     13.06     -13.48       4.75        0.00      21.67       4.06       0.14       0.27       ----

> <Gold.Chemscore.Fitness>
13.0638

> <Gold.Chemscore.DG>
-13.4796

> <Gold.Chemscore.ZeroCoef>
-5.4800

> <Gold.Chemscore.Hbond>
4.7478

> <Gold.Chemscore.Metal>
0.0000

> <Gold.Chemscore.Lipo>
21.6722

> <Gold.Chemscore.Internal_Hbond>
0.0000

> <Gold.Chemscore.DEClash>
0.1428

> <Gold.Chemscore.DEInternal>
0.2731

> <Gold.Chemscore.Rot>
4.0600

> <Gold.Chemscore.Internal.Correction>
   9.000000E+99

> <Gold.Chemscore.Hbonds>
donor molecule, donor type, donor heavy atom, donor atom, acceptor molecule, acceptor atom, score
      L1  H    10    26       P1 10171  0.98
      L1  H    12    27       P1  7948  1.00
      L1  H    14    28       P1  7948  0.94
      P1  H  7954  7966       L1    10  0.23
      P1  H  7989  7998       L1     3  0.06
      P1  H  7997  8010       L1     1  0.60

> <Gold.Chemscore.Hbond.Weighted>
-15.8576

> <Gold.Chemscore.Metal.Weighted>
-0.0000

> <Gold.Chemscore.Lipo.Weighted>
-2.5357

> <Gold.Chemscore.Internal_Hbond.Weighted>
0.0000

> <Gold.Chemscore.DEClash.Weighted>
0.1428

> <Gold.Chemscore.DEInternal.Weighted>
0.2731

> <Gold.Chemscore.Rot.Weighted>
10.3936

> <Gold.Chemscore.Internal.Correction.Weighted>
   9.000000E+99

> <Gold.Protein.RotatedTorsions>
[ 6907 6896 6895 6894 ] final   26.30 input  -60.11 | X-H torsion
[ 7974 7965 7964 7962 ] final  -69.97 input  175.53 | X-H torsion
[ 8008 7997 7996 7995 ] final   78.97 input   59.86 | X-H torsion
[ 10167 10162 10161 10158 ] final  -30.84 input  -65.29 | X-H torsion
[ 10718 10713 10712 10709 ] final  -33.07 input   66.30 | X-H torsion
[ 10763 10752 10751 10750 ] final  -67.28 input  -60.55 | X-H torsion
[ 11005 11000 10999 10996 ] final  100.30 input  -57.11 | X-H torsion

> <Gold.Protein.ActiveResidues>
 VAL166  LYS551  ARG553  GLY616  TRP617  ASP618  TYR619  PRO620  LYS621  CYS622 
 ASP623  PHE694  ASN695  SER759  ASP760  ASP761  ALA762  ILE779  LEU786  VAL792 
 PHE793  MET794  SER795  GLU796  ALA797  LYS798  CYS799  TRP800  GLU811  SER814 

> <Gold.Protein.RotatedAtoms>
  151.9853  135.0007  160.0558 H   0  0  0  0  0  0  0  0  0  0  0  0  # atno 6907 bound_to 6896
  152.1658  133.4606  159.4892 H   0  0  0  0  0  0  0  0  0  0  0  0  # atno 6908 bound_to 6896
  150.6894  134.1932  159.4336 H   0  0  0  0  0  0  0  0  0  0  0  0  # atno 6909 bound_to 6896
  145.6970  140.9131  143.0751 H   0  0  0  0  0  0  0  0  0  0  0  0  # atno 7974 bound_to 7965
  155.8631  140.3453  155.5770 H   0  0  0  0  0  0  0  0  0  0  0  0  # atno 8008 bound_to 7997
  155.7911  140.0872  157.2028 H   0  0  0  0  0  0  0  0  0  0  0  0  # atno 8009 bound_to 7997
  154.4013  140.1483  156.3151 H   0  0  0  0  0  0  0  0  0  0  0  0  # atno 8010 bound_to 7997
  140.7244  143.3817  151.1589 H   0  0  0  0  0  0  0  0  0  0  0  0  # atno 10167 bound_to 10162
  156.3671  130.4333  149.7576 H   0  0  0  0  0  0  0  0  0  0  0  0  # atno 10718 bound_to 10713
  154.3721  135.6093  153.5746 H   0  0  0  0  0  0  0  0  0  0  0  0  # atno 10763 bound_to 10752
  152.9790  135.5840  154.4509 H   0  0  0  0  0  0  0  0  0  0  0  0  # atno 10764 bound_to 10752
  154.4265  135.2847  155.1919 H   0  0  0  0  0  0  0  0  0  0  0  0  # atno 10765 bound_to 10752
  139.8771  134.9134  156.4736 H   0  0  0  0  0  0  0  0  0  0  0  0  # atno 11005 bound_to 11000
  144.6980  139.8896  143.7452 LP  0  0  0  0  0  0  0  0  0  0  0  0  # atno 17320 bound_to 7965
  146.0832  139.3820  143.0452 LP  0  0  0  0  0  0  0  0  0  0  0  0  # atno 17321 bound_to 7965
  139.7407  143.8929  152.3049 LP  0  0  0  0  0  0  0  0  0  0  0  0  # atno 17342 bound_to 10162
  139.8749  144.7048  150.8944 LP  0  0  0  0  0  0  0  0  0  0  0  0  # atno 17343 bound_to 10162
  156.4717  130.8000  151.3017 LP  0  0  0  0  0  0  0  0  0  0  0  0  # atno 17370 bound_to 10713
  157.7480  131.0034  150.3035 LP  0  0  0  0  0  0  0  0  0  0  0  0  # atno 17371 bound_to 10713
  140.8778  133.7940  155.9434 LP  0  0  0  0  0  0  0  0  0  0  0  0  # atno 17394 bound_to 11000
  140.8886  134.2524  157.5107 LP  0  0  0  0  0  0  0  0  0  0  0  0  # atno 17395 bound_to 11000

$$$$
