AV-unprocessed.smi:48|AV-procd|sdf|455|dock10
  -GOLD-   2262016323D 1   1.00000     0.00000
 Structure written by MMmdl.
 30 32  0  0  0  0  0  0  0  0  1 V2000
  145.5702  143.1204  155.3763 O   0  0  0  0  0  0  0  0  0  0  0  0
  145.7369  143.0388  153.9771 C   0  0  0  0  0  0  0  0  0  0  0  0
  146.8182  141.9991  153.6330 C   0  0  1  0  0  0  0  0  0  0  0  0
  148.0543  142.3253  154.2512 O   0  0  0  0  0  0  0  0  0  0  0  0
  148.8613  141.1913  154.2739 C   0  0  1  0  0  0  0  0  0  0  0  0
  149.6680  141.2186  155.5303 N   0  0  0  0  0  0  0  0  0  0  0  0
  149.4980  142.0346  156.5902 C   0  0  0  0  0  0  0  0  0  0  0  0
  150.3394  141.8957  157.6137 N   0  0  0  0  0  0  0  0  0  0  0  0
  151.1507  140.8660  157.1660 C   0  0  0  0  0  0  0  0  0  0  0  0
  152.2598  140.1995  157.7414 C   0  0  0  0  0  0  0  0  0  0  0  0
  152.8449  140.6358  159.3051 Cl  0  0  0  0  0  0  0  0  0  0  0  0
  152.8547  139.2086  157.0355 N   0  0  0  0  0  0  0  0  0  0  0  0
  152.3799  138.8902  155.8252 C   0  0  0  0  0  0  0  0  0  0  0  0
  151.3506  139.4252  155.1591 N   0  0  0  0  0  0  0  0  0  0  0  0
  150.7524  140.4257  155.8713 C   0  0  0  0  0  0  0  0  0  0  0  0
  147.9429  139.9573  154.2352 C   0  0  2  0  0  0  0  0  0  0  0  0
  148.2037  139.1681  153.0922 O   0  0  0  0  0  0  0  0  0  0  0  0
  146.5478  140.5686  154.1246 C   0  0  1  0  0  0  0  0  0  0  0  0
  145.9051  140.5610  155.3856 O   0  0  0  0  0  0  0  0  0  0  0  0
  146.9738  141.9611  152.5531 H   0  0  0  0  0  0  0  0  0  0  0  0
  149.5919  141.2235  153.4637 H   0  0  0  0  0  0  0  0  0  0  0  0
  148.0618  139.3425  155.1292 H   0  0  0  0  0  0  0  0  0  0  0  0
  145.9054  140.0263  153.4292 H   0  0  0  0  0  0  0  0  0  0  0  0
  146.3450  143.5127  155.7491 H   0  0  0  0  0  0  0  0  0  0  0  0
  144.7876  142.7992  153.4965 H   0  0  0  0  0  0  0  0  0  0  0  0
  146.0400  144.0265  153.6285 H   0  0  0  0  0  0  0  0  0  0  0  0
  148.7129  142.7767  156.6097 H   0  0  0  0  0  0  0  0  0  0  0  0
  152.8993  138.0920  155.3160 H   0  0  0  0  0  0  0  0  0  0  0  0
  148.8131  139.6339  152.5400 H   0  0  0  0  0  0  0  0  0  0  0  0
  144.9923  140.7700  155.2597 H   0  0  0  0  0  0  0  0  0  0  0  0
  1  2  1  0  0  0  0
  1 24  1  0  0  0  0
  2  3  1  0  0  0  0
  2 25  1  0  0  0  0
  2 26  1  0  0  0  0
  3 20  1  0  0  0  0
  3 18  1  0  0  0  0
  3  4  1  0  0  0  0
  4  5  1  0  0  0  0
  5 21  1  0  0  0  0
  5  6  1  0  0  0  0
  5 16  1  0  0  0  0
  6 15  1  0  0  0  0
  6  7  1  0  0  0  0
  7  8  2  0  0  0  0
  7 27  1  0  0  0  0
  8  9  1  0  0  0  0
  9 15  2  0  0  0  0
  9 10  1  0  0  0  0
 10 11  1  0  0  0  0
 10 12  2  0  0  0  0
 12 13  1  0  0  0  0
 13 14  2  0  0  0  0
 13 28  1  0  0  0  0
 14 15  1  0  0  0  0
 16 22  1  0  0  0  0
 16 17  1  0  0  0  0
 16 18  1  0  0  0  0
 17 29  1  0  0  0  0
 18 23  1  0  0  0  0
 18 19  1  0  0  0  0
 19 30  1  0  0  0  0
M  END
> <s_m_source_file>
AV-unprocessed.smi

> <i_m_source_file_index>
48

> <i_lp_mmshare_version>
43012

> <i_f3d_flags>
0

> <s_epik_input>
W09IXVtDSDJdW0NASF0xT1tDQEhdKFtDQEhdKFtPSF0pW0NAQEhdMVtPSF0pbihbY0hdbjIpYyhjMjMpbltjSF1uYzNDbA==

> <s_epik_cmdline>
J2VwaWtfcHl0aG9uJywgJy1waCcsICc3LjAnLCAnLXRuJywgJzgnLCAnLW1hJywgJzIwMCcsICctbWV0YWxfYmluZGluZycsICctaW1hZScsICc8aW5maWxlLm1hZT4nLCAnLW9tYWUnLCAnPG91dGZpbGUubWFlPic=

> <r_lp_tautomer_probability>
1

> <r_epik_Ionization_Penalty>
3.45505e-06

> <r_epik_Ionization_Penalty_Charging>
0

> <r_epik_Ionization_Penalty_Neutral>
3.45505e-06

> <r_epik_State_Penalty>
-0

> <r_epik_Charging_Adjusted_Penalty>
0

> <i_epik_Tot_Q>
0

> <i_epik_Tot_abs_Q>
0

> <r_epik_Metal_State_Penalty>
-0

> <b_epik_Metal_Only>
0

> <s_epik_Chemistry_Notes>
This compound contains an acetal/aminal-like group ( X-CH(R)-Y where X, Y are N, S, or O) that may be acid/base labile, releasing an aldehyde.

> <s_lp_Force_Field>
OPLS_2005

> <r_lp_Energy>
33.2991

> <b_lp_Chiralities_Consistent>
1

> <s_lp_Variant>
AV-unprocessed.smi:48-9

> <Gold.Version>
5.8.1

> <Gold.Id.Protein>
6NUR|6NUR_protein|mol2

> <Gold.PLP.Fitness>
39.0042

> <Gold.PLP.PLP>
-29.3183

> <Gold.PLP.part.hbond>
-2.9725

> <Gold.PLP.part.metal>
0.0000

> <Gold.PLP.part.buried>
-4.1620

> <Gold.PLP.part.nonpolar>
-24.8990

> <Gold.PLP.part.repulsive>
2.0633

> <Gold.PLP.ligand.clash>
0.0000

> <Gold.PLP.ligand.torsion>
0.2771

> <Gold.PLP.Chemscore.Hbond>
2.6675

> <Gold.PLP.Chemscore.CHOScore>
0.7440

> <Gold.PLP.Chemscore.Metal>
0.0000

> <Gold.Chemscore.Hbonds>
donor molecule, donor type, donor heavy atom, donor atom, acceptor molecule, acceptor atom, score
      L1  H    17    29       P1  7957  1.00
      P1  H  7989  7998       L1    14  0.24
      P1  H  7997  8008       L1    12  0.90
      L1  C     7    27       P1  8028  0.88

> <Gold.PLP.Chemscore.Internal.Correction>
0.0057

> <Gold.Rescore>
     Score         DG    S(hbond)    S(metal)    S(lipo)     H(rot)  DE(clash)    DE(int)     intcor
      3.66      -5.41       1.33        0.00      44.51       3.80       1.62       0.13       ----

> <Gold.Chemscore.Fitness>
3.6601

> <Gold.Chemscore.DG>
-5.4105

> <Gold.Chemscore.ZeroCoef>
-5.4800

> <Gold.Chemscore.Hbond>
1.3338

> <Gold.Chemscore.Metal>
0.0000

> <Gold.Chemscore.Lipo>
44.5120

> <Gold.Chemscore.Internal_Hbond>
0.0000

> <Gold.Chemscore.DEClash>
1.6209

> <Gold.Chemscore.DEInternal>
0.1295

> <Gold.Chemscore.Rot>
3.8017

> <Gold.Chemscore.Internal.Correction>
   9.000000E+99

> <Gold.Chemscore.Hbonds>
donor molecule, donor type, donor heavy atom, donor atom, acceptor molecule, acceptor atom, score
      L1  H    17    29       P1  7957  0.98
      P1  H  7989  7998       L1    14  0.01
      P1  H  7997  8008       L1    12  0.07

> <Gold.Chemscore.Hbond.Weighted>
-4.4550

> <Gold.Chemscore.Metal.Weighted>
-0.0000

> <Gold.Chemscore.Lipo.Weighted>
-5.2079

> <Gold.Chemscore.Internal_Hbond.Weighted>
0.0000

> <Gold.Chemscore.DEClash.Weighted>
1.6209

> <Gold.Chemscore.DEInternal.Weighted>
0.1295

> <Gold.Chemscore.Rot.Weighted>
9.7324

> <Gold.Chemscore.Internal.Correction.Weighted>
   9.000000E+99

> <Gold.Protein.RotatedTorsions>
[ 6907 6896 6895 6894 ] final  141.67 input  -60.11 | X-H torsion
[ 7974 7965 7964 7962 ] final -160.47 input  175.53 | X-H torsion
[ 8008 7997 7996 7995 ] final  -61.79 input   59.86 | X-H torsion
[ 10167 10162 10161 10158 ] final   74.39 input  -65.29 | X-H torsion
[ 10718 10713 10712 10709 ] final  -78.69 input   66.30 | X-H torsion
[ 10763 10752 10751 10750 ] final  110.17 input  -60.55 | X-H torsion
[ 11005 11000 10999 10996 ] final  -19.97 input  -57.11 | X-H torsion

> <Gold.Protein.ActiveResidues>
 VAL166  LYS551  ARG553  GLY616  TRP617  ASP618  TYR619  PRO620  LYS621  CYS622 
 ASP623  PHE694  ASN695  SER759  ASP760  ASP761  ALA762  ILE779  LEU786  VAL792 
 PHE793  MET794  SER795  GLU796  ALA797  LYS798  CYS799  TRP800  GLU811  SER814 

> <Gold.Protein.RotatedAtoms>
  152.2281  133.5037  159.5200 H   0  0  0  0  0  0  0  0  0  0  0  0  # atno 6907 bound_to 6896
  150.7030  134.1252  159.4058 H   0  0  0  0  0  0  0  0  0  0  0  0  # atno 6908 bound_to 6896
  151.9173  135.0313  160.0570 H   0  0  0  0  0  0  0  0  0  0  0  0  # atno 6909 bound_to 6896
  144.7426  140.3537  143.6110 H   0  0  0  0  0  0  0  0  0  0  0  0  # atno 7974 bound_to 7965
  154.4466  140.1010  156.6486 H   0  0  0  0  0  0  0  0  0  0  0  0  # atno 8008 bound_to 7997
  155.5422  140.3484  155.4431 H   0  0  0  0  0  0  0  0  0  0  0  0  # atno 8009 bound_to 7997
  156.0589  140.1321  156.9954 H   0  0  0  0  0  0  0  0  0  0  0  0  # atno 8010 bound_to 7997
  140.0142  144.5591  150.7634 H   0  0  0  0  0  0  0  0  0  0  0  0  # atno 10167 bound_to 10162
  156.0111  130.4525  150.3535 H   0  0  0  0  0  0  0  0  0  0  0  0  # atno 10718 bound_to 10713
  153.4451  135.3757  155.2251 H   0  0  0  0  0  0  0  0  0  0  0  0  # atno 10763 bound_to 10752
  154.8755  135.3872  154.4106 H   0  0  0  0  0  0  0  0  0  0  0  0  # atno 10764 bound_to 10752
  153.4657  135.7087  153.6087 H   0  0  0  0  0  0  0  0  0  0  0  0  # atno 10765 bound_to 10752
  140.8419  133.7920  155.9870 H   0  0  0  0  0  0  0  0  0  0  0  0  # atno 11005 bound_to 11000
  145.7250  139.1720  143.2463 LP  0  0  0  0  0  0  0  0  0  0  0  0  # atno 17320 bound_to 7965
  146.1249  140.7261  142.9440 LP  0  0  0  0  0  0  0  0  0  0  0  0  # atno 17321 bound_to 7965
  140.7369  143.2759  151.3745 LP  0  0  0  0  0  0  0  0  0  0  0  0  # atno 17342 bound_to 10162
  139.6184  144.0956  152.2368 LP  0  0  0  0  0  0  0  0  0  0  0  0  # atno 17343 bound_to 10162
  157.1626  131.0349  151.2834 LP  0  0  0  0  0  0  0  0  0  0  0  0  # atno 17370 bound_to 10713
  157.4298  130.7484  149.6981 LP  0  0  0  0  0  0  0  0  0  0  0  0  # atno 17371 bound_to 10713
  140.8886  134.2523  157.5106 LP  0  0  0  0  0  0  0  0  0  0  0  0  # atno 17394 bound_to 11000
  139.8703  134.9650  156.4515 LP  0  0  0  0  0  0  0  0  0  0  0  0  # atno 17395 bound_to 11000

$$$$
