AV-unprocessed.smi:1648|AV-procd|sdf|6629|dock4
  -GOLD-   22720 7333D 1   1.00000     0.00000
 Structure written by MMmdl.
 42 42  0  0  0  0  0  0  0  0  2 V2000
  149.7818  135.4548  156.0989 C   0  0  0  0  0  0  0  0  0  0  0  0
  150.2522  136.7171  155.3739 C   0  0  0  0  0  0  0  0  0  0  0  0
  151.4277  136.8128  155.0292 O   0  0  0  0  0  0  0  0  0  0  0  0
  149.3716  137.7032  155.1296 N   0  0  0  0  0  0  0  0  0  0  0  0
  149.6261  138.9785  154.4540 C   0  0  2  0  0  0  0  0  0  0  0  0
  150.5253  139.8418  155.3594 C   0  0  0  0  0  0  0  0  0  0  0  0
  151.6301  140.2216  154.9675 O   0  0  0  0  0  0  0  0  0  0  0  0
  150.0436  140.1235  156.5804 N   0  0  0  0  0  0  0  0  0  0  0  0
  150.7373  140.9042  157.5998 C   0  0  1  0  0  0  0  0  0  0  0  0
  151.9902  140.1400  158.0566 C   0  0  0  0  0  0  0  0  0  0  0  0
  151.0495  142.3176  157.0609 C   0  0  0  0  0  0  0  0  0  0  0  0
  151.4084  143.2683  158.1167 N   0  0  0  0  0  0  0  0  0  0  0  0
  151.2176  144.6265  158.1187 C   0  0  0  0  0  0  0  0  0  0  0  0
  151.7033  145.0871  159.3155 C   0  0  0  0  0  0  0  0  0  0  0  0
  152.1651  143.9914  159.9943 N   0  3  0  0  0  0  0  0  0  0  0  0
  151.9830  142.8861  159.2645 C   0  0  0  0  0  0  0  0  0  0  0  0
  148.2658  139.7003  154.2195 C   0  0  0  0  0  0  0  0  0  0  0  0
  147.4667  139.0567  153.0689 C   0  0  0  0  0  0  0  0  0  0  0  0
  148.4202  141.2106  153.9411 C   0  0  0  0  0  0  0  0  0  0  0  0
  149.4366  135.6940  157.1050 H   0  0  0  0  0  0  0  0  0  0  0  0
  150.5984  134.7374  156.1877 H   0  0  0  0  0  0  0  0  0  0  0  0
  148.9711  134.9709  155.5539 H   0  0  0  0  0  0  0  0  0  0  0  0
  148.4293  137.5642  155.4653 H   0  0  0  0  0  0  0  0  0  0  0  0
  150.1106  138.8105  153.4907 H   0  0  0  0  0  0  0  0  0  0  0  0
  149.1284  139.7701  156.8201 H   0  0  0  0  0  0  0  0  0  0  0  0
  150.0815  140.9986  158.4676 H   0  0  0  0  0  0  0  0  0  0  0  0
  152.4943  140.6513  158.8767 H   0  0  0  0  0  0  0  0  0  0  0  0
  152.7064  140.0283  157.2420 H   0  0  0  0  0  0  0  0  0  0  0  0
  151.7311  139.1416  158.4108 H   0  0  0  0  0  0  0  0  0  0  0  0
  151.8746  142.2819  156.3478 H   0  0  0  0  0  0  0  0  0  0  0  0
  150.1906  142.7288  156.5281 H   0  0  0  0  0  0  0  0  0  0  0  0
  150.7640  145.1510  157.2900 H   0  0  0  0  0  0  0  0  0  0  0  0
  151.7515  146.0859  159.7248 H   0  0  0  0  0  0  0  0  0  0  0  0
  152.2485  141.8824  159.5461 H   0  0  0  0  0  0  0  0  0  0  0  0
  147.6599  139.5990  155.1219 H   0  0  0  0  0  0  0  0  0  0  0  0
  148.0241  139.0940  152.1324 H   0  0  0  0  0  0  0  0  0  0  0  0
  146.5199  139.5741  152.9112 H   0  0  0  0  0  0  0  0  0  0  0  0
  147.2256  138.0128  153.2707 H   0  0  0  0  0  0  0  0  0  0  0  0
  149.0603  141.3886  153.0765 H   0  0  0  0  0  0  0  0  0  0  0  0
  148.8475  141.7459  154.7891 H   0  0  0  0  0  0  0  0  0  0  0  0
  147.4535  141.6715  153.7362 H   0  0  0  0  0  0  0  0  0  0  0  0
  152.5820  144.0120  160.9168 H   0  0  0  0  0  0  0  0  0  0  0  0
  1  2  1  0  0  0  0
  1 20  1  0  0  0  0
  1 21  1  0  0  0  0
  1 22  1  0  0  0  0
  2  3  2  0  0  0  0
  2  4  1  0  0  0  0
  4  5  1  0  0  0  0
  4 23  1  0  0  0  0
  5  6  1  0  0  0  0
  5 17  1  0  0  0  0
  5 24  1  0  0  0  0
  6  7  2  0  0  0  0
  6  8  1  0  0  0  0
  8  9  1  0  0  0  0
  8 25  1  0  0  0  0
  9 10  1  0  0  0  0
  9 11  1  0  0  0  0
  9 26  1  0  0  0  0
 10 27  1  0  0  0  0
 10 28  1  0  0  0  0
 10 29  1  0  0  0  0
 11 12  1  0  0  0  0
 11 30  1  0  0  0  0
 11 31  1  0  0  0  0
 12 16  1  0  0  0  0
 12 13  1  0  0  0  0
 13 14  2  0  0  0  0
 13 32  1  0  0  0  0
 14 15  1  0  0  0  0
 14 33  1  0  0  0  0
 15 16  2  0  0  0  0
 15 42  1  0  0  0  0
 16 34  1  0  0  0  0
 17 18  1  0  0  0  0
 17 19  1  0  0  0  0
 17 35  1  0  0  0  0
 18 36  1  0  0  0  0
 18 37  1  0  0  0  0
 18 38  1  0  0  0  0
 19 39  1  0  0  0  0
 19 40  1  0  0  0  0
 19 41  1  0  0  0  0
M  CHG  1  15   1
M  END
> <s_m_source_file>
AV-unprocessed.smi

> <i_m_source_file_index>
1648

> <i_lp_mmshare_version>
43012

> <i_f3d_flags>
0

> <s_epik_input>
W0NIM11DKD1PKVtOSF1bQ0BASF0oW0NIXShbQ0gzXSlbQ0gzXSlDKD1PKVtOSF1bQ0BIXShbQ0gzXSlbQ0gyXW4xW2NIXVtjSF1uW2NIXTE=

> <s_epik_cmdline>
J2VwaWtfcHl0aG9uJywgJy1waCcsICc3LjAnLCAnLXRuJywgJzgnLCAnLW1hJywgJzIwMCcsICctbWV0YWxfYmluZGluZycsICctaW1hZScsICc8aW5maWxlLm1hZT4nLCAnLW9tYWUnLCAnPG91dGZpbGUubWFlPic=

> <r_lp_tautomer_probability>
1

> <r_epik_Ionization_Penalty>
0.251562

> <r_epik_Ionization_Penalty_Charging>
0

> <r_epik_Ionization_Penalty_Neutral>
0.251562

> <r_epik_State_Penalty>
0.242926

> <r_epik_Charging_Adjusted_Penalty>
0.242926

> <i_epik_Tot_Q>
1

> <i_epik_Tot_abs_Q>
1

> <r_epik_Metal_State_Penalty>
0.53388

> <b_epik_Metal_Only>
0

> <s_lp_Force_Field>
OPLS_2005

> <r_lp_Energy>
11.8238

> <b_lp_Chiralities_Consistent>
1

> <s_lp_Variant>
AV-unprocessed.smi:1648-3

> <Gold.Version>
5.8.1

> <Gold.Id.Protein>
6NUR|6NUR_protein|mol2

> <Gold.PLP.Fitness>
44.9412

> <Gold.PLP.PLP>
-37.5316

> <Gold.PLP.part.hbond>
-1.7400

> <Gold.PLP.part.metal>
0.0000

> <Gold.PLP.part.buried>
-5.2142

> <Gold.PLP.part.nonpolar>
-31.0067

> <Gold.PLP.part.repulsive>
0.2401

> <Gold.PLP.ligand.clash>
0.0003

> <Gold.PLP.ligand.torsion>
0.8152

> <Gold.PLP.Chemscore.Hbond>
1.9920

> <Gold.PLP.Chemscore.CHOScore>
1.0000

> <Gold.PLP.Chemscore.Metal>
0.0000

> <Gold.Chemscore.Hbonds>
donor molecule, donor type, donor heavy atom, donor atom, acceptor molecule, acceptor atom, score
      P1  H  7989  7998       L1     7  0.98
      P1  H 10752 10763       L1     3  1.00
      L1  C    13    32       P1  8028  1.00

> <Gold.PLP.Chemscore.Internal.Correction>
0.0642

> <Gold.Rescore>
     Score         DG    S(hbond)    S(metal)    S(lipo)     H(rot)  DE(clash)    DE(int)     intcor
     11.43     -13.71       1.94        0.00      72.05       2.61       0.01       2.28       ----

> <Gold.Chemscore.Fitness>
11.4303

> <Gold.Chemscore.DG>
-13.7132

> <Gold.Chemscore.ZeroCoef>
-5.4800

> <Gold.Chemscore.Hbond>
1.9444

> <Gold.Chemscore.Metal>
0.0000

> <Gold.Chemscore.Lipo>
72.0472

> <Gold.Chemscore.Internal_Hbond>
0.0000

> <Gold.Chemscore.DEClash>
0.0074

> <Gold.Chemscore.DEInternal>
2.2756

> <Gold.Chemscore.Rot>
2.6135

> <Gold.Chemscore.Internal.Correction>
   9.000000E+99

> <Gold.Chemscore.Hbonds>
donor molecule, donor type, donor heavy atom, donor atom, acceptor molecule, acceptor atom, score
      P1  H  7989  7998       L1     7  0.85
      P1  H 10752 10763       L1     3  0.97

> <Gold.Chemscore.Hbond.Weighted>
-6.4943

> <Gold.Chemscore.Metal.Weighted>
-0.0000

> <Gold.Chemscore.Lipo.Weighted>
-8.4295

> <Gold.Chemscore.Internal_Hbond.Weighted>
0.0000

> <Gold.Chemscore.DEClash.Weighted>
0.0074

> <Gold.Chemscore.DEInternal.Weighted>
2.2756

> <Gold.Chemscore.Rot.Weighted>
6.6906

> <Gold.Chemscore.Internal.Correction.Weighted>
   9.000000E+99

> <Gold.Protein.RotatedTorsions>
[ 6907 6896 6895 6894 ] final  -13.51 input  -60.11 | X-H torsion
[ 7974 7965 7964 7962 ] final  -50.30 input  175.53 | X-H torsion
[ 8008 7997 7996 7995 ] final -134.79 input   59.86 | X-H torsion
[ 10167 10162 10161 10158 ] final  124.05 input  -65.29 | X-H torsion
[ 10718 10713 10712 10709 ] final  -69.13 input   66.30 | X-H torsion
[ 10763 10752 10751 10750 ] final   64.59 input  -60.55 | X-H torsion
[ 11005 11000 10999 10996 ] final  -86.40 input  -57.11 | X-H torsion

> <Gold.Protein.ActiveResidues>
 VAL166  LYS551  ARG553  GLY616  TRP617  ASP618  TYR619  PRO620  LYS621  CYS622 
 ASP623  PHE694  ASN695  SER759  ASP760  ASP761  ALA762  ILE779  LEU786  VAL792 
 PHE793  MET794  SER795  GLU796  ALA797  LYS798  CYS799  TRP800  GLU811  SER814 

> <Gold.Protein.RotatedAtoms>
  151.3538  135.0890  159.9411 H   0  0  0  0  0  0  0  0  0  0  0  0  # atno 6907 bound_to 6896
  152.5180  133.9326  159.7598 H   0  0  0  0  0  0  0  0  0  0  0  0  # atno 6908 bound_to 6896
  150.9706  133.6294  159.2768 H   0  0  0  0  0  0  0  0  0  0  0  0  # atno 6909 bound_to 6896
  145.9313  140.7747  142.9598 H   0  0  0  0  0  0  0  0  0  0  0  0  # atno 7974 bound_to 7965
  155.3680  140.0486  157.3046 H   0  0  0  0  0  0  0  0  0  0  0  0  # atno 8008 bound_to 7997
  154.5144  140.2203  155.9056 H   0  0  0  0  0  0  0  0  0  0  0  0  # atno 8009 bound_to 7997
  156.1620  140.3114  155.8829 H   0  0  0  0  0  0  0  0  0  0  0  0  # atno 8010 bound_to 7997
  139.5764  144.6965  151.3642 H   0  0  0  0  0  0  0  0  0  0  0  0  # atno 10167 bound_to 10162
  156.0471  130.4307  150.2102 H   0  0  0  0  0  0  0  0  0  0  0  0  # atno 10718 bound_to 10713
  153.0062  135.5387  154.6534 H   0  0  0  0  0  0  0  0  0  0  0  0  # atno 10763 bound_to 10752
  154.5761  135.2846  155.0782 H   0  0  0  0  0  0  0  0  0  0  0  0  # atno 10764 bound_to 10752
  154.1929  135.6497  153.5117 H   0  0  0  0  0  0  0  0  0  0  0  0  # atno 10765 bound_to 10752
  141.1630  133.7452  156.9156 H   0  0  0  0  0  0  0  0  0  0  0  0  # atno 11005 bound_to 11000
  144.6765  140.2131  143.7375 LP  0  0  0  0  0  0  0  0  0  0  0  0  # atno 17320 bound_to 7965
  145.8422  139.2135  143.1820 LP  0  0  0  0  0  0  0  0  0  0  0  0  # atno 17321 bound_to 7965
  140.7046  143.7546  150.7460 LP  0  0  0  0  0  0  0  0  0  0  0  0  # atno 17342 bound_to 10162
  140.1067  143.4737  152.2394 LP  0  0  0  0  0  0  0  0  0  0  0  0  # atno 17343 bound_to 10162
  157.0190  130.9974  151.3345 LP  0  0  0  0  0  0  0  0  0  0  0  0  # atno 17370 bound_to 10713
  157.5357  130.8087  149.7969 LP  0  0  0  0  0  0  0  0  0  0  0  0  # atno 17371 bound_to 10713
  140.1487  134.9245  157.2564 LP  0  0  0  0  0  0  0  0  0  0  0  0  # atno 17394 bound_to 11000
  140.2749  134.3417  155.7361 LP  0  0  0  0  0  0  0  0  0  0  0  0  # atno 17395 bound_to 11000

$$$$
