AV-unprocessed.smi:3061|AV-procd|sdf|11679|dock10
  -GOLD-   2272017 83D 1   1.00000     0.00000
 Structure written by MMmdl.
 35 36  0  0  0  0  0  0  0  0  1 V2000
  146.0086  143.0211  156.7362 C   0  0  0  0  0  0  0  0  0  0  0  0
  146.9165  142.5673  157.8894 C   0  0  2  0  0  0  0  0  0  0  0  0
  146.7512  143.4690  159.1278 C   0  0  0  0  0  0  0  0  0  0  0  0
  145.7820  142.9394  160.0704 N   0  0  0  0  0  0  0  0  0  0  0  0
  145.1867  143.5123  161.1177 C   0  0  0  0  0  0  0  0  0  0  0  0
  144.3548  142.7090  161.7659 N   0  0  0  0  0  0  0  0  0  0  0  0
  144.4928  141.5795  161.0092 C   0  0  0  0  0  0  0  0  0  0  0  0
  145.3374  141.6643  159.9813 N   0  0  0  0  0  0  0  0  0  0  0  0
  148.3116  142.5692  157.4537 N   0  0  0  0  0  0  0  0  0  0  0  0
  149.1567  141.5306  157.5384 C   0  0  0  0  0  0  0  0  0  0  0  0
  148.8325  140.4282  157.9811 O   0  0  0  0  0  0  0  0  0  0  0  0
  150.5927  141.7787  157.0516 C   0  0  2  0  0  0  0  0  0  0  0  0
  151.4333  140.4858  157.0831 C   0  0  0  0  0  0  0  0  0  0  0  0
  152.4814  140.7521  158.1507 C   0  0  0  0  0  0  0  0  0  0  0  0
  153.2938  139.9037  158.5160 O   0  0  0  0  0  0  0  0  0  0  0  0
  152.3829  141.9999  158.6170 N   0  0  0  0  0  0  0  0  0  0  0  0
  153.2263  142.5932  159.6456 C   0  0  0  0  0  0  0  0  0  0  0  0
  151.3532  142.7787  157.9506 C   0  0  0  0  0  0  0  0  0  0  0  0
  144.9607  143.0132  157.0370 H   0  0  0  0  0  0  0  0  0  0  0  0
  146.1061  142.3612  155.8732 H   0  0  0  0  0  0  0  0  0  0  0  0
  146.2538  144.0329  156.4115 H   0  0  0  0  0  0  0  0  0  0  0  0
  146.6251  141.5529  158.1693 H   0  0  0  0  0  0  0  0  0  0  0  0
  147.7050  143.5967  159.6416 H   0  0  0  0  0  0  0  0  0  0  0  0
  146.4233  144.4655  158.8280 H   0  0  0  0  0  0  0  0  0  0  0  0
  145.3705  144.5342  161.4155 H   0  0  0  0  0  0  0  0  0  0  0  0
  143.9554  140.6674  161.2229 H   0  0  0  0  0  0  0  0  0  0  0  0
  148.6658  143.4335  157.0708 H   0  0  0  0  0  0  0  0  0  0  0  0
  150.5596  142.1668  156.0319 H   0  0  0  0  0  0  0  0  0  0  0  0
  150.8572  139.5929  157.3319 H   0  0  0  0  0  0  0  0  0  0  0  0
  151.9246  140.3128  156.1253 H   0  0  0  0  0  0  0  0  0  0  0  0
  154.2550  142.6762  159.2938 H   0  0  0  0  0  0  0  0  0  0  0  0
  153.2195  141.9819  160.5489 H   0  0  0  0  0  0  0  0  0  0  0  0
  152.8773  143.5915  159.9117 H   0  0  0  0  0  0  0  0  0  0  0  0
  151.8216  143.5602  157.3509 H   0  0  0  0  0  0  0  0  0  0  0  0
  150.7106  143.2690  158.6845 H   0  0  0  0  0  0  0  0  0  0  0  0
  1  2  1  0  0  0  0
  1 19  1  0  0  0  0
  1 20  1  0  0  0  0
  1 21  1  0  0  0  0
  2  3  1  0  0  0  0
  2  9  1  0  0  0  0
  2 22  1  0  0  0  0
  3  4  1  0  0  0  0
  3 23  1  0  0  0  0
  3 24  1  0  0  0  0
  4  8  1  0  0  0  0
  4  5  1  0  0  0  0
  5  6  2  0  0  0  0
  5 25  1  0  0  0  0
  6  7  1  0  0  0  0
  7  8  2  0  0  0  0
  7 26  1  0  0  0  0
  9 10  1  0  0  0  0
  9 27  1  0  0  0  0
 10 11  2  0  0  0  0
 10 12  1  0  0  0  0
 12 18  1  0  0  0  0
 12 13  1  0  0  0  0
 12 28  1  0  0  0  0
 13 14  1  0  0  0  0
 13 29  1  0  0  0  0
 13 30  1  0  0  0  0
 14 15  2  0  0  0  0
 14 16  1  0  0  0  0
 16 17  1  0  0  0  0
 16 18  1  0  0  0  0
 17 31  1  0  0  0  0
 17 32  1  0  0  0  0
 17 33  1  0  0  0  0
 18 34  1  0  0  0  0
 18 35  1  0  0  0  0
M  END
> <s_m_source_file>
AV-unprocessed.smi

> <i_m_source_file_index>
3061

> <i_lp_mmshare_version>
43012

> <i_f3d_flags>
0

> <s_epik_input>
bjFbY0hdbltjSF1uMVtDSDJdW0NAQEhdKFtDSDNdKVtOSF1DKD1PKVtDQEBIXTJbQ0gyXUMoPU8pTihbQ0gzXSlbQ0gyXTI=

> <s_epik_cmdline>
J2VwaWtfcHl0aG9uJywgJy1waCcsICc3LjAnLCAnLXRuJywgJzgnLCAnLW1hJywgJzIwMCcsICctbWV0YWxfYmluZGluZycsICctaW1hZScsICc8aW5maWxlLm1hZT4nLCAnLW9tYWUnLCAnPG91dGZpbGUubWFlPic=

> <r_lp_tautomer_probability>
1

> <r_epik_Ionization_Penalty>
4.97611e-05

> <r_epik_Ionization_Penalty_Charging>
0

> <r_epik_Ionization_Penalty_Neutral>
4.97611e-05

> <r_epik_State_Penalty>
-0

> <r_epik_Charging_Adjusted_Penalty>
0

> <i_epik_Tot_Q>
0

> <i_epik_Tot_abs_Q>
0

> <r_epik_Metal_State_Penalty>
-0

> <b_epik_Metal_Only>
0

> <s_lp_Force_Field>
OPLS_2005

> <r_lp_Energy>
14.0738

> <b_lp_Chiralities_Consistent>
1

> <s_lp_Variant>
AV-unprocessed.smi:3061-1

> <Gold.Version>
5.8.1

> <Gold.Id.Protein>
6NUR|6NUR_protein|mol2

> <Gold.PLP.Fitness>
35.1484

> <Gold.PLP.PLP>
-27.6628

> <Gold.PLP.part.hbond>
-3.1669

> <Gold.PLP.part.metal>
0.0000

> <Gold.PLP.part.buried>
-4.0912

> <Gold.PLP.part.nonpolar>
-19.2211

> <Gold.PLP.part.repulsive>
0.0873

> <Gold.PLP.ligand.clash>
0.0000

> <Gold.PLP.ligand.torsion>
0.7674

> <Gold.PLP.Chemscore.Hbond>
3.0000

> <Gold.PLP.Chemscore.CHOScore>
0.0000

> <Gold.PLP.Chemscore.Metal>
0.0000

> <Gold.Chemscore.Hbonds>
donor molecule, donor type, donor heavy atom, donor atom, acceptor molecule, acceptor atom, score
      L1  H     9    27       P1  8028  1.00
      P1  H  6934  6946       L1     8  0.85
      P1  H  7997  8009       L1    15  1.00

> <Gold.PLP.Chemscore.Internal.Correction>
0.0204

> <Gold.Rescore>
     Score         DG    S(hbond)    S(metal)    S(lipo)     H(rot)  DE(clash)    DE(int)     intcor
      8.90      -9.99       1.88        0.00      37.73       2.42       0.12       0.96       ----

> <Gold.Chemscore.Fitness>
8.9027

> <Gold.Chemscore.DG>
-9.9895

> <Gold.Chemscore.ZeroCoef>
-5.4800

> <Gold.Chemscore.Hbond>
1.8832

> <Gold.Chemscore.Metal>
0.0000

> <Gold.Chemscore.Lipo>
37.7262

> <Gold.Chemscore.Internal_Hbond>
0.0000

> <Gold.Chemscore.DEClash>
0.1232

> <Gold.Chemscore.DEInternal>
0.9636

> <Gold.Chemscore.Rot>
2.4197

> <Gold.Chemscore.Internal.Correction>
   9.000000E+99

> <Gold.Chemscore.Hbonds>
donor molecule, donor type, donor heavy atom, donor atom, acceptor molecule, acceptor atom, score
      L1  H     9    27       P1  8028  0.29
      P1  H  6934  6946       L1     8  0.04
      P1  H  7997  8009       L1    15  0.25

> <Gold.Chemscore.Hbond.Weighted>
-6.2900

> <Gold.Chemscore.Metal.Weighted>
-0.0000

> <Gold.Chemscore.Lipo.Weighted>
-4.4140

> <Gold.Chemscore.Internal_Hbond.Weighted>
0.0000

> <Gold.Chemscore.DEClash.Weighted>
0.1232

> <Gold.Chemscore.DEInternal.Weighted>
0.9636

> <Gold.Chemscore.Rot.Weighted>
6.1945

> <Gold.Chemscore.Internal.Correction.Weighted>
   9.000000E+99

> <Gold.Protein.RotatedTorsions>
[ 6907 6896 6895 6894 ] final  -51.80 input  -60.11 | X-H torsion
[ 7974 7965 7964 7962 ] final  104.73 input  175.53 | X-H torsion
[ 8008 7997 7996 7995 ] final  153.81 input   59.86 | X-H torsion
[ 10167 10162 10161 10158 ] final -131.50 input  -65.29 | X-H torsion
[ 10718 10713 10712 10709 ] final  104.25 input   66.30 | X-H torsion
[ 10763 10752 10751 10750 ] final  156.85 input  -60.55 | X-H torsion
[ 11005 11000 10999 10996 ] final   39.32 input  -57.11 | X-H torsion

> <Gold.Protein.ActiveResidues>
 VAL166  LYS551  ARG553  GLY616  TRP617  ASP618  TYR619  PRO620  LYS621  CYS622 
 ASP623  PHE694  ASN695  SER759  ASP760  ASP761  ALA762  ILE779  LEU786  VAL792 
 PHE793  MET794  SER795  GLU796  ALA797  LYS798  CYS799  TRP800  GLU811  SER814 

> <Gold.Protein.RotatedAtoms>
  150.8577  134.7920  159.7058 H   0  0  0  0  0  0  0  0  0  0  0  0  # atno 6907 bound_to 6896
  152.4623  134.5151  159.9775 H   0  0  0  0  0  0  0  0  0  0  0  0  # atno 6908 bound_to 6896
  151.5261  133.3419  159.2945 H   0  0  0  0  0  0  0  0  0  0  0  0  # atno 6909 bound_to 6896
  145.3289  139.2492  143.3671 H   0  0  0  0  0  0  0  0  0  0  0  0  # atno 7974 bound_to 7965
  156.2563  140.1983  156.6548 H   0  0  0  0  0  0  0  0  0  0  0  0  # atno 8008 bound_to 7997
  154.6509  140.0572  156.9979 H   0  0  0  0  0  0  0  0  0  0  0  0  # atno 8009 bound_to 7997
  155.1420  140.3243  155.4453 H   0  0  0  0  0  0  0  0  0  0  0  0  # atno 8010 bound_to 7997
  139.9183  143.6412  152.2559 H   0  0  0  0  0  0  0  0  0  0  0  0  # atno 10167 bound_to 10162
  157.6746  131.0799  150.5678 H   0  0  0  0  0  0  0  0  0  0  0  0  # atno 10718 bound_to 10713
  154.1910  135.2795  155.3022 H   0  0  0  0  0  0  0  0  0  0  0  0  # atno 10763 bound_to 10752
  154.5929  135.5554  153.7300 H   0  0  0  0  0  0  0  0  0  0  0  0  # atno 10764 bound_to 10752
  153.0112  135.6373  154.2048 H   0  0  0  0  0  0  0  0  0  0  0  0  # atno 10765 bound_to 10752
  140.2040  134.3836  155.8082 H   0  0  0  0  0  0  0  0  0  0  0  0  # atno 11005 bound_to 11000
  146.3053  140.3862  142.8689 LP  0  0  0  0  0  0  0  0  0  0  0  0  # atno 17320 bound_to 7965
  144.8880  140.7487  143.5945 LP  0  0  0  0  0  0  0  0  0  0  0  0  # atno 17321 bound_to 7965
  139.6883  144.7649  151.1483 LP  0  0  0  0  0  0  0  0  0  0  0  0  # atno 17342 bound_to 10162
  140.7668  143.5625  150.9083 LP  0  0  0  0  0  0  0  0  0  0  0  0  # atno 17343 bound_to 10162
  156.5980  130.4347  149.5909 LP  0  0  0  0  0  0  0  0  0  0  0  0  # atno 17370 bound_to 10713
  156.2529  130.6918  151.1661 LP  0  0  0  0  0  0  0  0  0  0  0  0  # atno 17371 bound_to 10713
  141.2227  133.7108  156.8305 LP  0  0  0  0  0  0  0  0  0  0  0  0  # atno 17394 bound_to 11000
  140.2023  134.8888  157.3183 LP  0  0  0  0  0  0  0  0  0  0  0  0  # atno 17395 bound_to 11000

$$$$
