AV-unprocessed.smi:3327|AV-procd|sdf|12790|dock9
  -GOLD-   2272019143D 1   1.00000     0.00000
 Structure written by MMmdl.
 40 41  0  0  0  0  0  0  0  0  1 V2000
  151.4891  144.6835  158.9573 C   0  0  0  0  0  0  0  0  0  0  0  0
  152.2052  143.3315  158.8332 C   0  0  1  0  0  0  0  0  0  0  0  0
  152.9924  142.9864  160.1165 C   0  0  0  0  0  0  0  0  0  0  0  0
  153.6166  141.5796  160.0495 C   0  0  0  0  0  0  0  0  0  0  0  0
  152.5632  140.5330  159.6471 C   0  0  0  0  0  0  0  0  0  0  0  0
  151.9678  140.9343  158.3654 N   0  0  0  0  0  0  0  0  0  0  0  0
  152.1594  140.3095  157.1776 C   0  0  0  0  0  0  0  0  0  0  0  0
  152.8480  139.2920  157.0757 O   0  0  0  0  0  0  0  0  0  0  0  0
  151.4932  140.8892  155.9175 C   0  0  0  0  0  0  0  0  0  0  0  0
  150.9716  139.8599  155.0087 N   0  0  0  0  0  0  0  0  0  0  0  0
  149.5178  139.9002  154.9705 C   0  0  0  0  0  0  0  0  0  0  0  0
  149.0552  141.2514  154.4060 C   0  0  0  0  0  0  0  0  0  0  0  0
  147.6338  141.4563  154.6081 N   0  0  0  0  0  0  0  0  0  0  0  0
  146.8910  142.5952  154.3781 C   0  0  0  0  0  0  0  0  0  0  0  0
  145.5990  142.3134  154.7189 C   0  0  0  0  0  0  0  0  0  0  0  0
  145.6519  140.9588  155.1517 C   0  0  0  0  0  0  0  0  0  0  0  0
  146.8712  140.4487  155.0848 N   0  0  0  0  0  0  0  0  0  0  0  0
  151.2205  142.1932  158.4892 C   0  0  0  0  0  0  0  0  0  0  0  0
  150.7497  144.6693  159.7587 H   0  0  0  0  0  0  0  0  0  0  0  0
  150.9725  144.9401  158.0321 H   0  0  0  0  0  0  0  0  0  0  0  0
  152.1973  145.4841  159.1720 H   0  0  0  0  0  0  0  0  0  0  0  0
  152.9202  143.4136  158.0129 H   0  0  0  0  0  0  0  0  0  0  0  0
  153.7701  143.7295  160.2953 H   0  0  0  0  0  0  0  0  0  0  0  0
  152.3203  143.0324  160.9743 H   0  0  0  0  0  0  0  0  0  0  0  0
  154.4324  141.5736  159.3252 H   0  0  0  0  0  0  0  0  0  0  0  0
  154.0550  141.3197  161.0131 H   0  0  0  0  0  0  0  0  0  0  0  0
  153.0112  139.5409  159.6347 H   0  0  0  0  0  0  0  0  0  0  0  0
  151.7799  140.4844  160.4048 H   0  0  0  0  0  0  0  0  0  0  0  0
  150.6719  141.5392  156.2245 H   0  0  0  0  0  0  0  0  0  0  0  0
  152.2241  141.4990  155.3845 H   0  0  0  0  0  0  0  0  0  0  0  0
  151.3359  139.9779  154.0740 H   0  0  0  0  0  0  0  0  0  0  0  0
  149.1416  139.0848  154.3506 H   0  0  0  0  0  0  0  0  0  0  0  0
  149.1174  139.7610  155.9759 H   0  0  0  0  0  0  0  0  0  0  0  0
  149.5929  142.0696  154.8874 H   0  0  0  0  0  0  0  0  0  0  0  0
  149.2687  141.3169  153.3379 H   0  0  0  0  0  0  0  0  0  0  0  0
  147.3384  143.5014  153.9968 H   0  0  0  0  0  0  0  0  0  0  0  0
  144.7463  142.9740  154.6667 H   0  0  0  0  0  0  0  0  0  0  0  0
  144.8462  140.3352  155.5103 H   0  0  0  0  0  0  0  0  0  0  0  0
  150.4699  142.0909  159.2744 H   0  0  0  0  0  0  0  0  0  0  0  0
  150.6657  142.4420  157.5835 H   0  0  0  0  0  0  0  0  0  0  0  0
  1  2  1  0  0  0  0
  1 19  1  0  0  0  0
  1 20  1  0  0  0  0
  1 21  1  0  0  0  0
  2 18  1  0  0  0  0
  2  3  1  0  0  0  0
  2 22  1  0  0  0  0
  3  4  1  0  0  0  0
  3 23  1  0  0  0  0
  3 24  1  0  0  0  0
  4  5  1  0  0  0  0
  4 25  1  0  0  0  0
  4 26  1  0  0  0  0
  5  6  1  0  0  0  0
  5 27  1  0  0  0  0
  5 28  1  0  0  0  0
  6  7  1  0  0  0  0
  6 18  1  0  0  0  0
  7  8  2  0  0  0  0
  7  9  1  0  0  0  0
  9 10  1  0  0  0  0
  9 29  1  0  0  0  0
  9 30  1  0  0  0  0
 10 11  1  0  0  0  0
 10 31  1  0  0  0  0
 11 12  1  0  0  0  0
 11 32  1  0  0  0  0
 11 33  1  0  0  0  0
 12 13  1  0  0  0  0
 12 34  1  0  0  0  0
 12 35  1  0  0  0  0
 13 17  1  0  0  0  0
 13 14  1  0  0  0  0
 14 15  2  0  0  0  0
 14 36  1  0  0  0  0
 15 16  1  0  0  0  0
 15 37  1  0  0  0  0
 16 17  2  0  0  0  0
 16 38  1  0  0  0  0
 18 39  1  0  0  0  0
 18 40  1  0  0  0  0
M  END
> <s_m_source_file>
AV-unprocessed.smi

> <i_m_source_file_index>
3327

> <i_lp_mmshare_version>
43012

> <i_f3d_flags>
0

> <s_epik_input>
W0NIM11bQ0BASF0xW0NIMl1bQ0gyXVtDSDJdTihbQ0gyXTEpQyg9TylbQ0gyXVtOSF1bQ0gyXVtDSDJdbjJbY0hdW2NIXVtjSF1uMg==

> <s_epik_cmdline>
J2VwaWtfcHl0aG9uJywgJy1waCcsICc3LjAnLCAnLXRuJywgJzgnLCAnLW1hJywgJzIwMCcsICctbWV0YWxfYmluZGluZycsICctaW1hZScsICc8aW5maWxlLm1hZT4nLCAnLW9tYWUnLCAnPG91dGZpbGUubWFlPic=

> <r_lp_tautomer_probability>
1

> <r_epik_Ionization_Penalty>
0.752964

> <r_epik_Ionization_Penalty_Charging>
0

> <r_epik_Ionization_Penalty_Neutral>
0.752964

> <r_epik_State_Penalty>
0.778238

> <r_epik_Charging_Adjusted_Penalty>
0.778238

> <i_epik_Tot_Q>
0

> <i_epik_Tot_abs_Q>
0

> <r_epik_Metal_State_Penalty>
0.776974

> <b_epik_Metal_Only>
0

> <s_lp_Force_Field>
OPLS_2005

> <r_lp_Energy>
25.5335

> <b_lp_Chiralities_Consistent>
1

> <s_lp_Variant>
AV-unprocessed.smi:3327-4

> <Gold.Version>
5.8.1

> <Gold.Id.Protein>
6NUR|6NUR_protein|mol2

> <Gold.PLP.Fitness>
44.3251

> <Gold.PLP.PLP>
-40.6730

> <Gold.PLP.part.hbond>
-2.0000

> <Gold.PLP.part.metal>
0.0000

> <Gold.PLP.part.buried>
-3.0601

> <Gold.PLP.part.nonpolar>
-35.3609

> <Gold.PLP.part.repulsive>
0.0652

> <Gold.PLP.ligand.clash>
0.0000

> <Gold.PLP.ligand.torsion>
0.7609

> <Gold.PLP.Chemscore.Hbond>
1.0000

> <Gold.PLP.Chemscore.CHOScore>
0.7129

> <Gold.PLP.Chemscore.Metal>
0.0000

> <Gold.Chemscore.Hbonds>
donor molecule, donor type, donor heavy atom, donor atom, acceptor molecule, acceptor atom, score
      P1  H  7997  8010       L1     8  1.00
      L1  C    14    36       P1  8028  0.70

> <Gold.PLP.Chemscore.Internal.Correction>
0.0352

> <Gold.Rescore>
     Score         DG    S(hbond)    S(metal)    S(lipo)     H(rot)  DE(clash)    DE(int)     intcor
     15.16     -15.82       0.85        0.00     101.97       1.73       0.14       0.52       ----

> <Gold.Chemscore.Fitness>
15.1605

> <Gold.Chemscore.DG>
-15.8151

> <Gold.Chemscore.ZeroCoef>
-5.4800

> <Gold.Chemscore.Hbond>
0.8481

> <Gold.Chemscore.Metal>
0.0000

> <Gold.Chemscore.Lipo>
101.9685

> <Gold.Chemscore.Internal_Hbond>
0.0000

> <Gold.Chemscore.DEClash>
0.1377

> <Gold.Chemscore.DEInternal>
0.5169

> <Gold.Chemscore.Rot>
1.7296

> <Gold.Chemscore.Internal.Correction>
   9.000000E+99

> <Gold.Chemscore.Hbonds>
donor molecule, donor type, donor heavy atom, donor atom, acceptor molecule, acceptor atom, score
      P1  H  7997  8010       L1     8  0.25

> <Gold.Chemscore.Hbond.Weighted>
-2.8326

> <Gold.Chemscore.Metal.Weighted>
-0.0000

> <Gold.Chemscore.Lipo.Weighted>
-11.9303

> <Gold.Chemscore.Internal_Hbond.Weighted>
0.0000

> <Gold.Chemscore.DEClash.Weighted>
0.1377

> <Gold.Chemscore.DEInternal.Weighted>
0.5169

> <Gold.Chemscore.Rot.Weighted>
4.4278

> <Gold.Chemscore.Internal.Correction.Weighted>
   9.000000E+99

> <Gold.Protein.RotatedTorsions>
[ 6907 6896 6895 6894 ] final -143.18 input  -60.11 | X-H torsion
[ 7974 7965 7964 7962 ] final  -14.05 input  175.53 | X-H torsion
[ 8008 7997 7996 7995 ] final   42.32 input   59.86 | X-H torsion
[ 10167 10162 10161 10158 ] final  -54.57 input  -65.29 | X-H torsion
[ 10718 10713 10712 10709 ] final -108.93 input   66.30 | X-H torsion
[ 10763 10752 10751 10750 ] final -137.63 input  -60.55 | X-H torsion
[ 11005 11000 10999 10996 ] final    4.33 input  -57.11 | X-H torsion

> <Gold.Protein.ActiveResidues>
 VAL166  LYS551  ARG553  GLY616  TRP617  ASP618  TYR619  PRO620  LYS621  CYS622 
 ASP623  PHE694  ASN695  SER759  ASP760  ASP761  ALA762  ILE779  LEU786  VAL792 
 PHE793  MET794  SER795  GLU796  ALA797  LYS798  CYS799  TRP800  GLU811  SER814 

> <Gold.Protein.RotatedAtoms>
  151.0970  133.5272  159.2611 H   0  0  0  0  0  0  0  0  0  0  0  0  # atno 6907 bound_to 6896
  151.2117  135.0483  159.8924 H   0  0  0  0  0  0  0  0  0  0  0  0  # atno 6908 bound_to 6896
  152.5439  134.0785  159.8278 H   0  0  0  0  0  0  0  0  0  0  0  0  # atno 6909 bound_to 6896
  146.2090  140.3292  142.8397 H   0  0  0  0  0  0  0  0  0  0  0  0  # atno 7974 bound_to 7965
  155.2842  140.3374  155.4256 H   0  0  0  0  0  0  0  0  0  0  0  0  # atno 8008 bound_to 7997
  156.2076  140.1757  156.7807 H   0  0  0  0  0  0  0  0  0  0  0  0  # atno 8009 bound_to 7997
  154.5641  140.0682  156.8849 H   0  0  0  0  0  0  0  0  0  0  0  0  # atno 8010 bound_to 7997
  140.6423  143.2515  151.4955 H   0  0  0  0  0  0  0  0  0  0  0  0  # atno 10167 bound_to 10162
  156.0510  130.5738  150.8029 H   0  0  0  0  0  0  0  0  0  0  0  0  # atno 10718 bound_to 10713
  154.8657  135.3636  154.5254 H   0  0  0  0  0  0  0  0  0  0  0  0  # atno 10763 bound_to 10752
  153.5882  135.7016  153.5439 H   0  0  0  0  0  0  0  0  0  0  0  0  # atno 10764 bound_to 10752
  153.3397  135.4101  155.1523 H   0  0  0  0  0  0  0  0  0  0  0  0  # atno 10765 bound_to 10752
  140.5832  133.9993  155.8056 H   0  0  0  0  0  0  0  0  0  0  0  0  # atno 11005 bound_to 11000
  144.8864  140.7468  143.5954 LP  0  0  0  0  0  0  0  0  0  0  0  0  # atno 17320 bound_to 7965
  145.3213  139.1787  143.4586 LP  0  0  0  0  0  0  0  0  0  0  0  0  # atno 17321 bound_to 7965
  139.5633  144.2104  152.1725 LP  0  0  0  0  0  0  0  0  0  0  0  0  # atno 17342 bound_to 10162
  140.1378  144.5229  150.6762 LP  0  0  0  0  0  0  0  0  0  0  0  0  # atno 17343 bound_to 10162
  157.5437  131.0941  150.9792 LP  0  0  0  0  0  0  0  0  0  0  0  0  # atno 17370 bound_to 10713
  157.0069  130.5621  149.5317 LP  0  0  0  0  0  0  0  0  0  0  0  0  # atno 17371 bound_to 10713
  141.0983  133.9809  157.3123 LP  0  0  0  0  0  0  0  0  0  0  0  0  # atno 17394 bound_to 11000
  139.9308  135.0200  156.8392 LP  0  0  0  0  0  0  0  0  0  0  0  0  # atno 17395 bound_to 11000

$$$$
