AV-unprocessed.smi:3185|AV-procd|sdf|12171|dock9
  -GOLD-   2272018 13D 1   1.00000     0.00000
 Structure written by MMmdl.
 37 38  0  0  0  0  0  0  0  0  1 V2000
  151.4095  145.6244  159.0146 N   0  0  0  0  0  0  0  0  0  0  0  0
  152.0010  144.6854  159.3408 C   0  0  0  0  0  0  0  0  0  0  0  0
  152.7531  143.4918  159.7554 C   0  0  0  0  0  0  0  0  0  0  0  0
  151.9592  142.1959  159.5593 C   0  0  0  0  0  0  0  0  0  0  0  0
  151.6692  141.9170  158.0803 C   0  0  0  0  0  0  0  0  0  0  0  0
  150.5508  140.9928  157.9725 N   0  0  0  0  0  0  0  0  0  0  0  0
  149.5929  141.3899  156.9446 C   0  0  2  0  0  0  0  0  0  0  0  0
  148.2877  140.6002  157.1683 C   0  0  0  0  0  0  0  0  0  0  0  0
  147.2242  140.9796  156.1271 C   0  0  0  0  0  0  0  0  0  0  0  0
  147.7335  140.7572  154.6955 C   0  0  0  0  0  0  0  0  0  0  0  0
  149.0546  141.5083  154.4441 C   0  0  0  0  0  0  0  0  0  0  0  0
  150.1509  141.2250  155.4995 C   0  0  2  0  0  0  0  0  0  0  0  0
  150.8500  139.9582  155.2685 N   0  0  0  0  0  0  0  0  0  0  0  0
  150.6026  139.0378  154.2692 C   0  0  0  0  0  0  0  0  0  0  0  0
  151.4967  138.0164  154.4130 C   0  0  0  0  0  0  0  0  0  0  0  0
  152.2671  138.4022  155.5435 C   0  0  0  0  0  0  0  0  0  0  0  0
  151.8810  139.5615  156.0486 N   0  0  0  0  0  0  0  0  0  0  0  0
  153.6782  143.4631  159.1789 H   0  0  0  0  0  0  0  0  0  0  0  0
  153.0266  143.6167  160.8034 H   0  0  0  0  0  0  0  0  0  0  0  0
  152.5173  141.3629  159.9889 H   0  0  0  0  0  0  0  0  0  0  0  0
  151.0211  142.2604  160.1129 H   0  0  0  0  0  0  0  0  0  0  0  0
  151.4291  142.8470  157.5637 H   0  0  0  0  0  0  0  0  0  0  0  0
  152.5568  141.4974  157.6078 H   0  0  0  0  0  0  0  0  0  0  0  0
  150.8827  140.0568  157.7855 H   0  0  0  0  0  0  0  0  0  0  0  0
  149.3537  142.4432  157.0989 H   0  0  0  0  0  0  0  0  0  0  0  0
  148.4713  139.5263  157.1333 H   0  0  0  0  0  0  0  0  0  0  0  0
  147.8996  140.8058  158.1666 H   0  0  0  0  0  0  0  0  0  0  0  0
  146.3176  140.3972  156.2931 H   0  0  0  0  0  0  0  0  0  0  0  0
  146.9465  142.0265  156.2562 H   0  0  0  0  0  0  0  0  0  0  0  0
  147.8574  139.6910  154.5103 H   0  0  0  0  0  0  0  0  0  0  0  0
  146.9805  141.0954  153.9833 H   0  0  0  0  0  0  0  0  0  0  0  0
  149.4272  141.2831  153.4441 H   0  0  0  0  0  0  0  0  0  0  0  0
  148.8417  142.5780  154.4480 H   0  0  0  0  0  0  0  0  0  0  0  0
  150.9017  142.0023  155.3533 H   0  0  0  0  0  0  0  0  0  0  0  0
  149.8186  139.1863  153.5414 H   0  0  0  0  0  0  0  0  0  0  0  0
  151.5873  137.1303  153.8026 H   0  0  0  0  0  0  0  0  0  0  0  0
  153.0905  137.8799  156.0078 H   0  0  0  0  0  0  0  0  0  0  0  0
  1  2  3  0  0  0  0
  2  3  1  0  0  0  0
  3  4  1  0  0  0  0
  3 18  1  0  0  0  0
  3 19  1  0  0  0  0
  4  5  1  0  0  0  0
  4 20  1  0  0  0  0
  4 21  1  0  0  0  0
  5  6  1  0  0  0  0
  5 22  1  0  0  0  0
  5 23  1  0  0  0  0
  6  7  1  0  0  0  0
  6 24  1  0  0  0  0
  7 12  1  0  0  0  0
  7  8  1  0  0  0  0
  7 25  1  0  0  0  0
  8  9  1  0  0  0  0
  8 26  1  0  0  0  0
  8 27  1  0  0  0  0
  9 10  1  0  0  0  0
  9 28  1  0  0  0  0
  9 29  1  0  0  0  0
 10 11  1  0  0  0  0
 10 30  1  0  0  0  0
 10 31  1  0  0  0  0
 11 12  1  0  0  0  0
 11 32  1  0  0  0  0
 11 33  1  0  0  0  0
 12 13  1  0  0  0  0
 12 34  1  0  0  0  0
 13 17  1  0  0  0  0
 13 14  1  0  0  0  0
 14 15  2  0  0  0  0
 14 35  1  0  0  0  0
 15 16  1  0  0  0  0
 15 36  1  0  0  0  0
 16 17  2  0  0  0  0
 16 37  1  0  0  0  0
M  END
> <s_m_source_file>
AV-unprocessed.smi

> <i_m_source_file_index>
3185

> <i_lp_mmshare_version>
43012

> <i_f3d_flags>
0

> <s_epik_input>
TiNDW0NIMl1bQ0gyXVtDSDJdW05IXVtDQEBIXTFbQ0gyXVtDSDJdW0NIMl1bQ0gyXVtDQEhdMW4yW2NIXVtjSF1bY0hdbjI=

> <s_epik_cmdline>
J2VwaWtfcHl0aG9uJywgJy1waCcsICc3LjAnLCAnLXRuJywgJzgnLCAnLW1hJywgJzIwMCcsICctbWV0YWxfYmluZGluZycsICctaW1hZScsICc8aW5maWxlLm1hZT4nLCAnLW9tYWUnLCAnPG91dGZpbGUubWFlPic=

> <r_lp_tautomer_probability>
1

> <r_epik_Ionization_Penalty>
2.21326

> <r_epik_Ionization_Penalty_Charging>
0

> <r_epik_Ionization_Penalty_Neutral>
2.21326

> <r_epik_State_Penalty>
2.35651

> <r_epik_Charging_Adjusted_Penalty>
2.35651

> <i_epik_Tot_Q>
0

> <i_epik_Tot_abs_Q>
0

> <r_epik_Metal_State_Penalty>
2.3555

> <b_epik_Metal_Only>
0

> <s_lp_Force_Field>
OPLS_2005

> <r_lp_Energy>
17.6064

> <b_lp_Chiralities_Consistent>
1

> <s_lp_Variant>
AV-unprocessed.smi:3185-7

> <Gold.Version>
5.8.1

> <Gold.Id.Protein>
6NUR|6NUR_protein|mol2

> <Gold.PLP.Fitness>
38.0904

> <Gold.PLP.PLP>
-36.0843

> <Gold.PLP.part.hbond>
-1.0000

> <Gold.PLP.part.metal>
0.0000

> <Gold.PLP.part.buried>
-2.2856

> <Gold.PLP.part.nonpolar>
-32.1637

> <Gold.PLP.part.repulsive>
0.1290

> <Gold.PLP.ligand.clash>
0.0000

> <Gold.PLP.ligand.torsion>
0.5372

> <Gold.PLP.Chemscore.Hbond>
0.0000

> <Gold.PLP.Chemscore.CHOScore>
1.0000

> <Gold.PLP.Chemscore.Metal>
0.0000

> <Gold.Chemscore.Hbonds>
donor molecule, donor type, donor heavy atom, donor atom, acceptor molecule, acceptor atom, score
      L1  C    14    35       P1  7957  1.00

> <Gold.PLP.Chemscore.Internal.Correction>
0.0806

> <Gold.Rescore>
     Score         DG    S(hbond)    S(metal)    S(lipo)     H(rot)  DE(clash)    DE(int)     intcor
      8.52     -10.68       0.00        0.00      84.08       1.81       0.08       2.08       ----

> <Gold.Chemscore.Fitness>
8.5231

> <Gold.Chemscore.DG>
-10.6812

> <Gold.Chemscore.ZeroCoef>
-5.4800

> <Gold.Chemscore.Hbond>
0.0000

> <Gold.Chemscore.Metal>
0.0000

> <Gold.Chemscore.Lipo>
84.0798

> <Gold.Chemscore.Internal_Hbond>
0.0000

> <Gold.Chemscore.DEClash>
0.0758

> <Gold.Chemscore.DEInternal>
2.0823

> <Gold.Chemscore.Rot>
1.8110

> <Gold.Chemscore.Internal.Correction>
   9.000000E+99

> <Gold.Chemscore.Hbond.Weighted>
-0.0000

> <Gold.Chemscore.Metal.Weighted>
-0.0000

> <Gold.Chemscore.Lipo.Weighted>
-9.8373

> <Gold.Chemscore.Internal_Hbond.Weighted>
0.0000

> <Gold.Chemscore.DEClash.Weighted>
0.0758

> <Gold.Chemscore.DEInternal.Weighted>
2.0823

> <Gold.Chemscore.Rot.Weighted>
4.6362

> <Gold.Chemscore.Internal.Correction.Weighted>
   9.000000E+99

> <Gold.Protein.RotatedTorsions>
[ 6907 6896 6895 6894 ] final   17.91 input  -60.11 | X-H torsion
[ 7974 7965 7964 7962 ] final  -20.06 input  175.53 | X-H torsion
[ 8008 7997 7996 7995 ] final -156.64 input   59.86 | X-H torsion
[ 10167 10162 10161 10158 ] final -100.56 input  -65.29 | X-H torsion
[ 10718 10713 10712 10709 ] final -104.49 input   66.30 | X-H torsion
[ 10763 10752 10751 10750 ] final -142.18 input  -60.55 | X-H torsion
[ 11005 11000 10999 10996 ] final  -80.59 input  -57.11 | X-H torsion

> <Gold.Protein.ActiveResidues>
 VAL166  LYS551  ARG553  GLY616  TRP617  ASP618  TYR619  PRO620  LYS621  CYS622 
 ASP623  PHE694  ASN695  SER759  ASP760  ASP761  ALA762  ILE779  LEU786  VAL792 
 PHE793  MET794  SER795  GLU796  ALA797  LYS798  CYS799  TRP800  GLU811  SER814 

> <Gold.Protein.RotatedAtoms>
  151.8570  135.0538  160.0464 H   0  0  0  0  0  0  0  0  0  0  0  0  # atno 6907 bound_to 6896
  152.2693  133.5363  159.5437 H   0  0  0  0  0  0  0  0  0  0  0  0  # atno 6908 bound_to 6896
  150.7145  134.0637  159.3882 H   0  0  0  0  0  0  0  0  0  0  0  0  # atno 6909 bound_to 6896
  146.1808  140.4149  142.8495 H   0  0  0  0  0  0  0  0  0  0  0  0  # atno 7974 bound_to 7965
  155.7203  140.0789  157.2333 H   0  0  0  0  0  0  0  0  0  0  0  0  # atno 8008 bound_to 7997
  154.4046  140.1614  156.2449 H   0  0  0  0  0  0  0  0  0  0  0  0  # atno 8009 bound_to 7997
  155.9202  140.3398  155.6170 H   0  0  0  0  0  0  0  0  0  0  0  0  # atno 8010 bound_to 7997
  140.2506  143.3475  152.0718 H   0  0  0  0  0  0  0  0  0  0  0  0  # atno 10167 bound_to 10162
  156.0306  130.5518  150.7404 H   0  0  0  0  0  0  0  0  0  0  0  0  # atno 10718 bound_to 10713
  154.8518  135.3503  154.5986 H   0  0  0  0  0  0  0  0  0  0  0  0  # atno 10763 bound_to 10752
  153.6595  135.6990  153.5187 H   0  0  0  0  0  0  0  0  0  0  0  0  # atno 10764 bound_to 10752
  153.2829  135.4258  155.1053 H   0  0  0  0  0  0  0  0  0  0  0  0  # atno 10765 bound_to 10752
  141.1668  133.7157  156.8295 H   0  0  0  0  0  0  0  0  0  0  0  0  # atno 11005 bound_to 11000
  144.8312  140.6710  143.6289 LP  0  0  0  0  0  0  0  0  0  0  0  0  # atno 17320 bound_to 7965
  145.4081  139.1585  143.4141 LP  0  0  0  0  0  0  0  0  0  0  0  0  # atno 17321 bound_to 7965
  139.5047  144.6781  151.6077 LP  0  0  0  0  0  0  0  0  0  0  0  0  # atno 17342 bound_to 10162
  140.6043  143.9553  150.6408 LP  0  0  0  0  0  0  0  0  0  0  0  0  # atno 17343 bound_to 10162
  157.4974  131.0916  151.0355 LP  0  0  0  0  0  0  0  0  0  0  0  0  # atno 17370 bound_to 10713
  157.0745  130.5878  149.5409 LP  0  0  0  0  0  0  0  0  0  0  0  0  # atno 17371 bound_to 10713
  140.2061  134.8862  157.3223 LP  0  0  0  0  0  0  0  0  0  0  0  0  # atno 17394 bound_to 11000
  140.2136  134.4109  155.7600 LP  0  0  0  0  0  0  0  0  0  0  0  0  # atno 17395 bound_to 11000

$$$$
