AV-unprocessed.smi:1715|AV-procd|sdf|6915|dock4
  -GOLD-   22720 8123D 1   1.00000     0.00000
 Structure written by MMmdl.
 41 42  0  0  0  0  0  0  0  0  2 V2000
  150.6642  141.9485  155.8113 C   0  0  0  0  0  0  0  0  0  0  0  0
  150.0727  140.5924  155.4126 C   0  0  1  0  0  0  0  0  0  0  0  0
  148.8771  140.7441  154.4553 C   0  0  0  0  0  0  0  0  0  0  0  0
  148.3881  139.4154  154.0204 N   0  3  1  0  0  0  0  0  0  0  0  0
  147.1703  139.5115  153.1778 C   0  0  0  0  0  0  0  0  0  0  0  0
  146.1555  138.3904  153.4764 C   0  0  0  0  0  0  0  0  0  0  0  0
  146.4360  137.1909  152.6961 N   0  0  0  0  0  0  0  0  0  0  0  0
  145.5057  136.3735  152.1826 C   0  0  0  0  0  0  0  0  0  0  0  0
  144.2953  136.5501  152.3232 O   0  0  0  0  0  0  0  0  0  0  0  0
  146.0669  135.3559  151.5097 N   0  0  0  0  0  0  0  0  0  0  0  0
  145.4037  134.2915  150.8484 C   0  0  0  0  0  0  0  0  0  0  0  0
  146.0116  133.0577  150.4900 C   0  0  0  0  0  0  0  0  0  0  0  0
  145.1506  132.2521  149.8849 N   0  0  0  0  0  0  0  0  0  0  0  0
  143.9986  132.9597  149.8546 N   0  0  0  0  0  0  0  0  0  0  0  0
  144.1054  134.2068  150.4298 C   0  0  0  0  0  0  0  0  0  0  0  0
  149.4887  138.6458  153.3890 C   0  0  0  0  0  0  0  0  0  0  0  0
  150.7048  138.5410  154.3303 C   0  0  2  0  0  0  0  0  0  0  0  0
  150.4928  137.5642  155.5008 C   0  0  0  0  0  0  0  0  0  0  0  0
  151.0997  139.8392  154.7733 O   0  0  0  0  0  0  0  0  0  0  0  0
  143.1571  132.5826  149.4423 H   0  0  0  0  0  0  0  0  0  0  0  0
  149.9238  142.5666  156.3196 H   0  0  0  0  0  0  0  0  0  0  0  0
  151.0169  142.4981  154.9380 H   0  0  0  0  0  0  0  0  0  0  0  0
  151.5100  141.8205  156.4873 H   0  0  0  0  0  0  0  0  0  0  0  0
  149.7529  140.0828  156.3217 H   0  0  0  0  0  0  0  0  0  0  0  0
  148.0755  141.2870  154.9579 H   0  0  0  0  0  0  0  0  0  0  0  0
  149.1617  141.3310  153.5801 H   0  0  0  0  0  0  0  0  0  0  0  0
  146.6814  140.4684  153.3665 H   0  0  0  0  0  0  0  0  0  0  0  0
  147.4565  139.5146  152.1250 H   0  0  0  0  0  0  0  0  0  0  0  0
  146.1468  138.1287  154.5347 H   0  0  0  0  0  0  0  0  0  0  0  0
  145.1479  138.7258  153.2304 H   0  0  0  0  0  0  0  0  0  0  0  0
  147.4072  136.9705  152.5292 H   0  0  0  0  0  0  0  0  0  0  0  0
  147.0754  135.3378  151.4670 H   0  0  0  0  0  0  0  0  0  0  0  0
  147.0279  132.7265  150.6458 H   0  0  0  0  0  0  0  0  0  0  0  0
  143.2724  134.8917  150.4839 H   0  0  0  0  0  0  0  0  0  0  0  0
  149.1578  137.6455  153.1127 H   0  0  0  0  0  0  0  0  0  0  0  0
  149.7853  139.1438  152.4643 H   0  0  0  0  0  0  0  0  0  0  0  0
  151.5419  138.1551  153.7478 H   0  0  0  0  0  0  0  0  0  0  0  0
  150.3277  136.5514  155.1326 H   0  0  0  0  0  0  0  0  0  0  0  0
  149.6310  137.8294  156.1125 H   0  0  0  0  0  0  0  0  0  0  0  0
  151.3686  137.5389  156.1493 H   0  0  0  0  0  0  0  0  0  0  0  0
  148.1218  138.9215  154.8604 H   0  0  0  0  0  0  0  0  0  0  0  0
  1  2  1  0  0  0  0
  1 21  1  0  0  0  0
  1 22  1  0  0  0  0
  1 23  1  0  0  0  0
  2 19  1  0  0  0  0
  2  3  1  0  0  0  0
  2 24  1  0  0  0  0
  3  4  1  0  0  0  0
  3 25  1  0  0  0  0
  3 26  1  0  0  0  0
  4  5  1  0  0  0  0
  4 16  1  0  0  0  0
  4 41  1  0  0  0  0
  5  6  1  0  0  0  0
  5 27  1  0  0  0  0
  5 28  1  0  0  0  0
  6  7  1  0  0  0  0
  6 29  1  0  0  0  0
  6 30  1  0  0  0  0
  7  8  1  0  0  0  0
  7 31  1  0  0  0  0
  8  9  2  0  0  0  0
  8 10  1  0  0  0  0
 10 11  1  0  0  0  0
 10 32  1  0  0  0  0
 11 15  2  0  0  0  0
 11 12  1  0  0  0  0
 12 13  2  0  0  0  0
 12 33  1  0  0  0  0
 13 14  1  0  0  0  0
 14 20  1  0  0  0  0
 14 15  1  0  0  0  0
 15 34  1  0  0  0  0
 16 17  1  0  0  0  0
 16 35  1  0  0  0  0
 16 36  1  0  0  0  0
 17 18  1  0  0  0  0
 17 19  1  0  0  0  0
 17 37  1  0  0  0  0
 18 38  1  0  0  0  0
 18 39  1  0  0  0  0
 18 40  1  0  0  0  0
M  CHG  1   4   1
M  END
> <s_m_source_file>
AV-unprocessed.smi

> <i_m_source_file_index>
1715

> <i_lp_mmshare_version>
43012

> <i_f3d_flags>
0

> <s_epik_input>
W0NIM11bQ0BASF0xW0NIMl1OKFtDSDJdW0NASF0oTzEpW0NIM10pW0NIMl1bQ0gyXVtOSF1DKD1PKVtOSF1jMltjSF1uW25IXVtjSF0y

> <s_epik_cmdline>
J2VwaWtfcHl0aG9uJywgJy1waCcsICc3LjAnLCAnLXRuJywgJzgnLCAnLW1hJywgJzIwMCcsICctbWV0YWxfYmluZGluZycsICctaW1hZScsICc8aW5maWxlLm1hZT4nLCAnLW9tYWUnLCAnPG91dGZpbGUubWFlPic=

> <r_lp_tautomer_probability>
0.5

> <r_epik_Ionization_Penalty>
0.646007

> <r_epik_Ionization_Penalty_Charging>
0.645968

> <r_epik_Ionization_Penalty_Neutral>
3.91671e-05

> <r_epik_State_Penalty>
0.664063

> <r_epik_Charging_Adjusted_Penalty>
1.31003

> <i_epik_Tot_Q>
1

> <i_epik_Tot_abs_Q>
1

> <r_epik_Metal_State_Penalty>
0.664064

> <b_epik_Metal_Only>
0

> <s_lp_Force_Field>
OPLS_2005

> <r_lp_Energy>
20.0624

> <b_lp_Chiralities_Consistent>
1

> <s_lp_Variant>
AV-unprocessed.smi:1715-7

> <Gold.Version>
5.8.1

> <Gold.Id.Protein>
6NUR|6NUR_protein|mol2

> <Gold.PLP.Fitness>
39.3285

> <Gold.PLP.PLP>
-26.7158

> <Gold.PLP.part.hbond>
-3.4692

> <Gold.PLP.part.metal>
0.0000

> <Gold.PLP.part.buried>
-0.4140

> <Gold.PLP.part.nonpolar>
-23.9492

> <Gold.PLP.part.repulsive>
0.6201

> <Gold.PLP.ligand.clash>
0.0000

> <Gold.PLP.ligand.torsion>
0.8880

> <Gold.PLP.Chemscore.Hbond>
3.0000

> <Gold.PLP.Chemscore.CHOScore>
1.7897

> <Gold.PLP.Chemscore.Metal>
0.0000

> <Gold.Chemscore.Hbonds>
donor molecule, donor type, donor heavy atom, donor atom, acceptor molecule, acceptor atom, score
      L1  H     7    31       P1  7948  1.00
      L1  H    10    32       P1  7948  0.89
      P1  H  7989  7998       L1    19  1.00
      L1  C    12    33       P1 10747  0.53
      L1  C    15    34       P1 10186  0.90

> <Gold.PLP.Chemscore.Internal.Correction>
0.0195

> <Gold.Rescore>
     Score         DG    S(hbond)    S(metal)    S(lipo)     H(rot)  DE(clash)    DE(int)     intcor
     14.04     -16.86       2.21        0.00      70.59       1.67       0.89       1.93       ----

> <Gold.Chemscore.Fitness>
14.0412

> <Gold.Chemscore.DG>
-16.8600

> <Gold.Chemscore.ZeroCoef>
-5.4800

> <Gold.Chemscore.Hbond>
2.2122

> <Gold.Chemscore.Metal>
0.0000

> <Gold.Chemscore.Lipo>
70.5912

> <Gold.Chemscore.Internal_Hbond>
0.0000

> <Gold.Chemscore.DEClash>
0.8855

> <Gold.Chemscore.DEInternal>
1.9333

> <Gold.Chemscore.Rot>
1.6671

> <Gold.Chemscore.Internal.Correction>
   9.000000E+99

> <Gold.Chemscore.Hbonds>
donor molecule, donor type, donor heavy atom, donor atom, acceptor molecule, acceptor atom, score
      L1  H     7    31       P1  7948  1.00
      L1  H    10    32       P1  7948  0.80
      P1  H  7989  7998       L1    19  0.38

> <Gold.Chemscore.Hbond.Weighted>
-7.3886

> <Gold.Chemscore.Metal.Weighted>
-0.0000

> <Gold.Chemscore.Lipo.Weighted>
-8.2592

> <Gold.Chemscore.Internal_Hbond.Weighted>
0.0000

> <Gold.Chemscore.DEClash.Weighted>
0.8855

> <Gold.Chemscore.DEInternal.Weighted>
1.9333

> <Gold.Chemscore.Rot.Weighted>
4.2677

> <Gold.Chemscore.Internal.Correction.Weighted>
   9.000000E+99

> <Gold.Protein.RotatedTorsions>
[ 6907 6896 6895 6894 ] final  177.85 input  -60.11 | X-H torsion
[ 7974 7965 7964 7962 ] final  -94.59 input  175.53 | X-H torsion
[ 8008 7997 7996 7995 ] final  131.69 input   59.86 | X-H torsion
[ 10167 10162 10161 10158 ] final -170.76 input  -65.29 | X-H torsion
[ 10718 10713 10712 10709 ] final  -94.36 input   66.30 | X-H torsion
[ 10763 10752 10751 10750 ] final  -49.92 input  -60.55 | X-H torsion
[ 11005 11000 10999 10996 ] final -114.28 input  -57.11 | X-H torsion

> <Gold.Protein.ActiveResidues>
 VAL166  LYS551  ARG553  GLY616  TRP617  ASP618  TYR619  PRO620  LYS621  CYS622 
 ASP623  PHE694  ASN695  SER759  ASP760  ASP761  ALA762  ILE779  LEU786  VAL792 
 PHE793  MET794  SER795  GLU796  ALA797  LYS798  CYS799  TRP800  GLU811  SER814 

> <Gold.Protein.RotatedAtoms>
  151.6974  133.3311  159.3257 H   0  0  0  0  0  0  0  0  0  0  0  0  # atno 6907 bound_to 6896
  150.7751  134.6646  159.6367 H   0  0  0  0  0  0  0  0  0  0  0  0  # atno 6908 bound_to 6896
  152.3791  134.6621  160.0201 H   0  0  0  0  0  0  0  0  0  0  0  0  # atno 6909 bound_to 6896
  145.3713  140.9506  143.2445 H   0  0  0  0  0  0  0  0  0  0  0  0  # atno 7974 bound_to 7965
  156.2973  140.2565  156.2967 H   0  0  0  0  0  0  0  0  0  0  0  0  # atno 8008 bound_to 7997
  154.9457  140.0395  157.2138 H   0  0  0  0  0  0  0  0  0  0  0  0  # atno 8009 bound_to 7997
  154.8083  140.2840  155.5875 H   0  0  0  0  0  0  0  0  0  0  0  0  # atno 8010 bound_to 7997
  139.5842  144.1355  152.1555 H   0  0  0  0  0  0  0  0  0  0  0  0  # atno 10167 bound_to 10162
  156.0026  130.5064  150.5914 H   0  0  0  0  0  0  0  0  0  0  0  0  # atno 10718 bound_to 10713
  154.1019  135.6562  153.4869 H   0  0  0  0  0  0  0  0  0  0  0  0  # atno 10763 bound_to 10752
  153.0286  135.5227  154.7278 H   0  0  0  0  0  0  0  0  0  0  0  0  # atno 10764 bound_to 10752
  154.6433  135.2991  155.0046 H   0  0  0  0  0  0  0  0  0  0  0  0  # atno 10765 bound_to 10752
  141.0562  133.9609  157.2750 H   0  0  0  0  0  0  0  0  0  0  0  0  # atno 11005 bound_to 11000
  144.8574  139.5229  143.6828 LP  0  0  0  0  0  0  0  0  0  0  0  0  # atno 17320 bound_to 7965
  146.2884  139.7068  142.9179 LP  0  0  0  0  0  0  0  0  0  0  0  0  # atno 17321 bound_to 7965
  140.0915  144.5617  150.7052 LP  0  0  0  0  0  0  0  0  0  0  0  0  # atno 17342 bound_to 10162
  140.7116  143.2510  151.4562 LP  0  0  0  0  0  0  0  0  0  0  0  0  # atno 17343 bound_to 10162
  157.3778  131.0776  151.1503 LP  0  0  0  0  0  0  0  0  0  0  0  0  # atno 17370 bound_to 10713
  157.2235  130.6492  149.5820 LP  0  0  0  0  0  0  0  0  0  0  0  0  # atno 17371 bound_to 10713
  139.9392  135.0193  156.8654 LP  0  0  0  0  0  0  0  0  0  0  0  0  # atno 17394 bound_to 11000
  140.5959  134.0217  155.7518 LP  0  0  0  0  0  0  0  0  0  0  0  0  # atno 17395 bound_to 11000

$$$$
