AV-unprocessed.smi:2980|AV-procd|sdf|11372|dock6
  -GOLD-   2272016293D 1   1.00000     0.00000
 Structure written by MMmdl.
 38 39  0  0  0  0  0  0  0  0  1 V2000
  147.7975  141.6220  154.3404 C   0  0  0  0  0  0  0  0  0  0  0  0
  148.6513  140.4242  154.7620 C   0  0  0  0  0  0  0  0  0  0  0  0
  148.5751  140.2788  156.1700 O   0  0  0  0  0  0  0  0  0  0  0  0
  149.0501  141.4196  156.8635 C   0  0  0  0  0  0  0  0  0  0  0  0
  150.4774  141.7234  156.3959 C   0  0  0  0  0  0  0  0  0  0  0  0
  151.4738  141.1968  157.3167 N   0  0  0  0  0  0  0  0  0  0  0  0
  152.1942  140.0462  157.2364 C   0  0  0  0  0  0  0  0  0  0  0  0
  152.0707  139.0689  156.0996 C   0  0  0  0  0  0  0  0  0  0  0  0
  150.6965  138.3786  156.0221 C   0  0  0  0  0  0  0  0  0  0  0  0
  150.4005  137.7325  154.6606 C   0  0  0  0  0  0  0  0  0  0  0  0
  151.3791  136.7585  154.3710 O   0  0  0  0  0  0  0  0  0  0  0  0
  153.0069  139.8047  158.2665 N   0  0  0  0  0  0  0  0  0  0  0  0
  152.8318  140.9159  159.0661 C   0  0  0  0  0  0  0  0  0  0  0  0
  153.4310  141.2653  160.2974 C   0  0  0  0  0  0  0  0  0  0  0  0
  153.0914  142.4746  160.9387 C   0  0  0  0  0  0  0  0  0  0  0  0
  152.1485  143.3485  160.3598 C   0  0  0  0  0  0  0  0  0  0  0  0
  151.5376  143.0174  159.1351 C   0  0  0  0  0  0  0  0  0  0  0  0
  151.8812  141.8094  158.4982 C   0  0  0  0  0  0  0  0  0  0  0  0
  147.8311  141.7632  153.2600 H   0  0  0  0  0  0  0  0  0  0  0  0
  148.1533  142.5399  154.8091 H   0  0  0  0  0  0  0  0  0  0  0  0
  146.7554  141.4806  154.6276 H   0  0  0  0  0  0  0  0  0  0  0  0
  148.2914  139.5188  154.2709 H   0  0  0  0  0  0  0  0  0  0  0  0
  149.6865  140.5792  154.4544 H   0  0  0  0  0  0  0  0  0  0  0  0
  148.3986  142.2706  156.6680 H   0  0  0  0  0  0  0  0  0  0  0  0
  149.0390  141.2338  157.9387 H   0  0  0  0  0  0  0  0  0  0  0  0
  150.6437  141.2745  155.4162 H   0  0  0  0  0  0  0  0  0  0  0  0
  150.6290  142.7934  156.2581 H   0  0  0  0  0  0  0  0  0  0  0  0
  152.2561  139.6099  155.1712 H   0  0  0  0  0  0  0  0  0  0  0  0
  152.8411  138.3029  156.1587 H   0  0  0  0  0  0  0  0  0  0  0  0
  150.6250  137.6249  156.8077 H   0  0  0  0  0  0  0  0  0  0  0  0
  149.9223  139.1152  156.2408 H   0  0  0  0  0  0  0  0  0  0  0  0
  149.4227  137.2517  154.6690 H   0  0  0  0  0  0  0  0  0  0  0  0
  150.3982  138.4767  153.8639 H   0  0  0  0  0  0  0  0  0  0  0  0
  151.2652  136.4740  153.4771 H   0  0  0  0  0  0  0  0  0  0  0  0
  154.1545  140.6020  160.7479 H   0  0  0  0  0  0  0  0  0  0  0  0
  153.5566  142.7330  161.8786 H   0  0  0  0  0  0  0  0  0  0  0  0
  151.8940  144.2731  160.8572 H   0  0  0  0  0  0  0  0  0  0  0  0
  150.8150  143.6853  158.6906 H   0  0  0  0  0  0  0  0  0  0  0  0
  1  2  1  0  0  0  0
  1 19  1  0  0  0  0
  1 20  1  0  0  0  0
  1 21  1  0  0  0  0
  2  3  1  0  0  0  0
  2 22  1  0  0  0  0
  2 23  1  0  0  0  0
  3  4  1  0  0  0  0
  4  5  1  0  0  0  0
  4 24  1  0  0  0  0
  4 25  1  0  0  0  0
  5  6  1  0  0  0  0
  5 26  1  0  0  0  0
  5 27  1  0  0  0  0
  6 18  1  0  0  0  0
  6  7  1  0  0  0  0
  7  8  1  0  0  0  0
  7 12  2  0  0  0  0
  8  9  1  0  0  0  0
  8 28  1  0  0  0  0
  8 29  1  0  0  0  0
  9 10  1  0  0  0  0
  9 30  1  0  0  0  0
  9 31  1  0  0  0  0
 10 11  1  0  0  0  0
 10 32  1  0  0  0  0
 10 33  1  0  0  0  0
 11 34  1  0  0  0  0
 12 13  1  0  0  0  0
 13 18  2  0  0  0  0
 13 14  1  0  0  0  0
 14 15  2  0  0  0  0
 14 35  1  0  0  0  0
 15 16  1  0  0  0  0
 15 36  1  0  0  0  0
 16 17  2  0  0  0  0
 16 37  1  0  0  0  0
 17 18  1  0  0  0  0
 17 38  1  0  0  0  0
M  END
> <s_m_source_file>
AV-unprocessed.smi

> <i_m_source_file_index>
2980

> <i_lp_mmshare_version>
43012

> <i_f3d_flags>
0

> <s_epik_input>
W0NIM11bQ0gyXU9bQ0gyXVtDSDJdbihjKG4xKVtDSDJdW0NIMl1bQ0gyXVtPSF0pYyhjMTIpW2NIXVtjSF1bY0hdW2NIXTI=

> <s_epik_cmdline>
J2VwaWtfcHl0aG9uJywgJy1waCcsICc3LjAnLCAnLXRuJywgJzgnLCAnLW1hJywgJzIwMCcsICctbWV0YWxfYmluZGluZycsICctaW1hZScsICc8aW5maWxlLm1hZT4nLCAnLW9tYWUnLCAnPG91dGZpbGUubWFlPic=

> <r_epik_Ionization_Penalty>
0.173195

> <r_epik_Ionization_Penalty_Charging>
0

> <r_epik_Ionization_Penalty_Neutral>
0.173195

> <r_epik_State_Penalty>
0.162604

> <r_epik_Charging_Adjusted_Penalty>
0.162604

> <i_epik_Tot_Q>
0

> <i_epik_Tot_abs_Q>
0

> <r_epik_Metal_State_Penalty>
0.000187077

> <b_epik_Metal_Only>
0

> <s_lp_Force_Field>
OPLS_2005

> <r_lp_Energy>
8.24734

> <b_lp_Chiralities_Consistent>
1

> <s_lp_Variant>
AV-unprocessed.smi:2980-1

> <Gold.Version>
5.8.1

> <Gold.Id.Protein>
6NUR|6NUR_protein|mol2

> <Gold.PLP.Fitness>
46.7699

> <Gold.PLP.PLP>
-39.2668

> <Gold.PLP.part.hbond>
-3.0000

> <Gold.PLP.part.metal>
0.0000

> <Gold.PLP.part.buried>
-3.1248

> <Gold.PLP.part.nonpolar>
-32.9377

> <Gold.PLP.part.repulsive>
0.0416

> <Gold.PLP.ligand.clash>
0.0000

> <Gold.PLP.ligand.torsion>
0.7007

> <Gold.PLP.Chemscore.Hbond>
2.9510

> <Gold.PLP.Chemscore.CHOScore>
0.0000

> <Gold.PLP.Chemscore.Metal>
0.0000

> <Gold.Chemscore.Hbonds>
donor molecule, donor type, donor heavy atom, donor atom, acceptor molecule, acceptor atom, score
      L1  H    11    34       P1  7949  0.96
      P1  H  7997  8009       L1    12  0.62
      P1  H 10752 10764       L1    11  0.25

> <Gold.PLP.Chemscore.Internal.Correction>
0.0515

> <Gold.Rescore>
     Score         DG    S(hbond)    S(metal)    S(lipo)     H(rot)  DE(clash)    DE(int)     intcor
     15.69     -16.44       1.58        0.00     102.84       2.48       0.20       0.55       ----

> <Gold.Chemscore.Fitness>
15.6913

> <Gold.Chemscore.DG>
-16.4370

> <Gold.Chemscore.ZeroCoef>
-5.4800

> <Gold.Chemscore.Hbond>
1.5801

> <Gold.Chemscore.Metal>
0.0000

> <Gold.Chemscore.Lipo>
102.8414

> <Gold.Chemscore.Internal_Hbond>
0.0000

> <Gold.Chemscore.DEClash>
0.1955

> <Gold.Chemscore.DEInternal>
0.5501

> <Gold.Chemscore.Rot>
2.4817

> <Gold.Chemscore.Internal.Correction>
   9.000000E+99

> <Gold.Chemscore.Hbonds>
donor molecule, donor type, donor heavy atom, donor atom, acceptor molecule, acceptor atom, score
      L1  H    11    34       P1  7949  0.55
      P1  H  7997  8009       L1    12  0.04

> <Gold.Chemscore.Hbond.Weighted>
-5.2776

> <Gold.Chemscore.Metal.Weighted>
-0.0000

> <Gold.Chemscore.Lipo.Weighted>
-12.0324

> <Gold.Chemscore.Internal_Hbond.Weighted>
0.0000

> <Gold.Chemscore.DEClash.Weighted>
0.1955

> <Gold.Chemscore.DEInternal.Weighted>
0.5501

> <Gold.Chemscore.Rot.Weighted>
6.3531

> <Gold.Chemscore.Internal.Correction.Weighted>
   9.000000E+99

> <Gold.Protein.RotatedTorsions>
[ 6907 6896 6895 6894 ] final  150.36 input  -60.11 | X-H torsion
[ 7974 7965 7964 7962 ] final -146.77 input  175.53 | X-H torsion
[ 8008 7997 7996 7995 ] final  145.58 input   59.86 | X-H torsion
[ 10167 10162 10161 10158 ] final  -15.00 input  -65.29 | X-H torsion
[ 10718 10713 10712 10709 ] final -127.98 input   66.30 | X-H torsion
[ 10763 10752 10751 10750 ] final  -73.90 input  -60.55 | X-H torsion
[ 11005 11000 10999 10996 ] final   64.17 input  -57.11 | X-H torsion

> <Gold.Protein.ActiveResidues>
 VAL166  LYS551  ARG553  GLY616  TRP617  ASP618  TYR619  PRO620  LYS621  CYS622 
 ASP623  PHE694  ASN695  SER759  ASP760  ASP761  ALA762  ILE779  LEU786  VAL792 
 PHE793  MET794  SER795  GLU796  ALA797  LYS798  CYS799  TRP800  GLU811  SER814 

> <Gold.Protein.RotatedAtoms>
  152.1154  133.4324  159.4650 H   0  0  0  0  0  0  0  0  0  0  0  0  # atno 6907 bound_to 6896
  150.6869  134.2598  159.4554 H   0  0  0  0  0  0  0  0  0  0  0  0  # atno 6908 bound_to 6896
  152.0470  134.9676  160.0625 H   0  0  0  0  0  0  0  0  0  0  0  0  # atno 6909 bound_to 6896
  144.8137  140.5414  143.5625 H   0  0  0  0  0  0  0  0  0  0  0  0  # atno 7974 bound_to 7965
  156.2879  140.2205  156.5238 H   0  0  0  0  0  0  0  0  0  0  0  0  # atno 8008 bound_to 7997
  154.7506  140.0480  157.0912 H   0  0  0  0  0  0  0  0  0  0  0  0  # atno 8009 bound_to 7997
  155.0115  140.3113  155.4831 H   0  0  0  0  0  0  0  0  0  0  0  0  # atno 8010 bound_to 7997
  140.7211  143.5263  150.9573 H   0  0  0  0  0  0  0  0  0  0  0  0  # atno 10167 bound_to 10162
  156.1908  130.6794  151.0421 H   0  0  0  0  0  0  0  0  0  0  0  0  # atno 10718 bound_to 10713
  154.4658  135.5882  153.6287 H   0  0  0  0  0  0  0  0  0  0  0  0  # atno 10763 bound_to 10752
  152.9828  135.6055  154.3429 H   0  0  0  0  0  0  0  0  0  0  0  0  # atno 10764 bound_to 10752
  154.3306  135.2842  155.2453 H   0  0  0  0  0  0  0  0  0  0  0  0  # atno 10765 bound_to 10752
  139.9976  134.6493  155.9984 H   0  0  0  0  0  0  0  0  0  0  0  0  # atno 11005 bound_to 11000
  145.5263  139.1476  143.3524 LP  0  0  0  0  0  0  0  0  0  0  0  0  # atno 17320 bound_to 7965
  146.2439  140.5404  142.8922 LP  0  0  0  0  0  0  0  0  0  0  0  0  # atno 17321 bound_to 7965
  139.8982  143.6869  152.3135 LP  0  0  0  0  0  0  0  0  0  0  0  0  # atno 17342 bound_to 10162
  139.7209  144.7603  151.0957 LP  0  0  0  0  0  0  0  0  0  0  0  0  # atno 17343 bound_to 10162
  157.6927  131.0804  150.7059 LP  0  0  0  0  0  0  0  0  0  0  0  0  # atno 17370 bound_to 10713
  156.7116  130.4653  149.5546 LP  0  0  0  0  0  0  0  0  0  0  0  0  # atno 17371 bound_to 10713
  141.1617  133.6538  156.4340 LP  0  0  0  0  0  0  0  0  0  0  0  0  # atno 17394 bound_to 11000
  140.4788  134.6684  157.5162 LP  0  0  0  0  0  0  0  0  0  0  0  0  # atno 17395 bound_to 11000

$$$$
