AV-unprocessed.smi:1519|AV-procd|sdf|6128|dock3
  -GOLD-   22720 6273D 1   1.00000     0.00000
 Structure written by MMmdl.
 40 41  0  0  0  0  0  0  0  0  1 V2000
  147.1269  136.3040  162.5506 C   0  0  0  0  0  0  0  0  0  0  0  0
  147.7028  136.3191  161.1760 C   0  0  0  0  0  0  0  0  0  0  0  0
  148.8534  136.9203  160.8633 N   0  0  0  0  0  0  0  0  0  0  0  0
  149.1775  136.7935  159.5089 C   0  0  0  0  0  0  0  0  0  0  0  0
  150.4410  137.4046  158.9835 C   0  0  0  0  0  0  0  0  0  0  0  0
  150.1660  138.4702  157.9097 C   0  0  0  0  0  0  0  0  0  0  0  0
  151.0247  139.6374  158.0759 N   0  0  0  0  0  0  0  0  0  0  0  0
  150.6492  140.9117  157.8711 C   0  0  0  0  0  0  0  0  0  0  0  0
  149.5056  141.2077  157.5219 O   0  0  0  0  0  0  0  0  0  0  0  0
  151.6113  141.8351  158.1234 N   0  0  0  0  0  0  0  0  0  0  0  0
  151.5279  143.2784  157.8430 C   0  0  0  0  0  0  0  0  0  0  0  0
  151.3210  144.0317  159.1699 C   0  0  0  0  0  0  0  0  0  0  0  0
  152.4490  143.7201  160.1783 C   0  0  0  0  0  0  0  0  0  0  0  0
  152.1852  144.3991  161.5347 C   0  0  0  0  0  0  0  0  0  0  0  0
  151.0556  143.8349  162.1669 O   0  0  0  0  0  0  0  0  0  0  0  0
  152.6447  142.1922  160.3151 C   0  0  0  0  0  0  0  0  0  0  0  0
  152.7924  141.5222  158.9372 C   0  0  0  0  0  0  0  0  0  0  0  0
  148.2475  136.0793  158.7949 C   0  0  0  0  0  0  0  0  0  0  0  0
  146.9297  135.5416  159.8000 S   0  0  0  0  0  0  0  0  0  0  0  0
  147.7615  136.8617  163.2402 H   0  0  0  0  0  0  0  0  0  0  0  0
  147.0412  135.2774  162.9069 H   0  0  0  0  0  0  0  0  0  0  0  0
  146.1357  136.7573  162.5442 H   0  0  0  0  0  0  0  0  0  0  0  0
  151.0055  137.8525  159.8022 H   0  0  0  0  0  0  0  0  0  0  0  0
  151.0819  136.6237  158.5725 H   0  0  0  0  0  0  0  0  0  0  0  0
  150.2958  138.0507  156.9104 H   0  0  0  0  0  0  0  0  0  0  0  0
  149.1291  138.8014  157.9735 H   0  0  0  0  0  0  0  0  0  0  0  0
  151.9728  139.4676  158.3780 H   0  0  0  0  0  0  0  0  0  0  0  0
  152.4558  143.6046  157.3708 H   0  0  0  0  0  0  0  0  0  0  0  0
  150.7384  143.5489  157.1425 H   0  0  0  0  0  0  0  0  0  0  0  0
  151.2764  145.1047  158.9809 H   0  0  0  0  0  0  0  0  0  0  0  0
  150.3563  143.7530  159.5963 H   0  0  0  0  0  0  0  0  0  0  0  0
  153.3701  144.1376  159.7680 H   0  0  0  0  0  0  0  0  0  0  0  0
  153.0425  144.2719  162.1965 H   0  0  0  0  0  0  0  0  0  0  0  0
  152.0316  145.4715  161.4100 H   0  0  0  0  0  0  0  0  0  0  0  0
  150.3316  144.4368  162.0828 H   0  0  0  0  0  0  0  0  0  0  0  0
  153.5254  141.9769  160.9209 H   0  0  0  0  0  0  0  0  0  0  0  0
  151.7945  141.7547  160.8404 H   0  0  0  0  0  0  0  0  0  0  0  0
  152.9469  140.4492  159.0591 H   0  0  0  0  0  0  0  0  0  0  0  0
  153.6869  141.8917  158.4338 H   0  0  0  0  0  0  0  0  0  0  0  0
  148.2584  135.8363  157.7427 H   0  0  0  0  0  0  0  0  0  0  0  0
  1  2  1  0  0  0  0
  1 20  1  0  0  0  0
  1 21  1  0  0  0  0
  1 22  1  0  0  0  0
  2 19  1  0  0  0  0
  2  3  2  0  0  0  0
  3  4  1  0  0  0  0
  4  5  1  0  0  0  0
  4 18  2  0  0  0  0
  5  6  1  0  0  0  0
  5 23  1  0  0  0  0
  5 24  1  0  0  0  0
  6  7  1  0  0  0  0
  6 25  1  0  0  0  0
  6 26  1  0  0  0  0
  7  8  1  0  0  0  0
  7 27  1  0  0  0  0
  8  9  2  0  0  0  0
  8 10  1  0  0  0  0
 10 17  1  0  0  0  0
 10 11  1  0  0  0  0
 11 12  1  0  0  0  0
 11 28  1  0  0  0  0
 11 29  1  0  0  0  0
 12 13  1  0  0  0  0
 12 30  1  0  0  0  0
 12 31  1  0  0  0  0
 13 14  1  0  0  0  0
 13 16  1  0  0  0  0
 13 32  1  0  0  0  0
 14 15  1  0  0  0  0
 14 33  1  0  0  0  0
 14 34  1  0  0  0  0
 15 35  1  0  0  0  0
 16 17  1  0  0  0  0
 16 36  1  0  0  0  0
 16 37  1  0  0  0  0
 17 38  1  0  0  0  0
 17 39  1  0  0  0  0
 18 19  1  0  0  0  0
 18 40  1  0  0  0  0
M  END
> <s_m_source_file>
AV-unprocessed.smi

> <i_m_source_file_index>
1519

> <i_lp_mmshare_version>
43012

> <i_f3d_flags>
0

> <s_epik_input>
W0NIM11jMW5jKFtjSF1zMSlbQ0gyXVtDSDJdW05IXUMoPU8pTjJbQ0gyXVtDSDJdW0NIXShbQ0gyXVtPSF0pW0NIMl1bQ0gyXTI=

> <s_epik_cmdline>
J2VwaWtfcHl0aG9uJywgJy1waCcsICc3LjAnLCAnLXRuJywgJzgnLCAnLW1hJywgJzIwMCcsICctbWV0YWxfYmluZGluZycsICctaW1hZScsICc8aW5maWxlLm1hZT4nLCAnLW9tYWUnLCAnPG91dGZpbGUubWFlPic=

> <r_epik_Ionization_Penalty>
0.00208048

> <r_epik_Ionization_Penalty_Charging>
0

> <r_epik_Ionization_Penalty_Neutral>
0.00208048

> <r_epik_State_Penalty>
0.00137324

> <r_epik_Charging_Adjusted_Penalty>
0.00137324

> <i_epik_Tot_Q>
0

> <i_epik_Tot_abs_Q>
0

> <r_epik_Metal_State_Penalty>
-0

> <b_epik_Metal_Only>
0

> <s_lp_Force_Field>
OPLS_2005

> <r_lp_Energy>
26.0602

> <b_lp_Chiralities_Consistent>
1

> <s_lp_Variant>
AV-unprocessed.smi:1519-1

> <Gold.Version>
5.8.1

> <Gold.Id.Protein>
6NUR|6NUR_protein|mol2

> <Gold.PLP.Fitness>
41.7048

> <Gold.PLP.PLP>
-40.3930

> <Gold.PLP.part.hbond>
-3.6382

> <Gold.PLP.part.metal>
0.0000

> <Gold.PLP.part.buried>
-6.3678

> <Gold.PLP.part.nonpolar>
-31.5498

> <Gold.PLP.part.repulsive>
0.1489

> <Gold.PLP.ligand.clash>
0.9493

> <Gold.PLP.ligand.torsion>
0.5681

> <Gold.PLP.Chemscore.Hbond>
1.1135

> <Gold.PLP.Chemscore.CHOScore>
0.0000

> <Gold.PLP.Chemscore.Metal>
0.0000

> <Gold.Chemscore.Hbonds>
donor molecule, donor type, donor heavy atom, donor atom, acceptor molecule, acceptor atom, score
      P1  H  6931  6943       L1     3  0.91
      P1  H  6933  6945       L1    15  0.17

> <Gold.PLP.Chemscore.Internal.Correction>
0.0569

> <Gold.Rescore>
     Score         DG    S(hbond)    S(metal)    S(lipo)     H(rot)  DE(clash)    DE(int)     intcor
     13.30     -15.21       1.00        0.00     100.58       2.10       1.42       0.49       ----

> <Gold.Chemscore.Fitness>
13.3035

> <Gold.Chemscore.DG>
-15.2141

> <Gold.Chemscore.ZeroCoef>
-5.4800

> <Gold.Chemscore.Hbond>
1.0015

> <Gold.Chemscore.Metal>
0.0000

> <Gold.Chemscore.Lipo>
100.5837

> <Gold.Chemscore.Internal_Hbond>
0.0000

> <Gold.Chemscore.DEClash>
1.4162

> <Gold.Chemscore.DEInternal>
0.4945

> <Gold.Chemscore.Rot>
2.1012

> <Gold.Chemscore.Internal.Correction>
   9.000000E+99

> <Gold.Chemscore.Hbonds>
donor molecule, donor type, donor heavy atom, donor atom, acceptor molecule, acceptor atom, score
      P1  H  6931  6943       L1     3  0.63
      P1  H  6933  6945       L1    15  0.07

> <Gold.Chemscore.Hbond.Weighted>
-3.3449

> <Gold.Chemscore.Metal.Weighted>
-0.0000

> <Gold.Chemscore.Lipo.Weighted>
-11.7683

> <Gold.Chemscore.Internal_Hbond.Weighted>
0.0000

> <Gold.Chemscore.DEClash.Weighted>
1.4162

> <Gold.Chemscore.DEInternal.Weighted>
0.4945

> <Gold.Chemscore.Rot.Weighted>
5.3791

> <Gold.Chemscore.Internal.Correction.Weighted>
   9.000000E+99

> <Gold.Protein.RotatedTorsions>
[ 6907 6896 6895 6894 ] final  147.09 input  -60.11 | X-H torsion
[ 7974 7965 7964 7962 ] final   47.40 input  175.53 | X-H torsion
[ 8008 7997 7996 7995 ] final  -76.12 input   59.86 | X-H torsion
[ 10167 10162 10161 10158 ] final  -46.34 input  -65.29 | X-H torsion
[ 10718 10713 10712 10709 ] final  103.28 input   66.30 | X-H torsion
[ 10763 10752 10751 10750 ] final  -37.34 input  -60.55 | X-H torsion
[ 11005 11000 10999 10996 ] final  -25.46 input  -57.11 | X-H torsion

> <Gold.Protein.ActiveResidues>
 VAL166  LYS551  ARG553  GLY616  TRP617  ASP618  TYR619  PRO620  LYS621  CYS622 
 ASP623  PHE694  ASN695  SER759  ASP760  ASP761  ALA762  ILE779  LEU786  VAL792 
 PHE793  MET794  SER795  GLU796  ALA797  LYS798  CYS799  TRP800  GLU811  SER814 

> <Gold.Protein.RotatedAtoms>
  152.1594  133.4572  159.4852 H   0  0  0  0  0  0  0  0  0  0  0  0  # atno 6907 bound_to 6896
  150.6905  134.2091  159.4361 H   0  0  0  0  0  0  0  0  0  0  0  0  # atno 6908 bound_to 6896
  151.9992  134.9937  160.0615 H   0  0  0  0  0  0  0  0  0  0  0  0  # atno 6909 bound_to 6896
  146.0301  139.4753  142.9843 H   0  0  0  0  0  0  0  0  0  0  0  0  # atno 7974 bound_to 7965
  154.5477  140.0732  156.8616 H   0  0  0  0  0  0  0  0  0  0  0  0  # atno 8008 bound_to 7997
  155.3055  140.3387  155.4228 H   0  0  0  0  0  0  0  0  0  0  0  0  # atno 8009 bound_to 7997
  156.1933  140.1694  156.8035 H   0  0  0  0  0  0  0  0  0  0  0  0  # atno 8010 bound_to 7997
  140.6821  143.2835  151.3769 H   0  0  0  0  0  0  0  0  0  0  0  0  # atno 10167 bound_to 10162
  157.6777  131.0775  150.5532 H   0  0  0  0  0  0  0  0  0  0  0  0  # atno 10718 bound_to 10713
  153.8947  135.6808  153.4758 H   0  0  0  0  0  0  0  0  0  0  0  0  # atno 10763 bound_to 10752
  153.1162  135.4760  154.9116 H   0  0  0  0  0  0  0  0  0  0  0  0  # atno 10764 bound_to 10752
  154.7605  135.3209  154.8341 H   0  0  0  0  0  0  0  0  0  0  0  0  # atno 10765 bound_to 10752
  140.8940  133.7569  156.0457 H   0  0  0  0  0  0  0  0  0  0  0  0  # atno 11005 bound_to 11000
  145.7054  141.0123  143.1482 LP  0  0  0  0  0  0  0  0  0  0  0  0  # atno 17320 bound_to 7965
  144.7026  139.8694  143.7439 LP  0  0  0  0  0  0  0  0  0  0  0  0  # atno 17321 bound_to 7965
  139.6151  144.1018  152.2338 LP  0  0  0  0  0  0  0  0  0  0  0  0  # atno 17342 bound_to 10162
  140.0445  144.5981  150.7385 LP  0  0  0  0  0  0  0  0  0  0  0  0  # atno 17343 bound_to 10162
  156.5836  130.4311  149.5967 LP  0  0  0  0  0  0  0  0  0  0  0  0  # atno 17370 bound_to 10713
  156.2641  130.6979  151.1757 LP  0  0  0  0  0  0  0  0  0  0  0  0  # atno 17371 bound_to 10713
  140.8312  134.3176  157.5348 LP  0  0  0  0  0  0  0  0  0  0  0  0  # atno 17394 bound_to 11000
  139.8733  134.9364  156.3660 LP  0  0  0  0  0  0  0  0  0  0  0  0  # atno 17395 bound_to 11000

$$$$
