AV-unprocessed.smi:3174|AV-procd|sdf|12121|dock7
  -GOLD-   2272017563D 1   1.00000     0.00000
 Structure written by MMmdl.
 32 33  0  0  0  0  0  0  0  0  1 V2000
  150.5141  135.3114  155.0679 C   0  0  0  0  0  0  0  0  0  0  0  0
  151.4575  136.3165  154.7429 O   0  0  0  0  0  0  0  0  0  0  0  0
  151.6446  137.2492  155.7943 C   0  0  0  0  0  0  0  0  0  0  0  0
  152.2963  138.5300  155.2475 C   0  0  0  0  0  0  0  0  0  0  0  0
  151.7920  139.7300  155.9250 N   0  0  0  0  0  0  0  0  0  0  0  0
  152.4331  140.0101  157.1206 N   0  0  0  0  0  0  0  0  0  0  0  0
  152.0941  141.0490  157.8137 C   0  0  0  0  0  0  0  0  0  0  0  0
  152.7605  141.3855  159.1027 C   0  0  0  0  0  0  0  0  0  0  0  0
  153.3745  140.5402  159.7563 O   0  0  0  0  0  0  0  0  0  0  0  0
  152.6405  142.6667  159.4930 N   0  0  0  0  0  0  0  0  0  0  0  0
  153.1870  143.2278  160.6857 C   0  0  0  0  0  0  0  0  0  0  0  0
  152.7291  142.6497  162.0073 C   0  0  0  0  0  0  0  0  0  0  0  0
  152.2546  144.0121  161.5834 C   0  0  0  0  0  0  0  0  0  0  0  0
  151.0391  141.9369  157.3550 C   0  0  0  0  0  0  0  0  0  0  0  0
  150.4241  141.6523  156.1863 C   0  0  0  0  0  0  0  0  0  0  0  0
  150.7902  140.4858  155.3815 C   0  0  0  0  0  0  0  0  0  0  0  0
  150.2465  140.2112  154.3122 O   0  0  0  0  0  0  0  0  0  0  0  0
  150.4106  134.6227  154.2296 H   0  0  0  0  0  0  0  0  0  0  0  0
  149.5333  135.7424  155.2730 H   0  0  0  0  0  0  0  0  0  0  0  0
  150.8337  134.7369  155.9383 H   0  0  0  0  0  0  0  0  0  0  0  0
  150.6771  137.4949  156.2342 H   0  0  0  0  0  0  0  0  0  0  0  0
  152.2593  136.8164  156.5853 H   0  0  0  0  0  0  0  0  0  0  0  0
  153.3831  138.4570  155.3121 H   0  0  0  0  0  0  0  0  0  0  0  0
  152.0801  138.6107  154.1809 H   0  0  0  0  0  0  0  0  0  0  0  0
  152.1198  143.2920  158.8947 H   0  0  0  0  0  0  0  0  0  0  0  0
  154.2180  143.5766  160.6482 H   0  0  0  0  0  0  0  0  0  0  0  0
  152.0056  141.8367  161.9843 H   0  0  0  0  0  0  0  0  0  0  0  0
  153.4591  142.6000  162.8125 H   0  0  0  0  0  0  0  0  0  0  0  0
  152.6685  144.8732  162.1044 H   0  0  0  0  0  0  0  0  0  0  0  0
  151.2138  144.1084  161.2792 H   0  0  0  0  0  0  0  0  0  0  0  0
  150.7481  142.8055  157.9279 H   0  0  0  0  0  0  0  0  0  0  0  0
  149.6387  142.3043  155.8332 H   0  0  0  0  0  0  0  0  0  0  0  0
  1  2  1  0  0  0  0
  1 18  1  0  0  0  0
  1 19  1  0  0  0  0
  1 20  1  0  0  0  0
  2  3  1  0  0  0  0
  3  4  1  0  0  0  0
  3 21  1  0  0  0  0
  3 22  1  0  0  0  0
  4  5  1  0  0  0  0
  4 23  1  0  0  0  0
  4 24  1  0  0  0  0
  5 16  1  0  0  0  0
  5  6  1  0  0  0  0
  6  7  2  0  0  0  0
  7  8  1  0  0  0  0
  7 14  1  0  0  0  0
  8  9  2  0  0  0  0
  8 10  1  0  0  0  0
 10 11  1  0  0  0  0
 10 25  1  0  0  0  0
 11 13  1  0  0  0  0
 11 12  1  0  0  0  0
 11 26  1  0  0  0  0
 12 13  1  0  0  0  0
 12 27  1  0  0  0  0
 12 28  1  0  0  0  0
 13 29  1  0  0  0  0
 13 30  1  0  0  0  0
 14 15  2  0  0  0  0
 14 31  1  0  0  0  0
 15 16  1  0  0  0  0
 15 32  1  0  0  0  0
 16 17  2  0  0  0  0
M  END
> <s_m_source_file>
AV-unprocessed.smi

> <i_m_source_file_index>
3174

> <i_lp_mmshare_version>
43012

> <i_f3d_flags>
0

> <s_epik_input>
W0NIM11PW0NIMl1bQ0gyXW4xbmMoW2NIXVtjSF1jMT1PKUMoPU8pW05IXVtDSF0yW0NIMl1bQ0gyXTI=

> <s_epik_cmdline>
J2VwaWtfcHl0aG9uJywgJy1waCcsICc3LjAnLCAnLXRuJywgJzgnLCAnLW1hJywgJzIwMCcsICctbWV0YWxfYmluZGluZycsICctaW1hZScsICc8aW5maWxlLm1hZT4nLCAnLW9tYWUnLCAnPG91dGZpbGUubWFlPic=

> <r_lp_tautomer_probability>
1

> <r_epik_Ionization_Penalty>
5.63485e-07

> <r_epik_Ionization_Penalty_Charging>
6.67133e-09

> <r_epik_Ionization_Penalty_Neutral>
5.56814e-07

> <r_epik_State_Penalty>
-0

> <r_epik_Charging_Adjusted_Penalty>
6.67133e-09

> <i_epik_Tot_Q>
0

> <i_epik_Tot_abs_Q>
0

> <r_epik_Metal_State_Penalty>
-0

> <b_epik_Metal_Only>
0

> <s_lp_Force_Field>
OPLS_2005

> <r_lp_Energy>
37.1062

> <b_lp_Chiralities_Consistent>
1

> <s_lp_Variant>
AV-unprocessed.smi:3174-1

> <Gold.Version>
5.8.1

> <Gold.Id.Protein>
6NUR|6NUR_protein|mol2

> <Gold.PLP.Fitness>
42.6204

> <Gold.PLP.PLP>
-36.7933

> <Gold.PLP.part.hbond>
-3.0000

> <Gold.PLP.part.metal>
0.0000

> <Gold.PLP.part.buried>
-5.2030

> <Gold.PLP.part.nonpolar>
-28.8081

> <Gold.PLP.part.repulsive>
0.3404

> <Gold.PLP.ligand.clash>
0.0000

> <Gold.PLP.ligand.torsion>
0.8793

> <Gold.PLP.Chemscore.Hbond>
2.5000

> <Gold.PLP.Chemscore.CHOScore>
0.0000

> <Gold.PLP.Chemscore.Metal>
0.0000

> <Gold.Chemscore.Hbonds>
donor molecule, donor type, donor heavy atom, donor atom, acceptor molecule, acceptor atom, score
      P1  H  7989  7998       L1    17  0.45
      P1  H  7997  8009       L1     6  1.00
      P1  H 10752 10763       L1     2  1.00

> <Gold.PLP.Chemscore.Internal.Correction>
0.0857

> <Gold.Rescore>
     Score         DG    S(hbond)    S(metal)    S(lipo)     H(rot)  DE(clash)    DE(int)     intcor
     13.61     -14.46       1.32        0.00      75.78       1.68       0.09       0.76       ----

> <Gold.Chemscore.Fitness>
13.6097

> <Gold.Chemscore.DG>
-14.4593

> <Gold.Chemscore.ZeroCoef>
-5.4800

> <Gold.Chemscore.Hbond>
1.3183

> <Gold.Chemscore.Metal>
0.0000

> <Gold.Chemscore.Lipo>
75.7753

> <Gold.Chemscore.Internal_Hbond>
0.0000

> <Gold.Chemscore.DEClash>
0.0901

> <Gold.Chemscore.DEInternal>
0.7595

> <Gold.Chemscore.Rot>
1.6756

> <Gold.Chemscore.Internal.Correction>
   9.000000E+99

> <Gold.Chemscore.Hbonds>
donor molecule, donor type, donor heavy atom, donor atom, acceptor molecule, acceptor atom, score
      P1  H  7989  7998       L1    17  0.02
      P1  H  7997  8009       L1     6  0.32
      P1  H 10752 10763       L1     2  0.36

> <Gold.Chemscore.Hbond.Weighted>
-4.4031

> <Gold.Chemscore.Metal.Weighted>
-0.0000

> <Gold.Chemscore.Lipo.Weighted>
-8.8657

> <Gold.Chemscore.Internal_Hbond.Weighted>
0.0000

> <Gold.Chemscore.DEClash.Weighted>
0.0901

> <Gold.Chemscore.DEInternal.Weighted>
0.7595

> <Gold.Chemscore.Rot.Weighted>
4.2894

> <Gold.Chemscore.Internal.Correction.Weighted>
   9.000000E+99

> <Gold.Protein.RotatedTorsions>
[ 6907 6896 6895 6894 ] final -116.47 input  -60.11 | X-H torsion
[ 7974 7965 7964 7962 ] final  -95.13 input  175.53 | X-H torsion
[ 8008 7997 7996 7995 ] final -178.65 input   59.86 | X-H torsion
[ 10167 10162 10161 10158 ] final  124.36 input  -65.29 | X-H torsion
[ 10718 10713 10712 10709 ] final   -1.63 input   66.30 | X-H torsion
[ 10763 10752 10751 10750 ] final   55.45 input  -60.55 | X-H torsion
[ 11005 11000 10999 10996 ] final   -8.00 input  -57.11 | X-H torsion

> <Gold.Protein.ActiveResidues>
 VAL166  LYS551  ARG553  GLY616  TRP617  ASP618  TYR619  PRO620  LYS621  CYS622 
 ASP623  PHE694  ASN695  SER759  ASP760  ASP761  ALA762  ILE779  LEU786  VAL792 
 PHE793  MET794  SER795  GLU796  ALA797  LYS798  CYS799  TRP800  GLU811  SER814 

> <Gold.Protein.RotatedAtoms>
  150.8059  133.8512  159.3205 H   0  0  0  0  0  0  0  0  0  0  0  0  # atno 6907 bound_to 6896
  151.6311  135.1021  160.0131 H   0  0  0  0  0  0  0  0  0  0  0  0  # atno 6908 bound_to 6896
  152.4149  133.6982  159.6465 H   0  0  0  0  0  0  0  0  0  0  0  0  # atno 6909 bound_to 6896
  145.3642  140.9496  143.2483 H   0  0  0  0  0  0  0  0  0  0  0  0  # atno 7974 bound_to 7965
  156.0213  140.1262  157.0354 H   0  0  0  0  0  0  0  0  0  0  0  0  # atno 8008 bound_to 7997
  154.4313  140.1068  156.6038 H   0  0  0  0  0  0  0  0  0  0  0  0  # atno 8009 bound_to 7997
  155.5940  140.3469  155.4577 H   0  0  0  0  0  0  0  0  0  0  0  0  # atno 8010 bound_to 7997
  139.5746  144.6957  151.3688 H   0  0  0  0  0  0  0  0  0  0  0  0  # atno 10167 bound_to 10162
  156.8028  130.5398  149.5719 H   0  0  0  0  0  0  0  0  0  0  0  0  # atno 10718 bound_to 10713
  152.9817  135.5710  154.5069 H   0  0  0  0  0  0  0  0  0  0  0  0  # atno 10763 bound_to 10752
  154.4580  135.2780  155.1736 H   0  0  0  0  0  0  0  0  0  0  0  0  # atno 10764 bound_to 10752
  154.3336  135.6244  153.5616 H   0  0  0  0  0  0  0  0  0  0  0  0  # atno 10765 bound_to 10752
  140.7188  133.8846  155.8805 H   0  0  0  0  0  0  0  0  0  0  0  0  # atno 11005 bound_to 11000
  144.8624  139.5158  143.6806 LP  0  0  0  0  0  0  0  0  0  0  0  0  # atno 17320 bound_to 7965
  146.2914  139.7150  142.9158 LP  0  0  0  0  0  0  0  0  0  0  0  0  # atno 17321 bound_to 7965
  140.7029  143.7587  150.7433 LP  0  0  0  0  0  0  0  0  0  0  0  0  # atno 17342 bound_to 10162
  140.1103  143.4706  152.2374 LP  0  0  0  0  0  0  0  0  0  0  0  0  # atno 17343 bound_to 10162
  156.1091  130.6027  151.0018 LP  0  0  0  0  0  0  0  0  0  0  0  0  # atno 17370 bound_to 10713
  157.6545  131.0891  150.7978 LP  0  0  0  0  0  0  0  0  0  0  0  0  # atno 17371 bound_to 10713
  141.0021  134.1135  157.4306 LP  0  0  0  0  0  0  0  0  0  0  0  0  # atno 17394 bound_to 11000
  139.8853  135.0071  156.6427 LP  0  0  0  0  0  0  0  0  0  0  0  0  # atno 17395 bound_to 11000

$$$$
