AV-unprocessed.smi:1812|AV-procd|sdf|7339|dock8
  -GOLD-   22720 9 03D 1   1.00000     0.00000
 Structure written by MMmdl.
 33 35  0  0  0  0  0  0  0  0  2 V2000
  153.1751  138.2378  160.2424 O   0  0  0  0  0  0  0  0  0  0  0  0
  153.8833  138.9622  159.5393 C   0  0  0  0  0  0  0  0  0  0  0  0
  154.1615  140.2142  159.9283 N   0  0  0  0  0  0  0  0  0  0  0  0
  153.6882  140.8680  161.1435 C   0  0  0  0  0  0  0  0  0  0  0  0
  153.4065  142.3524  160.8740 C   0  0  1  0  0  0  0  0  0  0  0  0
  152.4713  142.6027  159.6923 C   0  0  0  0  0  0  0  0  0  0  0  0
  151.8433  143.9513  160.0117 C   0  0  0  0  0  0  0  0  0  0  0  0
  152.1899  144.1870  161.4850 C   0  0  0  0  0  0  0  0  0  0  0  0
  152.6934  142.9429  161.9493 O   0  0  0  0  0  0  0  0  0  0  0  0
  154.4418  138.6272  158.3540 N   0  5  0  0  0  0  0  0  0  0  0  0
  154.6318  137.3350  158.0405 C   0  0  0  0  0  0  0  0  0  0  0  0
  155.0227  136.9398  156.8206 N   0  0  0  0  0  0  0  0  0  0  0  0
  155.1487  135.5627  156.7089 N   0  0  0  0  0  0  0  0  0  0  0  0
  154.8431  134.9349  157.8469 C   0  0  0  0  0  0  0  0  0  0  0  0
  154.8974  133.4500  157.9803 C   0  0  0  0  0  0  0  0  0  0  0  0
  155.3801  132.5705  156.8473 C   0  0  0  0  0  0  0  0  0  0  0  0
  153.9226  132.5695  157.2327 C   0  0  0  0  0  0  0  0  0  0  0  0
  154.3673  135.9992  159.1606 S   0  0  0  0  0  0  0  0  0  0  0  0
  154.7500  140.7649  159.3204 H   0  0  0  0  0  0  0  0  0  0  0  0
  152.7764  140.3955  161.5120 H   0  0  0  0  0  0  0  0  0  0  0  0
  154.4426  140.7552  161.9230 H   0  0  0  0  0  0  0  0  0  0  0  0
  154.3419  142.8957  160.7246 H   0  0  0  0  0  0  0  0  0  0  0  0
  152.9939  142.5930  158.7356 H   0  0  0  0  0  0  0  0  0  0  0  0
  151.6937  141.8383  159.6585 H   0  0  0  0  0  0  0  0  0  0  0  0
  152.2553  144.7446  159.3871 H   0  0  0  0  0  0  0  0  0  0  0  0
  150.7651  143.9238  159.8520 H   0  0  0  0  0  0  0  0  0  0  0  0
  152.9686  144.9454  161.5789 H   0  0  0  0  0  0  0  0  0  0  0  0
  151.3297  144.5076  162.0730 H   0  0  0  0  0  0  0  0  0  0  0  0
  155.1690  133.1655  158.9951 H   0  0  0  0  0  0  0  0  0  0  0  0
  155.6433  133.0435  155.9032 H   0  0  0  0  0  0  0  0  0  0  0  0
  155.9702  131.6949  157.1097 H   0  0  0  0  0  0  0  0  0  0  0  0
  153.5392  131.6935  157.7518 H   0  0  0  0  0  0  0  0  0  0  0  0
  153.2237  133.0532  156.5531 H   0  0  0  0  0  0  0  0  0  0  0  0
  1  2  2  0  0  0  0
  2  3  1  0  0  0  0
  2 10  1  0  0  0  0
  3  4  1  0  0  0  0
  3 19  1  0  0  0  0
  4  5  1  0  0  0  0
  4 20  1  0  0  0  0
  4 21  1  0  0  0  0
  5  9  1  0  0  0  0
  5  6  1  0  0  0  0
  5 22  1  0  0  0  0
  6  7  1  0  0  0  0
  6 23  1  0  0  0  0
  6 24  1  0  0  0  0
  7  8  1  0  0  0  0
  7 25  1  0  0  0  0
  7 26  1  0  0  0  0
  8  9  1  0  0  0  0
  8 27  1  0  0  0  0
  8 28  1  0  0  0  0
 10 11  1  0  0  0  0
 11 18  1  0  0  0  0
 11 12  2  0  0  0  0
 12 13  1  0  0  0  0
 13 14  2  0  0  0  0
 14 15  1  0  0  0  0
 14 18  1  0  0  0  0
 15 17  1  0  0  0  0
 15 16  1  0  0  0  0
 15 29  1  0  0  0  0
 16 17  1  0  0  0  0
 16 30  1  0  0  0  0
 16 31  1  0  0  0  0
 17 32  1  0  0  0  0
 17 33  1  0  0  0  0
M  CHG  1  10  -1
M  END
> <s_m_source_file>
AV-unprocessed.smi

> <i_m_source_file_index>
1812

> <i_lp_mmshare_version>
43012

> <i_f3d_flags>
0

> <s_epik_input>
TzFbQ0gyXVtDSDJdW0NIMl1bQ0BIXTFbQ0gyXVtOSF1DKD1PKVtOSF1jMm5uYyhzMilbQ0hdM1tDSDJdW0NIMl0z

> <s_epik_cmdline>
J2VwaWtfcHl0aG9uJywgJy1waCcsICc3LjAnLCAnLXRuJywgJzgnLCAnLW1hJywgJzIwMCcsICctbWV0YWxfYmluZGluZycsICctaW1hZScsICc8aW5maWxlLm1hZT4nLCAnLW9tYWUnLCAnPG91dGZpbGUubWFlPic=

> <r_lp_tautomer_probability>
1

> <r_epik_Ionization_Penalty>
4.72991

> <r_epik_Ionization_Penalty_Charging>
4.58249

> <r_epik_Ionization_Penalty_Neutral>
0.147417

> <r_epik_State_Penalty>
4.58223

> <r_epik_Charging_Adjusted_Penalty>
9.16473

> <i_epik_Tot_Q>
-1

> <i_epik_Tot_abs_Q>
1

> <r_epik_Metal_State_Penalty>
0.861876

> <b_epik_Metal_Only>
1

> <s_lp_Force_Field>
OPLS_2005

> <r_lp_Energy>
14.1682

> <b_lp_Chiralities_Consistent>
1

> <s_lp_Variant>
AV-unprocessed.smi:1812-4

> <Gold.Version>
5.8.1

> <Gold.Id.Protein>
6NUR|6NUR_protein|mol2

> <Gold.PLP.Fitness>
36.3376

> <Gold.PLP.PLP>
-27.9769

> <Gold.PLP.part.hbond>
-2.5354

> <Gold.PLP.part.metal>
0.0000

> <Gold.PLP.part.buried>
-5.2289

> <Gold.PLP.part.nonpolar>
-20.4367

> <Gold.PLP.part.repulsive>
0.1742

> <Gold.PLP.ligand.clash>
0.0000

> <Gold.PLP.ligand.torsion>
0.4076

> <Gold.PLP.Chemscore.Hbond>
3.0000

> <Gold.PLP.Chemscore.CHOScore>
0.0000

> <Gold.PLP.Chemscore.Metal>
0.0000

> <Gold.Chemscore.Hbonds>
donor molecule, donor type, donor heavy atom, donor atom, acceptor molecule, acceptor atom, score
      P1  H  7997  8009       L1    10  2.00
      P1  H 10752 10763       L1    13  1.00

> <Gold.PLP.Chemscore.Internal.Correction>
0.1760

> <Gold.Rescore>
     Score         DG    S(hbond)    S(metal)    S(lipo)     H(rot)  DE(clash)    DE(int)     intcor
     14.24     -16.14       1.78        0.00      71.89       1.45       0.06       1.85       ----

> <Gold.Chemscore.Fitness>
14.2361

> <Gold.Chemscore.DG>
-16.1441

> <Gold.Chemscore.ZeroCoef>
-5.4800

> <Gold.Chemscore.Hbond>
1.7822

> <Gold.Chemscore.Metal>
0.0000

> <Gold.Chemscore.Lipo>
71.8892

> <Gold.Chemscore.Internal_Hbond>
0.0000

> <Gold.Chemscore.DEClash>
0.0590

> <Gold.Chemscore.DEInternal>
1.8489

> <Gold.Chemscore.Rot>
1.4451

> <Gold.Chemscore.Internal.Correction>
   9.000000E+99

> <Gold.Chemscore.Hbonds>
donor molecule, donor type, donor heavy atom, donor atom, acceptor molecule, acceptor atom, score
      P1  H  7997  8009       L1    10  0.93
      P1  H 10752 10763       L1    13  0.34

> <Gold.Chemscore.Hbond.Weighted>
-5.9526

> <Gold.Chemscore.Metal.Weighted>
-0.0000

> <Gold.Chemscore.Lipo.Weighted>
-8.4110

> <Gold.Chemscore.Internal_Hbond.Weighted>
0.0000

> <Gold.Chemscore.DEClash.Weighted>
0.0590

> <Gold.Chemscore.DEInternal.Weighted>
1.8489

> <Gold.Chemscore.Rot.Weighted>
3.6995

> <Gold.Chemscore.Internal.Correction.Weighted>
   9.000000E+99

> <Gold.Protein.RotatedTorsions>
[ 6907 6896 6895 6894 ] final  -84.15 input  -60.11 | X-H torsion
[ 7974 7965 7964 7962 ] final  -94.45 input  175.53 | X-H torsion
[ 8008 7997 7996 7995 ] final  131.04 input   59.86 | X-H torsion
[ 10167 10162 10161 10158 ] final   70.31 input  -65.29 | X-H torsion
[ 10718 10713 10712 10709 ] final -119.01 input   66.30 | X-H torsion
[ 10763 10752 10751 10750 ] final -174.90 input  -60.55 | X-H torsion
[ 11005 11000 10999 10996 ] final  -42.46 input  -57.11 | X-H torsion

> <Gold.Protein.ActiveResidues>
 VAL166  LYS551  ARG553  GLY616  TRP617  ASP618  TYR619  PRO620  LYS621  CYS622 
 ASP623  PHE694  ASN695  SER759  ASP760  ASP761  ALA762  ILE779  LEU786  VAL792 
 PHE793  MET794  SER795  GLU796  ALA797  LYS798  CYS799  TRP800  GLU811  SER814 

> <Gold.Protein.RotatedAtoms>
  150.6879  134.3403  159.4864 H   0  0  0  0  0  0  0  0  0  0  0  0  # atno 6907 bound_to 6896
  152.1257  134.9170  160.0570 H   0  0  0  0  0  0  0  0  0  0  0  0  # atno 6908 bound_to 6896
  152.0359  133.3922  159.4353 H   0  0  0  0  0  0  0  0  0  0  0  0  # atno 6909 bound_to 6896
  145.3731  140.9508  143.2436 H   0  0  0  0  0  0  0  0  0  0  0  0  # atno 7974 bound_to 7965
  156.2964  140.2581  156.2860 H   0  0  0  0  0  0  0  0  0  0  0  0  # atno 8008 bound_to 7997
  154.9556  140.0393  157.2184 H   0  0  0  0  0  0  0  0  0  0  0  0  # atno 8009 bound_to 7997
  154.7995  140.2826  155.5936 H   0  0  0  0  0  0  0  0  0  0  0  0  # atno 8010 bound_to 7997
  140.0584  144.5254  150.7312 H   0  0  0  0  0  0  0  0  0  0  0  0  # atno 10167 bound_to 10162
  156.1149  130.6278  150.9363 H   0  0  0  0  0  0  0  0  0  0  0  0  # atno 10718 bound_to 10713
  154.5908  135.2845  155.0638 H   0  0  0  0  0  0  0  0  0  0  0  0  # atno 10763 bound_to 10752
  154.1939  135.6436  153.5071 H   0  0  0  0  0  0  0  0  0  0  0  0  # atno 10764 bound_to 10752
  153.0120  135.5453  154.6593 H   0  0  0  0  0  0  0  0  0  0  0  0  # atno 10765 bound_to 10752
  141.0317  133.6817  156.2598 H   0  0  0  0  0  0  0  0  0  0  0  0  # atno 11005 bound_to 11000
  144.8562  139.5246  143.6833 LP  0  0  0  0  0  0  0  0  0  0  0  0  # atno 17320 bound_to 7965
  146.2876  139.7049  142.9184 LP  0  0  0  0  0  0  0  0  0  0  0  0  # atno 17321 bound_to 7965
  140.7184  143.2565  151.4360 LP  0  0  0  0  0  0  0  0  0  0  0  0  # atno 17342 bound_to 10162
  139.5909  144.1501  152.2087 LP  0  0  0  0  0  0  0  0  0  0  0  0  # atno 17343 bound_to 10162
  157.6332  131.0919  150.8400 LP  0  0  0  0  0  0  0  0  0  0  0  0  # atno 17370 bound_to 10713
  156.8505  130.5079  149.5312 LP  0  0  0  0  0  0  0  0  0  0  0  0  # atno 17371 bound_to 10713
  140.6395  134.5181  157.5568 LP  0  0  0  0  0  0  0  0  0  0  0  0  # atno 17394 bound_to 11000
  139.9212  134.8144  156.1205 LP  0  0  0  0  0  0  0  0  0  0  0  0  # atno 17395 bound_to 11000

$$$$
