AV-unprocessed.smi:2942|AV-procd|sdf|11266|dock4
  -GOLD-   2272016153D 1   1.00000     0.00000
 Structure written by MMmdl.
 45 48  0  0  0  0  0  0  0  0  1 V2000
  153.2506  139.3400  157.4465 O   0  0  0  0  0  0  0  0  0  0  0  0
  152.2512  139.8881  157.9134 C   0  0  0  0  0  0  0  0  0  0  0  0
  152.2486  140.4575  159.1296 N   0  0  0  0  0  0  0  0  0  0  0  0
  153.4006  140.5622  160.0191 C   0  0  0  0  0  0  0  0  0  0  0  0
  153.3437  141.7929  160.9489 C   0  0  0  0  0  0  0  0  0  0  0  0
  152.7725  143.0382  160.2888 C   0  0  0  0  0  0  0  0  0  0  0  0
  152.0983  144.0118  161.0560 C   0  0  0  0  0  0  0  0  0  0  0  0
  151.5594  145.1324  160.3947 C   0  0  0  0  0  0  0  0  0  0  0  0
  151.7139  145.2367  158.9989 C   0  0  0  0  0  0  0  0  0  0  0  0
  152.4045  144.2111  158.3232 C   0  0  0  0  0  0  0  0  0  0  0  0
  152.9236  143.1326  158.9478 N   0  0  0  0  0  0  0  0  0  0  0  0
  150.9440  139.9776  157.0919 C   0  0  0  0  0  0  0  0  0  0  0  0
  151.1754  139.3341  155.6987 C   0  0  0  0  0  0  0  0  0  0  0  0
  149.8822  139.3973  154.8578 C   0  0  1  0  0  0  0  0  0  0  0  0
  148.7581  138.6245  155.5781 C   0  0  0  0  0  0  0  0  0  0  0  0
  148.5021  139.2678  156.9570 C   0  0  2  0  0  0  0  0  0  0  0  0
  148.0738  140.7380  156.7743 C   0  0  0  0  0  0  0  0  0  0  0  0
  149.1978  141.5069  156.0508 C   0  0  2  0  0  0  0  0  0  0  0  0
  149.4584  140.8695  154.6693 C   0  0  0  0  0  0  0  0  0  0  0  0
  150.4893  141.4537  156.8943 C   0  0  0  0  0  0  0  0  0  0  0  0
  149.7928  139.2063  157.8012 C   0  0  0  0  0  0  0  0  0  0  0  0
  151.3915  140.8887  159.4443 H   0  0  0  0  0  0  0  0  0  0  0  0
  153.4168  139.6569  160.6263 H   0  0  0  0  0  0  0  0  0  0  0  0
  154.3267  140.5611  159.4425 H   0  0  0  0  0  0  0  0  0  0  0  0
  152.7494  141.5564  161.8321 H   0  0  0  0  0  0  0  0  0  0  0  0
  154.3459  142.0181  161.3169 H   0  0  0  0  0  0  0  0  0  0  0  0
  151.9897  143.9000  162.1246 H   0  0  0  0  0  0  0  0  0  0  0  0
  151.0341  145.8968  160.9479 H   0  0  0  0  0  0  0  0  0  0  0  0
  151.3128  146.0815  158.4589 H   0  0  0  0  0  0  0  0  0  0  0  0
  152.5406  144.2562  157.2527 H   0  0  0  0  0  0  0  0  0  0  0  0
  151.9767  139.8516  155.1690 H   0  0  0  0  0  0  0  0  0  0  0  0
  151.4993  138.2972  155.8037 H   0  0  0  0  0  0  0  0  0  0  0  0
  150.0644  138.9455  153.8821 H   0  0  0  0  0  0  0  0  0  0  0  0
  147.8467  138.6378  154.9792 H   0  0  0  0  0  0  0  0  0  0  0  0
  149.0355  137.5761  155.6951 H   0  0  0  0  0  0  0  0  0  0  0  0
  147.7092  138.7216  157.4687 H   0  0  0  0  0  0  0  0  0  0  0  0
  147.1475  140.7940  156.2012 H   0  0  0  0  0  0  0  0  0  0  0  0
  147.8661  141.1945  157.7429 H   0  0  0  0  0  0  0  0  0  0  0  0
  148.8963  142.5463  155.9183 H   0  0  0  0  0  0  0  0  0  0  0  0
  150.2349  141.4212  154.1380 H   0  0  0  0  0  0  0  0  0  0  0  0
  148.5616  140.9278  154.0513 H   0  0  0  0  0  0  0  0  0  0  0  0
  150.3223  141.9331  157.8601 H   0  0  0  0  0  0  0  0  0  0  0  0
  151.2590  142.0393  156.3897 H   0  0  0  0  0  0  0  0  0  0  0  0
  150.0648  138.1612  157.9584 H   0  0  0  0  0  0  0  0  0  0  0  0
  149.6061  139.6264  158.7909 H   0  0  0  0  0  0  0  0  0  0  0  0
  1  2  2  0  0  0  0
  2  3  1  0  0  0  0
  2 12  1  0  0  0  0
  3  4  1  0  0  0  0
  3 22  1  0  0  0  0
  4  5  1  0  0  0  0
  4 23  1  0  0  0  0
  4 24  1  0  0  0  0
  5  6  1  0  0  0  0
  5 25  1  0  0  0  0
  5 26  1  0  0  0  0
  6 11  1  0  0  0  0
  6  7  2  0  0  0  0
  7  8  1  0  0  0  0
  7 27  1  0  0  0  0
  8  9  2  0  0  0  0
  8 28  1  0  0  0  0
  9 10  1  0  0  0  0
  9 29  1  0  0  0  0
 10 11  2  0  0  0  0
 10 30  1  0  0  0  0
 12 20  1  0  0  0  0
 12 21  1  0  0  0  0
 12 13  1  0  0  0  0
 13 14  1  0  0  0  0
 13 31  1  0  0  0  0
 13 32  1  0  0  0  0
 14 19  1  0  0  0  0
 14 15  1  0  0  0  0
 14 33  1  0  0  0  0
 15 16  1  0  0  0  0
 15 34  1  0  0  0  0
 15 35  1  0  0  0  0
 16 17  1  0  0  0  0
 16 21  1  0  0  0  0
 16 36  1  0  0  0  0
 17 18  1  0  0  0  0
 17 37  1  0  0  0  0
 17 38  1  0  0  0  0
 18 19  1  0  0  0  0
 18 20  1  0  0  0  0
 18 39  1  0  0  0  0
 19 40  1  0  0  0  0
 19 41  1  0  0  0  0
 20 42  1  0  0  0  0
 20 43  1  0  0  0  0
 21 44  1  0  0  0  0
 21 45  1  0  0  0  0
M  END
> <s_m_source_file>
AV-unprocessed.smi

> <i_m_source_file_index>
2942

> <i_lp_mmshare_version>
43012

> <i_f3d_flags>
0

> <s_epik_input>
W0NIMl0xW0NASF0oW0NIMl0yKVtDSDJdW0NASF0oW0NIMl0zKVtDSDJdW0NAQEhdMVtDSDJdQzIzQyg9TylbTkhdW0NIMl1bQ0gyXWM0W2NIXVtjSF1bY0hdW2NIXW40

> <s_epik_cmdline>
J2VwaWtfcHl0aG9uJywgJy1waCcsICc3LjAnLCAnLXRuJywgJzgnLCAnLW1hJywgJzIwMCcsICctbWV0YWxfYmluZGluZycsICctaW1hZScsICc8aW5maWxlLm1hZT4nLCAnLW9tYWUnLCAnPG91dGZpbGUubWFlPic=

> <r_epik_Ionization_Penalty>
0.0283659

> <r_epik_Ionization_Penalty_Charging>
0

> <r_epik_Ionization_Penalty_Neutral>
0.0283659

> <r_epik_State_Penalty>
0.0232723

> <r_epik_Charging_Adjusted_Penalty>
0.0232723

> <i_epik_Tot_Q>
0

> <i_epik_Tot_abs_Q>
0

> <r_epik_Metal_State_Penalty>
0.0222054

> <b_epik_Metal_Only>
0

> <s_lp_Force_Field>
OPLS_2005

> <r_lp_Energy>
35.5919

> <b_lp_Chiralities_Consistent>
1

> <s_lp_Variant>
AV-unprocessed.smi:2942-1

> <Gold.Version>
5.8.1

> <Gold.Id.Protein>
6NUR|6NUR_protein|mol2

> <Gold.PLP.Fitness>
47.9675

> <Gold.PLP.PLP>
-46.3337

> <Gold.PLP.part.hbond>
-1.0000

> <Gold.PLP.part.metal>
0.0000

> <Gold.PLP.part.buried>
-4.4165

> <Gold.PLP.part.nonpolar>
-41.5357

> <Gold.PLP.part.repulsive>
0.1342

> <Gold.PLP.ligand.clash>
0.0000

> <Gold.PLP.ligand.torsion>
0.6941

> <Gold.PLP.Chemscore.Hbond>
1.0000

> <Gold.PLP.Chemscore.CHOScore>
0.0000

> <Gold.PLP.Chemscore.Metal>
0.0000

> <Gold.Chemscore.Hbonds>
donor molecule, donor type, donor heavy atom, donor atom, acceptor molecule, acceptor atom, score
      P1  H  7997  8010       L1     1  1.00

> <Gold.PLP.Chemscore.Internal.Correction>
0.0219

> <Gold.Rescore>
     Score         DG    S(hbond)    S(metal)    S(lipo)     H(rot)  DE(clash)    DE(int)     intcor
     18.68     -20.54       1.00        0.00     129.22       1.32       0.14       1.72       ----

> <Gold.Chemscore.Fitness>
18.6806

> <Gold.Chemscore.DG>
-20.5358

> <Gold.Chemscore.ZeroCoef>
-5.4800

> <Gold.Chemscore.Hbond>
0.9966

> <Gold.Chemscore.Metal>
0.0000

> <Gold.Chemscore.Lipo>
129.2222

> <Gold.Chemscore.Internal_Hbond>
0.0000

> <Gold.Chemscore.DEClash>
0.1379

> <Gold.Chemscore.DEInternal>
1.7172

> <Gold.Chemscore.Rot>
1.3250

> <Gold.Chemscore.Internal.Correction>
   9.000000E+99

> <Gold.Chemscore.Hbonds>
donor molecule, donor type, donor heavy atom, donor atom, acceptor molecule, acceptor atom, score
      P1  H  7997  8010       L1     1  0.93

> <Gold.Chemscore.Hbond.Weighted>
-3.3287

> <Gold.Chemscore.Metal.Weighted>
-0.0000

> <Gold.Chemscore.Lipo.Weighted>
-15.1190

> <Gold.Chemscore.Internal_Hbond.Weighted>
0.0000

> <Gold.Chemscore.DEClash.Weighted>
0.1379

> <Gold.Chemscore.DEInternal.Weighted>
1.7172

> <Gold.Chemscore.Rot.Weighted>
3.3920

> <Gold.Chemscore.Internal.Correction.Weighted>
   9.000000E+99

> <Gold.Protein.RotatedTorsions>
[ 6907 6896 6895 6894 ] final -127.63 input  -60.11 | X-H torsion
[ 7974 7965 7964 7962 ] final   32.19 input  175.53 | X-H torsion
[ 8008 7997 7996 7995 ] final   42.08 input   59.86 | X-H torsion
[ 10167 10162 10161 10158 ] final   43.33 input  -65.29 | X-H torsion
[ 10718 10713 10712 10709 ] final  155.92 input   66.30 | X-H torsion
[ 10763 10752 10751 10750 ] final  -16.36 input  -60.55 | X-H torsion
[ 11005 11000 10999 10996 ] final  129.97 input  -57.11 | X-H torsion

> <Gold.Protein.ActiveResidues>
 VAL166  LYS551  ARG553  GLY616  TRP617  ASP618  TYR619  PRO620  LYS621  CYS622 
 ASP623  PHE694  ASN695  SER759  ASP760  ASP761  ALA762  ILE779  LEU786  VAL792 
 PHE793  MET794  SER795  GLU796  ALA797  LYS798  CYS799  TRP800  GLU811  SER814 

> <Gold.Protein.RotatedAtoms>
  150.9094  133.7017  159.2858 H   0  0  0  0  0  0  0  0  0  0  0  0  # atno 6907 bound_to 6896
  151.4509  135.1028  159.9707 H   0  0  0  0  0  0  0  0  0  0  0  0  # atno 6908 bound_to 6896
  152.4921  133.8480  159.7242 H   0  0  0  0  0  0  0  0  0  0  0  0  # atno 6909 bound_to 6896
  146.1502  139.6558  142.9104 H   0  0  0  0  0  0  0  0  0  0  0  0  # atno 7974 bound_to 7965
  155.2803  140.3372  155.4259 H   0  0  0  0  0  0  0  0  0  0  0  0  # atno 8008 bound_to 7997
  156.2093  140.1763  156.7772 H   0  0  0  0  0  0  0  0  0  0  0  0  # atno 8009 bound_to 7997
  154.5664  140.0678  156.8882 H   0  0  0  0  0  0  0  0  0  0  0  0  # atno 8010 bound_to 7997
  140.3454  144.2417  150.6151 H   0  0  0  0  0  0  0  0  0  0  0  0  # atno 10167 bound_to 10162
  157.2119  131.0699  151.1964 H   0  0  0  0  0  0  0  0  0  0  0  0  # atno 10718 bound_to 10713
  153.5574  135.7010  153.5563 H   0  0  0  0  0  0  0  0  0  0  0  0  # atno 10763 bound_to 10752
  153.3460  135.4008  155.1609 H   0  0  0  0  0  0  0  0  0  0  0  0  # atno 10764 bound_to 10752
  154.8653  135.3754  154.5089 H   0  0  0  0  0  0  0  0  0  0  0  0  # atno 10765 bound_to 10752
  139.9645  134.9594  156.9226 H   0  0  0  0  0  0  0  0  0  0  0  0  # atno 11005 bound_to 11000
  145.4841  141.0438  143.2629 LP  0  0  0  0  0  0  0  0  0  0  0  0  # atno 17320 bound_to 7965
  144.7895  139.6358  143.7119 LP  0  0  0  0  0  0  0  0  0  0  0  0  # atno 17321 bound_to 7965
  140.5269  143.2252  151.8300 LP  0  0  0  0  0  0  0  0  0  0  0  0  # atno 17342 bound_to 10162
  139.4834  144.4768  151.9357 LP  0  0  0  0  0  0  0  0  0  0  0  0  # atno 17343 bound_to 10162
  157.3663  130.7158  149.6535 LP  0  0  0  0  0  0  0  0  0  0  0  0  # atno 17370 bound_to 10713
  155.9690  130.4211  150.4454 LP  0  0  0  0  0  0  0  0  0  0  0  0  # atno 17371 bound_to 10713
  140.5426  134.0705  155.7346 LP  0  0  0  0  0  0  0  0  0  0  0  0  # atno 17394 bound_to 11000
  141.1324  133.9279  157.2506 LP  0  0  0  0  0  0  0  0  0  0  0  0  # atno 17395 bound_to 11000

$$$$
