AV-unprocessed.smi:879|AV-procd|sdf|4033|dock5
  -GOLD-   22720 1523D 1   1.00000     0.00000
 Structure written by MMmdl.
 39 40  0  0  0  0  0  0  0  0  1 V2000
  146.6920  139.2718  152.8237 C   0  0  0  0  0  0  0  0  0  0  0  0
  147.8881  138.6001  153.3088 N   0  0  0  0  0  0  0  0  0  0  0  0
  148.7089  139.1017  154.2430 C   0  0  0  0  0  0  0  0  0  0  0  0
  148.5198  140.1927  154.7837 O   0  0  0  0  0  0  0  0  0  0  0  0
  149.9114  138.2250  154.6177 C   0  0  0  0  0  0  0  0  0  0  0  0
  150.8412  138.9059  155.5741 C   0  0  0  0  0  0  0  0  0  0  0  0
  151.7824  139.7396  155.1457 N   0  0  0  0  0  0  0  0  0  0  0  0
  152.4214  140.1412  156.3272 O   0  0  0  0  0  0  0  0  0  0  0  0
  151.7782  139.4996  157.3326 C   0  0  0  0  0  0  0  0  0  0  0  0
  152.2527  139.6919  158.7369 C   0  0  0  0  0  0  0  0  0  0  0  0
  151.8552  141.0516  159.3547 C   0  0  0  0  0  0  0  0  0  0  0  0
  150.7584  141.7438  158.5138 C   0  0  0  0  0  0  0  0  0  0  0  0
  151.2619  142.6112  157.3471 C   0  0  0  0  0  0  0  0  0  0  0  0
  151.5414  144.0653  157.7636 C   0  0  0  0  0  0  0  0  0  0  0  0
  152.7901  144.2567  158.6375 C   0  0  0  0  0  0  0  0  0  0  0  0
  152.8125  143.4182  159.9276 C   0  0  0  0  0  0  0  0  0  0  0  0
  153.0920  141.9282  159.6667 C   0  0  0  0  0  0  0  0  0  0  0  0
  150.7972  138.7011  156.9203 N   0  0  0  0  0  0  0  0  0  0  0  0
  146.1796  138.6403  152.0980 H   0  0  0  0  0  0  0  0  0  0  0  0
  146.9478  140.2133  152.3367 H   0  0  0  0  0  0  0  0  0  0  0  0
  146.0017  139.4793  153.6426 H   0  0  0  0  0  0  0  0  0  0  0  0
  148.1054  137.6982  152.9101 H   0  0  0  0  0  0  0  0  0  0  0  0
  149.5499  137.2976  155.0634 H   0  0  0  0  0  0  0  0  0  0  0  0
  150.4604  137.9500  153.7156 H   0  0  0  0  0  0  0  0  0  0  0  0
  151.8631  138.8764  159.3474 H   0  0  0  0  0  0  0  0  0  0  0  0
  153.3377  139.5822  158.7395 H   0  0  0  0  0  0  0  0  0  0  0  0
  151.3857  140.8244  160.3133 H   0  0  0  0  0  0  0  0  0  0  0  0
  150.0816  140.9839  158.1213 H   0  0  0  0  0  0  0  0  0  0  0  0
  150.1334  142.3542  159.1670 H   0  0  0  0  0  0  0  0  0  0  0  0
  152.1339  142.1635  156.8694 H   0  0  0  0  0  0  0  0  0  0  0  0
  150.4834  142.6326  156.5838 H   0  0  0  0  0  0  0  0  0  0  0  0
  151.6612  144.6685  156.8632 H   0  0  0  0  0  0  0  0  0  0  0  0
  150.6699  144.4744  158.2759 H   0  0  0  0  0  0  0  0  0  0  0  0
  153.6844  144.0493  158.0489 H   0  0  0  0  0  0  0  0  0  0  0  0
  152.8553  145.3112  158.9070 H   0  0  0  0  0  0  0  0  0  0  0  0
  153.6178  143.8040  160.5534 H   0  0  0  0  0  0  0  0  0  0  0  0
  151.8976  143.5541  160.5055 H   0  0  0  0  0  0  0  0  0  0  0  0
  153.5848  141.5151  160.5479 H   0  0  0  0  0  0  0  0  0  0  0  0
  153.8237  141.8394  158.8627 H   0  0  0  0  0  0  0  0  0  0  0  0
  1  2  1  0  0  0  0
  1 19  1  0  0  0  0
  1 20  1  0  0  0  0
  1 21  1  0  0  0  0
  2  3  1  0  0  0  0
  2 22  1  0  0  0  0
  3  4  2  0  0  0  0
  3  5  1  0  0  0  0
  5  6  1  0  0  0  0
  5 23  1  0  0  0  0
  5 24  1  0  0  0  0
  6 18  1  0  0  0  0
  6  7  2  0  0  0  0
  7  8  1  0  0  0  0
  8  9  1  0  0  0  0
  9 10  1  0  0  0  0
  9 18  2  0  0  0  0
 10 11  1  0  0  0  0
 10 25  1  0  0  0  0
 10 26  1  0  0  0  0
 11 17  1  0  0  0  0
 11 12  1  0  0  0  0
 11 27  1  0  0  0  0
 12 13  1  0  0  0  0
 12 28  1  0  0  0  0
 12 29  1  0  0  0  0
 13 14  1  0  0  0  0
 13 30  1  0  0  0  0
 13 31  1  0  0  0  0
 14 15  1  0  0  0  0
 14 32  1  0  0  0  0
 14 33  1  0  0  0  0
 15 16  1  0  0  0  0
 15 34  1  0  0  0  0
 15 35  1  0  0  0  0
 16 17  1  0  0  0  0
 16 36  1  0  0  0  0
 16 37  1  0  0  0  0
 17 38  1  0  0  0  0
 17 39  1  0  0  0  0
M  END
> <s_m_source_file>
AV-unprocessed.smi

> <i_m_source_file_index>
879

> <i_lp_mmshare_version>
43012

> <i_f3d_flags>
0

> <s_epik_input>
W0NIM11bTkhdQyg9TylbQ0gyXWMxbm9jKG4xKVtDSDJdW0NIXTJbQ0gyXVtDSDJdW0NIMl1bQ0gyXVtDSDJdW0NIMl0y

> <s_epik_cmdline>
J2VwaWtfcHl0aG9uJywgJy1waCcsICc3LjAnLCAnLXRuJywgJzgnLCAnLW1hJywgJzIwMCcsICctbWV0YWxfYmluZGluZycsICctaW1hZScsICc8aW5maWxlLm1hZT4nLCAnLW9tYWUnLCAnPG91dGZpbGUubWFlPic=

> <r_lp_tautomer_probability>
1

> <r_epik_Ionization_Penalty>
1.02915e-07

> <r_epik_Ionization_Penalty_Charging>
0

> <r_epik_Ionization_Penalty_Neutral>
1.02915e-07

> <r_epik_State_Penalty>
-0

> <r_epik_Charging_Adjusted_Penalty>
0

> <i_epik_Tot_Q>
0

> <i_epik_Tot_abs_Q>
0

> <r_epik_Metal_State_Penalty>
-0

> <b_epik_Metal_Only>
0

> <s_lp_Force_Field>
OPLS_2005

> <r_lp_Energy>
15.7019

> <b_lp_Chiralities_Consistent>
1

> <s_lp_Variant>
AV-unprocessed.smi:879-1

> <Gold.Version>
5.8.1

> <Gold.Id.Protein>
6NUR|6NUR_protein|mol2

> <Gold.PLP.Fitness>
44.1785

> <Gold.PLP.PLP>
-38.3550

> <Gold.PLP.part.hbond>
-4.0000

> <Gold.PLP.part.metal>
0.0000

> <Gold.PLP.part.buried>
-2.0665

> <Gold.PLP.part.nonpolar>
-32.2560

> <Gold.PLP.part.repulsive>
0.1706

> <Gold.PLP.ligand.clash>
0.6020

> <Gold.PLP.ligand.torsion>
1.2277

> <Gold.PLP.Chemscore.Hbond>
2.9440

> <Gold.PLP.Chemscore.CHOScore>
0.0000

> <Gold.PLP.Chemscore.Metal>
0.0000

> <Gold.Chemscore.Hbonds>
donor molecule, donor type, donor heavy atom, donor atom, acceptor molecule, acceptor atom, score
      L1  H     2    22       P1  7948  1.00
      P1  H  7989  7998       L1     7  1.00
      P1  H  7997  8010       L1     8  1.00

> <Gold.PLP.Chemscore.Internal.Correction>
0.0490

> <Gold.Rescore>
     Score         DG    S(hbond)    S(metal)    S(lipo)     H(rot)  DE(clash)    DE(int)     intcor
     18.48     -20.57       2.84        0.00      88.22       1.84       0.00       2.09       ----

> <Gold.Chemscore.Fitness>
18.4796

> <Gold.Chemscore.DG>
-20.5665

> <Gold.Chemscore.ZeroCoef>
-5.4800

> <Gold.Chemscore.Hbond>
2.8368

> <Gold.Chemscore.Metal>
0.0000

> <Gold.Chemscore.Lipo>
88.2189

> <Gold.Chemscore.Internal_Hbond>
0.0000

> <Gold.Chemscore.DEClash>
0.0015

> <Gold.Chemscore.DEInternal>
2.0854

> <Gold.Chemscore.Rot>
1.8399

> <Gold.Chemscore.Internal.Correction>
   9.000000E+99

> <Gold.Chemscore.Hbonds>
donor molecule, donor type, donor heavy atom, donor atom, acceptor molecule, acceptor atom, score
      L1  H     2    22       P1  7948  0.97
      P1  H  7989  7998       L1     7  0.91
      P1  H  7997  8010       L1     8  0.90

> <Gold.Chemscore.Hbond.Weighted>
-9.4750

> <Gold.Chemscore.Metal.Weighted>
-0.0000

> <Gold.Chemscore.Lipo.Weighted>
-10.3216

> <Gold.Chemscore.Internal_Hbond.Weighted>
0.0000

> <Gold.Chemscore.DEClash.Weighted>
0.0015

> <Gold.Chemscore.DEInternal.Weighted>
2.0854

> <Gold.Chemscore.Rot.Weighted>
4.7101

> <Gold.Chemscore.Internal.Correction.Weighted>
   9.000000E+99

> <Gold.Protein.RotatedTorsions>
[ 6907 6896 6895 6894 ] final  -71.24 input  -60.11 | X-H torsion
[ 7974 7965 7964 7962 ] final  -48.44 input  175.53 | X-H torsion
[ 8008 7997 7996 7995 ] final   74.26 input   59.86 | X-H torsion
[ 10167 10162 10161 10158 ] final -111.03 input  -65.29 | X-H torsion
[ 10718 10713 10712 10709 ] final  167.37 input   66.30 | X-H torsion
[ 10763 10752 10751 10750 ] final  -12.01 input  -60.55 | X-H torsion
[ 11005 11000 10999 10996 ] final  -70.35 input  -57.11 | X-H torsion

> <Gold.Protein.ActiveResidues>
 VAL166  LYS551  ARG553  GLY616  TRP617  ASP618  TYR619  PRO620  LYS621  CYS622 
 ASP623  PHE694  ASN695  SER759  ASP760  ASP761  ALA762  ILE779  LEU786  VAL792 
 PHE793  MET794  SER795  GLU796  ALA797  LYS798  CYS799  TRP800  GLU811  SER814 

> <Gold.Protein.RotatedAtoms>
  150.7221  134.5338  159.5712 H   0  0  0  0  0  0  0  0  0  0  0  0  # atno 6907 bound_to 6896
  152.2864  134.7767  160.0395 H   0  0  0  0  0  0  0  0  0  0  0  0  # atno 6908 bound_to 6896
  151.8396  133.3386  159.3675 H   0  0  0  0  0  0  0  0  0  0  0  0  # atno 6909 bound_to 6896
  145.9511  140.7571  142.9504 H   0  0  0  0  0  0  0  0  0  0  0  0  # atno 7974 bound_to 7965
  155.7958  140.3478  155.5375 H   0  0  0  0  0  0  0  0  0  0  0  0  # atno 8008 bound_to 7997
  155.8588  140.0968  157.1647 H   0  0  0  0  0  0  0  0  0  0  0  0  # atno 8009 bound_to 7997
  154.4011  140.1362  156.3922 H   0  0  0  0  0  0  0  0  0  0  0  0  # atno 8010 bound_to 7997
  140.1380  143.4303  152.1581 H   0  0  0  0  0  0  0  0  0  0  0  0  # atno 10167 bound_to 10162
  157.0525  131.0317  151.2676 H   0  0  0  0  0  0  0  0  0  0  0  0  # atno 10718 bound_to 10713
  153.4922  135.7017  153.5878 H   0  0  0  0  0  0  0  0  0  0  0  0  # atno 10763 bound_to 10752
  153.4045  135.3864  155.2010 H   0  0  0  0  0  0  0  0  0  0  0  0  # atno 10764 bound_to 10752
  154.8716  135.3889  154.4383 H   0  0  0  0  0  0  0  0  0  0  0  0  # atno 10765 bound_to 10752
  141.1572  133.6787  156.6738 H   0  0  0  0  0  0  0  0  0  0  0  0  # atno 11005 bound_to 11000
  144.6796  140.2436  143.7340 LP  0  0  0  0  0  0  0  0  0  0  0  0  # atno 17320 bound_to 7965
  145.8170  139.2027  143.1960 LP  0  0  0  0  0  0  0  0  0  0  0  0  # atno 17321 bound_to 7965
  139.5486  144.7319  151.4505 LP  0  0  0  0  0  0  0  0  0  0  0  0  # atno 17342 bound_to 10162
  140.6777  143.8152  150.7080 LP  0  0  0  0  0  0  0  0  0  0  0  0  # atno 17343 bound_to 10162
  157.5019  130.7885  149.7614 LP  0  0  0  0  0  0  0  0  0  0  0  0  # atno 17370 bound_to 10713
  156.0003  130.3884  150.2631 LP  0  0  0  0  0  0  0  0  0  0  0  0  # atno 17371 bound_to 10713
  140.3154  134.8051  157.4210 LP  0  0  0  0  0  0  0  0  0  0  0  0  # atno 17394 bound_to 11000
  140.1142  134.5305  155.8239 LP  0  0  0  0  0  0  0  0  0  0  0  0  # atno 17395 bound_to 11000

$$$$
