AV-unprocessed.smi:335|AV-procd|sdf|2370|dock9
  -GOLD-   2262022283D 1   1.00000     0.00000
 Structure written by MMmdl.
 42 44  0  0  0  0  0  0  0  0  1 V2000
  153.6186  138.6460  159.4226 C   0  0  0  0  0  0  0  0  0  0  0  0
  154.2679  138.8760  158.1847 O   0  0  0  0  0  0  0  0  0  0  0  0
  154.3187  137.7129  157.3744 C   0  0  0  0  0  0  0  0  0  0  0  0
  153.9660  138.0812  155.9237 C   0  0  0  0  0  0  0  0  0  0  0  0
  152.5858  138.5644  155.8027 N   0  0  0  0  0  0  0  0  0  0  0  0
  152.2674  139.5873  156.6803 N   0  0  0  0  0  0  0  0  0  0  0  0
  151.0889  140.1212  156.6577 C   0  0  0  0  0  0  0  0  0  0  0  0
  150.7084  141.2248  157.5821 C   0  0  0  0  0  0  0  0  0  0  0  0
  149.6436  141.8335  157.4633 O   0  0  0  0  0  0  0  0  0  0  0  0
  151.6074  141.5023  158.5441 N   0  0  0  0  0  0  0  0  0  0  0  0
  151.4784  142.5382  159.5631 C   0  0  0  0  0  0  0  0  0  0  0  0
  150.9686  143.8489  158.9887 C   0  0  0  0  0  0  0  0  0  0  0  0
  151.8998  144.8311  158.3181 C   0  0  0  0  0  0  0  0  0  0  0  0
  151.2763  145.1696  159.6531 C   0  0  0  0  0  0  0  0  0  0  0  0
  152.7848  142.7580  160.3034 C   0  0  0  0  0  0  0  0  0  0  0  0
  153.5514  141.5979  160.8922 C   0  0  0  0  0  0  0  0  0  0  0  0
  152.8761  142.5991  161.8027 C   0  0  0  0  0  0  0  0  0  0  0  0
  150.0802  139.6575  155.7198 C   0  0  0  0  0  0  0  0  0  0  0  0
  150.4025  138.6528  154.8759 C   0  0  0  0  0  0  0  0  0  0  0  0
  151.7281  138.0323  154.8804 C   0  0  0  0  0  0  0  0  0  0  0  0
  152.0458  137.1178  154.1205 O   0  0  0  0  0  0  0  0  0  0  0  0
  153.6023  139.5671  160.0050 H   0  0  0  0  0  0  0  0  0  0  0  0
  154.1423  137.8886  160.0072 H   0  0  0  0  0  0  0  0  0  0  0  0
  152.5875  138.3231  159.2734 H   0  0  0  0  0  0  0  0  0  0  0  0
  155.3073  137.2542  157.4261 H   0  0  0  0  0  0  0  0  0  0  0  0
  153.6034  136.9788  157.7478 H   0  0  0  0  0  0  0  0  0  0  0  0
  154.6577  138.8425  155.5593 H   0  0  0  0  0  0  0  0  0  0  0  0
  154.1249  137.2148  155.2789 H   0  0  0  0  0  0  0  0  0  0  0  0
  152.4541  140.9521  158.5643 H   0  0  0  0  0  0  0  0  0  0  0  0
  150.7518  142.2012  160.3052 H   0  0  0  0  0  0  0  0  0  0  0  0
  149.9784  143.7670  158.5436 H   0  0  0  0  0  0  0  0  0  0  0  0
  152.9641  144.6045  158.3095 H   0  0  0  0  0  0  0  0  0  0  0  0
  151.5278  145.3562  157.4409 H   0  0  0  0  0  0  0  0  0  0  0  0
  150.4867  145.9177  159.6670 H   0  0  0  0  0  0  0  0  0  0  0  0
  151.9264  145.1612  160.5256 H   0  0  0  0  0  0  0  0  0  0  0  0
  153.3927  143.5554  159.8794 H   0  0  0  0  0  0  0  0  0  0  0  0
  153.1072  140.6070  160.8186 H   0  0  0  0  0  0  0  0  0  0  0  0
  154.6371  141.6283  160.8261 H   0  0  0  0  0  0  0  0  0  0  0  0
  153.5111  143.2979  162.3433 H   0  0  0  0  0  0  0  0  0  0  0  0
  151.9888  142.2662  162.3374 H   0  0  0  0  0  0  0  0  0  0  0  0
  149.0939  140.0974  155.6938 H   0  0  0  0  0  0  0  0  0  0  0  0
  149.6617  138.2965  154.1752 H   0  0  0  0  0  0  0  0  0  0  0  0
  1  2  1  0  0  0  0
  1 22  1  0  0  0  0
  1 23  1  0  0  0  0
  1 24  1  0  0  0  0
  2  3  1  0  0  0  0
  3  4  1  0  0  0  0
  3 25  1  0  0  0  0
  3 26  1  0  0  0  0
  4  5  1  0  0  0  0
  4 27  1  0  0  0  0
  4 28  1  0  0  0  0
  5 20  1  0  0  0  0
  5  6  1  0  0  0  0
  6  7  2  0  0  0  0
  7  8  1  0  0  0  0
  7 18  1  0  0  0  0
  8  9  2  0  0  0  0
  8 10  1  0  0  0  0
 10 11  1  0  0  0  0
 10 29  1  0  0  0  0
 11 12  1  0  0  0  0
 11 15  1  0  0  0  0
 11 30  1  0  0  0  0
 12 14  1  0  0  0  0
 12 13  1  0  0  0  0
 12 31  1  0  0  0  0
 13 14  1  0  0  0  0
 13 32  1  0  0  0  0
 13 33  1  0  0  0  0
 14 34  1  0  0  0  0
 14 35  1  0  0  0  0
 15 17  1  0  0  0  0
 15 16  1  0  0  0  0
 15 36  1  0  0  0  0
 16 17  1  0  0  0  0
 16 37  1  0  0  0  0
 16 38  1  0  0  0  0
 17 39  1  0  0  0  0
 17 40  1  0  0  0  0
 18 19  2  0  0  0  0
 18 41  1  0  0  0  0
 19 20  1  0  0  0  0
 19 42  1  0  0  0  0
 20 21  2  0  0  0  0
M  END
> <s_m_source_file>
AV-unprocessed.smi

> <i_m_source_file_index>
335

> <i_lp_mmshare_version>
43012

> <i_f3d_flags>
0

> <s_epik_input>
W0NIM11PW0NIMl1bQ0gyXW4xbmMoW2NIXVtjSF1jMT1PKUMoPU8pW05IXVtDSF0oW0NIXTJbQ0gyXVtDSDJdMilbQ0hdM1tDSDJdW0NIMl0z

> <s_epik_cmdline>
J2VwaWtfcHl0aG9uJywgJy1waCcsICc3LjAnLCAnLXRuJywgJzgnLCAnLW1hJywgJzIwMCcsICctbWV0YWxfYmluZGluZycsICctaW1hZScsICc8aW5maWxlLm1hZT4nLCAnLW9tYWUnLCAnPG91dGZpbGUubWFlPic=

> <r_lp_tautomer_probability>
1

> <r_epik_Ionization_Penalty>
5.73468e-07

> <r_epik_Ionization_Penalty_Charging>
6.67133e-09

> <r_epik_Ionization_Penalty_Neutral>
5.66797e-07

> <r_epik_State_Penalty>
-0

> <r_epik_Charging_Adjusted_Penalty>
6.67133e-09

> <i_epik_Tot_Q>
0

> <i_epik_Tot_abs_Q>
0

> <r_epik_Metal_State_Penalty>
-0

> <b_epik_Metal_Only>
0

> <s_lp_Force_Field>
OPLS_2005

> <r_lp_Energy>
44.174

> <b_lp_Chiralities_Consistent>
1

> <s_lp_Variant>
AV-unprocessed.smi:335-1

> <Gold.Version>
5.8.1

> <Gold.Id.Protein>
6NUR|6NUR_protein|mol2

> <Gold.PLP.Fitness>
50.8558

> <Gold.PLP.PLP>
-46.6934

> <Gold.PLP.part.hbond>
-3.0000

> <Gold.PLP.part.metal>
0.0000

> <Gold.PLP.part.buried>
-2.8752

> <Gold.PLP.part.nonpolar>
-43.2306

> <Gold.PLP.part.repulsive>
1.9747

> <Gold.PLP.ligand.clash>
0.0000

> <Gold.PLP.ligand.torsion>
1.8606

> <Gold.PLP.Chemscore.Hbond>
1.9120

> <Gold.PLP.Chemscore.CHOScore>
0.0000

> <Gold.PLP.Chemscore.Metal>
0.0000

> <Gold.Chemscore.Hbonds>
donor molecule, donor type, donor heavy atom, donor atom, acceptor molecule, acceptor atom, score
      P1  H  7997  8009       L1     2  1.00
      P1  H 10752 10765       L1    21  0.94

> <Gold.PLP.Chemscore.Internal.Correction>
2.1475

> <Gold.Rescore>
     Score         DG    S(hbond)    S(metal)    S(lipo)     H(rot)  DE(clash)    DE(int)     intcor
     13.92     -21.14       1.88        0.00     120.57       1.85       2.44       4.77       ----

> <Gold.Chemscore.Fitness>
13.9234

> <Gold.Chemscore.DG>
-21.1353

> <Gold.Chemscore.ZeroCoef>
-5.4800

> <Gold.Chemscore.Hbond>
1.8782

> <Gold.Chemscore.Metal>
0.0000

> <Gold.Chemscore.Lipo>
120.5748

> <Gold.Chemscore.Internal_Hbond>
0.0000

> <Gold.Chemscore.DEClash>
2.4407

> <Gold.Chemscore.DEInternal>
4.7712

> <Gold.Chemscore.Rot>
1.8458

> <Gold.Chemscore.Internal.Correction>
   9.000000E+99

> <Gold.Chemscore.Hbonds>
donor molecule, donor type, donor heavy atom, donor atom, acceptor molecule, acceptor atom, score
      P1  H  7997  8009       L1     2  0.29
      P1  H 10752 10765       L1    21  0.91

> <Gold.Chemscore.Hbond.Weighted>
-6.2733

> <Gold.Chemscore.Metal.Weighted>
-0.0000

> <Gold.Chemscore.Lipo.Weighted>
-14.1072

> <Gold.Chemscore.Internal_Hbond.Weighted>
0.0000

> <Gold.Chemscore.DEClash.Weighted>
2.4407

> <Gold.Chemscore.DEInternal.Weighted>
4.7712

> <Gold.Chemscore.Rot.Weighted>
4.7252

> <Gold.Chemscore.Internal.Correction.Weighted>
   9.000000E+99

> <Gold.Protein.RotatedTorsions>
[ 6907 6896 6895 6894 ] final  -47.25 input  -60.11 | X-H torsion
[ 7974 7965 7964 7962 ] final -168.25 input  175.53 | X-H torsion
[ 8008 7997 7996 7995 ] final  145.10 input   59.86 | X-H torsion
[ 10167 10162 10161 10158 ] final   61.75 input  -65.29 | X-H torsion
[ 10718 10713 10712 10709 ] final  -41.35 input   66.30 | X-H torsion
[ 10763 10752 10751 10750 ] final  142.13 input  -60.55 | X-H torsion
[ 11005 11000 10999 10996 ] final -154.97 input  -57.11 | X-H torsion

> <Gold.Protein.ActiveResidues>
 VAL166  LYS551  ARG553  GLY616  TRP617  ASP618  TYR619  PRO620  LYS621  CYS622 
 ASP623  PHE694  ASN695  SER759  ASP760  ASP761  ALA762  ILE779  LEU786  VAL792 
 PHE793  MET794  SER795  GLU796  ALA797  LYS798  CYS799  TRP800  GLU811  SER814 

> <Gold.Protein.RotatedAtoms>
  150.9027  134.8440  159.7370 H   0  0  0  0  0  0  0  0  0  0  0  0  # atno 6907 bound_to 6896
  152.4901  134.4478  159.9574 H   0  0  0  0  0  0  0  0  0  0  0  0  # atno 6908 bound_to 6896
  151.4528  133.3574  159.2833 H   0  0  0  0  0  0  0  0  0  0  0  0  # atno 6909 bound_to 6896
  144.7206  140.2397  143.6293 H   0  0  0  0  0  0  0  0  0  0  0  0  # atno 7974 bound_to 7965
  156.2892  140.2218  156.5160 H   0  0  0  0  0  0  0  0  0  0  0  0  # atno 8008 bound_to 7997
  154.7569  140.0476  157.0962 H   0  0  0  0  0  0  0  0  0  0  0  0  # atno 8009 bound_to 7997
  155.0040  140.3105  155.4859 H   0  0  0  0  0  0  0  0  0  0  0  0  # atno 8010 bound_to 7997
  140.1513  144.4460  150.6757 H   0  0  0  0  0  0  0  0  0  0  0  0  # atno 10167 bound_to 10162
  156.2714  130.4207  149.8434 H   0  0  0  0  0  0  0  0  0  0  0  0  # atno 10718 bound_to 10713
  153.9507  135.2970  155.3438 H   0  0  0  0  0  0  0  0  0  0  0  0  # atno 10763 bound_to 10752
  154.7428  135.5017  153.9155 H   0  0  0  0  0  0  0  0  0  0  0  0  # atno 10764 bound_to 10752
  153.0995  135.6730  153.9807 H   0  0  0  0  0  0  0  0  0  0  0  0  # atno 10765 bound_to 10752
  140.6916  134.4035  157.5218 H   0  0  0  0  0  0  0  0  0  0  0  0  # atno 11005 bound_to 11000
  145.8331  139.2095  143.1871 LP  0  0  0  0  0  0  0  0  0  0  0  0  # atno 17320 bound_to 7965
  146.0413  140.8162  142.9827 LP  0  0  0  0  0  0  0  0  0  0  0  0  # atno 17321 bound_to 7965
  140.6700  143.2282  151.5648 LP  0  0  0  0  0  0  0  0  0  0  0  0  # atno 17342 bound_to 10162
  139.5424  144.2611  152.1377 LP  0  0  0  0  0  0  0  0  0  0  0  0  # atno 17343 bound_to 10162
  156.5914  130.8508  151.3409 LP  0  0  0  0  0  0  0  0  0  0  0  0  # atno 17370 bound_to 10713
  157.7285  130.9657  150.1745 LP  0  0  0  0  0  0  0  0  0  0  0  0  # atno 17371 bound_to 10713
  139.8922  134.8761  156.2283 LP  0  0  0  0  0  0  0  0  0  0  0  0  # atno 17394 bound_to 11000
  141.0237  133.7027  156.1311 LP  0  0  0  0  0  0  0  0  0  0  0  0  # atno 17395 bound_to 11000

$$$$
