AV-unprocessed.smi:2506|AV-procd|sdf|9861|dock1
  -GOLD-   2272013493D 1   1.00000     0.00000
 Structure written by MMmdl.
 38 39  0  0  0  0  0  0  0  0  1 V2000
  150.7058  138.0862  154.0856 C   0  0  0  0  0  0  0  0  0  0  0  0
  149.8190  139.3031  154.2823 C   0  0  0  0  0  0  0  0  0  0  0  0
  150.4258  140.3918  154.8113 N   0  0  0  0  0  0  0  0  0  0  0  0
  149.7331  141.5148  155.0269 N   0  0  0  0  0  0  0  0  0  0  0  0
  148.4176  141.5663  154.7221 C   0  0  0  0  0  0  0  0  0  0  0  0
  147.7214  140.4760  154.1693 C   0  0  0  0  0  0  0  0  0  0  0  0
  148.4503  139.2901  153.9255 C   0  0  0  0  0  0  0  0  0  0  0  0
  147.8790  138.1021  153.3888 N   0  0  0  0  0  0  0  0  0  0  0  0
  146.5827  137.7570  153.3072 C   0  0  0  0  0  0  0  0  0  0  0  0
  145.6375  138.4400  153.7004 O   0  0  0  0  0  0  0  0  0  0  0  0
  146.4389  136.5654  152.7097 N   0  0  0  0  0  0  0  0  0  0  0  0
  145.1679  135.9000  152.4300 C   0  0  0  0  0  0  0  0  0  0  0  0
  145.3383  134.3974  152.0936 C   0  0  0  0  0  0  0  0  0  0  0  0
  146.0039  133.6444  153.2686 C   0  0  0  0  0  0  0  0  0  0  0  0
  144.0044  133.7330  151.7089 C   0  0  0  0  0  0  0  0  0  0  0  0
  144.3652  132.5470  150.8074 C   0  0  0  0  0  0  0  0  0  0  0  0
  145.7462  132.8624  150.2175 C   0  0  0  0  0  0  0  0  0  0  0  0
  146.1699  134.2113  150.8127 C   0  0  0  0  0  0  0  0  0  0  0  0
  150.7292  137.7997  153.0336 H   0  0  0  0  0  0  0  0  0  0  0  0
  150.3282  137.2434  154.6653 H   0  0  0  0  0  0  0  0  0  0  0  0
  151.7303  138.2821  154.4047 H   0  0  0  0  0  0  0  0  0  0  0  0
  147.9090  142.4959  154.9302 H   0  0  0  0  0  0  0  0  0  0  0  0
  146.6664  140.5670  153.9625 H   0  0  0  0  0  0  0  0  0  0  0  0
  148.5327  137.4698  152.9509 H   0  0  0  0  0  0  0  0  0  0  0  0
  147.2738  136.0807  152.4149 H   0  0  0  0  0  0  0  0  0  0  0  0
  144.5470  136.0148  153.3190 H   0  0  0  0  0  0  0  0  0  0  0  0
  144.6287  136.4070  151.6278 H   0  0  0  0  0  0  0  0  0  0  0  0
  146.2085  132.6026  153.0215 H   0  0  0  0  0  0  0  0  0  0  0  0
  145.3718  133.6417  154.1564 H   0  0  0  0  0  0  0  0  0  0  0  0
  146.9532  134.1056  153.5433 H   0  0  0  0  0  0  0  0  0  0  0  0
  143.4143  133.4305  152.5751 H   0  0  0  0  0  0  0  0  0  0  0  0
  143.3951  134.4337  151.1359 H   0  0  0  0  0  0  0  0  0  0  0  0
  144.4173  131.6300  151.3958 H   0  0  0  0  0  0  0  0  0  0  0  0
  143.6145  132.3929  150.0318 H   0  0  0  0  0  0  0  0  0  0  0  0
  146.4558  132.0839  150.5006 H   0  0  0  0  0  0  0  0  0  0  0  0
  145.7234  132.9006  149.1280 H   0  0  0  0  0  0  0  0  0  0  0  0
  145.9285  134.9965  150.0946 H   0  0  0  0  0  0  0  0  0  0  0  0
  147.2442  134.2665  150.9928 H   0  0  0  0  0  0  0  0  0  0  0  0
  1  2  1  0  0  0  0
  1 19  1  0  0  0  0
  1 20  1  0  0  0  0
  1 21  1  0  0  0  0
  2  7  1  0  0  0  0
  2  3  2  0  0  0  0
  3  4  1  0  0  0  0
  4  5  2  0  0  0  0
  5  6  1  0  0  0  0
  5 22  1  0  0  0  0
  6  7  2  0  0  0  0
  6 23  1  0  0  0  0
  7  8  1  0  0  0  0
  8  9  1  0  0  0  0
  8 24  1  0  0  0  0
  9 10  2  0  0  0  0
  9 11  1  0  0  0  0
 11 12  1  0  0  0  0
 11 25  1  0  0  0  0
 12 13  1  0  0  0  0
 12 26  1  0  0  0  0
 12 27  1  0  0  0  0
 13 18  1  0  0  0  0
 13 14  1  0  0  0  0
 13 15  1  0  0  0  0
 14 28  1  0  0  0  0
 14 29  1  0  0  0  0
 14 30  1  0  0  0  0
 15 16  1  0  0  0  0
 15 31  1  0  0  0  0
 15 32  1  0  0  0  0
 16 17  1  0  0  0  0
 16 33  1  0  0  0  0
 16 34  1  0  0  0  0
 17 18  1  0  0  0  0
 17 35  1  0  0  0  0
 17 36  1  0  0  0  0
 18 37  1  0  0  0  0
 18 38  1  0  0  0  0
M  END
> <s_m_source_file>
AV-unprocessed.smi

> <i_m_source_file_index>
2506

> <i_lp_mmshare_version>
43012

> <i_f3d_flags>
0

> <s_epik_input>
W0NIM11jMW5uW2NIXVtjSF1jMVtOSF1DKD1PKVtOSF1bQ0gyXUMyKFtDSDNdKVtDSDJdW0NIMl1bQ0gyXVtDSDJdMg==

> <s_epik_cmdline>
J2VwaWtfcHl0aG9uJywgJy1waCcsICc3LjAnLCAnLXRuJywgJzgnLCAnLW1hJywgJzIwMCcsICctbWV0YWxfYmluZGluZycsICctaW1hZScsICc8aW5maWxlLm1hZT4nLCAnLW9tYWUnLCAnPG91dGZpbGUubWFlPic=

> <r_lp_tautomer_probability>
1

> <r_epik_Ionization_Penalty>
0.0953638

> <r_epik_Ionization_Penalty_Charging>
0

> <r_epik_Ionization_Penalty_Neutral>
0.0953638

> <r_epik_State_Penalty>
0.0189073

> <r_epik_Charging_Adjusted_Penalty>
0.0189073

> <i_epik_Tot_Q>
0

> <i_epik_Tot_abs_Q>
0

> <r_epik_Metal_State_Penalty>
0.0138022

> <b_epik_Metal_Only>
0

> <s_lp_Force_Field>
OPLS_2005

> <r_lp_Energy>
34.7898

> <b_lp_Chiralities_Consistent>
1

> <s_lp_Variant>
AV-unprocessed.smi:2506-1

> <Gold.Version>
5.8.1

> <Gold.Id.Protein>
6NUR|6NUR_protein|mol2

> <Gold.PLP.Fitness>
41.0325

> <Gold.PLP.PLP>
-29.5534

> <Gold.PLP.part.hbond>
-3.6215

> <Gold.PLP.part.metal>
0.0000

> <Gold.PLP.part.buried>
-2.8090

> <Gold.PLP.part.nonpolar>
-22.8940

> <Gold.PLP.part.repulsive>
0.9351

> <Gold.PLP.ligand.clash>
0.0000

> <Gold.PLP.ligand.torsion>
0.1756

> <Gold.PLP.Chemscore.Hbond>
2.9440

> <Gold.PLP.Chemscore.CHOScore>
0.9947

> <Gold.PLP.Chemscore.Metal>
0.0000

> <Gold.Chemscore.Hbonds>
donor molecule, donor type, donor heavy atom, donor atom, acceptor molecule, acceptor atom, score
      L1  H     8    24       P1  7948  1.00
      L1  H    11    25       P1  7948  0.94
      P1  H  7989  7998       L1     3  1.00
      L1  C     5    22       P1  8028  1.00

> <Gold.PLP.Chemscore.Internal.Correction>
0.0143

> <Gold.Rescore>
     Score         DG    S(hbond)    S(metal)    S(lipo)     H(rot)  DE(clash)    DE(int)     intcor
     17.52     -18.94       2.42        0.00      72.47       1.21       0.07       1.35       ----

> <Gold.Chemscore.Fitness>
17.5242

> <Gold.Chemscore.DG>
-18.9439

> <Gold.Chemscore.ZeroCoef>
-5.4800

> <Gold.Chemscore.Hbond>
2.4171

> <Gold.Chemscore.Metal>
0.0000

> <Gold.Chemscore.Lipo>
72.4694

> <Gold.Chemscore.Internal_Hbond>
0.0000

> <Gold.Chemscore.DEClash>
0.0721

> <Gold.Chemscore.DEInternal>
1.3475

> <Gold.Chemscore.Rot>
1.2063

> <Gold.Chemscore.Internal.Correction>
   9.000000E+99

> <Gold.Chemscore.Hbonds>
donor molecule, donor type, donor heavy atom, donor atom, acceptor molecule, acceptor atom, score
      L1  H     8    24       P1  7948  0.98
      L1  H    11    25       P1  7948  0.91
      P1  H  7989  7998       L1     3  0.15

> <Gold.Chemscore.Hbond.Weighted>
-8.0732

> <Gold.Chemscore.Metal.Weighted>
-0.0000

> <Gold.Chemscore.Lipo.Weighted>
-8.4789

> <Gold.Chemscore.Internal_Hbond.Weighted>
0.0000

> <Gold.Chemscore.DEClash.Weighted>
0.0721

> <Gold.Chemscore.DEInternal.Weighted>
1.3475

> <Gold.Chemscore.Rot.Weighted>
3.0883

> <Gold.Chemscore.Internal.Correction.Weighted>
   9.000000E+99

> <Gold.Protein.RotatedTorsions>
[ 6907 6896 6895 6894 ] final   -8.45 input  -60.11 | X-H torsion
[ 7974 7965 7964 7962 ] final -113.02 input  175.53 | X-H torsion
[ 8008 7997 7996 7995 ] final   -0.76 input   59.86 | X-H torsion
[ 10167 10162 10161 10158 ] final    1.67 input  -65.29 | X-H torsion
[ 10718 10713 10712 10709 ] final   27.08 input   66.30 | X-H torsion
[ 10763 10752 10751 10750 ] final  163.06 input  -60.55 | X-H torsion
[ 11005 11000 10999 10996 ] final  103.02 input  -57.11 | X-H torsion

> <Gold.Protein.ActiveResidues>
 VAL166  LYS551  ARG553  GLY616  TRP617  ASP618  TYR619  PRO620  LYS621  CYS622 
 ASP623  PHE694  ASN695  SER759  ASP760  ASP761  ALA762  ILE779  LEU786  VAL792 
 PHE793  MET794  SER795  GLU796  ALA797  LYS798  CYS799  TRP800  GLU811  SER814 

> <Gold.Protein.RotatedAtoms>
  151.4335  135.1012  159.9648 H   0  0  0  0  0  0  0  0  0  0  0  0  # atno 6907 bound_to 6896
  152.4948  133.8595  159.7253 H   0  0  0  0  0  0  0  0  0  0  0  0  # atno 6908 bound_to 6896
  150.9138  133.6906  159.2876 H   0  0  0  0  0  0  0  0  0  0  0  0  # atno 6909 bound_to 6896
  145.1371  140.8757  143.3724 H   0  0  0  0  0  0  0  0  0  0  0  0  # atno 7974 bound_to 7965
  154.6544  140.2576  155.7177 H   0  0  0  0  0  0  0  0  0  0  0  0  # atno 8008 bound_to 7997
  156.2590  140.2861  156.0913 H   0  0  0  0  0  0  0  0  0  0  0  0  # atno 8009 bound_to 7997
  155.1402  140.0380  157.2787 H   0  0  0  0  0  0  0  0  0  0  0  0  # atno 8010 bound_to 7997
  140.6672  143.7148  150.7850 H   0  0  0  0  0  0  0  0  0  0  0  0  # atno 10167 bound_to 10162
  157.2154  130.6953  149.6246 H   0  0  0  0  0  0  0  0  0  0  0  0  # atno 10718 bound_to 10713
  154.2879  135.2761  155.2668 H   0  0  0  0  0  0  0  0  0  0  0  0  # atno 10763 bound_to 10752
  154.5160  135.5769  153.6646 H   0  0  0  0  0  0  0  0  0  0  0  0  # atno 10764 bound_to 10752
  152.9919  135.6193  154.3041 H   0  0  0  0  0  0  0  0  0  0  0  0  # atno 10765 bound_to 10752
  139.8781  134.9247  156.5146 H   0  0  0  0  0  0  0  0  0  0  0  0  # atno 11005 bound_to 11000
  145.0573  139.3134  143.5898 LP  0  0  0  0  0  0  0  0  0  0  0  0  # atno 17320 bound_to 7965
  146.3509  140.0002  142.8677 LP  0  0  0  0  0  0  0  0  0  0  0  0  # atno 17321 bound_to 7965
  140.0827  143.4953  152.2521 LP  0  0  0  0  0  0  0  0  0  0  0  0  # atno 17342 bound_to 10162
  139.5925  144.7555  151.3366 LP  0  0  0  0  0  0  0  0  0  0  0  0  # atno 17343 bound_to 10162
  155.9687  130.4537  150.5823 LP  0  0  0  0  0  0  0  0  0  0  0  0  # atno 17370 bound_to 10713
  157.3630  131.0753  151.1620 LP  0  0  0  0  0  0  0  0  0  0  0  0  # atno 17371 bound_to 10713
  140.8495  133.8143  155.9154 LP  0  0  0  0  0  0  0  0  0  0  0  0  # atno 17394 bound_to 11000
  140.9158  134.2203  157.4957 LP  0  0  0  0  0  0  0  0  0  0  0  0  # atno 17395 bound_to 11000

$$$$
