AV-unprocessed.smi:1653|AV-procd|sdf|6641|dock4
  -GOLD-   22720 7343D 1   1.00000     0.00000
 Structure written by MMmdl.
 41 42  0  0  0  0  0  0  0  0  3 V2000
  146.3830  141.4990  158.9079 N   0  0  0  0  0  0  0  0  0  0  0  0
  146.8610  141.5499  157.8552 C   0  0  0  0  0  0  0  0  0  0  0  0
  147.4711  141.6134  156.5124 C   0  0  0  0  0  0  0  0  0  0  0  0
  148.8260  142.1701  156.6034 N   0  0  0  0  0  0  0  0  0  0  0  0
  149.9574  141.5107  156.9012 C   0  0  0  0  0  0  0  0  0  0  0  0
  149.9999  140.3008  157.1245 O   0  0  0  0  0  0  0  0  0  0  0  0
  151.2390  142.3549  156.9242 C   0  0  0  0  0  0  0  0  0  0  0  0
  151.5493  142.8965  158.2583 N   0  0  0  0  0  0  0  0  0  0  0  0
  150.9082  144.0942  158.6260 C   0  0  0  0  0  0  0  0  0  0  0  0
  151.1236  144.6772  159.8138 C   0  0  0  0  0  0  0  0  0  0  0  0
  152.0378  144.0415  160.7308 C   0  0  0  0  0  0  0  0  0  0  0  0
  152.6674  142.8908  160.3987 C   0  0  0  0  0  0  0  0  0  0  0  0
  153.5652  142.3031  161.3662 N   0  3  0  0  0  0  0  0  0  0  0  0
  154.4195  141.5122  160.9781 O   0  0  0  0  0  0  0  0  0  0  0  0
  153.4324  142.6058  162.5482 O   0  5  0  0  0  0  0  0  0  0  0  0
  152.4368  142.2584  159.0834 C   0  0  0  0  0  0  0  0  0  0  0  0
  153.0058  141.2238  158.7292 O   0  0  0  0  0  0  0  0  0  0  0  0
  147.4808  140.1822  155.9062 C   0  0  0  0  0  0  0  0  0  0  0  0
  148.2608  140.0178  154.5846 C   0  0  0  0  0  0  0  0  0  0  0  0
  147.4711  140.3250  153.3006 C   0  0  0  0  0  0  0  0  0  0  0  0
  146.5088  141.5239  153.3503 C   0  0  0  0  0  0  0  0  0  0  0  0
  146.9847  142.7215  154.1874 C   0  0  0  0  0  0  0  0  0  0  0  0
  146.6135  142.5894  155.6772 C   0  0  0  0  0  0  0  0  0  0  0  0
  148.9054  143.1617  156.4314 H   0  0  0  0  0  0  0  0  0  0  0  0
  152.0587  141.7338  156.5606 H   0  0  0  0  0  0  0  0  0  0  0  0
  151.1568  143.1687  156.2008 H   0  0  0  0  0  0  0  0  0  0  0  0
  150.2444  144.5099  157.8818 H   0  0  0  0  0  0  0  0  0  0  0  0
  150.6272  145.5997  160.0769 H   0  0  0  0  0  0  0  0  0  0  0  0
  152.2058  144.4963  161.6963 H   0  0  0  0  0  0  0  0  0  0  0  0
  147.9290  139.5077  156.6366 H   0  0  0  0  0  0  0  0  0  0  0  0
  146.4600  139.8184  155.7815 H   0  0  0  0  0  0  0  0  0  0  0  0
  149.1725  140.6134  154.5987 H   0  0  0  0  0  0  0  0  0  0  0  0
  148.6082  138.9866  154.5148 H   0  0  0  0  0  0  0  0  0  0  0  0
  148.1882  140.4784  152.4934 H   0  0  0  0  0  0  0  0  0  0  0  0
  146.8974  139.4429  153.0140 H   0  0  0  0  0  0  0  0  0  0  0  0
  146.3335  141.8545  152.3259 H   0  0  0  0  0  0  0  0  0  0  0  0
  145.5345  141.1932  153.7125 H   0  0  0  0  0  0  0  0  0  0  0  0
  148.0511  142.9013  154.0493 H   0  0  0  0  0  0  0  0  0  0  0  0
  146.4847  143.6118  153.8045 H   0  0  0  0  0  0  0  0  0  0  0  0
  145.5618  142.3106  155.7582 H   0  0  0  0  0  0  0  0  0  0  0  0
  146.6780  143.5786  156.1333 H   0  0  0  0  0  0  0  0  0  0  0  0
  1  2  3  0  0  0  0
  2  3  1  0  0  0  0
  3 23  1  0  0  0  0
  3  4  1  0  0  0  0
  3 18  1  0  0  0  0
  4  5  1  0  0  0  0
  4 24  1  0  0  0  0
  5  6  2  0  0  0  0
  5  7  1  0  0  0  0
  7  8  1  0  0  0  0
  7 25  1  0  0  0  0
  7 26  1  0  0  0  0
  8 16  1  0  0  0  0
  8  9  1  0  0  0  0
  9 10  2  0  0  0  0
  9 27  1  0  0  0  0
 10 11  1  0  0  0  0
 10 28  1  0  0  0  0
 11 12  2  0  0  0  0
 11 29  1  0  0  0  0
 12 13  1  0  0  0  0
 12 16  1  0  0  0  0
 13 14  2  0  0  0  0
 13 15  1  0  0  0  0
 16 17  2  0  0  0  0
 18 19  1  0  0  0  0
 18 30  1  0  0  0  0
 18 31  1  0  0  0  0
 19 20  1  0  0  0  0
 19 32  1  0  0  0  0
 19 33  1  0  0  0  0
 20 21  1  0  0  0  0
 20 34  1  0  0  0  0
 20 35  1  0  0  0  0
 21 22  1  0  0  0  0
 21 36  1  0  0  0  0
 21 37  1  0  0  0  0
 22 23  1  0  0  0  0
 22 38  1  0  0  0  0
 22 39  1  0  0  0  0
 23 40  1  0  0  0  0
 23 41  1  0  0  0  0
M  CHG  1  13   1
M  CHG  1  15  -1
M  END
> <s_m_source_file>
AV-unprocessed.smi

> <i_m_source_file_index>
1653

> <i_lp_mmshare_version>
43012

> <i_f3d_flags>
0

> <s_epik_input>
W0NIMl0xW0NIMl1bQ0gyXVtDSDJdW0NIMl1bQ0gyXUMxKEMjTilbTkhdQyg9TylbQ0gyXW4yW2NIXVtjSF1bY0hdYyhbTitdKD1PKVtPLV0pYzI9Tw==

> <s_epik_cmdline>
J2VwaWtfcHl0aG9uJywgJy1waCcsICc3LjAnLCAnLXRuJywgJzgnLCAnLW1hJywgJzIwMCcsICctbWV0YWxfYmluZGluZycsICctaW1hZScsICc8aW5maWxlLm1hZT4nLCAnLW9tYWUnLCAnPG91dGZpbGUubWFlPic=

> <r_lp_tautomer_probability>
1

> <r_epik_Ionization_Penalty>
4.51252e-07

> <r_epik_Ionization_Penalty_Charging>
1.09758e-10

> <r_epik_Ionization_Penalty_Neutral>
4.51142e-07

> <r_epik_State_Penalty>
-0

> <r_epik_Charging_Adjusted_Penalty>
1.09758e-10

> <i_epik_Tot_Q>
0

> <i_epik_Tot_abs_Q>
2

> <r_epik_Metal_State_Penalty>
-0

> <b_epik_Metal_Only>
0

> <s_lp_Force_Field>
OPLS_2005

> <r_lp_Energy>
31.6459

> <b_lp_Chiralities_Consistent>
1

> <s_lp_Variant>
AV-unprocessed.smi:1653-1

> <Gold.Version>
5.8.1

> <Gold.Id.Protein>
6NUR|6NUR_protein|mol2

> <Gold.PLP.Fitness>
46.1607

> <Gold.PLP.PLP>
-41.3160

> <Gold.PLP.part.hbond>
-2.8896

> <Gold.PLP.part.metal>
0.0000

> <Gold.PLP.part.buried>
-6.1655

> <Gold.PLP.part.nonpolar>
-32.5197

> <Gold.PLP.part.repulsive>
0.1477

> <Gold.PLP.ligand.clash>
0.0000

> <Gold.PLP.ligand.torsion>
1.3775

> <Gold.PLP.Chemscore.Hbond>
1.5925

> <Gold.PLP.Chemscore.CHOScore>
0.9352

> <Gold.PLP.Chemscore.Metal>
0.0000

> <Gold.Chemscore.Hbonds>
donor molecule, donor type, donor heavy atom, donor atom, acceptor molecule, acceptor atom, score
      L1  H     4    24       P1  8028  1.00
      P1  H  6934  6946       L1     1  0.69
      L1  C     9    27       P1  8028  0.82
      L1  C     9    27       P1  8029  0.13

> <Gold.PLP.Chemscore.Internal.Correction>
0.0164

> <Gold.Rescore>
     Score         DG    S(hbond)    S(metal)    S(lipo)     H(rot)  DE(clash)    DE(int)     intcor
     12.52     -17.58       1.84        0.00      86.53       1.63       1.46       3.60       ----

> <Gold.Chemscore.Fitness>
12.5180

> <Gold.Chemscore.DG>
-17.5789

> <Gold.Chemscore.ZeroCoef>
-5.4800

> <Gold.Chemscore.Hbond>
1.8396

> <Gold.Chemscore.Metal>
0.0000

> <Gold.Chemscore.Lipo>
86.5295

> <Gold.Chemscore.Internal_Hbond>
0.0000

> <Gold.Chemscore.DEClash>
1.4598

> <Gold.Chemscore.DEInternal>
3.6012

> <Gold.Chemscore.Rot>
1.6287

> <Gold.Chemscore.Internal.Correction>
   9.000000E+99

> <Gold.Chemscore.Hbonds>
donor molecule, donor type, donor heavy atom, donor atom, acceptor molecule, acceptor atom, score
      L1  H     4    24       P1  8028  0.98
      P1  H  6934  6946       L1     1  0.69

> <Gold.Chemscore.Hbond.Weighted>
-6.1444

> <Gold.Chemscore.Metal.Weighted>
-0.0000

> <Gold.Chemscore.Lipo.Weighted>
-10.1239

> <Gold.Chemscore.Internal_Hbond.Weighted>
0.0000

> <Gold.Chemscore.DEClash.Weighted>
1.4598

> <Gold.Chemscore.DEInternal.Weighted>
3.6012

> <Gold.Chemscore.Rot.Weighted>
4.1694

> <Gold.Chemscore.Internal.Correction.Weighted>
   9.000000E+99

> <Gold.Protein.RotatedTorsions>
[ 6907 6896 6895 6894 ] final   23.75 input  -60.11 | X-H torsion
[ 7974 7965 7964 7962 ] final  -41.75 input  175.53 | X-H torsion
[ 8008 7997 7996 7995 ] final  120.10 input   59.86 | X-H torsion
[ 10167 10162 10161 10158 ] final -161.23 input  -65.29 | X-H torsion
[ 10718 10713 10712 10709 ] final  -75.16 input   66.30 | X-H torsion
[ 10763 10752 10751 10750 ] final  119.84 input  -60.55 | X-H torsion
[ 11005 11000 10999 10996 ] final   35.81 input  -57.11 | X-H torsion

> <Gold.Protein.ActiveResidues>
 VAL166  LYS551  ARG553  GLY616  TRP617  ASP618  TYR619  PRO620  LYS621  CYS622 
 ASP623  PHE694  ASN695  SER759  ASP760  ASP761  ALA762  ILE779  LEU786  VAL792 
 PHE793  MET794  SER795  GLU796  ALA797  LYS798  CYS799  TRP800  GLU811  SER814 

> <Gold.Protein.RotatedAtoms>
  151.9471  135.0186  160.0539 H   0  0  0  0  0  0  0  0  0  0  0  0  # atno 6907 bound_to 6896
  152.1985  133.4819  159.5054 H   0  0  0  0  0  0  0  0  0  0  0  0  # atno 6908 bound_to 6896
  150.6949  134.1538  159.4193 H   0  0  0  0  0  0  0  0  0  0  0  0  # atno 6909 bound_to 6896
  146.0181  140.6883  142.9191 H   0  0  0  0  0  0  0  0  0  0  0  0  # atno 7974 bound_to 7965
  156.2627  140.2838  156.1096 H   0  0  0  0  0  0  0  0  0  0  0  0  # atno 8008 bound_to 7997
  155.1271  140.0393  157.2783 H   0  0  0  0  0  0  0  0  0  0  0  0  # atno 8009 bound_to 7997
  154.6627  140.2570  155.7098 H   0  0  0  0  0  0  0  0  0  0  0  0  # atno 8010 bound_to 7997
  139.6480  144.0136  152.2141 H   0  0  0  0  0  0  0  0  0  0  0  0  # atno 10167 bound_to 10162
  156.0217  130.4434  150.3000 H   0  0  0  0  0  0  0  0  0  0  0  0  # atno 10718 bound_to 10713
  153.5892  135.3469  155.2904 H   0  0  0  0  0  0  0  0  0  0  0  0  # atno 10763 bound_to 10752
  154.8655  135.4201  154.2534 H   0  0  0  0  0  0  0  0  0  0  0  0  # atno 10764 bound_to 10752
  153.3338  135.7046  153.6996 H   0  0  0  0  0  0  0  0  0  0  0  0  # atno 10765 bound_to 10752
  140.2389  134.3439  155.7933 H   0  0  0  0  0  0  0  0  0  0  0  0  # atno 11005 bound_to 11000
  144.6979  140.3518  143.7180 LP  0  0  0  0  0  0  0  0  0  0  0  0  # atno 17320 bound_to 7965
  145.7236  139.1716  143.2470 LP  0  0  0  0  0  0  0  0  0  0  0  0  # atno 17321 bound_to 7965
  139.9842  144.6407  150.7872 LP  0  0  0  0  0  0  0  0  0  0  0  0  # atno 17342 bound_to 10162
  140.7524  143.2990  151.3130 LP  0  0  0  0  0  0  0  0  0  0  0  0  # atno 17343 bound_to 10162
  157.1103  131.0219  151.3050 LP  0  0  0  0  0  0  0  0  0  0  0  0  # atno 17370 bound_to 10713
  157.4709  130.7708  149.7323 LP  0  0  0  0  0  0  0  0  0  0  0  0  # atno 17371 bound_to 10713
  141.2212  133.7287  156.8852 LP  0  0  0  0  0  0  0  0  0  0  0  0  # atno 17394 bound_to 11000
  140.1674  134.9124  157.2791 LP  0  0  0  0  0  0  0  0  0  0  0  0  # atno 17395 bound_to 11000

$$$$
