AV-unprocessed.smi:2886|AV-procd|sdf|11095|dock5
  -GOLD-   2272015563D 1   1.00000     0.00000
 Structure written by MMmdl.
 27 29  0  0  0  0  0  0  0  0  2 V2000
  152.8374  136.6266  160.3498 O   0  0  0  0  0  0  0  0  0  0  0  0
  153.2605  137.7649  160.5441 C   0  0  0  0  0  0  0  0  0  0  0  0
  154.3384  138.0134  161.3481 N   0  5  0  0  0  0  0  0  0  0  0  0
  154.7932  139.3704  161.5541 N   0  0  0  0  0  0  0  0  0  0  0  0
  154.2091  140.3520  160.9889 C   0  0  0  0  0  0  0  0  0  0  0  0
  153.0430  140.1722  160.0893 C   0  0  0  0  0  0  0  0  0  0  0  0
  152.4051  141.2413  159.4722 N   0  0  0  0  0  0  0  0  0  0  0  0
  152.7119  142.6618  159.5620 C   0  0  2  0  0  0  0  0  0  0  0  0
  152.5732  143.2028  160.9871 C   0  0  0  0  0  0  0  0  0  0  0  0
  151.5683  144.3453  160.7920 C   0  0  1  0  0  0  0  0  0  0  0  0
  152.1645  145.5168  159.9995 C   0  0  0  0  0  0  0  0  0  0  0  0
  152.2137  144.9434  158.5831 C   0  0  0  0  0  0  0  0  0  0  0  0
  151.6870  143.5184  158.8008 C   0  0  2  0  0  0  0  0  0  0  0  0
  150.7233  143.7686  159.8117 O   0  0  0  0  0  0  0  0  0  0  0  0
  152.5983  138.9041  159.8971 C   0  0  0  0  0  0  0  0  0  0  0  0
  151.2350  138.5913  158.8723 Cl  0  0  0  0  0  0  0  0  0  0  0  0
  154.5460  141.3781  161.1515 H   0  0  0  0  0  0  0  0  0  0  0  0
  151.7193  141.0059  158.7691 H   0  0  0  0  0  0  0  0  0  0  0  0
  153.7056  142.8555  159.1593 H   0  0  0  0  0  0  0  0  0  0  0  0
  152.1625  142.4505  161.6621 H   0  0  0  0  0  0  0  0  0  0  0  0
  153.5219  143.5461  161.4006 H   0  0  0  0  0  0  0  0  0  0  0  0
  151.0558  144.6438  161.7067 H   0  0  0  0  0  0  0  0  0  0  0  0
  151.5093  146.3878  160.0366 H   0  0  0  0  0  0  0  0  0  0  0  0
  153.1462  145.8104  160.3730 H   0  0  0  0  0  0  0  0  0  0  0  0
  151.5503  145.5024  157.9223 H   0  0  0  0  0  0  0  0  0  0  0  0
  153.2158  144.9584  158.1530 H   0  0  0  0  0  0  0  0  0  0  0  0
  151.2908  143.0551  157.8963 H   0  0  0  0  0  0  0  0  0  0  0  0
  1  2  2  0  0  0  0
  2 15  1  0  0  0  0
  2  3  1  0  0  0  0
  3  4  1  0  0  0  0
  4  5  2  0  0  0  0
  5  6  1  0  0  0  0
  5 17  1  0  0  0  0
  6  7  1  0  0  0  0
  6 15  2  0  0  0  0
  7  8  1  0  0  0  0
  7 18  1  0  0  0  0
  8 13  1  0  0  0  0
  8  9  1  0  0  0  0
  8 19  1  0  0  0  0
  9 10  1  0  0  0  0
  9 20  1  0  0  0  0
  9 21  1  0  0  0  0
 10 14  1  0  0  0  0
 10 11  1  0  0  0  0
 10 22  1  0  0  0  0
 11 12  1  0  0  0  0
 11 23  1  0  0  0  0
 11 24  1  0  0  0  0
 12 13  1  0  0  0  0
 12 25  1  0  0  0  0
 12 26  1  0  0  0  0
 13 14  1  0  0  0  0
 13 27  1  0  0  0  0
 15 16  1  0  0  0  0
M  CHG  1   3  -1
M  END
> <s_m_source_file>
AV-unprocessed.smi

> <i_m_source_file_index>
2886

> <i_lp_mmshare_version>
43012

> <i_f3d_flags>
0

> <s_epik_input>
Tz1jMVtuSF1uW2NIXWMoYzFDbClbTkhdW0NASF0oW0NIMl1bQ0BASF0yMylbQ0BASF0oTzMpW0NIMl1bQ0gyXTI=

> <s_epik_cmdline>
J2VwaWtfcHl0aG9uJywgJy1waCcsICc3LjAnLCAnLXRuJywgJzgnLCAnLW1hJywgJzIwMCcsICctbWV0YWxfYmluZGluZycsICctaW1hZScsICc8aW5maWxlLm1hZT4nLCAnLW9tYWUnLCAnPG91dGZpbGUubWFlPic=

> <r_lp_tautomer_probability>
0.986175

> <r_epik_Ionization_Penalty>
3.84253

> <r_epik_Ionization_Penalty_Charging>
0.0129711

> <r_epik_Ionization_Penalty_Neutral>
3.82956

> <r_epik_State_Penalty>
3.8249

> <r_epik_Charging_Adjusted_Penalty>
3.83787

> <i_epik_Tot_Q>
-1

> <i_epik_Tot_abs_Q>
1

> <r_epik_Metal_State_Penalty>
0.57612

> <b_epik_Metal_Only>
1

> <s_lp_Force_Field>
OPLS_2005

> <r_lp_Energy>
60.5374

> <b_lp_Chiralities_Consistent>
1

> <s_lp_Variant>
AV-unprocessed.smi:2886-9

> <Gold.Version>
5.8.1

> <Gold.Id.Protein>
6NUR|6NUR_protein|mol2

> <Gold.PLP.Fitness>
38.2753

> <Gold.PLP.PLP>
-35.2787

> <Gold.PLP.part.hbond>
-1.4042

> <Gold.PLP.part.metal>
0.0000

> <Gold.PLP.part.buried>
-5.6341

> <Gold.PLP.part.nonpolar>
-28.3761

> <Gold.PLP.part.repulsive>
0.1916

> <Gold.PLP.ligand.clash>
0.0000

> <Gold.PLP.ligand.torsion>
0.0115

> <Gold.PLP.Chemscore.Hbond>
1.0000

> <Gold.PLP.Chemscore.CHOScore>
0.0000

> <Gold.PLP.Chemscore.Metal>
0.0000

> <Gold.Chemscore.Hbonds>
donor molecule, donor type, donor heavy atom, donor atom, acceptor molecule, acceptor atom, score
      P1  H  6896  6907       L1     1  1.00

> <Gold.PLP.Chemscore.Internal.Correction>
0.0195

> <Gold.Rescore>
     Score         DG    S(hbond)    S(metal)    S(lipo)     H(rot)  DE(clash)    DE(int)     intcor
     17.89     -17.91       1.00        0.00      99.57       1.00       0.00       0.02       ----

> <Gold.Chemscore.Fitness>
17.8868

> <Gold.Chemscore.DG>
-17.9083

> <Gold.Chemscore.ZeroCoef>
-5.4800

> <Gold.Chemscore.Hbond>
0.9997

> <Gold.Chemscore.Metal>
0.0000

> <Gold.Chemscore.Lipo>
99.5669

> <Gold.Chemscore.Internal_Hbond>
0.0000

> <Gold.Chemscore.DEClash>
0.0004

> <Gold.Chemscore.DEInternal>
0.0211

> <Gold.Chemscore.Rot>
1.0000

> <Gold.Chemscore.Internal.Correction>
   9.000000E+99

> <Gold.Chemscore.Hbonds>
donor molecule, donor type, donor heavy atom, donor atom, acceptor molecule, acceptor atom, score
      P1  H  6896  6907       L1     1  1.00

> <Gold.Chemscore.Hbond.Weighted>
-3.3390

> <Gold.Chemscore.Metal.Weighted>
-0.0000

> <Gold.Chemscore.Lipo.Weighted>
-11.6493

> <Gold.Chemscore.Internal_Hbond.Weighted>
0.0000

> <Gold.Chemscore.DEClash.Weighted>
0.0004

> <Gold.Chemscore.DEInternal.Weighted>
0.0211

> <Gold.Chemscore.Rot.Weighted>
2.5600

> <Gold.Chemscore.Internal.Correction.Weighted>
   9.000000E+99

> <Gold.Protein.RotatedTorsions>
[ 6907 6896 6895 6894 ] final   34.14 input  -60.11 | X-H torsion
[ 7974 7965 7964 7962 ] final  110.43 input  175.53 | X-H torsion
[ 8008 7997 7996 7995 ] final  -56.09 input   59.86 | X-H torsion
[ 10167 10162 10161 10158 ] final -114.05 input  -65.29 | X-H torsion
[ 10718 10713 10712 10709 ] final -142.12 input   66.30 | X-H torsion
[ 10763 10752 10751 10750 ] final  -47.87 input  -60.55 | X-H torsion
[ 11005 11000 10999 10996 ] final  146.16 input  -57.11 | X-H torsion

> <Gold.Protein.ActiveResidues>
 VAL166  LYS551  ARG553  GLY616  TRP617  ASP618  TYR619  PRO620  LYS621  CYS622 
 ASP623  PHE694  ASN695  SER759  ASP760  ASP761  ALA762  ILE779  LEU786  VAL792 
 PHE793  MET794  SER795  GLU796  ALA797  LYS798  CYS799  TRP800  GLU811  SER814 

> <Gold.Protein.RotatedAtoms>
  152.0982  134.9360  160.0570 H   0  0  0  0  0  0  0  0  0  0  0  0  # atno 6907 bound_to 6896
  152.0585  133.4046  159.4415 H   0  0  0  0  0  0  0  0  0  0  0  0  # atno 6908 bound_to 6896
  150.6838  134.3148  159.4805 H   0  0  0  0  0  0  0  0  0  0  0  0  # atno 6909 bound_to 6896
  145.2550  139.2724  143.4047 H   0  0  0  0  0  0  0  0  0  0  0  0  # atno 7974 bound_to 7965
  154.4217  140.1138  156.5581 H   0  0  0  0  0  0  0  0  0  0  0  0  # atno 8008 bound_to 7997
  155.6340  140.3496  155.4673 H   0  0  0  0  0  0  0  0  0  0  0  0  # atno 8009 bound_to 7997
  155.9925  140.1182  157.0614 H   0  0  0  0  0  0  0  0  0  0  0  0  # atno 8010 bound_to 7997
  140.1052  143.4577  152.1787 H   0  0  0  0  0  0  0  0  0  0  0  0  # atno 10167 bound_to 10162
  156.3421  130.7643  151.1781 H   0  0  0  0  0  0  0  0  0  0  0  0  # atno 10718 bound_to 10713
  154.0685  135.6608  153.4821 H   0  0  0  0  0  0  0  0  0  0  0  0  # atno 10763 bound_to 10752
  153.0400  135.5151  154.7590 H   0  0  0  0  0  0  0  0  0  0  0  0  # atno 10764 bound_to 10752
  154.6648  135.3020  154.9786 H   0  0  0  0  0  0  0  0  0  0  0  0  # atno 10765 bound_to 10752
  140.0770  134.9119  157.1439 H   0  0  0  0  0  0  0  0  0  0  0  0  # atno 11005 bound_to 11000
  146.3291  140.2952  142.8617 LP  0  0  0  0  0  0  0  0  0  0  0  0  # atno 17320 bound_to 7965
  144.9469  140.8137  143.5596 LP  0  0  0  0  0  0  0  0  0  0  0  0  # atno 17321 bound_to 7965
  139.5649  144.7429  151.4050 LP  0  0  0  0  0  0  0  0  0  0  0  0  # atno 17342 bound_to 10162
  140.6956  143.7757  150.7322 LP  0  0  0  0  0  0  0  0  0  0  0  0  # atno 17343 bound_to 10162
  157.7448  131.0451  150.4829 LP  0  0  0  0  0  0  0  0  0  0  0  0  # atno 17370 bound_to 10713
  156.5011  130.4117  149.6353 LP  0  0  0  0  0  0  0  0  0  0  0  0  # atno 17371 bound_to 10713
  140.3543  134.2564  155.7194 LP  0  0  0  0  0  0  0  0  0  0  0  0  # atno 17394 bound_to 11000
  141.2033  133.7915  157.0346 LP  0  0  0  0  0  0  0  0  0  0  0  0  # atno 17395 bound_to 11000

$$$$
