AV-unprocessed.smi:109|AV-procd|sdf|1060|dock2
  -GOLD-   2262018133D 1   1.00000     0.00000
 Structure written by MMmdl.
 58 61  0  0  0  0  0  0  0  0  1 V2000
  150.3345  140.0456  154.0938 O   0  0  0  0  0  0  0  0  0  0  0  0
  150.9297  140.3056  155.3466 C   0  0  0  0  0  0  0  0  0  0  0  0
  149.8544  140.3072  156.4445 C   0  0  0  0  0  0  0  0  0  0  0  0
  150.4485  140.3399  157.8703 C   0  0  1  0  0  0  0  0  0  0  0  0
  151.0720  139.0525  158.1763 N   0  0  0  0  0  0  0  0  0  0  0  0
  150.3378  137.9297  158.3434 C   0  0  0  0  0  0  0  0  0  0  0  0
  149.9037  137.5443  159.5716 N   0  0  0  0  0  0  0  0  0  0  0  0
  149.1736  136.4334  159.7037 C   0  0  0  0  0  0  0  0  0  0  0  0
  148.7703  135.5833  158.7573 N   0  0  0  0  0  0  0  0  0  0  0  0
  149.2008  135.9645  157.5200 C   0  0  0  0  0  0  0  0  0  0  0  0
  149.9873  137.1160  157.2350 C   0  0  0  0  0  0  0  0  0  0  0  0
  150.2451  137.1855  155.8727 N   0  0  0  0  0  0  0  0  0  0  0  0
  149.6398  136.1370  155.3839 C   0  0  0  0  0  0  0  0  0  0  0  0
  148.9839  135.3474  156.3025 N   0  0  0  0  0  0  0  0  0  0  0  0
  148.2014  134.0983  156.0233 C   0  0  2  0  0  0  0  0  0  0  0  0
  148.3981  133.7106  154.6947 O   0  0  0  0  0  0  0  0  0  0  0  0
  147.1573  133.6879  153.9888 C   0  0  1  0  0  0  0  0  0  0  0  0
  147.1946  132.5967  152.9081 C   0  0  0  0  0  0  0  0  0  0  0  0
  148.2986  132.8003  152.0521 O   0  0  0  0  0  0  0  0  0  0  0  0
  146.1421  133.4175  155.1007 C   0  0  2  0  0  0  0  0  0  0  0  0
  144.8147  133.7566  154.7475 O   0  0  0  0  0  0  0  0  0  0  0  0
  146.6856  134.2596  156.2460 C   0  0  2  0  0  0  0  0  0  0  0  0
  146.2416  135.6071  156.1912 O   0  0  0  0  0  0  0  0  0  0  0  0
  151.4442  141.5076  158.1152 C   0  0  0  0  0  0  0  0  0  0  0  0
  152.0472  141.4913  159.5369 C   0  0  0  0  0  0  0  0  0  0  0  0
  153.1018  142.5960  159.7133 C   0  0  0  0  0  0  0  0  0  0  0  0
  152.5160  143.9792  159.3898 C   0  0  0  0  0  0  0  0  0  0  0  0
  151.9133  144.0077  157.9767 C   0  0  0  0  0  0  0  0  0  0  0  0
  150.8593  142.9025  157.7970 C   0  0  0  0  0  0  0  0  0  0  0  0
  148.6451  133.3448  156.6753 H   0  0  0  0  0  0  0  0  0  0  0  0
  146.9625  134.6683  153.5508 H   0  0  0  0  0  0  0  0  0  0  0  0
  146.1772  132.3630  155.3797 H   0  0  0  0  0  0  0  0  0  0  0  0
  146.4125  133.8474  157.2179 H   0  0  0  0  0  0  0  0  0  0  0  0
  150.7062  139.2502  153.7442 H   0  0  0  0  0  0  0  0  0  0  0  0
  151.6814  139.5414  155.5463 H   0  0  0  0  0  0  0  0  0  0  0  0
  151.4438  141.2659  155.2996 H   0  0  0  0  0  0  0  0  0  0  0  0
  149.1845  141.1554  156.2971 H   0  0  0  0  0  0  0  0  0  0  0  0
  149.2456  139.4135  156.3154 H   0  0  0  0  0  0  0  0  0  0  0  0
  149.6068  140.4821  158.5491 H   0  0  0  0  0  0  0  0  0  0  0  0
  152.0711  139.0766  158.3224 H   0  0  0  0  0  0  0  0  0  0  0  0
  148.8660  136.1920  160.7105 H   0  0  0  0  0  0  0  0  0  0  0  0
  149.6526  135.9099  154.3277 H   0  0  0  0  0  0  0  0  0  0  0  0
  147.2341  131.6006  153.3500 H   0  0  0  0  0  0  0  0  0  0  0  0
  146.2940  132.6440  152.2952 H   0  0  0  0  0  0  0  0  0  0  0  0
  148.3612  132.0657  151.4613 H   0  0  0  0  0  0  0  0  0  0  0  0
  144.2644  133.0061  154.9144 H   0  0  0  0  0  0  0  0  0  0  0  0
  146.1583  135.9307  157.0751 H   0  0  0  0  0  0  0  0  0  0  0  0
  152.2839  141.3561  157.4354 H   0  0  0  0  0  0  0  0  0  0  0  0
  151.2686  141.6292  160.2864 H   0  0  0  0  0  0  0  0  0  0  0  0
  152.5010  140.5202  159.7376 H   0  0  0  0  0  0  0  0  0  0  0  0
  153.4845  142.5844  160.7342 H   0  0  0  0  0  0  0  0  0  0  0  0
  153.9534  142.3973  159.0612 H   0  0  0  0  0  0  0  0  0  0  0  0
  151.7459  144.2300  160.1202 H   0  0  0  0  0  0  0  0  0  0  0  0
  153.2896  144.7422  159.4804 H   0  0  0  0  0  0  0  0  0  0  0  0
  151.4657  144.9830  157.7833 H   0  0  0  0  0  0  0  0  0  0  0  0
  152.7063  143.8802  157.2387 H   0  0  0  0  0  0  0  0  0  0  0  0
  150.4798  142.9297  156.7752 H   0  0  0  0  0  0  0  0  0  0  0  0
  150.0110  143.1136  158.4486 H   0  0  0  0  0  0  0  0  0  0  0  0
  1  2  1  0  0  0  0
  1 34  1  0  0  0  0
  2  3  1  0  0  0  0
  2 35  1  0  0  0  0
  2 36  1  0  0  0  0
  3  4  1  0  0  0  0
  3 37  1  0  0  0  0
  3 38  1  0  0  0  0
  4  5  1  0  0  0  0
  4 24  1  0  0  0  0
  4 39  1  0  0  0  0
  5  6  1  0  0  0  0
  5 40  1  0  0  0  0
  6 11  1  0  0  0  0
  6  7  2  0  0  0  0
  7  8  1  0  0  0  0
  8  9  2  0  0  0  0
  8 41  1  0  0  0  0
  9 10  1  0  0  0  0
 10 14  1  0  0  0  0
 10 11  2  0  0  0  0
 11 12  1  0  0  0  0
 12 13  2  0  0  0  0
 13 14  1  0  0  0  0
 13 42  1  0  0  0  0
 14 15  1  0  0  0  0
 15 30  1  0  0  0  0
 15 22  1  0  0  0  0
 15 16  1  0  0  0  0
 16 17  1  0  0  0  0
 17 31  1  0  0  0  0
 17 18  1  0  0  0  0
 17 20  1  0  0  0  0
 18 19  1  0  0  0  0
 18 43  1  0  0  0  0
 18 44  1  0  0  0  0
 19 45  1  0  0  0  0
 20 32  1  0  0  0  0
 20 21  1  0  0  0  0
 20 22  1  0  0  0  0
 21 46  1  0  0  0  0
 22 33  1  0  0  0  0
 22 23  1  0  0  0  0
 23 47  1  0  0  0  0
 24 29  1  0  0  0  0
 24 25  1  0  0  0  0
 24 48  1  0  0  0  0
 25 26  1  0  0  0  0
 25 49  1  0  0  0  0
 25 50  1  0  0  0  0
 26 27  1  0  0  0  0
 26 51  1  0  0  0  0
 26 52  1  0  0  0  0
 27 28  1  0  0  0  0
 27 53  1  0  0  0  0
 27 54  1  0  0  0  0
 28 29  1  0  0  0  0
 28 55  1  0  0  0  0
 28 56  1  0  0  0  0
 29 57  1  0  0  0  0
 29 58  1  0  0  0  0
M  END
> <s_m_source_file>
AV-unprocessed.smi

> <i_m_source_file_index>
109

> <i_lp_mmshare_version>
43012

> <i_f3d_flags>
0

> <s_epik_input>
W0NIMl0xW0NIMl1bQ0gyXVtDSDJdW0NIMl1bQ0hdMVtDQEhdKFtDSDJdW0NIMl1bT0hdKVtOSF1jKG5bY0hdbjIpYyhjMjMpbltjSF1uM1tDQEBIXTRPW0NASF0oW0NIMl1bT0hdKVtDQEBIXShbT0hdKVtDQEhdNFtPSF0=

> <s_epik_cmdline>
J2VwaWtfcHl0aG9uJywgJy1waCcsICc3LjAnLCAnLXRuJywgJzgnLCAnLW1hJywgJzIwMCcsICctbWV0YWxfYmluZGluZycsICctaW1hZScsICc8aW5maWxlLm1hZT4nLCAnLW9tYWUnLCAnPG91dGZpbGUubWFlPic=

> <r_lp_tautomer_probability>
1

> <r_epik_Ionization_Penalty>
0.000793976

> <r_epik_Ionization_Penalty_Charging>
0

> <r_epik_Ionization_Penalty_Neutral>
0.000793976

> <r_epik_State_Penalty>
-0

> <r_epik_Charging_Adjusted_Penalty>
0

> <i_epik_Tot_Q>
0

> <i_epik_Tot_abs_Q>
0

> <r_epik_Metal_State_Penalty>
-0

> <b_epik_Metal_Only>
0

> <s_epik_Chemistry_Notes>
This compound contains an acetal/aminal-like group ( X-CH(R)-Y where X, Y are N, S, or O) that may be acid/base labile, releasing an aldehyde.

> <s_lp_Force_Field>
OPLS_2005

> <r_lp_Energy>
62.1287

> <b_lp_Chiralities_Consistent>
1

> <s_lp_Variant>
AV-unprocessed.smi:109-30

> <Gold.Version>
5.8.1

> <Gold.Id.Protein>
6NUR|6NUR_protein|mol2

> <Gold.PLP.Fitness>
46.5277

> <Gold.PLP.PLP>
-38.9520

> <Gold.PLP.part.hbond>
-5.1383

> <Gold.PLP.part.metal>
0.0000

> <Gold.PLP.part.buried>
-4.4845

> <Gold.PLP.part.nonpolar>
-29.5900

> <Gold.PLP.part.repulsive>
0.2072

> <Gold.PLP.ligand.clash>
0.0000

> <Gold.PLP.ligand.torsion>
1.1404

> <Gold.PLP.Chemscore.Hbond>
2.1572

> <Gold.PLP.Chemscore.CHOScore>
0.9830

> <Gold.PLP.Chemscore.Metal>
0.0000

> <Gold.Chemscore.Hbonds>
donor molecule, donor type, donor heavy atom, donor atom, acceptor molecule, acceptor atom, score
      L1  H    19    45       P1 10747  1.00
      L1  H    21    46       P1 10957  1.00
      P1  H  6896  6909       L1     9  0.03
      P1  H  7989  7998       L1     1  0.11
      L1  C    13    42       P1  7948  0.95

> <Gold.PLP.Chemscore.Internal.Correction>
0.4361

> <Gold.Rescore>
     Score         DG    S(hbond)    S(metal)    S(lipo)     H(rot)  DE(clash)    DE(int)     intcor
      7.12      -8.37       1.97        0.00      87.92       5.47       0.08       1.16       ----

> <Gold.Chemscore.Fitness>
7.1194

> <Gold.Chemscore.DG>
-8.3651

> <Gold.Chemscore.ZeroCoef>
-5.4800

> <Gold.Chemscore.Hbond>
1.9735

> <Gold.Chemscore.Metal>
0.0000

> <Gold.Chemscore.Lipo>
87.9230

> <Gold.Chemscore.Internal_Hbond>
0.0000

> <Gold.Chemscore.DEClash>
0.0811

> <Gold.Chemscore.DEInternal>
1.1647

> <Gold.Chemscore.Rot>
5.4662

> <Gold.Chemscore.Internal.Correction>
   9.000000E+99

> <Gold.Chemscore.Hbonds>
donor molecule, donor type, donor heavy atom, donor atom, acceptor molecule, acceptor atom, score
      L1  H    19    45       P1 10747  1.00
      L1  H    21    46       P1 10957  0.94

> <Gold.Chemscore.Hbond.Weighted>
-6.5916

> <Gold.Chemscore.Metal.Weighted>
-0.0000

> <Gold.Chemscore.Lipo.Weighted>
-10.2870

> <Gold.Chemscore.Internal_Hbond.Weighted>
0.0000

> <Gold.Chemscore.DEClash.Weighted>
0.0811

> <Gold.Chemscore.DEInternal.Weighted>
1.1647

> <Gold.Chemscore.Rot.Weighted>
13.9935

> <Gold.Chemscore.Internal.Correction.Weighted>
   9.000000E+99

> <Gold.Protein.RotatedTorsions>
[ 6907 6896 6895 6894 ] final   29.37 input  -60.11 | X-H torsion
[ 7974 7965 7964 7962 ] final  -54.74 input  175.53 | X-H torsion
[ 8008 7997 7996 7995 ] final   85.37 input   59.86 | X-H torsion
[ 10167 10162 10161 10158 ] final  -96.16 input  -65.29 | X-H torsion
[ 10718 10713 10712 10709 ] final  -67.39 input   66.30 | X-H torsion
[ 10763 10752 10751 10750 ] final   30.34 input  -60.55 | X-H torsion
[ 11005 11000 10999 10996 ] final -108.02 input  -57.11 | X-H torsion

> <Gold.Protein.ActiveResidues>
 VAL166  LYS551  ARG553  GLY616  TRP617  ASP618  TYR619  PRO620  LYS621  CYS622 
 ASP623  PHE694  ASN695  SER759  ASP760  ASP761  ALA762  ILE779  LEU786  VAL792 
 PHE793  MET794  SER795  GLU796  ALA797  LYS798  CYS799  TRP800  GLU811  SER814 

> <Gold.Protein.RotatedAtoms>
  152.0306  134.9770  160.0572 H   0  0  0  0  0  0  0  0  0  0  0  0  # atno 6907 bound_to 6896
  152.1248  133.4369  159.4701 H   0  0  0  0  0  0  0  0  0  0  0  0  # atno 6908 bound_to 6896
  150.6851  134.2410  159.4516 H   0  0  0  0  0  0  0  0  0  0  0  0  # atno 6909 bound_to 6896
  145.8821  140.8136  142.9834 H   0  0  0  0  0  0  0  0  0  0  0  0  # atno 7974 bound_to 7965
  155.9492  140.3402  155.6393 H   0  0  0  0  0  0  0  0  0  0  0  0  # atno 8008 bound_to 7997
  155.6942  140.0752  157.2454 H   0  0  0  0  0  0  0  0  0  0  0  0  # atno 8009 bound_to 7997
  154.4118  140.1652  156.2107 H   0  0  0  0  0  0  0  0  0  0  0  0  # atno 8010 bound_to 7997
  140.2967  143.3187  152.0290 H   0  0  0  0  0  0  0  0  0  0  0  0  # atno 10167 bound_to 10162
  156.0560  130.4277  150.1848 H   0  0  0  0  0  0  0  0  0  0  0  0  # atno 10718 bound_to 10713
  153.0377  135.6466  154.1030 H   0  0  0  0  0  0  0  0  0  0  0  0  # atno 10763 bound_to 10752
  154.0742  135.2878  155.3304 H   0  0  0  0  0  0  0  0  0  0  0  0  # atno 10764 bound_to 10752
  154.6574  135.5404  153.8039 H   0  0  0  0  0  0  0  0  0  0  0  0  # atno 10765 bound_to 10752
  141.0923  133.9032  157.2045 H   0  0  0  0  0  0  0  0  0  0  0  0  # atno 11005 bound_to 11000
  144.6727  140.1400  143.7438 LP  0  0  0  0  0  0  0  0  0  0  0  0  # atno 17320 bound_to 7965
  145.9010  139.2431  143.1493 LP  0  0  0  0  0  0  0  0  0  0  0  0  # atno 17321 bound_to 7965
  139.4925  144.6486  151.6725 LP  0  0  0  0  0  0  0  0  0  0  0  0  # atno 17342 bound_to 10162
  140.5686  144.0147  150.6205 LP  0  0  0  0  0  0  0  0  0  0  0  0  # atno 17343 bound_to 10162
  156.9924  130.9897  151.3411 LP  0  0  0  0  0  0  0  0  0  0  0  0  # atno 17370 bound_to 10713
  157.5530  130.8195  149.8168 LP  0  0  0  0  0  0  0  0  0  0  0  0  # atno 17371 bound_to 10713
  139.9752  135.0116  156.9613 LP  0  0  0  0  0  0  0  0  0  0  0  0  # atno 17394 bound_to 11000
  140.5222  134.0896  155.7295 LP  0  0  0  0  0  0  0  0  0  0  0  0  # atno 17395 bound_to 11000

$$$$
