AV-unprocessed.smi:2060|AV-procd|sdf|8358|dock1
  -GOLD-   2272011 23D 1   1.00000     0.00000
 Structure written by MMmdl.
 45 46  0  0  0  0  0  0  0  0  3 V2000
  149.2969  131.9045  154.5945 C   0  0  0  0  0  0  0  0  0  0  0  0
  149.3770  133.4413  154.7647 C   0  0  0  0  0  0  0  0  0  0  0  0
  148.0462  134.2934  154.7479 C   0  0  1  0  0  0  0  0  0  0  0  0
  147.0938  133.6694  155.8111 C   0  0  0  0  0  0  0  0  0  0  0  0
  148.3488  135.7955  155.1064 C   0  0  0  0  0  0  0  0  0  0  0  0
  149.1458  135.8905  156.3341 N   0  5  0  0  0  0  0  0  0  0  0  0
  150.3010  136.5997  156.4515 C   0  0  0  0  0  0  0  0  0  0  0  0
  151.3613  136.4180  155.8420 O   0  0  0  0  0  0  0  0  0  0  0  0
  150.1959  137.5923  157.3541 N   0  0  0  0  0  0  0  0  0  0  0  0
  151.1715  138.5476  157.7430 C   0  0  0  0  0  0  0  0  0  0  0  0
  150.8611  139.5502  158.7003 C   0  0  0  0  0  0  0  0  0  0  0  0
  152.0271  140.2561  158.7976 C   0  0  0  0  0  0  0  0  0  0  0  0
  152.4313  141.4414  159.6051 C   0  0  0  0  0  0  0  0  0  0  0  0
  152.9710  139.7283  157.9719 O   0  0  0  0  0  0  0  0  0  0  0  0
  152.4166  138.6334  157.2987 N   0  0  0  0  0  0  0  0  0  0  0  0
  147.3865  134.2785  153.3769 N   0  3  0  0  0  0  0  0  0  0  0  0
  147.1687  132.9542  152.7256 C   0  0  0  0  0  0  0  0  0  0  0  0
  146.7181  133.1310  151.2643 C   0  0  0  0  0  0  0  0  0  0  0  0
  145.5489  133.9341  151.1990 O   0  0  0  0  0  0  0  0  0  0  0  0
  145.7785  135.2309  151.7290 C   0  0  0  0  0  0  0  0  0  0  0  0
  146.1504  135.1061  153.2132 C   0  0  0  0  0  0  0  0  0  0  0  0
  150.3002  131.4784  154.5949 H   0  0  0  0  0  0  0  0  0  0  0  0
  148.8346  131.6157  153.6518 H   0  0  0  0  0  0  0  0  0  0  0  0
  148.7532  131.4189  155.4046 H   0  0  0  0  0  0  0  0  0  0  0  0
  149.9443  133.6364  155.6771 H   0  0  0  0  0  0  0  0  0  0  0  0
  150.0170  133.7738  153.9473 H   0  0  0  0  0  0  0  0  0  0  0  0
  147.5292  133.6542  156.8109 H   0  0  0  0  0  0  0  0  0  0  0  0
  146.8568  132.6357  155.5567 H   0  0  0  0  0  0  0  0  0  0  0  0
  146.1450  134.1980  155.9156 H   0  0  0  0  0  0  0  0  0  0  0  0
  148.8742  136.2603  154.2718 H   0  0  0  0  0  0  0  0  0  0  0  0
  147.4095  136.3434  155.1841 H   0  0  0  0  0  0  0  0  0  0  0  0
  149.3004  137.6754  157.8112 H   0  0  0  0  0  0  0  0  0  0  0  0
  149.9358  139.7253  159.2287 H   0  0  0  0  0  0  0  0  0  0  0  0
  151.5864  141.8333  160.1718 H   0  0  0  0  0  0  0  0  0  0  0  0
  152.8055  142.2379  158.9621 H   0  0  0  0  0  0  0  0  0  0  0  0
  153.2189  141.1770  160.3109 H   0  0  0  0  0  0  0  0  0  0  0  0
  148.0818  132.3629  152.6905 H   0  0  0  0  0  0  0  0  0  0  0  0
  146.4270  132.3850  153.2877 H   0  0  0  0  0  0  0  0  0  0  0  0
  147.5131  133.5810  150.6672 H   0  0  0  0  0  0  0  0  0  0  0  0
  146.5014  132.1595  150.8198 H   0  0  0  0  0  0  0  0  0  0  0  0
  146.5637  135.7419  151.1690 H   0  0  0  0  0  0  0  0  0  0  0  0
  144.8697  135.8223  151.6180 H   0  0  0  0  0  0  0  0  0  0  0  0
  145.3189  134.6490  153.7515 H   0  0  0  0  0  0  0  0  0  0  0  0
  146.2806  136.1087  153.6191 H   0  0  0  0  0  0  0  0  0  0  0  0
  148.0844  134.7273  152.7984 H   0  0  0  0  0  0  0  0  0  0  0  0
  1  2  1  0  0  0  0
  1 22  1  0  0  0  0
  1 23  1  0  0  0  0
  1 24  1  0  0  0  0
  2  3  1  0  0  0  0
  2 25  1  0  0  0  0
  2 26  1  0  0  0  0
  3  4  1  0  0  0  0
  3  5  1  0  0  0  0
  3 16  1  0  0  0  0
  4 27  1  0  0  0  0
  4 28  1  0  0  0  0
  4 29  1  0  0  0  0
  5  6  1  0  0  0  0
  5 30  1  0  0  0  0
  5 31  1  0  0  0  0
  6  7  1  0  0  0  0
  7  8  2  0  0  0  0
  7  9  1  0  0  0  0
  9 10  1  0  0  0  0
  9 32  1  0  0  0  0
 10 15  2  0  0  0  0
 10 11  1  0  0  0  0
 11 12  2  0  0  0  0
 11 33  1  0  0  0  0
 12 13  1  0  0  0  0
 12 14  1  0  0  0  0
 13 34  1  0  0  0  0
 13 35  1  0  0  0  0
 13 36  1  0  0  0  0
 14 15  1  0  0  0  0
 16 21  1  0  0  0  0
 16 17  1  0  0  0  0
 16 45  1  0  0  0  0
 17 18  1  0  0  0  0
 17 37  1  0  0  0  0
 17 38  1  0  0  0  0
 18 19  1  0  0  0  0
 18 39  1  0  0  0  0
 18 40  1  0  0  0  0
 19 20  1  0  0  0  0
 20 21  1  0  0  0  0
 20 41  1  0  0  0  0
 20 42  1  0  0  0  0
 21 43  1  0  0  0  0
 21 44  1  0  0  0  0
M  CHG  1   6  -1
M  CHG  1  16   1
M  END
> <s_m_source_file>
AV-unprocessed.smi

> <i_m_source_file_index>
2060

> <i_lp_mmshare_version>
43012

> <i_f3d_flags>
0

> <s_epik_input>
W0NIMl0xW0NIMl1PW0NIMl1bQ0gyXU4xW0NAQF0oW0NIM10pKFtDSDJdW0NIM10pW0NIMl1bTkhdQyg9TylbTkhdYzJbY0hdYyhbQ0gzXSlvbjI=

> <s_epik_cmdline>
J2VwaWtfcHl0aG9uJywgJy1waCcsICc3LjAnLCAnLXRuJywgJzgnLCAnLW1hJywgJzIwMCcsICctbWV0YWxfYmluZGluZycsICctaW1hZScsICc8aW5maWxlLm1hZT4nLCAnLW9tYWUnLCAnPG91dGZpbGUubWFlPic=

> <r_epik_Ionization_Penalty>
6.79469

> <r_epik_Ionization_Penalty_Charging>
6.79469

> <r_epik_Ionization_Penalty_Neutral>
5.68576e-06

> <r_epik_State_Penalty>
7.33145

> <r_epik_Charging_Adjusted_Penalty>
14.1261

> <i_epik_Tot_Q>
0

> <i_epik_Tot_abs_Q>
2

> <r_epik_Metal_State_Penalty>
3.24803

> <b_epik_Metal_Only>
1

> <s_lp_Force_Field>
OPLS_2005

> <r_lp_Energy>
29.3309

> <b_lp_Chiralities_Consistent>
1

> <s_lp_Variant>
AV-unprocessed.smi:2060-5

> <Gold.Version>
5.8.1

> <Gold.Id.Protein>
6NUR|6NUR_protein|mol2

> <Gold.PLP.Fitness>
36.7064

> <Gold.PLP.PLP>
-26.0323

> <Gold.PLP.part.hbond>
-3.0000

> <Gold.PLP.part.metal>
0.0000

> <Gold.PLP.part.buried>
-3.7740

> <Gold.PLP.part.nonpolar>
-19.1028

> <Gold.PLP.part.repulsive>
0.2723

> <Gold.PLP.ligand.clash>
0.0000

> <Gold.PLP.ligand.torsion>
0.7796

> <Gold.PLP.Chemscore.Hbond>
4.0000

> <Gold.PLP.Chemscore.CHOScore>
0.0000

> <Gold.PLP.Chemscore.Metal>
0.0000

> <Gold.Chemscore.Hbonds>
donor molecule, donor type, donor heavy atom, donor atom, acceptor molecule, acceptor atom, score
      L1  H    16    45       P1  7948  2.00
      P1  H  7997  8010       L1    14  1.00
      P1  H 10752 10763       L1     8  0.76

> <Gold.PLP.Chemscore.Internal.Correction>
0.2332

> <Gold.Rescore>
     Score         DG    S(hbond)    S(metal)    S(lipo)     H(rot)  DE(clash)    DE(int)     intcor
     15.25     -17.51       2.92        0.00      57.40       1.73       0.06       2.20       ----

> <Gold.Chemscore.Fitness>
15.2485

> <Gold.Chemscore.DG>
-17.5132

> <Gold.Chemscore.ZeroCoef>
-5.4800

> <Gold.Chemscore.Hbond>
2.9176

> <Gold.Chemscore.Metal>
0.0000

> <Gold.Chemscore.Lipo>
57.3987

> <Gold.Chemscore.Internal_Hbond>
0.0000

> <Gold.Chemscore.DEClash>
0.0641

> <Gold.Chemscore.DEInternal>
2.2005

> <Gold.Chemscore.Rot>
1.7294

> <Gold.Chemscore.Internal.Correction>
   9.000000E+99

> <Gold.Chemscore.Hbonds>
donor molecule, donor type, donor heavy atom, donor atom, acceptor molecule, acceptor atom, score
      L1  H    16    45       P1  7948  0.73
      P1  H  7997  8010       L1    14  0.39
      P1  H 10752 10763       L1     8  0.77

> <Gold.Chemscore.Hbond.Weighted>
-9.7448

> <Gold.Chemscore.Metal.Weighted>
-0.0000

> <Gold.Chemscore.Lipo.Weighted>
-6.7157

> <Gold.Chemscore.Internal_Hbond.Weighted>
0.0000

> <Gold.Chemscore.DEClash.Weighted>
0.0641

> <Gold.Chemscore.DEInternal.Weighted>
2.2005

> <Gold.Chemscore.Rot.Weighted>
4.4272

> <Gold.Chemscore.Internal.Correction.Weighted>
   9.000000E+99

> <Gold.Protein.RotatedTorsions>
[ 6907 6896 6895 6894 ] final   -5.08 input  -60.11 | X-H torsion
[ 7974 7965 7964 7962 ] final  122.16 input  175.53 | X-H torsion
[ 8008 7997 7996 7995 ] final   33.91 input   59.86 | X-H torsion
[ 10167 10162 10161 10158 ] final -176.25 input  -65.29 | X-H torsion
[ 10718 10713 10712 10709 ] final   10.07 input   66.30 | X-H torsion
[ 10763 10752 10751 10750 ] final   71.79 input  -60.55 | X-H torsion
[ 11005 11000 10999 10996 ] final  -62.01 input  -57.11 | X-H torsion

> <Gold.Protein.ActiveResidues>
 VAL166  LYS551  ARG553  GLY616  TRP617  ASP618  TYR619  PRO620  LYS621  CYS622 
 ASP623  PHE694  ASN695  SER759  ASP760  ASP761  ALA762  ILE779  LEU786  VAL792 
 PHE793  MET794  SER795  GLU796  ALA797  LYS798  CYS799  TRP800  GLU811  SER814 

> <Gold.Protein.RotatedAtoms>
  151.4874  135.1055  159.9793 H   0  0  0  0  0  0  0  0  0  0  0  0  # atno 6907 bound_to 6896
  152.4755  133.8124  159.7021 H   0  0  0  0  0  0  0  0  0  0  0  0  # atno 6908 bound_to 6896
  150.8790  133.7336  159.2964 H   0  0  0  0  0  0  0  0  0  0  0  0  # atno 6909 bound_to 6896
  145.1108  139.3454  143.4764 H   0  0  0  0  0  0  0  0  0  0  0  0  # atno 7974 bound_to 7965
  155.1463  140.3271  155.4441 H   0  0  0  0  0  0  0  0  0  0  0  0  # atno 8008 bound_to 7997
  156.2588  140.1984  156.6527 H   0  0  0  0  0  0  0  0  0  0  0  0  # atno 8009 bound_to 7997
  154.6505  140.0559  156.9937 H   0  0  0  0  0  0  0  0  0  0  0  0  # atno 8010 bound_to 7997
  139.5539  144.2039  152.1125 H   0  0  0  0  0  0  0  0  0  0  0  0  # atno 10167 bound_to 10162
  156.9755  130.5985  149.5672 H   0  0  0  0  0  0  0  0  0  0  0  0  # atno 10718 bound_to 10713
  153.0420  135.5124  154.7646 H   0  0  0  0  0  0  0  0  0  0  0  0  # atno 10763 bound_to 10752
  154.6576  135.2934  154.9909 H   0  0  0  0  0  0  0  0  0  0  0  0  # atno 10764 bound_to 10752
  154.0771  135.6669  153.4885 H   0  0  0  0  0  0  0  0  0  0  0  0  # atno 10765 bound_to 10752
  141.1345  133.6635  156.5463 H   0  0  0  0  0  0  0  0  0  0  0  0  # atno 11005 bound_to 11000
  146.3526  140.1026  142.8607 LP  0  0  0  0  0  0  0  0  0  0  0  0  # atno 17320 bound_to 7965
  145.0849  140.9246  143.4803 LP  0  0  0  0  0  0  0  0  0  0  0  0  # atno 17321 bound_to 7965
  140.1539  144.5089  150.6671 LP  0  0  0  0  0  0  0  0  0  0  0  0  # atno 17342 bound_to 10162
  140.6808  143.2326  151.5389 LP  0  0  0  0  0  0  0  0  0  0  0  0  # atno 17343 bound_to 10162
  156.0265  130.5359  150.8421 LP  0  0  0  0  0  0  0  0  0  0  0  0  # atno 17370 bound_to 10713
  157.5563  131.0945  150.9624 LP  0  0  0  0  0  0  0  0  0  0  0  0  # atno 17371 bound_to 10713
  140.4099  134.7281  157.4830 LP  0  0  0  0  0  0  0  0  0  0  0  0  # atno 17394 bound_to 11000
  140.0434  134.6234  155.8951 LP  0  0  0  0  0  0  0  0  0  0  0  0  # atno 17395 bound_to 11000

$$$$
