AV-unprocessed.smi:447|AV-procd|sdf|2601|dock6
  -GOLD-   2262022593D 1   1.00000     0.00000
 Structure written by MMmdl.
 46 48  0  0  0  0  0  0  0  0  2 V2000
  157.8985  140.2521  159.8623 C   0  0  0  0  0  0  0  0  0  0  0  0
  156.3869  140.1024  159.9981 C   0  0  0  0  0  0  0  0  0  0  0  0
  155.7176  139.7232  159.0383 O   0  0  0  0  0  0  0  0  0  0  0  0
  155.8617  140.4017  161.1964 N   0  0  0  0  0  0  0  0  0  0  0  0
  154.4396  140.3556  161.5301 C   0  0  2  0  0  0  0  0  0  0  0  0
  153.8592  138.9984  161.1109 C   0  0  0  0  0  0  0  0  0  0  0  0
  153.6560  141.4752  160.9055 C   0  0  0  0  0  0  0  0  0  0  0  0
  153.3884  142.6874  161.4730 N   0  3  0  0  0  0  0  0  0  0  0  0
  152.6409  143.4698  160.5929 C   0  0  0  0  0  0  0  0  0  0  0  0
  152.1286  144.7567  160.7262 C   0  0  0  0  0  0  0  0  0  0  0  0
  151.4036  145.2661  159.6288 C   0  0  0  0  0  0  0  0  0  0  0  0
  151.2126  144.5044  158.4576 C   0  0  0  0  0  0  0  0  0  0  0  0
  151.7383  143.2013  158.3337 C   0  0  0  0  0  0  0  0  0  0  0  0
  152.4522  142.7051  159.4243 C   0  0  0  0  0  0  0  0  0  0  0  0
  153.0993  141.4871  159.6588 N   0  0  0  0  0  0  0  0  0  0  0  0
  153.0845  140.4590  158.6061 C   0  0  0  0  0  0  0  0  0  0  0  0
  151.6702  139.9158  158.3197 C   0  0  2  0  0  0  0  0  0  0  0  0
  151.3725  138.8646  159.2173 O   0  0  0  0  0  0  0  0  0  0  0  0
  151.5243  139.4914  156.8672 C   0  0  0  0  0  0  0  0  0  0  0  0
  150.5258  140.0767  156.0594 C   0  0  0  0  0  0  0  0  0  0  0  0
  150.3865  139.6916  154.7117 C   0  0  0  0  0  0  0  0  0  0  0  0
  151.2472  138.7216  154.1632 C   0  0  0  0  0  0  0  0  0  0  0  0
  152.2491  138.1384  154.9624 C   0  0  0  0  0  0  0  0  0  0  0  0
  152.3884  138.5226  156.3104 C   0  0  0  0  0  0  0  0  0  0  0  0
  158.3990  140.0783  160.8157 H   0  0  0  0  0  0  0  0  0  0  0  0
  158.1478  141.2565  159.5203 H   0  0  0  0  0  0  0  0  0  0  0  0
  158.2903  139.5366  159.1388 H   0  0  0  0  0  0  0  0  0  0  0  0
  156.4903  140.7087  161.9246 H   0  0  0  0  0  0  0  0  0  0  0  0
  154.3532  140.4384  162.6145 H   0  0  0  0  0  0  0  0  0  0  0  0
  152.8109  138.9139  161.3991 H   0  0  0  0  0  0  0  0  0  0  0  0
  154.3967  138.1775  161.5867 H   0  0  0  0  0  0  0  0  0  0  0  0
  153.9198  138.8562  160.0312 H   0  0  0  0  0  0  0  0  0  0  0  0
  152.2734  145.3422  161.6223 H   0  0  0  0  0  0  0  0  0  0  0  0
  150.9851  146.2605  159.6870 H   0  0  0  0  0  0  0  0  0  0  0  0
  150.6511  144.9277  157.6371 H   0  0  0  0  0  0  0  0  0  0  0  0
  151.5860  142.6253  157.4329 H   0  0  0  0  0  0  0  0  0  0  0  0
  153.5265  140.8849  157.7047 H   0  0  0  0  0  0  0  0  0  0  0  0
  153.7490  139.6516  158.9153 H   0  0  0  0  0  0  0  0  0  0  0  0
  150.9424  140.7037  158.5168 H   0  0  0  0  0  0  0  0  0  0  0  0
  151.4000  138.0476  158.7430 H   0  0  0  0  0  0  0  0  0  0  0  0
  149.8620  140.8235  156.4700 H   0  0  0  0  0  0  0  0  0  0  0  0
  149.6191  140.1406  154.0985 H   0  0  0  0  0  0  0  0  0  0  0  0
  151.1400  138.4260  153.1298 H   0  0  0  0  0  0  0  0  0  0  0  0
  152.9112  137.3959  154.5417 H   0  0  0  0  0  0  0  0  0  0  0  0
  153.1617  138.0714  156.9150 H   0  0  0  0  0  0  0  0  0  0  0  0
  153.6895  142.9515  162.4020 H   0  0  0  0  0  0  0  0  0  0  0  0
  1  2  1  0  0  0  0
  1 25  1  0  0  0  0
  1 26  1  0  0  0  0
  1 27  1  0  0  0  0
  2  3  2  0  0  0  0
  2  4  1  0  0  0  0
  4  5  1  0  0  0  0
  4 28  1  0  0  0  0
  5  6  1  0  0  0  0
  5  7  1  0  0  0  0
  5 29  1  0  0  0  0
  6 30  1  0  0  0  0
  6 31  1  0  0  0  0
  6 32  1  0  0  0  0
  7 15  1  0  0  0  0
  7  8  2  0  0  0  0
  8  9  1  0  0  0  0
  8 46  1  0  0  0  0
  9 14  2  0  0  0  0
  9 10  1  0  0  0  0
 10 11  2  0  0  0  0
 10 33  1  0  0  0  0
 11 12  1  0  0  0  0
 11 34  1  0  0  0  0
 12 13  2  0  0  0  0
 12 35  1  0  0  0  0
 13 14  1  0  0  0  0
 13 36  1  0  0  0  0
 14 15  1  0  0  0  0
 15 16  1  0  0  0  0
 16 17  1  0  0  0  0
 16 37  1  0  0  0  0
 16 38  1  0  0  0  0
 17 18  1  0  0  0  0
 17 19  1  0  0  0  0
 17 39  1  0  0  0  0
 18 40  1  0  0  0  0
 19 24  1  0  0  0  0
 19 20  2  0  0  0  0
 20 21  1  0  0  0  0
 20 41  1  0  0  0  0
 21 22  2  0  0  0  0
 21 42  1  0  0  0  0
 22 23  1  0  0  0  0
 22 43  1  0  0  0  0
 23 24  2  0  0  0  0
 23 44  1  0  0  0  0
 24 45  1  0  0  0  0
M  CHG  1   8   1
M  END
> <s_m_source_file>
AV-unprocessed.smi

> <i_m_source_file_index>
447

> <i_lp_mmshare_version>
43012

> <i_f3d_flags>
0

> <s_epik_input>
W0NIM11DKD1PKVtOSF1bQ0BIXShbQ0gzXSljKG4xKW4oYyhjMTIpW2NIXVtjSF1bY0hdW2NIXTIpW0NIMl1bQ0BIXShbT0hdKWMzW2NIXVtjSF1bY0hdW2NIXVtjSF0z

> <s_epik_cmdline>
J2VwaWtfcHl0aG9uJywgJy1waCcsICc3LjAnLCAnLXRuJywgJzgnLCAnLW1hJywgJzIwMCcsICctbWV0YWxfYmluZGluZycsICctaW1hZScsICc8aW5maWxlLm1hZT4nLCAnLW9tYWUnLCAnPG91dGZpbGUubWFlPic=

> <r_epik_Ionization_Penalty>
0.950381

> <r_epik_Ionization_Penalty_Charging>
0.950379

> <r_epik_Ionization_Penalty_Neutral>
1.42115e-06

> <r_epik_State_Penalty>
0.994584

> <r_epik_Charging_Adjusted_Penalty>
1.94496

> <i_epik_Tot_Q>
1

> <i_epik_Tot_abs_Q>
1

> <r_epik_Metal_State_Penalty>
1.10485

> <b_epik_Metal_Only>
0

> <s_lp_Force_Field>
OPLS_2005

> <r_lp_Energy>
11.6076

> <b_lp_Chiralities_Consistent>
1

> <s_lp_Variant>
AV-unprocessed.smi:447-5

> <Gold.Version>
5.8.1

> <Gold.Id.Protein>
6NUR|6NUR_protein|mol2

> <Gold.PLP.Fitness>
51.8207

> <Gold.PLP.PLP>
-51.1867

> <Gold.PLP.part.hbond>
-2.0000

> <Gold.PLP.part.metal>
0.0000

> <Gold.PLP.part.buried>
-3.2805

> <Gold.PLP.part.nonpolar>
-44.4232

> <Gold.PLP.part.repulsive>
0.0505

> <Gold.PLP.ligand.clash>
0.0000

> <Gold.PLP.ligand.torsion>
1.2282

> <Gold.PLP.Chemscore.Hbond>
1.0000

> <Gold.PLP.Chemscore.CHOScore>
0.0000

> <Gold.PLP.Chemscore.Metal>
0.0000

> <Gold.Chemscore.Hbonds>
donor molecule, donor type, donor heavy atom, donor atom, acceptor molecule, acceptor atom, score
      P1  H  7997  8010       L1     3  1.00

> <Gold.PLP.Chemscore.Internal.Correction>
0.0905

> <Gold.Rescore>
     Score         DG    S(hbond)    S(metal)    S(lipo)     H(rot)  DE(clash)    DE(int)     intcor
     14.26     -19.22       0.99        0.00     141.81       2.41       0.09       4.87       ----

> <Gold.Chemscore.Fitness>
14.2563

> <Gold.Chemscore.DG>
-19.2202

> <Gold.Chemscore.ZeroCoef>
-5.4800

> <Gold.Chemscore.Hbond>
0.9944

> <Gold.Chemscore.Metal>
0.0000

> <Gold.Chemscore.Lipo>
141.8094

> <Gold.Chemscore.Internal_Hbond>
0.0000

> <Gold.Chemscore.DEClash>
0.0893

> <Gold.Chemscore.DEInternal>
4.8746

> <Gold.Chemscore.Rot>
2.4112

> <Gold.Chemscore.Internal.Correction>
   9.000000E+99

> <Gold.Chemscore.Hbonds>
donor molecule, donor type, donor heavy atom, donor atom, acceptor molecule, acceptor atom, score
      P1  H  7997  8010       L1     3  1.00

> <Gold.Chemscore.Hbond.Weighted>
-3.3212

> <Gold.Chemscore.Metal.Weighted>
-0.0000

> <Gold.Chemscore.Lipo.Weighted>
-16.5917

> <Gold.Chemscore.Internal_Hbond.Weighted>
0.0000

> <Gold.Chemscore.DEClash.Weighted>
0.0893

> <Gold.Chemscore.DEInternal.Weighted>
4.8746

> <Gold.Chemscore.Rot.Weighted>
6.1727

> <Gold.Chemscore.Internal.Correction.Weighted>
   9.000000E+99

> <Gold.Protein.RotatedTorsions>
[ 6907 6896 6895 6894 ] final   70.34 input  -60.11 | X-H torsion
[ 7974 7965 7964 7962 ] final  -78.70 input  175.53 | X-H torsion
[ 8008 7997 7996 7995 ] final  -23.84 input   59.86 | X-H torsion
[ 10167 10162 10161 10158 ] final   37.02 input  -65.29 | X-H torsion
[ 10718 10713 10712 10709 ] final -114.99 input   66.30 | X-H torsion
[ 10763 10752 10751 10750 ] final -133.31 input  -60.55 | X-H torsion
[ 11005 11000 10999 10996 ] final  -81.09 input  -57.11 | X-H torsion

> <Gold.Protein.ActiveResidues>
 VAL166  LYS551  ARG553  GLY616  TRP617  ASP618  TYR619  PRO620  LYS621  CYS622 
 ASP623  PHE694  ASN695  SER759  ASP760  ASP761  ALA762  ILE779  LEU786  VAL792 
 PHE793  MET794  SER795  GLU796  ALA797  LYS798  CYS799  TRP800  GLU811  SER814 

> <Gold.Protein.RotatedAtoms>
  152.4743  134.4882  159.9686 H   0  0  0  0  0  0  0  0  0  0  0  0  # atno 6907 bound_to 6896
  151.4902  133.3521  159.2860 H   0  0  0  0  0  0  0  0  0  0  0  0  # atno 6908 bound_to 6896
  150.8772  134.8184  159.7260 H   0  0  0  0  0  0  0  0  0  0  0  0  # atno 6909 bound_to 6896
  145.5830  140.9445  143.1333 H   0  0  0  0  0  0  0  0  0  0  0  0  # atno 7974 bound_to 7965
  154.4562  140.1970  156.0372 H   0  0  0  0  0  0  0  0  0  0  0  0  # atno 8008 bound_to 7997
  156.0751  140.3279  155.7596 H   0  0  0  0  0  0  0  0  0  0  0  0  # atno 8009 bound_to 7997
  155.5201  140.0569  157.2899 H   0  0  0  0  0  0  0  0  0  0  0  0  # atno 8010 bound_to 7997
  140.4072  144.1642  150.6137 H   0  0  0  0  0  0  0  0  0  0  0  0  # atno 10167 bound_to 10162
  156.0866  130.6057  150.8848 H   0  0  0  0  0  0  0  0  0  0  0  0  # atno 10718 bound_to 10713
  154.8734  135.3770  154.4552 H   0  0  0  0  0  0  0  0  0  0  0  0  # atno 10763 bound_to 10752
  153.5225  135.7028  153.5729 H   0  0  0  0  0  0  0  0  0  0  0  0  # atno 10764 bound_to 10752
  153.3970  135.3958  155.1927 H   0  0  0  0  0  0  0  0  0  0  0  0  # atno 10765 bound_to 10752
  141.1667  133.7180  156.8370 H   0  0  0  0  0  0  0  0  0  0  0  0  # atno 11005 bound_to 11000
  144.7385  139.7515  143.7320 LP  0  0  0  0  0  0  0  0  0  0  0  0  # atno 17320 bound_to 7965
  146.1702  139.4850  142.9932 LP  0  0  0  0  0  0  0  0  0  0  0  0  # atno 17321 bound_to 7965
  140.4676  143.2425  151.9133 LP  0  0  0  0  0  0  0  0  0  0  0  0  # atno 17342 bound_to 10162
  139.4783  144.5403  151.8538 LP  0  0  0  0  0  0  0  0  0  0  0  0  # atno 17343 bound_to 10162
  157.6002  131.0941  150.8972 LP  0  0  0  0  0  0  0  0  0  0  0  0  # atno 17370 bound_to 10713
  156.9131  130.5288  149.5280 LP  0  0  0  0  0  0  0  0  0  0  0  0  # atno 17371 bound_to 10713
  140.2010  134.8897  157.3169 LP  0  0  0  0  0  0  0  0  0  0  0  0  # atno 17394 bound_to 11000
  140.2187  134.4050  155.7576 LP  0  0  0  0  0  0  0  0  0  0  0  0  # atno 17395 bound_to 11000

$$$$
