AV-unprocessed.smi:24|AV-procd|sdf|178|dock3
  -GOLD-   2262015443D 1   1.00000     0.00000
 Structure written by MMmdl.
 61 65  0  0  0  0  0  0  0  0  1 V2000
  151.2233  130.5236  160.4731 C   0  0  0  0  0  0  0  0  0  0  0  0
  151.8431  130.1457  159.2524 O   0  0  0  0  0  0  0  0  0  0  0  0
  151.5261  130.8595  158.1167 C   0  0  0  0  0  0  0  0  0  0  0  0
  152.1531  130.4668  156.9170 C   0  0  0  0  0  0  0  0  0  0  0  0
  151.8944  131.1459  155.7110 C   0  0  0  0  0  0  0  0  0  0  0  0
  151.0018  132.2362  155.6849 C   0  0  0  0  0  0  0  0  0  0  0  0
  150.7421  132.9628  154.3658 C   0  0  1  0  0  0  0  0  0  0  0  0
  149.8804  132.1353  153.4079 C   0  0  0  0  0  0  0  0  0  0  0  0
  148.7457  133.0670  153.1420 C   0  0  0  0  0  0  0  0  0  0  0  0
  147.6287  132.6981  152.2439 C   0  0  0  0  0  0  0  0  0  0  0  0
  147.2298  131.3450  152.1518 C   0  0  0  0  0  0  0  0  0  0  0  0
  146.1617  130.9936  151.3034 C   0  0  0  0  0  0  0  0  0  0  0  0
  145.4974  131.9846  150.5539 C   0  0  0  0  0  0  0  0  0  0  0  0
  145.8991  133.3319  150.6485 C   0  0  0  0  0  0  0  0  0  0  0  0
  146.9664  133.6959  151.4933 C   0  0  0  0  0  0  0  0  0  0  0  0
  148.8409  134.1874  153.7568 N   0  0  0  0  0  0  0  0  0  0  0  0
  149.9835  134.2151  154.4874 N   0  0  0  0  0  0  0  0  0  0  0  0
  150.4100  135.3112  155.1532 C   0  0  0  0  0  0  0  0  0  0  0  0
  151.5161  135.3547  155.6952 O   0  0  0  0  0  0  0  0  0  0  0  0
  149.4738  136.5363  155.2198 C   0  0  0  0  0  0  0  0  0  0  0  0
  150.1973  137.8256  155.2627 N   0  0  0  0  0  0  0  0  0  0  0  0
  151.1985  138.0810  154.2935 C   0  0  0  0  0  0  0  0  0  0  0  0
  151.4675  137.2558  153.4194 O   0  0  0  0  0  0  0  0  0  0  0  0
  151.8770  139.3667  154.4135 C   0  0  0  0  0  0  0  0  0  0  0  0
  152.8326  139.6996  153.5293 F   0  0  0  0  0  0  0  0  0  0  0  0
  151.5610  140.2309  155.4000 C   0  0  0  0  0  0  0  0  0  0  0  0
  150.5919  139.9607  156.3496 N   0  0  0  0  0  0  0  0  0  0  0  0
  150.2604  140.9335  157.4605 C   0  0  1  0  0  0  0  0  0  0  0  0
  151.5294  141.3045  158.2497 C   0  0  0  0  0  0  0  0  0  0  0  0
  151.4723  142.8185  158.2772 C   0  0  0  0  0  0  0  0  0  0  0  0
  150.7502  143.1285  156.9746 C   0  0  0  0  0  0  0  0  0  0  0  0
  149.7502  142.1193  156.9189 O   0  0  0  0  0  0  0  0  0  0  0  0
  149.8842  138.7407  156.2959 C   0  0  0  0  0  0  0  0  0  0  0  0
  149.0211  138.4781  157.1369 O   0  0  0  0  0  0  0  0  0  0  0  0
  150.3579  132.6260  156.8800 C   0  0  0  0  0  0  0  0  0  0  0  0
  150.6192  131.9483  158.0864 C   0  0  0  0  0  0  0  0  0  0  0  0
  151.5889  129.8825  161.2751 H   0  0  0  0  0  0  0  0  0  0  0  0
  150.1401  130.4043  160.4233 H   0  0  0  0  0  0  0  0  0  0  0  0
  151.4624  131.5540  160.7400 H   0  0  0  0  0  0  0  0  0  0  0  0
  152.8440  129.6365  156.9219 H   0  0  0  0  0  0  0  0  0  0  0  0
  152.3899  130.8290  154.8050 H   0  0  0  0  0  0  0  0  0  0  0  0
  151.6982  133.1904  153.8901 H   0  0  0  0  0  0  0  0  0  0  0  0
  150.4215  131.8924  152.4927 H   0  0  0  0  0  0  0  0  0  0  0  0
  149.5244  131.2093  153.8621 H   0  0  0  0  0  0  0  0  0  0  0  0
  147.7254  130.5704  152.7192 H   0  0  0  0  0  0  0  0  0  0  0  0
  145.8508  129.9619  151.2282 H   0  0  0  0  0  0  0  0  0  0  0  0
  144.6781  131.7107  149.9056 H   0  0  0  0  0  0  0  0  0  0  0  0
  145.3867  134.0882  150.0722 H   0  0  0  0  0  0  0  0  0  0  0  0
  147.2538  134.7353  151.5497 H   0  0  0  0  0  0  0  0  0  0  0  0
  148.7878  136.4920  154.3728 H   0  0  0  0  0  0  0  0  0  0  0  0
  148.8259  136.4465  156.0936 H   0  0  0  0  0  0  0  0  0  0  0  0
  152.0992  141.1656  155.4310 H   0  0  0  0  0  0  0  0  0  0  0  0
  149.4862  140.4504  158.0594 H   0  0  0  0  0  0  0  0  0  0  0  0
  151.5204  140.8530  159.2421 H   0  0  0  0  0  0  0  0  0  0  0  0
  152.4188  140.9676  157.7145 H   0  0  0  0  0  0  0  0  0  0  0  0
  150.8760  143.1572  159.1253 H   0  0  0  0  0  0  0  0  0  0  0  0
  152.4566  143.2832  158.3410 H   0  0  0  0  0  0  0  0  0  0  0  0
  150.3135  144.1271  156.9601 H   0  0  0  0  0  0  0  0  0  0  0  0
  151.4275  143.0352  156.1246 H   0  0  0  0  0  0  0  0  0  0  0  0
  149.6612  133.4515  156.8810 H   0  0  0  0  0  0  0  0  0  0  0  0
  150.1098  132.2846  158.9766 H   0  0  0  0  0  0  0  0  0  0  0  0
  1  2  1  0  0  0  0
  1 37  1  0  0  0  0
  1 38  1  0  0  0  0
  1 39  1  0  0  0  0
  2  3  1  0  0  0  0
  3 36  1  0  0  0  0
  3  4  2  0  0  0  0
  4  5  1  0  0  0  0
  4 40  1  0  0  0  0
  5  6  2  0  0  0  0
  5 41  1  0  0  0  0
  6  7  1  0  0  0  0
  6 35  1  0  0  0  0
  7 17  1  0  0  0  0
  7  8  1  0  0  0  0
  7 42  1  0  0  0  0
  8  9  1  0  0  0  0
  8 43  1  0  0  0  0
  8 44  1  0  0  0  0
  9 10  1  0  0  0  0
  9 16  2  0  0  0  0
 10 15  1  0  0  0  0
 10 11  2  0  0  0  0
 11 12  1  0  0  0  0
 11 45  1  0  0  0  0
 12 13  2  0  0  0  0
 12 46  1  0  0  0  0
 13 14  1  0  0  0  0
 13 47  1  0  0  0  0
 14 15  2  0  0  0  0
 14 48  1  0  0  0  0
 15 49  1  0  0  0  0
 16 17  1  0  0  0  0
 17 18  1  0  0  0  0
 18 19  2  0  0  0  0
 18 20  1  0  0  0  0
 20 21  1  0  0  0  0
 20 50  1  0  0  0  0
 20 51  1  0  0  0  0
 21 33  1  0  0  0  0
 21 22  1  0  0  0  0
 22 23  2  0  0  0  0
 22 24  1  0  0  0  0
 24 25  1  0  0  0  0
 24 26  2  0  0  0  0
 26 27  1  0  0  0  0
 26 52  1  0  0  0  0
 27 28  1  0  0  0  0
 27 33  1  0  0  0  0
 28 32  1  0  0  0  0
 28 29  1  0  0  0  0
 28 53  1  0  0  0  0
 29 30  1  0  0  0  0
 29 54  1  0  0  0  0
 29 55  1  0  0  0  0
 30 31  1  0  0  0  0
 30 56  1  0  0  0  0
 30 57  1  0  0  0  0
 31 32  1  0  0  0  0
 31 58  1  0  0  0  0
 31 59  1  0  0  0  0
 33 34  2  0  0  0  0
 35 36  2  0  0  0  0
 35 60  1  0  0  0  0
 36 61  1  0  0  0  0
M  END
> <s_m_source_file>
AV-unprocessed.smi

> <i_m_source_file_index>
24

> <i_lp_mmshare_version>
43012

> <i_f3d_flags>
0

> <s_epik_input>
W0NIM11PYzFbY0hdW2NIXWMoW2NIXVtjSF0xKVtDQEBIXTJbQ0gyXUMoYzNbY0hdW2NIXVtjSF1bY0hdW2NIXTMpPU5OMkMoPU8pW0NIMl1uNGMoPU8pYyhGKVtjSF1uKGM0PU8pW0NAQEhdNVtDSDJdW0NIMl1bQ0gyXU81

> <s_epik_cmdline>
J2VwaWtfcHl0aG9uJywgJy1waCcsICc3LjAnLCAnLXRuJywgJzgnLCAnLW1hJywgJzIwMCcsICctbWV0YWxfYmluZGluZycsICctaW1hZScsICc8aW5maWxlLm1hZT4nLCAnLW9tYWUnLCAnPG91dGZpbGUubWFlPic=

> <r_lp_tautomer_probability>
1

> <r_epik_Ionization_Penalty>
1.46326e-08

> <r_epik_Ionization_Penalty_Charging>
4.53232e-09

> <r_epik_Ionization_Penalty_Neutral>
1.01002e-08

> <r_epik_State_Penalty>
-0

> <r_epik_Charging_Adjusted_Penalty>
4.53232e-09

> <i_epik_Tot_Q>
0

> <i_epik_Tot_abs_Q>
0

> <r_epik_Metal_State_Penalty>
-0

> <b_epik_Metal_Only>
0

> <s_epik_Chemistry_Notes>
This compound has an imine and may undergo hydrolysis. This compound contains an acetal/aminal-like group ( X-CH(R)-Y where X, Y are N, S, or O) that may be acid/base labile, releasing an aldehyde.

> <s_lp_Force_Field>
OPLS_2005

> <r_lp_Energy>
49.9994

> <b_lp_Chiralities_Consistent>
1

> <s_lp_Variant>
AV-unprocessed.smi:24-4

> <Gold.Version>
5.8.1

> <Gold.Id.Protein>
6NUR|6NUR_protein|mol2

> <Gold.PLP.Fitness>
52.4808

> <Gold.PLP.PLP>
-51.7070

> <Gold.PLP.part.hbond>
-1.0000

> <Gold.PLP.part.metal>
0.0000

> <Gold.PLP.part.buried>
-7.2329

> <Gold.PLP.part.nonpolar>
-45.0975

> <Gold.PLP.part.repulsive>
1.7770

> <Gold.PLP.ligand.clash>
0.0000

> <Gold.PLP.ligand.torsion>
1.1534

> <Gold.PLP.Chemscore.Hbond>
1.0000

> <Gold.PLP.Chemscore.CHOScore>
0.0000

> <Gold.PLP.Chemscore.Metal>
0.0000

> <Gold.Chemscore.Hbonds>
donor molecule, donor type, donor heavy atom, donor atom, acceptor molecule, acceptor atom, score
      P1  H 10752 10765       L1    23  0.36

> <Gold.PLP.Chemscore.Internal.Correction>
0.0805

> <Gold.Rescore>
     Score         DG    S(hbond)    S(metal)    S(lipo)     H(rot)  DE(clash)    DE(int)     intcor
     15.32     -17.82       1.00        0.00     120.25       1.98       0.59       1.92       ----

> <Gold.Chemscore.Fitness>
15.3180

> <Gold.Chemscore.DG>
-17.8186

> <Gold.Chemscore.ZeroCoef>
-5.4800

> <Gold.Chemscore.Hbond>
0.9956

> <Gold.Chemscore.Metal>
0.0000

> <Gold.Chemscore.Lipo>
120.2504

> <Gold.Chemscore.Internal_Hbond>
0.0000

> <Gold.Chemscore.DEClash>
0.5854

> <Gold.Chemscore.DEInternal>
1.9153

> <Gold.Chemscore.Rot>
1.9750

> <Gold.Chemscore.Internal.Correction>
   9.000000E+99

> <Gold.Chemscore.Hbonds>
donor molecule, donor type, donor heavy atom, donor atom, acceptor molecule, acceptor atom, score
      P1  H 10752 10765       L1    23  0.32

> <Gold.Chemscore.Hbond.Weighted>
-3.3254

> <Gold.Chemscore.Metal.Weighted>
-0.0000

> <Gold.Chemscore.Lipo.Weighted>
-14.0693

> <Gold.Chemscore.Internal_Hbond.Weighted>
0.0000

> <Gold.Chemscore.DEClash.Weighted>
0.5854

> <Gold.Chemscore.DEInternal.Weighted>
1.9153

> <Gold.Chemscore.Rot.Weighted>
5.0561

> <Gold.Chemscore.Internal.Correction.Weighted>
   9.000000E+99

> <Gold.Protein.RotatedTorsions>
[ 6907 6896 6895 6894 ] final  -96.79 input  -60.11 | X-H torsion
[ 7974 7965 7964 7962 ] final -116.57 input  175.53 | X-H torsion
[ 8008 7997 7996 7995 ] final -103.54 input   59.86 | X-H torsion
[ 10167 10162 10161 10158 ] final -158.25 input  -65.29 | X-H torsion
[ 10718 10713 10712 10709 ] final   99.82 input   66.30 | X-H torsion
[ 10763 10752 10751 10750 ] final  152.50 input  -60.55 | X-H torsion
[ 11005 11000 10999 10996 ] final  -88.16 input  -57.11 | X-H torsion

> <Gold.Protein.ActiveResidues>
 VAL166  LYS551  ARG553  GLY616  TRP617  ASP618  TYR619  PRO620  LYS621  CYS622 
 ASP623  PHE694  ASN695  SER759  ASP760  ASP761  ALA762  ILE779  LEU786  VAL792 
 PHE793  MET794  SER795  GLU796  ALA797  LYS798  CYS799  TRP800  GLU811  SER814 

> <Gold.Protein.RotatedAtoms>
  150.6998  134.1448  159.4118 H   0  0  0  0  0  0  0  0  0  0  0  0  # atno 6907 bound_to 6896
  151.9432  135.0201  160.0546 H   0  0  0  0  0  0  0  0  0  0  0  0  # atno 6908 bound_to 6896
  152.2075  133.4851  159.5129 H   0  0  0  0  0  0  0  0  0  0  0  0  # atno 6909 bound_to 6896
  145.0952  140.8516  143.3959 H   0  0  0  0  0  0  0  0  0  0  0  0  # atno 7974 bound_to 7965
  154.8724  140.0422  157.1732 H   0  0  0  0  0  0  0  0  0  0  0  0  # atno 8008 bound_to 7997
  154.8725  140.2960  155.5452 H   0  0  0  0  0  0  0  0  0  0  0  0  # atno 8009 bound_to 7997
  156.2999  140.2426  156.3716 H   0  0  0  0  0  0  0  0  0  0  0  0  # atno 8010 bound_to 7997
  139.6707  143.9750  152.2282 H   0  0  0  0  0  0  0  0  0  0  0  0  # atno 10167 bound_to 10162
  157.6868  131.0680  150.5006 H   0  0  0  0  0  0  0  0  0  0  0  0  # atno 10718 bound_to 10713
  154.1211  135.2833  155.3208 H   0  0  0  0  0  0  0  0  0  0  0  0  # atno 10763 bound_to 10752
  154.6422  135.5398  153.7806 H   0  0  0  0  0  0  0  0  0  0  0  0  # atno 10764 bound_to 10752
  153.0312  135.6489  154.1365 H   0  0  0  0  0  0  0  0  0  0  0  0  # atno 10765 bound_to 10752
  141.1606  133.7553  156.9411 H   0  0  0  0  0  0  0  0  0  0  0  0  # atno 11005 bound_to 11000
  145.1019  139.2816  143.5682 LP  0  0  0  0  0  0  0  0  0  0  0  0  # atno 17320 bound_to 7965
  146.3531  140.0589  142.8630 LP  0  0  0  0  0  0  0  0  0  0  0  0  # atno 17321 bound_to 7965
  139.9514  144.6618  150.8168 LP  0  0  0  0  0  0  0  0  0  0  0  0  # atno 17342 bound_to 10162
  140.7617  143.3180  151.2688 LP  0  0  0  0  0  0  0  0  0  0  0  0  # atno 17343 bound_to 10162
  156.5328  130.4189  149.6193 LP  0  0  0  0  0  0  0  0  0  0  0  0  # atno 17370 bound_to 10713
  156.3054  130.7200  151.2081 LP  0  0  0  0  0  0  0  0  0  0  0  0  # atno 17371 bound_to 10713
  140.1321  134.9349  157.2351 LP  0  0  0  0  0  0  0  0  0  0  0  0  # atno 17394 bound_to 11000
  140.2940  134.3207  155.7307 LP  0  0  0  0  0  0  0  0  0  0  0  0  # atno 17395 bound_to 11000

$$$$
