AV-unprocessed.smi:2822|AV-procd|sdf|10860|dock1
  -GOLD-   2272015303D 1   1.00000     0.00000
 Structure written by MMmdl.
 41 43  0  0  0  0  0  0  0  0  3 V2000
  150.1599  138.4088  154.2562 Cl  0  0  0  0  0  0  0  0  0  0  0  0
  149.0809  139.7591  154.2147 C   0  0  0  0  0  0  0  0  0  0  0  0
  149.3899  140.9111  154.9670 C   0  0  0  0  0  0  0  0  0  0  0  0
  148.5588  141.9743  154.9463 N   0  3  0  0  0  0  0  0  0  0  0  0
  147.4176  141.9938  154.2258 C   0  0  0  0  0  0  0  0  0  0  0  0
  147.0541  140.8718  153.4535 C   0  0  0  0  0  0  0  0  0  0  0  0
  147.8943  139.7300  153.4408 C   0  0  0  0  0  0  0  0  0  0  0  0
  147.5932  138.5829  152.6898 N   0  0  0  0  0  0  0  0  0  0  0  0
  146.3108  138.4336  152.0182 C   0  0  0  0  0  0  0  0  0  0  0  0
  145.6836  137.0604  152.2997 C   0  0  2  0  0  0  0  0  0  0  0  0
  146.3181  135.9554  151.4350 C   0  0  0  0  0  0  0  0  0  0  0  0
  145.6479  134.6559  151.6740 N   0  3  2  0  0  0  0  0  0  0  0  0
  146.2550  133.5516  150.8882 C   0  0  0  0  0  0  0  0  0  0  0  0
  145.5995  132.2037  151.2297 C   0  0  0  0  0  0  0  0  0  0  0  0
  144.0817  132.2643  151.0159 C   0  0  0  0  0  0  0  0  0  0  0  0
  143.4841  133.4298  151.8155 C   0  0  0  0  0  0  0  0  0  0  0  0
  144.1780  134.7618  151.4668 C   0  0  1  0  0  0  0  0  0  0  0  0
  143.6107  135.9255  152.3031 C   0  0  0  0  0  0  0  0  0  0  0  0
  144.2967  137.1300  151.9858 O   0  0  0  0  0  0  0  0  0  0  0  0
  150.2726  141.0129  155.5813 H   0  0  0  0  0  0  0  0  0  0  0  0
  146.8333  142.9004  154.2874 H   0  0  0  0  0  0  0  0  0  0  0  0
  146.1383  140.9080  152.8826 H   0  0  0  0  0  0  0  0  0  0  0  0
  148.1874  137.7702  152.7786 H   0  0  0  0  0  0  0  0  0  0  0  0
  145.6335  139.2287  152.3329 H   0  0  0  0  0  0  0  0  0  0  0  0
  146.4680  138.5446  150.9447 H   0  0  0  0  0  0  0  0  0  0  0  0
  145.8138  136.8158  153.3561 H   0  0  0  0  0  0  0  0  0  0  0  0
  146.2441  136.2150  150.3776 H   0  0  0  0  0  0  0  0  0  0  0  0
  147.3797  135.8643  151.6688 H   0  0  0  0  0  0  0  0  0  0  0  0
  146.1482  133.7597  149.8225 H   0  0  0  0  0  0  0  0  0  0  0  0
  147.3244  133.5000  151.0959 H   0  0  0  0  0  0  0  0  0  0  0  0
  146.0310  131.4127  150.6155 H   0  0  0  0  0  0  0  0  0  0  0  0
  145.8144  131.9428  152.2670 H   0  0  0  0  0  0  0  0  0  0  0  0
  143.8632  132.3933  149.9549 H   0  0  0  0  0  0  0  0  0  0  0  0
  143.6200  131.3237  151.3178 H   0  0  0  0  0  0  0  0  0  0  0  0
  142.4141  133.5011  151.6159 H   0  0  0  0  0  0  0  0  0  0  0  0
  143.5859  133.2273  152.8827 H   0  0  0  0  0  0  0  0  0  0  0  0
  144.0011  134.9812  150.4121 H   0  0  0  0  0  0  0  0  0  0  0  0
  142.5506  136.0618  152.0871 H   0  0  0  0  0  0  0  0  0  0  0  0
  143.6923  135.7201  153.3720 H   0  0  0  0  0  0  0  0  0  0  0  0
  145.7883  134.4305  152.6487 H   0  0  0  0  0  0  0  0  0  0  0  0
  148.8034  142.7971  155.4981 H   0  0  0  0  0  0  0  0  0  0  0  0
  1  2  1  0  0  0  0
  2  7  1  0  0  0  0
  2  3  2  0  0  0  0
  3  4  1  0  0  0  0
  3 20  1  0  0  0  0
  4  5  2  0  0  0  0
  4 41  1  0  0  0  0
  5  6  1  0  0  0  0
  5 21  1  0  0  0  0
  6  7  2  0  0  0  0
  6 22  1  0  0  0  0
  7  8  1  0  0  0  0
  8  9  1  0  0  0  0
  8 23  1  0  0  0  0
  9 10  1  0  0  0  0
  9 24  1  0  0  0  0
  9 25  1  0  0  0  0
 10 19  1  0  0  0  0
 10 11  1  0  0  0  0
 10 26  1  0  0  0  0
 11 12  1  0  0  0  0
 11 27  1  0  0  0  0
 11 28  1  0  0  0  0
 12 17  1  0  0  0  0
 12 13  1  0  0  0  0
 12 40  1  0  0  0  0
 13 14  1  0  0  0  0
 13 29  1  0  0  0  0
 13 30  1  0  0  0  0
 14 15  1  0  0  0  0
 14 31  1  0  0  0  0
 14 32  1  0  0  0  0
 15 16  1  0  0  0  0
 15 33  1  0  0  0  0
 15 34  1  0  0  0  0
 16 17  1  0  0  0  0
 16 35  1  0  0  0  0
 16 36  1  0  0  0  0
 17 18  1  0  0  0  0
 17 37  1  0  0  0  0
 18 19  1  0  0  0  0
 18 38  1  0  0  0  0
 18 39  1  0  0  0  0
M  CHG  1   4   1
M  CHG  1  12   1
M  END
> <s_m_source_file>
AV-unprocessed.smi

> <i_m_source_file_index>
2822

> <i_lp_mmshare_version>
43012

> <i_f3d_flags>
0

> <s_epik_input>
Q2xjMVtjSF1uW2NIXVtjSF1jMVtOSF1bQ0gyXVtDQEhdKFtDSDJdMilPW0NIMl1bQ0BASF0oTjIzKVtDSDJdW0NIMl1bQ0gyXVtDSDJdMw==

> <s_epik_cmdline>
J2VwaWtfcHl0aG9uJywgJy1waCcsICc3LjAnLCAnLXRuJywgJzgnLCAnLW1hJywgJzIwMCcsICctbWV0YWxfYmluZGluZycsICctaW1hZScsICc8aW5maWxlLm1hZT4nLCAnLW9tYWUnLCAnPG91dGZpbGUubWFlPic=

> <r_lp_tautomer_probability>
1

> <r_epik_Ionization_Penalty>
0.254999

> <r_epik_Ionization_Penalty_Charging>
0.254956

> <r_epik_Ionization_Penalty_Neutral>
4.33524e-05

> <r_epik_State_Penalty>
0.230978

> <r_epik_Charging_Adjusted_Penalty>
0.485934

> <i_epik_Tot_Q>
2

> <i_epik_Tot_abs_Q>
2

> <r_epik_Metal_State_Penalty>
3.47007

> <b_epik_Metal_Only>
0

> <s_lp_Force_Field>
OPLS_2005

> <r_lp_Energy>
36.8988

> <b_lp_Chiralities_Consistent>
1

> <s_lp_Variant>
AV-unprocessed.smi:2822-1

> <Gold.Version>
5.8.1

> <Gold.Id.Protein>
6NUR|6NUR_protein|mol2

> <Gold.PLP.Fitness>
42.5540

> <Gold.PLP.PLP>
-34.1919

> <Gold.PLP.part.hbond>
-3.0000

> <Gold.PLP.part.metal>
0.0000

> <Gold.PLP.part.buried>
0.5205

> <Gold.PLP.part.nonpolar>
-36.0837

> <Gold.PLP.part.repulsive>
3.5041

> <Gold.PLP.ligand.clash>
0.0000

> <Gold.PLP.ligand.torsion>
0.2376

> <Gold.PLP.Chemscore.Hbond>
2.9440

> <Gold.PLP.Chemscore.CHOScore>
0.0000

> <Gold.PLP.Chemscore.Metal>
0.0000

> <Gold.Chemscore.Hbonds>
donor molecule, donor type, donor heavy atom, donor atom, acceptor molecule, acceptor atom, score
      L1  H     4    41       P1  8028  1.92
      L1  H     8    23       P1  7948  0.90

> <Gold.PLP.Chemscore.Internal.Correction>
0.0054

> <Gold.Rescore>
     Score         DG    S(hbond)    S(metal)    S(lipo)     H(rot)  DE(clash)    DE(int)     intcor
     16.36     -20.82       1.90        0.00     103.11       1.20       4.25       0.21       ----

> <Gold.Chemscore.Fitness>
16.3601

> <Gold.Chemscore.DG>
-20.8221

> <Gold.Chemscore.ZeroCoef>
-5.4800

> <Gold.Chemscore.Hbond>
1.8985

> <Gold.Chemscore.Metal>
0.0000

> <Gold.Chemscore.Lipo>
103.1061

> <Gold.Chemscore.Internal_Hbond>
0.0000

> <Gold.Chemscore.DEClash>
4.2527

> <Gold.Chemscore.DEInternal>
0.2092

> <Gold.Chemscore.Rot>
1.1962

> <Gold.Chemscore.Internal.Correction>
   9.000000E+99

> <Gold.Chemscore.Hbonds>
donor molecule, donor type, donor heavy atom, donor atom, acceptor molecule, acceptor atom, score
      L1  H     4    41       P1  8028  0.92
      L1  H     8    23       P1  7948  0.88

> <Gold.Chemscore.Hbond.Weighted>
-6.3409

> <Gold.Chemscore.Metal.Weighted>
-0.0000

> <Gold.Chemscore.Lipo.Weighted>
-12.0634

> <Gold.Chemscore.Internal_Hbond.Weighted>
0.0000

> <Gold.Chemscore.DEClash.Weighted>
4.2527

> <Gold.Chemscore.DEInternal.Weighted>
0.2092

> <Gold.Chemscore.Rot.Weighted>
3.0623

> <Gold.Chemscore.Internal.Correction.Weighted>
   9.000000E+99

> <Gold.Protein.RotatedTorsions>
[ 6907 6896 6895 6894 ] final -137.56 input  -60.11 | X-H torsion
[ 7974 7965 7964 7962 ] final  -47.67 input  175.53 | X-H torsion
[ 8008 7997 7996 7995 ] final   94.24 input   59.86 | X-H torsion
[ 10167 10162 10161 10158 ] final -140.13 input  -65.29 | X-H torsion
[ 10718 10713 10712 10709 ] final  -95.57 input   66.30 | X-H torsion
[ 10763 10752 10751 10750 ] final  -11.85 input  -60.55 | X-H torsion
[ 11005 11000 10999 10996 ] final  -42.11 input  -57.11 | X-H torsion

> <Gold.Protein.ActiveResidues>
 VAL166  LYS551  ARG553  GLY616  TRP617  ASP618  TYR619  PRO620  LYS621  CYS622 
 ASP623  PHE694  ASN695  SER759  ASP760  ASP761  ALA762  ILE779  LEU786  VAL792 
 PHE793  MET794  SER795  GLU796  ALA797  LYS798  CYS799  TRP800  GLU811  SER814 

> <Gold.Protein.RotatedAtoms>
  151.0239  133.5851  159.2667 H   0  0  0  0  0  0  0  0  0  0  0  0  # atno 6907 bound_to 6896
  151.2957  135.0754  159.9230 H   0  0  0  0  0  0  0  0  0  0  0  0  # atno 6908 bound_to 6896
  152.5329  133.9930  159.7913 H   0  0  0  0  0  0  0  0  0  0  0  0  # atno 6909 bound_to 6896
  145.9592  140.7496  142.9466 H   0  0  0  0  0  0  0  0  0  0  0  0  # atno 7974 bound_to 7965
  156.0558  140.3302  155.7403 H   0  0  0  0  0  0  0  0  0  0  0  0  # atno 8008 bound_to 7997
  155.5532  140.0612  157.2863 H   0  0  0  0  0  0  0  0  0  0  0  0  # atno 8009 bound_to 7997
  154.4457  140.1890  156.0695 H   0  0  0  0  0  0  0  0  0  0  0  0  # atno 8010 bound_to 7997
  139.8312  143.7445  152.2666 H   0  0  0  0  0  0  0  0  0  0  0  0  # atno 10167 bound_to 10162
  156.0046  130.5115  150.6097 H   0  0  0  0  0  0  0  0  0  0  0  0  # atno 10718 bound_to 10713
  153.4899  135.7017  153.5890 H   0  0  0  0  0  0  0  0  0  0  0  0  # atno 10763 bound_to 10752
  153.4067  135.3858  155.2024 H   0  0  0  0  0  0  0  0  0  0  0  0  # atno 10764 bound_to 10752
  154.8717  135.3894  154.4358 H   0  0  0  0  0  0  0  0  0  0  0  0  # atno 10765 bound_to 10752
  141.0293  133.6827  156.2549 H   0  0  0  0  0  0  0  0  0  0  0  0  # atno 11005 bound_to 11000
  144.6811  140.2562  143.7325 LP  0  0  0  0  0  0  0  0  0  0  0  0  # atno 17320 bound_to 7965
  145.8064  139.1985  143.2018 LP  0  0  0  0  0  0  0  0  0  0  0  0  # atno 17321 bound_to 7965
  139.7653  144.7494  151.0304 LP  0  0  0  0  0  0  0  0  0  0  0  0  # atno 17342 bound_to 10162
  140.7806  143.4705  151.0152 LP  0  0  0  0  0  0  0  0  0  0  0  0  # atno 17343 bound_to 10162
  157.3931  131.0799  151.1376 LP  0  0  0  0  0  0  0  0  0  0  0  0  # atno 17370 bound_to 10713
  157.2061  130.6416  149.5756 LP  0  0  0  0  0  0  0  0  0  0  0  0  # atno 17371 bound_to 10713
  140.6436  134.5140  157.5571 LP  0  0  0  0  0  0  0  0  0  0  0  0  # atno 17394 bound_to 11000
  139.9197  134.8174  156.1252 LP  0  0  0  0  0  0  0  0  0  0  0  0  # atno 17395 bound_to 11000

$$$$
