AV-unprocessed.smi:1978|AV-procd|sdf|7998|dock9
  -GOLD-   2272010183D 1   1.00000     0.00000
 Structure written by MMmdl.
 45 46  0  0  0  0  0  0  0  0  2 V2000
  151.9803  145.4243  160.1568 C   0  0  0  0  0  0  0  0  0  0  0  0
  151.4432  144.2767  159.3725 C   0  0  0  0  0  0  0  0  0  0  0  0
  151.7445  143.7713  158.1390 C   0  0  0  0  0  0  0  0  0  0  0  0
  150.8531  142.6723  158.0177 C   0  0  0  0  0  0  0  0  0  0  0  0
  150.8521  141.8599  156.8552 N   0  0  0  0  0  0  0  0  0  0  0  0
  149.9479  140.9275  156.5103 C   0  0  0  0  0  0  0  0  0  0  0  0
  148.9423  140.6376  157.1590 O   0  0  0  0  0  0  0  0  0  0  0  0
  150.2764  140.3305  155.3554 N   0  0  0  0  0  0  0  0  0  0  0  0
  149.5052  139.2659  154.7184 C   0  0  0  0  0  0  0  0  0  0  0  0
  148.5850  139.7725  153.5692 C   0  0  2  0  0  0  0  0  0  0  0  0
  147.7883  141.0086  154.0626 C   0  0  0  0  0  0  0  0  0  0  0  0
  147.6948  138.6764  153.0473 N   0  3  2  0  0  0  0  0  0  0  0  0
  146.8173  139.0955  151.9111 C   0  0  0  0  0  0  0  0  0  0  0  0
  146.1158  137.8924  151.2589 C   0  0  0  0  0  0  0  0  0  0  0  0
  145.3044  137.0950  152.2817 C   0  0  0  0  0  0  0  0  0  0  0  0
  146.2087  136.6968  153.4530 C   0  0  0  0  0  0  0  0  0  0  0  0
  146.9179  137.9145  154.0829 C   0  0  2  0  0  0  0  0  0  0  0  0
  145.9391  138.7966  154.8917 C   0  0  0  0  0  0  0  0  0  0  0  0
  150.0758  142.5222  159.0791 N   0  0  0  0  0  0  0  0  0  0  0  0
  150.4494  143.5503  159.9526 O   0  0  0  0  0  0  0  0  0  0  0  0
  152.9618  145.7222  159.7875 H   0  0  0  0  0  0  0  0  0  0  0  0
  152.0823  145.1613  161.2100 H   0  0  0  0  0  0  0  0  0  0  0  0
  151.3157  146.2851  160.0848 H   0  0  0  0  0  0  0  0  0  0  0  0
  152.4853  144.1315  157.4407 H   0  0  0  0  0  0  0  0  0  0  0  0
  151.6287  141.9968  156.2252 H   0  0  0  0  0  0  0  0  0  0  0  0
  151.1182  140.6299  154.8852 H   0  0  0  0  0  0  0  0  0  0  0  0
  150.2260  138.5229  154.3834 H   0  0  0  0  0  0  0  0  0  0  0  0
  148.9026  138.7819  155.4877 H   0  0  0  0  0  0  0  0  0  0  0  0
  149.2172  140.0969  152.7414 H   0  0  0  0  0  0  0  0  0  0  0  0
  148.4402  141.7764  154.4782 H   0  0  0  0  0  0  0  0  0  0  0  0
  147.0737  140.7341  154.8391 H   0  0  0  0  0  0  0  0  0  0  0  0
  147.2431  141.5063  153.2623 H   0  0  0  0  0  0  0  0  0  0  0  0
  146.0847  139.8275  152.2519 H   0  0  0  0  0  0  0  0  0  0  0  0
  147.3828  139.5820  151.1221 H   0  0  0  0  0  0  0  0  0  0  0  0
  145.4640  138.2328  150.4534 H   0  0  0  0  0  0  0  0  0  0  0  0
  146.8611  137.2428  150.7981 H   0  0  0  0  0  0  0  0  0  0  0  0
  144.4618  137.6889  152.6365 H   0  0  0  0  0  0  0  0  0  0  0  0
  144.8805  136.2058  151.8143 H   0  0  0  0  0  0  0  0  0  0  0  0
  145.6278  136.1647  154.2074 H   0  0  0  0  0  0  0  0  0  0  0  0
  146.9595  135.9894  153.0974 H   0  0  0  0  0  0  0  0  0  0  0  0
  147.6220  137.4775  154.7893 H   0  0  0  0  0  0  0  0  0  0  0  0
  145.4295  138.2047  155.6525 H   0  0  0  0  0  0  0  0  0  0  0  0
  145.1683  139.2452  154.2663 H   0  0  0  0  0  0  0  0  0  0  0  0
  146.4480  139.6071  155.4118 H   0  0  0  0  0  0  0  0  0  0  0  0
  148.3298  137.9961  152.6550 H   0  0  0  0  0  0  0  0  0  0  0  0
  1  2  1  0  0  0  0
  1 21  1  0  0  0  0
  1 22  1  0  0  0  0
  1 23  1  0  0  0  0
  2 20  1  0  0  0  0
  2  3  2  0  0  0  0
  3  4  1  0  0  0  0
  3 24  1  0  0  0  0
  4  5  1  0  0  0  0
  4 19  2  0  0  0  0
  5  6  1  0  0  0  0
  5 25  1  0  0  0  0
  6  7  2  0  0  0  0
  6  8  1  0  0  0  0
  8  9  1  0  0  0  0
  8 26  1  0  0  0  0
  9 10  1  0  0  0  0
  9 27  1  0  0  0  0
  9 28  1  0  0  0  0
 10 11  1  0  0  0  0
 10 12  1  0  0  0  0
 10 29  1  0  0  0  0
 11 30  1  0  0  0  0
 11 31  1  0  0  0  0
 11 32  1  0  0  0  0
 12 17  1  0  0  0  0
 12 13  1  0  0  0  0
 12 45  1  0  0  0  0
 13 14  1  0  0  0  0
 13 33  1  0  0  0  0
 13 34  1  0  0  0  0
 14 15  1  0  0  0  0
 14 35  1  0  0  0  0
 14 36  1  0  0  0  0
 15 16  1  0  0  0  0
 15 37  1  0  0  0  0
 15 38  1  0  0  0  0
 16 17  1  0  0  0  0
 16 39  1  0  0  0  0
 16 40  1  0  0  0  0
 17 18  1  0  0  0  0
 17 41  1  0  0  0  0
 18 42  1  0  0  0  0
 18 43  1  0  0  0  0
 18 44  1  0  0  0  0
 19 20  1  0  0  0  0
M  CHG  1  12   1
M  END
> <s_m_source_file>
AV-unprocessed.smi

> <i_m_source_file_index>
1978

> <i_lp_mmshare_version>
43012

> <i_f3d_flags>
0

> <s_epik_input>
W0NIM11jMVtjSF1jKG5vMSlbTkhdQyg9TylbTkhdW0NIMl1bQ0BIXShbQ0gzXSlOMltDSDJdW0NIMl1bQ0gyXVtDSDJdW0NASF0yW0NIM10=

> <s_epik_cmdline>
J2VwaWtfcHl0aG9uJywgJy1waCcsICc3LjAnLCAnLXRuJywgJzgnLCAnLW1hJywgJzIwMCcsICctbWV0YWxfYmluZGluZycsICctaW1hZScsICc8aW5maWxlLm1hZT4nLCAnLW9tYWUnLCAnPG91dGZpbGUubWFlPic=

> <r_epik_Ionization_Penalty>
0.00265971

> <r_epik_Ionization_Penalty_Charging>
0.00262393

> <r_epik_Ionization_Penalty_Neutral>
3.57846e-05

> <r_epik_State_Penalty>
0.00182566

> <r_epik_Charging_Adjusted_Penalty>
0.00444959

> <i_epik_Tot_Q>
1

> <i_epik_Tot_abs_Q>
1

> <r_epik_Metal_State_Penalty>
0.0216344

> <b_epik_Metal_Only>
0

> <s_lp_Force_Field>
OPLS_2005

> <r_lp_Energy>
22.9215

> <b_lp_Chiralities_Consistent>
1

> <s_lp_Variant>
AV-unprocessed.smi:1978-7

> <Gold.Version>
5.8.1

> <Gold.Id.Protein>
6NUR|6NUR_protein|mol2

> <Gold.PLP.Fitness>
39.2847

> <Gold.PLP.PLP>
-33.7754

> <Gold.PLP.part.hbond>
-2.9827

> <Gold.PLP.part.metal>
0.0000

> <Gold.PLP.part.buried>
3.2710

> <Gold.PLP.part.nonpolar>
-35.0201

> <Gold.PLP.part.repulsive>
0.4875

> <Gold.PLP.ligand.clash>
0.0011

> <Gold.PLP.ligand.torsion>
0.2832

> <Gold.PLP.Chemscore.Hbond>
2.0000

> <Gold.PLP.Chemscore.CHOScore>
0.0000

> <Gold.PLP.Chemscore.Metal>
0.0000

> <Gold.Chemscore.Hbonds>
donor molecule, donor type, donor heavy atom, donor atom, acceptor molecule, acceptor atom, score
      L1  H    12    45       P1  7948  2.00

> <Gold.PLP.Chemscore.Internal.Correction>
0.0768

> <Gold.Rescore>
     Score         DG    S(hbond)    S(metal)    S(lipo)     H(rot)  DE(clash)    DE(int)     intcor
     11.82     -13.49       0.98        0.00      74.32       1.55       0.07       1.61       ----

> <Gold.Chemscore.Fitness>
11.8170

> <Gold.Chemscore.DG>
-13.4937

> <Gold.Chemscore.ZeroCoef>
-5.4800

> <Gold.Chemscore.Hbond>
0.9819

> <Gold.Chemscore.Metal>
0.0000

> <Gold.Chemscore.Lipo>
74.3204

> <Gold.Chemscore.Internal_Hbond>
0.0000

> <Gold.Chemscore.DEClash>
0.0712

> <Gold.Chemscore.DEInternal>
1.6055

> <Gold.Chemscore.Rot>
1.5474

> <Gold.Chemscore.Internal.Correction>
   9.000000E+99

> <Gold.Chemscore.Hbonds>
donor molecule, donor type, donor heavy atom, donor atom, acceptor molecule, acceptor atom, score
      L1  H    12    45       P1  7948  0.95

> <Gold.Chemscore.Hbond.Weighted>
-3.2795

> <Gold.Chemscore.Metal.Weighted>
-0.0000

> <Gold.Chemscore.Lipo.Weighted>
-8.6955

> <Gold.Chemscore.Internal_Hbond.Weighted>
0.0000

> <Gold.Chemscore.DEClash.Weighted>
0.0712

> <Gold.Chemscore.DEInternal.Weighted>
1.6055

> <Gold.Chemscore.Rot.Weighted>
3.9612

> <Gold.Chemscore.Internal.Correction.Weighted>
   9.000000E+99

> <Gold.Protein.RotatedTorsions>
[ 6907 6896 6895 6894 ] final -115.95 input  -60.11 | X-H torsion
[ 7974 7965 7964 7962 ] final   44.87 input  175.53 | X-H torsion
[ 8008 7997 7996 7995 ] final -130.74 input   59.86 | X-H torsion
[ 10167 10162 10161 10158 ] final  -14.53 input  -65.29 | X-H torsion
[ 10718 10713 10712 10709 ] final -143.50 input   66.30 | X-H torsion
[ 10763 10752 10751 10750 ] final  127.76 input  -60.55 | X-H torsion
[ 11005 11000 10999 10996 ] final  -84.94 input  -57.11 | X-H torsion

> <Gold.Protein.ActiveResidues>
 VAL166  LYS551  ARG553  GLY616  TRP617  ASP618  TYR619  PRO620  LYS621  CYS622 
 ASP623  PHE694  ASN695  SER759  ASP760  ASP761  ALA762  ILE779  LEU786  VAL792 
 PHE793  MET794  SER795  GLU796  ALA797  LYS798  CYS799  TRP800  GLU811  SER814 

> <Gold.Protein.RotatedAtoms>
  150.8018  133.8586  159.3225 H   0  0  0  0  0  0  0  0  0  0  0  0  # atno 6907 bound_to 6896
  151.6396  135.1012  160.0148 H   0  0  0  0  0  0  0  0  0  0  0  0  # atno 6908 bound_to 6896
  152.4105  133.6917  159.6429 H   0  0  0  0  0  0  0  0  0  0  0  0  # atno 6909 bound_to 6896
  146.0531  139.5027  142.9706 H   0  0  0  0  0  0  0  0  0  0  0  0  # atno 7974 bound_to 7965
  155.3007  140.0452  157.3029 H   0  0  0  0  0  0  0  0  0  0  0  0  # atno 8008 bound_to 7997
  154.5488  140.2311  155.8486 H   0  0  0  0  0  0  0  0  0  0  0  0  # atno 8009 bound_to 7997
  156.1948  140.3041  155.9412 H   0  0  0  0  0  0  0  0  0  0  0  0  # atno 8010 bound_to 7997
  140.7203  143.5312  150.9517 H   0  0  0  0  0  0  0  0  0  0  0  0  # atno 10167 bound_to 10162
  156.3587  130.7727  151.1891 H   0  0  0  0  0  0  0  0  0  0  0  0  # atno 10718 bound_to 10713
  153.7146  135.3263  155.3253 H   0  0  0  0  0  0  0  0  0  0  0  0  # atno 10763 bound_to 10752
  154.8375  135.4485  154.1279 H   0  0  0  0  0  0  0  0  0  0  0  0  # atno 10764 bound_to 10752
  153.2383  135.6968  153.7891 H   0  0  0  0  0  0  0  0  0  0  0  0  # atno 10765 bound_to 10752
  141.1646  133.7372  156.8941 H   0  0  0  0  0  0  0  0  0  0  0  0  # atno 11005 bound_to 11000
  145.6691  141.0221  143.1667 LP  0  0  0  0  0  0  0  0  0  0  0  0  # atno 17320 bound_to 7965
  144.7133  139.8289  143.7407 LP  0  0  0  0  0  0  0  0  0  0  0  0  # atno 17321 bound_to 7965
  139.9033  143.6809  152.3128 LP  0  0  0  0  0  0  0  0  0  0  0  0  # atno 17342 bound_to 10162
  139.7167  144.7610  151.1023 LP  0  0  0  0  0  0  0  0  0  0  0  0  # atno 17343 bound_to 10162
  157.7471  131.0406  150.4607 LP  0  0  0  0  0  0  0  0  0  0  0  0  # atno 17370 bound_to 10713
  156.4814  130.4074  149.6459 LP  0  0  0  0  0  0  0  0  0  0  0  0  # atno 17371 bound_to 10713
  140.1628  134.9154  157.2736 LP  0  0  0  0  0  0  0  0  0  0  0  0  # atno 17394 bound_to 11000
  140.2591  134.3592  155.7413 LP  0  0  0  0  0  0  0  0  0  0  0  0  # atno 17395 bound_to 11000

$$$$
