AV-unprocessed.smi:1967|AV-procd|sdf|7954|dock8
  -GOLD-   2272010123D 1   1.00000     0.00000
 Structure written by MMmdl.
 37 38  0  0  0  0  0  0  0  0  1 V2000
  153.2020  136.6140  160.1279 O   0  0  0  0  0  0  0  0  0  0  0  0
  154.6634  136.6960  160.2734 S   0  0  0  0  0  0  0  0  0  0  0  0
  155.5574  136.2510  159.1932 O   0  0  0  0  0  0  0  0  0  0  0  0
  155.0858  138.3161  160.6758 N   0  0  0  0  0  0  0  0  0  0  0  0
  154.0241  139.3196  160.7334 C   0  0  0  0  0  0  0  0  0  0  0  0
  154.5860  140.6893  161.1462 C   0  0  0  0  0  0  0  0  0  0  0  0
  153.6175  141.8326  160.8964 C   0  0  0  0  0  0  0  0  0  0  0  0
  153.1991  142.6683  161.9543 C   0  0  0  0  0  0  0  0  0  0  0  0
  152.3066  143.7193  161.6667 C   0  0  0  0  0  0  0  0  0  0  0  0
  151.8688  143.8929  160.3396 C   0  0  0  0  0  0  0  0  0  0  0  0
  152.3458  143.0051  159.3548 C   0  0  0  0  0  0  0  0  0  0  0  0
  153.2026  141.9952  159.6197 N   0  0  0  0  0  0  0  0  0  0  0  0
  155.1195  135.9052  161.7466 N   0  0  0  0  0  0  0  0  0  0  0  0
  154.6120  136.4836  163.0098 C   0  0  0  0  0  0  0  0  0  0  0  0
  155.3533  135.9181  164.2325 C   0  0  0  0  0  0  0  0  0  0  0  0
  155.3006  134.3885  164.2532 C   0  0  0  0  0  0  0  0  0  0  0  0
  155.8768  133.8494  162.9415 C   0  0  0  0  0  0  0  0  0  0  0  0
  155.1335  134.4284  161.7260 C   0  0  0  0  0  0  0  0  0  0  0  0
  155.9010  138.6368  160.1536 H   0  0  0  0  0  0  0  0  0  0  0  0
  153.5329  139.3815  159.7617 H   0  0  0  0  0  0  0  0  0  0  0  0
  153.2722  138.9952  161.4533 H   0  0  0  0  0  0  0  0  0  0  0  0
  154.8385  140.6726  162.2073 H   0  0  0  0  0  0  0  0  0  0  0  0
  155.5208  140.8823  160.6180 H   0  0  0  0  0  0  0  0  0  0  0  0
  153.5557  142.5111  162.9618 H   0  0  0  0  0  0  0  0  0  0  0  0
  151.9650  144.3804  162.4495 H   0  0  0  0  0  0  0  0  0  0  0  0
  151.1838  144.6870  160.0815 H   0  0  0  0  0  0  0  0  0  0  0  0
  152.0306  143.1088  158.3271 H   0  0  0  0  0  0  0  0  0  0  0  0
  154.7192  137.5676  162.9943 H   0  0  0  0  0  0  0  0  0  0  0  0
  153.5440  136.2762  163.0878 H   0  0  0  0  0  0  0  0  0  0  0  0
  156.3923  136.2501  164.2163 H   0  0  0  0  0  0  0  0  0  0  0  0
  154.9155  136.3172  165.1479 H   0  0  0  0  0  0  0  0  0  0  0  0
  155.8644  134.0015  165.1024 H   0  0  0  0  0  0  0  0  0  0  0  0
  154.2706  134.0513  164.3767 H   0  0  0  0  0  0  0  0  0  0  0  0
  156.9362  134.1015  162.8750 H   0  0  0  0  0  0  0  0  0  0  0  0
  155.8170  132.7608  162.9285 H   0  0  0  0  0  0  0  0  0  0  0  0
  154.1050  134.0656  161.7009 H   0  0  0  0  0  0  0  0  0  0  0  0
  155.6135  134.0791  160.8118 H   0  0  0  0  0  0  0  0  0  0  0  0
  1  2  2  0  0  0  0
  2  3  2  0  0  0  0
  2  4  1  0  0  0  0
  2 13  1  0  0  0  0
  4  5  1  0  0  0  0
  4 19  1  0  0  0  0
  5  6  1  0  0  0  0
  5 20  1  0  0  0  0
  5 21  1  0  0  0  0
  6  7  1  0  0  0  0
  6 22  1  0  0  0  0
  6 23  1  0  0  0  0
  7 12  1  0  0  0  0
  7  8  2  0  0  0  0
  8  9  1  0  0  0  0
  8 24  1  0  0  0  0
  9 10  2  0  0  0  0
  9 25  1  0  0  0  0
 10 11  1  0  0  0  0
 10 26  1  0  0  0  0
 11 12  2  0  0  0  0
 11 27  1  0  0  0  0
 13 18  1  0  0  0  0
 13 14  1  0  0  0  0
 14 15  1  0  0  0  0
 14 28  1  0  0  0  0
 14 29  1  0  0  0  0
 15 16  1  0  0  0  0
 15 30  1  0  0  0  0
 15 31  1  0  0  0  0
 16 17  1  0  0  0  0
 16 32  1  0  0  0  0
 16 33  1  0  0  0  0
 17 18  1  0  0  0  0
 17 34  1  0  0  0  0
 17 35  1  0  0  0  0
 18 36  1  0  0  0  0
 18 37  1  0  0  0  0
M  END
> <s_m_source_file>
AV-unprocessed.smi

> <i_m_source_file_index>
1967

> <i_lp_mmshare_version>
43012

> <i_f3d_flags>
0

> <s_epik_input>
W0NIMl0xW0NIMl1bQ0gyXVtDSDJdW0NIMl1OMVMoPU8pKD1PKVtOSF1bQ0gyXVtDSDJdYzJbY0hdW2NIXVtjSF1bY0hdbjI=

> <s_epik_cmdline>
J2VwaWtfcHl0aG9uJywgJy1waCcsICc3LjAnLCAnLXRuJywgJzgnLCAnLW1hJywgJzIwMCcsICctbWV0YWxfYmluZGluZycsICctaW1hZScsICc8aW5maWxlLm1hZT4nLCAnLW9tYWUnLCAnPG91dGZpbGUubWFlPic=

> <r_epik_Ionization_Penalty>
0.0252758

> <r_epik_Ionization_Penalty_Charging>
0

> <r_epik_Ionization_Penalty_Neutral>
0.0252758

> <r_epik_State_Penalty>
0.0138562

> <r_epik_Charging_Adjusted_Penalty>
0.0138562

> <i_epik_Tot_Q>
0

> <i_epik_Tot_abs_Q>
0

> <r_epik_Metal_State_Penalty>
0.204365

> <b_epik_Metal_Only>
0

> <s_lp_Force_Field>
OPLS_2005

> <r_lp_Energy>
9.86341

> <b_lp_Chiralities_Consistent>
1

> <s_lp_Variant>
AV-unprocessed.smi:1967-1

> <Gold.Version>
5.8.1

> <Gold.Id.Protein>
6NUR|6NUR_protein|mol2

> <Gold.PLP.Fitness>
41.9603

> <Gold.PLP.PLP>
-39.0731

> <Gold.PLP.part.hbond>
-0.9942

> <Gold.PLP.part.metal>
0.0000

> <Gold.PLP.part.buried>
-3.6666

> <Gold.PLP.part.nonpolar>
-34.9576

> <Gold.PLP.part.repulsive>
0.0000

> <Gold.PLP.ligand.clash>
0.0000

> <Gold.PLP.ligand.torsion>
0.4361

> <Gold.PLP.Chemscore.Hbond>
1.0000

> <Gold.PLP.Chemscore.CHOScore>
0.0000

> <Gold.PLP.Chemscore.Metal>
0.0000

> <Gold.Chemscore.Hbonds>
donor molecule, donor type, donor heavy atom, donor atom, acceptor molecule, acceptor atom, score
      P1  H  6896  6907       L1     1  1.00

> <Gold.PLP.Chemscore.Internal.Correction>
0.7593

> <Gold.Rescore>
     Score         DG    S(hbond)    S(metal)    S(lipo)     H(rot)  DE(clash)    DE(int)     intcor
     16.89     -17.45       1.00        0.00     110.83       1.69       0.10       0.46       ----

> <Gold.Chemscore.Fitness>
16.8930

> <Gold.Chemscore.DG>
-17.4500

> <Gold.Chemscore.ZeroCoef>
-5.4800

> <Gold.Chemscore.Hbond>
0.9960

> <Gold.Chemscore.Metal>
0.0000

> <Gold.Chemscore.Lipo>
110.8328

> <Gold.Chemscore.Internal_Hbond>
0.0000

> <Gold.Chemscore.DEClash>
0.1007

> <Gold.Chemscore.DEInternal>
0.4563

> <Gold.Chemscore.Rot>
1.6891

> <Gold.Chemscore.Internal.Correction>
   9.000000E+99

> <Gold.Chemscore.Hbonds>
donor molecule, donor type, donor heavy atom, donor atom, acceptor molecule, acceptor atom, score
      P1  H  6896  6907       L1     1  0.99

> <Gold.Chemscore.Hbond.Weighted>
-3.3266

> <Gold.Chemscore.Metal.Weighted>
-0.0000

> <Gold.Chemscore.Lipo.Weighted>
-12.9674

> <Gold.Chemscore.Internal_Hbond.Weighted>
0.0000

> <Gold.Chemscore.DEClash.Weighted>
0.1007

> <Gold.Chemscore.DEInternal.Weighted>
0.4563

> <Gold.Chemscore.Rot.Weighted>
4.3241

> <Gold.Chemscore.Internal.Correction.Weighted>
   9.000000E+99

> <Gold.Protein.RotatedTorsions>
[ 6907 6896 6895 6894 ] final   37.75 input  -60.11 | X-H torsion
[ 7974 7965 7964 7962 ] final -150.83 input  175.53 | X-H torsion
[ 8008 7997 7996 7995 ] final   -8.59 input   59.86 | X-H torsion
[ 10167 10162 10161 10158 ] final -129.72 input  -65.29 | X-H torsion
[ 10718 10713 10712 10709 ] final   91.57 input   66.30 | X-H torsion
[ 10763 10752 10751 10750 ] final -142.48 input  -60.55 | X-H torsion
[ 11005 11000 10999 10996 ] final  -38.59 input  -57.11 | X-H torsion

> <Gold.Protein.ActiveResidues>
 VAL166  LYS551  ARG553  GLY616  TRP617  ASP618  TYR619  PRO620  LYS621  CYS622 
 ASP623  PHE694  ASN695  SER759  ASP760  ASP761  ALA762  ILE779  LEU786  VAL792 
 PHE793  MET794  SER795  GLU796  ALA797  LYS798  CYS799  TRP800  GLU811  SER814 

> <Gold.Protein.RotatedAtoms>
  152.1473  134.9015  160.0549 H   0  0  0  0  0  0  0  0  0  0  0  0  # atno 6907 bound_to 6896
  152.0060  133.3838  159.4209 H   0  0  0  0  0  0  0  0  0  0  0  0  # atno 6908 bound_to 6896
  150.6871  134.3704  159.5033 H   0  0  0  0  0  0  0  0  0  0  0  0  # atno 6909 bound_to 6896
  144.7884  140.4879  143.5790 H   0  0  0  0  0  0  0  0  0  0  0  0  # atno 7974 bound_to 7965
  154.5727  140.2377  155.8168 H   0  0  0  0  0  0  0  0  0  0  0  0  # atno 8008 bound_to 7997
  156.2119  140.3023  155.9710 H   0  0  0  0  0  0  0  0  0  0  0  0  # atno 8009 bound_to 7997
  155.2683  140.0417  157.2995 H   0  0  0  0  0  0  0  0  0  0  0  0  # atno 8010 bound_to 7997
  139.9368  143.6208  152.2514 H   0  0  0  0  0  0  0  0  0  0  0  0  # atno 10167 bound_to 10162
  157.6960  131.0412  150.3749 H   0  0  0  0  0  0  0  0  0  0  0  0  # atno 10718 bound_to 10713
  154.8507  135.3495  154.6035 H   0  0  0  0  0  0  0  0  0  0  0  0  # atno 10763 bound_to 10752
  153.6643  135.6988  153.5172 H   0  0  0  0  0  0  0  0  0  0  0  0  # atno 10764 bound_to 10752
  153.2792  135.4268  155.1020 H   0  0  0  0  0  0  0  0  0  0  0  0  # atno 10765 bound_to 10752
  141.0039  133.6941  156.2074 H   0  0  0  0  0  0  0  0  0  0  0  0  # atno 11005 bound_to 11000
  145.5859  139.1492  143.3209 LP  0  0  0  0  0  0  0  0  0  0  0  0  # atno 17320 bound_to 7965
  146.2126  140.5987  142.9052 LP  0  0  0  0  0  0  0  0  0  0  0  0  # atno 17321 bound_to 7965
  139.6737  144.7659  151.1736 LP  0  0  0  0  0  0  0  0  0  0  0  0  # atno 17342 bound_to 10162
  140.7622  143.5827  150.8878 LP  0  0  0  0  0  0  0  0  0  0  0  0  # atno 17343 bound_to 10162
  156.4170  130.3945  149.6851 LP  0  0  0  0  0  0  0  0  0  0  0  0  # atno 17370 bound_to 10713
  156.4116  130.7724  151.2738 LP  0  0  0  0  0  0  0  0  0  0  0  0  # atno 17371 bound_to 10713
  140.6844  134.4732  157.5589 LP  0  0  0  0  0  0  0  0  0  0  0  0  # atno 17394 bound_to 11000
  139.9053  134.8463  156.1731 LP  0  0  0  0  0  0  0  0  0  0  0  0  # atno 17395 bound_to 11000

$$$$
