AV-unprocessed.smi:1470|AV-procd|sdf|5960|dock2
  -GOLD-   22720 6 43D 1   1.00000     0.00000
 Structure written by MMmdl.
 42 43  0  0  0  0  0  0  0  0  1 V2000
  146.8637  133.1137  151.3612 C   0  0  0  0  0  0  0  0  0  0  0  0
  147.1930  133.1791  152.7371 O   0  0  0  0  0  0  0  0  0  0  0  0
  148.4917  132.6810  153.0129 C   0  0  0  0  0  0  0  0  0  0  0  0
  149.0475  133.3476  154.2804 C   0  0  0  0  0  0  0  0  0  0  0  0
  149.3171  134.7663  154.0717 N   0  0  0  0  0  0  0  0  0  0  0  0
  149.7903  135.6072  155.0024 C   0  0  0  0  0  0  0  0  0  0  0  0
  150.0735  135.2635  156.1498 O   0  0  0  0  0  0  0  0  0  0  0  0
  149.9319  136.8491  154.5085 N   0  0  0  0  0  0  0  0  0  0  0  0
  150.3418  138.0235  155.1945 C   0  0  0  0  0  0  0  0  0  0  0  0
  150.7010  137.9130  156.5514 C   0  0  0  0  0  0  0  0  0  0  0  0
  151.1336  139.0596  157.2441 C   0  0  0  0  0  0  0  0  0  0  0  0
  151.2067  140.2942  156.5572 C   0  0  0  0  0  0  0  0  0  0  0  0
  151.6384  141.4572  157.2317 N   0  0  0  0  0  0  0  0  0  0  0  0
  150.8458  142.6777  157.0582 C   0  0  0  0  0  0  0  0  0  0  0  0
  151.6279  143.9198  157.5179 C   0  0  0  0  0  0  0  0  0  0  0  0
  152.1407  143.7482  158.9550 C   0  0  0  0  0  0  0  0  0  0  0  0
  152.9686  142.4594  159.0657 C   0  0  0  0  0  0  0  0  0  0  0  0
  152.1640  141.2410  158.5814 C   0  0  0  0  0  0  0  0  0  0  0  0
  150.8797  140.3953  155.2455 N   0  0  0  0  0  0  0  0  0  0  0  0
  150.4620  139.2947  154.5854 C   0  0  0  0  0  0  0  0  0  0  0  0
  145.8598  133.5088  151.2067 H   0  0  0  0  0  0  0  0  0  0  0  0
  146.8801  132.0846  151.0001 H   0  0  0  0  0  0  0  0  0  0  0  0
  147.5552  133.7071  150.7616 H   0  0  0  0  0  0  0  0  0  0  0  0
  148.4380  131.6019  153.1651 H   0  0  0  0  0  0  0  0  0  0  0  0
  149.1585  132.8571  152.1670 H   0  0  0  0  0  0  0  0  0  0  0  0
  148.3742  133.1935  155.1254 H   0  0  0  0  0  0  0  0  0  0  0  0
  149.9913  132.8737  154.5505 H   0  0  0  0  0  0  0  0  0  0  0  0
  149.1188  135.1360  153.1536 H   0  0  0  0  0  0  0  0  0  0  0  0
  149.7616  136.9594  153.5198 H   0  0  0  0  0  0  0  0  0  0  0  0
  150.6463  136.9617  157.0604 H   0  0  0  0  0  0  0  0  0  0  0  0
  151.4182  138.9772  158.2825 H   0  0  0  0  0  0  0  0  0  0  0  0
  150.5691  142.8011  156.0102 H   0  0  0  0  0  0  0  0  0  0  0  0
  149.9203  142.5874  157.6288 H   0  0  0  0  0  0  0  0  0  0  0  0
  152.4718  144.0878  156.8474 H   0  0  0  0  0  0  0  0  0  0  0  0
  150.9953  144.8050  157.4479 H   0  0  0  0  0  0  0  0  0  0  0  0
  152.7421  144.6097  159.2473 H   0  0  0  0  0  0  0  0  0  0  0  0
  151.2973  143.7052  159.6451 H   0  0  0  0  0  0  0  0  0  0  0  0
  153.8765  142.5565  158.4688 H   0  0  0  0  0  0  0  0  0  0  0  0
  153.2900  142.3085  160.0964 H   0  0  0  0  0  0  0  0  0  0  0  0
  151.3252  141.0598  159.2547 H   0  0  0  0  0  0  0  0  0  0  0  0
  152.7983  140.3570  158.6313 H   0  0  0  0  0  0  0  0  0  0  0  0
  150.2465  139.4493  153.5396 H   0  0  0  0  0  0  0  0  0  0  0  0
  1  2  1  0  0  0  0
  1 21  1  0  0  0  0
  1 22  1  0  0  0  0
  1 23  1  0  0  0  0
  2  3  1  0  0  0  0
  3  4  1  0  0  0  0
  3 24  1  0  0  0  0
  3 25  1  0  0  0  0
  4  5  1  0  0  0  0
  4 26  1  0  0  0  0
  4 27  1  0  0  0  0
  5  6  1  0  0  0  0
  5 28  1  0  0  0  0
  6  7  2  0  0  0  0
  6  8  1  0  0  0  0
  8  9  1  0  0  0  0
  8 29  1  0  0  0  0
  9 20  1  0  0  0  0
  9 10  2  0  0  0  0
 10 11  1  0  0  0  0
 10 30  1  0  0  0  0
 11 12  2  0  0  0  0
 11 31  1  0  0  0  0
 12 13  1  0  0  0  0
 12 19  1  0  0  0  0
 13 18  1  0  0  0  0
 13 14  1  0  0  0  0
 14 15  1  0  0  0  0
 14 32  1  0  0  0  0
 14 33  1  0  0  0  0
 15 16  1  0  0  0  0
 15 34  1  0  0  0  0
 15 35  1  0  0  0  0
 16 17  1  0  0  0  0
 16 36  1  0  0  0  0
 16 37  1  0  0  0  0
 17 18  1  0  0  0  0
 17 38  1  0  0  0  0
 17 39  1  0  0  0  0
 18 40  1  0  0  0  0
 18 41  1  0  0  0  0
 19 20  2  0  0  0  0
 20 42  1  0  0  0  0
M  END
> <s_m_source_file>
AV-unprocessed.smi

> <i_m_source_file_index>
1470

> <i_lp_mmshare_version>
43012

> <i_f3d_flags>
0

> <s_epik_input>
W0NIM11PW0NIMl1bQ0gyXVtOSF1DKD1PKVtOSF1jMVtjSF1bY0hdYyhuW2NIXTEpTjJbQ0gyXVtDSDJdW0NIMl1bQ0gyXVtDSDJdMg==

> <s_epik_cmdline>
J2VwaWtfcHl0aG9uJywgJy1waCcsICc3LjAnLCAnLXRuJywgJzgnLCAnLW1hJywgJzIwMCcsICctbWV0YWxfYmluZGluZycsICctaW1hZScsICc8aW5maWxlLm1hZT4nLCAnLW9tYWUnLCAnPG91dGZpbGUubWFlPic=

> <r_lp_tautomer_probability>
1

> <r_epik_Ionization_Penalty>
0.104129

> <r_epik_Ionization_Penalty_Charging>
0

> <r_epik_Ionization_Penalty_Neutral>
0.104129

> <r_epik_State_Penalty>
0.0879167

> <r_epik_Charging_Adjusted_Penalty>
0.0879167

> <i_epik_Tot_Q>
0

> <i_epik_Tot_abs_Q>
0

> <r_epik_Metal_State_Penalty>
0.0753231

> <b_epik_Metal_Only>
0

> <s_lp_Force_Field>
OPLS_2005

> <r_lp_Energy>
19.434

> <b_lp_Chiralities_Consistent>
1

> <s_lp_Variant>
AV-unprocessed.smi:1470-1

> <Gold.Version>
5.8.1

> <Gold.Id.Protein>
6NUR|6NUR_protein|mol2

> <Gold.PLP.Fitness>
44.4281

> <Gold.PLP.PLP>
-35.2298

> <Gold.PLP.part.hbond>
-3.0000

> <Gold.PLP.part.metal>
0.0000

> <Gold.PLP.part.buried>
-2.0976

> <Gold.PLP.part.nonpolar>
-30.7205

> <Gold.PLP.part.repulsive>
0.2703

> <Gold.PLP.ligand.clash>
0.0000

> <Gold.PLP.ligand.torsion>
0.3877

> <Gold.PLP.Chemscore.Hbond>
2.1760

> <Gold.PLP.Chemscore.CHOScore>
1.0000

> <Gold.PLP.Chemscore.Metal>
0.0000

> <Gold.Chemscore.Hbonds>
donor molecule, donor type, donor heavy atom, donor atom, acceptor molecule, acceptor atom, score
      L1  H     5    28       P1  7948  0.85
      L1  H     8    29       P1  7948  0.98
      P1  H  7989  7998       L1    19  0.20
      L1  C    20    42       P1  7957  1.00

> <Gold.PLP.Chemscore.Internal.Correction>
0.4456

> <Gold.Rescore>
     Score         DG    S(hbond)    S(metal)    S(lipo)     H(rot)  DE(clash)    DE(int)     intcor
     15.44     -17.44       1.83        0.00      85.23       1.61       0.04       1.97       ----

> <Gold.Chemscore.Fitness>
15.4379

> <Gold.Chemscore.DG>
-17.4450

> <Gold.Chemscore.ZeroCoef>
-5.4800

> <Gold.Chemscore.Hbond>
1.8297

> <Gold.Chemscore.Metal>
0.0000

> <Gold.Chemscore.Lipo>
85.2292

> <Gold.Chemscore.Internal_Hbond>
0.0000

> <Gold.Chemscore.DEClash>
0.0368

> <Gold.Chemscore.DEInternal>
1.9702

> <Gold.Chemscore.Rot>
1.6086

> <Gold.Chemscore.Internal.Correction>
   9.000000E+99

> <Gold.Chemscore.Hbonds>
donor molecule, donor type, donor heavy atom, donor atom, acceptor molecule, acceptor atom, score
      L1  H     5    28       P1  7948  0.15
      L1  H     8    29       P1  7948  0.51

> <Gold.Chemscore.Hbond.Weighted>
-6.1111

> <Gold.Chemscore.Metal.Weighted>
-0.0000

> <Gold.Chemscore.Lipo.Weighted>
-9.9718

> <Gold.Chemscore.Internal_Hbond.Weighted>
0.0000

> <Gold.Chemscore.DEClash.Weighted>
0.0368

> <Gold.Chemscore.DEInternal.Weighted>
1.9702

> <Gold.Chemscore.Rot.Weighted>
4.1179

> <Gold.Chemscore.Internal.Correction.Weighted>
   9.000000E+99

> <Gold.Protein.RotatedTorsions>
[ 6907 6896 6895 6894 ] final   42.00 input  -60.11 | X-H torsion
[ 7974 7965 7964 7962 ] final  -99.39 input  175.53 | X-H torsion
[ 8008 7997 7996 7995 ] final  130.62 input   59.86 | X-H torsion
[ 10167 10162 10161 10158 ] final  116.40 input  -65.29 | X-H torsion
[ 10718 10713 10712 10709 ] final  -46.31 input   66.30 | X-H torsion
[ 10763 10752 10751 10750 ] final  151.15 input  -60.55 | X-H torsion
[ 11005 11000 10999 10996 ] final  152.99 input  -57.11 | X-H torsion

> <Gold.Protein.ActiveResidues>
 VAL166  LYS551  ARG553  GLY616  TRP617  ASP618  TYR619  PRO620  LYS621  CYS622 
 ASP623  PHE694  ASN695  SER759  ASP760  ASP761  ALA762  ILE779  LEU786  VAL792 
 PHE793  MET794  SER795  GLU796  ALA797  LYS798  CYS799  TRP800  GLU811  SER814 

> <Gold.Protein.RotatedAtoms>
  152.2024  134.8576  160.0506 H   0  0  0  0  0  0  0  0  0  0  0  0  # atno 6907 bound_to 6896
  151.9425  133.3637  159.3978 H   0  0  0  0  0  0  0  0  0  0  0  0  # atno 6908 bound_to 6896
  150.6957  134.4349  159.5309 H   0  0  0  0  0  0  0  0  0  0  0  0  # atno 6909 bound_to 6896
  145.3082  140.9394  143.2784 H   0  0  0  0  0  0  0  0  0  0  0  0  # atno 7974 bound_to 7965
  156.2957  140.2591  156.2791 H   0  0  0  0  0  0  0  0  0  0  0  0  # atno 8008 bound_to 7997
  154.9619  140.0392  157.2212 H   0  0  0  0  0  0  0  0  0  0  0  0  # atno 8009 bound_to 7997
  154.7939  140.2816  155.5976 H   0  0  0  0  0  0  0  0  0  0  0  0  # atno 8010 bound_to 7997
  139.6250  144.7107  151.2553 H   0  0  0  0  0  0  0  0  0  0  0  0  # atno 10167 bound_to 10162
  156.2196  130.4165  149.9010 H   0  0  0  0  0  0  0  0  0  0  0  0  # atno 10718 bound_to 10713
  154.0991  135.2847  155.3255 H   0  0  0  0  0  0  0  0  0  0  0  0  # atno 10763 bound_to 10752
  154.6568  135.5349  153.7972 H   0  0  0  0  0  0  0  0  0  0  0  0  # atno 10764 bound_to 10752
  153.0385  135.6524  154.1155 H   0  0  0  0  0  0  0  0  0  0  0  0  # atno 10765 bound_to 10752
  140.1358  134.8772  157.2265 H   0  0  0  0  0  0  0  0  0  0  0  0  # atno 11005 bound_to 11000
  144.9037  139.4616  143.6620 LP  0  0  0  0  0  0  0  0  0  0  0  0  # atno 17320 bound_to 7965
  146.3127  139.7806  142.9007 LP  0  0  0  0  0  0  0  0  0  0  0  0  # atno 17321 bound_to 7965
  140.7405  143.6585  150.8185 LP  0  0  0  0  0  0  0  0  0  0  0  0  # atno 17342 bound_to 10162
  140.0202  143.5551  152.2804 LP  0  0  0  0  0  0  0  0  0  0  0  0  # atno 17343 bound_to 10162
  156.6661  130.8801  151.3555 LP  0  0  0  0  0  0  0  0  0  0  0  0  # atno 17370 bound_to 10713
  157.7081  130.9408  150.0996 LP  0  0  0  0  0  0  0  0  0  0  0  0  # atno 17371 bound_to 10713
  140.2785  134.3378  155.7350 LP  0  0  0  0  0  0  0  0  0  0  0  0  # atno 17394 bound_to 11000
  141.2178  133.7464  156.9328 LP  0  0  0  0  0  0  0  0  0  0  0  0  # atno 17395 bound_to 11000

$$$$
