AV-unprocessed.smi:1342|AV-procd|sdf|5507|dock2
  -GOLD-   22720 5 93D 1   1.00000     0.00000
 Structure written by MMmdl.
 37 37  0  0  0  0  0  0  0  0  1 V2000
  152.6708  138.0468  154.5488 C   0  0  0  0  0  0  0  0  0  0  0  0
  151.1379  138.0458  154.4740 C   0  0  0  0  0  0  0  0  0  0  0  0
  150.5986  136.6915  154.5080 N   0  0  0  0  0  0  0  0  0  0  0  0
  151.0638  135.6975  155.2794 C   0  0  0  0  0  0  0  0  0  0  0  0
  151.9992  135.8382  156.0693 O   0  0  0  0  0  0  0  0  0  0  0  0
  150.3497  134.3463  155.1509 C   0  0  0  0  0  0  0  0  0  0  0  0
  149.3042  134.3901  154.1342 N   0  0  0  0  0  0  0  0  0  0  0  0
  148.2440  133.5668  154.0819 C   0  0  0  0  0  0  0  0  0  0  0  0
  148.1073  132.5905  154.8193 O   0  0  0  0  0  0  0  0  0  0  0  0
  147.1594  133.9110  153.0568 C   0  0  0  0  0  0  0  0  0  0  0  0
  146.5356  132.6546  152.5134 C   0  0  0  0  0  0  0  0  0  0  0  0
  145.4092  132.5660  151.7335 C   0  0  0  0  0  0  0  0  0  0  0  0
  144.9957  130.9122  151.3726 S   0  0  0  0  0  0  0  0  0  0  0  0
  146.3946  130.3890  152.3036 C   0  0  0  0  0  0  0  0  0  0  0  0
  146.7503  128.9519  152.5189 C   0  0  0  0  0  0  0  0  0  0  0  0
  147.9117  128.7928  153.5116 C   0  0  0  0  0  0  0  0  0  0  0  0
  146.9828  128.2091  151.1954 C   0  0  0  0  0  0  0  0  0  0  0  0
  147.0968  131.4068  152.8080 N   0  0  0  0  0  0  0  0  0  0  0  0
  153.0598  139.0632  154.4884 H   0  0  0  0  0  0  0  0  0  0  0  0
  153.1062  137.4749  153.7289 H   0  0  0  0  0  0  0  0  0  0  0  0
  153.0246  137.6134  155.4849 H   0  0  0  0  0  0  0  0  0  0  0  0
  150.7176  138.6402  155.2867 H   0  0  0  0  0  0  0  0  0  0  0  0
  150.8152  138.5172  153.5456 H   0  0  0  0  0  0  0  0  0  0  0  0
  149.8235  136.4922  153.8921 H   0  0  0  0  0  0  0  0  0  0  0  0
  151.0817  133.5919  154.8624 H   0  0  0  0  0  0  0  0  0  0  0  0
  149.9389  134.0352  156.1133 H   0  0  0  0  0  0  0  0  0  0  0  0
  149.3324  135.1659  153.4886 H   0  0  0  0  0  0  0  0  0  0  0  0
  146.4106  134.5437  153.5345 H   0  0  0  0  0  0  0  0  0  0  0  0
  147.5952  134.4996  152.2484 H   0  0  0  0  0  0  0  0  0  0  0  0
  144.7903  133.3700  151.3635 H   0  0  0  0  0  0  0  0  0  0  0  0
  145.8809  128.4867  152.9847 H   0  0  0  0  0  0  0  0  0  0  0  0
  147.6791  129.2643  154.4669 H   0  0  0  0  0  0  0  0  0  0  0  0
  148.8247  129.2511  153.1297 H   0  0  0  0  0  0  0  0  0  0  0  0
  148.1236  127.7410  153.7043 H   0  0  0  0  0  0  0  0  0  0  0  0
  146.1079  128.2779  150.5481 H   0  0  0  0  0  0  0  0  0  0  0  0
  147.1832  127.1516  151.3686 H   0  0  0  0  0  0  0  0  0  0  0  0
  147.8330  128.6235  150.6524 H   0  0  0  0  0  0  0  0  0  0  0  0
  1  2  1  0  0  0  0
  1 19  1  0  0  0  0
  1 20  1  0  0  0  0
  1 21  1  0  0  0  0
  2  3  1  0  0  0  0
  2 22  1  0  0  0  0
  2 23  1  0  0  0  0
  3  4  1  0  0  0  0
  3 24  1  0  0  0  0
  4  5  2  0  0  0  0
  4  6  1  0  0  0  0
  6  7  1  0  0  0  0
  6 25  1  0  0  0  0
  6 26  1  0  0  0  0
  7  8  1  0  0  0  0
  7 27  1  0  0  0  0
  8  9  2  0  0  0  0
  8 10  1  0  0  0  0
 10 11  1  0  0  0  0
 10 28  1  0  0  0  0
 10 29  1  0  0  0  0
 11 18  1  0  0  0  0
 11 12  2  0  0  0  0
 12 13  1  0  0  0  0
 12 30  1  0  0  0  0
 13 14  1  0  0  0  0
 14 15  1  0  0  0  0
 14 18  2  0  0  0  0
 15 16  1  0  0  0  0
 15 17  1  0  0  0  0
 15 31  1  0  0  0  0
 16 32  1  0  0  0  0
 16 33  1  0  0  0  0
 16 34  1  0  0  0  0
 17 35  1  0  0  0  0
 17 36  1  0  0  0  0
 17 37  1  0  0  0  0
M  END
> <s_m_source_file>
AV-unprocessed.smi

> <i_m_source_file_index>
1342

> <i_lp_mmshare_version>
43012

> <i_f3d_flags>
0

> <s_epik_input>
W0NIM11bQ0gyXVtOSF1DKD1PKVtDSDJdW05IXUMoPU8pW0NIMl1jMVtjSF1zYyhuMSlbQ0hdKFtDSDNdKVtDSDNd

> <s_epik_cmdline>
J2VwaWtfcHl0aG9uJywgJy1waCcsICc3LjAnLCAnLXRuJywgJzgnLCAnLW1hJywgJzIwMCcsICctbWV0YWxfYmluZGluZycsICctaW1hZScsICc8aW5maWxlLm1hZT4nLCAnLW9tYWUnLCAnPG91dGZpbGUubWFlPic=

> <r_lp_tautomer_probability>
1

> <r_epik_Ionization_Penalty>
2.79632e-05

> <r_epik_Ionization_Penalty_Charging>
0

> <r_epik_Ionization_Penalty_Neutral>
2.79632e-05

> <r_epik_State_Penalty>
-0

> <r_epik_Charging_Adjusted_Penalty>
0

> <i_epik_Tot_Q>
0

> <i_epik_Tot_abs_Q>
0

> <r_epik_Metal_State_Penalty>
-0

> <b_epik_Metal_Only>
0

> <s_lp_Force_Field>
OPLS_2005

> <r_lp_Energy>
-9.53287

> <b_lp_Chiralities_Consistent>
1

> <s_lp_Variant>
AV-unprocessed.smi:1342-1

> <Gold.Version>
5.8.1

> <Gold.Id.Protein>
6NUR|6NUR_protein|mol2

> <Gold.PLP.Fitness>
40.9408

> <Gold.PLP.PLP>
-33.4181

> <Gold.PLP.part.hbond>
-3.6358

> <Gold.PLP.part.metal>
0.0000

> <Gold.PLP.part.buried>
-3.8079

> <Gold.PLP.part.nonpolar>
-26.3581

> <Gold.PLP.part.repulsive>
0.2716

> <Gold.PLP.ligand.clash>
0.0000

> <Gold.PLP.ligand.torsion>
0.8072

> <Gold.PLP.Chemscore.Hbond>
2.9920

> <Gold.PLP.Chemscore.CHOScore>
0.0000

> <Gold.PLP.Chemscore.Metal>
0.0000

> <Gold.Chemscore.Hbonds>
donor molecule, donor type, donor heavy atom, donor atom, acceptor molecule, acceptor atom, score
      L1  H     3    24       P1  7948  0.60
      L1  H     7    27       P1  7948  0.85
      P1  H 10752 10764       L1     5  1.00

> <Gold.PLP.Chemscore.Internal.Correction>
0.1611

> <Gold.Rescore>
     Score         DG    S(hbond)    S(metal)    S(lipo)     H(rot)  DE(clash)    DE(int)     intcor
     12.17     -16.27       2.03        0.00      80.23       2.10       0.05       4.04       ----

> <Gold.Chemscore.Fitness>
12.1723

> <Gold.Chemscore.DG>
-16.2700

> <Gold.Chemscore.ZeroCoef>
-5.4800

> <Gold.Chemscore.Hbond>
2.0276

> <Gold.Chemscore.Metal>
0.0000

> <Gold.Chemscore.Lipo>
80.2255

> <Gold.Chemscore.Internal_Hbond>
0.0000

> <Gold.Chemscore.DEClash>
0.0541

> <Gold.Chemscore.DEInternal>
4.0437

> <Gold.Chemscore.Rot>
2.0970

> <Gold.Chemscore.Internal.Correction>
   9.000000E+99

> <Gold.Chemscore.Hbonds>
donor molecule, donor type, donor heavy atom, donor atom, acceptor molecule, acceptor atom, score
      L1  H     3    24       P1  7948  0.26
      L1  H     7    27       P1  7948  0.14
      P1  H 10752 10764       L1     5  0.29

> <Gold.Chemscore.Hbond.Weighted>
-6.7721

> <Gold.Chemscore.Metal.Weighted>
-0.0000

> <Gold.Chemscore.Lipo.Weighted>
-9.3864

> <Gold.Chemscore.Internal_Hbond.Weighted>
0.0000

> <Gold.Chemscore.DEClash.Weighted>
0.0541

> <Gold.Chemscore.DEInternal.Weighted>
4.0437

> <Gold.Chemscore.Rot.Weighted>
5.3684

> <Gold.Chemscore.Internal.Correction.Weighted>
   9.000000E+99

> <Gold.Protein.RotatedTorsions>
[ 6907 6896 6895 6894 ] final -175.12 input  -60.11 | X-H torsion
[ 7974 7965 7964 7962 ] final  161.03 input  175.53 | X-H torsion
[ 8008 7997 7996 7995 ] final -126.24 input   59.86 | X-H torsion
[ 10167 10162 10161 10158 ] final   46.99 input  -65.29 | X-H torsion
[ 10718 10713 10712 10709 ] final    7.82 input   66.30 | X-H torsion
[ 10763 10752 10751 10750 ] final  -21.61 input  -60.55 | X-H torsion
[ 11005 11000 10999 10996 ] final -105.94 input  -57.11 | X-H torsion

> <Gold.Protein.ActiveResidues>
 VAL166  LYS551  ARG553  GLY616  TRP617  ASP618  TYR619  PRO620  LYS621  CYS622 
 ASP623  PHE694  ASN695  SER759  ASP760  ASP761  ALA762  ILE779  LEU786  VAL792 
 PHE793  MET794  SER795  GLU796  ALA797  LYS798  CYS799  TRP800  GLU811  SER814 

> <Gold.Protein.RotatedAtoms>
  151.5834  133.3375  159.3012 H   0  0  0  0  0  0  0  0  0  0  0  0  # atno 6907 bound_to 6896
  150.8300  134.7552  159.6857 H   0  0  0  0  0  0  0  0  0  0  0  0  # atno 6908 bound_to 6896
  152.4385  134.5645  159.9955 H   0  0  0  0  0  0  0  0  0  0  0  0  # atno 6909 bound_to 6896
  144.7706  139.7841  143.6298 H   0  0  0  0  0  0  0  0  0  0  0  0  # atno 7974 bound_to 7965
  155.2264  140.0423  157.2956 H   0  0  0  0  0  0  0  0  0  0  0  0  # atno 8008 bound_to 7997
  154.5916  140.2428  155.7883 H   0  0  0  0  0  0  0  0  0  0  0  0  # atno 8009 bound_to 7997
  156.2263  140.2953  156.0084 H   0  0  0  0  0  0  0  0  0  0  0  0  # atno 8010 bound_to 7997
  140.3082  144.2852  150.6205 H   0  0  0  0  0  0  0  0  0  0  0  0  # atno 10167 bound_to 10162
  156.9425  130.5866  149.5653 H   0  0  0  0  0  0  0  0  0  0  0  0  # atno 10718 bound_to 10713
  153.6389  135.6986  153.5249 H   0  0  0  0  0  0  0  0  0  0  0  0  # atno 10763 bound_to 10752
  153.2799  135.4189  155.1068 H   0  0  0  0  0  0  0  0  0  0  0  0  # atno 10764 bound_to 10752
  154.8504  135.3599  154.5932 H   0  0  0  0  0  0  0  0  0  0  0  0  # atno 10765 bound_to 10752
  141.1029  133.8851  157.1795 H   0  0  0  0  0  0  0  0  0  0  0  0  # atno 11005 bound_to 11000
  146.1850  139.5060  142.9842 LP  0  0  0  0  0  0  0  0  0  0  0  0  # atno 17320 bound_to 7965
  145.6335  141.0299  143.1850 LP  0  0  0  0  0  0  0  0  0  0  0  0  # atno 17321 bound_to 7965
  140.5591  143.2194  151.7795 LP  0  0  0  0  0  0  0  0  0  0  0  0  # atno 17342 bound_to 10162
  139.4899  144.4373  151.9805 LP  0  0  0  0  0  0  0  0  0  0  0  0  # atno 17343 bound_to 10162
  156.0398  130.5482  150.8743 LP  0  0  0  0  0  0  0  0  0  0  0  0  # atno 17370 bound_to 10713
  157.5775  131.0946  150.9322 LP  0  0  0  0  0  0  0  0  0  0  0  0  # atno 17371 bound_to 10713
  139.9887  135.0072  156.9924 LP  0  0  0  0  0  0  0  0  0  0  0  0  # atno 17394 bound_to 11000
  140.4976  134.1129  155.7244 LP  0  0  0  0  0  0  0  0  0  0  0  0  # atno 17395 bound_to 11000

$$$$
