AV-unprocessed.smi:2039|AV-procd|sdf|8285|dock10
  -GOLD-   2272010553D 1   1.00000     0.00000
 Structure written by MMmdl.
 32 33  0  0  0  0  0  0  0  0  2 V2000
  148.2704  125.3006  150.4097 C   0  0  0  0  0  0  0  0  0  0  0  0
  148.5473  126.3990  151.3779 C   0  0  0  0  0  0  0  0  0  0  0  0
  149.3538  126.2466  152.4311 N   0  0  0  0  0  0  0  0  0  0  0  0
  149.4568  127.4085  153.1826 N   0  0  0  0  0  0  0  0  0  0  0  0
  148.7364  128.4233  152.6837 C   0  0  0  0  0  0  0  0  0  0  0  0
  148.6980  129.6340  153.2647 N   0  5  0  0  0  0  0  0  0  0  0  0
  147.5449  130.3413  153.2779 C   0  0  0  0  0  0  0  0  0  0  0  0
  146.8034  130.5100  154.2489 O   0  0  0  0  0  0  0  0  0  0  0  0
  147.2326  130.8871  152.0934 N   0  0  0  0  0  0  0  0  0  0  0  0
  146.0568  131.7041  151.8044 C   0  0  2  0  0  0  0  0  0  0  0  0
  145.0459  130.9193  150.9443 C   0  0  0  0  0  0  0  0  0  0  0  0
  143.8263  131.7830  150.5781 C   0  0  0  0  0  0  0  0  0  0  0  0
  144.2281  133.1059  149.8982 C   0  0  2  0  0  0  0  0  0  0  0  0
  144.7245  132.8541  148.5984 O   0  0  0  0  0  0  0  0  0  0  0  0
  145.2772  133.8731  150.7248 C   0  0  0  0  0  0  0  0  0  0  0  0
  146.4888  132.9965  151.0887 C   0  0  0  0  0  0  0  0  0  0  0  0
  147.8419  127.9992  151.2241 S   0  0  0  0  0  0  0  0  0  0  0  0
  149.1011  125.2032  149.7107 H   0  0  0  0  0  0  0  0  0  0  0  0
  147.3611  125.5121  149.8469 H   0  0  0  0  0  0  0  0  0  0  0  0
  148.1411  124.3552  150.9373 H   0  0  0  0  0  0  0  0  0  0  0  0
  147.8686  130.7202  151.3275 H   0  0  0  0  0  0  0  0  0  0  0  0
  145.5794  131.9842  152.7455 H   0  0  0  0  0  0  0  0  0  0  0  0
  145.5313  130.5676  150.0327 H   0  0  0  0  0  0  0  0  0  0  0  0
  144.7116  130.0279  151.4761 H   0  0  0  0  0  0  0  0  0  0  0  0
  143.1458  131.2191  149.9391 H   0  0  0  0  0  0  0  0  0  0  0  0
  143.2699  132.0076  151.4890 H   0  0  0  0  0  0  0  0  0  0  0  0
  143.3413  133.7299  149.7826 H   0  0  0  0  0  0  0  0  0  0  0  0
  145.1697  133.6290  148.2915 H   0  0  0  0  0  0  0  0  0  0  0  0
  145.6058  134.7631  150.1870 H   0  0  0  0  0  0  0  0  0  0  0  0
  144.8121  134.2293  151.6448 H   0  0  0  0  0  0  0  0  0  0  0  0
  147.1712  133.5631  151.7233 H   0  0  0  0  0  0  0  0  0  0  0  0
  147.0455  132.7501  150.1833 H   0  0  0  0  0  0  0  0  0  0  0  0
  1  2  1  0  0  0  0
  1 18  1  0  0  0  0
  1 19  1  0  0  0  0
  1 20  1  0  0  0  0
  2 17  1  0  0  0  0
  2  3  2  0  0  0  0
  3  4  1  0  0  0  0
  4  5  2  0  0  0  0
  5  6  1  0  0  0  0
  5 17  1  0  0  0  0
  6  7  1  0  0  0  0
  7  8  2  0  0  0  0
  7  9  1  0  0  0  0
  9 10  1  0  0  0  0
  9 21  1  0  0  0  0
 10 16  1  0  0  0  0
 10 11  1  0  0  0  0
 10 22  1  0  0  0  0
 11 12  1  0  0  0  0
 11 23  1  0  0  0  0
 11 24  1  0  0  0  0
 12 13  1  0  0  0  0
 12 25  1  0  0  0  0
 12 26  1  0  0  0  0
 13 14  1  0  0  0  0
 13 15  1  0  0  0  0
 13 27  1  0  0  0  0
 14 28  1  0  0  0  0
 15 16  1  0  0  0  0
 15 29  1  0  0  0  0
 15 30  1  0  0  0  0
 16 31  1  0  0  0  0
 16 32  1  0  0  0  0
M  CHG  1   6  -1
M  END
> <s_m_source_file>
AV-unprocessed.smi

> <i_m_source_file_index>
2039

> <i_lp_mmshare_version>
43012

> <i_f3d_flags>
0

> <s_epik_input>
W0NIM11jMW5uYyhzMSlbTkhdQyg9TylbTkhdW0NAQEhdMltDSDJdW0NIMl1bQ0BASF0oW09IXSlbQ0gyXVtDSDJdMg==

> <s_epik_cmdline>
J2VwaWtfcHl0aG9uJywgJy1waCcsICc3LjAnLCAnLXRuJywgJzgnLCAnLW1hJywgJzIwMCcsICctbWV0YWxfYmluZGluZycsICctaW1hZScsICc8aW5maWxlLm1hZT4nLCAnLW9tYWUnLCAnPG91dGZpbGUubWFlPic=

> <r_lp_tautomer_probability>
1

> <r_epik_Ionization_Penalty>
4.54927

> <r_epik_Ionization_Penalty_Charging>
4.39069

> <r_epik_Ionization_Penalty_Neutral>
0.158583

> <r_epik_State_Penalty>
4.39033

> <r_epik_Charging_Adjusted_Penalty>
8.78102

> <i_epik_Tot_Q>
-1

> <i_epik_Tot_abs_Q>
1

> <r_epik_Metal_State_Penalty>
0.767247

> <b_epik_Metal_Only>
1

> <s_lp_Force_Field>
OPLS_2005

> <r_lp_Energy>
8.24255

> <b_lp_Chiralities_Consistent>
1

> <s_lp_Variant>
AV-unprocessed.smi:2039-4

> <Gold.Version>
5.8.1

> <Gold.Id.Protein>
6NUR|6NUR_protein|mol2

> <Gold.PLP.Fitness>
36.8185

> <Gold.PLP.PLP>
-32.9759

> <Gold.PLP.part.hbond>
-2.9206

> <Gold.PLP.part.metal>
0.0000

> <Gold.PLP.part.buried>
-5.4437

> <Gold.PLP.part.nonpolar>
-26.0773

> <Gold.PLP.part.repulsive>
0.8667

> <Gold.PLP.ligand.clash>
0.0000

> <Gold.PLP.ligand.torsion>
1.0820

> <Gold.PLP.Chemscore.Hbond>
2.0000

> <Gold.PLP.Chemscore.CHOScore>
0.0000

> <Gold.PLP.Chemscore.Metal>
0.0000

> <Gold.Chemscore.Hbonds>
donor molecule, donor type, donor heavy atom, donor atom, acceptor molecule, acceptor atom, score
      L1  H     9    21       P1 10747  0.99
      L1  H    14    28       P1  7921  1.00

> <Gold.PLP.Chemscore.Internal.Correction>
0.0065

> <Gold.Rescore>
     Score         DG    S(hbond)    S(metal)    S(lipo)     H(rot)  DE(clash)    DE(int)     intcor
     15.65     -16.79       1.93        0.00      74.18       1.49       0.00       1.14       ----

> <Gold.Chemscore.Fitness>
15.6534

> <Gold.Chemscore.DG>
-16.7917

> <Gold.Chemscore.ZeroCoef>
-5.4800

> <Gold.Chemscore.Hbond>
1.9281

> <Gold.Chemscore.Metal>
0.0000

> <Gold.Chemscore.Lipo>
74.1811

> <Gold.Chemscore.Internal_Hbond>
0.0000

> <Gold.Chemscore.DEClash>
0.0004

> <Gold.Chemscore.DEInternal>
1.1379

> <Gold.Chemscore.Rot>
1.4873

> <Gold.Chemscore.Internal.Correction>
   9.000000E+99

> <Gold.Chemscore.Hbonds>
donor molecule, donor type, donor heavy atom, donor atom, acceptor molecule, acceptor atom, score
      L1  H     9    21       P1 10747  0.92
      L1  H    14    28       P1  7921  0.70

> <Gold.Chemscore.Hbond.Weighted>
-6.4400

> <Gold.Chemscore.Metal.Weighted>
-0.0000

> <Gold.Chemscore.Lipo.Weighted>
-8.6792

> <Gold.Chemscore.Internal_Hbond.Weighted>
0.0000

> <Gold.Chemscore.DEClash.Weighted>
0.0004

> <Gold.Chemscore.DEInternal.Weighted>
1.1379

> <Gold.Chemscore.Rot.Weighted>
3.8075

> <Gold.Chemscore.Internal.Correction.Weighted>
   9.000000E+99

> <Gold.Protein.RotatedTorsions>
[ 6907 6896 6895 6894 ] final  101.88 input  -60.11 | X-H torsion
[ 7974 7965 7964 7962 ] final -105.16 input  175.53 | X-H torsion
[ 8008 7997 7996 7995 ] final   96.00 input   59.86 | X-H torsion
[ 10167 10162 10161 10158 ] final   25.71 input  -65.29 | X-H torsion
[ 10718 10713 10712 10709 ] final  -87.90 input   66.30 | X-H torsion
[ 10763 10752 10751 10750 ] final -141.84 input  -60.55 | X-H torsion
[ 11005 11000 10999 10996 ] final -150.09 input  -57.11 | X-H torsion

> <Gold.Protein.ActiveResidues>
 VAL166  LYS551  ARG553  GLY616  TRP617  ASP618  TYR619  PRO620  LYS621  CYS622 
 ASP623  PHE694  ASN695  SER759  ASP760  ASP761  ALA762  ILE779  LEU786  VAL792 
 PHE793  MET794  SER795  GLU796  ALA797  LYS798  CYS799  TRP800  GLU811  SER814 

> <Gold.Protein.RotatedAtoms>
  152.5338  134.0060  159.7916 H   0  0  0  0  0  0  0  0  0  0  0  0  # atno 6907 bound_to 6896
  151.0270  133.5816  159.2672 H   0  0  0  0  0  0  0  0  0  0  0  0  # atno 6908 bound_to 6896
  151.2835  135.0728  159.9231 H   0  0  0  0  0  0  0  0  0  0  0  0  # atno 6909 bound_to 6896
  145.2339  140.9181  143.3188 H   0  0  0  0  0  0  0  0  0  0  0  0  # atno 7974 bound_to 7965
  156.0749  140.3279  155.7621 H   0  0  0  0  0  0  0  0  0  0  0  0  # atno 8008 bound_to 7997
  155.5246  140.0588  157.2918 H   0  0  0  0  0  0  0  0  0  0  0  0  # atno 8009 bound_to 7997
  154.4550  140.1938  156.0424 H   0  0  0  0  0  0  0  0  0  0  0  0  # atno 8010 bound_to 7997
  140.5083  144.0201  150.6362 H   0  0  0  0  0  0  0  0  0  0  0  0  # atno 10167 bound_to 10162
  155.9984  130.4816  150.4937 H   0  0  0  0  0  0  0  0  0  0  0  0  # atno 10718 bound_to 10713
  154.8531  135.3513  154.5932 H   0  0  0  0  0  0  0  0  0  0  0  0  # atno 10763 bound_to 10752
  153.6541  135.6993  153.5204 H   0  0  0  0  0  0  0  0  0  0  0  0  # atno 10764 bound_to 10752
  153.2870  135.4246  155.1090 H   0  0  0  0  0  0  0  0  0  0  0  0  # atno 10765 bound_to 10752
  140.7439  134.3483  157.5141 H   0  0  0  0  0  0  0  0  0  0  0  0  # atno 11005 bound_to 11000
  144.9651  139.3939  143.6337 LP  0  0  0  0  0  0  0  0  0  0  0  0  # atno 17320 bound_to 7965
  146.3346  139.8722  142.8838 LP  0  0  0  0  0  0  0  0  0  0  0  0  # atno 17321 bound_to 7965
  140.3517  143.2959  152.0480 LP  0  0  0  0  0  0  0  0  0  0  0  0  # atno 17342 bound_to 10162
  139.4889  144.6369  151.6957 LP  0  0  0  0  0  0  0  0  0  0  0  0  # atno 17343 bound_to 10162
  157.2930  131.0630  151.2121 LP  0  0  0  0  0  0  0  0  0  0  0  0  # atno 17370 bound_to 10713
  157.3127  130.6898  149.6225 LP  0  0  0  0  0  0  0  0  0  0  0  0  # atno 17371 bound_to 10713
  139.8800  134.9098  156.3000 LP  0  0  0  0  0  0  0  0  0  0  0  0  # atno 17394 bound_to 11000
  140.9812  133.7266  156.0675 LP  0  0  0  0  0  0  0  0  0  0  0  0  # atno 17395 bound_to 11000

$$$$
