AV-unprocessed.smi:2669|AV-procd|sdf|10343|dock9
  -GOLD-   2272014363D 1   1.00000     0.00000
 Structure written by MMmdl.
 39 41  0  0  0  0  0  0  0  0  1 V2000
  148.3343  135.5028  154.6692 C   0  0  0  0  0  0  0  0  0  0  0  0
  149.0886  136.7449  154.7268 N   0  0  0  0  0  0  0  0  0  0  0  0
  148.5449  137.9320  154.2167 C   0  0  0  0  0  0  0  0  0  0  0  0
  147.2857  137.9376  153.7204 N   0  0  0  0  0  0  0  0  0  0  0  0
  146.8068  139.0918  153.2392 C   0  0  0  0  0  0  0  0  0  0  0  0
  147.4035  140.2918  153.1702 N   0  0  0  0  0  0  0  0  0  0  0  0
  148.6497  140.2980  153.6623 C   0  0  0  0  0  0  0  0  0  0  0  0
  149.4936  141.3938  153.7182 N   0  0  0  0  0  0  0  0  0  0  0  0
  150.5788  140.8701  154.2827 C   0  0  0  0  0  0  0  0  0  0  0  0
  150.5446  139.5621  154.6039 N   0  0  0  0  0  0  0  0  0  0  0  0
  151.6170  138.8045  155.2273 C   0  0  0  0  0  0  0  0  0  0  0  0
  152.2008  139.5121  156.4664 C   0  0  2  0  0  0  0  0  0  0  0  0
  153.4755  138.9826  156.7730 O   0  0  0  0  0  0  0  0  0  0  0  0
  151.3037  139.3619  157.7037 C   0  0  0  0  0  0  0  0  0  0  0  0
  151.9807  139.8976  158.8330 O   0  0  0  0  0  0  0  0  0  0  0  0
  151.9191  141.2576  159.0472 C   0  0  0  0  0  0  0  0  0  0  0  0
  152.5757  141.7549  160.1919 C   0  0  0  0  0  0  0  0  0  0  0  0
  152.5655  143.1315  160.4885 C   0  0  0  0  0  0  0  0  0  0  0  0
  151.8940  144.0292  159.6377 C   0  0  0  0  0  0  0  0  0  0  0  0
  151.8806  145.7166  159.9969 Cl  0  0  0  0  0  0  0  0  0  0  0  0
  151.2334  143.5466  158.4926 C   0  0  0  0  0  0  0  0  0  0  0  0
  151.2437  142.1695  158.1967 C   0  0  0  0  0  0  0  0  0  0  0  0
  149.2775  139.1365  154.2063 C   0  0  0  0  0  0  0  0  0  0  0  0
  148.9434  134.6801  155.0437 H   0  0  0  0  0  0  0  0  0  0  0  0
  148.0437  135.2720  153.6438 H   0  0  0  0  0  0  0  0  0  0  0  0
  147.4352  135.5688  155.2825 H   0  0  0  0  0  0  0  0  0  0  0  0
  150.0643  136.7145  154.9857 H   0  0  0  0  0  0  0  0  0  0  0  0
  145.7997  139.0512  152.8519 H   0  0  0  0  0  0  0  0  0  0  0  0
  151.4529  141.4747  154.4758 H   0  0  0  0  0  0  0  0  0  0  0  0
  151.2184  137.8294  155.5104 H   0  0  0  0  0  0  0  0  0  0  0  0
  152.3933  138.6083  154.4885 H   0  0  0  0  0  0  0  0  0  0  0  0
  152.3327  140.5732  156.2499 H   0  0  0  0  0  0  0  0  0  0  0  0
  153.6630  138.2803  156.1689 H   0  0  0  0  0  0  0  0  0  0  0  0
  150.3537  139.8744  157.5411 H   0  0  0  0  0  0  0  0  0  0  0  0
  151.0933  138.3053  157.8783 H   0  0  0  0  0  0  0  0  0  0  0  0
  153.0943  141.0732  160.8501 H   0  0  0  0  0  0  0  0  0  0  0  0
  153.0738  143.4963  161.3689 H   0  0  0  0  0  0  0  0  0  0  0  0
  150.7166  144.2327  157.8376 H   0  0  0  0  0  0  0  0  0  0  0  0
  150.7250  141.8384  157.3102 H   0  0  0  0  0  0  0  0  0  0  0  0
  1  2  1  0  0  0  0
  1 24  1  0  0  0  0
  1 25  1  0  0  0  0
  1 26  1  0  0  0  0
  2  3  1  0  0  0  0
  2 27  1  0  0  0  0
  3 23  1  0  0  0  0
  3  4  2  0  0  0  0
  4  5  1  0  0  0  0
  5  6  2  0  0  0  0
  5 28  1  0  0  0  0
  6  7  1  0  0  0  0
  7 23  2  0  0  0  0
  7  8  1  0  0  0  0
  8  9  2  0  0  0  0
  9 10  1  0  0  0  0
  9 29  1  0  0  0  0
 10 11  1  0  0  0  0
 10 23  1  0  0  0  0
 11 12  1  0  0  0  0
 11 30  1  0  0  0  0
 11 31  1  0  0  0  0
 12 13  1  0  0  0  0
 12 14  1  0  0  0  0
 12 32  1  0  0  0  0
 13 33  1  0  0  0  0
 14 15  1  0  0  0  0
 14 34  1  0  0  0  0
 14 35  1  0  0  0  0
 15 16  1  0  0  0  0
 16 22  1  0  0  0  0
 16 17  2  0  0  0  0
 17 18  1  0  0  0  0
 17 36  1  0  0  0  0
 18 19  2  0  0  0  0
 18 37  1  0  0  0  0
 19 20  1  0  0  0  0
 19 21  1  0  0  0  0
 21 22  2  0  0  0  0
 21 38  1  0  0  0  0
 22 39  1  0  0  0  0
M  END
> <s_m_source_file>
AV-unprocessed.smi

> <i_m_source_file_index>
2669

> <i_lp_mmshare_version>
43012

> <i_f3d_flags>
0

> <s_epik_input>
bjFbY0hdbmMoW05IXVtDSDNdKWMoYzEyKW4oW2NIXW4yKVtDSDJdW0NASF0oW09IXSlbQ0gyXU9jM1tjSF1bY0hdYyhDbClbY0hdW2NIXTM=

> <s_epik_cmdline>
J2VwaWtfcHl0aG9uJywgJy1waCcsICc3LjAnLCAnLXRuJywgJzgnLCAnLW1hJywgJzIwMCcsICctbWV0YWxfYmluZGluZycsICctaW1hZScsICc8aW5maWxlLm1hZT4nLCAnLW9tYWUnLCAnPG91dGZpbGUubWFlPic=

> <r_lp_tautomer_probability>
1

> <r_epik_Ionization_Penalty>
0.00733592

> <r_epik_Ionization_Penalty_Charging>
0

> <r_epik_Ionization_Penalty_Neutral>
0.00733592

> <r_epik_State_Penalty>
-0

> <r_epik_Charging_Adjusted_Penalty>
0

> <i_epik_Tot_Q>
0

> <i_epik_Tot_abs_Q>
0

> <r_epik_Metal_State_Penalty>
-0

> <b_epik_Metal_Only>
0

> <s_lp_Force_Field>
OPLS_2005

> <r_lp_Energy>
12.7517

> <b_lp_Chiralities_Consistent>
1

> <s_lp_Variant>
AV-unprocessed.smi:2669-1

> <Gold.Version>
5.8.1

> <Gold.Id.Protein>
6NUR|6NUR_protein|mol2

> <Gold.PLP.Fitness>
44.9641

> <Gold.PLP.PLP>
-37.5120

> <Gold.PLP.part.hbond>
-3.0658

> <Gold.PLP.part.metal>
0.0000

> <Gold.PLP.part.buried>
-0.0494

> <Gold.PLP.part.nonpolar>
-35.5481

> <Gold.PLP.part.repulsive>
0.5787

> <Gold.PLP.ligand.clash>
0.0000

> <Gold.PLP.ligand.torsion>
0.4277

> <Gold.PLP.Chemscore.Hbond>
1.7613

> <Gold.PLP.Chemscore.CHOScore>
1.0000

> <Gold.PLP.Chemscore.Metal>
0.0000

> <Gold.Chemscore.Hbonds>
donor molecule, donor type, donor heavy atom, donor atom, acceptor molecule, acceptor atom, score
      P1  H  7997  8008       L1    13  0.75
      P1  H  8011  8017       L1     8  0.82
      L1  C     5    28       P1 10175  0.89

> <Gold.PLP.Chemscore.Internal.Correction>
0.0237

> <Gold.Rescore>
     Score         DG    S(hbond)    S(metal)    S(lipo)     H(rot)  DE(clash)    DE(int)     intcor
     11.26     -12.09       0.84        0.00      97.54       2.97       0.27       0.56       ----

> <Gold.Chemscore.Fitness>
11.2599

> <Gold.Chemscore.DG>
-12.0888

> <Gold.Chemscore.ZeroCoef>
-5.4800

> <Gold.Chemscore.Hbond>
0.8419

> <Gold.Chemscore.Metal>
0.0000

> <Gold.Chemscore.Lipo>
97.5356

> <Gold.Chemscore.Internal_Hbond>
0.0000

> <Gold.Chemscore.DEClash>
0.2652

> <Gold.Chemscore.DEInternal>
0.5637

> <Gold.Chemscore.Rot>
2.9746

> <Gold.Chemscore.Internal.Correction>
   9.000000E+99

> <Gold.Chemscore.Hbonds>
donor molecule, donor type, donor heavy atom, donor atom, acceptor molecule, acceptor atom, score
      P1  H  7997  8008       L1    13  0.44
      P1  H  8011  8017       L1     8  0.73

> <Gold.Chemscore.Hbond.Weighted>
-2.8121

> <Gold.Chemscore.Metal.Weighted>
-0.0000

> <Gold.Chemscore.Lipo.Weighted>
-11.4117

> <Gold.Chemscore.Internal_Hbond.Weighted>
0.0000

> <Gold.Chemscore.DEClash.Weighted>
0.2652

> <Gold.Chemscore.DEInternal.Weighted>
0.5637

> <Gold.Chemscore.Rot.Weighted>
7.6150

> <Gold.Chemscore.Internal.Correction.Weighted>
   9.000000E+99

> <Gold.Protein.RotatedTorsions>
[ 6907 6896 6895 6894 ] final   -3.20 input  -60.11 | X-H torsion
[ 7974 7965 7964 7962 ] final  109.00 input  175.53 | X-H torsion
[ 8008 7997 7996 7995 ] final  -68.20 input   59.86 | X-H torsion
[ 10167 10162 10161 10158 ] final   17.01 input  -65.29 | X-H torsion
[ 10718 10713 10712 10709 ] final  100.39 input   66.30 | X-H torsion
[ 10763 10752 10751 10750 ] final  -90.21 input  -60.55 | X-H torsion
[ 11005 11000 10999 10996 ] final -115.72 input  -57.11 | X-H torsion

> <Gold.Protein.ActiveResidues>
 VAL166  LYS551  ARG553  GLY616  TRP617  ASP618  TYR619  PRO620  LYS621  CYS622 
 ASP623  PHE694  ASN695  SER759  ASP760  ASP761  ALA762  ILE779  LEU786  VAL792 
 PHE793  MET794  SER795  GLU796  ALA797  LYS798  CYS799  TRP800  GLU811  SER814 

> <Gold.Protein.RotatedAtoms>
  151.5175  135.1066  159.9869 H   0  0  0  0  0  0  0  0  0  0  0  0  # atno 6907 bound_to 6896
  152.4635  133.7868  159.6891 H   0  0  0  0  0  0  0  0  0  0  0  0  # atno 6908 bound_to 6896
  150.8607  133.7583  159.3018 H   0  0  0  0  0  0  0  0  0  0  0  0  # atno 6909 bound_to 6896
  145.2734  139.2658  143.3954 H   0  0  0  0  0  0  0  0  0  0  0  0  # atno 7974 bound_to 7965
  154.4852  140.0877  156.7469 H   0  0  0  0  0  0  0  0  0  0  0  0  # atno 8008 bound_to 7997
  155.4370  140.3452  155.4267 H   0  0  0  0  0  0  0  0  0  0  0  0  # atno 8009 bound_to 7997
  156.1250  140.1485  156.9137 H   0  0  0  0  0  0  0  0  0  0  0  0  # atno 8010 bound_to 7997
  140.5756  143.9078  150.6747 H   0  0  0  0  0  0  0  0  0  0  0  0  # atno 10167 bound_to 10162
  157.6855  131.0697  150.5093 H   0  0  0  0  0  0  0  0  0  0  0  0  # atno 10718 bound_to 10713
  154.6634  135.5313  153.8046 H   0  0  0  0  0  0  0  0  0  0  0  0  # atno 10763 bound_to 10752
  153.0456  135.6511  154.0837 H   0  0  0  0  0  0  0  0  0  0  0  0  # atno 10764 bound_to 10752
  154.0744  135.2952  155.3282 H   0  0  0  0  0  0  0  0  0  0  0  0  # atno 10765 bound_to 10752
  141.0469  133.9748  157.2902 H   0  0  0  0  0  0  0  0  0  0  0  0  # atno 11005 bound_to 11000
  146.3239  140.3183  142.8631 LP  0  0  0  0  0  0  0  0  0  0  0  0  # atno 17320 bound_to 7965
  144.9315  140.7980  143.5686 LP  0  0  0  0  0  0  0  0  0  0  0  0  # atno 17321 bound_to 7965
  140.2565  143.3555  152.1360 LP  0  0  0  0  0  0  0  0  0  0  0  0  # atno 17342 bound_to 10162
  139.5141  144.6942  151.5675 LP  0  0  0  0  0  0  0  0  0  0  0  0  # atno 17343 bound_to 10162
  156.5411  130.4208  149.6153 LP  0  0  0  0  0  0  0  0  0  0  0  0  # atno 17370 bound_to 10713
  156.2984  130.7163  151.2029 LP  0  0  0  0  0  0  0  0  0  0  0  0  # atno 17371 bound_to 10713
  139.9319  135.0199  156.8428 LP  0  0  0  0  0  0  0  0  0  0  0  0  # atno 17394 bound_to 11000
  140.6130  134.0065  155.7585 LP  0  0  0  0  0  0  0  0  0  0  0  0  # atno 17395 bound_to 11000

$$$$
