AV-unprocessed.smi:729|AV-procd|sdf|3520|dock4
  -GOLD-   22720 0513D 1   1.00000     0.00000
 Structure written by MMmdl.
 21 21  0  0  0  0  0  0  0  0  2 V2000
  152.5160  139.7811  159.2118 C   0  0  0  0  0  0  0  0  0  0  0  0
  151.8306  140.6691  158.1787 C   0  0  0  0  0  0  0  0  0  0  0  0
  151.7035  141.9920  158.3902 C   0  0  0  0  0  0  0  0  0  0  0  0
  151.0840  142.8229  157.3890 C   0  0  0  0  0  0  0  0  0  0  0  0
  150.9425  144.1373  157.6002 O   0  0  0  0  0  0  0  0  0  0  0  0
  150.6576  142.2706  156.2393 C   0  0  0  0  0  0  0  0  0  0  0  0
  150.7896  140.8369  155.9706 C   0  0  0  0  0  0  0  0  0  0  0  0
  150.4052  140.3587  154.9025 O   0  0  0  0  0  0  0  0  0  0  0  0
  151.3434  140.0773  156.9721 N   0  0  0  0  0  0  0  0  0  0  0  0
  151.4844  138.6170  156.7519 C   0  0  0  0  0  0  0  0  0  0  0  0
  152.2301  138.2731  155.4569 C   0  0  0  0  0  0  0  0  0  0  0  0
  151.8771  137.2362  154.8533 O   0  0  0  0  0  0  0  0  0  0  0  0
  153.1459  139.0458  155.0986 O   0  5  0  0  0  0  0  0  0  0  0  0
  153.0080  140.3896  159.9711 H   0  0  0  0  0  0  0  0  0  0  0  0
  153.2891  139.1522  158.7731 H   0  0  0  0  0  0  0  0  0  0  0  0
  151.7900  139.1533  159.7277 H   0  0  0  0  0  0  0  0  0  0  0  0
  152.0778  142.4374  159.3006 H   0  0  0  0  0  0  0  0  0  0  0  0
  150.1137  144.3965  157.2277 H   0  0  0  0  0  0  0  0  0  0  0  0
  150.1976  142.8971  155.4886 H   0  0  0  0  0  0  0  0  0  0  0  0
  152.0074  138.1048  157.5598 H   0  0  0  0  0  0  0  0  0  0  0  0
  150.5037  138.1431  156.7526 H   0  0  0  0  0  0  0  0  0  0  0  0
  1  2  1  0  0  0  0
  1 14  1  0  0  0  0
  1 15  1  0  0  0  0
  1 16  1  0  0  0  0
  2  9  1  0  0  0  0
  2  3  2  0  0  0  0
  3  4  1  0  0  0  0
  3 17  1  0  0  0  0
  4  5  1  0  0  0  0
  4  6  2  0  0  0  0
  5 18  1  0  0  0  0
  6  7  1  0  0  0  0
  6 19  1  0  0  0  0
  7  8  2  0  0  0  0
  7  9  1  0  0  0  0
  9 10  1  0  0  0  0
 10 11  1  0  0  0  0
 10 20  1  0  0  0  0
 10 21  1  0  0  0  0
 11 12  2  0  0  0  0
 11 13  1  0  0  0  0
M  CHG  1  13  -1
M  END
> <s_m_source_file>
AV-unprocessed.smi

> <i_m_source_file_index>
729

> <i_lp_mmshare_version>
43012

> <i_f3d_flags>
0

> <s_epik_input>
W0NIM11jMVtjSF1jKFtPSF0pW2NIXWMoPU8pbjFbQ0gyXUMoPU8pW09IXQ==

> <s_epik_cmdline>
J2VwaWtfcHl0aG9uJywgJy1waCcsICc3LjAnLCAnLXRuJywgJzgnLCAnLW1hJywgJzIwMCcsICctbWV0YWxfYmluZGluZycsICctaW1hZScsICc8aW5maWxlLm1hZT4nLCAnLW9tYWUnLCAnPG91dGZpbGUubWFlPic=

> <r_lp_tautomer_probability>
0.999984

> <r_epik_Ionization_Penalty>
0.418052

> <r_epik_Ionization_Penalty_Charging>
0.00125892

> <r_epik_Ionization_Penalty_Neutral>
0.416793

> <r_epik_State_Penalty>
0.458518

> <r_epik_Charging_Adjusted_Penalty>
0.459777

> <i_epik_Tot_Q>
-1

> <i_epik_Tot_abs_Q>
1

> <r_epik_Metal_State_Penalty>
0.458518

> <b_epik_Metal_Only>
0

> <s_lp_Force_Field>
OPLS_2005

> <r_lp_Energy>
10.5639

> <b_lp_Chiralities_Consistent>
1

> <s_lp_Variant>
AV-unprocessed.smi:729-2

> <Gold.Version>
5.8.1

> <Gold.Id.Protein>
6NUR|6NUR_protein|mol2

> <Gold.PLP.Fitness>
41.2558

> <Gold.PLP.PLP>
-24.2702

> <Gold.PLP.part.hbond>
-4.0000

> <Gold.PLP.part.metal>
0.0000

> <Gold.PLP.part.buried>
-4.2842

> <Gold.PLP.part.nonpolar>
-16.6811

> <Gold.PLP.part.repulsive>
0.2107

> <Gold.PLP.ligand.clash>
0.0000

> <Gold.PLP.ligand.torsion>
0.3893

> <Gold.PLP.Chemscore.Hbond>
5.9200

> <Gold.PLP.Chemscore.CHOScore>
0.0000

> <Gold.PLP.Chemscore.Metal>
0.0000

> <Gold.Chemscore.Hbonds>
donor molecule, donor type, donor heavy atom, donor atom, acceptor molecule, acceptor atom, score
      L1  H     5    18       P1  8028  1.00
      P1  H  7989  7998       L1     8  1.00
      P1  H  7997  8008       L1    13  2.00
      P1  H 10752 10765       L1    12  1.95

> <Gold.PLP.Chemscore.Internal.Correction>
0.0041

> <Gold.Rescore>
     Score         DG    S(hbond)    S(metal)    S(lipo)     H(rot)  DE(clash)    DE(int)     intcor
     14.30     -16.30       3.41        0.00      42.12       2.14       0.38       1.61       ----

> <Gold.Chemscore.Fitness>
14.3018

> <Gold.Chemscore.DG>
-16.2968

> <Gold.Chemscore.ZeroCoef>
-5.4800

> <Gold.Chemscore.Hbond>
3.4052

> <Gold.Chemscore.Metal>
0.0000

> <Gold.Chemscore.Lipo>
42.1180

> <Gold.Chemscore.Internal_Hbond>
0.0000

> <Gold.Chemscore.DEClash>
0.3846

> <Gold.Chemscore.DEInternal>
1.6104

> <Gold.Chemscore.Rot>
2.1423

> <Gold.Chemscore.Internal.Correction>
   9.000000E+99

> <Gold.Chemscore.Hbonds>
donor molecule, donor type, donor heavy atom, donor atom, acceptor molecule, acceptor atom, score
      L1  H     5    18       P1  8028  0.52
      P1  H  7989  7998       L1     8  0.68
      P1  H  7997  8008       L1    13  0.99
      P1  H 10752 10765       L1    12  0.91

> <Gold.Chemscore.Hbond.Weighted>
-11.3733

> <Gold.Chemscore.Metal.Weighted>
-0.0000

> <Gold.Chemscore.Lipo.Weighted>
-4.9278

> <Gold.Chemscore.Internal_Hbond.Weighted>
0.0000

> <Gold.Chemscore.DEClash.Weighted>
0.3846

> <Gold.Chemscore.DEInternal.Weighted>
1.6104

> <Gold.Chemscore.Rot.Weighted>
5.4843

> <Gold.Chemscore.Internal.Correction.Weighted>
   9.000000E+99

> <Gold.Protein.RotatedTorsions>
[ 6907 6896 6895 6894 ] final   74.20 input  -60.11 | X-H torsion
[ 7974 7965 7964 7962 ] final  -12.71 input  175.53 | X-H torsion
[ 8008 7997 7996 7995 ] final  -23.80 input   59.86 | X-H torsion
[ 10167 10162 10161 10158 ] final -132.44 input  -65.29 | X-H torsion
[ 10718 10713 10712 10709 ] final  107.06 input   66.30 | X-H torsion
[ 10763 10752 10751 10750 ] final  168.44 input  -60.55 | X-H torsion
[ 11005 11000 10999 10996 ] final  -45.83 input  -57.11 | X-H torsion

> <Gold.Protein.ActiveResidues>
 VAL166  LYS551  ARG553  GLY616  TRP617  ASP618  TYR619  PRO620  LYS621  CYS622 
 ASP623  PHE694  ASN695  SER759  ASP760  ASP761  ALA762  ILE779  LEU786  VAL792 
 PHE793  MET794  SER795  GLU796  ALA797  LYS798  CYS799  TRP800  GLU811  SER814 

> <Gold.Protein.RotatedAtoms>
  152.4964  134.4306  159.9510 H   0  0  0  0  0  0  0  0  0  0  0  0  # atno 6907 bound_to 6896
  151.4285  133.3671  159.2773 H   0  0  0  0  0  0  0  0  0  0  0  0  # atno 6908 bound_to 6896
  150.9172  134.8612  159.7524 H   0  0  0  0  0  0  0  0  0  0  0  0  # atno 6909 bound_to 6896
  146.2142  140.3097  142.8381 H   0  0  0  0  0  0  0  0  0  0  0  0  # atno 7974 bound_to 7965
  154.4564  140.1971  156.0367 H   0  0  0  0  0  0  0  0  0  0  0  0  # atno 8008 bound_to 7997
  156.0755  140.3279  155.7600 H   0  0  0  0  0  0  0  0  0  0  0  0  # atno 8009 bound_to 7997
  155.5196  140.0568  157.2900 H   0  0  0  0  0  0  0  0  0  0  0  0  # atno 8010 bound_to 7997
  139.9085  143.6522  152.2580 H   0  0  0  0  0  0  0  0  0  0  0  0  # atno 10167 bound_to 10162
  157.6643  131.0864  150.6100 H   0  0  0  0  0  0  0  0  0  0  0  0  # atno 10718 bound_to 10713
  154.3687  135.2753  155.2279 H   0  0  0  0  0  0  0  0  0  0  0  0  # atno 10763 bound_to 10752
  154.4436  135.5948  153.6149 H   0  0  0  0  0  0  0  0  0  0  0  0  # atno 10764 bound_to 10752
  152.9839  135.6024  154.3915 H   0  0  0  0  0  0  0  0  0  0  0  0  # atno 10765 bound_to 10752
  141.0540  133.6732  156.3069 H   0  0  0  0  0  0  0  0  0  0  0  0  # atno 11005 bound_to 11000
  144.8997  140.7627  143.5874 LP  0  0  0  0  0  0  0  0  0  0  0  0  # atno 17320 bound_to 7965
  145.3022  139.1846  143.4683 LP  0  0  0  0  0  0  0  0  0  0  0  0  # atno 17321 bound_to 7965
  139.6963  144.7641  151.1351 LP  0  0  0  0  0  0  0  0  0  0  0  0  # atno 17342 bound_to 10162
  140.7691  143.5519  150.9195 LP  0  0  0  0  0  0  0  0  0  0  0  0  # atno 17343 bound_to 10162
  156.6402  130.4456  149.5755 LP  0  0  0  0  0  0  0  0  0  0  0  0  # atno 17370 bound_to 10713
  156.2215  130.6740  151.1373 LP  0  0  0  0  0  0  0  0  0  0  0  0  # atno 17371 bound_to 10713
  140.5999  134.5565  157.5515 LP  0  0  0  0  0  0  0  0  0  0  0  0  # atno 17394 bound_to 11000
  139.9375  134.7849  156.0765 LP  0  0  0  0  0  0  0  0  0  0  0  0  # atno 17395 bound_to 11000

$$$$
