AV-unprocessed.smi:1470|AV-procd|sdf|5960|dock7
  -GOLD-   22720 6 43D 1   1.00000     0.00000
 Structure written by MMmdl.
 42 43  0  0  0  0  0  0  0  0  1 V2000
  145.4430  134.1807  151.4989 C   0  0  0  0  0  0  0  0  0  0  0  0
  145.7723  135.4547  152.0227 O   0  0  0  0  0  0  0  0  0  0  0  0
  145.6823  136.4848  151.0522 C   0  0  0  0  0  0  0  0  0  0  0  0
  145.8538  137.8538  151.7276 C   0  0  0  0  0  0  0  0  0  0  0  0
  147.1569  137.9796  152.3720 N   0  0  0  0  0  0  0  0  0  0  0  0
  147.4497  138.8367  153.3604 C   0  0  0  0  0  0  0  0  0  0  0  0
  146.6308  139.6109  153.8552 O   0  0  0  0  0  0  0  0  0  0  0  0
  148.7322  138.7167  153.7438 N   0  0  0  0  0  0  0  0  0  0  0  0
  149.4337  139.4862  154.7101 C   0  0  0  0  0  0  0  0  0  0  0  0
  150.8207  139.2847  154.8450 C   0  0  0  0  0  0  0  0  0  0  0  0
  151.5398  140.0536  155.7795 C   0  0  0  0  0  0  0  0  0  0  0  0
  150.8531  141.0180  156.5539 C   0  0  0  0  0  0  0  0  0  0  0  0
  151.5542  141.8012  157.4968 N   0  0  0  0  0  0  0  0  0  0  0  0
  150.9607  143.0812  157.8933 C   0  0  0  0  0  0  0  0  0  0  0  0
  151.9905  143.9767  158.6028 C   0  0  0  0  0  0  0  0  0  0  0  0
  152.6446  143.2393  159.7802 C   0  0  0  0  0  0  0  0  0  0  0  0
  153.2532  141.9150  159.2962 C   0  0  0  0  0  0  0  0  0  0  0  0
  152.2022  141.0529  158.5761 C   0  0  0  0  0  0  0  0  0  0  0  0
  149.5212  141.2250  156.4089 N   0  0  0  0  0  0  0  0  0  0  0  0
  148.8343  140.4836  155.5146 C   0  0  0  0  0  0  0  0  0  0  0  0
  145.5273  133.4299  152.2846 H   0  0  0  0  0  0  0  0  0  0  0  0
  146.1191  133.8996  150.6905 H   0  0  0  0  0  0  0  0  0  0  0  0
  144.4193  134.1614  151.1230 H   0  0  0  0  0  0  0  0  0  0  0  0
  146.4683  136.3471  150.3080 H   0  0  0  0  0  0  0  0  0  0  0  0
  144.7263  136.4364  150.5279 H   0  0  0  0  0  0  0  0  0  0  0  0
  145.6869  138.6613  151.0128 H   0  0  0  0  0  0  0  0  0  0  0  0
  145.0956  137.9691  152.5023 H   0  0  0  0  0  0  0  0  0  0  0  0
  147.8915  137.3763  152.0326 H   0  0  0  0  0  0  0  0  0  0  0  0
  149.2568  137.9648  153.3218 H   0  0  0  0  0  0  0  0  0  0  0  0
  151.3321  138.5490  154.2415 H   0  0  0  0  0  0  0  0  0  0  0  0
  152.6051  139.9081  155.8797 H   0  0  0  0  0  0  0  0  0  0  0  0
  150.5786  143.6066  157.0169 H   0  0  0  0  0  0  0  0  0  0  0  0
  150.1125  142.8932  158.5532 H   0  0  0  0  0  0  0  0  0  0  0  0
  152.7594  144.2820  157.8917 H   0  0  0  0  0  0  0  0  0  0  0  0
  151.5107  144.8912  158.9522 H   0  0  0  0  0  0  0  0  0  0  0  0
  153.4131  143.8634  160.2373 H   0  0  0  0  0  0  0  0  0  0  0  0
  151.8996  143.0425  160.5520 H   0  0  0  0  0  0  0  0  0  0  0  0
  154.0820  142.1208  158.6174 H   0  0  0  0  0  0  0  0  0  0  0  0
  153.6723  141.3654  160.1393 H   0  0  0  0  0  0  0  0  0  0  0  0
  151.4366  140.7338  159.2844 H   0  0  0  0  0  0  0  0  0  0  0  0
  152.6814  140.1466  158.2082 H   0  0  0  0  0  0  0  0  0  0  0  0
  147.7856  140.7251  155.4376 H   0  0  0  0  0  0  0  0  0  0  0  0
  1  2  1  0  0  0  0
  1 21  1  0  0  0  0
  1 22  1  0  0  0  0
  1 23  1  0  0  0  0
  2  3  1  0  0  0  0
  3  4  1  0  0  0  0
  3 24  1  0  0  0  0
  3 25  1  0  0  0  0
  4  5  1  0  0  0  0
  4 26  1  0  0  0  0
  4 27  1  0  0  0  0
  5  6  1  0  0  0  0
  5 28  1  0  0  0  0
  6  7  2  0  0  0  0
  6  8  1  0  0  0  0
  8  9  1  0  0  0  0
  8 29  1  0  0  0  0
  9 20  1  0  0  0  0
  9 10  2  0  0  0  0
 10 11  1  0  0  0  0
 10 30  1  0  0  0  0
 11 12  2  0  0  0  0
 11 31  1  0  0  0  0
 12 13  1  0  0  0  0
 12 19  1  0  0  0  0
 13 18  1  0  0  0  0
 13 14  1  0  0  0  0
 14 15  1  0  0  0  0
 14 32  1  0  0  0  0
 14 33  1  0  0  0  0
 15 16  1  0  0  0  0
 15 34  1  0  0  0  0
 15 35  1  0  0  0  0
 16 17  1  0  0  0  0
 16 36  1  0  0  0  0
 16 37  1  0  0  0  0
 17 18  1  0  0  0  0
 17 38  1  0  0  0  0
 17 39  1  0  0  0  0
 18 40  1  0  0  0  0
 18 41  1  0  0  0  0
 19 20  2  0  0  0  0
 20 42  1  0  0  0  0
M  END
> <s_m_source_file>
AV-unprocessed.smi

> <i_m_source_file_index>
1470

> <i_lp_mmshare_version>
43012

> <i_f3d_flags>
0

> <s_epik_input>
W0NIM11PW0NIMl1bQ0gyXVtOSF1DKD1PKVtOSF1jMVtjSF1bY0hdYyhuW2NIXTEpTjJbQ0gyXVtDSDJdW0NIMl1bQ0gyXVtDSDJdMg==

> <s_epik_cmdline>
J2VwaWtfcHl0aG9uJywgJy1waCcsICc3LjAnLCAnLXRuJywgJzgnLCAnLW1hJywgJzIwMCcsICctbWV0YWxfYmluZGluZycsICctaW1hZScsICc8aW5maWxlLm1hZT4nLCAnLW9tYWUnLCAnPG91dGZpbGUubWFlPic=

> <r_lp_tautomer_probability>
1

> <r_epik_Ionization_Penalty>
0.104129

> <r_epik_Ionization_Penalty_Charging>
0

> <r_epik_Ionization_Penalty_Neutral>
0.104129

> <r_epik_State_Penalty>
0.0879167

> <r_epik_Charging_Adjusted_Penalty>
0.0879167

> <i_epik_Tot_Q>
0

> <i_epik_Tot_abs_Q>
0

> <r_epik_Metal_State_Penalty>
0.0753231

> <b_epik_Metal_Only>
0

> <s_lp_Force_Field>
OPLS_2005

> <r_lp_Energy>
19.434

> <b_lp_Chiralities_Consistent>
1

> <s_lp_Variant>
AV-unprocessed.smi:1470-1

> <Gold.Version>
5.8.1

> <Gold.Id.Protein>
6NUR|6NUR_protein|mol2

> <Gold.PLP.Fitness>
43.4353

> <Gold.PLP.PLP>
-40.0861

> <Gold.PLP.part.hbond>
-3.6209

> <Gold.PLP.part.metal>
0.0000

> <Gold.PLP.part.buried>
5.0473

> <Gold.PLP.part.nonpolar>
-43.5388

> <Gold.PLP.part.repulsive>
0.7237

> <Gold.PLP.ligand.clash>
0.0000

> <Gold.PLP.ligand.torsion>
0.5010

> <Gold.PLP.Chemscore.Hbond>
1.3032

> <Gold.PLP.Chemscore.CHOScore>
0.0000

> <Gold.PLP.Chemscore.Metal>
0.0000

> <Gold.Chemscore.Hbonds>
donor molecule, donor type, donor heavy atom, donor atom, acceptor molecule, acceptor atom, score
      L1  H     5    28       P1  7948  1.00
      L1  H     8    29       P1  7948  0.36

> <Gold.PLP.Chemscore.Internal.Correction>
0.4417

> <Gold.Rescore>
     Score         DG    S(hbond)    S(metal)    S(lipo)     H(rot)  DE(clash)    DE(int)     intcor
     13.72     -15.94       1.00        0.00      96.22       1.61       0.56       1.67       ----

> <Gold.Chemscore.Fitness>
13.7214

> <Gold.Chemscore.DG>
-15.9450

> <Gold.Chemscore.ZeroCoef>
-5.4800

> <Gold.Chemscore.Hbond>
0.9955

> <Gold.Chemscore.Metal>
0.0000

> <Gold.Chemscore.Lipo>
96.2221

> <Gold.Chemscore.Internal_Hbond>
0.0000

> <Gold.Chemscore.DEClash>
0.5575

> <Gold.Chemscore.DEInternal>
1.6661

> <Gold.Chemscore.Rot>
1.6086

> <Gold.Chemscore.Internal.Correction>
   9.000000E+99

> <Gold.Chemscore.Hbonds>
donor molecule, donor type, donor heavy atom, donor atom, acceptor molecule, acceptor atom, score
      L1  H     5    28       P1  7948  0.95
      L1  H     8    29       P1  7948  0.35

> <Gold.Chemscore.Hbond.Weighted>
-3.3249

> <Gold.Chemscore.Metal.Weighted>
-0.0000

> <Gold.Chemscore.Lipo.Weighted>
-11.2580

> <Gold.Chemscore.Internal_Hbond.Weighted>
0.0000

> <Gold.Chemscore.DEClash.Weighted>
0.5575

> <Gold.Chemscore.DEInternal.Weighted>
1.6661

> <Gold.Chemscore.Rot.Weighted>
4.1179

> <Gold.Chemscore.Internal.Correction.Weighted>
   9.000000E+99

> <Gold.Protein.RotatedTorsions>
[ 6907 6896 6895 6894 ] final -140.95 input  -60.11 | X-H torsion
[ 7974 7965 7964 7962 ] final  -58.74 input  175.53 | X-H torsion
[ 8008 7997 7996 7995 ] final   76.13 input   59.86 | X-H torsion
[ 10167 10162 10161 10158 ] final   31.52 input  -65.29 | X-H torsion
[ 10718 10713 10712 10709 ] final  123.25 input   66.30 | X-H torsion
[ 10763 10752 10751 10750 ] final  -50.89 input  -60.55 | X-H torsion
[ 11005 11000 10999 10996 ] final -106.76 input  -57.11 | X-H torsion

> <Gold.Protein.ActiveResidues>
 VAL166  LYS551  ARG553  GLY616  TRP617  ASP618  TYR619  PRO620  LYS621  CYS622 
 ASP623  PHE694  ASN695  SER759  ASP760  ASP761  ALA762  ILE779  LEU786  VAL792 
 PHE793  MET794  SER795  GLU796  ALA797  LYS798  CYS799  TRP800  GLU811  SER814 

> <Gold.Protein.RotatedAtoms>
  151.0674  133.5494  159.2629 H   0  0  0  0  0  0  0  0  0  0  0  0  # atno 6907 bound_to 6896
  151.2446  135.0600  159.9048 H   0  0  0  0  0  0  0  0  0  0  0  0  # atno 6908 bound_to 6896
  152.5407  134.0444  159.8136 H   0  0  0  0  0  0  0  0  0  0  0  0  # atno 6909 bound_to 6896
  145.8357  140.8450  143.0060 H   0  0  0  0  0  0  0  0  0  0  0  0  # atno 7974 bound_to 7965
  155.8229  140.3469  155.5525 H   0  0  0  0  0  0  0  0  0  0  0  0  # atno 8008 bound_to 7997
  155.8324  140.0929  157.1805 H   0  0  0  0  0  0  0  0  0  0  0  0  # atno 8009 bound_to 7997
  154.4004  140.1410  156.3617 H   0  0  0  0  0  0  0  0  0  0  0  0  # atno 8010 bound_to 7997
  140.4581  144.0948  150.6206 H   0  0  0  0  0  0  0  0  0  0  0  0  # atno 10167 bound_to 10162
  157.5679  131.1085  150.8420 H   0  0  0  0  0  0  0  0  0  0  0  0  # atno 10718 bound_to 10713
  154.1177  135.6539  153.4897 H   0  0  0  0  0  0  0  0  0  0  0  0  # atno 10763 bound_to 10752
  153.0235  135.5263  154.7128 H   0  0  0  0  0  0  0  0  0  0  0  0  # atno 10764 bound_to 10752
  154.6327  135.2978  155.0168 H   0  0  0  0  0  0  0  0  0  0  0  0  # atno 10765 bound_to 10752
  141.0988  133.8921  157.1894 H   0  0  0  0  0  0  0  0  0  0  0  0  # atno 11005 bound_to 11000
  144.6736  140.0738  143.7472 LP  0  0  0  0  0  0  0  0  0  0  0  0  # atno 17320 bound_to 7965
  145.9521  139.2741  143.1206 LP  0  0  0  0  0  0  0  0  0  0  0  0  # atno 17321 bound_to 7965
  140.4127  143.2649  151.9813 LP  0  0  0  0  0  0  0  0  0  0  0  0  # atno 17342 bound_to 10162
  139.4803  144.5901  151.7786 LP  0  0  0  0  0  0  0  0  0  0  0  0  # atno 17343 bound_to 10162
  156.8899  130.5209  149.5287 LP  0  0  0  0  0  0  0  0  0  0  0  0  # atno 17370 bound_to 10713
  156.0726  130.5756  150.9413 LP  0  0  0  0  0  0  0  0  0  0  0  0  # atno 17371 bound_to 10713
  139.9833  135.0091  156.9802 LP  0  0  0  0  0  0  0  0  0  0  0  0  # atno 17394 bound_to 11000
  140.5073  134.1037  155.7263 LP  0  0  0  0  0  0  0  0  0  0  0  0  # atno 17395 bound_to 11000

$$$$
