AV-unprocessed.smi:1570|AV-procd|sdf|6321|dock2
  -GOLD-   22720 6533D 1   1.00000     0.00000
 Structure written by MMmdl.
 52 54  0  0  0  0  0  0  0  0  2 V2000
  155.4333  140.5075  160.2152 C   0  0  0  0  0  0  0  0  0  0  0  0
  154.1713  141.1285  160.8277 C   0  0  0  0  0  0  0  0  0  0  0  0
  153.2276  141.5378  159.7906 N   0  0  0  0  0  0  0  0  0  0  0  0
  152.8608  140.8182  158.7048 C   0  0  0  0  0  0  0  0  0  0  0  0
  153.2770  139.7000  158.4009 O   0  0  0  0  0  0  0  0  0  0  0  0
  151.9388  141.5330  158.0170 N   0  0  0  0  0  0  0  0  0  0  0  0
  151.2714  141.1235  156.7820 C   0  0  0  0  0  0  0  0  0  0  0  0
  149.9080  140.4587  157.0609 C   0  0  1  0  0  0  0  0  0  0  0  0
  150.0121  139.7221  158.2639 O   0  0  0  0  0  0  0  0  0  0  0  0
  148.7905  141.5042  157.2479 C   0  0  0  0  0  0  0  0  0  0  0  0
  147.7453  141.4000  156.1988 N   0  3  1  0  0  0  0  0  0  0  0  0
  148.2446  141.7699  154.8539 C   0  0  0  0  0  0  0  0  0  0  0  0
  147.1114  141.7236  153.8096 C   0  0  2  0  0  0  0  0  0  0  0  0
  146.1198  142.8949  153.9275 C   0  0  0  0  0  0  0  0  0  0  0  0
  146.4566  140.4553  153.8471 O   0  0  0  0  0  0  0  0  0  0  0  0
  145.9402  140.0830  155.1227 C   0  0  1  0  0  0  0  0  0  0  0  0
  145.2840  138.7047  154.9828 C   0  0  0  0  0  0  0  0  0  0  0  0
  147.0825  140.0745  156.1534 C   0  0  0  0  0  0  0  0  0  0  0  0
  151.6988  142.7401  158.6899 C   0  0  0  0  0  0  0  0  0  0  0  0
  150.8296  143.8069  158.4006 C   0  0  0  0  0  0  0  0  0  0  0  0
  150.8201  144.8964  159.3030 C   0  0  0  0  0  0  0  0  0  0  0  0
  151.6561  144.8988  160.4495 C   0  0  0  0  0  0  0  0  0  0  0  0
  152.5189  143.8110  160.7190 C   0  0  0  0  0  0  0  0  0  0  0  0
  152.5104  142.7424  159.8057 C   0  0  0  0  0  0  0  0  0  0  0  0
  156.1342  140.2059  160.9938 H   0  0  0  0  0  0  0  0  0  0  0  0
  155.9455  141.2157  159.5634 H   0  0  0  0  0  0  0  0  0  0  0  0
  155.1917  139.6226  159.6254 H   0  0  0  0  0  0  0  0  0  0  0  0
  153.6911  140.4158  161.4988 H   0  0  0  0  0  0  0  0  0  0  0  0
  154.4429  141.9874  161.4434 H   0  0  0  0  0  0  0  0  0  0  0  0
  151.1705  141.9584  156.0880 H   0  0  0  0  0  0  0  0  0  0  0  0
  151.9308  140.4104  156.2843 H   0  0  0  0  0  0  0  0  0  0  0  0
  149.6517  139.7786  156.2494 H   0  0  0  0  0  0  0  0  0  0  0  0
  149.1727  139.7310  158.6988 H   0  0  0  0  0  0  0  0  0  0  0  0
  148.3473  141.3714  158.2365 H   0  0  0  0  0  0  0  0  0  0  0  0
  149.2014  142.5150  157.2362 H   0  0  0  0  0  0  0  0  0  0  0  0
  148.6872  142.7668  154.8764 H   0  0  0  0  0  0  0  0  0  0  0  0
  149.0383  141.0782  154.5672 H   0  0  0  0  0  0  0  0  0  0  0  0
  147.5683  141.7973  152.8221 H   0  0  0  0  0  0  0  0  0  0  0  0
  146.6247  143.8463  153.7580 H   0  0  0  0  0  0  0  0  0  0  0  0
  145.6538  142.9472  154.9111 H   0  0  0  0  0  0  0  0  0  0  0  0
  145.3263  142.8079  153.1850 H   0  0  0  0  0  0  0  0  0  0  0  0
  145.1722  140.7926  155.4318 H   0  0  0  0  0  0  0  0  0  0  0  0
  144.8585  138.3739  155.9306 H   0  0  0  0  0  0  0  0  0  0  0  0
  146.0060  137.9540  154.6600 H   0  0  0  0  0  0  0  0  0  0  0  0
  144.4788  138.7294  154.2481 H   0  0  0  0  0  0  0  0  0  0  0  0
  147.8166  139.3086  155.8962 H   0  0  0  0  0  0  0  0  0  0  0  0
  146.6833  139.8131  157.1328 H   0  0  0  0  0  0  0  0  0  0  0  0
  150.1910  143.8011  157.5301 H   0  0  0  0  0  0  0  0  0  0  0  0
  150.1667  145.7363  159.1180 H   0  0  0  0  0  0  0  0  0  0  0  0
  151.6318  145.7405  161.1259 H   0  0  0  0  0  0  0  0  0  0  0  0
  153.1545  143.8053  161.5922 H   0  0  0  0  0  0  0  0  0  0  0  0
  147.0372  142.0810  156.4357 H   0  0  0  0  0  0  0  0  0  0  0  0
  1  2  1  0  0  0  0
  1 25  1  0  0  0  0
  1 26  1  0  0  0  0
  1 27  1  0  0  0  0
  2  3  1  0  0  0  0
  2 28  1  0  0  0  0
  2 29  1  0  0  0  0
  3 24  1  0  0  0  0
  3  4  1  0  0  0  0
  4  5  2  0  0  0  0
  4  6  1  0  0  0  0
  6  7  1  0  0  0  0
  6 19  1  0  0  0  0
  7  8  1  0  0  0  0
  7 30  1  0  0  0  0
  7 31  1  0  0  0  0
  8  9  1  0  0  0  0
  8 10  1  0  0  0  0
  8 32  1  0  0  0  0
  9 33  1  0  0  0  0
 10 11  1  0  0  0  0
 10 34  1  0  0  0  0
 10 35  1  0  0  0  0
 11 18  1  0  0  0  0
 11 12  1  0  0  0  0
 11 52  1  0  0  0  0
 12 13  1  0  0  0  0
 12 36  1  0  0  0  0
 12 37  1  0  0  0  0
 13 14  1  0  0  0  0
 13 15  1  0  0  0  0
 13 38  1  0  0  0  0
 14 39  1  0  0  0  0
 14 40  1  0  0  0  0
 14 41  1  0  0  0  0
 15 16  1  0  0  0  0
 16 17  1  0  0  0  0
 16 18  1  0  0  0  0
 16 42  1  0  0  0  0
 17 43  1  0  0  0  0
 17 44  1  0  0  0  0
 17 45  1  0  0  0  0
 18 46  1  0  0  0  0
 18 47  1  0  0  0  0
 19 24  2  0  0  0  0
 19 20  1  0  0  0  0
 20 21  2  0  0  0  0
 20 48  1  0  0  0  0
 21 22  1  0  0  0  0
 21 49  1  0  0  0  0
 22 23  2  0  0  0  0
 22 50  1  0  0  0  0
 23 24  1  0  0  0  0
 23 51  1  0  0  0  0
M  CHG  1  11   1
M  END
> <s_m_source_file>
AV-unprocessed.smi

> <i_m_source_file_index>
1570

> <i_lp_mmshare_version>
43012

> <i_f3d_flags>
0

> <s_epik_input>
W2NIXTFbY0hdW2NIXVtjSF1jKGMxMiluKFtDSDJdW0NIM10pYyg9TyluMltDSDJdW0NASF0oW09IXSlbQ0gyXU4zW0NIMl1bQ0BASF0oW0NIM10pT1tDQEBIXShbQ0gzXSlbQ0gyXTM=

> <s_epik_cmdline>
J2VwaWtfcHl0aG9uJywgJy1waCcsICc3LjAnLCAnLXRuJywgJzgnLCAnLW1hJywgJzIwMCcsICctbWV0YWxfYmluZGluZycsICctaW1hZScsICc8aW5maWxlLm1hZT4nLCAnLW9tYWUnLCAnPG91dGZpbGUubWFlPic=

> <r_epik_Ionization_Penalty>
0.706332

> <r_epik_Ionization_Penalty_Charging>
0.706318

> <r_epik_Ionization_Penalty_Neutral>
1.42224e-05

> <r_epik_State_Penalty>
0.729493

> <r_epik_Charging_Adjusted_Penalty>
1.43581

> <i_epik_Tot_Q>
1

> <i_epik_Tot_abs_Q>
1

> <r_epik_Metal_State_Penalty>
0.729493

> <b_epik_Metal_Only>
0

> <s_lp_Force_Field>
OPLS_2005

> <r_lp_Energy>
54.8336

> <b_lp_Chiralities_Consistent>
1

> <s_lp_Variant>
AV-unprocessed.smi:1570-10

> <Gold.Version>
5.8.1

> <Gold.Id.Protein>
6NUR|6NUR_protein|mol2

> <Gold.PLP.Fitness>
47.0400

> <Gold.PLP.PLP>
-47.0769

> <Gold.PLP.part.hbond>
-1.0000

> <Gold.PLP.part.metal>
0.0000

> <Gold.PLP.part.buried>
-6.9423

> <Gold.PLP.part.nonpolar>
-39.6201

> <Gold.PLP.part.repulsive>
0.1726

> <Gold.PLP.ligand.clash>
0.0000

> <Gold.PLP.ligand.torsion>
1.5760

> <Gold.PLP.Chemscore.Hbond>
1.0000

> <Gold.PLP.Chemscore.CHOScore>
0.0000

> <Gold.PLP.Chemscore.Metal>
0.0000

> <Gold.Chemscore.Hbonds>
donor molecule, donor type, donor heavy atom, donor atom, acceptor molecule, acceptor atom, score
      P1  H  7997  8010       L1     5  1.00

> <Gold.PLP.Chemscore.Internal.Correction>
0.1152

> <Gold.Rescore>
     Score         DG    S(hbond)    S(metal)    S(lipo)     H(rot)  DE(clash)    DE(int)     intcor
     14.08     -16.95       0.86        0.00     120.10       2.13       0.06       2.81       ----

> <Gold.Chemscore.Fitness>
14.0776

> <Gold.Chemscore.DG>
-16.9509

> <Gold.Chemscore.ZeroCoef>
-5.4800

> <Gold.Chemscore.Hbond>
0.8599

> <Gold.Chemscore.Metal>
0.0000

> <Gold.Chemscore.Lipo>
120.1050

> <Gold.Chemscore.Internal_Hbond>
0.0000

> <Gold.Chemscore.DEClash>
0.0648

> <Gold.Chemscore.DEInternal>
2.8084

> <Gold.Chemscore.Rot>
2.1303

> <Gold.Chemscore.Internal.Correction>
   9.000000E+99

> <Gold.Chemscore.Hbonds>
donor molecule, donor type, donor heavy atom, donor atom, acceptor molecule, acceptor atom, score
      P1  H  7997  8010       L1     5  0.49

> <Gold.Chemscore.Hbond.Weighted>
-2.8721

> <Gold.Chemscore.Metal.Weighted>
-0.0000

> <Gold.Chemscore.Lipo.Weighted>
-14.0523

> <Gold.Chemscore.Internal_Hbond.Weighted>
0.0000

> <Gold.Chemscore.DEClash.Weighted>
0.0648

> <Gold.Chemscore.DEInternal.Weighted>
2.8084

> <Gold.Chemscore.Rot.Weighted>
5.4535

> <Gold.Chemscore.Internal.Correction.Weighted>
   9.000000E+99

> <Gold.Protein.RotatedTorsions>
[ 6907 6896 6895 6894 ] final  -49.72 input  -60.11 | X-H torsion
[ 7974 7965 7964 7962 ] final    7.78 input  175.53 | X-H torsion
[ 8008 7997 7996 7995 ] final   19.91 input   59.86 | X-H torsion
[ 10167 10162 10161 10158 ] final -129.28 input  -65.29 | X-H torsion
[ 10718 10713 10712 10709 ] final  146.09 input   66.30 | X-H torsion
[ 10763 10752 10751 10750 ] final   71.81 input  -60.55 | X-H torsion
[ 11005 11000 10999 10996 ] final  103.01 input  -57.11 | X-H torsion

> <Gold.Protein.ActiveResidues>
 VAL166  LYS551  ARG553  GLY616  TRP617  ASP618  TYR619  PRO620  LYS621  CYS622 
 ASP623  PHE694  ASN695  SER759  ASP760  ASP761  ALA762  ILE779  LEU786  VAL792 
 PHE793  MET794  SER795  GLU796  ALA797  LYS798  CYS799  TRP800  GLU811  SER814 

> <Gold.Protein.RotatedAtoms>
  150.8777  134.8163  159.7201 H   0  0  0  0  0  0  0  0  0  0  0  0  # atno 6907 bound_to 6896
  152.4757  134.4845  159.9686 H   0  0  0  0  0  0  0  0  0  0  0  0  # atno 6908 bound_to 6896
  151.4924  133.3483  159.2891 H   0  0  0  0  0  0  0  0  0  0  0  0  # atno 6909 bound_to 6896
  146.2423  140.0032  142.8414 H   0  0  0  0  0  0  0  0  0  0  0  0  # atno 7974 bound_to 7965
  154.9277  140.3036  155.5183 H   0  0  0  0  0  0  0  0  0  0  0  0  # atno 8008 bound_to 7997
  156.3005  140.2359  156.4270 H   0  0  0  0  0  0  0  0  0  0  0  0  # atno 8009 bound_to 7997
  154.8268  140.0420  157.1438 H   0  0  0  0  0  0  0  0  0  0  0  0  # atno 8010 bound_to 7997
  139.9415  143.6158  152.2502 H   0  0  0  0  0  0  0  0  0  0  0  0  # atno 10167 bound_to 10162
  157.3374  131.0930  151.1111 H   0  0  0  0  0  0  0  0  0  0  0  0  # atno 10718 bound_to 10713
  153.0421  135.5123  154.7649 H   0  0  0  0  0  0  0  0  0  0  0  0  # atno 10763 bound_to 10752
  154.6578  135.2934  154.9907 H   0  0  0  0  0  0  0  0  0  0  0  0  # atno 10764 bound_to 10752
  154.0769  135.6669  153.4885 H   0  0  0  0  0  0  0  0  0  0  0  0  # atno 10765 bound_to 10752
  139.8781  134.9246  156.5145 H   0  0  0  0  0  0  0  0  0  0  0  0  # atno 11005 bound_to 11000
  145.1396  140.9564  143.4496 LP  0  0  0  0  0  0  0  0  0  0  0  0  # atno 17320 bound_to 7965
  145.0309  139.3342  143.6025 LP  0  0  0  0  0  0  0  0  0  0  0  0  # atno 17321 bound_to 7965
  139.6701  144.7661  151.1799 LP  0  0  0  0  0  0  0  0  0  0  0  0  # atno 17342 bound_to 10162
  140.7609  143.5878  150.8827 LP  0  0  0  0  0  0  0  0  0  0  0  0  # atno 17343 bound_to 10162
  157.2336  130.6537  149.5860 LP  0  0  0  0  0  0  0  0  0  0  0  0  # atno 17370 bound_to 10713
  155.9703  130.4591  150.6022 LP  0  0  0  0  0  0  0  0  0  0  0  0  # atno 17371 bound_to 10713
  140.8496  133.8142  155.9155 LP  0  0  0  0  0  0  0  0  0  0  0  0  # atno 17394 bound_to 11000
  140.9158  134.2204  157.4958 LP  0  0  0  0  0  0  0  0  0  0  0  0  # atno 17395 bound_to 11000

$$$$
