AV-unprocessed.smi:2884|AV-procd|sdf|11084|dock5
  -GOLD-   2272015553D 1   1.00000     0.00000
 Structure written by MMmdl.
 42 43  0  0  0  0  0  0  0  0  3 V2000
  152.4647  144.5180  159.2149 C   0  0  0  0  0  0  0  0  0  0  0  0
  151.5922  144.7551  157.9756 C   0  0  0  0  0  0  0  0  0  0  0  0
  151.6259  143.5796  156.9916 C   0  0  0  0  0  0  0  0  0  0  0  0
  150.6986  142.5973  157.4415 O   0  0  0  0  0  0  0  0  0  0  0  0
  150.0471  141.7421  156.4936 C   0  0  0  0  0  0  0  0  0  0  0  0
  151.2221  140.8806  155.9660 C   0  0  0  0  0  0  0  0  0  0  0  0
  151.3380  139.6100  156.6719 N   0  0  0  0  0  0  0  0  0  0  0  0
  151.3017  138.3112  156.1788 C   0  0  0  0  0  0  0  0  0  0  0  0
  151.1334  138.0192  154.7961 C   0  0  0  0  0  0  0  0  0  0  0  0
  151.1036  136.7575  154.3791 N   0  3  0  0  0  0  0  0  0  0  0  0
  151.2247  135.7226  155.1802 N   0  5  0  0  0  0  0  0  0  0  0  0
  151.3941  135.8685  156.5282 C   0  0  0  0  0  0  0  0  0  0  0  0
  151.5100  134.9182  157.2996 O   0  0  0  0  0  0  0  0  0  0  0  0
  151.4319  137.2540  157.0315 C   0  0  0  0  0  0  0  0  0  0  0  0
  151.6356  137.5073  158.7338 Cl  0  0  0  0  0  0  0  0  0  0  0  0
  148.9330  140.8726  157.1422 C   0  0  0  0  0  0  0  0  0  0  0  0
  148.1972  139.9972  156.1121 C   0  0  0  0  0  0  0  0  0  0  0  0
  147.6110  140.8519  154.9774 C   0  0  0  0  0  0  0  0  0  0  0  0
  148.6903  141.7163  154.3065 C   0  0  0  0  0  0  0  0  0  0  0  0
  149.4397  142.5807  155.3382 C   0  0  0  0  0  0  0  0  0  0  0  0
  150.9782  136.6226  153.3638 H   0  0  0  0  0  0  0  0  0  0  0  0
  152.4015  145.3621  159.9016 H   0  0  0  0  0  0  0  0  0  0  0  0
  153.5129  144.3897  158.9427 H   0  0  0  0  0  0  0  0  0  0  0  0
  152.1475  143.6254  159.7547 H   0  0  0  0  0  0  0  0  0  0  0  0
  150.5635  144.9244  158.2944 H   0  0  0  0  0  0  0  0  0  0  0  0
  151.9111  145.6670  157.4699 H   0  0  0  0  0  0  0  0  0  0  0  0
  151.3808  143.9460  155.9961 H   0  0  0  0  0  0  0  0  0  0  0  0
  152.6364  143.1743  156.9588 H   0  0  0  0  0  0  0  0  0  0  0  0
  151.1390  140.7195  154.8941 H   0  0  0  0  0  0  0  0  0  0  0  0
  152.1594  141.4186  156.1110 H   0  0  0  0  0  0  0  0  0  0  0  0
  151.2937  139.7002  157.6775 H   0  0  0  0  0  0  0  0  0  0  0  0
  151.0268  138.7852  154.0395 H   0  0  0  0  0  0  0  0  0  0  0  0
  149.3386  140.2515  157.9410 H   0  0  0  0  0  0  0  0  0  0  0  0
  148.1811  141.5070  157.6091 H   0  0  0  0  0  0  0  0  0  0  0  0
  148.8723  139.2486  155.6994 H   0  0  0  0  0  0  0  0  0  0  0  0
  147.3978  139.4437  156.6056 H   0  0  0  0  0  0  0  0  0  0  0  0
  147.1336  140.2103  154.2362 H   0  0  0  0  0  0  0  0  0  0  0  0
  146.8272  141.4966  155.3771 H   0  0  0  0  0  0  0  0  0  0  0  0
  149.3901  141.0795  153.7655 H   0  0  0  0  0  0  0  0  0  0  0  0
  148.2294  142.3595  153.5563 H   0  0  0  0  0  0  0  0  0  0  0  0
  148.7267  143.3046  155.7303 H   0  0  0  0  0  0  0  0  0  0  0  0
  150.2189  143.1603  154.8421 H   0  0  0  0  0  0  0  0  0  0  0  0
  1  2  1  0  0  0  0
  1 22  1  0  0  0  0
  1 23  1  0  0  0  0
  1 24  1  0  0  0  0
  2  3  1  0  0  0  0
  2 25  1  0  0  0  0
  2 26  1  0  0  0  0
  3  4  1  0  0  0  0
  3 27  1  0  0  0  0
  3 28  1  0  0  0  0
  4  5  1  0  0  0  0
  5 20  1  0  0  0  0
  5  6  1  0  0  0  0
  5 16  1  0  0  0  0
  6 29  1  0  0  0  0
  6 30  1  0  0  0  0
  6  7  1  0  0  0  0
  7  8  1  0  0  0  0
  7 31  1  0  0  0  0
  8 14  2  0  0  0  0
  8  9  1  0  0  0  0
  9 32  1  0  0  0  0
  9 10  2  0  0  0  0
 10 11  1  0  0  0  0
 10 21  1  0  0  0  0
 11 12  1  0  0  0  0
 12 13  2  0  0  0  0
 12 14  1  0  0  0  0
 14 15  1  0  0  0  0
 16 17  1  0  0  0  0
 16 33  1  0  0  0  0
 16 34  1  0  0  0  0
 17 18  1  0  0  0  0
 17 35  1  0  0  0  0
 17 36  1  0  0  0  0
 18 19  1  0  0  0  0
 18 37  1  0  0  0  0
 18 38  1  0  0  0  0
 19 20  1  0  0  0  0
 19 39  1  0  0  0  0
 19 40  1  0  0  0  0
 20 41  1  0  0  0  0
 20 42  1  0  0  0  0
M  CHG  1  10   1
M  CHG  1  11  -1
M  END
> <s_m_source_file>
AV-unprocessed.smi

> <i_m_source_file_index>
2884

> <i_lp_mmshare_version>
43012

> <i_f3d_flags>
0

> <s_epik_input>
W0NIMl0xW0NIMl1bQ0gyXVtDSDJdW0NIMl1DMShPW0NIMl1bQ0gyXVtDSDNdKVtDSDJdW05IXWMyW2NIXW5bbkhdYyg9TyljMkNs

> <s_epik_cmdline>
J2VwaWtfcHl0aG9uJywgJy1waCcsICc3LjAnLCAnLXRuJywgJzgnLCAnLW1hJywgJzIwMCcsICctbWV0YWxfYmluZGluZycsICctaW1hZScsICc8aW5maWxlLm1hZT4nLCAnLW9tYWUnLCAnPG91dGZpbGUubWFlPic=

> <r_lp_tautomer_probability>
0.0138196

> <r_epik_Ionization_Penalty>
2.73941

> <r_epik_Ionization_Penalty_Charging>
2.73941

> <r_epik_Ionization_Penalty_Neutral>
1.09968e-06

> <r_epik_State_Penalty>
2.7044

> <r_epik_Charging_Adjusted_Penalty>
5.44381

> <i_epik_Tot_Q>
0

> <i_epik_Tot_abs_Q>
2

> <r_epik_Metal_State_Penalty>
2.9982

> <b_epik_Metal_Only>
0

> <s_lp_Force_Field>
OPLS_2005

> <r_lp_Energy>
38.2513

> <b_lp_Chiralities_Consistent>
1

> <s_lp_Variant>
AV-unprocessed.smi:2884-2

> <Gold.Version>
5.8.1

> <Gold.Id.Protein>
6NUR|6NUR_protein|mol2

> <Gold.PLP.Fitness>
34.7056

> <Gold.PLP.PLP>
-27.3701

> <Gold.PLP.part.hbond>
-3.0000

> <Gold.PLP.part.metal>
0.0000

> <Gold.PLP.part.buried>
2.0243

> <Gold.PLP.part.nonpolar>
-26.5402

> <Gold.PLP.part.repulsive>
0.7790

> <Gold.PLP.ligand.clash>
0.0000

> <Gold.PLP.ligand.torsion>
1.0403

> <Gold.PLP.Chemscore.Hbond>
3.1333

> <Gold.PLP.Chemscore.CHOScore>
0.0000

> <Gold.PLP.Chemscore.Metal>
0.0000

> <Gold.Chemscore.Hbonds>
donor molecule, donor type, donor heavy atom, donor atom, acceptor molecule, acceptor atom, score
      L1  H    10    21       P1  7949  1.90
      P1  H  6896  6909       L1    13  0.01
      P1  H 10752 10763       L1    11  0.98

> <Gold.PLP.Chemscore.Internal.Correction>
0.0163

> <Gold.Rescore>
     Score         DG    S(hbond)    S(metal)    S(lipo)     H(rot)  DE(clash)    DE(int)     intcor
     11.09     -15.26       0.77        0.00     100.17       1.77       2.91       1.26       ----

> <Gold.Chemscore.Fitness>
11.0919

> <Gold.Chemscore.DG>
-15.2598

> <Gold.Chemscore.ZeroCoef>
-5.4800

> <Gold.Chemscore.Hbond>
0.7729

> <Gold.Chemscore.Metal>
0.0000

> <Gold.Chemscore.Lipo>
100.1704

> <Gold.Chemscore.Internal_Hbond>
0.0000

> <Gold.Chemscore.DEClash>
2.9120

> <Gold.Chemscore.DEInternal>
1.2559

> <Gold.Chemscore.Rot>
1.7663

> <Gold.Chemscore.Internal.Correction>
   9.000000E+99

> <Gold.Chemscore.Hbonds>
donor molecule, donor type, donor heavy atom, donor atom, acceptor molecule, acceptor atom, score
      L1  H    10    21       P1  7949  0.21
      P1  H  6896  6909       L1    13  0.02
      P1  H 10752 10763       L1    11  0.01

> <Gold.Chemscore.Hbond.Weighted>
-2.5815

> <Gold.Chemscore.Metal.Weighted>
-0.0000

> <Gold.Chemscore.Lipo.Weighted>
-11.7199

> <Gold.Chemscore.Internal_Hbond.Weighted>
0.0000

> <Gold.Chemscore.DEClash.Weighted>
2.9120

> <Gold.Chemscore.DEInternal.Weighted>
1.2559

> <Gold.Chemscore.Rot.Weighted>
4.5216

> <Gold.Chemscore.Internal.Correction.Weighted>
   9.000000E+99

> <Gold.Protein.RotatedTorsions>
[ 6907 6896 6895 6894 ] final    6.57 input  -60.11 | X-H torsion
[ 7974 7965 7964 7962 ] final  -30.24 input  175.53 | X-H torsion
[ 8008 7997 7996 7995 ] final -104.81 input   59.86 | X-H torsion
[ 10167 10162 10161 10158 ] final   -3.45 input  -65.29 | X-H torsion
[ 10718 10713 10712 10709 ] final  -74.72 input   66.30 | X-H torsion
[ 10763 10752 10751 10750 ] final   76.91 input  -60.55 | X-H torsion
[ 11005 11000 10999 10996 ] final   62.34 input  -57.11 | X-H torsion

> <Gold.Protein.ActiveResidues>
 VAL166  LYS551  ARG553  GLY616  TRP617  ASP618  TYR619  PRO620  LYS621  CYS622 
 ASP623  PHE694  ASN695  SER759  ASP760  ASP761  ALA762  ILE779  LEU786  VAL792 
 PHE793  MET794  SER795  GLU796  ALA797  LYS798  CYS799  TRP800  GLU811  SER814 

> <Gold.Protein.RotatedAtoms>
  151.6759  135.0969  160.0206 H   0  0  0  0  0  0  0  0  0  0  0  0  # atno 6907 bound_to 6896
  152.3864  133.6613  159.6211 H   0  0  0  0  0  0  0  0  0  0  0  0  # atno 6908 bound_to 6896
  150.7789  133.8944  159.3364 H   0  0  0  0  0  0  0  0  0  0  0  0  # atno 6909 bound_to 6896
  146.1158  140.5515  142.8757 H   0  0  0  0  0  0  0  0  0  0  0  0  # atno 7974 bound_to 7965
  154.8907  140.0416  157.1836 H   0  0  0  0  0  0  0  0  0  0  0  0  # atno 8008 bound_to 7997
  154.8544  140.2934  155.5557 H   0  0  0  0  0  0  0  0  0  0  0  0  # atno 8009 bound_to 7997
  156.2997  140.2458  156.3508 H   0  0  0  0  0  0  0  0  0  0  0  0  # atno 8010 bound_to 7997
  140.6890  143.6539  150.8326 H   0  0  0  0  0  0  0  0  0  0  0  0  # atno 10167 bound_to 10162
  156.0232  130.4423  150.2935 H   0  0  0  0  0  0  0  0  0  0  0  0  # atno 10718 bound_to 10713
  153.0760  135.4934  154.8405 H   0  0  0  0  0  0  0  0  0  0  0  0  # atno 10763 bound_to 10752
  154.7087  135.3016  154.9232 H   0  0  0  0  0  0  0  0  0  0  0  0  # atno 10764 bound_to 10752
  153.9933  135.6775  153.4808 H   0  0  0  0  0  0  0  0  0  0  0  0  # atno 10765 bound_to 10752
  140.0099  134.6312  155.9797 H   0  0  0  0  0  0  0  0  0  0  0  0  # atno 11005 bound_to 11000
  144.7551  140.5288  143.6774 LP  0  0  0  0  0  0  0  0  0  0  0  0  # atno 17320 bound_to 7965
  145.5570  139.1478  143.3362 LP  0  0  0  0  0  0  0  0  0  0  0  0  # atno 17321 bound_to 7965
  140.0249  143.5503  152.2785 LP  0  0  0  0  0  0  0  0  0  0  0  0  # atno 17342 bound_to 10162
  139.6275  144.7639  151.2607 LP  0  0  0  0  0  0  0  0  0  0  0  0  # atno 17343 bound_to 10162
  157.1038  131.0203  151.3075 LP  0  0  0  0  0  0  0  0  0  0  0  0  # atno 17370 bound_to 10713
  157.4759  130.7736  149.7367 LP  0  0  0  0  0  0  0  0  0  0  0  0  # atno 17371 bound_to 10713
  141.1703  133.6537  156.4629 LP  0  0  0  0  0  0  0  0  0  0  0  0  # atno 17394 bound_to 11000
  140.4573  134.6873  157.5069 LP  0  0  0  0  0  0  0  0  0  0  0  0  # atno 17395 bound_to 11000

$$$$
