AV-unprocessed.smi:1703|AV-procd|sdf|6858|dock8
  -GOLD-   22720 8 43D 1   1.00000     0.00000
 Structure written by MMmdl.
 48 50  0  0  0  0  0  0  0  0  1 V2000
  153.5640  141.4282  161.3924 C   0  0  0  0  0  0  0  0  0  0  0  0
  152.8795  142.1324  160.2163 C   0  0  1  0  0  0  0  0  0  0  0  0
  151.7372  141.2891  159.6216 C   0  0  0  0  0  0  0  0  0  0  0  0
  151.0337  141.9939  158.5572 N   0  0  0  0  0  0  0  0  0  0  0  0
  149.9822  141.1526  157.9840 C   0  0  0  0  0  0  0  0  0  0  0  0
  149.0225  141.8638  157.0045 C   0  0  1  0  0  0  0  0  0  0  0  0
  149.7402  142.1823  155.8301 O   0  0  0  0  0  0  0  0  0  0  0  0
  147.8142  141.0005  156.5871 C   0  0  0  0  0  0  0  0  0  0  0  0
  146.8413  141.7278  155.7823 N   0  0  0  0  0  0  0  0  0  0  0  0
  146.6944  141.7171  154.4332 C   0  0  0  0  0  0  0  0  0  0  0  0
  147.5665  140.8904  153.5386 C   0  0  0  0  0  0  0  0  0  0  0  0
  148.9342  141.2188  153.6576 O   0  0  0  0  0  0  0  0  0  0  0  0
  145.7147  142.4818  153.9497 N   0  0  0  0  0  0  0  0  0  0  0  0
  145.1681  143.0337  155.0917 C   0  0  0  0  0  0  0  0  0  0  0  0
  144.0902  143.9337  155.2512 C   0  0  0  0  0  0  0  0  0  0  0  0
  143.7050  144.3660  156.5372 C   0  0  0  0  0  0  0  0  0  0  0  0
  144.3906  143.9056  157.6799 C   0  0  0  0  0  0  0  0  0  0  0  0
  145.4667  143.0077  157.5435 C   0  0  0  0  0  0  0  0  0  0  0  0
  145.8480  142.5796  156.2573 C   0  0  0  0  0  0  0  0  0  0  0  0
  150.5186  143.2552  159.0879 C   0  0  0  0  0  0  0  0  0  0  0  0
  151.6193  144.1276  159.7249 C   0  0  2  0  0  0  0  0  0  0  0  0
  152.5448  144.7903  158.6901 C   0  0  0  0  0  0  0  0  0  0  0  0
  152.3562  143.3728  160.6878 O   0  0  0  0  0  0  0  0  0  0  0  0
  153.9918  140.4740  161.0839 H   0  0  0  0  0  0  0  0  0  0  0  0
  152.8583  141.2341  162.2006 H   0  0  0  0  0  0  0  0  0  0  0  0
  154.3719  142.0397  161.7951 H   0  0  0  0  0  0  0  0  0  0  0  0
  153.6292  142.3242  159.4481 H   0  0  0  0  0  0  0  0  0  0  0  0
  152.1479  140.3551  159.2359 H   0  0  0  0  0  0  0  0  0  0  0  0
  151.0339  141.0171  160.4107 H   0  0  0  0  0  0  0  0  0  0  0  0
  150.4390  140.3148  157.4545 H   0  0  0  0  0  0  0  0  0  0  0  0
  149.4123  140.7093  158.8008 H   0  0  0  0  0  0  0  0  0  0  0  0
  148.6527  142.7922  157.4353 H   0  0  0  0  0  0  0  0  0  0  0  0
  149.5209  143.0671  155.5794 H   0  0  0  0  0  0  0  0  0  0  0  0
  148.1480  140.1260  156.0278 H   0  0  0  0  0  0  0  0  0  0  0  0
  147.3067  140.6128  157.4714 H   0  0  0  0  0  0  0  0  0  0  0  0
  147.4393  139.8361  153.7861 H   0  0  0  0  0  0  0  0  0  0  0  0
  147.2549  141.0064  152.5014 H   0  0  0  0  0  0  0  0  0  0  0  0
  149.3873  140.8978  152.8932 H   0  0  0  0  0  0  0  0  0  0  0  0
  143.5584  144.2917  154.3821 H   0  0  0  0  0  0  0  0  0  0  0  0
  142.8796  145.0539  156.6474 H   0  0  0  0  0  0  0  0  0  0  0  0
  144.0898  144.2419  158.6613 H   0  0  0  0  0  0  0  0  0  0  0  0
  145.9944  142.6550  158.4172 H   0  0  0  0  0  0  0  0  0  0  0  0
  150.0262  143.8318  158.3064 H   0  0  0  0  0  0  0  0  0  0  0  0
  149.7570  143.0455  159.8408 H   0  0  0  0  0  0  0  0  0  0  0  0
  151.1313  144.9320  160.2756 H   0  0  0  0  0  0  0  0  0  0  0  0
  151.9812  145.4597  158.0399 H   0  0  0  0  0  0  0  0  0  0  0  0
  153.0386  144.0574  158.0521 H   0  0  0  0  0  0  0  0  0  0  0  0
  153.3180  145.3812  159.1816 H   0  0  0  0  0  0  0  0  0  0  0  0
  1  2  1  0  0  0  0
  1 24  1  0  0  0  0
  1 25  1  0  0  0  0
  1 26  1  0  0  0  0
  2 23  1  0  0  0  0
  2  3  1  0  0  0  0
  2 27  1  0  0  0  0
  3  4  1  0  0  0  0
  3 28  1  0  0  0  0
  3 29  1  0  0  0  0
  4  5  1  0  0  0  0
  4 20  1  0  0  0  0
  5  6  1  0  0  0  0
  5 30  1  0  0  0  0
  5 31  1  0  0  0  0
  6  7  1  0  0  0  0
  6  8  1  0  0  0  0
  6 32  1  0  0  0  0
  7 33  1  0  0  0  0
  8  9  1  0  0  0  0
  8 34  1  0  0  0  0
  8 35  1  0  0  0  0
  9 19  1  0  0  0  0
  9 10  1  0  0  0  0
 10 11  1  0  0  0  0
 10 13  2  0  0  0  0
 11 12  1  0  0  0  0
 11 36  1  0  0  0  0
 11 37  1  0  0  0  0
 12 38  1  0  0  0  0
 13 14  1  0  0  0  0
 14 19  2  0  0  0  0
 14 15  1  0  0  0  0
 15 16  2  0  0  0  0
 15 39  1  0  0  0  0
 16 17  1  0  0  0  0
 16 40  1  0  0  0  0
 17 18  2  0  0  0  0
 17 41  1  0  0  0  0
 18 19  1  0  0  0  0
 18 42  1  0  0  0  0
 20 21  1  0  0  0  0
 20 43  1  0  0  0  0
 20 44  1  0  0  0  0
 21 22  1  0  0  0  0
 21 23  1  0  0  0  0
 21 45  1  0  0  0  0
 22 46  1  0  0  0  0
 22 47  1  0  0  0  0
 22 48  1  0  0  0  0
M  END
> <s_m_source_file>
AV-unprocessed.smi

> <i_m_source_file_index>
1703

> <i_lp_mmshare_version>
43012

> <i_f3d_flags>
0

> <s_epik_input>
W0NIM11bQ0BASF0xW0NIMl1OKFtDSDJdW0NASF0oTzEpW0NIM10pW0NIMl1bQ0BIXShbT0hdKVtDSDJdbihjKG4yKVtDSDJdW09IXSljKGMyMylbY0hdW2NIXVtjSF1bY0hdMw==

> <s_epik_cmdline>
J2VwaWtfcHl0aG9uJywgJy1waCcsICc3LjAnLCAnLXRuJywgJzgnLCAnLW1hJywgJzIwMCcsICctbWV0YWxfYmluZGluZycsICctaW1hZScsICc8aW5maWxlLm1hZT4nLCAnLW9tYWUnLCAnPG91dGZpbGUubWFlPic=

> <r_epik_Ionization_Penalty>
0.307685

> <r_epik_Ionization_Penalty_Charging>
0

> <r_epik_Ionization_Penalty_Neutral>
0.307685

> <r_epik_State_Penalty>
0.277856

> <r_epik_Charging_Adjusted_Penalty>
0.277856

> <i_epik_Tot_Q>
0

> <i_epik_Tot_abs_Q>
0

> <r_epik_Metal_State_Penalty>
0.238959

> <b_epik_Metal_Only>
0

> <s_lp_Force_Field>
OPLS_2005

> <r_lp_Energy>
33.4596

> <b_lp_Chiralities_Consistent>
1

> <s_lp_Variant>
AV-unprocessed.smi:1703-6

> <Gold.Version>
5.8.1

> <Gold.Id.Protein>
6NUR|6NUR_protein|mol2

> <Gold.PLP.Fitness>
49.0407

> <Gold.PLP.PLP>
-43.8088

> <Gold.PLP.part.hbond>
-3.9540

> <Gold.PLP.part.metal>
0.0000

> <Gold.PLP.part.buried>
-6.4486

> <Gold.PLP.part.nonpolar>
-34.1514

> <Gold.PLP.part.repulsive>
0.2520

> <Gold.PLP.ligand.clash>
0.0000

> <Gold.PLP.ligand.torsion>
0.4163

> <Gold.PLP.Chemscore.Hbond>
2.0000

> <Gold.PLP.Chemscore.CHOScore>
0.0000

> <Gold.PLP.Chemscore.Metal>
0.0000

> <Gold.Chemscore.Hbonds>
donor molecule, donor type, donor heavy atom, donor atom, acceptor molecule, acceptor atom, score
      L1  H     7    33       P1  8028  1.00
      L1  H    12    38       P1  7957  1.00

> <Gold.PLP.Chemscore.Internal.Correction>
0.0646

> <Gold.Rescore>
     Score         DG    S(hbond)    S(metal)    S(lipo)     H(rot)  DE(clash)    DE(int)     intcor
     16.60     -17.05       1.95        0.00     106.24       2.88       0.05       0.39       ----

> <Gold.Chemscore.Fitness>
16.6043

> <Gold.Chemscore.DG>
-17.0506

> <Gold.Chemscore.ZeroCoef>
-5.4800

> <Gold.Chemscore.Hbond>
1.9485

> <Gold.Chemscore.Metal>
0.0000

> <Gold.Chemscore.Lipo>
106.2368

> <Gold.Chemscore.Internal_Hbond>
0.0000

> <Gold.Chemscore.DEClash>
0.0515

> <Gold.Chemscore.DEInternal>
0.3948

> <Gold.Chemscore.Rot>
2.8778

> <Gold.Chemscore.Internal.Correction>
   9.000000E+99

> <Gold.Chemscore.Hbonds>
donor molecule, donor type, donor heavy atom, donor atom, acceptor molecule, acceptor atom, score
      L1  H     7    33       P1  8028  1.00
      L1  H    12    38       P1  7957  0.98

> <Gold.Chemscore.Hbond.Weighted>
-6.5080

> <Gold.Chemscore.Metal.Weighted>
-0.0000

> <Gold.Chemscore.Lipo.Weighted>
-12.4297

> <Gold.Chemscore.Internal_Hbond.Weighted>
0.0000

> <Gold.Chemscore.DEClash.Weighted>
0.0515

> <Gold.Chemscore.DEInternal.Weighted>
0.3948

> <Gold.Chemscore.Rot.Weighted>
7.3671

> <Gold.Chemscore.Internal.Correction.Weighted>
   9.000000E+99

> <Gold.Protein.RotatedTorsions>
[ 6907 6896 6895 6894 ] final  -84.54 input  -60.11 | X-H torsion
[ 7974 7965 7964 7962 ] final -158.80 input  175.53 | X-H torsion
[ 8008 7997 7996 7995 ] final  176.51 input   59.86 | X-H torsion
[ 10167 10162 10161 10158 ] final -113.22 input  -65.29 | X-H torsion
[ 10718 10713 10712 10709 ] final  111.82 input   66.30 | X-H torsion
[ 10763 10752 10751 10750 ] final  120.01 input  -60.55 | X-H torsion
[ 11005 11000 10999 10996 ] final  122.73 input  -57.11 | X-H torsion

> <Gold.Protein.ActiveResidues>
 VAL166  LYS551  ARG553  GLY616  TRP617  ASP618  TYR619  PRO620  LYS621  CYS622 
 ASP623  PHE694  ASN695  SER759  ASP760  ASP761  ALA762  ILE779  LEU786  VAL792 
 PHE793  MET794  SER795  GLU796  ALA797  LYS798  CYS799  TRP800  GLU811  SER814 

> <Gold.Protein.RotatedAtoms>
  150.6876  134.3343  159.4840 H   0  0  0  0  0  0  0  0  0  0  0  0  # atno 6907 bound_to 6896
  152.1204  134.9207  160.0572 H   0  0  0  0  0  0  0  0  0  0  0  0  # atno 6908 bound_to 6896
  152.0415  133.3945  159.4376 H   0  0  0  0  0  0  0  0  0  0  0  0  # atno 6909 bound_to 6896
  144.7491  140.3776  143.6062 H   0  0  0  0  0  0  0  0  0  0  0  0  # atno 7974 bound_to 7965
  156.0757  140.1382  156.9775 H   0  0  0  0  0  0  0  0  0  0  0  0  # atno 8008 bound_to 7997
  154.4556  140.0962  156.6798 H   0  0  0  0  0  0  0  0  0  0  0  0  # atno 8009 bound_to 7997
  155.5157  140.3455  155.4399 H   0  0  0  0  0  0  0  0  0  0  0  0  # atno 8010 bound_to 7997
  140.1142  143.4500  152.1733 H   0  0  0  0  0  0  0  0  0  0  0  0  # atno 10167 bound_to 10162
  157.6425  131.0957  150.6805 H   0  0  0  0  0  0  0  0  0  0  0  0  # atno 10718 bound_to 10713
  153.5918  135.3464  155.2913 H   0  0  0  0  0  0  0  0  0  0  0  0  # atno 10763 bound_to 10752
  154.8651  135.4206  154.2507 H   0  0  0  0  0  0  0  0  0  0  0  0  # atno 10764 bound_to 10752
  153.3316  135.7044  153.7013 H   0  0  0  0  0  0  0  0  0  0  0  0  # atno 10765 bound_to 10752
  139.9281  134.9641  156.8153 H   0  0  0  0  0  0  0  0  0  0  0  0  # atno 11005 bound_to 11000
  145.7012  139.1661  143.2592 LP  0  0  0  0  0  0  0  0  0  0  0  0  # atno 17320 bound_to 7965
  146.1414  140.7052  142.9365 LP  0  0  0  0  0  0  0  0  0  0  0  0  # atno 17321 bound_to 7965
  139.5603  144.7401  151.4175 LP  0  0  0  0  0  0  0  0  0  0  0  0  # atno 17342 bound_to 10162
  140.6908  143.7865  150.7253 LP  0  0  0  0  0  0  0  0  0  0  0  0  # atno 17343 bound_to 10162
  156.7127  130.4656  149.5543 LP  0  0  0  0  0  0  0  0  0  0  0  0  # atno 17370 bound_to 10713
  156.1719  130.6442  151.0847 LP  0  0  0  0  0  0  0  0  0  0  0  0  # atno 17371 bound_to 10713
  140.6279  133.9933  155.7648 LP  0  0  0  0  0  0  0  0  0  0  0  0  # atno 17394 bound_to 11000
  141.0852  134.0001  157.3324 LP  0  0  0  0  0  0  0  0  0  0  0  0  # atno 17395 bound_to 11000

$$$$
