AV-unprocessed.smi:104|AV-procd|sdf|1006|dock4
  -GOLD-   2262018 03D 1   1.00000     0.00000
 Structure written by MMmdl.
 47 49  0  0  0  0  0  0  0  0  1 V2000
  147.0150  134.9509  161.1843 C   0  0  0  0  0  0  0  0  0  0  0  0
  147.3085  136.2847  160.5104 C   0  0  0  0  0  0  0  0  0  0  0  0
  147.3645  137.3323  161.1542 O   0  0  0  0  0  0  0  0  0  0  0  0
  147.4872  136.1615  159.1885 O   0  0  0  0  0  0  0  0  0  0  0  0
  147.4243  137.3102  158.3574 C   0  0  0  0  0  0  0  0  0  0  0  0
  148.6555  137.3897  157.4417 C   0  0  1  0  0  0  0  0  0  0  0  0
  149.0547  136.0924  156.9982 O   0  0  0  0  0  0  0  0  0  0  0  0
  149.0109  136.0168  155.6047 C   0  0  1  0  0  0  0  0  0  0  0  0
  147.6655  135.4322  155.2431 N   0  0  0  0  0  0  0  0  0  0  0  0
  147.2391  134.1536  155.5289 C   0  0  0  0  0  0  0  0  0  0  0  0
  148.3342  132.9052  156.4616 Br  0  0  0  0  0  0  0  0  0  0  0  0
  146.0437  133.8118  155.1446 N   0  0  0  0  0  0  0  0  0  0  0  0
  145.5892  134.9606  154.5161 C   0  0  0  0  0  0  0  0  0  0  0  0
  144.3720  135.3017  153.8745 C   0  0  0  0  0  0  0  0  0  0  0  0
  143.3409  134.4529  153.7666 N   0  0  0  0  0  0  0  0  0  0  0  0
  144.2395  136.5405  153.3497 N   0  0  0  0  0  0  0  0  0  0  0  0
  145.2530  137.4040  153.4454 C   0  0  0  0  0  0  0  0  0  0  0  0
  146.4468  137.2269  154.0147 N   0  0  0  0  0  0  0  0  0  0  0  0
  146.5887  135.9800  154.5552 C   0  0  0  0  0  0  0  0  0  0  0  0
  149.2450  137.4555  155.1282 C   0  0  2  0  0  0  0  0  0  0  0  0
  150.6399  137.7427  155.1768 O   0  0  0  0  0  0  0  0  0  0  0  0
  151.1108  138.9135  154.7143 C   0  0  0  0  0  0  0  0  0  0  0  0
  152.6325  138.9702  154.7247 C   0  0  0  0  0  0  0  0  0  0  0  0
  150.4337  139.8596  154.3122 O   0  0  0  0  0  0  0  0  0  0  0  0
  148.4829  138.2521  156.1841 C   0  0  2  0  0  0  0  0  0  0  0  0
  148.9925  139.5697  156.3526 O   0  0  0  0  0  0  0  0  0  0  0  0
  148.4597  140.3829  157.2815 C   0  0  0  0  0  0  0  0  0  0  0  0
  149.1175  141.7563  157.2966 C   0  0  0  0  0  0  0  0  0  0  0  0
  147.5407  140.1008  158.0506 O   0  0  0  0  0  0  0  0  0  0  0  0
  146.3247  134.3617  160.5799 H   0  0  0  0  0  0  0  0  0  0  0  0
  146.5660  135.1078  162.1652 H   0  0  0  0  0  0  0  0  0  0  0  0
  147.9360  134.3824  161.3125 H   0  0  0  0  0  0  0  0  0  0  0  0
  146.5190  137.2620  157.7510 H   0  0  0  0  0  0  0  0  0  0  0  0
  147.3590  138.2110  158.9693 H   0  0  0  0  0  0  0  0  0  0  0  0
  149.4949  137.7711  158.0243 H   0  0  0  0  0  0  0  0  0  0  0  0
  149.7237  135.2913  155.2110 H   0  0  0  0  0  0  0  0  0  0  0  0
  143.4121  133.5225  154.1526 H   0  0  0  0  0  0  0  0  0  0  0  0
  142.4964  134.7441  153.2961 H   0  0  0  0  0  0  0  0  0  0  0  0
  145.0845  138.3758  153.0049 H   0  0  0  0  0  0  0  0  0  0  0  0
  148.8776  137.6226  154.1178 H   0  0  0  0  0  0  0  0  0  0  0  0
  153.0055  138.9136  155.7474 H   0  0  0  0  0  0  0  0  0  0  0  0
  152.9850  139.9008  154.2791 H   0  0  0  0  0  0  0  0  0  0  0  0
  153.0471  138.1369  154.1576 H   0  0  0  0  0  0  0  0  0  0  0  0
  147.4257  138.2932  155.9241 H   0  0  0  0  0  0  0  0  0  0  0  0
  150.1759  141.6669  157.5410 H   0  0  0  0  0  0  0  0  0  0  0  0
  148.6442  142.3998  158.0385 H   0  0  0  0  0  0  0  0  0  0  0  0
  149.0253  142.2306  156.3195 H   0  0  0  0  0  0  0  0  0  0  0  0
  1  2  1  0  0  0  0
  1 30  1  0  0  0  0
  1 31  1  0  0  0  0
  1 32  1  0  0  0  0
  2  3  2  0  0  0  0
  2  4  1  0  0  0  0
  4  5  1  0  0  0  0
  5  6  1  0  0  0  0
  5 33  1  0  0  0  0
  5 34  1  0  0  0  0
  6 25  1  0  0  0  0
  6  7  1  0  0  0  0
  6 35  1  0  0  0  0
  7  8  1  0  0  0  0
  8  9  1  0  0  0  0
  8 20  1  0  0  0  0
  8 36  1  0  0  0  0
  9 19  1  0  0  0  0
  9 10  1  0  0  0  0
 10 11  1  0  0  0  0
 10 12  2  0  0  0  0
 12 13  1  0  0  0  0
 13 19  2  0  0  0  0
 13 14  1  0  0  0  0
 14 15  1  0  0  0  0
 14 16  2  0  0  0  0
 15 37  1  0  0  0  0
 15 38  1  0  0  0  0
 16 17  1  0  0  0  0
 17 18  2  0  0  0  0
 17 39  1  0  0  0  0
 18 19  1  0  0  0  0
 20 21  1  0  0  0  0
 20 25  1  0  0  0  0
 20 40  1  0  0  0  0
 21 22  1  0  0  0  0
 22 23  1  0  0  0  0
 22 24  2  0  0  0  0
 23 41  1  0  0  0  0
 23 42  1  0  0  0  0
 23 43  1  0  0  0  0
 25 26  1  0  0  0  0
 25 44  1  0  0  0  0
 26 27  1  0  0  0  0
 27 28  1  0  0  0  0
 27 29  2  0  0  0  0
 28 45  1  0  0  0  0
 28 46  1  0  0  0  0
 28 47  1  0  0  0  0
M  END
> <s_m_source_file>
AV-unprocessed.smi

> <i_m_source_file_index>
104

> <i_lp_mmshare_version>
43012

> <i_f3d_flags>
0

> <s_epik_input>
W0NIM11DKD1PKU9bQ0gyXVtDQEBIXTFPW0NASF0oW0NAQEhdKE9DKD1PKVtDSDNdKVtDQEhdMU9DKD1PKVtDSDNdKW4oYyhCciluMiljKGMyMyluW2NIXW5jM1tOSDJd

> <s_epik_cmdline>
J2VwaWtfcHl0aG9uJywgJy1waCcsICc3LjAnLCAnLXRuJywgJzgnLCAnLW1hJywgJzIwMCcsICctbWV0YWxfYmluZGluZycsICctaW1hZScsICc8aW5maWxlLm1hZT4nLCAnLW9tYWUnLCAnPG91dGZpbGUubWFlPic=

> <r_lp_tautomer_probability>
1

> <r_epik_Ionization_Penalty>
7.36622e-05

> <r_epik_Ionization_Penalty_Charging>
0

> <r_epik_Ionization_Penalty_Neutral>
7.36622e-05

> <r_epik_State_Penalty>
-0

> <r_epik_Charging_Adjusted_Penalty>
0

> <i_epik_Tot_Q>
0

> <i_epik_Tot_abs_Q>
0

> <r_epik_Metal_State_Penalty>
-0

> <b_epik_Metal_Only>
0

> <s_epik_Chemistry_Notes>
This compound has an ester and may undergo hydrolysis at high or low pH. This compound contains an acetal/aminal-like group ( X-CH(R)-Y where X, Y are N, S, or O) that may be acid/base labile, releasing an aldehyde.

> <s_lp_Force_Field>
OPLS_2005

> <r_lp_Energy>
17.7308

> <b_lp_Chiralities_Consistent>
1

> <s_lp_Variant>
AV-unprocessed.smi:104-14

> <Gold.Version>
5.8.1

> <Gold.Id.Protein>
6NUR|6NUR_protein|mol2

> <Gold.PLP.Fitness>
36.9105

> <Gold.PLP.PLP>
-24.0534

> <Gold.PLP.part.hbond>
-5.0000

> <Gold.PLP.part.metal>
0.0000

> <Gold.PLP.part.buried>
-5.3094

> <Gold.PLP.part.nonpolar>
-13.5637

> <Gold.PLP.part.repulsive>
0.4687

> <Gold.PLP.ligand.clash>
0.0000

> <Gold.PLP.ligand.torsion>
0.9087

> <Gold.PLP.Chemscore.Hbond>
3.8240

> <Gold.PLP.Chemscore.CHOScore>
1.0000

> <Gold.PLP.Chemscore.Metal>
0.0000

> <Gold.Chemscore.Hbonds>
donor molecule, donor type, donor heavy atom, donor atom, acceptor molecule, acceptor atom, score
      L1  H    15    37       P1 10957  1.00
      P1  H  6931  6943       L1     3  0.78
      P1  H  6934  6947       L1     3  1.00
      P1  H  7989  7998       L1    24  1.00
      L1  C    17    39       P1 10175  0.90

> <Gold.PLP.Chemscore.Internal.Correction>
0.2025

> <Gold.Rescore>
     Score         DG    S(hbond)    S(metal)    S(lipo)     H(rot)  DE(clash)    DE(int)     intcor
      3.93     -10.32       3.75        0.00      28.49       4.31       0.05       6.35       ----

> <Gold.Chemscore.Fitness>
3.9286

> <Gold.Chemscore.DG>
-10.3246

> <Gold.Chemscore.ZeroCoef>
-5.4800

> <Gold.Chemscore.Hbond>
3.7537

> <Gold.Chemscore.Metal>
0.0000

> <Gold.Chemscore.Lipo>
28.4897

> <Gold.Chemscore.Internal_Hbond>
0.0000

> <Gold.Chemscore.DEClash>
0.0465

> <Gold.Chemscore.DEInternal>
6.3495

> <Gold.Chemscore.Rot>
4.3070

> <Gold.Chemscore.Internal.Correction>
   9.000000E+99

> <Gold.Chemscore.Hbonds>
donor molecule, donor type, donor heavy atom, donor atom, acceptor molecule, acceptor atom, score
      L1  H    15    37       P1 10957  0.93
      P1  H  6931  6943       L1     3  0.73
      P1  H  6934  6947       L1     3  0.95
      P1  H  7989  7998       L1    24  0.40

> <Gold.Chemscore.Hbond.Weighted>
-12.5372

> <Gold.Chemscore.Metal.Weighted>
-0.0000

> <Gold.Chemscore.Lipo.Weighted>
-3.3333

> <Gold.Chemscore.Internal_Hbond.Weighted>
0.0000

> <Gold.Chemscore.DEClash.Weighted>
0.0465

> <Gold.Chemscore.DEInternal.Weighted>
6.3495

> <Gold.Chemscore.Rot.Weighted>
11.0259

> <Gold.Chemscore.Internal.Correction.Weighted>
   9.000000E+99

> <Gold.Protein.RotatedTorsions>
[ 6907 6896 6895 6894 ] final  -66.70 input  -60.11 | X-H torsion
[ 7974 7965 7964 7962 ] final  145.67 input  175.53 | X-H torsion
[ 8008 7997 7996 7995 ] final  -79.66 input   59.86 | X-H torsion
[ 10167 10162 10161 10158 ] final  113.51 input  -65.29 | X-H torsion
[ 10718 10713 10712 10709 ] final -169.31 input   66.30 | X-H torsion
[ 10763 10752 10751 10750 ] final  -80.44 input  -60.55 | X-H torsion
[ 11005 11000 10999 10996 ] final  142.92 input  -57.11 | X-H torsion

> <Gold.Protein.ActiveResidues>
 VAL166  LYS551  ARG553  GLY616  TRP617  ASP618  TYR619  PRO620  LYS621  CYS622 
 ASP623  PHE694  ASN695  SER759  ASP760  ASP761  ALA762  ILE779  LEU786  VAL792 
 PHE793  MET794  SER795  GLU796  ALA797  LYS798  CYS799  TRP800  GLU811  SER814 

> <Gold.Protein.RotatedAtoms>
  150.7451  134.5985  159.6023 H   0  0  0  0  0  0  0  0  0  0  0  0  # atno 6907 bound_to 6896
  152.3353  134.7203  160.0287 H   0  0  0  0  0  0  0  0  0  0  0  0  # atno 6908 bound_to 6896
  151.7673  133.3302  159.3471 H   0  0  0  0  0  0  0  0  0  0  0  0  # atno 6909 bound_to 6896
  144.8733  139.5811  143.5876 H   0  0  0  0  0  0  0  0  0  0  0  0  # atno 7974 bound_to 7965
  154.5807  140.0675  156.9099 H   0  0  0  0  0  0  0  0  0  0  0  0  # atno 8008 bound_to 7997
  155.2468  140.3348  155.4268 H   0  0  0  0  0  0  0  0  0  0  0  0  # atno 8009 bound_to 7997
  156.2187  140.1789  156.7513 H   0  0  0  0  0  0  0  0  0  0  0  0  # atno 8010 bound_to 7997
  139.6456  144.7126  151.2149 H   0  0  0  0  0  0  0  0  0  0  0  0  # atno 10167 bound_to 10162
  156.7097  130.9229  151.3088 H   0  0  0  0  0  0  0  0  0  0  0  0  # atno 10718 bound_to 10713
  154.5512  135.5661  153.6924 H   0  0  0  0  0  0  0  0  0  0  0  0  # atno 10763 bound_to 10752
  152.9990  135.6251  154.2371 H   0  0  0  0  0  0  0  0  0  0  0  0  # atno 10764 bound_to 10752
  154.2306  135.2866  155.2871 H   0  0  0  0  0  0  0  0  0  0  0  0  # atno 10765 bound_to 10752
  140.0514  134.9254  157.1023 H   0  0  0  0  0  0  0  0  0  0  0  0  # atno 11005 bound_to 11000
  146.2945  139.7238  142.9136 LP  0  0  0  0  0  0  0  0  0  0  0  0  # atno 17320 bound_to 7965
  145.4089  141.0394  143.3028 LP  0  0  0  0  0  0  0  0  0  0  0  0  # atno 17321 bound_to 7965
  140.7513  143.6236  150.8489 LP  0  0  0  0  0  0  0  0  0  0  0  0  # atno 17342 bound_to 10162
  139.9879  143.5879  152.2920 LP  0  0  0  0  0  0  0  0  0  0  0  0  # atno 17343 bound_to 10162
  157.6941  130.9263  150.0594 LP  0  0  0  0  0  0  0  0  0  0  0  0  # atno 17370 bound_to 10713
  156.1669  130.3645  149.9219 LP  0  0  0  0  0  0  0  0  0  0  0  0  # atno 17371 bound_to 10713
  140.3912  134.2183  155.7166 LP  0  0  0  0  0  0  0  0  0  0  0  0  # atno 17394 bound_to 11000
  141.1932  133.8156  157.0809 LP  0  0  0  0  0  0  0  0  0  0  0  0  # atno 17395 bound_to 11000

$$$$
