AV-unprocessed.smi:1196|AV-procd|sdf|5004|dock8
  -GOLD-   22720 4 13D 1   1.00000     0.00000
 Structure written by MMmdl.
 36 37  0  0  0  0  0  0  0  0  2 V2000
  142.7922  136.0544  152.8849 C   0  0  0  0  0  0  0  0  0  0  0  0
  143.8391  135.6764  151.8284 C   0  0  2  0  0  0  0  0  0  0  0  0
  144.6105  134.4007  152.2286 C   0  0  0  0  0  0  0  0  0  0  0  0
  144.7975  133.4881  151.1132 N   0  0  0  0  0  0  0  0  0  0  0  0
  144.0917  133.4249  149.9304 C   0  0  0  0  0  0  0  0  0  0  0  0
  144.6445  132.4267  149.1804 C   0  0  0  0  0  0  0  0  0  0  0  0
  145.6947  131.9286  150.0011 C   0  0  0  0  0  0  0  0  0  0  0  0
  145.7795  132.5615  151.1601 N   0  0  0  0  0  0  0  0  0  0  0  0
  144.7585  136.7983  151.6411 N   0  0  0  0  0  0  0  0  0  0  0  0
  145.7489  137.1452  152.4790 C   0  0  0  0  0  0  0  0  0  0  0  0
  146.0444  136.5002  153.4853 O   0  0  0  0  0  0  0  0  0  0  0  0
  146.5089  138.4284  152.1402 C   0  0  0  0  0  0  0  0  0  0  0  0
  146.3673  139.4864  153.2501 C   0  0  0  0  0  0  0  0  0  0  0  0
  147.4275  140.6008  153.1582 C   0  0  2  0  0  0  0  0  0  0  0  0
  148.7576  140.0768  153.3819 N   0  0  0  0  0  0  0  0  0  0  0  0
  149.3506  140.6803  154.4100 C   0  0  0  0  0  0  0  0  0  0  0  0
  150.4948  140.3939  154.7554 O   0  0  0  0  0  0  0  0  0  0  0  0
  148.5197  141.5885  154.9574 N   0  5  0  0  0  0  0  0  0  0  0  0
  147.3428  141.6185  154.2954 C   0  0  0  0  0  0  0  0  0  0  0  0
  146.3395  142.3036  154.4870 O   0  0  0  0  0  0  0  0  0  0  0  0
  142.0711  135.2492  153.0269 H   0  0  0  0  0  0  0  0  0  0  0  0
  142.2361  136.9437  152.5863 H   0  0  0  0  0  0  0  0  0  0  0  0
  143.2565  136.2590  153.8502 H   0  0  0  0  0  0  0  0  0  0  0  0
  143.3000  135.4772  150.9004 H   0  0  0  0  0  0  0  0  0  0  0  0
  145.5844  134.6573  152.6494 H   0  0  0  0  0  0  0  0  0  0  0  0
  144.0675  133.8657  153.0086 H   0  0  0  0  0  0  0  0  0  0  0  0
  143.2700  134.0937  149.7206 H   0  0  0  0  0  0  0  0  0  0  0  0
  144.3467  132.1040  148.1940 H   0  0  0  0  0  0  0  0  0  0  0  0
  146.3922  131.1312  149.7911 H   0  0  0  0  0  0  0  0  0  0  0  0
  144.5914  137.3928  150.8423 H   0  0  0  0  0  0  0  0  0  0  0  0
  147.5590  138.1771  151.9891 H   0  0  0  0  0  0  0  0  0  0  0  0
  146.1447  138.8351  151.1956 H   0  0  0  0  0  0  0  0  0  0  0  0
  145.3757  139.9372  153.1795 H   0  0  0  0  0  0  0  0  0  0  0  0
  146.4135  139.0103  154.2313 H   0  0  0  0  0  0  0  0  0  0  0  0
  147.3810  141.1178  152.1988 H   0  0  0  0  0  0  0  0  0  0  0  0
  149.1785  139.3587  152.8113 H   0  0  0  0  0  0  0  0  0  0  0  0
  1  2  1  0  0  0  0
  1 21  1  0  0  0  0
  1 22  1  0  0  0  0
  1 23  1  0  0  0  0
  2  3  1  0  0  0  0
  2  9  1  0  0  0  0
  2 24  1  0  0  0  0
  3  4  1  0  0  0  0
  3 25  1  0  0  0  0
  3 26  1  0  0  0  0
  4  8  1  0  0  0  0
  4  5  1  0  0  0  0
  5  6  2  0  0  0  0
  5 27  1  0  0  0  0
  6  7  1  0  0  0  0
  6 28  1  0  0  0  0
  7  8  2  0  0  0  0
  7 29  1  0  0  0  0
  9 10  1  0  0  0  0
  9 30  1  0  0  0  0
 10 11  2  0  0  0  0
 10 12  1  0  0  0  0
 12 13  1  0  0  0  0
 12 31  1  0  0  0  0
 12 32  1  0  0  0  0
 13 14  1  0  0  0  0
 13 33  1  0  0  0  0
 13 34  1  0  0  0  0
 14 19  1  0  0  0  0
 14 15  1  0  0  0  0
 14 35  1  0  0  0  0
 15 16  1  0  0  0  0
 15 36  1  0  0  0  0
 16 17  2  0  0  0  0
 16 18  1  0  0  0  0
 18 19  1  0  0  0  0
 19 20  2  0  0  0  0
M  CHG  1  18  -1
M  END
> <s_m_source_file>
AV-unprocessed.smi

> <i_m_source_file_index>
1196

> <i_lp_mmshare_version>
43012

> <i_f3d_flags>
0

> <s_epik_input>
bjFbY0hdW2NIXVtjSF1uMVtDSDJdW0NAQEhdKFtDSDNdKVtOSF1DKD1PKVtDSDJdW0NIMl1bQ0BASF0yW05IXUMoPU8pW05IXUMyPU8=

> <s_epik_cmdline>
J2VwaWtfcHl0aG9uJywgJy1waCcsICc3LjAnLCAnLXRuJywgJzgnLCAnLW1hJywgJzIwMCcsICctbWV0YWxfYmluZGluZycsICctaW1hZScsICc8aW5maWxlLm1hZT4nLCAnLW9tYWUnLCAnPG91dGZpbGUubWFlPic=

> <r_lp_tautomer_probability>
1

> <r_epik_Ionization_Penalty>
2.57056

> <r_epik_Ionization_Penalty_Charging>
2.57023

> <r_epik_Ionization_Penalty_Neutral>
0.000331301

> <r_epik_State_Penalty>
2.56828

> <r_epik_Charging_Adjusted_Penalty>
5.13851

> <i_epik_Tot_Q>
-1

> <i_epik_Tot_abs_Q>
1

> <r_epik_Metal_State_Penalty>
0.444883

> <b_epik_Metal_Only>
1

> <s_lp_Force_Field>
OPLS_2005

> <r_lp_Energy>
6.89561

> <b_lp_Chiralities_Consistent>
1

> <s_lp_Variant>
AV-unprocessed.smi:1196-9

> <Gold.Version>
5.8.1

> <Gold.Id.Protein>
6NUR|6NUR_protein|mol2

> <Gold.PLP.Fitness>
45.5155

> <Gold.PLP.PLP>
-34.9919

> <Gold.PLP.part.hbond>
-2.5265

> <Gold.PLP.part.metal>
0.0000

> <Gold.PLP.part.buried>
-4.4337

> <Gold.PLP.part.nonpolar>
-29.3393

> <Gold.PLP.part.repulsive>
0.8232

> <Gold.PLP.ligand.clash>
0.0000

> <Gold.PLP.ligand.torsion>
1.1527

> <Gold.PLP.Chemscore.Hbond>
2.2560

> <Gold.PLP.Chemscore.CHOScore>
2.0000

> <Gold.PLP.Chemscore.Metal>
0.0000

> <Gold.Chemscore.Hbonds>
donor molecule, donor type, donor heavy atom, donor atom, acceptor molecule, acceptor atom, score
      L1  H     9    30       P1 10171  1.00
      L1  H    15    36       P1  7957  0.21
      P1  H  7989  7998       L1    17  1.00
      L1  C     5    27       P1 10186  1.00
      L1  C     7    29       P1 10747  0.76

> <Gold.PLP.Chemscore.Internal.Correction>
0.0610

> <Gold.Rescore>
     Score         DG    S(hbond)    S(metal)    S(lipo)     H(rot)  DE(clash)    DE(int)     intcor
     11.14     -13.62       2.44        0.00      63.34       2.89       0.18       2.31       ----

> <Gold.Chemscore.Fitness>
11.1407

> <Gold.Chemscore.DG>
-13.6235

> <Gold.Chemscore.ZeroCoef>
-5.4800

> <Gold.Chemscore.Hbond>
2.4379

> <Gold.Chemscore.Metal>
0.0000

> <Gold.Chemscore.Lipo>
63.3432

> <Gold.Chemscore.Internal_Hbond>
0.0000

> <Gold.Chemscore.DEClash>
0.1763

> <Gold.Chemscore.DEInternal>
2.3065

> <Gold.Chemscore.Rot>
2.8946

> <Gold.Chemscore.Internal.Correction>
   9.000000E+99

> <Gold.Chemscore.Hbonds>
donor molecule, donor type, donor heavy atom, donor atom, acceptor molecule, acceptor atom, score
      L1  H     9    30       P1 10171  1.00
      L1  H    15    36       P1  7957  0.22
      P1  H  7989  7998       L1    17  0.68

> <Gold.Chemscore.Hbond.Weighted>
-8.1425

> <Gold.Chemscore.Metal.Weighted>
-0.0000

> <Gold.Chemscore.Lipo.Weighted>
-7.4112

> <Gold.Chemscore.Internal_Hbond.Weighted>
0.0000

> <Gold.Chemscore.DEClash.Weighted>
0.1763

> <Gold.Chemscore.DEInternal.Weighted>
2.3065

> <Gold.Chemscore.Rot.Weighted>
7.4101

> <Gold.Chemscore.Internal.Correction.Weighted>
   9.000000E+99

> <Gold.Protein.RotatedTorsions>
[ 6907 6896 6895 6894 ] final  -37.51 input  -60.11 | X-H torsion
[ 7974 7965 7964 7962 ] final  -69.63 input  175.53 | X-H torsion
[ 8008 7997 7996 7995 ] final -123.75 input   59.86 | X-H torsion
[ 10167 10162 10161 10158 ] final  -51.15 input  -65.29 | X-H torsion
[ 10718 10713 10712 10709 ] final  174.58 input   66.30 | X-H torsion
[ 10763 10752 10751 10750 ] final  -48.31 input  -60.55 | X-H torsion
[ 11005 11000 10999 10996 ] final  -70.45 input  -57.11 | X-H torsion

> <Gold.Protein.ActiveResidues>
 VAL166  LYS551  ARG553  GLY616  TRP617  ASP618  TYR619  PRO620  LYS621  CYS622 
 ASP623  PHE694  ASN695  SER759  ASP760  ASP761  ALA762  ILE779  LEU786  VAL792 
 PHE793  MET794  SER795  GLU796  ALA797  LYS798  CYS799  TRP800  GLU811  SER814 

> <Gold.Protein.RotatedAtoms>
  151.0138  134.9417  159.8021 H   0  0  0  0  0  0  0  0  0  0  0  0  # atno 6907 bound_to 6896
  152.5309  134.2994  159.9082 H   0  0  0  0  0  0  0  0  0  0  0  0  # atno 6908 bound_to 6896
  151.3000  133.4085  159.2673 H   0  0  0  0  0  0  0  0  0  0  0  0  # atno 6909 bound_to 6896
  145.7012  140.9115  143.0730 H   0  0  0  0  0  0  0  0  0  0  0  0  # atno 7974 bound_to 7965
  155.1856  140.0412  157.2890 H   0  0  0  0  0  0  0  0  0  0  0  0  # atno 8008 bound_to 7997
  154.6173  140.2492  155.7565 H   0  0  0  0  0  0  0  0  0  0  0  0  # atno 8009 bound_to 7997
  156.2414  140.2902  156.0465 H   0  0  0  0  0  0  0  0  0  0  0  0  # atno 8010 bound_to 7997
  140.6603  143.2630  151.4462 H   0  0  0  0  0  0  0  0  0  0  0  0  # atno 10167 bound_to 10162
  156.9475  131.0020  151.2956 H   0  0  0  0  0  0  0  0  0  0  0  0  # atno 10718 bound_to 10713
  154.0757  135.6598  153.4830 H   0  0  0  0  0  0  0  0  0  0  0  0  # atno 10763 bound_to 10752
  153.0374  135.5168  154.7523 H   0  0  0  0  0  0  0  0  0  0  0  0  # atno 10764 bound_to 10752
  154.6603  135.3014  154.9843 H   0  0  0  0  0  0  0  0  0  0  0  0  # atno 10765 bound_to 10752
  141.1574  133.6790  156.6754 H   0  0  0  0  0  0  0  0  0  0  0  0  # atno 11005 bound_to 11000
  144.6968  139.8951  143.7455 LP  0  0  0  0  0  0  0  0  0  0  0  0  # atno 17320 bound_to 7965
  146.0796  139.3783  143.0473 LP  0  0  0  0  0  0  0  0  0  0  0  0  # atno 17321 bound_to 7965
  139.5835  144.1657  152.1998 LP  0  0  0  0  0  0  0  0  0  0  0  0  # atno 17342 bound_to 10162
  140.0989  144.5556  150.7002 LP  0  0  0  0  0  0  0  0  0  0  0  0  # atno 17343 bound_to 10162
  157.5744  130.8333  149.8436 LP  0  0  0  0  0  0  0  0  0  0  0  0  # atno 17370 bound_to 10713
  156.0377  130.3747  150.1516 LP  0  0  0  0  0  0  0  0  0  0  0  0  # atno 17371 bound_to 10713
  140.3143  134.8060  157.4201 LP  0  0  0  0  0  0  0  0  0  0  0  0  # atno 17394 bound_to 11000
  140.1152  134.5293  155.8231 LP  0  0  0  0  0  0  0  0  0  0  0  0  # atno 17395 bound_to 11000

$$$$
