AV-unprocessed.smi:1317|AV-procd|sdf|5456|dock1
  -GOLD-   22720 5 23D 1   1.00000     0.00000
 Structure written by MMmdl.
 31 32  0  0  0  0  0  0  0  0  1 V2000
  153.0616  142.7716  162.5309 C   0  0  0  0  0  0  0  0  0  0  0  0
  152.5464  143.0952  161.1704 C   0  0  0  0  0  0  0  0  0  0  0  0
  152.3102  142.1760  160.2308 N   0  0  0  0  0  0  0  0  0  0  0  0
  151.8373  142.7337  159.0387 C   0  0  0  0  0  0  0  0  0  0  0  0
  151.5239  141.8504  157.8692 C   0  0  0  0  0  0  0  0  0  0  0  0
  151.1912  142.6585  156.6040 C   0  0  0  0  0  0  0  0  0  0  0  0
  149.9405  142.2189  155.9962 N   0  0  0  0  0  0  0  0  0  0  0  0
  149.7832  141.1012  155.2718 C   0  0  0  0  0  0  0  0  0  0  0  0
  150.7015  140.3146  155.0371 O   0  0  0  0  0  0  0  0  0  0  0  0
  148.3691  140.8433  154.7347 C   0  0  0  0  0  0  0  0  0  0  0  0
  147.7985  141.9839  153.8742 C   0  0  0  0  0  0  0  0  0  0  0  0
  146.4697  141.8269  154.6194 C   0  0  0  0  0  0  0  0  0  0  0  0
  147.2351  141.1159  155.7392 C   0  0  0  0  0  0  0  0  0  0  0  0
  151.7170  144.1002  159.0915 C   0  0  0  0  0  0  0  0  0  0  0  0
  152.1951  144.7358  160.6413 S   0  0  0  0  0  0  0  0  0  0  0  0
  152.9766  141.7027  162.7297 H   0  0  0  0  0  0  0  0  0  0  0  0
  152.4908  143.3132  163.2852 H   0  0  0  0  0  0  0  0  0  0  0  0
  154.1098  143.0605  162.6094 H   0  0  0  0  0  0  0  0  0  0  0  0
  152.3671  141.1869  157.6722 H   0  0  0  0  0  0  0  0  0  0  0  0
  150.6837  141.1991  158.1136 H   0  0  0  0  0  0  0  0  0  0  0  0
  151.0860  143.7140  156.8569 H   0  0  0  0  0  0  0  0  0  0  0  0
  152.0049  142.5921  155.8797 H   0  0  0  0  0  0  0  0  0  0  0  0
  149.1330  142.8082  156.1384 H   0  0  0  0  0  0  0  0  0  0  0  0
  148.2581  139.8715  154.2493 H   0  0  0  0  0  0  0  0  0  0  0  0
  148.2668  142.9544  154.0478 H   0  0  0  0  0  0  0  0  0  0  0  0
  147.7393  141.7565  152.8095 H   0  0  0  0  0  0  0  0  0  0  0  0
  145.9998  142.7655  154.9142 H   0  0  0  0  0  0  0  0  0  0  0  0
  145.7712  141.1679  154.1015 H   0  0  0  0  0  0  0  0  0  0  0  0
  146.7406  140.2184  156.1119 H   0  0  0  0  0  0  0  0  0  0  0  0
  147.5055  141.7877  156.5555 H   0  0  0  0  0  0  0  0  0  0  0  0
  151.3787  144.7696  158.3144 H   0  0  0  0  0  0  0  0  0  0  0  0
  1  2  1  0  0  0  0
  1 16  1  0  0  0  0
  1 17  1  0  0  0  0
  1 18  1  0  0  0  0
  2 15  1  0  0  0  0
  2  3  2  0  0  0  0
  3  4  1  0  0  0  0
  4  5  1  0  0  0  0
  4 14  2  0  0  0  0
  5  6  1  0  0  0  0
  5 19  1  0  0  0  0
  5 20  1  0  0  0  0
  6  7  1  0  0  0  0
  6 21  1  0  0  0  0
  6 22  1  0  0  0  0
  7  8  1  0  0  0  0
  7 23  1  0  0  0  0
  8  9  2  0  0  0  0
  8 10  1  0  0  0  0
 10 13  1  0  0  0  0
 10 11  1  0  0  0  0
 10 24  1  0  0  0  0
 11 12  1  0  0  0  0
 11 25  1  0  0  0  0
 11 26  1  0  0  0  0
 12 13  1  0  0  0  0
 12 27  1  0  0  0  0
 12 28  1  0  0  0  0
 13 29  1  0  0  0  0
 13 30  1  0  0  0  0
 14 15  1  0  0  0  0
 14 31  1  0  0  0  0
M  END
> <s_m_source_file>
AV-unprocessed.smi

> <i_m_source_file_index>
1317

> <i_lp_mmshare_version>
43012

> <i_f3d_flags>
0

> <s_epik_input>
W0NIM11jMW5jKFtjSF1zMSlbQ0gyXVtDSDJdW05IXUMoPU8pW0NIXTJbQ0gyXVtDSDJdW0NIMl0y

> <s_epik_cmdline>
J2VwaWtfcHl0aG9uJywgJy1waCcsICc3LjAnLCAnLXRuJywgJzgnLCAnLW1hJywgJzIwMCcsICctbWV0YWxfYmluZGluZycsICctaW1hZScsICc8aW5maWxlLm1hZT4nLCAnLW9tYWUnLCAnPG91dGZpbGUubWFlPic=

> <r_epik_Ionization_Penalty>
0.00109666

> <r_epik_Ionization_Penalty_Charging>
0

> <r_epik_Ionization_Penalty_Neutral>
0.00109666

> <r_epik_State_Penalty>
0.000719322

> <r_epik_Charging_Adjusted_Penalty>
0.000719322

> <i_epik_Tot_Q>
0

> <i_epik_Tot_abs_Q>
0

> <r_epik_Metal_State_Penalty>
-0

> <b_epik_Metal_Only>
0

> <s_lp_Force_Field>
OPLS_2005

> <r_lp_Energy>
5.86325

> <b_lp_Chiralities_Consistent>
1

> <s_lp_Variant>
AV-unprocessed.smi:1317-1

> <Gold.Version>
5.8.1

> <Gold.Id.Protein>
6NUR|6NUR_protein|mol2

> <Gold.PLP.Fitness>
40.0584

> <Gold.PLP.PLP>
-36.4318

> <Gold.PLP.part.hbond>
-2.0000

> <Gold.PLP.part.metal>
0.0000

> <Gold.PLP.part.buried>
-5.6243

> <Gold.PLP.part.nonpolar>
-27.6227

> <Gold.PLP.part.repulsive>
0.1853

> <Gold.PLP.ligand.clash>
0.0000

> <Gold.PLP.ligand.torsion>
0.7519

> <Gold.PLP.Chemscore.Hbond>
1.5760

> <Gold.PLP.Chemscore.CHOScore>
0.0000

> <Gold.PLP.Chemscore.Metal>
0.0000

> <Gold.Chemscore.Hbonds>
donor molecule, donor type, donor heavy atom, donor atom, acceptor molecule, acceptor atom, score
      L1  H     7    23       P1  8028  0.59
      P1  H  7989  7998       L1     9  1.00

> <Gold.PLP.Chemscore.Internal.Correction>
0.4024

> <Gold.Rescore>
     Score         DG    S(hbond)    S(metal)    S(lipo)     H(rot)  DE(clash)    DE(int)     intcor
     16.95     -17.79       1.45        0.00      95.17       1.44       0.12       0.71       ----

> <Gold.Chemscore.Fitness>
16.9540

> <Gold.Chemscore.DG>
-17.7924

> <Gold.Chemscore.ZeroCoef>
-5.4800

> <Gold.Chemscore.Hbond>
1.4550

> <Gold.Chemscore.Metal>
0.0000

> <Gold.Chemscore.Lipo>
95.1702

> <Gold.Chemscore.Internal_Hbond>
0.0000

> <Gold.Chemscore.DEClash>
0.1239

> <Gold.Chemscore.DEInternal>
0.7145

> <Gold.Chemscore.Rot>
1.4383

> <Gold.Chemscore.Internal.Correction>
   9.000000E+99

> <Gold.Chemscore.Hbonds>
donor molecule, donor type, donor heavy atom, donor atom, acceptor molecule, acceptor atom, score
      L1  H     7    23       P1  8028  0.56
      P1  H  7989  7998       L1     9  0.69

> <Gold.Chemscore.Hbond.Weighted>
-4.8596

> <Gold.Chemscore.Metal.Weighted>
-0.0000

> <Gold.Chemscore.Lipo.Weighted>
-11.1349

> <Gold.Chemscore.Internal_Hbond.Weighted>
0.0000

> <Gold.Chemscore.DEClash.Weighted>
0.1239

> <Gold.Chemscore.DEInternal.Weighted>
0.7145

> <Gold.Chemscore.Rot.Weighted>
3.6820

> <Gold.Chemscore.Internal.Correction.Weighted>
   9.000000E+99

> <Gold.Protein.RotatedTorsions>
[ 6907 6896 6895 6894 ] final   -3.12 input  -60.11 | X-H torsion
[ 7974 7965 7964 7962 ] final  -74.16 input  175.53 | X-H torsion
[ 8008 7997 7996 7995 ] final  146.34 input   59.86 | X-H torsion
[ 10167 10162 10161 10158 ] final   85.84 input  -65.29 | X-H torsion
[ 10718 10713 10712 10709 ] final  -21.94 input   66.30 | X-H torsion
[ 10763 10752 10751 10750 ] final  -56.10 input  -60.55 | X-H torsion
[ 11005 11000 10999 10996 ] final  -15.88 input  -57.11 | X-H torsion

> <Gold.Protein.ActiveResidues>
 VAL166  LYS551  ARG553  GLY616  TRP617  ASP618  TYR619  PRO620  LYS621  CYS622 
 ASP623  PHE694  ASN695  SER759  ASP760  ASP761  ALA762  ILE779  LEU786  VAL792 
 PHE793  MET794  SER795  GLU796  ALA797  LYS798  CYS799  TRP800  GLU811  SER814 

> <Gold.Protein.RotatedAtoms>
  151.5188  135.1067  159.9872 H   0  0  0  0  0  0  0  0  0  0  0  0  # atno 6907 bound_to 6896
  152.4629  133.7857  159.6885 H   0  0  0  0  0  0  0  0  0  0  0  0  # atno 6908 bound_to 6896
  150.8600  133.7594  159.3021 H   0  0  0  0  0  0  0  0  0  0  0  0  # atno 6909 bound_to 6896
  145.6427  140.9306  143.1027 H   0  0  0  0  0  0  0  0  0  0  0  0  # atno 7974 bound_to 7965
  156.2858  140.2185  156.5361 H   0  0  0  0  0  0  0  0  0  0  0  0  # atno 8008 bound_to 7997
  154.7408  140.0488  157.0832 H   0  0  0  0  0  0  0  0  0  0  0  0  # atno 8009 bound_to 7997
  155.0233  140.3126  155.4788 H   0  0  0  0  0  0  0  0  0  0  0  0  # atno 8010 bound_to 7997
  139.8936  144.6371  150.8712 H   0  0  0  0  0  0  0  0  0  0  0  0  # atno 10167 bound_to 10162
  156.5113  130.4610  149.6647 H   0  0  0  0  0  0  0  0  0  0  0  0  # atno 10718 bound_to 10713
  154.2013  135.6410  153.5088 H   0  0  0  0  0  0  0  0  0  0  0  0  # atno 10763 bound_to 10752
  153.0011  135.5452  154.6313 H   0  0  0  0  0  0  0  0  0  0  0  0  # atno 10764 bound_to 10752
  154.5726  135.2918  155.0785 H   0  0  0  0  0  0  0  0  0  0  0  0  # atno 10765 bound_to 10752
  140.8011  133.8213  155.9471 H   0  0  0  0  0  0  0  0  0  0  0  0  # atno 11005 bound_to 11000
  144.7151  139.8225  143.7401 LP  0  0  0  0  0  0  0  0  0  0  0  0  # atno 17320 bound_to 7965
  146.1268  139.4295  143.0194 LP  0  0  0  0  0  0  0  0  0  0  0  0  # atno 17321 bound_to 7965
  140.7721  143.3490  151.2052 LP  0  0  0  0  0  0  0  0  0  0  0  0  # atno 17342 bound_to 10162
  139.7087  143.9412  152.2938 LP  0  0  0  0  0  0  0  0  0  0  0  0  # atno 17343 bound_to 10162
  156.3238  130.7295  151.2211 LP  0  0  0  0  0  0  0  0  0  0  0  0  # atno 17370 bound_to 10713
  157.7450  131.0448  150.4813 LP  0  0  0  0  0  0  0  0  0  0  0  0  # atno 17371 bound_to 10713
  140.9293  134.2042  157.4874 LP  0  0  0  0  0  0  0  0  0  0  0  0  # atno 17394 bound_to 11000
  139.8721  134.9826  156.5163 LP  0  0  0  0  0  0  0  0  0  0  0  0  # atno 17395 bound_to 11000

$$$$
