AV-unprocessed.smi:104|AV-procd|sdf|1003|dock4
  -GOLD-   2262017593D 1   1.00000     0.00000
 Structure written by MMmdl.
 47 49  0  0  0  0  0  0  0  0  1 V2000
  145.3579  135.9360  162.0230 C   0  0  0  0  0  0  0  0  0  0  0  0
  146.6792  135.9829  161.2671 C   0  0  0  0  0  0  0  0  0  0  0  0
  147.4542  136.9302  161.3937 O   0  0  0  0  0  0  0  0  0  0  0  0
  146.8628  134.9024  160.4883 O   0  0  0  0  0  0  0  0  0  0  0  0
  148.0271  134.7732  159.6831 C   0  0  0  0  0  0  0  0  0  0  0  0
  148.1788  135.9847  158.7457 C   0  0  2  0  0  0  0  0  0  0  0  0
  147.0120  136.1835  157.9669 O   0  0  0  0  0  0  0  0  0  0  0  0
  147.3376  137.0785  156.9536 C   0  0  2  0  0  0  0  0  0  0  0  0
  146.4720  136.7905  155.7727 N   0  0  0  0  0  0  0  0  0  0  0  0
  145.3946  135.9408  155.6648 C   0  0  0  0  0  0  0  0  0  0  0  0
  144.7624  134.9009  157.1300 Br  0  0  0  0  0  0  0  0  0  0  0  0
  144.8002  135.8796  154.5058 N   0  0  0  0  0  0  0  0  0  0  0  0
  145.5346  136.7747  153.7371 C   0  0  0  0  0  0  0  0  0  0  0  0
  145.4551  137.2162  152.3923 C   0  0  0  0  0  0  0  0  0  0  0  0
  144.5282  136.7746  151.5311 N   0  0  0  0  0  0  0  0  0  0  0  0
  146.3556  138.1280  151.9558 N   0  0  0  0  0  0  0  0  0  0  0  0
  147.2902  138.5862  152.7949 C   0  0  0  0  0  0  0  0  0  0  0  0
  147.4907  138.2675  154.0761 N   0  0  0  0  0  0  0  0  0  0  0  0
  146.5817  137.3482  154.5154 C   0  0  0  0  0  0  0  0  0  0  0  0
  148.8176  136.8587  156.6006 C   0  0  1  0  0  0  0  0  0  0  0  0
  149.5380  138.0830  156.6377 O   0  0  0  0  0  0  0  0  0  0  0  0
  150.6254  138.2484  155.8645 C   0  0  0  0  0  0  0  0  0  0  0  0
  151.3300  139.5719  156.1293 C   0  0  0  0  0  0  0  0  0  0  0  0
  151.0407  137.4566  155.0182 O   0  0  0  0  0  0  0  0  0  0  0  0
  149.3085  135.9297  157.7092 C   0  0  2  0  0  0  0  0  0  0  0  0
  149.4803  134.6133  157.1965 O   0  0  0  0  0  0  0  0  0  0  0  0
  150.4729  134.3421  156.3318 C   0  0  0  0  0  0  0  0  0  0  0  0
  150.4150  132.9104  155.8170 C   0  0  0  0  0  0  0  0  0  0  0  0
  151.3476  135.1261  155.9634 O   0  0  0  0  0  0  0  0  0  0  0  0
  144.5655  136.3832  161.4229 H   0  0  0  0  0  0  0  0  0  0  0  0
  145.4364  136.4881  162.9596 H   0  0  0  0  0  0  0  0  0  0  0  0
  145.0808  134.9068  162.2527 H   0  0  0  0  0  0  0  0  0  0  0  0
  148.9283  134.5937  160.2706 H   0  0  0  0  0  0  0  0  0  0  0  0
  147.8839  133.8802  159.0746 H   0  0  0  0  0  0  0  0  0  0  0  0
  148.2996  136.8854  159.3511 H   0  0  0  0  0  0  0  0  0  0  0  0
  147.1053  138.0973  157.2636 H   0  0  0  0  0  0  0  0  0  0  0  0
  143.8445  136.0953  151.8330 H   0  0  0  0  0  0  0  0  0  0  0  0
  144.5128  137.1236  150.5838 H   0  0  0  0  0  0  0  0  0  0  0  0
  147.9751  139.3118  152.3817 H   0  0  0  0  0  0  0  0  0  0  0  0
  148.9116  136.3778  155.6251 H   0  0  0  0  0  0  0  0  0  0  0  0
  150.7045  140.4034  155.8044 H   0  0  0  0  0  0  0  0  0  0  0  0
  152.2746  139.6179  155.5871 H   0  0  0  0  0  0  0  0  0  0  0  0
  151.5366  139.6868  157.1935 H   0  0  0  0  0  0  0  0  0  0  0  0
  150.2440  136.2739  158.1541 H   0  0  0  0  0  0  0  0  0  0  0  0
  150.5829  132.2089  156.6342 H   0  0  0  0  0  0  0  0  0  0  0  0
  151.1783  132.7452  155.0563 H   0  0  0  0  0  0  0  0  0  0  0  0
  149.4387  132.7052  155.3778 H   0  0  0  0  0  0  0  0  0  0  0  0
  1  2  1  0  0  0  0
  1 30  1  0  0  0  0
  1 31  1  0  0  0  0
  1 32  1  0  0  0  0
  2  3  2  0  0  0  0
  2  4  1  0  0  0  0
  4  5  1  0  0  0  0
  5  6  1  0  0  0  0
  5 33  1  0  0  0  0
  5 34  1  0  0  0  0
  6 25  1  0  0  0  0
  6  7  1  0  0  0  0
  6 35  1  0  0  0  0
  7  8  1  0  0  0  0
  8  9  1  0  0  0  0
  8 20  1  0  0  0  0
  8 36  1  0  0  0  0
  9 19  1  0  0  0  0
  9 10  1  0  0  0  0
 10 11  1  0  0  0  0
 10 12  2  0  0  0  0
 12 13  1  0  0  0  0
 13 19  2  0  0  0  0
 13 14  1  0  0  0  0
 14 15  1  0  0  0  0
 14 16  2  0  0  0  0
 15 37  1  0  0  0  0
 15 38  1  0  0  0  0
 16 17  1  0  0  0  0
 17 18  2  0  0  0  0
 17 39  1  0  0  0  0
 18 19  1  0  0  0  0
 20 21  1  0  0  0  0
 20 25  1  0  0  0  0
 20 40  1  0  0  0  0
 21 22  1  0  0  0  0
 22 23  1  0  0  0  0
 22 24  2  0  0  0  0
 23 41  1  0  0  0  0
 23 42  1  0  0  0  0
 23 43  1  0  0  0  0
 25 26  1  0  0  0  0
 25 44  1  0  0  0  0
 26 27  1  0  0  0  0
 27 28  1  0  0  0  0
 27 29  2  0  0  0  0
 28 45  1  0  0  0  0
 28 46  1  0  0  0  0
 28 47  1  0  0  0  0
M  END
> <s_m_source_file>
AV-unprocessed.smi

> <i_m_source_file_index>
104

> <i_lp_mmshare_version>
43012

> <i_f3d_flags>
0

> <s_epik_input>
W0NIM11DKD1PKU9bQ0gyXVtDQEBIXTFPW0NASF0oW0NAQEhdKE9DKD1PKVtDSDNdKVtDQEhdMU9DKD1PKVtDSDNdKW4oYyhCciluMiljKGMyMyluW2NIXW5jM1tOSDJd

> <s_epik_cmdline>
J2VwaWtfcHl0aG9uJywgJy1waCcsICc3LjAnLCAnLXRuJywgJzgnLCAnLW1hJywgJzIwMCcsICctbWV0YWxfYmluZGluZycsICctaW1hZScsICc8aW5maWxlLm1hZT4nLCAnLW9tYWUnLCAnPG91dGZpbGUubWFlPic=

> <r_lp_tautomer_probability>
1

> <r_epik_Ionization_Penalty>
7.36622e-05

> <r_epik_Ionization_Penalty_Charging>
0

> <r_epik_Ionization_Penalty_Neutral>
7.36622e-05

> <r_epik_State_Penalty>
-0

> <r_epik_Charging_Adjusted_Penalty>
0

> <i_epik_Tot_Q>
0

> <i_epik_Tot_abs_Q>
0

> <r_epik_Metal_State_Penalty>
-0

> <b_epik_Metal_Only>
0

> <s_epik_Chemistry_Notes>
This compound has an ester and may undergo hydrolysis at high or low pH. This compound contains an acetal/aminal-like group ( X-CH(R)-Y where X, Y are N, S, or O) that may be acid/base labile, releasing an aldehyde.

> <s_lp_Force_Field>
OPLS_2005

> <r_lp_Energy>
15.0278

> <b_lp_Chiralities_Consistent>
1

> <s_lp_Variant>
AV-unprocessed.smi:104-11

> <Gold.Version>
5.8.1

> <Gold.Id.Protein>
6NUR|6NUR_protein|mol2

> <Gold.PLP.Fitness>
37.2348

> <Gold.PLP.PLP>
-24.0099

> <Gold.PLP.part.hbond>
-4.0000

> <Gold.PLP.part.metal>
0.0000

> <Gold.PLP.part.buried>
-5.3397

> <Gold.PLP.part.nonpolar>
-15.5580

> <Gold.PLP.part.repulsive>
0.6673

> <Gold.PLP.ligand.clash>
0.0000

> <Gold.PLP.ligand.torsion>
0.5919

> <Gold.PLP.Chemscore.Hbond>
3.7600

> <Gold.PLP.Chemscore.CHOScore>
1.0000

> <Gold.PLP.Chemscore.Metal>
0.0000

> <Gold.Chemscore.Hbonds>
donor molecule, donor type, donor heavy atom, donor atom, acceptor molecule, acceptor atom, score
      L1  H    15    38       P1 10171  0.70
      P1  H  6931  6943       L1     3  0.78
      P1  H  6934  6947       L1     3  0.64
      P1  H 10752 10764       L1    29  1.00
      L1  C    17    39       P1  7957  1.00

> <Gold.PLP.Chemscore.Internal.Correction>
0.1288

> <Gold.Rescore>
     Score         DG    S(hbond)    S(metal)    S(lipo)     H(rot)  DE(clash)    DE(int)     intcor
      4.51     -10.81       3.77        0.00      32.11       4.31       0.01       6.29       ----

> <Gold.Chemscore.Fitness>
4.5091

> <Gold.Chemscore.DG>
-10.8110

> <Gold.Chemscore.ZeroCoef>
-5.4800

> <Gold.Chemscore.Hbond>
3.7725

> <Gold.Chemscore.Metal>
0.0000

> <Gold.Chemscore.Lipo>
32.1085

> <Gold.Chemscore.Internal_Hbond>
0.0000

> <Gold.Chemscore.DEClash>
0.0086

> <Gold.Chemscore.DEInternal>
6.2933

> <Gold.Chemscore.Rot>
4.3070

> <Gold.Chemscore.Internal.Correction>
   9.000000E+99

> <Gold.Chemscore.Hbonds>
donor molecule, donor type, donor heavy atom, donor atom, acceptor molecule, acceptor atom, score
      L1  H    15    38       P1 10171  0.70
      P1  H  6931  6943       L1     3  0.73
      P1  H  6934  6947       L1     3  0.63
      P1  H 10752 10764       L1    29  0.88

> <Gold.Chemscore.Hbond.Weighted>
-12.6002

> <Gold.Chemscore.Metal.Weighted>
-0.0000

> <Gold.Chemscore.Lipo.Weighted>
-3.7567

> <Gold.Chemscore.Internal_Hbond.Weighted>
0.0000

> <Gold.Chemscore.DEClash.Weighted>
0.0086

> <Gold.Chemscore.DEInternal.Weighted>
6.2933

> <Gold.Chemscore.Rot.Weighted>
11.0259

> <Gold.Chemscore.Internal.Correction.Weighted>
   9.000000E+99

> <Gold.Protein.RotatedTorsions>
[ 6907 6896 6895 6894 ] final   30.80 input  -60.11 | X-H torsion
[ 7974 7965 7964 7962 ] final -138.61 input  175.53 | X-H torsion
[ 8008 7997 7996 7995 ] final -169.66 input   59.86 | X-H torsion
[ 10167 10162 10161 10158 ] final  172.08 input  -65.29 | X-H torsion
[ 10718 10713 10712 10709 ] final  108.42 input   66.30 | X-H torsion
[ 10763 10752 10751 10750 ] final  -43.68 input  -60.55 | X-H torsion
[ 11005 11000 10999 10996 ] final  -85.93 input  -57.11 | X-H torsion

> <Gold.Protein.ActiveResidues>
 VAL166  LYS551  ARG553  GLY616  TRP617  ASP618  TYR619  PRO620  LYS621  CYS622 
 ASP623  PHE694  ASN695  SER759  ASP760  ASP761  ALA762  ILE779  LEU786  VAL792 
 PHE793  MET794  SER795  GLU796  ALA797  LYS798  CYS799  TRP800  GLU811  SER814 

> <Gold.Protein.RotatedAtoms>
  152.0512  134.9652  160.0574 H   0  0  0  0  0  0  0  0  0  0  0  0  # atno 6907 bound_to 6896
  152.1052  133.4266  159.4614 H   0  0  0  0  0  0  0  0  0  0  0  0  # atno 6908 bound_to 6896
  150.6841  134.2632  159.4601 H   0  0  0  0  0  0  0  0  0  0  0  0  # atno 6909 bound_to 6896
  144.8744  140.6415  143.5246 H   0  0  0  0  0  0  0  0  0  0  0  0  # atno 7974 bound_to 7965
  155.9080  140.1052  157.1301 H   0  0  0  0  0  0  0  0  0  0  0  0  # atno 8008 bound_to 7997
  154.4035  140.1280  156.4585 H   0  0  0  0  0  0  0  0  0  0  0  0  # atno 8009 bound_to 7997
  155.7344  140.3468  155.5077 H   0  0  0  0  0  0  0  0  0  0  0  0  # atno 8010 bound_to 7997
  139.5065  144.3414  152.0014 H   0  0  0  0  0  0  0  0  0  0  0  0  # atno 10167 bound_to 10162
  157.6587  131.0893  150.6303 H   0  0  0  0  0  0  0  0  0  0  0  0  # atno 10718 bound_to 10713
  153.9996  135.6695  153.4758 H   0  0  0  0  0  0  0  0  0  0  0  0  # atno 10763 bound_to 10752
  153.0668  135.4996  154.8214 H   0  0  0  0  0  0  0  0  0  0  0  0  # atno 10764 bound_to 10752
  154.7061  135.3088  154.9231 H   0  0  0  0  0  0  0  0  0  0  0  0  # atno 10765 bound_to 10752
  141.1636  133.7426  156.9087 H   0  0  0  0  0  0  0  0  0  0  0  0  # atno 11005 bound_to 11000
  145.4070  139.1587  143.4147 LP  0  0  0  0  0  0  0  0  0  0  0  0  # atno 17320 bound_to 7965
  146.2953  140.4171  142.8724 LP  0  0  0  0  0  0  0  0  0  0  0  0  # atno 17321 bound_to 7965
  140.2852  144.3815  150.6106 LP  0  0  0  0  0  0  0  0  0  0  0  0  # atno 17342 bound_to 10162
  140.5988  143.2167  151.7112 LP  0  0  0  0  0  0  0  0  0  0  0  0  # atno 17343 bound_to 10162
  156.6607  130.4511  149.5688 LP  0  0  0  0  0  0  0  0  0  0  0  0  # atno 17370 bound_to 10713
  156.2069  130.6655  151.1228 LP  0  0  0  0  0  0  0  0  0  0  0  0  # atno 17371 bound_to 10713
  140.1532  134.9216  157.2619 LP  0  0  0  0  0  0  0  0  0  0  0  0  # atno 17394 bound_to 11000
  140.2698  134.3473  155.7377 LP  0  0  0  0  0  0  0  0  0  0  0  0  # atno 17395 bound_to 11000

$$$$
