AV-unprocessed.smi:672|AV-procd|sdf|3289|dock4
  -GOLD-   22720 0253D 1   1.00000     0.00000
 Structure written by MMmdl.
 36 37  0  0  0  0  0  0  0  0  1 V2000
  148.4085  123.2528  149.7328 C   0  0  0  0  0  0  0  0  0  0  0  0
  149.1600  123.8737  150.9150 C   0  0  0  0  0  0  0  0  0  0  0  0
  148.6216  125.2119  151.2974 C   0  0  0  0  0  0  0  0  0  0  0  0
  148.0681  125.4552  152.4919 N   0  0  0  0  0  0  0  0  0  0  0  0
  147.6672  126.7771  152.6268 N   0  0  0  0  0  0  0  0  0  0  0  0
  147.9459  127.4977  151.5319 C   0  0  0  0  0  0  0  0  0  0  0  0
  147.6467  128.8792  151.3985 N   0  0  0  0  0  0  0  0  0  0  0  0
  146.5386  129.5339  151.7871 C   0  0  0  0  0  0  0  0  0  0  0  0
  145.5695  129.0242  152.3501 O   0  0  0  0  0  0  0  0  0  0  0  0
  146.6142  130.8371  151.4812 N   0  0  0  0  0  0  0  0  0  0  0  0
  145.5836  131.8297  151.7750 C   0  0  2  0  0  0  0  0  0  0  0  0
  144.2575  131.5068  151.0584 C   0  0  0  0  0  0  0  0  0  0  0  0
  144.0640  132.6026  150.0082 C   0  0  0  0  0  0  0  0  0  0  0  0
  144.7895  133.8249  150.5709 C   0  0  1  0  0  0  0  0  0  0  0  0
  143.7242  134.7495  151.7203 S   0  0  0  0  0  0  0  0  0  0  0  0
  144.7006  136.2631  151.9263 C   0  0  0  0  0  0  0  0  0  0  0  0
  146.0095  133.2245  151.2797 C   0  0  0  0  0  0  0  0  0  0  0  0
  148.7271  126.6106  150.2346 S   0  0  0  0  0  0  0  0  0  0  0  0
  148.8220  122.2765  149.4790 H   0  0  0  0  0  0  0  0  0  0  0  0
  148.4781  123.8851  148.8473 H   0  0  0  0  0  0  0  0  0  0  0  0
  147.3520  123.1171  149.9662 H   0  0  0  0  0  0  0  0  0  0  0  0
  149.1013  123.2130  151.7803 H   0  0  0  0  0  0  0  0  0  0  0  0
  150.2183  123.9749  150.6712 H   0  0  0  0  0  0  0  0  0  0  0  0
  148.3606  129.4344  150.9504 H   0  0  0  0  0  0  0  0  0  0  0  0
  147.4461  131.1700  151.0166 H   0  0  0  0  0  0  0  0  0  0  0  0
  145.4102  131.8702  152.8521 H   0  0  0  0  0  0  0  0  0  0  0  0
  144.2350  130.5119  150.6114 H   0  0  0  0  0  0  0  0  0  0  0  0
  143.4404  131.5484  151.7798 H   0  0  0  0  0  0  0  0  0  0  0  0
  144.5429  132.2963  149.0774 H   0  0  0  0  0  0  0  0  0  0  0  0
  143.0131  132.7922  149.7870 H   0  0  0  0  0  0  0  0  0  0  0  0
  145.0856  134.4995  149.7669 H   0  0  0  0  0  0  0  0  0  0  0  0
  144.1842  136.9534  152.5928 H   0  0  0  0  0  0  0  0  0  0  0  0
  144.8459  136.7561  150.9651 H   0  0  0  0  0  0  0  0  0  0  0  0
  145.6776  136.0399  152.3541 H   0  0  0  0  0  0  0  0  0  0  0  0
  146.3837  133.8495  152.0905 H   0  0  0  0  0  0  0  0  0  0  0  0
  146.8195  133.1360  150.5539 H   0  0  0  0  0  0  0  0  0  0  0  0
  1  2  1  0  0  0  0
  1 19  1  0  0  0  0
  1 20  1  0  0  0  0
  1 21  1  0  0  0  0
  2  3  1  0  0  0  0
  2 22  1  0  0  0  0
  2 23  1  0  0  0  0
  3 18  1  0  0  0  0
  3  4  2  0  0  0  0
  4  5  1  0  0  0  0
  5  6  2  0  0  0  0
  6  7  1  0  0  0  0
  6 18  1  0  0  0  0
  7  8  1  0  0  0  0
  7 24  1  0  0  0  0
  8  9  2  0  0  0  0
  8 10  1  0  0  0  0
 10 11  1  0  0  0  0
 10 25  1  0  0  0  0
 11 17  1  0  0  0  0
 11 12  1  0  0  0  0
 11 26  1  0  0  0  0
 12 13  1  0  0  0  0
 12 27  1  0  0  0  0
 12 28  1  0  0  0  0
 13 14  1  0  0  0  0
 13 29  1  0  0  0  0
 13 30  1  0  0  0  0
 14 15  1  0  0  0  0
 14 17  1  0  0  0  0
 14 31  1  0  0  0  0
 15 16  1  0  0  0  0
 16 32  1  0  0  0  0
 16 33  1  0  0  0  0
 16 34  1  0  0  0  0
 17 35  1  0  0  0  0
 17 36  1  0  0  0  0
M  END
> <s_m_source_file>
AV-unprocessed.smi

> <i_m_source_file_index>
672

> <i_lp_mmshare_version>
43012

> <i_f3d_flags>
0

> <s_epik_input>
W0NIM11bQ0gyXWMxbm5jKHMxKVtOSF1DKD1PKVtOSF1bQ0BASF0yW0NIMl1bQ0gyXVtDQEhdKFtDSDJdMilTW0NIM10=

> <s_epik_cmdline>
J2VwaWtfcHl0aG9uJywgJy1waCcsICc3LjAnLCAnLXRuJywgJzgnLCAnLW1hJywgJzIwMCcsICctbWV0YWxfYmluZGluZycsICctaW1hZScsICc8aW5maWxlLm1hZT4nLCAnLW9tYWUnLCAnPG91dGZpbGUubWFlPic=

> <r_lp_tautomer_probability>
1

> <r_epik_Ionization_Penalty>
0.000422169

> <r_epik_Ionization_Penalty_Charging>
0

> <r_epik_Ionization_Penalty_Neutral>
0.000422169

> <r_epik_State_Penalty>
-0

> <r_epik_Charging_Adjusted_Penalty>
0

> <i_epik_Tot_Q>
0

> <i_epik_Tot_abs_Q>
0

> <r_epik_Metal_State_Penalty>
0.200061

> <b_epik_Metal_Only>
0

> <s_lp_Force_Field>
OPLS_2005

> <r_lp_Energy>
12.7649

> <b_lp_Chiralities_Consistent>
1

> <s_lp_Variant>
AV-unprocessed.smi:672-1

> <Gold.Version>
5.8.1

> <Gold.Id.Protein>
6NUR|6NUR_protein|mol2

> <Gold.PLP.Fitness>
43.2207

> <Gold.PLP.PLP>
-38.2271

> <Gold.PLP.part.hbond>
-3.3190

> <Gold.PLP.part.metal>
0.0000

> <Gold.PLP.part.buried>
-6.3606

> <Gold.PLP.part.nonpolar>
-28.2407

> <Gold.PLP.part.repulsive>
0.2950

> <Gold.PLP.ligand.clash>
0.0000

> <Gold.PLP.ligand.torsion>
0.4378

> <Gold.PLP.Chemscore.Hbond>
1.9500

> <Gold.PLP.Chemscore.CHOScore>
0.0000

> <Gold.PLP.Chemscore.Metal>
0.0000

> <Gold.Chemscore.Hbonds>
donor molecule, donor type, donor heavy atom, donor atom, acceptor molecule, acceptor atom, score
      L1  H     7    24       P1 10747  0.90
      L1  H    10    25       P1 10747  0.99

> <Gold.PLP.Chemscore.Internal.Correction>
0.0192

> <Gold.Rescore>
     Score         DG    S(hbond)    S(metal)    S(lipo)     H(rot)  DE(clash)    DE(int)     intcor
     14.44     -15.23       1.34        0.00      75.06       1.37       0.15       0.64       ----

> <Gold.Chemscore.Fitness>
14.4377

> <Gold.Chemscore.DG>
-15.2272

> <Gold.Chemscore.ZeroCoef>
-5.4800

> <Gold.Chemscore.Hbond>
1.3366

> <Gold.Chemscore.Metal>
0.0000

> <Gold.Chemscore.Lipo>
75.0609

> <Gold.Chemscore.Internal_Hbond>
0.0000

> <Gold.Chemscore.DEClash>
0.1528

> <Gold.Chemscore.DEInternal>
0.6367

> <Gold.Chemscore.Rot>
1.3669

> <Gold.Chemscore.Internal.Correction>
   9.000000E+99

> <Gold.Chemscore.Hbonds>
donor molecule, donor type, donor heavy atom, donor atom, acceptor molecule, acceptor atom, score
      L1  H     7    24       P1 10747  0.18
      L1  H    10    25       P1 10747  0.94

> <Gold.Chemscore.Hbond.Weighted>
-4.4643

> <Gold.Chemscore.Metal.Weighted>
-0.0000

> <Gold.Chemscore.Lipo.Weighted>
-8.7821

> <Gold.Chemscore.Internal_Hbond.Weighted>
0.0000

> <Gold.Chemscore.DEClash.Weighted>
0.1528

> <Gold.Chemscore.DEInternal.Weighted>
0.6367

> <Gold.Chemscore.Rot.Weighted>
3.4992

> <Gold.Chemscore.Internal.Correction.Weighted>
   9.000000E+99

> <Gold.Protein.RotatedTorsions>
[ 6907 6896 6895 6894 ] final  -25.05 input  -60.11 | X-H torsion
[ 7974 7965 7964 7962 ] final  103.14 input  175.53 | X-H torsion
[ 8008 7997 7996 7995 ] final  158.51 input   59.86 | X-H torsion
[ 10167 10162 10161 10158 ] final  147.42 input  -65.29 | X-H torsion
[ 10718 10713 10712 10709 ] final  -82.55 input   66.30 | X-H torsion
[ 10763 10752 10751 10750 ] final  -34.90 input  -60.55 | X-H torsion
[ 11005 11000 10999 10996 ] final    1.52 input  -57.11 | X-H torsion

> <Gold.Protein.ActiveResidues>
 VAL166  LYS551  ARG553  GLY616  TRP617  ASP618  TYR619  PRO620  LYS621  CYS622 
 ASP623  PHE694  ASN695  SER759  ASP760  ASP761  ALA762  ILE779  LEU786  VAL792 
 PHE793  MET794  SER795  GLU796  ALA797  LYS798  CYS799  TRP800  GLU811  SER814 

> <Gold.Protein.RotatedAtoms>
  151.1807  135.0359  159.8790 H   0  0  0  0  0  0  0  0  0  0  0  0  # atno 6907 bound_to 6896
  152.5445  134.1066  159.8351 H   0  0  0  0  0  0  0  0  0  0  0  0  # atno 6908 bound_to 6896
  151.1183  133.5076  159.2635 H   0  0  0  0  0  0  0  0  0  0  0  0  # atno 6909 bound_to 6896
  145.3498  139.2442  143.3564 H   0  0  0  0  0  0  0  0  0  0  0  0  # atno 7974 bound_to 7965
  156.2298  140.1856  156.7272 H   0  0  0  0  0  0  0  0  0  0  0  0  # atno 8008 bound_to 7997
  154.6002  140.0637  156.9386 H   0  0  0  0  0  0  0  0  0  0  0  0  # atno 8009 bound_to 7997
  155.2187  140.3305  155.4321 H   0  0  0  0  0  0  0  0  0  0  0  0  # atno 8010 bound_to 7997
  139.4890  144.5756  151.6971 H   0  0  0  0  0  0  0  0  0  0  0  0  # atno 10167 bound_to 10162
  156.0031  130.4638  150.4121 H   0  0  0  0  0  0  0  0  0  0  0  0  # atno 10718 bound_to 10713
  153.8544  135.6846  153.4789 H   0  0  0  0  0  0  0  0  0  0  0  0  # atno 10763 bound_to 10752
  153.1378  135.4670  154.9448 H   0  0  0  0  0  0  0  0  0  0  0  0  # atno 10764 bound_to 10752
  154.7788  135.3262  154.7984 H   0  0  0  0  0  0  0  0  0  0  0  0  # atno 10765 bound_to 10752
  140.6145  133.9718  155.8193 H   0  0  0  0  0  0  0  0  0  0  0  0  # atno 11005 bound_to 11000
  146.2973  140.4112  142.8717 LP  0  0  0  0  0  0  0  0  0  0  0  0  # atno 17320 bound_to 7965
  144.8726  140.7293  143.6037 LP  0  0  0  0  0  0  0  0  0  0  0  0  # atno 17321 bound_to 7965
  140.5352  144.0667  150.6068 LP  0  0  0  0  0  0  0  0  0  0  0  0  # atno 17342 bound_to 10162
  140.3671  143.2875  152.0320 LP  0  0  0  0  0  0  0  0  0  0  0  0  # atno 17343 bound_to 10162
  157.2183  131.0476  151.2560 LP  0  0  0  0  0  0  0  0  0  0  0  0  # atno 17370 bound_to 10713
  157.3824  130.7238  149.6639 LP  0  0  0  0  0  0  0  0  0  0  0  0  # atno 17371 bound_to 10713
  141.0785  134.0098  157.3421 LP  0  0  0  0  0  0  0  0  0  0  0  0  # atno 17394 bound_to 11000
  139.9178  135.0198  156.7950 LP  0  0  0  0  0  0  0  0  0  0  0  0  # atno 17395 bound_to 11000

$$$$
