AV-unprocessed.smi:51|AV-procd|sdf|500|dock2
  -GOLD-   2262016373D 1   1.00000     0.00000
 Structure written by MMmdl.
 25 26  0  0  0  0  0  0  0  0  2 V2000
  152.1423  136.7956  156.3197 O   0  0  0  0  0  0  0  0  0  0  0  0
  152.5336  137.9819  156.3704 C   0  0  0  0  0  0  0  0  0  0  0  0
  153.4071  138.4248  157.1501 O   0  5  0  0  0  0  0  0  0  0  0  0
  151.8743  138.9698  155.3964 C   0  0  1  0  0  0  0  0  0  0  0  0
  151.0583  138.2483  154.3108 C   0  0  0  0  0  0  0  0  0  0  0  0
  149.9546  139.2529  153.9856 C   0  0  1  0  0  0  0  0  0  0  0  0
  148.8157  138.6467  153.4118 O   0  0  0  0  0  0  0  0  0  0  0  0
  149.6550  139.9025  155.3380 C   0  0  0  0  0  0  0  0  0  0  0  0
  150.9197  139.8602  156.0590 N   0  0  0  0  0  0  0  0  0  0  0  0
  151.3165  140.9322  156.8841 C   0  0  0  0  0  0  0  0  0  0  0  0
  152.1528  140.7184  158.0057 C   0  0  0  0  0  0  0  0  0  0  0  0
  152.4976  141.8523  158.7680 C   0  0  0  0  0  0  0  0  0  0  0  0
  152.0536  143.0866  158.4512 N   0  0  0  0  0  0  0  0  0  0  0  0
  151.2719  143.1803  157.3736 C   0  0  0  0  0  0  0  0  0  0  0  0
  150.8811  142.1794  156.5826 N   0  0  0  0  0  0  0  0  0  0  0  0
  152.6423  139.5792  154.9174 H   0  0  0  0  0  0  0  0  0  0  0  0
  151.6591  137.9891  153.4386 H   0  0  0  0  0  0  0  0  0  0  0  0
  150.6173  137.3276  154.6985 H   0  0  0  0  0  0  0  0  0  0  0  0
  150.3452  140.0054  153.2991 H   0  0  0  0  0  0  0  0  0  0  0  0
  149.0622  137.7930  153.0901 H   0  0  0  0  0  0  0  0  0  0  0  0
  149.2682  140.9135  155.2037 H   0  0  0  0  0  0  0  0  0  0  0  0
  148.9210  139.3261  155.9028 H   0  0  0  0  0  0  0  0  0  0  0  0
  152.5271  139.7404  158.2691 H   0  0  0  0  0  0  0  0  0  0  0  0
  153.1353  141.7675  159.6354 H   0  0  0  0  0  0  0  0  0  0  0  0
  150.9155  144.1672  157.1181 H   0  0  0  0  0  0  0  0  0  0  0  0
  1  2  2  0  0  0  0
  2  3  1  0  0  0  0
  2  4  1  0  0  0  0
  4  9  1  0  0  0  0
  4  5  1  0  0  0  0
  4 16  1  0  0  0  0
  5  6  1  0  0  0  0
  5 17  1  0  0  0  0
  5 18  1  0  0  0  0
  6  7  1  0  0  0  0
  6  8  1  0  0  0  0
  6 19  1  0  0  0  0
  7 20  1  0  0  0  0
  8  9  1  0  0  0  0
  8 21  1  0  0  0  0
  8 22  1  0  0  0  0
  9 10  1  0  0  0  0
 10 15  1  0  0  0  0
 10 11  2  0  0  0  0
 11 12  1  0  0  0  0
 11 23  1  0  0  0  0
 12 13  2  0  0  0  0
 12 24  1  0  0  0  0
 13 14  1  0  0  0  0
 14 15  2  0  0  0  0
 14 25  1  0  0  0  0
M  CHG  1   3  -1
M  END
> <s_m_source_file>
AV-unprocessed.smi

> <i_m_source_file_index>
51

> <i_lp_mmshare_version>
43012

> <i_f3d_flags>
0

> <s_epik_input>
Tz1DKFtPSF0pW0NAQEhdMVtDSDJdW0NAQEhdKFtPSF0pW0NIMl1OMWMyW2NIXVtjSF1uW2NIXW4y

> <s_epik_cmdline>
J2VwaWtfcHl0aG9uJywgJy1waCcsICc3LjAnLCAnLXRuJywgJzgnLCAnLW1hJywgJzIwMCcsICctbWV0YWxfYmluZGluZycsICctaW1hZScsICc8aW5maWxlLm1hZT4nLCAnLW9tYWUnLCAnPG91dGZpbGUubWFlPic=

> <r_lp_tautomer_probability>
1

> <r_epik_Ionization_Penalty>
0.225251

> <r_epik_Ionization_Penalty_Charging>
0.000248217

> <r_epik_Ionization_Penalty_Neutral>
0.225002

> <r_epik_State_Penalty>
0.21284

> <r_epik_Charging_Adjusted_Penalty>
0.213088

> <i_epik_Tot_Q>
-1

> <i_epik_Tot_abs_Q>
1

> <r_epik_Metal_State_Penalty>
0.154111

> <b_epik_Metal_Only>
0

> <s_lp_Force_Field>
OPLS_2005

> <r_lp_Energy>
16.2736

> <b_lp_Chiralities_Consistent>
1

> <s_lp_Variant>
AV-unprocessed.smi:51-2

> <Gold.Version>
5.8.1

> <Gold.Id.Protein>
6NUR|6NUR_protein|mol2

> <Gold.PLP.Fitness>
42.3281

> <Gold.PLP.PLP>
-26.3391

> <Gold.PLP.part.hbond>
-4.0000

> <Gold.PLP.part.metal>
0.0000

> <Gold.PLP.part.buried>
-2.3374

> <Gold.PLP.part.nonpolar>
-20.2856

> <Gold.PLP.part.repulsive>
0.1208

> <Gold.PLP.ligand.clash>
0.0000

> <Gold.PLP.ligand.torsion>
1.0046

> <Gold.PLP.Chemscore.Hbond>
4.9840

> <Gold.PLP.Chemscore.CHOScore>
0.9568

> <Gold.PLP.Chemscore.Metal>
0.0000

> <Gold.Chemscore.Hbonds>
donor molecule, donor type, donor heavy atom, donor atom, acceptor molecule, acceptor atom, score
      L1  H     7    20       P1  7948  1.00
      P1  H  7997  8010       L1     3  2.00
      P1  H 10752 10764       L1     1  1.62
      L1  C    14    25       P1  8028  0.95

> <Gold.PLP.Chemscore.Internal.Correction>
0.1760

> <Gold.Rescore>
     Score         DG    S(hbond)    S(metal)    S(lipo)     H(rot)  DE(clash)    DE(int)     intcor
     12.77     -15.30       2.89        0.00      38.37       1.69       0.00       2.53       ----

> <Gold.Chemscore.Fitness>
12.7747

> <Gold.Chemscore.DG>
-15.3030

> <Gold.Chemscore.ZeroCoef>
-5.4800

> <Gold.Chemscore.Hbond>
2.8912

> <Gold.Chemscore.Metal>
0.0000

> <Gold.Chemscore.Lipo>
38.3713

> <Gold.Chemscore.Internal_Hbond>
0.0000

> <Gold.Chemscore.DEClash>
0.0021

> <Gold.Chemscore.DEInternal>
2.5261

> <Gold.Chemscore.Rot>
1.6887

> <Gold.Chemscore.Internal.Correction>
   9.000000E+99

> <Gold.Chemscore.Hbonds>
donor molecule, donor type, donor heavy atom, donor atom, acceptor molecule, acceptor atom, score
      L1  H     7    20       P1  7948  0.96
      P1  H  7997  8010       L1     3  0.94
      P1  H 10752 10764       L1     1  0.73

> <Gold.Chemscore.Hbond.Weighted>
-9.6567

> <Gold.Chemscore.Metal.Weighted>
-0.0000

> <Gold.Chemscore.Lipo.Weighted>
-4.4894

> <Gold.Chemscore.Internal_Hbond.Weighted>
0.0000

> <Gold.Chemscore.DEClash.Weighted>
0.0021

> <Gold.Chemscore.DEInternal.Weighted>
2.5261

> <Gold.Chemscore.Rot.Weighted>
4.3232

> <Gold.Chemscore.Internal.Correction.Weighted>
   9.000000E+99

> <Gold.Protein.RotatedTorsions>
[ 6907 6896 6895 6894 ] final  148.52 input  -60.11 | X-H torsion
[ 7974 7965 7964 7962 ] final  124.58 input  175.53 | X-H torsion
[ 8008 7997 7996 7995 ] final   51.93 input   59.86 | X-H torsion
[ 10167 10162 10161 10158 ] final  -64.39 input  -65.29 | X-H torsion
[ 10718 10713 10712 10709 ] final   -0.23 input   66.30 | X-H torsion
[ 10763 10752 10751 10750 ] final  -41.09 input  -60.55 | X-H torsion
[ 11005 11000 10999 10996 ] final  104.27 input  -57.11 | X-H torsion

> <Gold.Protein.ActiveResidues>
 VAL166  LYS551  ARG553  GLY616  TRP617  ASP618  TYR619  PRO620  LYS621  CYS622 
 ASP623  PHE694  ASN695  SER759  ASP760  ASP761  ALA762  ILE779  LEU786  VAL792 
 PHE793  MET794  SER795  GLU796  ALA797  LYS798  CYS799  TRP800  GLU811  SER814 

> <Gold.Protein.RotatedAtoms>
  152.1404  133.4460  159.4763 H   0  0  0  0  0  0  0  0  0  0  0  0  # atno 6907 bound_to 6896
  150.6885  134.2312  159.4444 H   0  0  0  0  0  0  0  0  0  0  0  0  # atno 6908 bound_to 6896
  152.0202  134.9826  160.0621 H   0  0  0  0  0  0  0  0  0  0  0  0  # atno 6909 bound_to 6896
  145.0828  139.3644  143.4900 H   0  0  0  0  0  0  0  0  0  0  0  0  # atno 7974 bound_to 7965
  155.4435  140.3455  155.4292 H   0  0  0  0  0  0  0  0  0  0  0  0  # atno 8008 bound_to 7997
  156.1264  140.1501  156.9160 H   0  0  0  0  0  0  0  0  0  0  0  0  # atno 8009 bound_to 7997
  154.4861  140.0855  156.7470 H   0  0  0  0  0  0  0  0  0  0  0  0  # atno 8010 bound_to 7997
  140.5804  143.2326  151.6355 H   0  0  0  0  0  0  0  0  0  0  0  0  # atno 10167 bound_to 10162
  156.8235  130.5464  149.5694 H   0  0  0  0  0  0  0  0  0  0  0  0  # atno 10718 bound_to 10713
  153.9568  135.6744  153.4744 H   0  0  0  0  0  0  0  0  0  0  0  0  # atno 10763 bound_to 10752
  153.0857  135.4900  154.8589 H   0  0  0  0  0  0  0  0  0  0  0  0  # atno 10764 bound_to 10752
  154.7295  135.3135  154.8875 H   0  0  0  0  0  0  0  0  0  0  0  0  # atno 10765 bound_to 10752
  139.8790  134.9294  156.5337 H   0  0  0  0  0  0  0  0  0  0  0  0  # atno 11005 bound_to 11000
  146.3531  140.0626  142.8628 LP  0  0  0  0  0  0  0  0  0  0  0  0  # atno 17320 bound_to 7965
  145.1158  140.9433  143.4629 LP  0  0  0  0  0  0  0  0  0  0  0  0  # atno 17321 bound_to 7965
  139.5166  144.3341  152.0800 LP  0  0  0  0  0  0  0  0  0  0  0  0  # atno 17342 bound_to 10162
  140.2490  144.4189  150.6229 LP  0  0  0  0  0  0  0  0  0  0  0  0  # atno 17343 bound_to 10162
  156.0975  130.5943  150.9838 LP  0  0  0  0  0  0  0  0  0  0  0  0  # atno 17370 bound_to 10713
  157.6444  131.0906  150.8184 LP  0  0  0  0  0  0  0  0  0  0  0  0  # atno 17371 bound_to 10713
  140.8362  133.8240  155.9031 LP  0  0  0  0  0  0  0  0  0  0  0  0  # atno 17394 bound_to 11000
  140.9281  134.2056  157.4882 LP  0  0  0  0  0  0  0  0  0  0  0  0  # atno 17395 bound_to 11000

$$$$
