AV-unprocessed.smi:1406|AV-procd|sdf|5719|dock7
  -GOLD-   22720 5353D 1   1.00000     0.00000
 Structure written by MMmdl.
 41 43  0  0  0  0  0  0  0  0  2 V2000
  150.4544  141.2222  156.8181 C   0  0  0  0  0  0  0  0  0  0  0  0
  150.3854  140.7830  155.3414 C   0  0  2  0  0  0  0  0  0  0  0  0
  148.9694  140.8984  154.7564 C   0  0  0  0  0  0  0  0  0  0  0  0
  148.7321  141.6742  153.8300 O   0  0  0  0  0  0  0  0  0  0  0  0
  148.0285  140.1216  155.3157 N   0  0  0  0  0  0  0  0  0  0  0  0
  146.6202  140.1221  154.9347 C   0  0  1  0  0  0  0  0  0  0  0  0
  145.7668  139.0650  155.6623 C   0  0  0  0  0  0  0  0  0  0  0  0
  144.4053  139.7425  155.9141 C   0  0  0  0  0  0  0  0  0  0  0  0
  144.5051  141.0697  155.2764 N   0  3  1  0  0  0  0  0  0  0  0  0
  143.6268  142.1386  155.7994 C   0  0  0  0  0  0  0  0  0  0  0  0
  143.8198  143.4134  154.9531 C   0  0  0  0  0  0  0  0  0  0  0  0
  145.3048  143.8223  154.8609 C   0  0  0  0  0  0  0  0  0  0  0  0
  146.1815  142.6410  154.4009 C   0  0  0  0  0  0  0  0  0  0  0  0
  145.9301  141.4309  155.3149 C   0  0  2  0  0  0  0  0  0  0  0  0
  150.8987  139.4334  155.1426 N   0  0  0  0  0  0  0  0  0  0  0  0
  152.0994  138.9226  155.4243 C   0  0  0  0  0  0  0  0  0  0  0  0
  152.2458  137.6566  155.0600 N   0  0  0  0  0  0  0  0  0  0  0  0
  151.0141  137.4329  154.5133 C   0  0  0  0  0  0  0  0  0  0  0  0
  150.1734  138.4668  154.5262 N   0  0  0  0  0  0  0  0  0  0  0  0
  150.1241  142.2547  156.9364 H   0  0  0  0  0  0  0  0  0  0  0  0
  151.4766  141.1622  157.1930 H   0  0  0  0  0  0  0  0  0  0  0  0
  149.8312  140.6008  157.4623 H   0  0  0  0  0  0  0  0  0  0  0  0
  151.0313  141.4569  154.7757 H   0  0  0  0  0  0  0  0  0  0  0  0
  148.3024  139.5110  156.0720 H   0  0  0  0  0  0  0  0  0  0  0  0
  146.5337  139.9742  153.8561 H   0  0  0  0  0  0  0  0  0  0  0  0
  145.6666  138.1599  155.0620 H   0  0  0  0  0  0  0  0  0  0  0  0
  146.2163  138.7783  156.6142 H   0  0  0  0  0  0  0  0  0  0  0  0
  143.5747  139.1753  155.4929 H   0  0  0  0  0  0  0  0  0  0  0  0
  144.2339  139.8504  156.9863 H   0  0  0  0  0  0  0  0  0  0  0  0
  142.5872  141.8118  155.7573 H   0  0  0  0  0  0  0  0  0  0  0  0
  143.8622  142.3350  156.8465 H   0  0  0  0  0  0  0  0  0  0  0  0
  143.4331  143.2389  153.9482 H   0  0  0  0  0  0  0  0  0  0  0  0
  143.2317  144.2314  155.3702 H   0  0  0  0  0  0  0  0  0  0  0  0
  145.4203  144.6644  154.1781 H   0  0  0  0  0  0  0  0  0  0  0  0
  145.6457  144.1678  155.8378 H   0  0  0  0  0  0  0  0  0  0  0  0
  145.9484  142.3867  153.3660 H   0  0  0  0  0  0  0  0  0  0  0  0
  147.2346  142.9231  154.4255 H   0  0  0  0  0  0  0  0  0  0  0  0
  146.1947  141.6907  156.3428 H   0  0  0  0  0  0  0  0  0  0  0  0
  152.8851  139.4901  155.9008 H   0  0  0  0  0  0  0  0  0  0  0  0
  150.7311  136.4819  154.0866 H   0  0  0  0  0  0  0  0  0  0  0  0
  144.2714  140.9377  154.3027 H   0  0  0  0  0  0  0  0  0  0  0  0
  1  2  1  0  0  0  0
  1 20  1  0  0  0  0
  1 21  1  0  0  0  0
  1 22  1  0  0  0  0
  2  3  1  0  0  0  0
  2 15  1  0  0  0  0
  2 23  1  0  0  0  0
  3  4  2  0  0  0  0
  3  5  1  0  0  0  0
  5  6  1  0  0  0  0
  5 24  1  0  0  0  0
  6 14  1  0  0  0  0
  6  7  1  0  0  0  0
  6 25  1  0  0  0  0
  7  8  1  0  0  0  0
  7 26  1  0  0  0  0
  7 27  1  0  0  0  0
  8  9  1  0  0  0  0
  8 28  1  0  0  0  0
  8 29  1  0  0  0  0
  9 14  1  0  0  0  0
  9 10  1  0  0  0  0
  9 41  1  0  0  0  0
 10 11  1  0  0  0  0
 10 30  1  0  0  0  0
 10 31  1  0  0  0  0
 11 12  1  0  0  0  0
 11 32  1  0  0  0  0
 11 33  1  0  0  0  0
 12 13  1  0  0  0  0
 12 34  1  0  0  0  0
 12 35  1  0  0  0  0
 13 14  1  0  0  0  0
 13 36  1  0  0  0  0
 13 37  1  0  0  0  0
 14 38  1  0  0  0  0
 15 19  1  0  0  0  0
 15 16  1  0  0  0  0
 16 17  2  0  0  0  0
 16 39  1  0  0  0  0
 17 18  1  0  0  0  0
 18 19  2  0  0  0  0
 18 40  1  0  0  0  0
M  CHG  1   9   1
M  END
> <s_m_source_file>
AV-unprocessed.smi

> <i_m_source_file_index>
1406

> <i_lp_mmshare_version>
43012

> <i_f3d_flags>
0

> <s_epik_input>
bjFbY0hdbltjSF1uMVtDQEhdKFtDSDNdKUMoPU8pW05IXVtDQEhdKFtDSDJdW0NIMl0yKVtDQEBIXShOMjMpW0NIMl1bQ0gyXVtDSDJdW0NIMl0z

> <s_epik_cmdline>
J2VwaWtfcHl0aG9uJywgJy1waCcsICc3LjAnLCAnLXRuJywgJzgnLCAnLW1hJywgJzIwMCcsICctbWV0YWxfYmluZGluZycsICctaW1hZScsICc8aW5maWxlLm1hZT4nLCAnLW9tYWUnLCAnPG91dGZpbGUubWFlPic=

> <r_lp_tautomer_probability>
1

> <r_epik_Ionization_Penalty>
0.00197066

> <r_epik_Ionization_Penalty_Charging>
0.00196223

> <r_epik_Ionization_Penalty_Neutral>
8.43107e-06

> <r_epik_State_Penalty>
0.00133866

> <r_epik_Charging_Adjusted_Penalty>
0.00330089

> <i_epik_Tot_Q>
1

> <i_epik_Tot_abs_Q>
1

> <r_epik_Metal_State_Penalty>
-0

> <b_epik_Metal_Only>
0

> <s_lp_Force_Field>
OPLS_2005

> <r_lp_Energy>
39.7149

> <b_lp_Chiralities_Consistent>
1

> <s_lp_Variant>
AV-unprocessed.smi:1406-11

> <Gold.Version>
5.8.1

> <Gold.Id.Protein>
6NUR|6NUR_protein|mol2

> <Gold.PLP.Fitness>
39.2951

> <Gold.PLP.PLP>
-28.4898

> <Gold.PLP.part.hbond>
-3.0000

> <Gold.PLP.part.metal>
0.0000

> <Gold.PLP.part.buried>
-2.4143

> <Gold.PLP.part.nonpolar>
-23.3343

> <Gold.PLP.part.repulsive>
0.4633

> <Gold.PLP.ligand.clash>
0.0000

> <Gold.PLP.ligand.torsion>
0.0861

> <Gold.PLP.Chemscore.Hbond>
2.7496

> <Gold.PLP.Chemscore.CHOScore>
0.8763

> <Gold.PLP.Chemscore.Metal>
0.0000

> <Gold.Chemscore.Hbonds>
donor molecule, donor type, donor heavy atom, donor atom, acceptor molecule, acceptor atom, score
      L1  H     9    41       P1 10175  2.00
      P1  H  8011  8017       L1     4  0.62
      P1  H 10752 10763       L1    17  0.14
      L1  C    18    40       P1  7948  0.12
      L1  C    18    40       P1  7949  0.39

> <Gold.PLP.Chemscore.Internal.Correction>
0.0999

> <Gold.Rescore>
     Score         DG    S(hbond)    S(metal)    S(lipo)     H(rot)  DE(clash)    DE(int)     intcor
      7.35     -10.31       1.62        0.00      36.41       1.89       0.15       2.80       ----

> <Gold.Chemscore.Fitness>
7.3520

> <Gold.Chemscore.DG>
-10.3058

> <Gold.Chemscore.ZeroCoef>
-5.4800

> <Gold.Chemscore.Hbond>
1.6154

> <Gold.Chemscore.Metal>
0.0000

> <Gold.Chemscore.Lipo>
36.4108

> <Gold.Chemscore.Internal_Hbond>
0.0000

> <Gold.Chemscore.DEClash>
0.1535

> <Gold.Chemscore.DEInternal>
2.8003

> <Gold.Chemscore.Rot>
1.8865

> <Gold.Chemscore.Internal.Correction>
   9.000000E+99

> <Gold.Chemscore.Hbonds>
donor molecule, donor type, donor heavy atom, donor atom, acceptor molecule, acceptor atom, score
      L1  H     9    41       P1 10175  0.92
      P1  H  8011  8017       L1     4  0.61
      P1  H 10752 10763       L1    17  0.01

> <Gold.Chemscore.Hbond.Weighted>
-5.3953

> <Gold.Chemscore.Metal.Weighted>
-0.0000

> <Gold.Chemscore.Lipo.Weighted>
-4.2601

> <Gold.Chemscore.Internal_Hbond.Weighted>
0.0000

> <Gold.Chemscore.DEClash.Weighted>
0.1535

> <Gold.Chemscore.DEInternal.Weighted>
2.8003

> <Gold.Chemscore.Rot.Weighted>
4.8295

> <Gold.Chemscore.Internal.Correction.Weighted>
   9.000000E+99

> <Gold.Protein.RotatedTorsions>
[ 6907 6896 6895 6894 ] final  -45.50 input  -60.11 | X-H torsion
[ 7974 7965 7964 7962 ] final    1.52 input  175.53 | X-H torsion
[ 8008 7997 7996 7995 ] final  102.14 input   59.86 | X-H torsion
[ 10167 10162 10161 10158 ] final -123.81 input  -65.29 | X-H torsion
[ 10718 10713 10712 10709 ] final -113.72 input   66.30 | X-H torsion
[ 10763 10752 10751 10750 ] final   38.83 input  -60.55 | X-H torsion
[ 11005 11000 10999 10996 ] final  -29.57 input  -57.11 | X-H torsion

> <Gold.Protein.ActiveResidues>
 VAL166  LYS551  ARG553  GLY616  TRP617  ASP618  TYR619  PRO620  LYS621  CYS622 
 ASP623  PHE694  ASN695  SER759  ASP760  ASP761  ALA762  ILE779  LEU786  VAL792 
 PHE793  MET794  SER795  GLU796  ALA797  LYS798  CYS799  TRP800  GLU811  SER814 

> <Gold.Protein.RotatedAtoms>
  150.9213  134.8630  159.7490 H   0  0  0  0  0  0  0  0  0  0  0  0  # atno 6907 bound_to 6896
  152.4994  134.4215  159.9492 H   0  0  0  0  0  0  0  0  0  0  0  0  # atno 6908 bound_to 6896
  151.4248  133.3648  159.2796 H   0  0  0  0  0  0  0  0  0  0  0  0  # atno 6909 bound_to 6896
  146.2440  140.0975  142.8349 H   0  0  0  0  0  0  0  0  0  0  0  0  # atno 7974 bound_to 7965
  156.1365  140.3186  155.8428 H   0  0  0  0  0  0  0  0  0  0  0  0  # atno 8008 bound_to 7997
  155.4235  140.0514  157.3041 H   0  0  0  0  0  0  0  0  0  0  0  0  # atno 8009 bound_to 7997
  154.4941  140.2104  155.9498 H   0  0  0  0  0  0  0  0  0  0  0  0  # atno 8010 bound_to 7997
  139.9995  143.5555  152.2309 H   0  0  0  0  0  0  0  0  0  0  0  0  # atno 10167 bound_to 10162
  156.0784  130.5988  150.8680 H   0  0  0  0  0  0  0  0  0  0  0  0  # atno 10718 bound_to 10713
  152.9987  135.6238  154.2368 H   0  0  0  0  0  0  0  0  0  0  0  0  # atno 10763 bound_to 10752
  154.2109  135.2800  155.2960 H   0  0  0  0  0  0  0  0  0  0  0  0  # atno 10764 bound_to 10752
  154.5607  135.5706  153.7063 H   0  0  0  0  0  0  0  0  0  0  0  0  # atno 10765 bound_to 10752
  140.9308  133.7339  156.0934 H   0  0  0  0  0  0  0  0  0  0  0  0  # atno 11005 bound_to 11000
  145.0597  140.9079  143.4946 LP  0  0  0  0  0  0  0  0  0  0  0  0  # atno 17320 bound_to 7965
  145.1088  139.2771  143.5648 LP  0  0  0  0  0  0  0  0  0  0  0  0  # atno 17321 bound_to 7965
  139.6282  144.7640  151.2594 LP  0  0  0  0  0  0  0  0  0  0  0  0  # atno 17342 bound_to 10162
  140.7424  143.6527  150.8234 LP  0  0  0  0  0  0  0  0  0  0  0  0  # atno 17343 bound_to 10162
  157.5890  131.0945  150.9149 LP  0  0  0  0  0  0  0  0  0  0  0  0  # atno 17370 bound_to 10713
  156.9329  130.5356  149.5279 LP  0  0  0  0  0  0  0  0  0  0  0  0  # atno 17371 bound_to 10713
  140.7865  134.3666  157.5475 LP  0  0  0  0  0  0  0  0  0  0  0  0  # atno 17394 bound_to 11000
  139.8796  134.9114  156.3036 LP  0  0  0  0  0  0  0  0  0  0  0  0  # atno 17395 bound_to 11000

$$$$
