AV-unprocessed.smi:20|AV-procd|sdf|116|dock7
  -GOLD-   2262015283D 1   1.00000     0.00000
 Structure written by MMmdl.
 57 61  0  0  0  0  0  0  0  0  1 V2000
  144.5028  137.3575  154.6919 O   0  0  0  0  0  0  0  0  0  0  0  0
  145.4208  137.9644  154.1455 C   0  0  0  0  0  0  0  0  0  0  0  0
  146.6396  138.4934  154.8819 C   0  0  0  0  0  0  0  0  0  0  0  0
  147.2760  139.4731  153.8666 C   0  0  1  0  0  0  0  0  0  0  0  0
  146.8017  140.9331  154.0985 C   0  0  0  0  0  0  0  0  0  0  0  0
  147.4342  141.5580  155.3548 C   0  0  0  0  0  0  0  0  0  0  0  0
  148.9638  141.4262  155.3310 C   0  0  0  0  0  0  0  0  0  0  0  0
  149.3582  140.0354  155.1084 N   0  0  0  0  0  0  0  0  0  0  0  0
  150.6321  139.6784  155.4121 C   0  0  0  0  0  0  0  0  0  0  0  0
  151.3999  139.0481  154.4829 N   0  0  0  0  0  0  0  0  0  0  0  0
  152.6515  138.6830  154.7750 C   0  0  0  0  0  0  0  0  0  0  0  0
  153.3247  138.8501  155.9146 N   0  0  0  0  0  0  0  0  0  0  0  0
  152.5647  139.4900  156.8484 C   0  0  0  0  0  0  0  0  0  0  0  0
  151.2223  139.9348  156.6825 C   0  0  0  0  0  0  0  0  0  0  0  0
  150.7830  140.5534  157.8475 N   0  0  0  0  0  0  0  0  0  0  0  0
  151.8025  140.4696  158.6577 C   0  0  0  0  0  0  0  0  0  0  0  0
  152.9200  139.8597  158.1342 N   0  0  0  0  0  0  0  0  0  0  0  0
  154.1823  139.6286  158.8155 C   0  0  0  0  0  0  0  0  0  0  0  0
  154.1451  139.9071  160.3405 C   0  0  1  0  0  0  0  0  0  0  0  0
  154.2554  138.5701  161.1103 C   0  0  0  0  0  0  0  0  0  0  0  0
  153.4777  137.5547  160.5086 O   0  0  0  0  0  0  0  0  0  0  0  0
  155.1923  140.9541  160.8198 C   0  0  2  0  0  0  0  0  0  0  0  0
  155.5335  140.8779  162.2998 C   0  0  0  0  0  0  0  0  0  0  0  0
  156.1692  142.2367  162.5525 C   0  0  0  0  0  0  0  0  0  0  0  0
  155.4003  143.1356  161.7685 O   0  0  0  0  0  0  0  0  0  0  0  0
  154.7720  142.4284  160.7026 C   0  0  0  0  0  0  0  0  0  0  0  0
  148.8206  139.4306  153.8898 C   0  0  0  0  0  0  0  0  0  0  0  0
  146.7276  138.9579  152.5144 C   0  0  0  0  0  0  0  0  0  0  0  0
  145.5047  138.2547  152.8497 N   0  0  0  0  0  0  0  0  0  0  0  0
  146.3613  138.9585  155.8269 H   0  0  0  0  0  0  0  0  0  0  0  0
  147.3010  137.6541  155.1010 H   0  0  0  0  0  0  0  0  0  0  0  0
  147.0783  141.5443  153.2384 H   0  0  0  0  0  0  0  0  0  0  0  0
  145.7142  140.9821  154.1668 H   0  0  0  0  0  0  0  0  0  0  0  0
  147.1556  142.6095  155.4272 H   0  0  0  0  0  0  0  0  0  0  0  0
  147.0425  141.0793  156.2520 H   0  0  0  0  0  0  0  0  0  0  0  0
  149.3793  142.0484  154.5370 H   0  0  0  0  0  0  0  0  0  0  0  0
  149.3714  141.7906  156.2749 H   0  0  0  0  0  0  0  0  0  0  0  0
  153.1909  138.1861  153.9821 H   0  0  0  0  0  0  0  0  0  0  0  0
  151.7699  140.8598  159.6645 H   0  0  0  0  0  0  0  0  0  0  0  0
  154.4551  138.5885  158.6333 H   0  0  0  0  0  0  0  0  0  0  0  0
  154.9570  140.2320  158.3414 H   0  0  0  0  0  0  0  0  0  0  0  0
  153.1564  140.3023  160.5775 H   0  0  0  0  0  0  0  0  0  0  0  0
  155.2903  138.2334  161.1677 H   0  0  0  0  0  0  0  0  0  0  0  0
  153.9226  138.6965  162.1409 H   0  0  0  0  0  0  0  0  0  0  0  0
  153.8884  137.3025  159.6956 H   0  0  0  0  0  0  0  0  0  0  0  0
  156.1176  140.8181  160.2572 H   0  0  0  0  0  0  0  0  0  0  0  0
  154.6270  140.7729  162.8980 H   0  0  0  0  0  0  0  0  0  0  0  0
  156.2054  140.0548  162.5453 H   0  0  0  0  0  0  0  0  0  0  0  0
  156.1646  142.5162  163.6063 H   0  0  0  0  0  0  0  0  0  0  0  0
  157.2010  142.2484  162.1983 H   0  0  0  0  0  0  0  0  0  0  0  0
  155.0643  142.8611  159.7466 H   0  0  0  0  0  0  0  0  0  0  0  0
  153.6934  142.5450  160.8124 H   0  0  0  0  0  0  0  0  0  0  0  0
  149.1620  138.4034  153.7666 H   0  0  0  0  0  0  0  0  0  0  0  0
  149.2148  139.9845  153.0366 H   0  0  0  0  0  0  0  0  0  0  0  0
  146.5396  139.7561  151.7957 H   0  0  0  0  0  0  0  0  0  0  0  0
  147.4120  138.2469  152.0490 H   0  0  0  0  0  0  0  0  0  0  0  0
  144.8103  138.0017  152.1616 H   0  0  0  0  0  0  0  0  0  0  0  0
  1  2  2  0  0  0  0
  2 29  1  0  0  0  0
  2  3  1  0  0  0  0
  3  4  1  0  0  0  0
  3 30  1  0  0  0  0
  3 31  1  0  0  0  0
  4 27  1  0  0  0  0
  4  5  1  0  0  0  0
  4 28  1  0  0  0  0
  5  6  1  0  0  0  0
  5 32  1  0  0  0  0
  5 33  1  0  0  0  0
  6  7  1  0  0  0  0
  6 34  1  0  0  0  0
  6 35  1  0  0  0  0
  7  8  1  0  0  0  0
  7 36  1  0  0  0  0
  7 37  1  0  0  0  0
  8  9  1  0  0  0  0
  8 27  1  0  0  0  0
  9 14  1  0  0  0  0
  9 10  2  0  0  0  0
 10 11  1  0  0  0  0
 11 12  2  0  0  0  0
 11 38  1  0  0  0  0
 12 13  1  0  0  0  0
 13 17  1  0  0  0  0
 13 14  2  0  0  0  0
 14 15  1  0  0  0  0
 15 16  2  0  0  0  0
 16 17  1  0  0  0  0
 16 39  1  0  0  0  0
 17 18  1  0  0  0  0
 18 19  1  0  0  0  0
 18 40  1  0  0  0  0
 18 41  1  0  0  0  0
 19 20  1  0  0  0  0
 19 22  1  0  0  0  0
 19 42  1  0  0  0  0
 20 21  1  0  0  0  0
 20 43  1  0  0  0  0
 20 44  1  0  0  0  0
 21 45  1  0  0  0  0
 22 26  1  0  0  0  0
 22 23  1  0  0  0  0
 22 46  1  0  0  0  0
 23 24  1  0  0  0  0
 23 47  1  0  0  0  0
 23 48  1  0  0  0  0
 24 25  1  0  0  0  0
 24 49  1  0  0  0  0
 24 50  1  0  0  0  0
 25 26  1  0  0  0  0
 26 51  1  0  0  0  0
 26 52  1  0  0  0  0
 27 53  1  0  0  0  0
 27 54  1  0  0  0  0
 28 29  1  0  0  0  0
 28 55  1  0  0  0  0
 28 56  1  0  0  0  0
 29 57  1  0  0  0  0
M  END
> <s_m_source_file>
AV-unprocessed.smi

> <i_m_source_file_index>
20

> <i_lp_mmshare_version>
43012

> <i_f3d_flags>
0

> <s_epik_input>
W0NIMl0xW05IXUMoPU8pW0NIMl1bQ0BAXTEyW0NIMl1bQ0gyXVtDSDJdTihbQ0gyXTIpYyhuW2NIXW4zKWMoYzM0KW5bY0hdbjRbQ0gyXVtDQEhdKFtDSDJdW09IXSlbQ0BASF01W0NIMl1bQ0gyXU9bQ0gyXTU=

> <s_epik_cmdline>
J2VwaWtfcHl0aG9uJywgJy1waCcsICc3LjAnLCAnLXRuJywgJzgnLCAnLW1hJywgJzIwMCcsICctbWV0YWxfYmluZGluZycsICctaW1hZScsICc8aW5maWxlLm1hZT4nLCAnLW9tYWUnLCAnPG91dGZpbGUubWFlPic=

> <r_lp_tautomer_probability>
1

> <r_epik_Ionization_Penalty>
0.0019697

> <r_epik_Ionization_Penalty_Charging>
0

> <r_epik_Ionization_Penalty_Neutral>
0.0019697

> <r_epik_State_Penalty>
0.00113613

> <r_epik_Charging_Adjusted_Penalty>
0.00113613

> <i_epik_Tot_Q>
0

> <i_epik_Tot_abs_Q>
0

> <r_epik_Metal_State_Penalty>
-0

> <b_epik_Metal_Only>
0

> <s_lp_Force_Field>
OPLS_2005

> <r_lp_Energy>
60.744

> <b_lp_Chiralities_Consistent>
1

> <s_lp_Variant>
AV-unprocessed.smi:20-4

> <Gold.Version>
5.8.1

> <Gold.Id.Protein>
6NUR|6NUR_protein|mol2

> <Gold.PLP.Fitness>
47.8248

> <Gold.PLP.PLP>
-38.9983

> <Gold.PLP.part.hbond>
-5.9969

> <Gold.PLP.part.metal>
0.0000

> <Gold.PLP.part.buried>
5.0612

> <Gold.PLP.part.nonpolar>
-36.3460

> <Gold.PLP.part.repulsive>
0.3605

> <Gold.PLP.ligand.clash>
0.0000

> <Gold.PLP.ligand.torsion>
1.7396

> <Gold.PLP.Chemscore.Hbond>
3.9280

> <Gold.PLP.Chemscore.CHOScore>
0.0000

> <Gold.PLP.Chemscore.Metal>
0.0000

> <Gold.Chemscore.Hbonds>
donor molecule, donor type, donor heavy atom, donor atom, acceptor molecule, acceptor atom, score
      P1  H  7989  7998       L1    10  0.45
      P1  H  7997  8009       L1    12  0.32

> <Gold.PLP.Chemscore.Internal.Correction>
0.5218

> <Gold.Rescore>
     Score         DG    S(hbond)    S(metal)    S(lipo)     H(rot)  DE(clash)    DE(int)     intcor
     12.58     -17.24       2.39        0.00      92.28       2.74       2.77       1.88       ----

> <Gold.Chemscore.Fitness>
12.5844

> <Gold.Chemscore.DG>
-17.2356

> <Gold.Chemscore.ZeroCoef>
-5.4800

> <Gold.Chemscore.Hbond>
2.3882

> <Gold.Chemscore.Metal>
0.0000

> <Gold.Chemscore.Lipo>
92.2845

> <Gold.Chemscore.Internal_Hbond>
0.0000

> <Gold.Chemscore.DEClash>
2.7682

> <Gold.Chemscore.DEInternal>
1.8830

> <Gold.Chemscore.Rot>
2.7415

> <Gold.Chemscore.Internal.Correction>
   9.000000E+99

> <Gold.Chemscore.Hbonds>
donor molecule, donor type, donor heavy atom, donor atom, acceptor molecule, acceptor atom, score
      P1  H  7989  7998       L1    10  0.01
      P1  H  7997  8009       L1    12  0.01

> <Gold.Chemscore.Hbond.Weighted>
-7.9765

> <Gold.Chemscore.Metal.Weighted>
-0.0000

> <Gold.Chemscore.Lipo.Weighted>
-10.7973

> <Gold.Chemscore.Internal_Hbond.Weighted>
0.0000

> <Gold.Chemscore.DEClash.Weighted>
2.7682

> <Gold.Chemscore.DEInternal.Weighted>
1.8830

> <Gold.Chemscore.Rot.Weighted>
7.0182

> <Gold.Chemscore.Internal.Correction.Weighted>
   9.000000E+99

> <Gold.Protein.RotatedTorsions>
[ 6907 6896 6895 6894 ] final  163.30 input  -60.11 | X-H torsion
[ 7974 7965 7964 7962 ] final -135.81 input  175.53 | X-H torsion
[ 8008 7997 7996 7995 ] final -143.08 input   59.86 | X-H torsion
[ 10167 10162 10161 10158 ] final   72.02 input  -65.29 | X-H torsion
[ 10718 10713 10712 10709 ] final  -35.05 input   66.30 | X-H torsion
[ 10763 10752 10751 10750 ] final   94.50 input  -60.55 | X-H torsion
[ 11005 11000 10999 10996 ] final -147.95 input  -57.11 | X-H torsion

> <Gold.Protein.ActiveResidues>
 VAL166  LYS551  ARG553  GLY616  TRP617  ASP618  TYR619  PRO620  LYS621  CYS622 
 ASP623  PHE694  ASN695  SER759  ASP760  ASP761  ALA762  ILE779  LEU786  VAL792 
 PHE793  MET794  SER795  GLU796  ALA797  LYS798  CYS799  TRP800  GLU811  SER814 

> <Gold.Protein.RotatedAtoms>
  151.9273  133.3601  159.3917 H   0  0  0  0  0  0  0  0  0  0  0  0  # atno 6907 bound_to 6896
  150.7024  134.4574  159.5374 H   0  0  0  0  0  0  0  0  0  0  0  0  # atno 6908 bound_to 6896
  152.2208  134.8415  160.0537 H   0  0  0  0  0  0  0  0  0  0  0  0  # atno 6909 bound_to 6896
  144.8982  140.6735  143.5102 H   0  0  0  0  0  0  0  0  0  0  0  0  # atno 7974 bound_to 7965
  155.5047  140.0578  157.2933 H   0  0  0  0  0  0  0  0  0  0  0  0  # atno 8008 bound_to 7997
  154.4574  140.1979  156.0290 H   0  0  0  0  0  0  0  0  0  0  0  0  # atno 8009 bound_to 7997
  156.0825  140.3245  155.7716 H   0  0  0  0  0  0  0  0  0  0  0  0  # atno 8010 bound_to 7997
  140.0398  144.5399  150.7443 H   0  0  0  0  0  0  0  0  0  0  0  0  # atno 10167 bound_to 10162
  156.3432  130.4297  149.7769 H   0  0  0  0  0  0  0  0  0  0  0  0  # atno 10718 bound_to 10713
  153.2424  135.4287  155.0712 H   0  0  0  0  0  0  0  0  0  0  0  0  # atno 10763 bound_to 10752
  154.8346  135.3406  154.6630 H   0  0  0  0  0  0  0  0  0  0  0  0  # atno 10764 bound_to 10752
  153.7053  135.7026  153.5108 H   0  0  0  0  0  0  0  0  0  0  0  0  # atno 10765 bound_to 10752
  140.7663  134.3240  157.5088 H   0  0  0  0  0  0  0  0  0  0  0  0  # atno 11005 bound_to 11000
  145.3663  139.1669  143.4356 LP  0  0  0  0  0  0  0  0  0  0  0  0  # atno 17320 bound_to 7965
  146.3093  140.3730  142.8676 LP  0  0  0  0  0  0  0  0  0  0  0  0  # atno 17321 bound_to 7965
  140.7265  143.2642  151.4101 LP  0  0  0  0  0  0  0  0  0  0  0  0  # atno 17342 bound_to 10162
  139.6021  144.1273  152.2210 LP  0  0  0  0  0  0  0  0  0  0  0  0  # atno 17343 bound_to 10162
  156.4997  130.8123  151.3127 LP  0  0  0  0  0  0  0  0  0  0  0  0  # atno 17370 bound_to 10713
  157.7450  130.9949  150.2723 LP  0  0  0  0  0  0  0  0  0  0  0  0  # atno 17371 bound_to 10713
  139.8762  134.9233  156.3322 LP  0  0  0  0  0  0  0  0  0  0  0  0  # atno 17394 bound_to 11000
  140.9616  133.7385  156.0409 LP  0  0  0  0  0  0  0  0  0  0  0  0  # atno 17395 bound_to 11000

$$$$
