AV-unprocessed.smi:678|AV-procd|sdf|3315|dock5
  -GOLD-   22720 0283D 1   1.00000     0.00000
 Structure written by MMmdl.
 51 52  0  0  0  0  0  0  0  0  2 V2000
  153.7961  142.2983  160.5722 C   0  0  0  0  0  0  0  0  0  0  0  0
  152.9055  142.9689  159.5410 C   0  0  0  0  0  0  0  0  0  0  0  0
  152.7154  144.3062  159.5357 C   0  0  0  0  0  0  0  0  0  0  0  0
  151.8638  144.9346  158.5551 C   0  0  0  0  0  0  0  0  0  0  0  0
  151.2632  144.1551  157.6446 C   0  0  0  0  0  0  0  0  0  0  0  0
  151.4461  142.7598  157.6263 N   0  0  0  0  0  0  0  0  0  0  0  0
  150.7334  142.0042  156.5816 C   0  0  0  0  0  0  0  0  0  0  0  0
  149.5394  141.2101  157.1290 C   0  0  0  0  0  0  0  0  0  0  0  0
  148.7075  141.7521  157.8577 O   0  0  0  0  0  0  0  0  0  0  0  0
  149.4702  139.9209  156.7652 N   0  0  0  0  0  0  0  0  0  0  0  0
  148.4720  138.9682  157.2383 C   0  0  0  0  0  0  0  0  0  0  0  0
  147.5538  138.5075  156.0916 C   0  0  2  0  0  0  0  0  0  0  0  0
  148.2997  137.6053  155.0831 C   0  0  0  0  0  0  0  0  0  0  0  0
  147.4411  137.2451  153.9242 N   0  3  1  0  0  0  0  0  0  0  0  0
  146.4430  136.1739  154.1928 C   0  0  0  0  0  0  0  0  0  0  0  0
  145.2923  136.1490  153.1634 C   0  0  0  0  0  0  0  0  0  0  0  0
  143.9765  135.6532  153.7870 C   0  0  0  0  0  0  0  0  0  0  0  0
  145.6702  135.2831  151.9525 C   0  0  0  0  0  0  0  0  0  0  0  0
  146.8543  138.4634  153.3150 C   0  0  0  0  0  0  0  0  0  0  0  0
  146.1448  139.3266  154.3726 C   0  0  0  0  0  0  0  0  0  0  0  0
  147.0693  139.6552  155.4005 O   0  0  0  0  0  0  0  0  0  0  0  0
  152.2443  142.1164  158.5353 C   0  0  0  0  0  0  0  0  0  0  0  0
  152.3932  140.8926  158.5078 O   0  0  0  0  0  0  0  0  0  0  0  0
  154.2263  143.0266  161.2604 H   0  0  0  0  0  0  0  0  0  0  0  0
  154.6164  141.7717  160.0834 H   0  0  0  0  0  0  0  0  0  0  0  0
  153.2252  141.5778  161.1588 H   0  0  0  0  0  0  0  0  0  0  0  0
  153.2034  144.9226  160.2766 H   0  0  0  0  0  0  0  0  0  0  0  0
  151.7107  146.0039  158.5573 H   0  0  0  0  0  0  0  0  0  0  0  0
  150.6053  144.5464  156.8823 H   0  0  0  0  0  0  0  0  0  0  0  0
  150.3664  142.6691  155.7986 H   0  0  0  0  0  0  0  0  0  0  0  0
  151.4292  141.3278  156.0808 H   0  0  0  0  0  0  0  0  0  0  0  0
  150.1876  139.5635  156.1507 H   0  0  0  0  0  0  0  0  0  0  0  0
  148.9450  138.1137  157.7255 H   0  0  0  0  0  0  0  0  0  0  0  0
  147.8796  139.4697  158.0041 H   0  0  0  0  0  0  0  0  0  0  0  0
  146.7118  137.9659  156.5251 H   0  0  0  0  0  0  0  0  0  0  0  0
  149.1714  138.1383  154.7006 H   0  0  0  0  0  0  0  0  0  0  0  0
  148.6850  136.7143  155.5768 H   0  0  0  0  0  0  0  0  0  0  0  0
  146.9383  135.2040  154.2328 H   0  0  0  0  0  0  0  0  0  0  0  0
  146.0068  136.3249  155.1813 H   0  0  0  0  0  0  0  0  0  0  0  0
  145.1245  137.1574  152.7862 H   0  0  0  0  0  0  0  0  0  0  0  0
  144.0809  134.6423  154.1825 H   0  0  0  0  0  0  0  0  0  0  0  0
  143.1746  135.6380  153.0482 H   0  0  0  0  0  0  0  0  0  0  0  0
  143.6518  136.2988  154.6032 H   0  0  0  0  0  0  0  0  0  0  0  0
  145.8490  134.2476  152.2446 H   0  0  0  0  0  0  0  0  0  0  0  0
  146.5751  135.6538  151.4700 H   0  0  0  0  0  0  0  0  0  0  0  0
  144.8772  135.2849  151.2041 H   0  0  0  0  0  0  0  0  0  0  0  0
  147.6605  139.0421  152.8624 H   0  0  0  0  0  0  0  0  0  0  0  0
  146.1739  138.2026  152.5037 H   0  0  0  0  0  0  0  0  0  0  0  0
  145.7808  140.2494  153.9206 H   0  0  0  0  0  0  0  0  0  0  0  0
  145.2769  138.8143  154.7905 H   0  0  0  0  0  0  0  0  0  0  0  0
  148.0538  136.8575  153.2206 H   0  0  0  0  0  0  0  0  0  0  0  0
  1  2  1  0  0  0  0
  1 24  1  0  0  0  0
  1 25  1  0  0  0  0
  1 26  1  0  0  0  0
  2 22  1  0  0  0  0
  2  3  2  0  0  0  0
  3  4  1  0  0  0  0
  3 27  1  0  0  0  0
  4  5  2  0  0  0  0
  4 28  1  0  0  0  0
  5  6  1  0  0  0  0
  5 29  1  0  0  0  0
  6  7  1  0  0  0  0
  6 22  1  0  0  0  0
  7  8  1  0  0  0  0
  7 30  1  0  0  0  0
  7 31  1  0  0  0  0
  8  9  2  0  0  0  0
  8 10  1  0  0  0  0
 10 11  1  0  0  0  0
 10 32  1  0  0  0  0
 11 12  1  0  0  0  0
 11 33  1  0  0  0  0
 11 34  1  0  0  0  0
 12 21  1  0  0  0  0
 12 13  1  0  0  0  0
 12 35  1  0  0  0  0
 13 14  1  0  0  0  0
 13 36  1  0  0  0  0
 13 37  1  0  0  0  0
 14 15  1  0  0  0  0
 14 19  1  0  0  0  0
 14 51  1  0  0  0  0
 15 16  1  0  0  0  0
 15 38  1  0  0  0  0
 15 39  1  0  0  0  0
 16 17  1  0  0  0  0
 16 18  1  0  0  0  0
 16 40  1  0  0  0  0
 17 41  1  0  0  0  0
 17 42  1  0  0  0  0
 17 43  1  0  0  0  0
 18 44  1  0  0  0  0
 18 45  1  0  0  0  0
 18 46  1  0  0  0  0
 19 20  1  0  0  0  0
 19 47  1  0  0  0  0
 19 48  1  0  0  0  0
 20 21  1  0  0  0  0
 20 49  1  0  0  0  0
 20 50  1  0  0  0  0
 22 23  2  0  0  0  0
M  CHG  1  14   1
M  END
> <s_m_source_file>
AV-unprocessed.smi

> <i_m_source_file_index>
678

> <i_lp_mmshare_version>
43012

> <i_f3d_flags>
0

> <s_epik_input>
W0NIM11jMVtjSF1bY0hdW2NIXW4oYzE9TylbQ0gyXUMoPU8pW05IXVtDSDJdW0NAQEhdMltDSDJdTihbQ0gyXVtDSDJdTzIpW0NIMl1bQ0hdKFtDSDNdKVtDSDNd

> <s_epik_cmdline>
J2VwaWtfcHl0aG9uJywgJy1waCcsICc3LjAnLCAnLXRuJywgJzgnLCAnLW1hJywgJzIwMCcsICctbWV0YWxfYmluZGluZycsICctaW1hZScsICc8aW5maWxlLm1hZT4nLCAnLW9tYWUnLCAnPG91dGZpbGUubWFlPic=

> <r_lp_tautomer_probability>
1

> <r_epik_Ionization_Penalty>
0.0975937

> <r_epik_Ionization_Penalty_Charging>
0.0975937

> <r_epik_Ionization_Penalty_Neutral>
6.27044e-08

> <r_epik_State_Penalty>
0.0877056

> <r_epik_Charging_Adjusted_Penalty>
0.185299

> <i_epik_Tot_Q>
1

> <i_epik_Tot_abs_Q>
1

> <r_epik_Metal_State_Penalty>
0.0877109

> <b_epik_Metal_Only>
0

> <s_lp_Force_Field>
OPLS_2005

> <r_lp_Energy>
29.877

> <b_lp_Chiralities_Consistent>
1

> <s_lp_Variant>
AV-unprocessed.smi:678-3

> <Gold.Version>
5.8.1

> <Gold.Id.Protein>
6NUR|6NUR_protein|mol2

> <Gold.PLP.Fitness>
48.0045

> <Gold.PLP.PLP>
-40.7409

> <Gold.PLP.part.hbond>
-1.0000

> <Gold.PLP.part.metal>
0.0000

> <Gold.PLP.part.buried>
-2.4559

> <Gold.PLP.part.nonpolar>
-37.9510

> <Gold.PLP.part.repulsive>
0.6937

> <Gold.PLP.ligand.clash>
0.0000

> <Gold.PLP.ligand.torsion>
0.9385

> <Gold.PLP.Chemscore.Hbond>
2.0000

> <Gold.PLP.Chemscore.CHOScore>
1.0000

> <Gold.PLP.Chemscore.Metal>
0.0000

> <Gold.Chemscore.Hbonds>
donor molecule, donor type, donor heavy atom, donor atom, acceptor molecule, acceptor atom, score
      L1  H    14    51       P1  7948  2.00
      L1  C     5    29       P1  8028  1.00

> <Gold.PLP.Chemscore.Internal.Correction>
0.1405

> <Gold.Rescore>
     Score         DG    S(hbond)    S(metal)    S(lipo)     H(rot)  DE(clash)    DE(int)     intcor
     14.67     -16.05       1.00        0.00     103.07       1.89       0.38       1.00       ----

> <Gold.Chemscore.Fitness>
14.6694

> <Gold.Chemscore.DG>
-16.0480

> <Gold.Chemscore.ZeroCoef>
-5.4800

> <Gold.Chemscore.Hbond>
0.9999

> <Gold.Chemscore.Metal>
0.0000

> <Gold.Chemscore.Lipo>
103.0722

> <Gold.Chemscore.Internal_Hbond>
0.0000

> <Gold.Chemscore.DEClash>
0.3755

> <Gold.Chemscore.DEInternal>
1.0031

> <Gold.Chemscore.Rot>
1.8871

> <Gold.Chemscore.Internal.Correction>
   9.000000E+99

> <Gold.Chemscore.Hbonds>
donor molecule, donor type, donor heavy atom, donor atom, acceptor molecule, acceptor atom, score
      L1  H    14    51       P1  7948  1.00

> <Gold.Chemscore.Hbond.Weighted>
-3.3395

> <Gold.Chemscore.Metal.Weighted>
-0.0000

> <Gold.Chemscore.Lipo.Weighted>
-12.0594

> <Gold.Chemscore.Internal_Hbond.Weighted>
0.0000

> <Gold.Chemscore.DEClash.Weighted>
0.3755

> <Gold.Chemscore.DEInternal.Weighted>
1.0031

> <Gold.Chemscore.Rot.Weighted>
4.8309

> <Gold.Chemscore.Internal.Correction.Weighted>
   9.000000E+99

> <Gold.Protein.RotatedTorsions>
[ 6907 6896 6895 6894 ] final  171.27 input  -60.11 | X-H torsion
[ 7974 7965 7964 7962 ] final -149.62 input  175.53 | X-H torsion
[ 8008 7997 7996 7995 ] final   -9.99 input   59.86 | X-H torsion
[ 10167 10162 10161 10158 ] final   94.50 input  -65.29 | X-H torsion
[ 10718 10713 10712 10709 ] final   28.20 input   66.30 | X-H torsion
[ 10763 10752 10751 10750 ] final -166.59 input  -60.55 | X-H torsion
[ 11005 11000 10999 10996 ] final  -13.26 input  -57.11 | X-H torsion

> <Gold.Protein.ActiveResidues>
 VAL166  LYS551  ARG553  GLY616  TRP617  ASP618  TYR619  PRO620  LYS621  CYS622 
 ASP623  PHE694  ASN695  SER759  ASP760  ASP761  ALA762  ILE779  LEU786  VAL792 
 PHE793  MET794  SER795  GLU796  ALA797  LYS798  CYS799  TRP800  GLU811  SER814 

> <Gold.Protein.RotatedAtoms>
  151.8029  133.3372  159.3532 H   0  0  0  0  0  0  0  0  0  0  0  0  # atno 6907 bound_to 6896
  150.7352  134.5736  159.5912 H   0  0  0  0  0  0  0  0  0  0  0  0  # atno 6908 bound_to 6896
  152.3130  134.7476  160.0383 H   0  0  0  0  0  0  0  0  0  0  0  0  # atno 6909 bound_to 6896
  144.7957  140.5041  143.5742 H   0  0  0  0  0  0  0  0  0  0  0  0  # atno 7974 bound_to 7965
  154.5596  140.2340  155.8356 H   0  0  0  0  0  0  0  0  0  0  0  0  # atno 8008 bound_to 7997
  156.2018  140.3050  155.9502 H   0  0  0  0  0  0  0  0  0  0  0  0  # atno 8009 bound_to 7997
  155.2914  140.0427  157.3014 H   0  0  0  0  0  0  0  0  0  0  0  0  # atno 8010 bound_to 7997
  139.8078  144.6786  150.9680 H   0  0  0  0  0  0  0  0  0  0  0  0  # atno 10167 bound_to 10162
  157.2303  130.7020  149.6310 H   0  0  0  0  0  0  0  0  0  0  0  0  # atno 10718 bound_to 10713
  154.6818  135.2956  154.9603 H   0  0  0  0  0  0  0  0  0  0  0  0  # atno 10763 bound_to 10752
  154.0595  135.6633  153.4814 H   0  0  0  0  0  0  0  0  0  0  0  0  # atno 10764 bound_to 10752
  153.0552  135.5149  154.7864 H   0  0  0  0  0  0  0  0  0  0  0  0  # atno 10765 bound_to 10752
  140.7743  133.8413  155.9234 H   0  0  0  0  0  0  0  0  0  0  0  0  # atno 11005 bound_to 11000
  145.5680  139.1482  143.3304 LP  0  0  0  0  0  0  0  0  0  0  0  0  # atno 17320 bound_to 7965
  146.2224  140.5814  142.9011 LP  0  0  0  0  0  0  0  0  0  0  0  0  # atno 17321 bound_to 7965
  140.7819  143.4216  151.0833 LP  0  0  0  0  0  0  0  0  0  0  0  0  # atno 17342 bound_to 10162
  139.7884  143.8253  152.3148 LP  0  0  0  0  0  0  0  0  0  0  0  0  # atno 17343 bound_to 10162
  155.9676  130.4491  150.5645 LP  0  0  0  0  0  0  0  0  0  0  0  0  # atno 17370 bound_to 10713
  157.3485  131.0729  151.1732 LP  0  0  0  0  0  0  0  0  0  0  0  0  # atno 17371 bound_to 10713
  140.9544  134.1737  157.4703 LP  0  0  0  0  0  0  0  0  0  0  0  0  # atno 17394 bound_to 11000
  139.8751  134.9921  156.5582 LP  0  0  0  0  0  0  0  0  0  0  0  0  # atno 17395 bound_to 11000

$$$$
