AV-unprocessed.smi:703|AV-procd|sdf|3429|dock1
  -GOLD-   22720 0413D 1   1.00000     0.00000
 Structure written by MMmdl.
 38 39  0  0  0  0  0  0  0  0  2 V2000
  145.1921  134.3443  151.0474 C   0  0  0  0  0  0  0  0  0  0  0  0
  145.3347  135.8348  150.7116 C   0  0  0  0  0  0  0  0  0  0  0  0
  146.0925  136.5726  151.7491 N   0  3  2  0  0  0  0  0  0  0  0  0
  145.4774  136.5838  153.0898 C   0  0  0  0  0  0  0  0  0  0  0  0
  146.2090  137.6954  153.8463 C   0  0  2  0  0  0  0  0  0  0  0  0
  145.3874  138.3091  154.9878 C   0  0  0  0  0  0  0  0  0  0  0  0
  146.6093  138.7027  152.7520 C   0  0  1  0  0  0  0  0  0  0  0  0
  148.0232  139.0669  152.8834 N   0  0  0  0  0  0  0  0  0  0  0  0
  148.5041  140.0002  154.2507 S   0  0  0  0  0  0  0  0  0  0  0  0
  149.4615  141.0105  153.7754 O   0  0  0  0  0  0  0  0  0  0  0  0
  147.2812  140.4197  154.9524 O   0  0  0  0  0  0  0  0  0  0  0  0
  149.3890  138.7651  155.2926 C   0  0  0  0  0  0  0  0  0  0  0  0
  150.8701  138.8977  155.0812 C   0  0  0  0  0  0  0  0  0  0  0  0
  151.7870  137.9192  154.6071 C   0  0  0  0  0  0  0  0  0  0  0  0
  152.9849  138.5742  154.6159 C   0  0  0  0  0  0  0  0  0  0  0  0
  152.8271  139.8466  155.0597 O   0  0  0  0  0  0  0  0  0  0  0  0
  151.4735  140.0435  155.3559 N   0  0  0  0  0  0  0  0  0  0  0  0
  146.3519  137.9874  151.4156 C   0  0  0  0  0  0  0  0  0  0  0  0
  144.6882  133.8146  150.2388 H   0  0  0  0  0  0  0  0  0  0  0  0
  144.6054  134.1892  151.9531 H   0  0  0  0  0  0  0  0  0  0  0  0
  146.1664  133.8765  151.1920 H   0  0  0  0  0  0  0  0  0  0  0  0
  145.8639  135.9294  149.7625 H   0  0  0  0  0  0  0  0  0  0  0  0
  144.3528  136.2885  150.5698 H   0  0  0  0  0  0  0  0  0  0  0  0
  144.4152  136.8195  153.0008 H   0  0  0  0  0  0  0  0  0  0  0  0
  145.5695  135.6187  153.5890 H   0  0  0  0  0  0  0  0  0  0  0  0
  147.1110  137.2536  154.2744 H   0  0  0  0  0  0  0  0  0  0  0  0
  144.4672  138.7625  154.6180 H   0  0  0  0  0  0  0  0  0  0  0  0
  145.9565  139.0841  155.5024 H   0  0  0  0  0  0  0  0  0  0  0  0
  145.1149  137.5531  155.7243 H   0  0  0  0  0  0  0  0  0  0  0  0
  145.9922  139.6015  152.8006 H   0  0  0  0  0  0  0  0  0  0  0  0
  148.3885  139.4659  152.0190 H   0  0  0  0  0  0  0  0  0  0  0  0
  149.1175  138.9370  156.3347 H   0  0  0  0  0  0  0  0  0  0  0  0
  149.0438  137.7685  155.0182 H   0  0  0  0  0  0  0  0  0  0  0  0
  151.5958  136.9003  154.3053 H   0  0  0  0  0  0  0  0  0  0  0  0
  153.9909  138.2856  154.3496 H   0  0  0  0  0  0  0  0  0  0  0  0
  147.1762  138.0803  150.7068 H   0  0  0  0  0  0  0  0  0  0  0  0
  145.4661  138.4171  150.9443 H   0  0  0  0  0  0  0  0  0  0  0  0
  146.9960  136.1314  151.8457 H   0  0  0  0  0  0  0  0  0  0  0  0
  1  2  1  0  0  0  0
  1 19  1  0  0  0  0
  1 20  1  0  0  0  0
  1 21  1  0  0  0  0
  2  3  1  0  0  0  0
  2 22  1  0  0  0  0
  2 23  1  0  0  0  0
  3 18  1  0  0  0  0
  3  4  1  0  0  0  0
  3 38  1  0  0  0  0
  4  5  1  0  0  0  0
  4 24  1  0  0  0  0
  4 25  1  0  0  0  0
  5  6  1  0  0  0  0
  5  7  1  0  0  0  0
  5 26  1  0  0  0  0
  6 27  1  0  0  0  0
  6 28  1  0  0  0  0
  6 29  1  0  0  0  0
  7  8  1  0  0  0  0
  7 18  1  0  0  0  0
  7 30  1  0  0  0  0
  8  9  1  0  0  0  0
  8 31  1  0  0  0  0
  9 10  2  0  0  0  0
  9 11  2  0  0  0  0
  9 12  1  0  0  0  0
 12 13  1  0  0  0  0
 12 32  1  0  0  0  0
 12 33  1  0  0  0  0
 13 17  2  0  0  0  0
 13 14  1  0  0  0  0
 14 15  2  0  0  0  0
 14 34  1  0  0  0  0
 15 16  1  0  0  0  0
 15 35  1  0  0  0  0
 16 17  1  0  0  0  0
 18 36  1  0  0  0  0
 18 37  1  0  0  0  0
M  CHG  1   3   1
M  END
> <s_m_source_file>
AV-unprocessed.smi

> <i_m_source_file_index>
703

> <i_lp_mmshare_version>
43012

> <i_f3d_flags>
0

> <s_epik_input>
W0NIM11bQ0gyXU4xW0NIMl1bQ0BASF0oW0NIM10pW0NASF0oW0NIMl0xKVtOSF1TKD1PKSg9TylbQ0gyXWMyW2NIXVtjSF1vbjI=

> <s_epik_cmdline>
J2VwaWtfcHl0aG9uJywgJy1waCcsICc3LjAnLCAnLXRuJywgJzgnLCAnLW1hJywgJzIwMCcsICctbWV0YWxfYmluZGluZycsICctaW1hZScsICc8aW5maWxlLm1hZT4nLCAnLW9tYWUnLCAnPG91dGZpbGUubWFlPic=

> <r_epik_Ionization_Penalty>
0.00324529

> <r_epik_Ionization_Penalty_Charging>
0.0019384

> <r_epik_Ionization_Penalty_Neutral>
0.00130689

> <r_epik_State_Penalty>
0.00218682

> <r_epik_Charging_Adjusted_Penalty>
0.00412522

> <i_epik_Tot_Q>
1

> <i_epik_Tot_abs_Q>
1

> <r_epik_Metal_State_Penalty>
0.310831

> <b_epik_Metal_Only>
0

> <s_lp_Force_Field>
OPLS_2005

> <r_lp_Energy>
19.0381

> <b_lp_Chiralities_Consistent>
1

> <s_lp_Variant>
AV-unprocessed.smi:703-4

> <Gold.Version>
5.8.1

> <Gold.Id.Protein>
6NUR|6NUR_protein|mol2

> <Gold.PLP.Fitness>
44.7698

> <Gold.PLP.PLP>
-30.3941

> <Gold.PLP.part.hbond>
-7.5843

> <Gold.PLP.part.metal>
0.0000

> <Gold.PLP.part.buried>
-2.3209

> <Gold.PLP.part.nonpolar>
-24.0694

> <Gold.PLP.part.repulsive>
2.6084

> <Gold.PLP.ligand.clash>
0.0000

> <Gold.PLP.ligand.torsion>
0.7021

> <Gold.PLP.Chemscore.Hbond>
5.1944

> <Gold.PLP.Chemscore.CHOScore>
0.0000

> <Gold.PLP.Chemscore.Metal>
0.0000

> <Gold.Chemscore.Hbonds>
donor molecule, donor type, donor heavy atom, donor atom, acceptor molecule, acceptor atom, score
      L1  H     3    38       P1  7948  2.00
      L1  H     8    31       P1  7957  1.00
      P1  H  7989  7998       L1    10  0.24
      P1  H  7997  8009       L1    16  1.00
      P1  H  8011  8017       L1    10  0.94

> <Gold.PLP.Chemscore.Internal.Correction>
0.1967

> <Gold.Rescore>
     Score         DG    S(hbond)    S(metal)    S(lipo)     H(rot)  DE(clash)    DE(int)     intcor
     16.93     -21.24       3.98        0.00      63.51       1.94       0.90       3.41       ----

> <Gold.Chemscore.Fitness>
16.9311

> <Gold.Chemscore.DG>
-21.2420

> <Gold.Chemscore.ZeroCoef>
-5.4800

> <Gold.Chemscore.Hbond>
3.9815

> <Gold.Chemscore.Metal>
0.0000

> <Gold.Chemscore.Lipo>
63.5073

> <Gold.Chemscore.Internal_Hbond>
0.0000

> <Gold.Chemscore.DEClash>
0.8973

> <Gold.Chemscore.DEInternal>
3.4136

> <Gold.Chemscore.Rot>
1.9400

> <Gold.Chemscore.Internal.Correction>
   9.000000E+99

> <Gold.Chemscore.Hbonds>
donor molecule, donor type, donor heavy atom, donor atom, acceptor molecule, acceptor atom, score
      L1  H     3    38       P1  7948  0.95
      L1  H     8    31       P1  7957  0.94
      P1  H  7989  7998       L1    10  0.24
      P1  H  7997  8009       L1    16  0.45
      P1  H  8011  8017       L1    10  0.85

> <Gold.Chemscore.Hbond.Weighted>
-13.2981

> <Gold.Chemscore.Metal.Weighted>
-0.0000

> <Gold.Chemscore.Lipo.Weighted>
-7.4303

> <Gold.Chemscore.Internal_Hbond.Weighted>
0.0000

> <Gold.Chemscore.DEClash.Weighted>
0.8973

> <Gold.Chemscore.DEInternal.Weighted>
3.4136

> <Gold.Chemscore.Rot.Weighted>
4.9665

> <Gold.Chemscore.Internal.Correction.Weighted>
   9.000000E+99

> <Gold.Protein.RotatedTorsions>
[ 6907 6896 6895 6894 ] final   42.99 input  -60.11 | X-H torsion
[ 7974 7965 7964 7962 ] final  -67.06 input  175.53 | X-H torsion
[ 8008 7997 7996 7995 ] final -150.48 input   59.86 | X-H torsion
[ 10167 10162 10161 10158 ] final   -1.14 input  -65.29 | X-H torsion
[ 10718 10713 10712 10709 ] final  -34.75 input   66.30 | X-H torsion
[ 10763 10752 10751 10750 ] final -162.28 input  -60.55 | X-H torsion
[ 11005 11000 10999 10996 ] final  -32.16 input  -57.11 | X-H torsion

> <Gold.Protein.ActiveResidues>
 VAL166  LYS551  ARG553  GLY616  TRP617  ASP618  TYR619  PRO620  LYS621  CYS622 
 ASP623  PHE694  ASN695  SER759  ASP760  ASP761  ALA762  ILE779  LEU786  VAL792 
 PHE793  MET794  SER795  GLU796  ALA797  LYS798  CYS799  TRP800  GLU811  SER814 

> <Gold.Protein.RotatedAtoms>
  152.2147  134.8469  160.0493 H   0  0  0  0  0  0  0  0  0  0  0  0  # atno 6907 bound_to 6896
  151.9275  133.3597  159.3927 H   0  0  0  0  0  0  0  0  0  0  0  0  # atno 6908 bound_to 6896
  150.6985  134.4497  159.5374 H   0  0  0  0  0  0  0  0  0  0  0  0  # atno 6909 bound_to 6896
  145.7339  140.8984  143.0565 H   0  0  0  0  0  0  0  0  0  0  0  0  # atno 7974 bound_to 7965
  155.6242  140.0684  157.2669 H   0  0  0  0  0  0  0  0  0  0  0  0  # atno 8008 bound_to 7997
  154.4221  140.1779  156.1452 H   0  0  0  0  0  0  0  0  0  0  0  0  # atno 8009 bound_to 7997
  155.9985  140.3338  155.6825 H   0  0  0  0  0  0  0  0  0  0  0  0  # atno 8010 bound_to 7997
  140.6797  143.6811  150.8105 H   0  0  0  0  0  0  0  0  0  0  0  0  # atno 10167 bound_to 10162
  156.3468  130.4302  149.7739 H   0  0  0  0  0  0  0  0  0  0  0  0  # atno 10718 bound_to 10713
  154.7228  135.3029  154.9019 H   0  0  0  0  0  0  0  0  0  0  0  0  # atno 10763 bound_to 10752
  153.9886  135.6721  153.4757 H   0  0  0  0  0  0  0  0  0  0  0  0  # atno 10764 bound_to 10752
  153.0849  135.4989  154.8495 H   0  0  0  0  0  0  0  0  0  0  0  0  # atno 10765 bound_to 10752
  140.9529  133.7210  156.1248 H   0  0  0  0  0  0  0  0  0  0  0  0  # atno 11005 bound_to 11000
  144.6886  139.9369  143.7474 LP  0  0  0  0  0  0  0  0  0  0  0  0  # atno 17320 bound_to 7965
  146.0511  139.3512  143.0639 LP  0  0  0  0  0  0  0  0  0  0  0  0  # atno 17321 bound_to 7965
  140.0510  143.5250  152.2674 LP  0  0  0  0  0  0  0  0  0  0  0  0  # atno 17342 bound_to 10162
  139.6112  144.7609  151.2948 LP  0  0  0  0  0  0  0  0  0  0  0  0  # atno 17343 bound_to 10162
  156.4954  130.8104  151.3111 LP  0  0  0  0  0  0  0  0  0  0  0  0  # atno 17370 bound_to 10713
  157.7455  130.9962  150.2770 LP  0  0  0  0  0  0  0  0  0  0  0  0  # atno 17371 bound_to 10713
  140.7577  134.3974  157.5531 LP  0  0  0  0  0  0  0  0  0  0  0  0  # atno 17394 bound_to 11000
  139.8853  134.8941  156.2651 LP  0  0  0  0  0  0  0  0  0  0  0  0  # atno 17395 bound_to 11000

$$$$
