AV-unprocessed.smi:2310|AV-procd|sdf|9259|dock1
  -GOLD-   2272012483D 1   1.00000     0.00000
 Structure written by MMmdl.
 45 46  0  0  0  0  0  0  0  0  3 V2000
  151.9813  145.0498  159.4529 C   0  0  0  0  0  0  0  0  0  0  0  0
  151.9529  144.4379  158.0382 C   0  0  0  0  0  0  0  0  0  0  0  0
  151.2597  143.0606  157.9310 C   0  0  2  0  0  0  0  0  0  0  0  0
  152.1874  141.9397  158.4334 C   0  0  0  0  0  0  0  0  0  0  0  0
  152.6977  142.1442  159.8010 C   0  0  0  0  0  0  0  0  0  0  0  0
  153.1008  142.3092  160.8746 N   0  0  0  0  0  0  0  0  0  0  0  0
  150.9083  142.7950  156.5304 N   0  5  0  0  0  0  0  0  0  0  0  0
  150.3842  141.6305  156.0627 C   0  0  0  0  0  0  0  0  0  0  0  0
  150.7572  140.4787  156.3137 O   0  0  0  0  0  0  0  0  0  0  0  0
  149.3566  141.8404  155.2220 N   0  0  0  0  0  0  0  0  0  0  0  0
  148.5466  140.8816  154.5554 C   0  0  0  0  0  0  0  0  0  0  0  0
  148.9079  139.5157  154.4535 C   0  0  0  0  0  0  0  0  0  0  0  0
  148.0432  138.6133  153.8030 C   0  0  0  0  0  0  0  0  0  0  0  0
  146.8209  139.0844  153.2719 C   0  0  0  0  0  0  0  0  0  0  0  0
  145.8902  138.2688  152.6131 N   0  0  0  0  0  0  0  0  0  0  0  0
  145.2889  137.2407  153.4458 C   0  0  0  0  0  0  0  0  0  0  0  0
  144.6665  136.2354  152.4738 C   0  0  0  0  0  0  0  0  0  0  0  0
  145.4073  136.4566  151.1496 C   0  0  0  0  0  0  0  0  0  0  0  0
  146.4014  137.5854  151.4364 C   0  0  0  0  0  0  0  0  0  0  0  0
  146.5058  140.3907  153.4057 N   0  3  0  0  0  0  0  0  0  0  0  0
  147.3028  141.2929  154.0209 C   0  0  0  0  0  0  0  0  0  0  0  0
  146.8112  142.7266  154.0959 C   0  0  0  0  0  0  0  0  0  0  0  0
  152.5224  145.9961  159.4429 H   0  0  0  0  0  0  0  0  0  0  0  0
  152.4834  144.3999  160.1717 H   0  0  0  0  0  0  0  0  0  0  0  0
  150.9797  145.2608  159.8315 H   0  0  0  0  0  0  0  0  0  0  0  0
  151.4859  145.1420  157.3481 H   0  0  0  0  0  0  0  0  0  0  0  0
  152.9846  144.3347  157.7006 H   0  0  0  0  0  0  0  0  0  0  0  0
  150.3867  143.0749  158.5856 H   0  0  0  0  0  0  0  0  0  0  0  0
  151.6793  140.9752  158.4033 H   0  0  0  0  0  0  0  0  0  0  0  0
  153.0588  141.8580  157.7835 H   0  0  0  0  0  0  0  0  0  0  0  0
  149.1891  142.8047  154.9750 H   0  0  0  0  0  0  0  0  0  0  0  0
  149.8288  139.1452  154.8780 H   0  0  0  0  0  0  0  0  0  0  0  0
  148.3188  137.5721  153.7234 H   0  0  0  0  0  0  0  0  0  0  0  0
  146.0458  136.7498  154.0588 H   0  0  0  0  0  0  0  0  0  0  0  0
  144.5401  137.6669  154.1144 H   0  0  0  0  0  0  0  0  0  0  0  0
  144.7634  135.2123  152.8383 H   0  0  0  0  0  0  0  0  0  0  0  0
  143.6035  136.4421  152.3435 H   0  0  0  0  0  0  0  0  0  0  0  0
  145.9146  135.5557  150.8029 H   0  0  0  0  0  0  0  0  0  0  0  0
  144.7008  136.7583  150.3754 H   0  0  0  0  0  0  0  0  0  0  0  0
  146.4821  138.2702  150.5916 H   0  0  0  0  0  0  0  0  0  0  0  0
  147.3923  137.1723  151.6291 H   0  0  0  0  0  0  0  0  0  0  0  0
  146.7102  143.0385  155.1361 H   0  0  0  0  0  0  0  0  0  0  0  0
  145.8410  142.8415  153.6111 H   0  0  0  0  0  0  0  0  0  0  0  0
  147.5176  143.3952  153.6028 H   0  0  0  0  0  0  0  0  0  0  0  0
  145.6178  140.7150  153.0228 H   0  0  0  0  0  0  0  0  0  0  0  0
  1  2  1  0  0  0  0
  1 23  1  0  0  0  0
  1 24  1  0  0  0  0
  1 25  1  0  0  0  0
  2  3  1  0  0  0  0
  2 26  1  0  0  0  0
  2 27  1  0  0  0  0
  3  4  1  0  0  0  0
  3  7  1  0  0  0  0
  3 28  1  0  0  0  0
  4  5  1  0  0  0  0
  4 29  1  0  0  0  0
  4 30  1  0  0  0  0
  5  6  3  0  0  0  0
  7  8  1  0  0  0  0
  8  9  2  0  0  0  0
  8 10  1  0  0  0  0
 10 11  1  0  0  0  0
 10 31  1  0  0  0  0
 11 21  1  0  0  0  0
 11 12  2  0  0  0  0
 12 13  1  0  0  0  0
 12 32  1  0  0  0  0
 13 14  2  0  0  0  0
 13 33  1  0  0  0  0
 14 15  1  0  0  0  0
 14 20  1  0  0  0  0
 15 19  1  0  0  0  0
 15 16  1  0  0  0  0
 16 17  1  0  0  0  0
 16 34  1  0  0  0  0
 16 35  1  0  0  0  0
 17 18  1  0  0  0  0
 17 36  1  0  0  0  0
 17 37  1  0  0  0  0
 18 19  1  0  0  0  0
 18 38  1  0  0  0  0
 18 39  1  0  0  0  0
 19 40  1  0  0  0  0
 19 41  1  0  0  0  0
 20 21  2  0  0  0  0
 20 45  1  0  0  0  0
 21 22  1  0  0  0  0
 22 42  1  0  0  0  0
 22 43  1  0  0  0  0
 22 44  1  0  0  0  0
M  CHG  1   7  -1
M  CHG  1  20   1
M  END
> <s_m_source_file>
AV-unprocessed.smi

> <i_m_source_file_index>
2310

> <i_lp_mmshare_version>
43012

> <i_f3d_flags>
0

> <s_epik_input>
TiNDW0NIMl1bQ0BASF0oW0NIMl1bQ0gzXSlbTkhdQyg9TylbTkhdYzFbY0hdW2NIXWMobmMxW0NIM10pTjJbQ0gyXVtDSDJdW0NIMl1bQ0gyXTI=

> <s_epik_cmdline>
J2VwaWtfcHl0aG9uJywgJy1waCcsICc3LjAnLCAnLXRuJywgJzgnLCAnLW1hJywgJzIwMCcsICctbWV0YWxfYmluZGluZycsICctaW1hZScsICc8aW5maWxlLm1hZT4nLCAnLW9tYWUnLCAnPG91dGZpbGUubWFlPic=

> <r_lp_tautomer_probability>
0.999994

> <r_epik_Ionization_Penalty>
7.34515

> <r_epik_Ionization_Penalty_Charging>
7.34514

> <r_epik_Ionization_Penalty_Neutral>
2.56118e-06

> <r_epik_State_Penalty>
6.99243

> <r_epik_Charging_Adjusted_Penalty>
14.3376

> <i_epik_Tot_Q>
0

> <i_epik_Tot_abs_Q>
2

> <r_epik_Metal_State_Penalty>
3.10684

> <b_epik_Metal_Only>
1

> <s_lp_Force_Field>
OPLS_2005

> <r_lp_Energy>
38.8935

> <b_lp_Chiralities_Consistent>
1

> <s_lp_Variant>
AV-unprocessed.smi:2310-5

> <Gold.Version>
5.8.1

> <Gold.Id.Protein>
6NUR|6NUR_protein|mol2

> <Gold.PLP.Fitness>
49.3045

> <Gold.PLP.PLP>
-41.5817

> <Gold.PLP.part.hbond>
-2.0000

> <Gold.PLP.part.metal>
0.0000

> <Gold.PLP.part.buried>
-2.7663

> <Gold.PLP.part.nonpolar>
-40.6395

> <Gold.PLP.part.repulsive>
2.4563

> <Gold.PLP.ligand.clash>
0.0000

> <Gold.PLP.ligand.torsion>
0.6730

> <Gold.PLP.Chemscore.Hbond>
2.9440

> <Gold.PLP.Chemscore.CHOScore>
0.0000

> <Gold.PLP.Chemscore.Metal>
0.0000

> <Gold.Chemscore.Hbonds>
donor molecule, donor type, donor heavy atom, donor atom, acceptor molecule, acceptor atom, score
      L1  H    10    31       P1  8028  0.91
      L1  H    20    45       P1 10175  2.00

> <Gold.PLP.Chemscore.Internal.Correction>
0.2368

> <Gold.Rescore>
     Score         DG    S(hbond)    S(metal)    S(lipo)     H(rot)  DE(clash)    DE(int)     intcor
     13.36     -19.14       1.89        0.00      98.83       1.65       2.44       3.34       ----

> <Gold.Chemscore.Fitness>
13.3633

> <Gold.Chemscore.DG>
-19.1429

> <Gold.Chemscore.ZeroCoef>
-5.4800

> <Gold.Chemscore.Hbond>
1.8944

> <Gold.Chemscore.Metal>
0.0000

> <Gold.Chemscore.Lipo>
98.8318

> <Gold.Chemscore.Internal_Hbond>
0.0000

> <Gold.Chemscore.DEClash>
2.4380

> <Gold.Chemscore.DEInternal>
3.3417

> <Gold.Chemscore.Rot>
1.6514

> <Gold.Chemscore.Internal.Correction>
   9.000000E+99

> <Gold.Chemscore.Hbonds>
donor molecule, donor type, donor heavy atom, donor atom, acceptor molecule, acceptor atom, score
      L1  H    10    31       P1  8028  0.83
      L1  H    20    45       P1 10175  0.60

> <Gold.Chemscore.Hbond.Weighted>
-6.3272

> <Gold.Chemscore.Metal.Weighted>
-0.0000

> <Gold.Chemscore.Lipo.Weighted>
-11.5633

> <Gold.Chemscore.Internal_Hbond.Weighted>
0.0000

> <Gold.Chemscore.DEClash.Weighted>
2.4380

> <Gold.Chemscore.DEInternal.Weighted>
3.3417

> <Gold.Chemscore.Rot.Weighted>
4.2276

> <Gold.Chemscore.Internal.Correction.Weighted>
   9.000000E+99

> <Gold.Protein.RotatedTorsions>
[ 6907 6896 6895 6894 ] final  -97.92 input  -60.11 | X-H torsion
[ 7974 7965 7964 7962 ] final  126.65 input  175.53 | X-H torsion
[ 8008 7997 7996 7995 ] final  -85.42 input   59.86 | X-H torsion
[ 10167 10162 10161 10158 ] final  -30.74 input  -65.29 | X-H torsion
[ 10718 10713 10712 10709 ] final   36.43 input   66.30 | X-H torsion
[ 10763 10752 10751 10750 ] final  -50.07 input  -60.55 | X-H torsion
[ 11005 11000 10999 10996 ] final  131.02 input  -57.11 | X-H torsion

> <Gold.Protein.ActiveResidues>
 VAL166  LYS551  ARG553  GLY616  TRP617  ASP618  TYR619  PRO620  LYS621  CYS622 
 ASP623  PHE694  ASN695  SER759  ASP760  ASP761  ALA762  ILE779  LEU786  VAL792 
 PHE793  MET794  SER795  GLU796  ALA797  LYS798  CYS799  TRP800  GLU811  SER814 

> <Gold.Protein.RotatedAtoms>
  150.7030  134.1275  159.4057 H   0  0  0  0  0  0  0  0  0  0  0  0  # atno 6907 bound_to 6896
  151.9261  135.0275  160.0535 H   0  0  0  0  0  0  0  0  0  0  0  0  # atno 6908 bound_to 6896
  152.2215  133.4952  159.5202 H   0  0  0  0  0  0  0  0  0  0  0  0  # atno 6909 bound_to 6896
  145.0594  139.3818  143.5014 H   0  0  0  0  0  0  0  0  0  0  0  0  # atno 7974 bound_to 7965
  154.6406  140.0592  156.9841 H   0  0  0  0  0  0  0  0  0  0  0  0  # atno 8008 bound_to 7997
  155.1523  140.3275  155.4410 H   0  0  0  0  0  0  0  0  0  0  0  0  # atno 8009 bound_to 7997
  156.2529  140.1945  156.6634 H   0  0  0  0  0  0  0  0  0  0  0  0  # atno 8010 bound_to 7997
  140.7245  143.3825  151.1574 H   0  0  0  0  0  0  0  0  0  0  0  0  # atno 10167 bound_to 10162
  157.3348  130.7517  149.6872 H   0  0  0  0  0  0  0  0  0  0  0  0  # atno 10718 bound_to 10713
  154.1045  135.6558  153.4874 H   0  0  0  0  0  0  0  0  0  0  0  0  # atno 10763 bound_to 10752
  153.0277  135.5233  154.7254 H   0  0  0  0  0  0  0  0  0  0  0  0  # atno 10764 bound_to 10752
  154.6415  135.2989  155.0066 H   0  0  0  0  0  0  0  0  0  0  0  0  # atno 10765 bound_to 10752
  139.9705  134.9578  156.9377 H   0  0  0  0  0  0  0  0  0  0  0  0  # atno 11005 bound_to 11000
  146.3523  140.0284  142.8652 LP  0  0  0  0  0  0  0  0  0  0  0  0  # atno 17320 bound_to 7965
  145.1428  140.9581  143.4478 LP  0  0  0  0  0  0  0  0  0  0  0  0  # atno 17321 bound_to 7965
  139.7417  143.8915  152.3051 LP  0  0  0  0  0  0  0  0  0  0  0  0  # atno 17342 bound_to 10162
  139.8738  144.7054  150.8957 LP  0  0  0  0  0  0  0  0  0  0  0  0  # atno 17343 bound_to 10162
  155.9700  130.4185  150.4329 LP  0  0  0  0  0  0  0  0  0  0  0  0  # atno 17370 bound_to 10713
  157.2367  131.0516  151.2461 LP  0  0  0  0  0  0  0  0  0  0  0  0  # atno 17371 bound_to 10713
  140.5303  134.0820  155.7314 LP  0  0  0  0  0  0  0  0  0  0  0  0  # atno 17394 bound_to 11000
  141.1385  133.9180  157.2380 LP  0  0  0  0  0  0  0  0  0  0  0  0  # atno 17395 bound_to 11000

$$$$
