AV-unprocessed.smi:1521|AV-procd|sdf|6130|dock1
  -GOLD-   22720 6273D 1   1.00000     0.00000
 Structure written by MMmdl.
 36 37  0  0  0  0  0  0  0  0  1 V2000
  146.2118  135.9763  155.5101 O   0  0  0  0  0  0  0  0  0  0  0  0
  147.0135  136.1442  154.5912 C   0  0  0  0  0  0  0  0  0  0  0  0
  148.1956  136.7556  154.7489 N   0  0  0  0  0  0  0  0  0  0  0  0
  148.7030  137.2921  156.0072 C   0  0  0  0  0  0  0  0  0  0  0  0
  149.1429  138.7588  155.8618 C   0  0  2  0  0  0  0  0  0  0  0  0
  150.2810  138.9204  154.8343 C   0  0  0  0  0  0  0  0  0  0  0  0
  150.6751  140.2854  154.7797 O   0  0  0  0  0  0  0  0  0  0  0  0
  151.1361  140.7413  156.0443 C   0  0  0  0  0  0  0  0  0  0  0  0
  150.0075  140.5819  157.0763 C   0  0  0  0  0  0  0  0  0  0  0  0
  149.6159  139.2164  157.1248 O   0  0  0  0  0  0  0  0  0  0  0  0
  146.8502  135.7357  153.3195 N   0  0  0  0  0  0  0  0  0  0  0  0
  145.7480  135.0941  152.7303 C   0  0  0  0  0  0  0  0  0  0  0  0
  145.8329  134.0653  151.8469 C   0  0  0  0  0  0  0  0  0  0  0  0
  144.6516  133.4307  151.2861 C   0  0  0  0  0  0  0  0  0  0  0  0
  144.7578  132.3336  150.2382 C   0  0  0  0  0  0  0  0  0  0  0  0
  144.0967  132.6603  149.1271 F   0  0  0  0  0  0  0  0  0  0  0  0
  146.0304  132.1016  149.9152 F   0  0  0  0  0  0  0  0  0  0  0  0
  144.2376  131.2027  150.7132 F   0  0  0  0  0  0  0  0  0  0  0  0
  143.4624  133.9221  151.6805 C   0  0  0  0  0  0  0  0  0  0  0  0
  143.3663  134.9646  152.6050 N   0  0  0  0  0  0  0  0  0  0  0  0
  144.4294  135.5857  153.1632 C   0  0  0  0  0  0  0  0  0  0  0  0
  144.2615  136.4967  153.9733 O   0  0  0  0  0  0  0  0  0  0  0  0
  142.4375  135.2655  152.8628 H   0  0  0  0  0  0  0  0  0  0  0  0
  148.7976  136.8436  153.9432 H   0  0  0  0  0  0  0  0  0  0  0  0
  147.9162  137.2099  156.7573 H   0  0  0  0  0  0  0  0  0  0  0  0
  149.5333  136.6802  156.3638 H   0  0  0  0  0  0  0  0  0  0  0  0
  148.2893  139.3639  155.5509 H   0  0  0  0  0  0  0  0  0  0  0  0
  151.1361  138.2935  155.0929 H   0  0  0  0  0  0  0  0  0  0  0  0
  149.9460  138.6119  153.8438 H   0  0  0  0  0  0  0  0  0  0  0  0
  152.0217  140.1808  156.3470 H   0  0  0  0  0  0  0  0  0  0  0  0
  151.4302  141.7877  155.9613 H   0  0  0  0  0  0  0  0  0  0  0  0
  150.3503  140.8899  158.0640 H   0  0  0  0  0  0  0  0  0  0  0  0
  149.1539  141.2115  156.8211 H   0  0  0  0  0  0  0  0  0  0  0  0
  147.6366  135.8714  152.7006 H   0  0  0  0  0  0  0  0  0  0  0  0
  146.7903  133.6681  151.5511 H   0  0  0  0  0  0  0  0  0  0  0  0
  142.5079  133.5653  151.3222 H   0  0  0  0  0  0  0  0  0  0  0  0
  1  2  2  0  0  0  0
  2  3  1  0  0  0  0
  2 11  1  0  0  0  0
  3  4  1  0  0  0  0
  3 24  1  0  0  0  0
  4  5  1  0  0  0  0
  4 25  1  0  0  0  0
  4 26  1  0  0  0  0
  5 10  1  0  0  0  0
  5  6  1  0  0  0  0
  5 27  1  0  0  0  0
  6  7  1  0  0  0  0
  6 28  1  0  0  0  0
  6 29  1  0  0  0  0
  7  8  1  0  0  0  0
  8  9  1  0  0  0  0
  8 30  1  0  0  0  0
  8 31  1  0  0  0  0
  9 10  1  0  0  0  0
  9 32  1  0  0  0  0
  9 33  1  0  0  0  0
 11 12  1  0  0  0  0
 11 34  1  0  0  0  0
 12 21  1  0  0  0  0
 12 13  2  0  0  0  0
 13 14  1  0  0  0  0
 13 35  1  0  0  0  0
 14 15  1  0  0  0  0
 14 19  2  0  0  0  0
 15 16  1  0  0  0  0
 15 17  1  0  0  0  0
 15 18  1  0  0  0  0
 19 20  1  0  0  0  0
 19 36  1  0  0  0  0
 20 23  1  0  0  0  0
 20 21  1  0  0  0  0
 21 22  2  0  0  0  0
M  END
> <s_m_source_file>
AV-unprocessed.smi

> <i_m_source_file_index>
1521

> <i_lp_mmshare_version>
43012

> <i_f3d_flags>
0

> <s_epik_input>
Tz1jMVtuSF1bY0hdYyhDKEYpKEYpRilbY0hdYzFbTkhdQyg9TylbTkhdW0NIMl1bQ0BASF0yW0NIMl1PW0NIMl1bQ0gyXU8y

> <s_epik_cmdline>
J2VwaWtfcHl0aG9uJywgJy1waCcsICc3LjAnLCAnLXRuJywgJzgnLCAnLW1hJywgJzIwMCcsICctbWV0YWxfYmluZGluZycsICctaW1hZScsICc8aW5maWxlLm1hZT4nLCAnLW9tYWUnLCAnPG91dGZpbGUubWFlPic=

> <r_lp_tautomer_probability>
1

> <r_epik_Ionization_Penalty>
0.00396636

> <r_epik_Ionization_Penalty_Charging>
0.00394789

> <r_epik_Ionization_Penalty_Neutral>
1.84676e-05

> <r_epik_State_Penalty>
-0

> <r_epik_Charging_Adjusted_Penalty>
0.00394789

> <i_epik_Tot_Q>
0

> <i_epik_Tot_abs_Q>
0

> <r_epik_Metal_State_Penalty>
0.372669

> <b_epik_Metal_Only>
0

> <s_lp_Force_Field>
OPLS_2005

> <r_lp_Energy>
18.8562

> <b_lp_Chiralities_Consistent>
1

> <s_lp_Variant>
AV-unprocessed.smi:1521-1

> <Gold.Version>
5.8.1

> <Gold.Id.Protein>
6NUR|6NUR_protein|mol2

> <Gold.PLP.Fitness>
42.3498

> <Gold.PLP.PLP>
-31.6300

> <Gold.PLP.part.hbond>
-2.9257

> <Gold.PLP.part.metal>
0.0000

> <Gold.PLP.part.buried>
-4.8256

> <Gold.PLP.part.nonpolar>
-25.1156

> <Gold.PLP.part.repulsive>
0.1505

> <Gold.PLP.ligand.clash>
0.0000

> <Gold.PLP.ligand.torsion>
0.4164

> <Gold.PLP.Chemscore.Hbond>
2.8068

> <Gold.PLP.Chemscore.CHOScore>
1.0000

> <Gold.PLP.Chemscore.Metal>
0.0000

> <Gold.Chemscore.Hbonds>
donor molecule, donor type, donor heavy atom, donor atom, acceptor molecule, acceptor atom, score
      L1  H     3    24       P1  7948  0.56
      L1  H    11    34       P1  7948  1.00
      P1  H  7989  7998       L1     7  1.00
      L1  C    19    36       P1 10186  1.00

> <Gold.PLP.Chemscore.Internal.Correction>
0.1323

> <Gold.Rescore>
     Score         DG    S(hbond)    S(metal)    S(lipo)     H(rot)  DE(clash)    DE(int)     intcor
     13.50     -16.54       2.66        0.00      48.70       1.37       0.14       2.90       ----

> <Gold.Chemscore.Fitness>
13.4957

> <Gold.Chemscore.DG>
-16.5353

> <Gold.Chemscore.ZeroCoef>
-5.4800

> <Gold.Chemscore.Hbond>
2.6567

> <Gold.Chemscore.Metal>
0.0000

> <Gold.Chemscore.Lipo>
48.7014

> <Gold.Chemscore.Internal_Hbond>
0.0000

> <Gold.Chemscore.DEClash>
0.1373

> <Gold.Chemscore.DEInternal>
2.9023

> <Gold.Chemscore.Rot>
1.3735

> <Gold.Chemscore.Internal.Correction>
   9.000000E+99

> <Gold.Chemscore.Hbonds>
donor molecule, donor type, donor heavy atom, donor atom, acceptor molecule, acceptor atom, score
      L1  H     3    24       P1  7948  0.55
      L1  H    11    34       P1  7948  0.98
      P1  H  7989  7998       L1     7  0.80

> <Gold.Chemscore.Hbond.Weighted>
-8.8735

> <Gold.Chemscore.Metal.Weighted>
-0.0000

> <Gold.Chemscore.Lipo.Weighted>
-5.6981

> <Gold.Chemscore.Internal_Hbond.Weighted>
0.0000

> <Gold.Chemscore.DEClash.Weighted>
0.1373

> <Gold.Chemscore.DEInternal.Weighted>
2.9023

> <Gold.Chemscore.Rot.Weighted>
3.5162

> <Gold.Chemscore.Internal.Correction.Weighted>
   9.000000E+99

> <Gold.Protein.RotatedTorsions>
[ 6907 6896 6895 6894 ] final   62.99 input  -60.11 | X-H torsion
[ 7974 7965 7964 7962 ] final -120.07 input  175.53 | X-H torsion
[ 8008 7997 7996 7995 ] final  -44.38 input   59.86 | X-H torsion
[ 10167 10162 10161 10158 ] final   15.39 input  -65.29 | X-H torsion
[ 10718 10713 10712 10709 ] final   14.96 input   66.30 | X-H torsion
[ 10763 10752 10751 10750 ] final  160.67 input  -60.55 | X-H torsion
[ 11005 11000 10999 10996 ] final -163.14 input  -57.11 | X-H torsion

> <Gold.Protein.ActiveResidues>
 VAL166  LYS551  ARG553  GLY616  TRP617  ASP618  TYR619  PRO620  LYS621  CYS622 
 ASP623  PHE694  ASN695  SER759  ASP760  ASP761  ALA762  ILE779  LEU786  VAL792 
 PHE793  MET794  SER795  GLU796  ALA797  LYS798  CYS799  TRP800  GLU811  SER814 

> <Gold.Protein.RotatedAtoms>
  152.4217  134.5943  159.9982 H   0  0  0  0  0  0  0  0  0  0  0  0  # atno 6907 bound_to 6896
  151.6092  133.3343  159.3071 H   0  0  0  0  0  0  0  0  0  0  0  0  # atno 6908 bound_to 6896
  150.8105  134.7295  159.6749 H   0  0  0  0  0  0  0  0  0  0  0  0  # atno 6909 bound_to 6896
  145.0554  140.8250  143.4184 H   0  0  0  0  0  0  0  0  0  0  0  0  # atno 7974 bound_to 7965
  154.3997  140.1423  156.3674 H   0  0  0  0  0  0  0  0  0  0  0  0  # atno 8008 bound_to 7997
  155.8125  140.3472  155.5445 H   0  0  0  0  0  0  0  0  0  0  0  0  # atno 8009 bound_to 7997
  155.8372  140.0921  157.1747 H   0  0  0  0  0  0  0  0  0  0  0  0  # atno 8010 bound_to 7997
  140.5870  143.8870  150.6839 H   0  0  0  0  0  0  0  0  0  0  0  0  # atno 10167 bound_to 10162
  157.0466  130.6253  149.5760 H   0  0  0  0  0  0  0  0  0  0  0  0  # atno 10718 bound_to 10713
  154.2510  135.2771  155.2816 H   0  0  0  0  0  0  0  0  0  0  0  0  # atno 10763 bound_to 10752
  154.5465  135.5687  153.6888 H   0  0  0  0  0  0  0  0  0  0  0  0  # atno 10764 bound_to 10752
  152.9980  135.6264  154.2657 H   0  0  0  0  0  0  0  0  0  0  0  0  # atno 10765 bound_to 10752
  140.6014  134.4943  157.5205 H   0  0  0  0  0  0  0  0  0  0  0  0  # atno 11005 bound_to 11000
  145.1475  139.2535  143.5458 LP  0  0  0  0  0  0  0  0  0  0  0  0  # atno 17320 bound_to 7965
  146.3521  140.1168  142.8602 LP  0  0  0  0  0  0  0  0  0  0  0  0  # atno 17321 bound_to 7965
  140.2383  143.3683  152.1508 LP  0  0  0  0  0  0  0  0  0  0  0  0  # atno 17342 bound_to 10162
  139.5204  144.7032  151.5432 LP  0  0  0  0  0  0  0  0  0  0  0  0  # atno 17343 bound_to 10162
  156.0021  130.5101  150.7699 LP  0  0  0  0  0  0  0  0  0  0  0  0  # atno 17370 bound_to 10713
  157.5062  131.0922  151.0254 LP  0  0  0  0  0  0  0  0  0  0  0  0  # atno 17371 bound_to 10713
  139.9231  134.8110  156.1151 LP  0  0  0  0  0  0  0  0  0  0  0  0  # atno 17394 bound_to 11000
  141.0870  133.6730  156.2457 LP  0  0  0  0  0  0  0  0  0  0  0  0  # atno 17395 bound_to 11000

$$$$
