AV-unprocessed.smi:1754|AV-procd|sdf|7065|dock1
  -GOLD-   22720 8283D 1   1.00000     0.00000
 Structure written by MMmdl.
 45 46  0  0  0  0  0  0  0  0  2 V2000
  152.4170  142.8433  161.6477 C   0  0  0  0  0  0  0  0  0  0  0  0
  153.0863  142.5165  160.3062 C   0  0  0  0  0  0  0  0  0  0  0  0
  152.3064  142.9989  159.1672 N   0  0  0  0  0  0  0  0  0  0  0  0
  152.3486  144.4199  158.8310 C   0  0  0  0  0  0  0  0  0  0  0  0
  151.7705  145.2969  159.9495 C   0  0  0  0  0  0  0  0  0  0  0  0
  151.5633  142.0954  158.3721 C   0  0  0  0  0  0  0  0  0  0  0  0
  150.6636  142.5080  157.3583 C   0  0  0  0  0  0  0  0  0  0  0  0
  149.9590  141.5470  156.6043 C   0  0  0  0  0  0  0  0  0  0  0  0
  150.1638  140.1698  156.8610 C   0  0  0  0  0  0  0  0  0  0  0  0
  149.4918  139.1234  156.1740 N   0  0  0  0  0  0  0  0  0  0  0  0
  149.7800  137.8068  156.1605 C   0  0  0  0  0  0  0  0  0  0  0  0
  150.6762  137.2823  156.8178 O   0  0  0  0  0  0  0  0  0  0  0  0
  148.9695  137.0701  155.3796 N   0  0  0  0  0  0  0  0  0  0  0  0
  149.0046  135.6263  155.1412 C   0  0  1  0  0  0  0  0  0  0  0  0
  150.3781  135.1912  154.5969 C   0  0  0  0  0  0  0  0  0  0  0  0
  150.4899  133.6647  154.7003 C   0  0  0  0  0  0  0  0  0  0  0  0
  149.4739  133.1753  156.1459 S   0  0  0  0  0  0  0  0  0  0  0  0
  148.4244  132.2479  155.6969 O   0  0  0  0  0  0  0  0  0  0  0  0
  150.3508  132.8379  157.2773 O   0  0  0  0  0  0  0  0  0  0  0  0
  148.7385  134.8292  156.4284 C   0  0  0  0  0  0  0  0  0  0  0  0
  151.0562  139.8107  157.8902 C   0  0  0  0  0  0  0  0  0  0  0  0
  151.7094  140.7648  158.5875 N   0  3  0  0  0  0  0  0  0  0  0  0
  153.0083  142.4566  162.4780 H   0  0  0  0  0  0  0  0  0  0  0  0
  151.4238  142.3986  161.7143 H   0  0  0  0  0  0  0  0  0  0  0  0
  152.3124  143.9194  161.7886 H   0  0  0  0  0  0  0  0  0  0  0  0
  154.1005  142.9156  160.2786 H   0  0  0  0  0  0  0  0  0  0  0  0
  153.1959  141.4352  160.2169 H   0  0  0  0  0  0  0  0  0  0  0  0
  153.3875  144.7043  158.6605 H   0  0  0  0  0  0  0  0  0  0  0  0
  151.8390  144.6112  157.8868 H   0  0  0  0  0  0  0  0  0  0  0  0
  151.8247  146.3515  159.6791 H   0  0  0  0  0  0  0  0  0  0  0  0
  152.3221  145.1653  160.8807 H   0  0  0  0  0  0  0  0  0  0  0  0
  150.7247  145.0585  160.1442 H   0  0  0  0  0  0  0  0  0  0  0  0
  150.4869  143.5522  157.1499 H   0  0  0  0  0  0  0  0  0  0  0  0
  149.2633  141.8893  155.8540 H   0  0  0  0  0  0  0  0  0  0  0  0
  148.6647  139.3994  155.6648 H   0  0  0  0  0  0  0  0  0  0  0  0
  148.2150  137.5670  154.9277 H   0  0  0  0  0  0  0  0  0  0  0  0
  148.2580  135.3502  154.3939 H   0  0  0  0  0  0  0  0  0  0  0  0
  150.5373  135.5346  153.5741 H   0  0  0  0  0  0  0  0  0  0  0  0
  151.1641  135.6386  155.2076 H   0  0  0  0  0  0  0  0  0  0  0  0
  150.0691  133.1847  153.8163 H   0  0  0  0  0  0  0  0  0  0  0  0
  151.5168  133.3214  154.8268 H   0  0  0  0  0  0  0  0  0  0  0  0
  149.2482  135.2774  157.2824 H   0  0  0  0  0  0  0  0  0  0  0  0
  147.6795  134.7314  156.6671 H   0  0  0  0  0  0  0  0  0  0  0  0
  151.2735  138.7913  158.1746 H   0  0  0  0  0  0  0  0  0  0  0  0
  152.3534  140.4658  159.3201 H   0  0  0  0  0  0  0  0  0  0  0  0
  1  2  1  0  0  0  0
  1 23  1  0  0  0  0
  1 24  1  0  0  0  0
  1 25  1  0  0  0  0
  2  3  1  0  0  0  0
  2 26  1  0  0  0  0
  2 27  1  0  0  0  0
  3  4  1  0  0  0  0
  3  6  1  0  0  0  0
  4  5  1  0  0  0  0
  4 28  1  0  0  0  0
  4 29  1  0  0  0  0
  5 30  1  0  0  0  0
  5 31  1  0  0  0  0
  5 32  1  0  0  0  0
  6 22  1  0  0  0  0
  6  7  2  0  0  0  0
  7  8  1  0  0  0  0
  7 33  1  0  0  0  0
  8  9  2  0  0  0  0
  8 34  1  0  0  0  0
  9 10  1  0  0  0  0
  9 21  1  0  0  0  0
 10 11  1  0  0  0  0
 10 35  1  0  0  0  0
 11 12  2  0  0  0  0
 11 13  1  0  0  0  0
 13 14  1  0  0  0  0
 13 36  1  0  0  0  0
 14 20  1  0  0  0  0
 14 15  1  0  0  0  0
 14 37  1  0  0  0  0
 15 16  1  0  0  0  0
 15 38  1  0  0  0  0
 15 39  1  0  0  0  0
 16 17  1  0  0  0  0
 16 40  1  0  0  0  0
 16 41  1  0  0  0  0
 17 18  2  0  0  0  0
 17 19  2  0  0  0  0
 17 20  1  0  0  0  0
 20 42  1  0  0  0  0
 20 43  1  0  0  0  0
 21 22  2  0  0  0  0
 21 44  1  0  0  0  0
 22 45  1  0  0  0  0
M  CHG  1  22   1
M  END
> <s_m_source_file>
AV-unprocessed.smi

> <i_m_source_file_index>
1754

> <i_lp_mmshare_version>
43012

> <i_f3d_flags>
0

> <s_epik_input>
W0NIM11bQ0gyXU4oW0NIMl1bQ0gzXSljMVtjSF1bY0hdYyhbY0hdbjEpW05IXUMoPU8pW05IXVtDQEBIXShbQ0gyXTIpW0NIMl1bQ0gyXVMyKD1PKT1P

> <s_epik_cmdline>
J2VwaWtfcHl0aG9uJywgJy1waCcsICc3LjAnLCAnLXRuJywgJzgnLCAnLW1hJywgJzIwMCcsICctbWV0YWxfYmluZGluZycsICctaW1hZScsICc8aW5maWxlLm1hZT4nLCAnLW9tYWUnLCAnPG91dGZpbGUubWFlPic=

> <r_lp_tautomer_probability>
0.999994

> <r_epik_Ionization_Penalty>
0.271106

> <r_epik_Ionization_Penalty_Charging>
0.271085

> <r_epik_Ionization_Penalty_Neutral>
2.10634e-05

> <r_epik_State_Penalty>
0.017795

> <r_epik_Charging_Adjusted_Penalty>
0.28888

> <i_epik_Tot_Q>
1

> <i_epik_Tot_abs_Q>
1

> <r_epik_Metal_State_Penalty>
0.0544868

> <b_epik_Metal_Only>
0

> <s_lp_Force_Field>
OPLS_2005

> <r_lp_Energy>
29.9971

> <b_lp_Chiralities_Consistent>
1

> <s_lp_Variant>
AV-unprocessed.smi:1754-2

> <Gold.Version>
5.8.1

> <Gold.Id.Protein>
6NUR|6NUR_protein|mol2

> <Gold.PLP.Fitness>
39.9548

> <Gold.PLP.PLP>
-37.7961

> <Gold.PLP.part.hbond>
-1.0000

> <Gold.PLP.part.metal>
0.0000

> <Gold.PLP.part.buried>
-5.4828

> <Gold.PLP.part.nonpolar>
-32.2651

> <Gold.PLP.part.repulsive>
0.1303

> <Gold.PLP.ligand.clash>
0.0000

> <Gold.PLP.ligand.torsion>
0.3122

> <Gold.PLP.Chemscore.Hbond>
0.8800

> <Gold.PLP.Chemscore.CHOScore>
0.0000

> <Gold.PLP.Chemscore.Metal>
0.0000

> <Gold.Chemscore.Hbonds>
donor molecule, donor type, donor heavy atom, donor atom, acceptor molecule, acceptor atom, score
      P1  H  6896  6909       L1    19  0.41

> <Gold.PLP.Chemscore.Internal.Correction>
0.1432

> <Gold.Rescore>
     Score         DG    S(hbond)    S(metal)    S(lipo)     H(rot)  DE(clash)    DE(int)     intcor
     13.58     -15.46       0.95        0.00      88.85       1.41       0.02       1.87       ----

> <Gold.Chemscore.Fitness>
13.5766

> <Gold.Chemscore.DG>
-15.4594

> <Gold.Chemscore.ZeroCoef>
-5.4800

> <Gold.Chemscore.Hbond>
0.9537

> <Gold.Chemscore.Metal>
0.0000

> <Gold.Chemscore.Lipo>
88.8542

> <Gold.Chemscore.Internal_Hbond>
0.0000

> <Gold.Chemscore.DEClash>
0.0174

> <Gold.Chemscore.DEInternal>
1.8654

> <Gold.Chemscore.Rot>
1.4070

> <Gold.Chemscore.Internal.Correction>
   9.000000E+99

> <Gold.Chemscore.Hbonds>
donor molecule, donor type, donor heavy atom, donor atom, acceptor molecule, acceptor atom, score
      P1  H  6896  6909       L1    19  0.40

> <Gold.Chemscore.Hbond.Weighted>
-3.1854

> <Gold.Chemscore.Metal.Weighted>
-0.0000

> <Gold.Chemscore.Lipo.Weighted>
-10.3959

> <Gold.Chemscore.Internal_Hbond.Weighted>
0.0000

> <Gold.Chemscore.DEClash.Weighted>
0.0174

> <Gold.Chemscore.DEInternal.Weighted>
1.8654

> <Gold.Chemscore.Rot.Weighted>
3.6020

> <Gold.Chemscore.Internal.Correction.Weighted>
   9.000000E+99

> <Gold.Protein.RotatedTorsions>
[ 6907 6896 6895 6894 ] final  -43.72 input  -60.11 | X-H torsion
[ 7974 7965 7964 7962 ] final -162.08 input  175.53 | X-H torsion
[ 8008 7997 7996 7995 ] final  -43.09 input   59.86 | X-H torsion
[ 10167 10162 10161 10158 ] final  127.31 input  -65.29 | X-H torsion
[ 10718 10713 10712 10709 ] final -105.26 input   66.30 | X-H torsion
[ 10763 10752 10751 10750 ] final  -65.62 input  -60.55 | X-H torsion
[ 11005 11000 10999 10996 ] final  158.78 input  -57.11 | X-H torsion

> <Gold.Protein.ActiveResidues>
 VAL166  LYS551  ARG553  GLY616  TRP617  ASP618  TYR619  PRO620  LYS621  CYS622 
 ASP623  PHE694  ASN695  SER759  ASP760  ASP761  ALA762  ILE779  LEU786  VAL792 
 PHE793  MET794  SER795  GLU796  ALA797  LYS798  CYS799  TRP800  GLU811  SER814 

> <Gold.Protein.RotatedAtoms>
  150.9408  134.8817  159.7610 H   0  0  0  0  0  0  0  0  0  0  0  0  # atno 6907 bound_to 6896
  152.5079  134.3945  159.9405 H   0  0  0  0  0  0  0  0  0  0  0  0  # atno 6908 bound_to 6896
  151.3966  133.3731  159.2762 H   0  0  0  0  0  0  0  0  0  0  0  0  # atno 6909 bound_to 6896
  144.7369  140.3305  143.6154 H   0  0  0  0  0  0  0  0  0  0  0  0  # atno 7974 bound_to 7965
  154.3997  140.1456  156.3462 H   0  0  0  0  0  0  0  0  0  0  0  0  # atno 8008 bound_to 7997
  155.8311  140.3466  155.5551 H   0  0  0  0  0  0  0  0  0  0  0  0  # atno 8009 bound_to 7997
  155.8187  140.0895  157.1852 H   0  0  0  0  0  0  0  0  0  0  0  0  # atno 8010 bound_to 7997
  139.5585  144.6865  151.4113 H   0  0  0  0  0  0  0  0  0  0  0  0  # atno 10167 bound_to 10162
  156.0339  130.5555  150.7514 H   0  0  0  0  0  0  0  0  0  0  0  0  # atno 10718 bound_to 10713
  154.3477  135.6143  153.5627 H   0  0  0  0  0  0  0  0  0  0  0  0  # atno 10763 bound_to 10752
  152.9800  135.5785  154.4779 H   0  0  0  0  0  0  0  0  0  0  0  0  # atno 10764 bound_to 10752
  154.4495  135.2852  155.1768 H   0  0  0  0  0  0  0  0  0  0  0  0  # atno 10765 bound_to 10752
  140.1898  134.8415  157.2899 H   0  0  0  0  0  0  0  0  0  0  0  0  # atno 11005 bound_to 11000
  145.7477  139.1784  143.2339 LP  0  0  0  0  0  0  0  0  0  0  0  0  # atno 17320 bound_to 7965
  146.1085  140.7457  142.9515 LP  0  0  0  0  0  0  0  0  0  0  0  0  # atno 17321 bound_to 7965
  140.6861  143.7970  150.7188 LP  0  0  0  0  0  0  0  0  0  0  0  0  # atno 17342 bound_to 10162
  140.1438  143.4417  152.2176 LP  0  0  0  0  0  0  0  0  0  0  0  0  # atno 17343 bound_to 10162
  157.5058  131.0922  151.0259 LP  0  0  0  0  0  0  0  0  0  0  0  0  # atno 17370 bound_to 10713
  157.0628  130.5832  149.5389 LP  0  0  0  0  0  0  0  0  0  0  0  0  # atno 17371 bound_to 10713
  140.2172  134.4067  155.7583 LP  0  0  0  0  0  0  0  0  0  0  0  0  # atno 17394 bound_to 11000
  141.2226  133.7148  156.8433 LP  0  0  0  0  0  0  0  0  0  0  0  0  # atno 17395 bound_to 11000

$$$$
