AV-unprocessed.smi:2730|AV-procd|sdf|10529|dock1
  -GOLD-   2272014573D 1   1.00000     0.00000
 Structure written by MMmdl.
 43 44  0  0  0  0  0  0  0  0  1 V2000
  148.7021  132.9984  152.9002 C   0  0  0  0  0  0  0  0  0  0  0  0
  147.6037  133.5922  153.7942 C   0  0  0  0  0  0  0  0  0  0  0  0
  148.1400  134.4895  154.9250 C   0  0  1  0  0  0  0  0  0  0  0  0
  149.3261  133.8244  155.6438 C   0  0  0  0  0  0  0  0  0  0  0  0
  149.6179  134.4013  156.9662 C   0  0  0  0  0  0  0  0  0  0  0  0
  149.8467  134.8555  158.0053 N   0  0  0  0  0  0  0  0  0  0  0  0
  148.5409  135.7882  154.3834 N   0  0  0  0  0  0  0  0  0  0  0  0
  148.7869  136.8934  155.1031 C   0  0  0  0  0  0  0  0  0  0  0  0
  148.7164  136.9343  156.3316 O   0  0  0  0  0  0  0  0  0  0  0  0
  149.1135  137.9278  154.3088 N   0  0  0  0  0  0  0  0  0  0  0  0
  149.4282  139.2591  154.6878 C   0  0  0  0  0  0  0  0  0  0  0  0
  148.8950  140.3741  154.1002 N   0  0  0  0  0  0  0  0  0  0  0  0
  149.5142  141.3046  154.8138 C   0  0  0  0  0  0  0  0  0  0  0  0
  150.3375  140.8166  155.7479 N   0  0  0  0  0  0  0  0  0  0  0  0
  151.1949  141.4937  156.7085 C   0  0  0  0  0  0  0  0  0  0  0  0
  151.9038  140.4847  157.6346 C   0  0  0  0  0  0  0  0  0  0  0  0
  152.7994  141.1998  158.6595 C   0  0  0  0  0  0  0  0  0  0  0  0
  152.0031  142.2333  159.4723 C   0  0  0  0  0  0  0  0  0  0  0  0
  151.2985  143.2424  158.5512 C   0  0  0  0  0  0  0  0  0  0  0  0
  150.3994  142.5297  157.5274 C   0  0  0  0  0  0  0  0  0  0  0  0
  150.2983  139.4639  155.6749 N   0  0  0  0  0  0  0  0  0  0  0  0
  148.2664  132.4165  152.0879 H   0  0  0  0  0  0  0  0  0  0  0  0
  149.3628  132.3366  153.4605 H   0  0  0  0  0  0  0  0  0  0  0  0
  149.3130  133.7837  152.4543 H   0  0  0  0  0  0  0  0  0  0  0  0
  146.9261  134.1750  153.1694 H   0  0  0  0  0  0  0  0  0  0  0  0
  147.0049  132.7841  154.2163 H   0  0  0  0  0  0  0  0  0  0  0  0
  147.3338  134.6187  155.6494 H   0  0  0  0  0  0  0  0  0  0  0  0
  149.1233  132.7644  155.7990 H   0  0  0  0  0  0  0  0  0  0  0  0
  150.2302  133.8901  155.0380 H   0  0  0  0  0  0  0  0  0  0  0  0
  148.6239  135.8514  153.3792 H   0  0  0  0  0  0  0  0  0  0  0  0
  149.1332  137.7455  153.3165 H   0  0  0  0  0  0  0  0  0  0  0  0
  149.3658  142.3622  154.6519 H   0  0  0  0  0  0  0  0  0  0  0  0
  151.9636  142.0282  156.1469 H   0  0  0  0  0  0  0  0  0  0  0  0
  151.1662  139.8801  158.1642 H   0  0  0  0  0  0  0  0  0  0  0  0
  152.5036  139.7926  157.0425 H   0  0  0  0  0  0  0  0  0  0  0  0
  153.2527  140.4696  159.3304 H   0  0  0  0  0  0  0  0  0  0  0  0
  153.6213  141.6967  158.1425 H   0  0  0  0  0  0  0  0  0  0  0  0
  151.2626  141.7221  160.0889 H   0  0  0  0  0  0  0  0  0  0  0  0
  152.6677  142.7579  160.1594 H   0  0  0  0  0  0  0  0  0  0  0  0
  150.7061  143.9377  159.1463 H   0  0  0  0  0  0  0  0  0  0  0  0
  152.0443  143.8420  158.0277 H   0  0  0  0  0  0  0  0  0  0  0  0
  149.9467  143.2651  156.8612 H   0  0  0  0  0  0  0  0  0  0  0  0
  149.5774  142.0391  158.0505 H   0  0  0  0  0  0  0  0  0  0  0  0
  1  2  1  0  0  0  0
  1 22  1  0  0  0  0
  1 23  1  0  0  0  0
  1 24  1  0  0  0  0
  2  3  1  0  0  0  0
  2 25  1  0  0  0  0
  2 26  1  0  0  0  0
  3  4  1  0  0  0  0
  3  7  1  0  0  0  0
  3 27  1  0  0  0  0
  4  5  1  0  0  0  0
  4 28  1  0  0  0  0
  4 29  1  0  0  0  0
  5  6  3  0  0  0  0
  7  8  1  0  0  0  0
  7 30  1  0  0  0  0
  8  9  2  0  0  0  0
  8 10  1  0  0  0  0
 10 11  1  0  0  0  0
 10 31  1  0  0  0  0
 11 21  2  0  0  0  0
 11 12  1  0  0  0  0
 12 13  2  0  0  0  0
 13 14  1  0  0  0  0
 13 32  1  0  0  0  0
 14 15  1  0  0  0  0
 14 21  1  0  0  0  0
 15 20  1  0  0  0  0
 15 16  1  0  0  0  0
 15 33  1  0  0  0  0
 16 17  1  0  0  0  0
 16 34  1  0  0  0  0
 16 35  1  0  0  0  0
 17 18  1  0  0  0  0
 17 36  1  0  0  0  0
 17 37  1  0  0  0  0
 18 19  1  0  0  0  0
 18 38  1  0  0  0  0
 18 39  1  0  0  0  0
 19 20  1  0  0  0  0
 19 40  1  0  0  0  0
 19 41  1  0  0  0  0
 20 42  1  0  0  0  0
 20 43  1  0  0  0  0
M  END
> <s_m_source_file>
AV-unprocessed.smi

> <i_m_source_file_index>
2730

> <i_lp_mmshare_version>
43012

> <i_f3d_flags>
0

> <s_epik_input>
TiNDW0NIMl1bQ0BASF0oW0NIMl1bQ0gzXSlbTkhdQyg9TylbTkhdYzFuW2NIXW4objEpW0NIXTJbQ0gyXVtDSDJdW0NIMl1bQ0gyXVtDSDJdMg==

> <s_epik_cmdline>
J2VwaWtfcHl0aG9uJywgJy1waCcsICc3LjAnLCAnLXRuJywgJzgnLCAnLW1hJywgJzIwMCcsICctbWV0YWxfYmluZGluZycsICctaW1hZScsICc8aW5maWxlLm1hZT4nLCAnLW9tYWUnLCAnPG91dGZpbGUubWFlPic=

> <r_lp_tautomer_probability>
1

> <r_epik_Ionization_Penalty>
7.18854e-05

> <r_epik_Ionization_Penalty_Charging>
0

> <r_epik_Ionization_Penalty_Neutral>
7.18854e-05

> <r_epik_State_Penalty>
-0

> <r_epik_Charging_Adjusted_Penalty>
0

> <i_epik_Tot_Q>
0

> <i_epik_Tot_abs_Q>
0

> <r_epik_Metal_State_Penalty>
-0

> <b_epik_Metal_Only>
0

> <s_lp_Force_Field>
OPLS_2005

> <r_lp_Energy>
17.9717

> <b_lp_Chiralities_Consistent>
1

> <s_lp_Variant>
AV-unprocessed.smi:2730-2

> <Gold.Version>
5.8.1

> <Gold.Id.Protein>
6NUR|6NUR_protein|mol2

> <Gold.PLP.Fitness>
39.7341

> <Gold.PLP.PLP>
-30.4833

> <Gold.PLP.part.hbond>
-3.0000

> <Gold.PLP.part.metal>
0.0000

> <Gold.PLP.part.buried>
-4.1544

> <Gold.PLP.part.nonpolar>
-24.1628

> <Gold.PLP.part.repulsive>
0.6835

> <Gold.PLP.ligand.clash>
0.0000

> <Gold.PLP.ligand.torsion>
0.8910

> <Gold.PLP.Chemscore.Hbond>
2.7717

> <Gold.PLP.Chemscore.CHOScore>
0.8623

> <Gold.PLP.Chemscore.Metal>
0.0000

> <Gold.Chemscore.Hbonds>
donor molecule, donor type, donor heavy atom, donor atom, acceptor molecule, acceptor atom, score
      L1  H     7    30       P1  7948  1.00
      L1  H    10    31       P1  7948  0.79
      P1  H  6896  6907       L1     6  0.99
      L1  C    13    32       P1  8028  0.84

> <Gold.PLP.Chemscore.Internal.Correction>
0.1310

> <Gold.Rescore>
     Score         DG    S(hbond)    S(metal)    S(lipo)     H(rot)  DE(clash)    DE(int)     intcor
     16.65     -17.78       2.95        0.00      60.89       1.82       0.05       1.08       ----

> <Gold.Chemscore.Fitness>
16.6547

> <Gold.Chemscore.DG>
-17.7810

> <Gold.Chemscore.ZeroCoef>
-5.4800

> <Gold.Chemscore.Hbond>
2.9488

> <Gold.Chemscore.Metal>
0.0000

> <Gold.Chemscore.Lipo>
60.8868

> <Gold.Chemscore.Internal_Hbond>
0.0000

> <Gold.Chemscore.DEClash>
0.0471

> <Gold.Chemscore.DEInternal>
1.0792

> <Gold.Chemscore.Rot>
1.8249

> <Gold.Chemscore.Internal.Correction>
   9.000000E+99

> <Gold.Chemscore.Hbonds>
donor molecule, donor type, donor heavy atom, donor atom, acceptor molecule, acceptor atom, score
      L1  H     7    30       P1  7948  0.98
      L1  H    10    31       P1  7948  0.74
      P1  H  6896  6907       L1     6  0.93

> <Gold.Chemscore.Hbond.Weighted>
-9.8491

> <Gold.Chemscore.Metal.Weighted>
-0.0000

> <Gold.Chemscore.Lipo.Weighted>
-7.1238

> <Gold.Chemscore.Internal_Hbond.Weighted>
0.0000

> <Gold.Chemscore.DEClash.Weighted>
0.0471

> <Gold.Chemscore.DEInternal.Weighted>
1.0792

> <Gold.Chemscore.Rot.Weighted>
4.6718

> <Gold.Chemscore.Internal.Correction.Weighted>
   9.000000E+99

> <Gold.Protein.RotatedTorsions>
[ 6907 6896 6895 6894 ] final  -93.40 input  -60.11 | X-H torsion
[ 7974 7965 7964 7962 ] final  -86.93 input  175.53 | X-H torsion
[ 8008 7997 7996 7995 ] final -104.07 input   59.86 | X-H torsion
[ 10167 10162 10161 10158 ] final -113.77 input  -65.29 | X-H torsion
[ 10718 10713 10712 10709 ] final -110.09 input   66.30 | X-H torsion
[ 10763 10752 10751 10750 ] final  -95.11 input  -60.55 | X-H torsion
[ 11005 11000 10999 10996 ] final  -85.40 input  -57.11 | X-H torsion

> <Gold.Protein.ActiveResidues>
 VAL166  LYS551  ARG553  GLY616  TRP617  ASP618  TYR619  PRO620  LYS621  CYS622 
 ASP623  PHE694  ASN695  SER759  ASP760  ASP761  ALA762  ILE779  LEU786  VAL792 
 PHE793  MET794  SER795  GLU796  ALA797  LYS798  CYS799  TRP800  GLU811  SER814 

> <Gold.Protein.RotatedAtoms>
  150.6922  134.1973  159.4308 H   0  0  0  0  0  0  0  0  0  0  0  0  # atno 6907 bound_to 6896
  151.9941  134.9961  160.0572 H   0  0  0  0  0  0  0  0  0  0  0  0  # atno 6908 bound_to 6896
  152.1640  133.4565  159.4912 H   0  0  0  0  0  0  0  0  0  0  0  0  # atno 6909 bound_to 6896
  145.4733  140.9559  143.1905 H   0  0  0  0  0  0  0  0  0  0  0  0  # atno 7974 bound_to 7965
  154.8801  140.0419  157.1777 H   0  0  0  0  0  0  0  0  0  0  0  0  # atno 8008 bound_to 7997
  154.8649  140.2949  155.5496 H   0  0  0  0  0  0  0  0  0  0  0  0  # atno 8009 bound_to 7997
  156.2999  140.2440  156.3628 H   0  0  0  0  0  0  0  0  0  0  0  0  # atno 8010 bound_to 7997
  140.1082  143.4551  152.1769 H   0  0  0  0  0  0  0  0  0  0  0  0  # atno 10167 bound_to 10162
  156.0572  130.5797  150.8190 H   0  0  0  0  0  0  0  0  0  0  0  0  # atno 10718 bound_to 10713
  154.7117  135.5133  153.8677 H   0  0  0  0  0  0  0  0  0  0  0  0  # atno 10763 bound_to 10752
  153.0786  135.6624  154.0101 H   0  0  0  0  0  0  0  0  0  0  0  0  # atno 10764 bound_to 10752
  153.9941  135.3017  155.3388 H   0  0  0  0  0  0  0  0  0  0  0  0  # atno 10765 bound_to 10752
  141.1641  133.7397  156.9010 H   0  0  0  0  0  0  0  0  0  0  0  0  # atno 11005 bound_to 11000
  144.7932  139.6287  143.7104 LP  0  0  0  0  0  0  0  0  0  0  0  0  # atno 17320 bound_to 7965
  146.2384  139.5951  142.9508 LP  0  0  0  0  0  0  0  0  0  0  0  0  # atno 17321 bound_to 7965
  139.5633  144.7420  151.4092 LP  0  0  0  0  0  0  0  0  0  0  0  0  # atno 17342 bound_to 10162
  140.6940  143.7793  150.7298 LP  0  0  0  0  0  0  0  0  0  0  0  0  # atno 17343 bound_to 10162
  157.5551  131.0945  150.9639 LP  0  0  0  0  0  0  0  0  0  0  0  0  # atno 17370 bound_to 10713
  156.9890  130.5556  149.5302 LP  0  0  0  0  0  0  0  0  0  0  0  0  # atno 17371 bound_to 10713
  140.1583  134.9183  157.2681 LP  0  0  0  0  0  0  0  0  0  0  0  0  # atno 17394 bound_to 11000
  140.2642  134.3536  155.7396 LP  0  0  0  0  0  0  0  0  0  0  0  0  # atno 17395 bound_to 11000

$$$$
