AV-unprocessed.smi:2025|AV-procd|sdf|8199|dock8
  -GOLD-   2272010453D 1   1.00000     0.00000
 Structure written by MMmdl.
 39 40  0  0  0  0  0  0  0  0  1 V2000
  145.8049  146.6307  160.0628 C   0  0  0  0  0  0  0  0  0  0  0  0
  146.8707  146.0209  160.9850 C   0  0  2  0  0  0  0  0  0  0  0  0
  148.0790  145.7696  160.2020 N   0  0  0  0  0  0  0  0  0  0  0  0
  149.1367  145.0439  160.5963 C   0  0  0  0  0  0  0  0  0  0  0  0
  149.2244  144.5180  161.7063 O   0  0  0  0  0  0  0  0  0  0  0  0
  150.2748  144.9022  159.5781 C   0  0  0  0  0  0  0  0  0  0  0  0
  151.2842  143.9222  159.9988 N   0  0  0  0  0  0  0  0  0  0  0  0
  152.0227  144.1480  161.1462 C   0  0  0  0  0  0  0  0  0  0  0  0
  152.9550  143.2890  161.6126 C   0  0  0  0  0  0  0  0  0  0  0  0
  153.2438  142.0457  160.9090 C   0  0  0  0  0  0  0  0  0  0  0  0
  154.0710  141.2224  161.3031 O   0  0  0  0  0  0  0  0  0  0  0  0
  152.4867  141.8458  159.7315 N   0  0  0  0  0  0  0  0  0  0  0  0
  152.7227  140.6192  158.9985 C   0  0  0  0  0  0  0  0  0  0  0  0
  151.4977  142.7389  159.2582 C   0  0  0  0  0  0  0  0  0  0  0  0
  150.8322  142.5088  158.2453 O   0  0  0  0  0  0  0  0  0  0  0  0
  146.3757  144.7188  161.6506 C   0  0  1  0  0  0  0  0  0  0  0  0
  145.1352  144.8669  162.5331 C   0  0  0  0  0  0  0  0  0  0  0  0
  144.6230  143.4456  162.5791 C   0  0  0  0  0  0  0  0  0  0  0  0
  144.9315  142.9417  161.1703 C   0  0  0  0  0  0  0  0  0  0  0  0
  145.9743  143.7729  160.6643 O   0  0  0  0  0  0  0  0  0  0  0  0
  144.8955  146.8690  160.6149 H   0  0  0  0  0  0  0  0  0  0  0  0
  145.5349  145.9452  159.2586 H   0  0  0  0  0  0  0  0  0  0  0  0
  146.1617  147.5552  159.6077 H   0  0  0  0  0  0  0  0  0  0  0  0
  147.0844  146.7515  161.7672 H   0  0  0  0  0  0  0  0  0  0  0  0
  148.1034  146.1652  159.2734 H   0  0  0  0  0  0  0  0  0  0  0  0
  149.8748  144.6297  158.5993 H   0  0  0  0  0  0  0  0  0  0  0  0
  150.7358  145.8816  159.4454 H   0  0  0  0  0  0  0  0  0  0  0  0
  151.8418  145.0545  161.7053 H   0  0  0  0  0  0  0  0  0  0  0  0
  153.4922  143.5232  162.5199 H   0  0  0  0  0  0  0  0  0  0  0  0
  152.3635  140.7094  157.9732 H   0  0  0  0  0  0  0  0  0  0  0  0
  152.1976  139.8256  159.5318 H   0  0  0  0  0  0  0  0  0  0  0  0
  153.7981  140.4364  158.9671 H   0  0  0  0  0  0  0  0  0  0  0  0
  147.1780  144.2695  162.2390 H   0  0  0  0  0  0  0  0  0  0  0  0
  145.3577  145.2709  163.5212 H   0  0  0  0  0  0  0  0  0  0  0  0
  144.3980  145.5136  162.0550 H   0  0  0  0  0  0  0  0  0  0  0  0
  145.1884  142.8716  163.3143 H   0  0  0  0  0  0  0  0  0  0  0  0
  143.5651  143.3785  162.8344 H   0  0  0  0  0  0  0  0  0  0  0  0
  145.2304  141.8931  161.1712 H   0  0  0  0  0  0  0  0  0  0  0  0
  144.0609  143.0444  160.5218 H   0  0  0  0  0  0  0  0  0  0  0  0
  1  2  1  0  0  0  0
  1 21  1  0  0  0  0
  1 22  1  0  0  0  0
  1 23  1  0  0  0  0
  2  3  1  0  0  0  0
  2 16  1  0  0  0  0
  2 24  1  0  0  0  0
  3  4  1  0  0  0  0
  3 25  1  0  0  0  0
  4  5  2  0  0  0  0
  4  6  1  0  0  0  0
  6  7  1  0  0  0  0
  6 26  1  0  0  0  0
  6 27  1  0  0  0  0
  7 14  1  0  0  0  0
  7  8  1  0  0  0  0
  8  9  2  0  0  0  0
  8 28  1  0  0  0  0
  9 10  1  0  0  0  0
  9 29  1  0  0  0  0
 10 11  2  0  0  0  0
 10 12  1  0  0  0  0
 12 13  1  0  0  0  0
 12 14  1  0  0  0  0
 13 30  1  0  0  0  0
 13 31  1  0  0  0  0
 13 32  1  0  0  0  0
 14 15  2  0  0  0  0
 16 20  1  0  0  0  0
 16 17  1  0  0  0  0
 16 33  1  0  0  0  0
 17 18  1  0  0  0  0
 17 34  1  0  0  0  0
 17 35  1  0  0  0  0
 18 19  1  0  0  0  0
 18 36  1  0  0  0  0
 18 37  1  0  0  0  0
 19 20  1  0  0  0  0
 19 38  1  0  0  0  0
 19 39  1  0  0  0  0
M  END
> <s_m_source_file>
AV-unprocessed.smi

> <i_m_source_file_index>
2025

> <i_lp_mmshare_version>
43012

> <i_f3d_flags>
0

> <s_epik_input>
TzFbQ0gyXVtDSDJdW0NIMl1bQ0BIXTFbQ0BIXShbQ0gzXSlbTkhdQyg9TylbQ0gyXW4yW2NIXVtjSF1jKD1PKW4oW0NIM10pYzI9Tw==

> <s_epik_cmdline>
J2VwaWtfcHl0aG9uJywgJy1waCcsICc3LjAnLCAnLXRuJywgJzgnLCAnLW1hJywgJzIwMCcsICctbWV0YWxfYmluZGluZycsICctaW1hZScsICc8aW5maWxlLm1hZT4nLCAnLW9tYWUnLCAnPG91dGZpbGUubWFlPic=

> <r_lp_tautomer_probability>
1

> <r_epik_Ionization_Penalty>
3.54787e-08

> <r_epik_Ionization_Penalty_Charging>
1.24654e-08

> <r_epik_Ionization_Penalty_Neutral>
2.30132e-08

> <r_epik_State_Penalty>
-0

> <r_epik_Charging_Adjusted_Penalty>
1.24654e-08

> <i_epik_Tot_Q>
0

> <i_epik_Tot_abs_Q>
0

> <r_epik_Metal_State_Penalty>
-0

> <b_epik_Metal_Only>
0

> <s_lp_Force_Field>
OPLS_2005

> <r_lp_Energy>
25.1152

> <b_lp_Chiralities_Consistent>
1

> <s_lp_Variant>
AV-unprocessed.smi:2025-3

> <Gold.Version>
5.8.1

> <Gold.Id.Protein>
6NUR|6NUR_protein|mol2

> <Gold.PLP.Fitness>
47.5721

> <Gold.PLP.PLP>
-43.5945

> <Gold.PLP.part.hbond>
-2.3381

> <Gold.PLP.part.metal>
0.0000

> <Gold.PLP.part.buried>
-7.5395

> <Gold.PLP.part.nonpolar>
-34.0904

> <Gold.PLP.part.repulsive>
0.5228

> <Gold.PLP.ligand.clash>
0.0000

> <Gold.PLP.ligand.torsion>
0.2729

> <Gold.PLP.Chemscore.Hbond>
1.5040

> <Gold.PLP.Chemscore.CHOScore>
0.0000

> <Gold.PLP.Chemscore.Metal>
0.0000

> <Gold.Chemscore.Hbonds>
donor molecule, donor type, donor heavy atom, donor atom, acceptor molecule, acceptor atom, score
      L1  H     3    25       P1  8029  1.00
      P1  H  6933  6944       L1     5  0.20

> <Gold.PLP.Chemscore.Internal.Correction>
0.0114

> <Gold.Rescore>
     Score         DG    S(hbond)    S(metal)    S(lipo)     H(rot)  DE(clash)    DE(int)     intcor
     13.32     -13.86       1.55        0.00      67.27       1.82       0.05       0.49       ----

> <Gold.Chemscore.Fitness>
13.3214

> <Gold.Chemscore.DG>
-13.8592

> <Gold.Chemscore.ZeroCoef>
-5.4800

> <Gold.Chemscore.Hbond>
1.5493

> <Gold.Chemscore.Metal>
0.0000

> <Gold.Chemscore.Lipo>
67.2734

> <Gold.Chemscore.Internal_Hbond>
0.0000

> <Gold.Chemscore.DEClash>
0.0457

> <Gold.Chemscore.DEInternal>
0.4921

> <Gold.Chemscore.Rot>
1.8228

> <Gold.Chemscore.Internal.Correction>
   9.000000E+99

> <Gold.Chemscore.Hbonds>
donor molecule, donor type, donor heavy atom, donor atom, acceptor molecule, acceptor atom, score
      L1  H     3    25       P1  8029  0.92
      P1  H  6933  6944       L1     5  0.12

> <Gold.Chemscore.Hbond.Weighted>
-5.1747

> <Gold.Chemscore.Metal.Weighted>
-0.0000

> <Gold.Chemscore.Lipo.Weighted>
-7.8710

> <Gold.Chemscore.Internal_Hbond.Weighted>
0.0000

> <Gold.Chemscore.DEClash.Weighted>
0.0457

> <Gold.Chemscore.DEInternal.Weighted>
0.4921

> <Gold.Chemscore.Rot.Weighted>
4.6665

> <Gold.Chemscore.Internal.Correction.Weighted>
   9.000000E+99

> <Gold.Protein.RotatedTorsions>
[ 6907 6896 6895 6894 ] final -111.61 input  -60.11 | X-H torsion
[ 7974 7965 7964 7962 ] final  -55.13 input  175.53 | X-H torsion
[ 8008 7997 7996 7995 ] final -178.49 input   59.86 | X-H torsion
[ 10167 10162 10161 10158 ] final  145.09 input  -65.29 | X-H torsion
[ 10718 10713 10712 10709 ] final    5.64 input   66.30 | X-H torsion
[ 10763 10752 10751 10750 ] final   92.52 input  -60.55 | X-H torsion
[ 11005 11000 10999 10996 ] final -164.31 input  -57.11 | X-H torsion

> <Gold.Protein.ActiveResidues>
 VAL166  LYS551  ARG553  GLY616  TRP617  ASP618  TYR619  PRO620  LYS621  CYS622 
 ASP623  PHE694  ASN695  SER759  ASP760  ASP761  ALA762  ILE779  LEU786  VAL792 
 PHE793  MET794  SER795  GLU796  ALA797  LYS798  CYS799  TRP800  GLU811  SER814 

> <Gold.Protein.RotatedAtoms>
  150.7702  133.9210  159.3397 H   0  0  0  0  0  0  0  0  0  0  0  0  # atno 6907 bound_to 6896
  151.7098  135.0913  160.0275 H   0  0  0  0  0  0  0  0  0  0  0  0  # atno 6908 bound_to 6896
  152.3716  133.6388  159.6127 H   0  0  0  0  0  0  0  0  0  0  0  0  # atno 6909 bound_to 6896
  145.8776  140.8169  142.9856 H   0  0  0  0  0  0  0  0  0  0  0  0  # atno 7974 bound_to 7965
  156.0195  140.1258  157.0372 H   0  0  0  0  0  0  0  0  0  0  0  0  # atno 8008 bound_to 7997
  154.4306  140.1071  156.6013 H   0  0  0  0  0  0  0  0  0  0  0  0  # atno 8009 bound_to 7997
  155.5965  140.3470  155.4583 H   0  0  0  0  0  0  0  0  0  0  0  0  # atno 8010 bound_to 7997
  139.4933  144.5926  151.6649 H   0  0  0  0  0  0  0  0  0  0  0  0  # atno 10167 bound_to 10162
  156.9104  130.5754  149.5647 H   0  0  0  0  0  0  0  0  0  0  0  0  # atno 10718 bound_to 10713
  153.2200  135.4358  155.0479 H   0  0  0  0  0  0  0  0  0  0  0  0  # atno 10763 bound_to 10752
  154.8245  135.3354  154.6941 H   0  0  0  0  0  0  0  0  0  0  0  0  # atno 10764 bound_to 10752
  153.7373  135.7007  153.5031 H   0  0  0  0  0  0  0  0  0  0  0  0  # atno 10765 bound_to 10752
  140.5883  134.5071  157.5189 H   0  0  0  0  0  0  0  0  0  0  0  0  # atno 11005 bound_to 11000
  144.6726  140.1335  143.7442 LP  0  0  0  0  0  0  0  0  0  0  0  0  # atno 17320 bound_to 7965
  145.9062  139.2459  143.1464 LP  0  0  0  0  0  0  0  0  0  0  0  0  # atno 17321 bound_to 7965
  140.5556  144.0353  150.6146 LP  0  0  0  0  0  0  0  0  0  0  0  0  # atno 17342 bound_to 10162
  140.3422  143.3013  152.0576 LP  0  0  0  0  0  0  0  0  0  0  0  0  # atno 17343 bound_to 10162
  156.0539  130.5604  150.9049 LP  0  0  0  0  0  0  0  0  0  0  0  0  # atno 17370 bound_to 10713
  157.5971  131.0942  150.9022 LP  0  0  0  0  0  0  0  0  0  0  0  0  # atno 17371 bound_to 10713
  139.9285  134.8008  156.0997 LP  0  0  0  0  0  0  0  0  0  0  0  0  # atno 17394 bound_to 11000
  141.0951  133.6698  156.2628 LP  0  0  0  0  0  0  0  0  0  0  0  0  # atno 17395 bound_to 11000

$$$$
