AV-unprocessed.smi:2006|AV-procd|sdf|8132|dock7
  -GOLD-   2272010363D 1   1.00000     0.00000
 Structure written by MMmdl.
 32 33  0  0  0  0  0  0  0  0  1 V2000
  152.5958  142.6174  161.7830 C   0  0  0  0  0  0  0  0  0  0  0  0
  152.7187  142.9809  160.2996 C   0  0  1  0  0  0  0  0  0  0  0  0
  152.1080  141.9002  159.3868 C   0  0  0  0  0  0  0  0  0  0  0  0
  152.1643  142.3283  157.9948 N   0  0  0  0  0  0  0  0  0  0  0  0
  151.7303  141.3469  157.0927 C   0  0  0  0  0  0  0  0  0  0  0  0
  150.5493  141.5718  156.3548 C   0  0  0  0  0  0  0  0  0  0  0  0
  150.1207  140.5857  155.4458 C   0  0  0  0  0  0  0  0  0  0  0  0
  150.8866  139.4106  155.3047 C   0  0  0  0  0  0  0  0  0  0  0  0
  150.4691  138.3201  154.3391 C   0  0  0  0  0  0  0  0  0  0  0  0
  149.2848  138.6713  153.5809 N   0  0  0  0  0  0  0  0  0  0  0  0
  152.0510  139.2770  156.0892 C   0  0  0  0  0  0  0  0  0  0  0  0
  152.4683  140.2178  156.9632 N   0  0  0  0  0  0  0  0  0  0  0  0
  151.5381  143.6273  157.7850 C   0  0  0  0  0  0  0  0  0  0  0  0
  152.1561  144.6673  158.7345 C   0  0  0  0  0  0  0  0  0  0  0  0
  152.0374  144.2147  160.0806 O   0  0  0  0  0  0  0  0  0  0  0  0
  153.1151  141.6840  162.0019 H   0  0  0  0  0  0  0  0  0  0  0  0
  151.5521  142.4960  162.0744 H   0  0  0  0  0  0  0  0  0  0  0  0
  153.0296  143.3951  162.4120 H   0  0  0  0  0  0  0  0  0  0  0  0
  153.7758  143.1102  160.0600 H   0  0  0  0  0  0  0  0  0  0  0  0
  152.6497  140.9605  159.5029 H   0  0  0  0  0  0  0  0  0  0  0  0
  151.0720  141.7131  159.6732 H   0  0  0  0  0  0  0  0  0  0  0  0
  149.9822  142.4826  156.4805 H   0  0  0  0  0  0  0  0  0  0  0  0
  149.2206  140.7309  154.8667 H   0  0  0  0  0  0  0  0  0  0  0  0
  151.2826  138.1022  153.6465 H   0  0  0  0  0  0  0  0  0  0  0  0
  150.2737  137.4047  154.8985 H   0  0  0  0  0  0  0  0  0  0  0  0
  149.5309  139.3449  152.8696 H   0  0  0  0  0  0  0  0  0  0  0  0
  148.9498  137.8562  153.0873 H   0  0  0  0  0  0  0  0  0  0  0  0
  152.6670  138.3929  156.0142 H   0  0  0  0  0  0  0  0  0  0  0  0
  151.6714  143.9397  156.7485 H   0  0  0  0  0  0  0  0  0  0  0  0
  150.4647  143.5542  157.9659 H   0  0  0  0  0  0  0  0  0  0  0  0
  153.2046  144.8441  158.4899 H   0  0  0  0  0  0  0  0  0  0  0  0
  151.6403  145.6224  158.6339 H   0  0  0  0  0  0  0  0  0  0  0  0
  1  2  1  0  0  0  0
  1 16  1  0  0  0  0
  1 17  1  0  0  0  0
  1 18  1  0  0  0  0
  2 15  1  0  0  0  0
  2  3  1  0  0  0  0
  2 19  1  0  0  0  0
  3  4  1  0  0  0  0
  3 20  1  0  0  0  0
  3 21  1  0  0  0  0
  4  5  1  0  0  0  0
  4 13  1  0  0  0  0
  5 12  1  0  0  0  0
  5  6  2  0  0  0  0
  6  7  1  0  0  0  0
  6 22  1  0  0  0  0
  7  8  2  0  0  0  0
  7 23  1  0  0  0  0
  8  9  1  0  0  0  0
  8 11  1  0  0  0  0
  9 10  1  0  0  0  0
  9 24  1  0  0  0  0
  9 25  1  0  0  0  0
 10 26  1  0  0  0  0
 10 27  1  0  0  0  0
 11 12  2  0  0  0  0
 11 28  1  0  0  0  0
 13 14  1  0  0  0  0
 13 29  1  0  0  0  0
 13 30  1  0  0  0  0
 14 15  1  0  0  0  0
 14 31  1  0  0  0  0
 14 32  1  0  0  0  0
M  END
> <s_m_source_file>
AV-unprocessed.smi

> <i_m_source_file_index>
2006

> <i_lp_mmshare_version>
43012

> <i_f3d_flags>
0

> <s_epik_input>
W0NIM11bQ0BASF0xW0NIMl1OKFtDSDJdW0NIMl1PMSljMltjSF1bY0hdYyhbY0hdbjIpW0NIMl1bTkgyXQ==

> <s_epik_cmdline>
J2VwaWtfcHl0aG9uJywgJy1waCcsICc3LjAnLCAnLXRuJywgJzgnLCAnLW1hJywgJzIwMCcsICctbWV0YWxfYmluZGluZycsICctaW1hZScsICc8aW5maWxlLm1hZT4nLCAnLW9tYWUnLCAnPG91dGZpbGUubWFlPic=

> <r_lp_tautomer_probability>
1

> <r_epik_Ionization_Penalty>
1.39389

> <r_epik_Ionization_Penalty_Charging>
0

> <r_epik_Ionization_Penalty_Neutral>
1.39389

> <r_epik_State_Penalty>
1.46818

> <r_epik_Charging_Adjusted_Penalty>
1.46818

> <i_epik_Tot_Q>
0

> <i_epik_Tot_abs_Q>
0

> <r_epik_Metal_State_Penalty>
1.46201

> <b_epik_Metal_Only>
0

> <s_lp_Force_Field>
OPLS_2005

> <r_lp_Energy>
16.9225

> <b_lp_Chiralities_Consistent>
1

> <s_lp_Variant>
AV-unprocessed.smi:2006-4

> <Gold.Version>
5.8.1

> <Gold.Id.Protein>
6NUR|6NUR_protein|mol2

> <Gold.PLP.Fitness>
42.4993

> <Gold.PLP.PLP>
-36.0083

> <Gold.PLP.part.hbond>
-3.0000

> <Gold.PLP.part.metal>
0.0000

> <Gold.PLP.part.buried>
-1.7100

> <Gold.PLP.part.nonpolar>
-30.2125

> <Gold.PLP.part.repulsive>
0.0610

> <Gold.PLP.ligand.clash>
2.0764

> <Gold.PLP.ligand.torsion>
0.2664

> <Gold.PLP.Chemscore.Hbond>
3.0000

> <Gold.PLP.Chemscore.CHOScore>
0.0000

> <Gold.PLP.Chemscore.Metal>
0.0000

> <Gold.Chemscore.Hbonds>
donor molecule, donor type, donor heavy atom, donor atom, acceptor molecule, acceptor atom, score
      L1  H    10    26       P1  7957  1.00
      L1  H    10    27       P1  7948  1.00
      P1  H  7997  8009       L1    12  1.00

> <Gold.PLP.Chemscore.Internal.Correction>
0.1002

> <Gold.Rescore>
     Score         DG    S(hbond)    S(metal)    S(lipo)     H(rot)  DE(clash)    DE(int)     intcor
     21.02     -21.36       2.51        0.00      92.11       1.28       0.10       0.25       ----

> <Gold.Chemscore.Fitness>
21.0157

> <Gold.Chemscore.DG>
-21.3609

> <Gold.Chemscore.ZeroCoef>
-5.4800

> <Gold.Chemscore.Hbond>
2.5064

> <Gold.Chemscore.Metal>
0.0000

> <Gold.Chemscore.Lipo>
92.1062

> <Gold.Chemscore.Internal_Hbond>
0.0000

> <Gold.Chemscore.DEClash>
0.0982

> <Gold.Chemscore.DEInternal>
0.2470

> <Gold.Chemscore.Rot>
1.2762

> <Gold.Chemscore.Internal.Correction>
   9.000000E+99

> <Gold.Chemscore.Hbonds>
donor molecule, donor type, donor heavy atom, donor atom, acceptor molecule, acceptor atom, score
      L1  H    10    26       P1  7957  0.98
      L1  H    10    27       P1  7948  0.94
      P1  H  7997  8009       L1    12  0.24

> <Gold.Chemscore.Hbond.Weighted>
-8.3715

> <Gold.Chemscore.Metal.Weighted>
-0.0000

> <Gold.Chemscore.Lipo.Weighted>
-10.7764

> <Gold.Chemscore.Internal_Hbond.Weighted>
0.0000

> <Gold.Chemscore.DEClash.Weighted>
0.0982

> <Gold.Chemscore.DEInternal.Weighted>
0.2470

> <Gold.Chemscore.Rot.Weighted>
3.2671

> <Gold.Chemscore.Internal.Correction.Weighted>
   9.000000E+99

> <Gold.Protein.RotatedTorsions>
[ 6907 6896 6895 6894 ] final  115.15 input  -60.11 | X-H torsion
[ 7974 7965 7964 7962 ] final -127.54 input  175.53 | X-H torsion
[ 8008 7997 7996 7995 ] final  176.35 input   59.86 | X-H torsion
[ 10167 10162 10161 10158 ] final    6.30 input  -65.29 | X-H torsion
[ 10718 10713 10712 10709 ] final  142.46 input   66.30 | X-H torsion
[ 10763 10752 10751 10750 ] final -166.35 input  -60.55 | X-H torsion
[ 11005 11000 10999 10996 ] final   11.73 input  -57.11 | X-H torsion

> <Gold.Protein.ActiveResidues>
 VAL166  LYS551  ARG553  GLY616  TRP617  ASP618  TYR619  PRO620  LYS621  CYS622 
 ASP623  PHE694  ASN695  SER759  ASP760  ASP761  ALA762  ILE779  LEU786  VAL792 
 PHE793  MET794  SER795  GLU796  ALA797  LYS798  CYS799  TRP800  GLU811  SER814 

> <Gold.Protein.RotatedAtoms>
  152.4759  133.8137  159.7016 H   0  0  0  0  0  0  0  0  0  0  0  0  # atno 6907 bound_to 6896
  150.8776  133.7408  159.2948 H   0  0  0  0  0  0  0  0  0  0  0  0  # atno 6908 bound_to 6896
  151.4922  135.1061  159.9859 H   0  0  0  0  0  0  0  0  0  0  0  0  # atno 6909 bound_to 6896
  144.9760  140.7593  143.4641 H   0  0  0  0  0  0  0  0  0  0  0  0  # atno 7974 bound_to 7965
  156.0774  140.1386  156.9754 H   0  0  0  0  0  0  0  0  0  0  0  0  # atno 8008 bound_to 7997
  154.4566  140.0959  156.6823 H   0  0  0  0  0  0  0  0  0  0  0  0  # atno 8009 bound_to 7997
  155.5130  140.3454  155.4394 H   0  0  0  0  0  0  0  0  0  0  0  0  # atno 8010 bound_to 7997
  140.6435  143.7717  150.7463 H   0  0  0  0  0  0  0  0  0  0  0  0  # atno 10167 bound_to 10162
  157.3803  131.0991  151.0745 H   0  0  0  0  0  0  0  0  0  0  0  0  # atno 10718 bound_to 10713
  154.6841  135.2959  154.9572 H   0  0  0  0  0  0  0  0  0  0  0  0  # atno 10763 bound_to 10752
  154.0557  135.6638  153.4809 H   0  0  0  0  0  0  0  0  0  0  0  0  # atno 10764 bound_to 10752
  153.0567  135.5140  154.7900 H   0  0  0  0  0  0  0  0  0  0  0  0  # atno 10765 bound_to 10752
  140.5000  134.0755  155.7791 H   0  0  0  0  0  0  0  0  0  0  0  0  # atno 11005 bound_to 11000
  145.2489  139.2040  143.4953 LP  0  0  0  0  0  0  0  0  0  0  0  0  # atno 17320 bound_to 7965
  146.3395  140.2399  142.8595 LP  0  0  0  0  0  0  0  0  0  0  0  0  # atno 17321 bound_to 7965
  140.1354  143.4489  152.2228 LP  0  0  0  0  0  0  0  0  0  0  0  0  # atno 17342 bound_to 10162
  139.5645  144.7426  151.4062 LP  0  0  0  0  0  0  0  0  0  0  0  0  # atno 17343 bound_to 10162
  157.1817  130.6312  149.5674 LP  0  0  0  0  0  0  0  0  0  0  0  0  # atno 17370 bound_to 10713
  155.9774  130.4751  150.6592 LP  0  0  0  0  0  0  0  0  0  0  0  0  # atno 17371 bound_to 10713
  141.1440  133.9087  157.2258 LP  0  0  0  0  0  0  0  0  0  0  0  0  # atno 17394 bound_to 11000
  139.9719  135.0126  156.9533 LP  0  0  0  0  0  0  0  0  0  0  0  0  # atno 17395 bound_to 11000

$$$$
