AV-unprocessed.smi:1022|AV-procd|sdf|4458|dock3
  -GOLD-   22720 2433D 1   1.00000     0.00000
 Structure written by MMmdl.
 33 34  0  0  0  0  0  0  0  0  1 V2000
  147.1579  132.7145  152.2347 C   0  0  0  0  0  0  0  0  0  0  0  0
  147.7037  132.6654  153.5409 O   0  0  0  0  0  0  0  0  0  0  0  0
  149.0949  132.3872  153.5408 C   0  0  0  0  0  0  0  0  0  0  0  0
  149.7851  133.2506  154.6078 C   0  0  2  0  0  0  0  0  0  0  0  0
  149.1238  133.0848  155.9851 C   0  0  0  0  0  0  0  0  0  0  0  0
  149.7458  134.6531  154.2013 N   0  0  0  0  0  0  0  0  0  0  0  0
  150.2207  135.6822  154.9177 C   0  0  0  0  0  0  0  0  0  0  0  0
  150.7463  135.5550  156.0240 O   0  0  0  0  0  0  0  0  0  0  0  0
  150.0395  136.8473  154.2718 N   0  0  0  0  0  0  0  0  0  0  0  0
  150.4052  138.1531  154.6928 C   0  0  0  0  0  0  0  0  0  0  0  0
  151.5998  138.7082  154.4468 N   0  0  0  0  0  0  0  0  0  0  0  0
  151.6919  139.9914  154.9673 N   0  0  0  0  0  0  0  0  0  0  0  0
  150.5686  140.3695  155.5890 C   0  0  0  0  0  0  0  0  0  0  0  0
  150.4269  141.7099  156.2302 C   0  0  0  0  0  0  0  0  0  0  0  0
  151.4059  142.1995  157.2749 C   0  0  0  0  0  0  0  0  0  0  0  0
  149.9993  141.8331  157.6744 C   0  0  0  0  0  0  0  0  0  0  0  0
  149.2840  139.1649  155.5869 S   0  0  0  0  0  0  0  0  0  0  0  0
  146.0915  132.9335  152.2917 H   0  0  0  0  0  0  0  0  0  0  0  0
  147.2784  131.7598  151.7212 H   0  0  0  0  0  0  0  0  0  0  0  0
  147.6305  133.4958  151.6380 H   0  0  0  0  0  0  0  0  0  0  0  0
  149.2716  131.3274  153.7334 H   0  0  0  0  0  0  0  0  0  0  0  0
  149.5083  132.6133  152.5565 H   0  0  0  0  0  0  0  0  0  0  0  0
  150.8230  132.9215  154.6838 H   0  0  0  0  0  0  0  0  0  0  0  0
  149.1507  132.0445  156.3099 H   0  0  0  0  0  0  0  0  0  0  0  0
  148.0802  133.4005  155.9653 H   0  0  0  0  0  0  0  0  0  0  0  0
  149.6368  133.6771  156.7436 H   0  0  0  0  0  0  0  0  0  0  0  0
  149.3339  134.8507  153.3010 H   0  0  0  0  0  0  0  0  0  0  0  0
  149.5820  136.7945  153.3738 H   0  0  0  0  0  0  0  0  0  0  0  0
  150.0363  142.4360  155.5197 H   0  0  0  0  0  0  0  0  0  0  0  0
  152.2024  141.5290  157.5911 H   0  0  0  0  0  0  0  0  0  0  0  0
  151.6650  143.2562  157.2623 H   0  0  0  0  0  0  0  0  0  0  0  0
  149.3203  142.6443  157.9293 H   0  0  0  0  0  0  0  0  0  0  0  0
  149.8623  140.9142  158.2412 H   0  0  0  0  0  0  0  0  0  0  0  0
  1  2  1  0  0  0  0
  1 18  1  0  0  0  0
  1 19  1  0  0  0  0
  1 20  1  0  0  0  0
  2  3  1  0  0  0  0
  3  4  1  0  0  0  0
  3 21  1  0  0  0  0
  3 22  1  0  0  0  0
  4  5  1  0  0  0  0
  4  6  1  0  0  0  0
  4 23  1  0  0  0  0
  5 24  1  0  0  0  0
  5 25  1  0  0  0  0
  5 26  1  0  0  0  0
  6  7  1  0  0  0  0
  6 27  1  0  0  0  0
  7  8  2  0  0  0  0
  7  9  1  0  0  0  0
  9 10  1  0  0  0  0
  9 28  1  0  0  0  0
 10 17  1  0  0  0  0
 10 11  2  0  0  0  0
 11 12  1  0  0  0  0
 12 13  2  0  0  0  0
 13 14  1  0  0  0  0
 13 17  1  0  0  0  0
 14 16  1  0  0  0  0
 14 15  1  0  0  0  0
 14 29  1  0  0  0  0
 15 16  1  0  0  0  0
 15 30  1  0  0  0  0
 15 31  1  0  0  0  0
 16 32  1  0  0  0  0
 16 33  1  0  0  0  0
M  END
> <s_m_source_file>
AV-unprocessed.smi

> <i_m_source_file_index>
1022

> <i_lp_mmshare_version>
43012

> <i_f3d_flags>
0

> <s_epik_input>
W0NIM11PW0NIMl1bQ0BIXShbQ0gzXSlbTkhdQyg9TylbTkhdYzFubmMoczEpW0NIXTJbQ0gyXVtDSDJdMg==

> <s_epik_cmdline>
J2VwaWtfcHl0aG9uJywgJy1waCcsICc3LjAnLCAnLXRuJywgJzgnLCAnLW1hJywgJzIwMCcsICctbWV0YWxfYmluZGluZycsICctaW1hZScsICc8aW5maWxlLm1hZT4nLCAnLW9tYWUnLCAnPG91dGZpbGUubWFlPic=

> <r_lp_tautomer_probability>
1

> <r_epik_Ionization_Penalty>
0.00129266

> <r_epik_Ionization_Penalty_Charging>
0

> <r_epik_Ionization_Penalty_Neutral>
0.00129266

> <r_epik_State_Penalty>
-0

> <r_epik_Charging_Adjusted_Penalty>
0

> <i_epik_Tot_Q>
0

> <i_epik_Tot_abs_Q>
0

> <r_epik_Metal_State_Penalty>
0.30857

> <b_epik_Metal_Only>
0

> <s_lp_Force_Field>
OPLS_2005

> <r_lp_Energy>
1.45425

> <b_lp_Chiralities_Consistent>
1

> <s_lp_Variant>
AV-unprocessed.smi:1022-1

> <Gold.Version>
5.8.1

> <Gold.Id.Protein>
6NUR|6NUR_protein|mol2

> <Gold.PLP.Fitness>
32.1200

> <Gold.PLP.PLP>
-26.1087

> <Gold.PLP.part.hbond>
-3.4325

> <Gold.PLP.part.metal>
0.0000

> <Gold.PLP.part.buried>
-5.3191

> <Gold.PLP.part.nonpolar>
-19.2152

> <Gold.PLP.part.repulsive>
0.3629

> <Gold.PLP.ligand.clash>
0.0000

> <Gold.PLP.ligand.torsion>
1.1389

> <Gold.PLP.Chemscore.Hbond>
2.7080

> <Gold.PLP.Chemscore.CHOScore>
0.0000

> <Gold.PLP.Chemscore.Metal>
0.0000

> <Gold.Chemscore.Hbonds>
donor molecule, donor type, donor heavy atom, donor atom, acceptor molecule, acceptor atom, score
      L1  H     6    27       P1  7948  0.48
      L1  H     9    28       P1  7948  1.00
      P1  H  7989  7998       L1    12  0.95

> <Gold.PLP.Chemscore.Internal.Correction>
0.1651

> <Gold.Rescore>
     Score         DG    S(hbond)    S(metal)    S(lipo)     H(rot)  DE(clash)    DE(int)     intcor
     11.06     -12.34       1.64        0.00      49.73       1.73       0.12       1.16       ----

> <Gold.Chemscore.Fitness>
11.0572

> <Gold.Chemscore.DG>
-12.3374

> <Gold.Chemscore.ZeroCoef>
-5.4800

> <Gold.Chemscore.Hbond>
1.6385

> <Gold.Chemscore.Metal>
0.0000

> <Gold.Chemscore.Lipo>
49.7288

> <Gold.Chemscore.Internal_Hbond>
0.0000

> <Gold.Chemscore.DEClash>
0.1214

> <Gold.Chemscore.DEInternal>
1.1588

> <Gold.Chemscore.Rot>
1.7318

> <Gold.Chemscore.Internal.Correction>
   9.000000E+99

> <Gold.Chemscore.Hbonds>
donor molecule, donor type, donor heavy atom, donor atom, acceptor molecule, acceptor atom, score
      L1  H     6    27       P1  7948  0.02
      L1  H     9    28       P1  7948  0.70
      P1  H  7989  7998       L1    12  0.09

> <Gold.Chemscore.Hbond.Weighted>
-5.4726

> <Gold.Chemscore.Metal.Weighted>
-0.0000

> <Gold.Chemscore.Lipo.Weighted>
-5.8183

> <Gold.Chemscore.Internal_Hbond.Weighted>
0.0000

> <Gold.Chemscore.DEClash.Weighted>
0.1214

> <Gold.Chemscore.DEInternal.Weighted>
1.1588

> <Gold.Chemscore.Rot.Weighted>
4.4335

> <Gold.Chemscore.Internal.Correction.Weighted>
   9.000000E+99

> <Gold.Protein.RotatedTorsions>
[ 6907 6896 6895 6894 ] final -132.08 input  -60.11 | X-H torsion
[ 7974 7965 7964 7962 ] final -156.46 input  175.53 | X-H torsion
[ 8008 7997 7996 7995 ] final  178.92 input   59.86 | X-H torsion
[ 10167 10162 10161 10158 ] final  116.16 input  -65.29 | X-H torsion
[ 10718 10713 10712 10709 ] final  -59.98 input   66.30 | X-H torsion
[ 10763 10752 10751 10750 ] final   51.76 input  -60.55 | X-H torsion
[ 11005 11000 10999 10996 ] final -109.27 input  -57.11 | X-H torsion

> <Gold.Protein.ActiveResidues>
 VAL166  LYS551  ARG553  GLY616  TRP617  ASP618  TYR619  PRO620  LYS621  CYS622 
 ASP623  PHE694  ASN695  SER759  ASP760  ASP761  ALA762  ILE779  LEU786  VAL792 
 PHE793  MET794  SER795  GLU796  ALA797  LYS798  CYS799  TRP800  GLU811  SER814 

> <Gold.Protein.RotatedAtoms>
  150.9583  133.6473  159.2758 H   0  0  0  0  0  0  0  0  0  0  0  0  # atno 6907 bound_to 6896
  151.3805  135.0938  159.9504 H   0  0  0  0  0  0  0  0  0  0  0  0  # atno 6908 bound_to 6896
  152.5137  133.9118  159.7546 H   0  0  0  0  0  0  0  0  0  0  0  0  # atno 6909 bound_to 6896
  144.7592  140.4107  143.5989 H   0  0  0  0  0  0  0  0  0  0  0  0  # atno 7974 bound_to 7965
  156.0492  140.1321  157.0069 H   0  0  0  0  0  0  0  0  0  0  0  0  # atno 8008 bound_to 7997
  154.4427  140.1014  156.6422 H   0  0  0  0  0  0  0  0  0  0  0  0  # atno 8009 bound_to 7997
  155.5549  140.3463  155.4479 H   0  0  0  0  0  0  0  0  0  0  0  0  # atno 8010 bound_to 7997
  139.6266  144.7109  151.2520 H   0  0  0  0  0  0  0  0  0  0  0  0  # atno 10167 bound_to 10162
  156.1023  130.4184  150.0790 H   0  0  0  0  0  0  0  0  0  0  0  0  # atno 10718 bound_to 10713
  152.9786  135.5835  154.4468 H   0  0  0  0  0  0  0  0  0  0  0  0  # atno 10763 bound_to 10752
  154.4062  135.2769  155.2068 H   0  0  0  0  0  0  0  0  0  0  0  0  # atno 10764 bound_to 10752
  154.3877  135.6132  153.5880 H   0  0  0  0  0  0  0  0  0  0  0  0  # atno 10765 bound_to 10752
  141.0856  133.9144  157.2192 H   0  0  0  0  0  0  0  0  0  0  0  0  # atno 11005 bound_to 11000
  145.6675  139.1593  143.2773 LP  0  0  0  0  0  0  0  0  0  0  0  0  # atno 17320 bound_to 7965
  146.1637  140.6750  142.9265 LP  0  0  0  0  0  0  0  0  0  0  0  0  # atno 17321 bound_to 7965
  140.7414  143.6556  150.8209 LP  0  0  0  0  0  0  0  0  0  0  0  0  # atno 17342 bound_to 10162
  140.0175  143.5577  152.2814 LP  0  0  0  0  0  0  0  0  0  0  0  0  # atno 17343 bound_to 10162
  156.8774  130.9545  151.3603 LP  0  0  0  0  0  0  0  0  0  0  0  0  # atno 17370 bound_to 10713
  157.6195  130.8644  149.9084 LP  0  0  0  0  0  0  0  0  0  0  0  0  # atno 17371 bound_to 10713
  139.9674  135.0138  156.9424 LP  0  0  0  0  0  0  0  0  0  0  0  0  # atno 17394 bound_to 11000
  140.5369  134.0758  155.7331 LP  0  0  0  0  0  0  0  0  0  0  0  0  # atno 17395 bound_to 11000

$$$$
