AV-unprocessed.smi:278|AV-procd|sdf|2089|dock2
  -GOLD-   2262021363D 1   1.00000     0.00000
 Structure written by MMmdl.
 50 54  0  0  0  0  0  0  0  0  1 V2000
  149.6667  143.3207  159.7632 O   0  0  0  0  0  0  0  0  0  0  0  0
  150.8581  144.1617  159.5685 S   0  0  0  0  0  0  0  0  0  0  0  0
  150.7359  145.6070  159.3258 O   0  0  0  0  0  0  0  0  0  0  0  0
  152.0290  143.8591  160.9340 C   0  0  0  0  0  0  0  0  0  0  0  0
  152.6800  142.5141  160.5893 C   0  0  0  0  0  0  0  0  0  0  0  0
  152.8417  142.3932  159.0521 C   0  0  1  0  0  0  0  0  0  0  0  0
  152.4253  141.0341  158.4776 C   0  0  0  0  0  0  0  0  0  0  0  0
  151.9019  141.3211  157.1514 N   0  0  0  0  0  0  0  0  0  0  0  0
  151.2028  140.3162  156.5818 C   0  0  0  0  0  0  0  0  0  0  0  0
  150.7693  140.5155  155.3132 N   0  0  0  0  0  0  0  0  0  0  0  0
  150.0734  139.5612  154.6870 C   0  0  0  0  0  0  0  0  0  0  0  0
  149.7108  138.3584  155.1385 N   0  0  0  0  0  0  0  0  0  0  0  0
  150.1458  138.1567  156.4155 C   0  0  0  0  0  0  0  0  0  0  0  0
  150.8929  139.0740  157.2065 C   0  0  0  0  0  0  0  0  0  0  0  0
  151.1557  138.5182  158.4535 N   0  0  0  0  0  0  0  0  0  0  0  0
  150.5940  137.3411  158.4030 C   0  0  0  0  0  0  0  0  0  0  0  0
  149.9645  137.0432  157.2155 N   0  0  0  0  0  0  0  0  0  0  0  0
  149.2646  135.8153  156.8816 C   0  0  0  0  0  0  0  0  0  0  0  0
  149.5534  135.3449  155.4424 C   0  0  2  0  0  0  0  0  0  0  0  0
  148.7727  136.1052  154.5395 O   0  0  0  0  0  0  0  0  0  0  0  0
  149.2353  133.8516  155.2419 C   0  0  1  0  0  0  0  0  0  0  0  0
  149.4062  133.3541  153.8079 C   0  0  0  0  0  0  0  0  0  0  0  0
  149.5374  131.8575  154.0025 C   0  0  0  0  0  0  0  0  0  0  0  0
  150.1850  131.7361  155.3843 C   0  0  0  0  0  0  0  0  0  0  0  0
  150.1633  133.0428  155.9518 O   0  0  0  0  0  0  0  0  0  0  0  0
  151.2046  142.5963  157.2336 C   0  0  0  0  0  0  0  0  0  0  0  0
  151.9490  143.3998  158.3077 C   0  0  1  0  0  0  0  0  0  0  0  0
  153.8774  142.5954  158.7757 H   0  0  0  0  0  0  0  0  0  0  0  0
  152.5613  144.1857  157.8643 H   0  0  0  0  0  0  0  0  0  0  0  0
  152.7680  144.6607  160.9317 H   0  0  0  0  0  0  0  0  0  0  0  0
  151.5070  143.8573  161.8908 H   0  0  0  0  0  0  0  0  0  0  0  0
  153.6329  142.3882  161.1037 H   0  0  0  0  0  0  0  0  0  0  0  0
  152.0254  141.7226  160.9558 H   0  0  0  0  0  0  0  0  0  0  0  0
  153.2709  140.3477  158.4250 H   0  0  0  0  0  0  0  0  0  0  0  0
  151.6559  140.5689  159.0940 H   0  0  0  0  0  0  0  0  0  0  0  0
  149.7627  139.7951  153.6794 H   0  0  0  0  0  0  0  0  0  0  0  0
  150.6219  136.6550  159.2370 H   0  0  0  0  0  0  0  0  0  0  0  0
  149.5680  135.0510  157.5980 H   0  0  0  0  0  0  0  0  0  0  0  0
  148.1946  135.9708  157.0266 H   0  0  0  0  0  0  0  0  0  0  0  0
  150.6043  135.5220  155.2092 H   0  0  0  0  0  0  0  0  0  0  0  0
  149.0219  135.8723  153.6582 H   0  0  0  0  0  0  0  0  0  0  0  0
  148.2290  133.6208  155.5970 H   0  0  0  0  0  0  0  0  0  0  0  0
  148.5731  133.6257  153.1588 H   0  0  0  0  0  0  0  0  0  0  0  0
  150.3230  133.7544  153.3727 H   0  0  0  0  0  0  0  0  0  0  0  0
  148.5500  131.3943  154.0129 H   0  0  0  0  0  0  0  0  0  0  0  0
  150.1250  131.3823  153.2167 H   0  0  0  0  0  0  0  0  0  0  0  0
  149.6324  131.0405  156.0166 H   0  0  0  0  0  0  0  0  0  0  0  0
  151.2158  131.3878  155.3176 H   0  0  0  0  0  0  0  0  0  0  0  0
  151.2410  143.1071  156.2711 H   0  0  0  0  0  0  0  0  0  0  0  0
  150.1546  142.4578  157.4883 H   0  0  0  0  0  0  0  0  0  0  0  0
  1  2  2  0  0  0  0
  2 27  1  0  0  0  0
  2  3  2  0  0  0  0
  2  4  1  0  0  0  0
  4  5  1  0  0  0  0
  4 30  1  0  0  0  0
  4 31  1  0  0  0  0
  5  6  1  0  0  0  0
  5 32  1  0  0  0  0
  5 33  1  0  0  0  0
  6 28  1  0  0  0  0
  6 27  1  0  0  0  0
  6  7  1  0  0  0  0
  7  8  1  0  0  0  0
  7 34  1  0  0  0  0
  7 35  1  0  0  0  0
  8  9  1  0  0  0  0
  8 26  1  0  0  0  0
  9 14  1  0  0  0  0
  9 10  2  0  0  0  0
 10 11  1  0  0  0  0
 11 12  2  0  0  0  0
 11 36  1  0  0  0  0
 12 13  1  0  0  0  0
 13 17  1  0  0  0  0
 13 14  2  0  0  0  0
 14 15  1  0  0  0  0
 15 16  2  0  0  0  0
 16 17  1  0  0  0  0
 16 37  1  0  0  0  0
 17 18  1  0  0  0  0
 18 19  1  0  0  0  0
 18 38  1  0  0  0  0
 18 39  1  0  0  0  0
 19 20  1  0  0  0  0
 19 21  1  0  0  0  0
 19 40  1  0  0  0  0
 20 41  1  0  0  0  0
 21 25  1  0  0  0  0
 21 22  1  0  0  0  0
 21 42  1  0  0  0  0
 22 23  1  0  0  0  0
 22 43  1  0  0  0  0
 22 44  1  0  0  0  0
 23 24  1  0  0  0  0
 23 45  1  0  0  0  0
 23 46  1  0  0  0  0
 24 25  1  0  0  0  0
 24 47  1  0  0  0  0
 24 48  1  0  0  0  0
 26 27  1  0  0  0  0
 26 49  1  0  0  0  0
 26 50  1  0  0  0  0
 27 29  1  0  0  0  0
M  END
> <s_m_source_file>
AV-unprocessed.smi

> <i_m_source_file_index>
278

> <i_lp_mmshare_version>
43012

> <i_f3d_flags>
0

> <s_epik_input>
W0NIMl0xW0NIMl1TKD1PKSg9TylbQ0BASF0oW0NAQEhdMTIpW0NIMl1OKFtDSDJdMiljKG5bY0hdbjMpYyhjMzQpbltjSF1uNFtDSDJdW0NASF0oW09IXSlbQ0BASF01W0NIMl1bQ0gyXVtDSDJdTzU=

> <s_epik_cmdline>
J2VwaWtfcHl0aG9uJywgJy1waCcsICc3LjAnLCAnLXRuJywgJzgnLCAnLW1hJywgJzIwMCcsICctbWV0YWxfYmluZGluZycsICctaW1hZScsICc8aW5maWxlLm1hZT4nLCAnLW9tYWUnLCAnPG91dGZpbGUubWFlPic=

> <r_lp_tautomer_probability>
1

> <r_epik_Ionization_Penalty>
0.000636766

> <r_epik_Ionization_Penalty_Charging>
0

> <r_epik_Ionization_Penalty_Neutral>
0.000636766

> <r_epik_State_Penalty>
0.000329976

> <r_epik_Charging_Adjusted_Penalty>
0.000329976

> <i_epik_Tot_Q>
0

> <i_epik_Tot_abs_Q>
0

> <r_epik_Metal_State_Penalty>
-0

> <b_epik_Metal_Only>
0

> <s_lp_Force_Field>
OPLS_2005

> <r_lp_Energy>
53.1939

> <b_lp_Chiralities_Consistent>
1

> <s_lp_Variant>
AV-unprocessed.smi:278-3

> <Gold.Version>
5.8.1

> <Gold.Id.Protein>
6NUR|6NUR_protein|mol2

> <Gold.PLP.Fitness>
48.7774

> <Gold.PLP.PLP>
-42.4671

> <Gold.PLP.part.hbond>
-4.7376

> <Gold.PLP.part.metal>
0.0000

> <Gold.PLP.part.buried>
-4.4719

> <Gold.PLP.part.nonpolar>
-34.3345

> <Gold.PLP.part.repulsive>
0.4759

> <Gold.PLP.ligand.clash>
0.0000

> <Gold.PLP.ligand.torsion>
0.5218

> <Gold.PLP.Chemscore.Hbond>
1.4166

> <Gold.PLP.Chemscore.CHOScore>
1.0000

> <Gold.PLP.Chemscore.Metal>
0.0000

> <Gold.Chemscore.Hbonds>
donor molecule, donor type, donor heavy atom, donor atom, acceptor molecule, acceptor atom, score
      L1  H    20    41       P1  7948  1.00
      P1  H  6933  6944       L1     1  0.08
      P1  H  7989  7998       L1    10  0.29
      L1  C    11    36       P1  7957  0.99

> <Gold.PLP.Chemscore.Internal.Correction>
0.1041

> <Gold.Rescore>
     Score         DG    S(hbond)    S(metal)    S(lipo)     H(rot)  DE(clash)    DE(int)     intcor
     11.87     -13.69       1.13        0.00      91.93       2.46       0.06       1.76       ----

> <Gold.Chemscore.Fitness>
11.8746

> <Gold.Chemscore.DG>
-13.6931

> <Gold.Chemscore.ZeroCoef>
-5.4800

> <Gold.Chemscore.Hbond>
1.1268

> <Gold.Chemscore.Metal>
0.0000

> <Gold.Chemscore.Lipo>
91.9348

> <Gold.Chemscore.Internal_Hbond>
0.0000

> <Gold.Chemscore.DEClash>
0.0598

> <Gold.Chemscore.DEInternal>
1.7587

> <Gold.Chemscore.Rot>
2.4636

> <Gold.Chemscore.Internal.Correction>
   9.000000E+99

> <Gold.Chemscore.Hbonds>
donor molecule, donor type, donor heavy atom, donor atom, acceptor molecule, acceptor atom, score
      L1  H    20    41       P1  7948  0.88
      P1  H  6933  6944       L1     1  0.08

> <Gold.Chemscore.Hbond.Weighted>
-3.7635

> <Gold.Chemscore.Metal.Weighted>
-0.0000

> <Gold.Chemscore.Lipo.Weighted>
-10.7564

> <Gold.Chemscore.Internal_Hbond.Weighted>
0.0000

> <Gold.Chemscore.DEClash.Weighted>
0.0598

> <Gold.Chemscore.DEInternal.Weighted>
1.7587

> <Gold.Chemscore.Rot.Weighted>
6.3068

> <Gold.Chemscore.Internal.Correction.Weighted>
   9.000000E+99

> <Gold.Protein.RotatedTorsions>
[ 6907 6896 6895 6894 ] final   56.16 input  -60.11 | X-H torsion
[ 7974 7965 7964 7962 ] final -170.11 input  175.53 | X-H torsion
[ 8008 7997 7996 7995 ] final  -46.89 input   59.86 | X-H torsion
[ 10167 10162 10161 10158 ] final  -86.47 input  -65.29 | X-H torsion
[ 10718 10713 10712 10709 ] final  120.97 input   66.30 | X-H torsion
[ 10763 10752 10751 10750 ] final  -56.18 input  -60.55 | X-H torsion
[ 11005 11000 10999 10996 ] final  115.38 input  -57.11 | X-H torsion

> <Gold.Protein.ActiveResidues>
 VAL166  LYS551  ARG553  GLY616  TRP617  ASP618  TYR619  PRO620  LYS621  CYS622 
 ASP623  PHE694  ASN695  SER759  ASP760  ASP761  ALA762  ILE779  LEU786  VAL792 
 PHE793  MET794  SER795  GLU796  ALA797  LYS798  CYS799  TRP800  GLU811  SER814 

> <Gold.Protein.RotatedAtoms>
  152.3609  134.6873  160.0207 H   0  0  0  0  0  0  0  0  0  0  0  0  # atno 6907 bound_to 6896
  151.7197  133.3309  159.3320 H   0  0  0  0  0  0  0  0  0  0  0  0  # atno 6908 bound_to 6896
  150.7604  134.6393  159.6273 H   0  0  0  0  0  0  0  0  0  0  0  0  # atno 6909 bound_to 6896
  144.7175  140.2121  143.6326 H   0  0  0  0  0  0  0  0  0  0  0  0  # atno 7974 bound_to 7965
  154.4011  140.1360  156.4086 H   0  0  0  0  0  0  0  0  0  0  0  0  # atno 8008 bound_to 7997
  155.7755  140.3483  155.5249 H   0  0  0  0  0  0  0  0  0  0  0  0  # atno 8009 bound_to 7997
  155.8725  140.0974  157.1531 H   0  0  0  0  0  0  0  0  0  0  0  0  # atno 8010 bound_to 7997
  140.3938  143.2693  151.9231 H   0  0  0  0  0  0  0  0  0  0  0  0  # atno 10167 bound_to 10162
  157.5852  131.1070  150.8109 H   0  0  0  0  0  0  0  0  0  0  0  0  # atno 10718 bound_to 10713
  154.2026  135.6408  153.5091 H   0  0  0  0  0  0  0  0  0  0  0  0  # atno 10763 bound_to 10752
  153.0008  135.5455  154.6299 H   0  0  0  0  0  0  0  0  0  0  0  0  # atno 10764 bound_to 10752
  154.5716  135.2917  155.0795 H   0  0  0  0  0  0  0  0  0  0  0  0  # atno 10765 bound_to 10752
  139.9008  134.9583  156.7036 H   0  0  0  0  0  0  0  0  0  0  0  0  # atno 11005 bound_to 11000
  145.8581  139.2209  143.1733 LP  0  0  0  0  0  0  0  0  0  0  0  0  # atno 17320 bound_to 7965
  146.0199  140.8358  142.9928 LP  0  0  0  0  0  0  0  0  0  0  0  0  # atno 17321 bound_to 7965
  139.4787  144.5701  151.8101 LP  0  0  0  0  0  0  0  0  0  0  0  0  # atno 17342 bound_to 10162
  140.4812  144.1447  150.5933 LP  0  0  0  0  0  0  0  0  0  0  0  0  # atno 17343 bound_to 10162
  156.8545  130.5092  149.5309 LP  0  0  0  0  0  0  0  0  0  0  0  0  # atno 17370 bound_to 10713
  156.0900  130.5889  150.9717 LP  0  0  0  0  0  0  0  0  0  0  0  0  # atno 17371 bound_to 10713
  140.7131  133.9206  155.8097 LP  0  0  0  0  0  0  0  0  0  0  0  0  # atno 17394 bound_to 11000
  141.0285  134.0789  157.4041 LP  0  0  0  0  0  0  0  0  0  0  0  0  # atno 17395 bound_to 11000

$$$$
