AV-unprocessed.smi:2374|AV-procd|sdf|9441|dock5
  -GOLD-   2272013 73D 1   1.00000     0.00000
 Structure written by MMmdl.
 38 39  0  0  0  0  0  0  0  0  1 V2000
  150.4266  135.2416  156.5392 C   0  0  0  0  0  0  0  0  0  0  0  0
  150.3857  133.7574  156.3126 C   0  0  0  0  0  0  0  0  0  0  0  0
  150.7255  132.9398  157.2948 N   0  0  0  0  0  0  0  0  0  0  0  0
  150.5973  131.6465  156.7790 O   0  0  0  0  0  0  0  0  0  0  0  0
  150.1834  131.7378  155.4896 C   0  0  0  0  0  0  0  0  0  0  0  0
  149.9923  130.4559  154.7520 C   0  0  0  0  0  0  0  0  0  0  0  0
  150.0281  133.0478  155.1294 C   0  0  0  0  0  0  0  0  0  0  0  0
  149.5931  133.6077  153.7998 C   0  0  0  0  0  0  0  0  0  0  0  0
  148.1240  133.2631  153.5610 C   0  0  0  0  0  0  0  0  0  0  0  0
  147.6158  132.3038  154.1398 O   0  0  0  0  0  0  0  0  0  0  0  0
  147.4644  134.0461  152.6913 N   0  0  0  0  0  0  0  0  0  0  0  0
  146.0780  133.8981  152.2460 C   0  0  0  0  0  0  0  0  0  0  0  0
  145.1336  134.2351  153.3303 C   0  0  0  0  0  0  0  0  0  0  0  0
  144.3943  134.5002  154.1803 N   0  0  0  0  0  0  0  0  0  0  0  0
  145.8738  134.8748  151.0656 C   0  0  0  0  0  0  0  0  0  0  0  0
  144.4920  134.7203  150.4074 C   0  0  0  0  0  0  0  0  0  0  0  0
  144.2657  133.2770  149.9361 C   0  0  0  0  0  0  0  0  0  0  0  0
  144.4600  132.2798  151.0871 C   0  0  0  0  0  0  0  0  0  0  0  0
  145.8403  132.4513  151.7440 C   0  0  0  0  0  0  0  0  0  0  0  0
  151.3540  135.6675  156.1557 H   0  0  0  0  0  0  0  0  0  0  0  0
  150.3609  135.4886  157.5994 H   0  0  0  0  0  0  0  0  0  0  0  0
  149.5986  135.7393  156.0343 H   0  0  0  0  0  0  0  0  0  0  0  0
  150.3793  129.6111  155.3223 H   0  0  0  0  0  0  0  0  0  0  0  0
  150.5119  130.4821  153.7939 H   0  0  0  0  0  0  0  0  0  0  0  0
  148.9345  130.2778  154.5580 H   0  0  0  0  0  0  0  0  0  0  0  0
  149.7104  134.6916  153.7672 H   0  0  0  0  0  0  0  0  0  0  0  0
  150.1988  133.2154  152.9822 H   0  0  0  0  0  0  0  0  0  0  0  0
  147.9807  134.8093  152.2790 H   0  0  0  0  0  0  0  0  0  0  0  0
  146.0001  135.9035  151.4060 H   0  0  0  0  0  0  0  0  0  0  0  0
  146.6442  134.7080  150.3105 H   0  0  0  0  0  0  0  0  0  0  0  0
  143.7098  135.0042  151.1123 H   0  0  0  0  0  0  0  0  0  0  0  0
  144.4058  135.4036  149.5621 H   0  0  0  0  0  0  0  0  0  0  0  0
  143.2635  133.1738  149.5190 H   0  0  0  0  0  0  0  0  0  0  0  0
  144.9620  133.0428  149.1299 H   0  0  0  0  0  0  0  0  0  0  0  0
  143.6756  132.4210  151.8316 H   0  0  0  0  0  0  0  0  0  0  0  0
  144.3508  131.2605  150.7160 H   0  0  0  0  0  0  0  0  0  0  0  0
  146.6130  132.1804  151.0227 H   0  0  0  0  0  0  0  0  0  0  0  0
  145.9317  131.7415  152.5667 H   0  0  0  0  0  0  0  0  0  0  0  0
  1  2  1  0  0  0  0
  1 20  1  0  0  0  0
  1 21  1  0  0  0  0
  1 22  1  0  0  0  0
  2  7  1  0  0  0  0
  2  3  2  0  0  0  0
  3  4  1  0  0  0  0
  4  5  1  0  0  0  0
  5  6  1  0  0  0  0
  5  7  2  0  0  0  0
  6 23  1  0  0  0  0
  6 24  1  0  0  0  0
  6 25  1  0  0  0  0
  7  8  1  0  0  0  0
  8  9  1  0  0  0  0
  8 26  1  0  0  0  0
  8 27  1  0  0  0  0
  9 10  2  0  0  0  0
  9 11  1  0  0  0  0
 11 12  1  0  0  0  0
 11 28  1  0  0  0  0
 12 19  1  0  0  0  0
 12 13  1  0  0  0  0
 12 15  1  0  0  0  0
 13 14  3  0  0  0  0
 15 16  1  0  0  0  0
 15 29  1  0  0  0  0
 15 30  1  0  0  0  0
 16 17  1  0  0  0  0
 16 31  1  0  0  0  0
 16 32  1  0  0  0  0
 17 18  1  0  0  0  0
 17 33  1  0  0  0  0
 17 34  1  0  0  0  0
 18 19  1  0  0  0  0
 18 35  1  0  0  0  0
 18 36  1  0  0  0  0
 19 37  1  0  0  0  0
 19 38  1  0  0  0  0
M  END
> <s_m_source_file>
AV-unprocessed.smi

> <i_m_source_file_index>
2374

> <i_lp_mmshare_version>
43012

> <i_f3d_flags>
0

> <s_epik_input>
W0NIM11jMW5vYyhbQ0gzXSljMVtDSDJdQyg9TylbTkhdQzIoQyNOKVtDSDJdW0NIMl1bQ0gyXVtDSDJdW0NIMl0y

> <s_epik_cmdline>
J2VwaWtfcHl0aG9uJywgJy1waCcsICc3LjAnLCAnLXRuJywgJzgnLCAnLW1hJywgJzIwMCcsICctbWV0YWxfYmluZGluZycsICctaW1hZScsICc8aW5maWxlLm1hZT4nLCAnLW9tYWUnLCAnPG91dGZpbGUubWFlPic=

> <r_lp_tautomer_probability>
1

> <r_epik_Ionization_Penalty>
5.32351e-07

> <r_epik_Ionization_Penalty_Charging>
0

> <r_epik_Ionization_Penalty_Neutral>
5.32351e-07

> <r_epik_State_Penalty>
-0

> <r_epik_Charging_Adjusted_Penalty>
0

> <i_epik_Tot_Q>
0

> <i_epik_Tot_abs_Q>
0

> <r_epik_Metal_State_Penalty>
-0

> <b_epik_Metal_Only>
0

> <s_lp_Force_Field>
OPLS_2005

> <r_lp_Energy>
1.24433

> <b_lp_Chiralities_Consistent>
1

> <s_lp_Variant>
AV-unprocessed.smi:2374-1

> <Gold.Version>
5.8.1

> <Gold.Id.Protein>
6NUR|6NUR_protein|mol2

> <Gold.PLP.Fitness>
36.7890

> <Gold.PLP.PLP>
-31.8235

> <Gold.PLP.part.hbond>
-2.0000

> <Gold.PLP.part.metal>
0.0000

> <Gold.PLP.part.buried>
-4.9871

> <Gold.PLP.part.nonpolar>
-24.9735

> <Gold.PLP.part.repulsive>
0.1417

> <Gold.PLP.ligand.clash>
0.0000

> <Gold.PLP.ligand.torsion>
0.5199

> <Gold.PLP.Chemscore.Hbond>
2.0000

> <Gold.PLP.Chemscore.CHOScore>
0.0000

> <Gold.PLP.Chemscore.Metal>
0.0000

> <Gold.Chemscore.Hbonds>
donor molecule, donor type, donor heavy atom, donor atom, acceptor molecule, acceptor atom, score
      L1  H    11    28       P1  7948  1.00
      P1  H  6896  6907       L1     3  1.00

> <Gold.PLP.Chemscore.Internal.Correction>
0.0053

> <Gold.Rescore>
     Score         DG    S(hbond)    S(metal)    S(lipo)     H(rot)  DE(clash)    DE(int)     intcor
     14.23     -15.58       1.88        0.00      63.31       1.40       0.04       1.32       ----

> <Gold.Chemscore.Fitness>
14.2287

> <Gold.Chemscore.DG>
-15.5836

> <Gold.Chemscore.ZeroCoef>
-5.4800

> <Gold.Chemscore.Hbond>
1.8810

> <Gold.Chemscore.Metal>
0.0000

> <Gold.Chemscore.Lipo>
63.3110

> <Gold.Chemscore.Internal_Hbond>
0.0000

> <Gold.Chemscore.DEClash>
0.0398

> <Gold.Chemscore.DEInternal>
1.3151

> <Gold.Chemscore.Rot>
1.4009

> <Gold.Chemscore.Internal.Correction>
   9.000000E+99

> <Gold.Chemscore.Hbonds>
donor molecule, donor type, donor heavy atom, donor atom, acceptor molecule, acceptor atom, score
      L1  H    11    28       P1  7948  0.60
      P1  H  6896  6907       L1     3  0.91

> <Gold.Chemscore.Hbond.Weighted>
-6.2825

> <Gold.Chemscore.Metal.Weighted>
-0.0000

> <Gold.Chemscore.Lipo.Weighted>
-7.4074

> <Gold.Chemscore.Internal_Hbond.Weighted>
0.0000

> <Gold.Chemscore.DEClash.Weighted>
0.0398

> <Gold.Chemscore.DEInternal.Weighted>
1.3151

> <Gold.Chemscore.Rot.Weighted>
3.5863

> <Gold.Chemscore.Internal.Correction.Weighted>
   9.000000E+99

> <Gold.Protein.RotatedTorsions>
[ 6907 6896 6895 6894 ] final -141.23 input  -60.11 | X-H torsion
[ 7974 7965 7964 7962 ] final  -86.17 input  175.53 | X-H torsion
[ 8008 7997 7996 7995 ] final -131.82 input   59.86 | X-H torsion
[ 10167 10162 10161 10158 ] final -148.69 input  -65.29 | X-H torsion
[ 10718 10713 10712 10709 ] final  -16.80 input   66.30 | X-H torsion
[ 10763 10752 10751 10750 ] final  -75.42 input  -60.55 | X-H torsion
[ 11005 11000 10999 10996 ] final   15.44 input  -57.11 | X-H torsion

> <Gold.Protein.ActiveResidues>
 VAL166  LYS551  ARG553  GLY616  TRP617  ASP618  TYR619  PRO620  LYS621  CYS622 
 ASP623  PHE694  ASN695  SER759  ASP760  ASP761  ALA762  ILE779  LEU786  VAL792 
 PHE793  MET794  SER795  GLU796  ALA797  LYS798  CYS799  TRP800  GLU811  SER814 

> <Gold.Protein.RotatedAtoms>
  151.0711  133.5465  159.2626 H   0  0  0  0  0  0  0  0  0  0  0  0  # atno 6907 bound_to 6896
  151.2404  135.0586  159.9032 H   0  0  0  0  0  0  0  0  0  0  0  0  # atno 6908 bound_to 6896
  152.5411  134.0487  159.8154 H   0  0  0  0  0  0  0  0  0  0  0  0  # atno 6909 bound_to 6896
  145.4834  140.9556  143.1852 H   0  0  0  0  0  0  0  0  0  0  0  0  # atno 7974 bound_to 7965
  155.3186  140.0461  157.3038 H   0  0  0  0  0  0  0  0  0  0  0  0  # atno 8008 bound_to 7997
  154.5392  140.2282  155.8636 H   0  0  0  0  0  0  0  0  0  0  0  0  # atno 8009 bound_to 7997
  156.1865  140.3061  155.9254 H   0  0  0  0  0  0  0  0  0  0  0  0  # atno 8010 bound_to 7997
  139.7509  143.8520  152.2586 H   0  0  0  0  0  0  0  0  0  0  0  0  # atno 10167 bound_to 10162
  156.5825  130.4778  149.6314 H   0  0  0  0  0  0  0  0  0  0  0  0  # atno 10718 bound_to 10713
  154.4863  135.5832  153.6426 H   0  0  0  0  0  0  0  0  0  0  0  0  # atno 10763 bound_to 10752
  152.9855  135.6102  154.3183 H   0  0  0  0  0  0  0  0  0  0  0  0  # atno 10764 bound_to 10752
  154.3078  135.2845  155.2560 H   0  0  0  0  0  0  0  0  0  0  0  0  # atno 10765 bound_to 10752
  140.4583  134.1153  155.7712 H   0  0  0  0  0  0  0  0  0  0  0  0  # atno 11005 bound_to 11000
  144.7875  139.6396  143.7127 LP  0  0  0  0  0  0  0  0  0  0  0  0  # atno 17320 bound_to 7965
  146.2327  139.5845  142.9544 LP  0  0  0  0  0  0  0  0  0  0  0  0  # atno 17321 bound_to 7965
  139.8498  144.7170  150.9228 LP  0  0  0  0  0  0  0  0  0  0  0  0  # atno 17342 bound_to 10162
  140.7797  143.3909  151.1311 LP  0  0  0  0  0  0  0  0  0  0  0  0  # atno 17343 bound_to 10162
  156.2619  130.6967  151.1738 LP  0  0  0  0  0  0  0  0  0  0  0  0  # atno 17370 bound_to 10713
  157.7323  131.0601  150.5635 LP  0  0  0  0  0  0  0  0  0  0  0  0  # atno 17371 bound_to 10713
  141.1633  133.8752  157.1787 LP  0  0  0  0  0  0  0  0  0  0  0  0  # atno 17394 bound_to 11000
  139.9962  135.0046  157.0087 LP  0  0  0  0  0  0  0  0  0  0  0  0  # atno 17395 bound_to 11000

$$$$
