AV-unprocessed.smi:2767|AV-procd|sdf|10647|dock7
  -GOLD-   2272015 93D 1   1.00000     0.00000
 Structure written by MMmdl.
 34 36  0  0  0  0  0  0  0  0  1 V2000
  150.9782  140.8628  156.7074 O   0  0  0  0  0  0  0  0  0  0  0  0
  150.4281  141.9544  156.5588 C   0  0  0  0  0  0  0  0  0  0  0  0
  149.6580  142.2565  155.5040 N   0  0  0  0  0  0  0  0  0  0  0  0
  149.3324  141.3386  154.4184 C   0  0  0  0  0  0  0  0  0  0  0  0
  147.8754  140.8991  154.3390 C   0  0  0  0  0  0  0  0  0  0  0  0
  147.6668  139.4044  154.1088 C   0  0  0  0  0  0  0  0  0  0  0  0
  147.1578  138.9081  152.7754 C   0  0  0  0  0  0  0  0  0  0  0  0
  146.3104  138.7362  154.0134 C   0  0  0  0  0  0  0  0  0  0  0  0
  146.8985  141.5822  155.2757 C   0  0  0  0  0  0  0  0  0  0  0  0
  146.8753  141.9151  153.8088 C   0  0  0  0  0  0  0  0  0  0  0  0
  150.5054  142.9877  157.4159 N   0  0  0  0  0  0  0  0  0  0  0  0
  151.1875  143.0474  158.6603 C   0  0  0  0  0  0  0  0  0  0  0  0
  151.0381  144.2628  159.3663 C   0  0  0  0  0  0  0  0  0  0  0  0
  151.6724  144.4226  160.6137 C   0  0  0  0  0  0  0  0  0  0  0  0
  152.4409  143.3603  161.1218 C   0  0  0  0  0  0  0  0  0  0  0  0
  153.0695  143.4676  162.3164 F   0  0  0  0  0  0  0  0  0  0  0  0
  152.5393  142.1835  160.3567 C   0  0  0  0  0  0  0  0  0  0  0  0
  151.9315  142.0291  159.1611 N   0  0  0  0  0  0  0  0  0  0  0  0
  149.2462  143.1770  155.4604 H   0  0  0  0  0  0  0  0  0  0  0  0
  149.5830  141.8412  153.4839 H   0  0  0  0  0  0  0  0  0  0  0  0
  149.9845  140.4649  154.4714 H   0  0  0  0  0  0  0  0  0  0  0  0
  148.4328  138.7838  154.5701 H   0  0  0  0  0  0  0  0  0  0  0  0
  146.8372  139.6515  152.0479 H   0  0  0  0  0  0  0  0  0  0  0  0
  147.6316  138.0222  152.3579 H   0  0  0  0  0  0  0  0  0  0  0  0
  146.2210  137.7302  154.4174 H   0  0  0  0  0  0  0  0  0  0  0  0
  145.4117  139.3418  154.0953 H   0  0  0  0  0  0  0  0  0  0  0  0
  146.0710  140.9932  155.6662 H   0  0  0  0  0  0  0  0  0  0  0  0
  147.2884  142.3384  155.9542 H   0  0  0  0  0  0  0  0  0  0  0  0
  147.2525  142.8930  153.5163 H   0  0  0  0  0  0  0  0  0  0  0  0
  146.0277  141.5672  153.2247 H   0  0  0  0  0  0  0  0  0  0  0  0
  150.0036  143.8238  157.1552 H   0  0  0  0  0  0  0  0  0  0  0  0
  150.4434  145.0681  158.9599 H   0  0  0  0  0  0  0  0  0  0  0  0
  151.5703  145.3430  161.1692 H   0  0  0  0  0  0  0  0  0  0  0  0
  153.1199  141.3450  160.7118 H   0  0  0  0  0  0  0  0  0  0  0  0
  1  2  2  0  0  0  0
  2  3  1  0  0  0  0
  2 11  1  0  0  0  0
  3  4  1  0  0  0  0
  3 19  1  0  0  0  0
  4  5  1  0  0  0  0
  4 20  1  0  0  0  0
  4 21  1  0  0  0  0
  5 10  1  0  0  0  0
  5  6  1  0  0  0  0
  5  9  1  0  0  0  0
  6  8  1  0  0  0  0
  6  7  1  0  0  0  0
  6 22  1  0  0  0  0
  7  8  1  0  0  0  0
  7 23  1  0  0  0  0
  7 24  1  0  0  0  0
  8 25  1  0  0  0  0
  8 26  1  0  0  0  0
  9 10  1  0  0  0  0
  9 27  1  0  0  0  0
  9 28  1  0  0  0  0
 10 29  1  0  0  0  0
 10 30  1  0  0  0  0
 11 12  1  0  0  0  0
 11 31  1  0  0  0  0
 12 18  1  0  0  0  0
 12 13  2  0  0  0  0
 13 14  1  0  0  0  0
 13 32  1  0  0  0  0
 14 15  2  0  0  0  0
 14 33  1  0  0  0  0
 15 16  1  0  0  0  0
 15 17  1  0  0  0  0
 17 18  2  0  0  0  0
 17 34  1  0  0  0  0
M  END
> <s_m_source_file>
AV-unprocessed.smi

> <i_m_source_file_index>
2767

> <i_lp_mmshare_version>
43012

> <i_f3d_flags>
0

> <s_epik_input>
W0NIMl0xW0NIMl1bQ0hdMUMyKFtDSDJdW0NIMl0yKVtDSDJdW05IXUMoPU8pW05IXWMzW2NIXVtjSF1jKEYpW2NIXW4z

> <s_epik_cmdline>
J2VwaWtfcHl0aG9uJywgJy1waCcsICc3LjAnLCAnLXRuJywgJzgnLCAnLW1hJywgJzIwMCcsICctbWV0YWxfYmluZGluZycsICctaW1hZScsICc8aW5maWxlLm1hZT4nLCAnLW9tYWUnLCAnPG91dGZpbGUubWFlPic=

> <r_lp_tautomer_probability>
1

> <r_epik_Ionization_Penalty>
3.94364e-05

> <r_epik_Ionization_Penalty_Charging>
0

> <r_epik_Ionization_Penalty_Neutral>
3.94364e-05

> <r_epik_State_Penalty>
-0

> <r_epik_Charging_Adjusted_Penalty>
0

> <i_epik_Tot_Q>
0

> <i_epik_Tot_abs_Q>
0

> <r_epik_Metal_State_Penalty>
-0

> <b_epik_Metal_Only>
0

> <s_lp_Force_Field>
OPLS_2005

> <r_lp_Energy>
31.6765

> <b_lp_Chiralities_Consistent>
1

> <s_lp_Variant>
AV-unprocessed.smi:2767-1

> <Gold.Version>
5.8.1

> <Gold.Id.Protein>
6NUR|6NUR_protein|mol2

> <Gold.PLP.Fitness>
44.0212

> <Gold.PLP.PLP>
-39.4890

> <Gold.PLP.part.hbond>
-1.9983

> <Gold.PLP.part.metal>
0.0000

> <Gold.PLP.part.buried>
-4.7556

> <Gold.PLP.part.nonpolar>
-31.5607

> <Gold.PLP.part.repulsive>
0.2201

> <Gold.PLP.ligand.clash>
0.0000

> <Gold.PLP.ligand.torsion>
1.8395

> <Gold.PLP.Chemscore.Hbond>
1.8960

> <Gold.PLP.Chemscore.CHOScore>
0.0000

> <Gold.PLP.Chemscore.Metal>
0.0000

> <Gold.Chemscore.Hbonds>
donor molecule, donor type, donor heavy atom, donor atom, acceptor molecule, acceptor atom, score
      L1  H     3    19       P1  8028  1.00
      L1  H    11    31       P1  8028  0.86

> <Gold.PLP.Chemscore.Internal.Correction>
2.5232

> <Gold.Rescore>
     Score         DG    S(hbond)    S(metal)    S(lipo)     H(rot)  DE(clash)    DE(int)     intcor
     14.91     -18.95       1.96        0.00      91.10       1.46       0.98       3.06       ----

> <Gold.Chemscore.Fitness>
14.9067

> <Gold.Chemscore.DG>
-18.9493

> <Gold.Chemscore.ZeroCoef>
-5.4800

> <Gold.Chemscore.Hbond>
1.9612

> <Gold.Chemscore.Metal>
0.0000

> <Gold.Chemscore.Lipo>
91.0980

> <Gold.Chemscore.Internal_Hbond>
0.0000

> <Gold.Chemscore.DEClash>
0.9829

> <Gold.Chemscore.DEInternal>
3.0597

> <Gold.Chemscore.Rot>
1.4608

> <Gold.Chemscore.Internal.Correction>
   9.000000E+99

> <Gold.Chemscore.Hbonds>
donor molecule, donor type, donor heavy atom, donor atom, acceptor molecule, acceptor atom, score
      L1  H     3    19       P1  8028  0.98
      L1  H    11    31       P1  8028  0.75

> <Gold.Chemscore.Hbond.Weighted>
-6.5505

> <Gold.Chemscore.Metal.Weighted>
-0.0000

> <Gold.Chemscore.Lipo.Weighted>
-10.6585

> <Gold.Chemscore.Internal_Hbond.Weighted>
0.0000

> <Gold.Chemscore.DEClash.Weighted>
0.9829

> <Gold.Chemscore.DEInternal.Weighted>
3.0597

> <Gold.Chemscore.Rot.Weighted>
3.7396

> <Gold.Chemscore.Internal.Correction.Weighted>
   9.000000E+99

> <Gold.Protein.RotatedTorsions>
[ 6907 6896 6895 6894 ] final  133.31 input  -60.11 | X-H torsion
[ 7974 7965 7964 7962 ] final  -39.69 input  175.53 | X-H torsion
[ 8008 7997 7996 7995 ] final   38.75 input   59.86 | X-H torsion
[ 10167 10162 10161 10158 ] final -173.35 input  -65.29 | X-H torsion
[ 10718 10713 10712 10709 ] final  -48.82 input   66.30 | X-H torsion
[ 10763 10752 10751 10750 ] final -127.85 input  -60.55 | X-H torsion
[ 11005 11000 10999 10996 ] final -102.88 input  -57.11 | X-H torsion

> <Gold.Protein.ActiveResidues>
 VAL166  LYS551  ARG553  GLY616  TRP617  ASP618  TYR619  PRO620  LYS621  CYS622 
 ASP623  PHE694  ASN695  SER759  ASP760  ASP761  ALA762  ILE779  LEU786  VAL792 
 PHE793  MET794  SER795  GLU796  ALA797  LYS798  CYS799  TRP800  GLU811  SER814 

> <Gold.Protein.RotatedAtoms>
  152.3233  133.5877  159.5758 H   0  0  0  0  0  0  0  0  0  0  0  0  # atno 6907 bound_to 6896
  150.7383  133.9979  159.3637 H   0  0  0  0  0  0  0  0  0  0  0  0  # atno 6908 bound_to 6896
  151.7861  135.0749  160.0431 H   0  0  0  0  0  0  0  0  0  0  0  0  # atno 6909 bound_to 6896
  146.0373  140.6654  142.9104 H   0  0  0  0  0  0  0  0  0  0  0  0  # atno 7974 bound_to 7965
  155.2253  140.3334  155.4310 H   0  0  0  0  0  0  0  0  0  0  0  0  # atno 8008 bound_to 7997
  156.2317  140.1853  156.7273 H   0  0  0  0  0  0  0  0  0  0  0  0  # atno 8009 bound_to 7997
  154.5989  140.0626  156.9326 H   0  0  0  0  0  0  0  0  0  0  0  0  # atno 8010 bound_to 7997
  139.5693  144.1680  152.1360 H   0  0  0  0  0  0  0  0  0  0  0  0  # atno 10167 bound_to 10162
  156.1951  130.4154  149.9317 H   0  0  0  0  0  0  0  0  0  0  0  0  # atno 10718 bound_to 10713
  154.8754  135.3948  154.3661 H   0  0  0  0  0  0  0  0  0  0  0  0  # atno 10763 bound_to 10752
  153.4427  135.7027  153.6164 H   0  0  0  0  0  0  0  0  0  0  0  0  # atno 10764 bound_to 10752
  153.4738  135.3784  155.2374 H   0  0  0  0  0  0  0  0  0  0  0  0  # atno 10765 bound_to 10752
  141.1170  133.8594  157.1415 H   0  0  0  0  0  0  0  0  0  0  0  0  # atno 11005 bound_to 11000
  144.7058  140.3844  143.7119 LP  0  0  0  0  0  0  0  0  0  0  0  0  # atno 17320 bound_to 7965
  145.6942  139.1646  143.2629 LP  0  0  0  0  0  0  0  0  0  0  0  0  # atno 17321 bound_to 7965
  140.1209  144.5374  150.6863 LP  0  0  0  0  0  0  0  0  0  0  0  0  # atno 17342 bound_to 10162
  140.6977  143.2414  151.4953 LP  0  0  0  0  0  0  0  0  0  0  0  0  # atno 17343 bound_to 10162
  156.7045  130.8946  151.3603 LP  0  0  0  0  0  0  0  0  0  0  0  0  # atno 17370 bound_to 10713
  157.6953  130.9275  150.0626 LP  0  0  0  0  0  0  0  0  0  0  0  0  # atno 17371 bound_to 10713
  140.0099  134.9992  157.0373 LP  0  0  0  0  0  0  0  0  0  0  0  0  # atno 17394 bound_to 11000
  140.4617  134.1477  155.7192 LP  0  0  0  0  0  0  0  0  0  0  0  0  # atno 17395 bound_to 11000

$$$$
