AV-unprocessed.smi:848|AV-procd|sdf|3940|dock1
  -GOLD-   22720 1403D 1   1.00000     0.00000
 Structure written by MMmdl.
 46 48  0  0  0  0  0  0  0  0  1 V2000
  143.7515  143.5339  162.5318 C   0  0  0  0  0  0  0  0  0  0  0  0
  144.9234  143.5788  161.5729 C   0  0  0  0  0  0  0  0  0  0  0  0
  146.0046  144.4506  161.8108 C   0  0  0  0  0  0  0  0  0  0  0  0
  147.0891  144.4918  160.9128 C   0  0  0  0  0  0  0  0  0  0  0  0
  148.2557  145.4233  161.1702 C   0  0  0  0  0  0  0  0  0  0  0  0
  147.0879  143.6582  159.7763 C   0  0  0  0  0  0  0  0  0  0  0  0
  146.0145  142.7798  159.5235 C   0  0  0  0  0  0  0  0  0  0  0  0
  146.0972  142.0049  158.3867 O   0  0  0  0  0  0  0  0  0  0  0  0
  147.1513  142.2629  157.4672 C   0  0  0  0  0  0  0  0  0  0  0  0
  148.3617  141.3692  157.7858 C   0  0  1  0  0  0  0  0  0  0  0  0
  147.9338  140.0254  157.8862 O   0  0  0  0  0  0  0  0  0  0  0  0
  149.5290  141.5220  156.7889 C   0  0  0  0  0  0  0  0  0  0  0  0
  150.8143  141.1749  157.3808 N   0  0  0  0  0  0  0  0  0  0  0  0
  151.6184  140.1197  157.0935 C   0  0  0  0  0  0  0  0  0  0  0  0
  151.2470  139.1110  156.0434 C   0  0  0  0  0  0  0  0  0  0  0  0
  151.0785  139.6610  154.7523 O   0  0  0  0  0  0  0  0  0  0  0  0
  152.7522  140.0527  157.7962 N   0  0  0  0  0  0  0  0  0  0  0  0
  152.6728  141.1614  158.6148 C   0  0  0  0  0  0  0  0  0  0  0  0
  153.5679  141.6463  159.5950 C   0  0  0  0  0  0  0  0  0  0  0  0
  153.2696  142.8218  160.3151 C   0  0  0  0  0  0  0  0  0  0  0  0
  152.0747  143.5275  160.0659 C   0  0  0  0  0  0  0  0  0  0  0  0
  151.1690  143.0612  159.0937 C   0  0  0  0  0  0  0  0  0  0  0  0
  151.4717  141.8872  158.3783 C   0  0  0  0  0  0  0  0  0  0  0  0
  144.9291  142.7460  160.4352 C   0  0  0  0  0  0  0  0  0  0  0  0
  143.9310  144.1548  163.4099 H   0  0  0  0  0  0  0  0  0  0  0  0
  143.5756  142.5121  162.8686 H   0  0  0  0  0  0  0  0  0  0  0  0
  142.8479  143.8936  162.0389 H   0  0  0  0  0  0  0  0  0  0  0  0
  146.0035  145.0888  162.6827 H   0  0  0  0  0  0  0  0  0  0  0  0
  148.6931  145.7675  160.2326 H   0  0  0  0  0  0  0  0  0  0  0  0
  149.0279  144.9073  161.7412 H   0  0  0  0  0  0  0  0  0  0  0  0
  147.9381  146.2999  161.7357 H   0  0  0  0  0  0  0  0  0  0  0  0
  147.9203  143.6895  159.0882 H   0  0  0  0  0  0  0  0  0  0  0  0
  146.8014  142.0357  156.4588 H   0  0  0  0  0  0  0  0  0  0  0  0
  147.4454  143.3138  157.4870 H   0  0  0  0  0  0  0  0  0  0  0  0
  148.7184  141.6428  158.7794 H   0  0  0  0  0  0  0  0  0  0  0  0
  148.4584  139.4982  157.3031 H   0  0  0  0  0  0  0  0  0  0  0  0
  149.3645  140.9156  155.8984 H   0  0  0  0  0  0  0  0  0  0  0  0
  149.5852  142.5545  156.4424 H   0  0  0  0  0  0  0  0  0  0  0  0
  152.0183  138.3438  155.9847 H   0  0  0  0  0  0  0  0  0  0  0  0
  150.3195  138.6198  156.3379 H   0  0  0  0  0  0  0  0  0  0  0  0
  150.6275  139.0295  154.2136 H   0  0  0  0  0  0  0  0  0  0  0  0
  154.4859  141.1127  159.7923 H   0  0  0  0  0  0  0  0  0  0  0  0
  153.9614  143.1833  161.0619 H   0  0  0  0  0  0  0  0  0  0  0  0
  151.8545  144.4274  160.6213 H   0  0  0  0  0  0  0  0  0  0  0  0
  150.2530  143.5992  158.8999 H   0  0  0  0  0  0  0  0  0  0  0  0
  144.0864  142.0893  160.2815 H   0  0  0  0  0  0  0  0  0  0  0  0
  1  2  1  0  0  0  0
  1 25  1  0  0  0  0
  1 26  1  0  0  0  0
  1 27  1  0  0  0  0
  2 24  1  0  0  0  0
  2  3  2  0  0  0  0
  3  4  1  0  0  0  0
  3 28  1  0  0  0  0
  4  5  1  0  0  0  0
  4  6  2  0  0  0  0
  5 29  1  0  0  0  0
  5 30  1  0  0  0  0
  5 31  1  0  0  0  0
  6  7  1  0  0  0  0
  6 32  1  0  0  0  0
  7  8  1  0  0  0  0
  7 24  2  0  0  0  0
  8  9  1  0  0  0  0
  9 10  1  0  0  0  0
  9 33  1  0  0  0  0
  9 34  1  0  0  0  0
 10 11  1  0  0  0  0
 10 12  1  0  0  0  0
 10 35  1  0  0  0  0
 11 36  1  0  0  0  0
 12 13  1  0  0  0  0
 12 37  1  0  0  0  0
 12 38  1  0  0  0  0
 13 23  1  0  0  0  0
 13 14  1  0  0  0  0
 14 15  1  0  0  0  0
 14 17  2  0  0  0  0
 15 16  1  0  0  0  0
 15 39  1  0  0  0  0
 15 40  1  0  0  0  0
 16 41  1  0  0  0  0
 17 18  1  0  0  0  0
 18 23  2  0  0  0  0
 18 19  1  0  0  0  0
 19 20  2  0  0  0  0
 19 42  1  0  0  0  0
 20 21  1  0  0  0  0
 20 43  1  0  0  0  0
 21 22  2  0  0  0  0
 21 44  1  0  0  0  0
 22 23  1  0  0  0  0
 22 45  1  0  0  0  0
 24 46  1  0  0  0  0
M  END
> <s_m_source_file>
AV-unprocessed.smi

> <i_m_source_file_index>
848

> <i_lp_mmshare_version>
43012

> <i_f3d_flags>
0

> <s_epik_input>
W0NIM11jMVtjSF1jKFtDSDNdKVtjSF1jKFtjSF0xKU9bQ0gyXVtDQEhdKFtPSF0pW0NIMl1uKGMobjIpW0NIMl1bT0hdKWMoYzIzKVtjSF1bY0hdW2NIXVtjSF0z

> <s_epik_cmdline>
J2VwaWtfcHl0aG9uJywgJy1waCcsICc3LjAnLCAnLXRuJywgJzgnLCAnLW1hJywgJzIwMCcsICctbWV0YWxfYmluZGluZycsICctaW1hZScsICc8aW5maWxlLm1hZT4nLCAnLW9tYWUnLCAnPG91dGZpbGUubWFlPic=

> <r_lp_tautomer_probability>
1

> <r_epik_Ionization_Penalty>
0.0554234

> <r_epik_Ionization_Penalty_Charging>
0

> <r_epik_Ionization_Penalty_Neutral>
0.0554234

> <r_epik_State_Penalty>
0.0476717

> <r_epik_Charging_Adjusted_Penalty>
0.0476717

> <i_epik_Tot_Q>
0

> <i_epik_Tot_abs_Q>
0

> <r_epik_Metal_State_Penalty>
4.96399e-05

> <b_epik_Metal_Only>
0

> <s_lp_Force_Field>
OPLS_2005

> <r_lp_Energy>
17.6838

> <b_lp_Chiralities_Consistent>
1

> <s_lp_Variant>
AV-unprocessed.smi:848-2

> <Gold.Version>
5.8.1

> <Gold.Id.Protein>
6NUR|6NUR_protein|mol2

> <Gold.PLP.Fitness>
52.1314

> <Gold.PLP.PLP>
-48.8576

> <Gold.PLP.part.hbond>
-2.2376

> <Gold.PLP.part.metal>
0.0000

> <Gold.PLP.part.buried>
-8.5664

> <Gold.PLP.part.nonpolar>
-38.8665

> <Gold.PLP.part.repulsive>
0.0478

> <Gold.PLP.ligand.clash>
1.8494

> <Gold.PLP.ligand.torsion>
0.6162

> <Gold.PLP.Chemscore.Hbond>
2.0000

> <Gold.PLP.Chemscore.CHOScore>
0.0000

> <Gold.PLP.Chemscore.Metal>
0.0000

> <Gold.Chemscore.Hbonds>
donor molecule, donor type, donor heavy atom, donor atom, acceptor molecule, acceptor atom, score
      P1  H  7989  7998       L1    16  1.00
      P1  H  7997  8008       L1    17  1.00

> <Gold.PLP.Chemscore.Internal.Correction>
0.3556

> <Gold.Rescore>
     Score         DG    S(hbond)    S(metal)    S(lipo)     H(rot)  DE(clash)    DE(int)     intcor
     15.99     -16.86       1.50        0.00     119.05       2.96       0.10       0.77       ----

> <Gold.Chemscore.Fitness>
15.9898

> <Gold.Chemscore.DG>
-16.8573

> <Gold.Chemscore.ZeroCoef>
-5.4800

> <Gold.Chemscore.Hbond>
1.5017

> <Gold.Chemscore.Metal>
0.0000

> <Gold.Chemscore.Lipo>
119.0545

> <Gold.Chemscore.Internal_Hbond>
0.0000

> <Gold.Chemscore.DEClash>
0.1019

> <Gold.Chemscore.DEInternal>
0.7657

> <Gold.Chemscore.Rot>
2.9561

> <Gold.Chemscore.Internal.Correction>
   9.000000E+99

> <Gold.Chemscore.Hbonds>
donor molecule, donor type, donor heavy atom, donor atom, acceptor molecule, acceptor atom, score
      P1  H  7989  7998       L1    16  0.30
      P1  H  7997  8008       L1    17  0.64

> <Gold.Chemscore.Hbond.Weighted>
-5.0156

> <Gold.Chemscore.Metal.Weighted>
-0.0000

> <Gold.Chemscore.Lipo.Weighted>
-13.9294

> <Gold.Chemscore.Internal_Hbond.Weighted>
0.0000

> <Gold.Chemscore.DEClash.Weighted>
0.1019

> <Gold.Chemscore.DEInternal.Weighted>
0.7657

> <Gold.Chemscore.Rot.Weighted>
7.5677

> <Gold.Chemscore.Internal.Correction.Weighted>
   9.000000E+99

> <Gold.Protein.RotatedTorsions>
[ 6907 6896 6895 6894 ] final   41.38 input  -60.11 | X-H torsion
[ 7974 7965 7964 7962 ] final    5.80 input  175.53 | X-H torsion
[ 8008 7997 7996 7995 ] final  -62.06 input   59.86 | X-H torsion
[ 10167 10162 10161 10158 ] final   18.03 input  -65.29 | X-H torsion
[ 10718 10713 10712 10709 ] final   51.88 input   66.30 | X-H torsion
[ 10763 10752 10751 10750 ] final  118.01 input  -60.55 | X-H torsion
[ 11005 11000 10999 10996 ] final    3.27 input  -57.11 | X-H torsion

> <Gold.Protein.ActiveResidues>
 VAL166  LYS551  ARG553  GLY616  TRP617  ASP618  TYR619  PRO620  LYS621  CYS622 
 ASP623  PHE694  ASN695  SER759  ASP760  ASP761  ALA762  ILE779  LEU786  VAL792 
 PHE793  MET794  SER795  GLU796  ALA797  LYS798  CYS799  TRP800  GLU811  SER814 

> <Gold.Protein.RotatedAtoms>
  152.1945  134.8642  160.0513 H   0  0  0  0  0  0  0  0  0  0  0  0  # atno 6907 bound_to 6896
  151.9519  133.3663  159.4011 H   0  0  0  0  0  0  0  0  0  0  0  0  # atno 6908 bound_to 6896
  150.6942  134.4255  159.5268 H   0  0  0  0  0  0  0  0  0  0  0  0  # atno 6909 bound_to 6896
  146.2438  140.0329  142.8388 H   0  0  0  0  0  0  0  0  0  0  0  0  # atno 7974 bound_to 7965
  154.4480  140.1004  156.6528 H   0  0  0  0  0  0  0  0  0  0  0  0  # atno 8008 bound_to 7997
  155.5379  140.3483  155.4422 H   0  0  0  0  0  0  0  0  0  0  0  0  # atno 8009 bound_to 7997
  156.0618  140.1328  156.9921 H   0  0  0  0  0  0  0  0  0  0  0  0  # atno 8010 bound_to 7997
  140.5683  143.9209  150.6693 H   0  0  0  0  0  0  0  0  0  0  0  0  # atno 10167 bound_to 10162
  157.5022  130.8445  149.8331 H   0  0  0  0  0  0  0  0  0  0  0  0  # atno 10718 bound_to 10713
  153.5612  135.3520  155.2800 H   0  0  0  0  0  0  0  0  0  0  0  0  # atno 10763 bound_to 10752
  154.8695  135.4137  154.2829 H   0  0  0  0  0  0  0  0  0  0  0  0  # atno 10764 bound_to 10752
  153.3575  135.7058  153.6808 H   0  0  0  0  0  0  0  0  0  0  0  0  # atno 10765 bound_to 10752
  140.5950  133.9889  155.8106 H   0  0  0  0  0  0  0  0  0  0  0  0  # atno 11005 bound_to 11000
  145.1138  140.9421  143.4640 LP  0  0  0  0  0  0  0  0  0  0  0  0  # atno 17320 bound_to 7965
  145.0549  139.3152  143.5910 LP  0  0  0  0  0  0  0  0  0  0  0  0  # atno 17321 bound_to 7965
  140.2677  143.3478  152.1266 LP  0  0  0  0  0  0  0  0  0  0  0  0  # atno 17342 bound_to 10162
  139.5104  144.6884  151.5826 LP  0  0  0  0  0  0  0  0  0  0  0  0  # atno 17343 bound_to 10162
  156.0236  130.3787  150.1888 LP  0  0  0  0  0  0  0  0  0  0  0  0  # atno 17370 bound_to 10713
  157.0078  130.9942  151.3374 LP  0  0  0  0  0  0  0  0  0  0  0  0  # atno 17371 bound_to 10713
  141.0910  133.9917  157.3237 LP  0  0  0  0  0  0  0  0  0  0  0  0  # atno 17394 bound_to 11000
  139.9257  135.0201  156.8226 LP  0  0  0  0  0  0  0  0  0  0  0  0  # atno 17395 bound_to 11000

$$$$
