AV-unprocessed.smi:2284|AV-procd|sdf|9202|dock6
  -GOLD-   2272012423D 1   1.00000     0.00000
 Structure written by MMmdl.
 44 45  0  0  0  0  0  0  0  0  1 V2000
  150.9397  144.7237  158.8771 C   0  0  0  0  0  0  0  0  0  0  0  0
  151.7823  143.5183  159.2407 C   0  0  0  0  0  0  0  0  0  0  0  0
  152.5022  143.4902  160.4510 C   0  0  0  0  0  0  0  0  0  0  0  0
  153.2800  142.3653  160.7800 C   0  0  0  0  0  0  0  0  0  0  0  0
  153.3437  141.2633  159.9024 C   0  0  0  0  0  0  0  0  0  0  0  0
  154.1894  140.0579  160.2697 C   0  0  0  0  0  0  0  0  0  0  0  0
  152.6276  141.2799  158.6834 C   0  0  0  0  0  0  0  0  0  0  0  0
  152.7341  140.1703  157.8720 O   0  0  0  0  0  0  0  0  0  0  0  0
  151.6352  139.8269  157.0388 C   0  0  0  0  0  0  0  0  0  0  0  0
  152.1768  139.5139  155.6361 C   0  0  1  0  0  0  0  0  0  0  0  0
  153.3968  138.8202  155.8022 O   0  0  0  0  0  0  0  0  0  0  0  0
  151.2032  138.6355  154.8158 C   0  0  0  0  0  0  0  0  0  0  0  0
  149.8904  139.2798  154.6507 N   0  0  0  0  0  0  0  0  0  0  0  0
  149.8994  140.6729  154.4661 C   0  0  0  0  0  0  0  0  0  0  0  0
  148.8064  141.3431  154.3003 N   0  0  0  0  0  0  0  0  0  0  0  0
  147.5761  140.6796  154.2994 C   0  0  0  0  0  0  0  0  0  0  0  0
  146.3562  141.5609  154.0979 C   0  0  0  0  0  0  0  0  0  0  0  0
  147.4994  139.3311  154.4680 C   0  0  0  0  0  0  0  0  0  0  0  0
  146.1878  138.5557  154.4760 C   0  0  0  0  0  0  0  0  0  0  0  0
  148.7359  138.5538  154.6531 C   0  0  0  0  0  0  0  0  0  0  0  0
  148.7395  137.3304  154.8019 O   0  0  0  0  0  0  0  0  0  0  0  0
  151.8453  142.4181  158.3622 C   0  0  0  0  0  0  0  0  0  0  0  0
  151.0084  145.5028  159.6370 H   0  0  0  0  0  0  0  0  0  0  0  0
  149.8926  144.4362  158.7777 H   0  0  0  0  0  0  0  0  0  0  0  0
  151.2720  145.1441  157.9277 H   0  0  0  0  0  0  0  0  0  0  0  0
  152.4611  144.3286  161.1310 H   0  0  0  0  0  0  0  0  0  0  0  0
  153.8288  142.3530  161.7104 H   0  0  0  0  0  0  0  0  0  0  0  0
  154.9594  139.8913  159.5158 H   0  0  0  0  0  0  0  0  0  0  0  0
  153.5683  139.1637  160.3293 H   0  0  0  0  0  0  0  0  0  0  0  0
  154.6817  140.1934  161.2329 H   0  0  0  0  0  0  0  0  0  0  0  0
  151.1321  138.9483  157.4464 H   0  0  0  0  0  0  0  0  0  0  0  0
  150.9125  140.6435  156.9904 H   0  0  0  0  0  0  0  0  0  0  0  0
  152.3828  140.4551  155.1244 H   0  0  0  0  0  0  0  0  0  0  0  0
  153.2222  137.8918  155.7759 H   0  0  0  0  0  0  0  0  0  0  0  0
  151.6445  138.3561  153.8572 H   0  0  0  0  0  0  0  0  0  0  0  0
  151.0571  137.6777  155.3194 H   0  0  0  0  0  0  0  0  0  0  0  0
  150.8861  141.1401  154.4675 H   0  0  0  0  0  0  0  0  0  0  0  0
  145.6953  141.5014  154.9629 H   0  0  0  0  0  0  0  0  0  0  0  0
  145.8017  141.2493  153.2122 H   0  0  0  0  0  0  0  0  0  0  0  0
  146.6385  142.6060  153.9644 H   0  0  0  0  0  0  0  0  0  0  0  0
  146.1786  137.8264  153.6653 H   0  0  0  0  0  0  0  0  0  0  0  0
  145.3117  139.1909  154.3565 H   0  0  0  0  0  0  0  0  0  0  0  0
  146.0752  138.0168  155.4175 H   0  0  0  0  0  0  0  0  0  0  0  0
  151.2797  142.4687  157.4441 H   0  0  0  0  0  0  0  0  0  0  0  0
  1  2  1  0  0  0  0
  1 23  1  0  0  0  0
  1 24  1  0  0  0  0
  1 25  1  0  0  0  0
  2 22  1  0  0  0  0
  2  3  2  0  0  0  0
  3  4  1  0  0  0  0
  3 26  1  0  0  0  0
  4  5  2  0  0  0  0
  4 27  1  0  0  0  0
  5  6  1  0  0  0  0
  5  7  1  0  0  0  0
  6 28  1  0  0  0  0
  6 29  1  0  0  0  0
  6 30  1  0  0  0  0
  7  8  1  0  0  0  0
  7 22  2  0  0  0  0
  8  9  1  0  0  0  0
  9 10  1  0  0  0  0
  9 31  1  0  0  0  0
  9 32  1  0  0  0  0
 10 11  1  0  0  0  0
 10 12  1  0  0  0  0
 10 33  1  0  0  0  0
 11 34  1  0  0  0  0
 12 13  1  0  0  0  0
 12 35  1  0  0  0  0
 12 36  1  0  0  0  0
 13 20  1  0  0  0  0
 13 14  1  0  0  0  0
 14 15  2  0  0  0  0
 14 37  1  0  0  0  0
 15 16  1  0  0  0  0
 16 17  1  0  0  0  0
 16 18  2  0  0  0  0
 17 38  1  0  0  0  0
 17 39  1  0  0  0  0
 17 40  1  0  0  0  0
 18 19  1  0  0  0  0
 18 20  1  0  0  0  0
 19 41  1  0  0  0  0
 19 42  1  0  0  0  0
 19 43  1  0  0  0  0
 20 21  2  0  0  0  0
 22 44  1  0  0  0  0
M  END
> <s_m_source_file>
AV-unprocessed.smi

> <i_m_source_file_index>
2284

> <i_lp_mmshare_version>
43012

> <i_f3d_flags>
0

> <s_epik_input>
W0NIM11jMVtjSF1bY0hdYyhbQ0gzXSljKFtjSF0xKU9bQ0gyXVtDQEhdKFtPSF0pW0NIMl1uMltjSF1uYyhbQ0gzXSljKFtDSDNdKWMyPU8=

> <s_epik_cmdline>
J2VwaWtfcHl0aG9uJywgJy1waCcsICc3LjAnLCAnLXRuJywgJzgnLCAnLW1hJywgJzIwMCcsICctbWV0YWxfYmluZGluZycsICctaW1hZScsICc8aW5maWxlLm1hZT4nLCAnLW9tYWUnLCAnPG91dGZpbGUubWFlPic=

> <r_lp_tautomer_probability>
1

> <r_epik_Ionization_Penalty>
3.7476e-05

> <r_epik_Ionization_Penalty_Charging>
8.44705e-08

> <r_epik_Ionization_Penalty_Neutral>
3.73915e-05

> <r_epik_State_Penalty>
-0

> <r_epik_Charging_Adjusted_Penalty>
8.44705e-08

> <i_epik_Tot_Q>
0

> <i_epik_Tot_abs_Q>
0

> <r_epik_Metal_State_Penalty>
-0

> <b_epik_Metal_Only>
0

> <s_lp_Force_Field>
OPLS_2005

> <r_lp_Energy>
21.7941

> <b_lp_Chiralities_Consistent>
1

> <s_lp_Variant>
AV-unprocessed.smi:2284-2

> <Gold.Version>
5.8.1

> <Gold.Id.Protein>
6NUR|6NUR_protein|mol2

> <Gold.PLP.Fitness>
48.5409

> <Gold.PLP.PLP>
-46.2770

> <Gold.PLP.part.hbond>
-3.6656

> <Gold.PLP.part.metal>
0.0000

> <Gold.PLP.part.buried>
-2.9981

> <Gold.PLP.part.nonpolar>
-39.2574

> <Gold.PLP.part.repulsive>
0.3439

> <Gold.PLP.ligand.clash>
0.0000

> <Gold.PLP.ligand.torsion>
1.2491

> <Gold.PLP.Chemscore.Hbond>
1.5678

> <Gold.PLP.Chemscore.CHOScore>
0.0000

> <Gold.PLP.Chemscore.Metal>
0.0000

> <Gold.Chemscore.Hbonds>
donor molecule, donor type, donor heavy atom, donor atom, acceptor molecule, acceptor atom, score
      P1  H  7997  8009       L1     8  0.99

> <Gold.PLP.Chemscore.Internal.Correction>
0.0585

> <Gold.Rescore>
     Score         DG    S(hbond)    S(metal)    S(lipo)     H(rot)  DE(clash)    DE(int)     intcor
     15.04     -17.79       1.17        0.00     122.77       2.32       1.71       1.04       ----

> <Gold.Chemscore.Fitness>
15.0356

> <Gold.Chemscore.DG>
-17.7888

> <Gold.Chemscore.ZeroCoef>
-5.4800

> <Gold.Chemscore.Hbond>
1.1656

> <Gold.Chemscore.Metal>
0.0000

> <Gold.Chemscore.Lipo>
122.7701

> <Gold.Chemscore.Internal_Hbond>
0.0000

> <Gold.Chemscore.DEClash>
1.7082

> <Gold.Chemscore.DEInternal>
1.0449

> <Gold.Chemscore.Rot>
2.3236

> <Gold.Chemscore.Internal.Correction>
   9.000000E+99

> <Gold.Chemscore.Hbonds>
donor molecule, donor type, donor heavy atom, donor atom, acceptor molecule, acceptor atom, score
      P1  H  7997  8009       L1     8  0.65

> <Gold.Chemscore.Hbond.Weighted>
-3.8931

> <Gold.Chemscore.Metal.Weighted>
-0.0000

> <Gold.Chemscore.Lipo.Weighted>
-14.3641

> <Gold.Chemscore.Internal_Hbond.Weighted>
0.0000

> <Gold.Chemscore.DEClash.Weighted>
1.7082

> <Gold.Chemscore.DEInternal.Weighted>
1.0449

> <Gold.Chemscore.Rot.Weighted>
5.9484

> <Gold.Chemscore.Internal.Correction.Weighted>
   9.000000E+99

> <Gold.Protein.RotatedTorsions>
[ 6907 6896 6895 6894 ] final  -48.12 input  -60.11 | X-H torsion
[ 7974 7965 7964 7962 ] final   56.55 input  175.53 | X-H torsion
[ 8008 7997 7996 7995 ] final  160.78 input   59.86 | X-H torsion
[ 10167 10162 10161 10158 ] final -117.40 input  -65.29 | X-H torsion
[ 10718 10713 10712 10709 ] final  151.27 input   66.30 | X-H torsion
[ 10763 10752 10751 10750 ] final   64.09 input  -60.55 | X-H torsion
[ 11005 11000 10999 10996 ] final   26.73 input  -57.11 | X-H torsion

> <Gold.Protein.ActiveResidues>
 VAL166  LYS551  ARG553  GLY616  TRP617  ASP618  TYR619  PRO620  LYS621  CYS622 
 ASP623  PHE694  ASN695  SER759  ASP760  ASP761  ALA762  ILE779  LEU786  VAL792 
 PHE793  MET794  SER795  GLU796  ALA797  LYS798  CYS799  TRP800  GLU811  SER814 

> <Gold.Protein.RotatedAtoms>
  150.8938  134.8345  159.7311 H   0  0  0  0  0  0  0  0  0  0  0  0  # atno 6907 bound_to 6896
  152.4853  134.4607  159.9614 H   0  0  0  0  0  0  0  0  0  0  0  0  # atno 6908 bound_to 6896
  151.4666  133.3540  159.2852 H   0  0  0  0  0  0  0  0  0  0  0  0  # atno 6909 bound_to 6896
  145.9386  139.3868  143.0377 H   0  0  0  0  0  0  0  0  0  0  0  0  # atno 7974 bound_to 7965
  156.2149  140.1795  156.7612 H   0  0  0  0  0  0  0  0  0  0  0  0  # atno 8008 bound_to 7997
  154.5776  140.0671  156.9086 H   0  0  0  0  0  0  0  0  0  0  0  0  # atno 8009 bound_to 7997
  155.2559  140.3332  155.4280 H   0  0  0  0  0  0  0  0  0  0  0  0  # atno 8010 bound_to 7997
  140.0687  143.4898  152.1991 H   0  0  0  0  0  0  0  0  0  0  0  0  # atno 10167 bound_to 10162
  157.2728  131.0820  151.1587 H   0  0  0  0  0  0  0  0  0  0  0  0  # atno 10718 bound_to 10713
  153.0042  135.5406  154.6454 H   0  0  0  0  0  0  0  0  0  0  0  0  # atno 10763 bound_to 10752
  154.5699  135.2841  155.0839 H   0  0  0  0  0  0  0  0  0  0  0  0  # atno 10764 bound_to 10752
  154.2009  135.6484  153.5139 H   0  0  0  0  0  0  0  0  0  0  0  0  # atno 10765 bound_to 10752
  140.3339  134.2407  155.7698 H   0  0  0  0  0  0  0  0  0  0  0  0  # atno 11005 bound_to 11000
  145.8330  140.9620  143.0839 LP  0  0  0  0  0  0  0  0  0  0  0  0  # atno 17320 bound_to 7965
  144.6775  140.0187  143.7484 LP  0  0  0  0  0  0  0  0  0  0  0  0  # atno 17321 bound_to 7965
  139.5849  144.7526  151.3546 LP  0  0  0  0  0  0  0  0  0  0  0  0  # atno 17342 bound_to 10162
  140.7136  143.7325  150.7613 LP  0  0  0  0  0  0  0  0  0  0  0  0  # atno 17343 bound_to 10162
  157.3052  130.6862  149.6186 LP  0  0  0  0  0  0  0  0  0  0  0  0  # atno 17370 bound_to 10713
  155.9663  130.4380  150.5198 LP  0  0  0  0  0  0  0  0  0  0  0  0  # atno 17371 bound_to 10713
  141.2056  133.7855  157.0223 LP  0  0  0  0  0  0  0  0  0  0  0  0  # atno 17394 bound_to 11000
  140.0837  134.9633  157.1666 LP  0  0  0  0  0  0  0  0  0  0  0  0  # atno 17395 bound_to 11000

$$$$
