AV-unprocessed.smi:3084|AV-procd|sdf|11749|dock6
  -GOLD-   2272017143D 1   1.00000     0.00000
 Structure written by MMmdl.
 27 28  0  0  0  0  0  0  0  0  2 V2000
  149.4173  140.4011  154.5155 C   0  0  0  0  0  0  0  0  0  0  0  0
  150.6115  139.7854  154.7636 N   0  0  0  0  0  0  0  0  0  0  0  0
  150.8118  140.1838  156.0118 C   0  0  0  0  0  0  0  0  0  0  0  0
  149.8370  140.9575  156.4927 N   0  0  0  0  0  0  0  0  0  0  0  0
  149.6900  141.5981  157.7868 C   0  0  0  0  0  0  0  0  0  0  0  0
  150.9723  142.3155  158.2565 C   0  0  1  0  0  0  0  0  0  0  0  0
  152.0518  141.3426  158.7844 C   0  0  0  0  0  0  0  0  0  0  0  0
  153.3318  142.0904  159.1890 C   0  0  0  0  0  0  0  0  0  0  0  0
  153.8377  142.9544  158.0253 C   0  0  0  0  0  0  0  0  0  0  0  0
  152.7316  143.8995  157.5300 C   0  0  0  0  0  0  0  0  0  0  0  0
  151.5215  143.1368  157.1522 N   0  3  0  0  0  0  0  0  0  0  0  0
  148.9122  141.1208  155.5176 N   0  0  0  0  0  0  0  0  0  0  0  0
  148.9062  140.3183  153.5675 H   0  0  0  0  0  0  0  0  0  0  0  0
  151.6835  139.9045  156.5855 H   0  0  0  0  0  0  0  0  0  0  0  0
  148.8634  142.3074  157.7247 H   0  0  0  0  0  0  0  0  0  0  0  0
  149.3945  140.8363  158.5097 H   0  0  0  0  0  0  0  0  0  0  0  0
  150.7032  143.0012  159.0618 H   0  0  0  0  0  0  0  0  0  0  0  0
  151.6775  140.7860  159.6442 H   0  0  0  0  0  0  0  0  0  0  0  0
  152.2887  140.6033  158.0180 H   0  0  0  0  0  0  0  0  0  0  0  0
  153.1298  142.7224  160.0548 H   0  0  0  0  0  0  0  0  0  0  0  0
  154.1020  141.3812  159.4939 H   0  0  0  0  0  0  0  0  0  0  0  0
  154.7097  143.5301  158.3376 H   0  0  0  0  0  0  0  0  0  0  0  0
  154.1670  142.3121  157.2072 H   0  0  0  0  0  0  0  0  0  0  0  0
  152.4738  144.6223  158.3052 H   0  0  0  0  0  0  0  0  0  0  0  0
  153.0781  144.4676  156.6665 H   0  0  0  0  0  0  0  0  0  0  0  0
  151.7554  142.5251  156.3834 H   0  0  0  0  0  0  0  0  0  0  0  0
  150.8115  143.7869  156.8464 H   0  0  0  0  0  0  0  0  0  0  0  0
  1 12  2  0  0  0  0
  1  2  1  0  0  0  0
  1 13  1  0  0  0  0
  2  3  2  0  0  0  0
  3  4  1  0  0  0  0
  3 14  1  0  0  0  0
  4  5  1  0  0  0  0
  4 12  1  0  0  0  0
  5  6  1  0  0  0  0
  5 15  1  0  0  0  0
  5 16  1  0  0  0  0
  6 11  1  0  0  0  0
  6  7  1  0  0  0  0
  6 17  1  0  0  0  0
  7  8  1  0  0  0  0
  7 18  1  0  0  0  0
  7 19  1  0  0  0  0
  8  9  1  0  0  0  0
  8 20  1  0  0  0  0
  8 21  1  0  0  0  0
  9 10  1  0  0  0  0
  9 22  1  0  0  0  0
  9 23  1  0  0  0  0
 10 11  1  0  0  0  0
 10 24  1  0  0  0  0
 10 25  1  0  0  0  0
 11 26  1  0  0  0  0
 11 27  1  0  0  0  0
M  CHG  1  11   1
M  END
> <s_m_source_file>
AV-unprocessed.smi

> <i_m_source_file_index>
3084

> <i_lp_mmshare_version>
43012

> <i_f3d_flags>
0

> <s_epik_input>
bjFbY0hdbltjSF1uMVtDSDJdW0NAQEhdMltDSDJdW0NIMl1bQ0gyXVtDSDJdW05IXTI=

> <s_epik_cmdline>
J2VwaWtfcHl0aG9uJywgJy1waCcsICc3LjAnLCAnLXRuJywgJzgnLCAnLW1hJywgJzIwMCcsICctbWV0YWxfYmluZGluZycsICctaW1hZScsICc8aW5maWxlLm1hZT4nLCAnLW9tYWUnLCAnPG91dGZpbGUubWFlPic=

> <r_lp_tautomer_probability>
1

> <r_epik_Ionization_Penalty>
0.000475214

> <r_epik_Ionization_Penalty_Charging>
0.000474443

> <r_epik_Ionization_Penalty_Neutral>
7.70992e-07

> <r_epik_State_Penalty>
0.000294136

> <r_epik_Charging_Adjusted_Penalty>
0.000768579

> <i_epik_Tot_Q>
1

> <i_epik_Tot_abs_Q>
1

> <r_epik_Metal_State_Penalty>
-0

> <b_epik_Metal_Only>
0

> <s_lp_Force_Field>
OPLS_2005

> <r_lp_Energy>
15.8084

> <b_lp_Chiralities_Consistent>
1

> <s_lp_Variant>
AV-unprocessed.smi:3084-2

> <Gold.Version>
5.8.1

> <Gold.Id.Protein>
6NUR|6NUR_protein|mol2

> <Gold.PLP.Fitness>
10.2688

> <Gold.PLP.PLP>
-5.5209

> <Gold.PLP.part.hbond>
-1.0000

> <Gold.PLP.part.metal>
0.0000

> <Gold.PLP.part.buried>
-1.5198

> <Gold.PLP.part.nonpolar>
-1.4615

> <Gold.PLP.part.repulsive>
0.2043

> <Gold.PLP.ligand.clash>
0.0000

> <Gold.PLP.ligand.torsion>
0.2534

> <Gold.PLP.Chemscore.Hbond>
0.7500

> <Gold.PLP.Chemscore.CHOScore>
1.0000

> <Gold.PLP.Chemscore.Metal>
0.0000

> <Gold.Chemscore.Hbonds>
donor molecule, donor type, donor heavy atom, donor atom, acceptor molecule, acceptor atom, score
      P1  H  7989  7998       L1     2  0.75
      L1  C     1    13       P1  7957  1.00

> <Gold.PLP.Chemscore.Internal.Correction>
0.0047

> <Gold.Rescore>
     Score         DG    S(hbond)    S(metal)    S(lipo)     H(rot)  DE(clash)    DE(int)     intcor
     13.02     -13.63       1.62        0.00      56.37       1.51       0.20       0.41       ----

> <Gold.Chemscore.Fitness>
13.0231

> <Gold.Chemscore.DG>
-13.6324

> <Gold.Chemscore.ZeroCoef>
-5.4800

> <Gold.Chemscore.Hbond>
1.6211

> <Gold.Chemscore.Metal>
0.0000

> <Gold.Chemscore.Lipo>
56.3675

> <Gold.Chemscore.Internal_Hbond>
0.0000

> <Gold.Chemscore.DEClash>
0.2041

> <Gold.Chemscore.DEInternal>
0.4052

> <Gold.Chemscore.Rot>
1.5066

> <Gold.Chemscore.Internal.Correction>
   9.000000E+99

> <Gold.Chemscore.Hbonds>
donor molecule, donor type, donor heavy atom, donor atom, acceptor molecule, acceptor atom, score
      L1  H    11    27       P1  8028  0.07
      P1  H  7989  7998       L1     2  0.08

> <Gold.Chemscore.Hbond.Weighted>
-5.4143

> <Gold.Chemscore.Metal.Weighted>
-0.0000

> <Gold.Chemscore.Lipo.Weighted>
-6.5950

> <Gold.Chemscore.Internal_Hbond.Weighted>
0.0000

> <Gold.Chemscore.DEClash.Weighted>
0.2041

> <Gold.Chemscore.DEInternal.Weighted>
0.4052

> <Gold.Chemscore.Rot.Weighted>
3.8569

> <Gold.Chemscore.Internal.Correction.Weighted>
   9.000000E+99

> <Gold.Protein.RotatedTorsions>
[ 6907 6896 6895 6894 ] final   67.86 input  -60.11 | X-H torsion
[ 7974 7965 7964 7962 ] final  -42.44 input  175.53 | X-H torsion
[ 8008 7997 7996 7995 ] final   48.61 input   59.86 | X-H torsion
[ 10167 10162 10161 10158 ] final   -4.82 input  -65.29 | X-H torsion
[ 10718 10713 10712 10709 ] final   63.48 input   66.30 | X-H torsion
[ 10763 10752 10751 10750 ] final  112.41 input  -60.55 | X-H torsion
[ 11005 11000 10999 10996 ] final  -40.23 input  -57.11 | X-H torsion

> <Gold.Protein.ActiveResidues>
 VAL166  LYS551  ARG553  GLY616  TRP617  ASP618  TYR619  PRO620  LYS621  CYS622 
 ASP623  PHE694  ASN695  SER759  ASP760  ASP761  ALA762  ILE779  LEU786  VAL792 
 PHE793  MET794  SER795  GLU796  ALA797  LYS798  CYS799  TRP800  GLU811  SER814 

> <Gold.Protein.RotatedAtoms>
  152.4581  134.5247  159.9792 H   0  0  0  0  0  0  0  0  0  0  0  0  # atno 6907 bound_to 6896
  151.5303  133.3444  159.2925 H   0  0  0  0  0  0  0  0  0  0  0  0  # atno 6908 bound_to 6896
  150.8532  134.7894  159.7088 H   0  0  0  0  0  0  0  0  0  0  0  0  # atno 6909 bound_to 6896
  146.0115  140.6958  142.9222 H   0  0  0  0  0  0  0  0  0  0  0  0  # atno 7974 bound_to 7965
  155.3885  140.3432  155.4250 H   0  0  0  0  0  0  0  0  0  0  0  0  # atno 8008 bound_to 7997
  156.1571  140.1589  156.8708 H   0  0  0  0  0  0  0  0  0  0  0  0  # atno 8009 bound_to 7997
  154.5105  140.0791  156.7961 H   0  0  0  0  0  0  0  0  0  0  0  0  # atno 8010 bound_to 7997
  140.6941  143.6379  150.8462 H   0  0  0  0  0  0  0  0  0  0  0  0  # atno 10167 bound_to 10162
  157.5974  130.9108  149.9722 H   0  0  0  0  0  0  0  0  0  0  0  0  # atno 10718 bound_to 10713
  153.4775  135.3687  155.2424 H   0  0  0  0  0  0  0  0  0  0  0  0  # atno 10763 bound_to 10752
  154.8756  135.3946  154.3739 H   0  0  0  0  0  0  0  0  0  0  0  0  # atno 10764 bound_to 10752
  153.4337  135.7083  153.6279 H   0  0  0  0  0  0  0  0  0  0  0  0  # atno 10765 bound_to 10752
  141.0160  133.6885  156.2294 H   0  0  0  0  0  0  0  0  0  0  0  0  # atno 11005 bound_to 11000
  144.6955  140.3407  143.7199 LP  0  0  0  0  0  0  0  0  0  0  0  0  # atno 17320 bound_to 7965
  145.7334  139.1743  143.2417 LP  0  0  0  0  0  0  0  0  0  0  0  0  # atno 17321 bound_to 7965
  140.0095  143.5657  152.2844 LP  0  0  0  0  0  0  0  0  0  0  0  0  # atno 17342 bound_to 10162
  139.6376  144.7651  151.2405 LP  0  0  0  0  0  0  0  0  0  0  0  0  # atno 17343 bound_to 10162
  156.1040  130.3654  150.0167 LP  0  0  0  0  0  0  0  0  0  0  0  0  # atno 17370 bound_to 10713
  156.8278  130.9381  151.3638 LP  0  0  0  0  0  0  0  0  0  0  0  0  # atno 17371 bound_to 10713
  140.6654  134.4924  157.5585 LP  0  0  0  0  0  0  0  0  0  0  0  0  # atno 17394 bound_to 11000
  139.9117  134.8331  156.1505 LP  0  0  0  0  0  0  0  0  0  0  0  0  # atno 17395 bound_to 11000

$$$$
