AV-unprocessed.smi:1399|AV-procd|sdf|5685|dock7
  -GOLD-   22720 5313D 1   1.00000     0.00000
 Structure written by MMmdl.
 37 38  0  0  0  0  0  0  0  0  3 V2000
  152.9888  139.2522  156.5762 N   0  5  0  0  0  0  0  0  0  0  0  0
  151.9644  139.3558  155.7078 C   0  0  0  0  0  0  0  0  0  0  0  0
  151.4790  140.3793  155.2303 O   0  0  0  0  0  0  0  0  0  0  0  0
  151.4046  137.9904  155.2948 C   0  0  0  0  0  0  0  0  0  0  0  0
  149.9223  137.9954  155.3774 N   0  3  2  0  0  0  0  0  0  0  0  0
  149.3721  136.6490  155.6769 C   0  0  0  0  0  0  0  0  0  0  0  0
  147.8504  136.7048  155.8992 C   0  0  0  0  0  0  0  0  0  0  0  0
  147.1143  137.3387  154.7022 C   0  0  2  0  0  0  0  0  0  0  0  0
  147.1323  136.4681  153.5269 N   0  0  0  0  0  0  0  0  0  0  0  0
  146.0663  135.8398  153.0107 C   0  0  0  0  0  0  0  0  0  0  0  0
  144.9344  135.9164  153.4881 O   0  0  0  0  0  0  0  0  0  0  0  0
  146.4003  135.1265  151.9234 N   0  0  0  0  0  0  0  0  0  0  0  0
  145.5404  134.3413  151.1156 C   0  0  0  0  0  0  0  0  0  0  0  0
  145.7962  133.0959  150.4697 C   0  0  0  0  0  0  0  0  0  0  0  0
  144.7315  132.6750  149.8017 N   0  0  0  0  0  0  0  0  0  0  0  0
  143.8028  133.6342  150.0142 N   0  0  0  0  0  0  0  0  0  0  0  0
  144.2529  134.6659  150.8080 C   0  0  0  0  0  0  0  0  0  0  0  0
  147.7462  138.7014  154.3710 C   0  0  0  0  0  0  0  0  0  0  0  0
  149.2709  138.6016  154.1845 C   0  0  0  0  0  0  0  0  0  0  0  0
  142.8772  133.5711  149.6145 H   0  0  0  0  0  0  0  0  0  0  0  0
  152.9739  138.5012  157.2767 H   0  0  0  0  0  0  0  0  0  0  0  0
  151.7305  137.6820  154.2990 H   0  0  0  0  0  0  0  0  0  0  0  0
  151.8138  137.2590  155.9934 H   0  0  0  0  0  0  0  0  0  0  0  0
  149.6128  135.9652  154.8615 H   0  0  0  0  0  0  0  0  0  0  0  0
  149.8467  136.2498  156.5741 H   0  0  0  0  0  0  0  0  0  0  0  0
  147.4651  135.7054  156.1039 H   0  0  0  0  0  0  0  0  0  0  0  0
  147.6454  137.2929  156.7945 H   0  0  0  0  0  0  0  0  0  0  0  0
  146.0720  137.5078  154.9786 H   0  0  0  0  0  0  0  0  0  0  0  0
  148.0212  136.3478  153.0636 H   0  0  0  0  0  0  0  0  0  0  0  0
  147.3694  135.1482  151.6418 H   0  0  0  0  0  0  0  0  0  0  0  0
  146.6910  132.4916  150.4567 H   0  0  0  0  0  0  0  0  0  0  0  0
  143.6361  135.5118  151.0739 H   0  0  0  0  0  0  0  0  0  0  0  0
  147.2859  139.1259  153.4780 H   0  0  0  0  0  0  0  0  0  0  0  0
  147.5341  139.4005  155.1813 H   0  0  0  0  0  0  0  0  0  0  0  0
  149.6681  139.6008  154.0045 H   0  0  0  0  0  0  0  0  0  0  0  0
  149.5067  138.0088  153.2994 H   0  0  0  0  0  0  0  0  0  0  0  0
  149.6934  138.5810  156.1682 H   0  0  0  0  0  0  0  0  0  0  0  0
  1  2  1  0  0  0  0
  1 21  1  0  0  0  0
  2  3  2  0  0  0  0
  2  4  1  0  0  0  0
  4  5  1  0  0  0  0
  4 22  1  0  0  0  0
  4 23  1  0  0  0  0
  5 19  1  0  0  0  0
  5  6  1  0  0  0  0
  5 37  1  0  0  0  0
  6  7  1  0  0  0  0
  6 24  1  0  0  0  0
  6 25  1  0  0  0  0
  7  8  1  0  0  0  0
  7 26  1  0  0  0  0
  7 27  1  0  0  0  0
  8  9  1  0  0  0  0
  8 18  1  0  0  0  0
  8 28  1  0  0  0  0
  9 10  1  0  0  0  0
  9 29  1  0  0  0  0
 10 11  2  0  0  0  0
 10 12  1  0  0  0  0
 12 13  1  0  0  0  0
 12 30  1  0  0  0  0
 13 17  2  0  0  0  0
 13 14  1  0  0  0  0
 14 15  2  0  0  0  0
 14 31  1  0  0  0  0
 15 16  1  0  0  0  0
 16 20  1  0  0  0  0
 16 17  1  0  0  0  0
 17 32  1  0  0  0  0
 18 19  1  0  0  0  0
 18 33  1  0  0  0  0
 18 34  1  0  0  0  0
 19 35  1  0  0  0  0
 19 36  1  0  0  0  0
M  CHG  1   1  -1
M  CHG  1   5   1
M  END
> <s_m_source_file>
AV-unprocessed.smi

> <i_m_source_file_index>
1399

> <i_lp_mmshare_version>
43012

> <i_f3d_flags>
0

> <s_epik_input>
W05IMl1DKD1PKVtDSDJdTjFbQ0gyXVtDSDJdW0NIXShbQ0gyXVtDSDJdMSlbTkhdQyg9TylbTkhdYzJbY0hdbltuSF1bY0hdMg==

> <s_epik_cmdline>
J2VwaWtfcHl0aG9uJywgJy1waCcsICc3LjAnLCAnLXRuJywgJzgnLCAnLW1hJywgJzIwMCcsICctbWV0YWxfYmluZGluZycsICctaW1hZScsICc8aW5maWxlLm1hZT4nLCAnLW9tYWUnLCAnPG91dGZpbGUubWFlPic=

> <r_lp_tautomer_probability>
0.5

> <r_epik_Ionization_Penalty>
5.72885

> <r_epik_Ionization_Penalty_Charging>
5.7288

> <r_epik_Ionization_Penalty_Neutral>
4.21226e-05

> <r_epik_State_Penalty>
6.54882

> <r_epik_Charging_Adjusted_Penalty>
12.2776

> <i_epik_Tot_Q>
0

> <i_epik_Tot_abs_Q>
2

> <r_epik_Metal_State_Penalty>
2.51297

> <b_epik_Metal_Only>
1

> <s_lp_Force_Field>
OPLS_2005

> <r_lp_Energy>
10.897

> <b_lp_Chiralities_Consistent>
1

> <s_lp_Variant>
AV-unprocessed.smi:1399-5

> <Gold.Version>
5.8.1

> <Gold.Id.Protein>
6NUR|6NUR_protein|mol2

> <Gold.PLP.Fitness>
39.6574

> <Gold.PLP.PLP>
-23.2905

> <Gold.PLP.part.hbond>
-4.7442

> <Gold.PLP.part.metal>
0.0000

> <Gold.PLP.part.buried>
-4.5358

> <Gold.PLP.part.nonpolar>
-14.7789

> <Gold.PLP.part.repulsive>
0.3225

> <Gold.PLP.ligand.clash>
0.0000

> <Gold.PLP.ligand.torsion>
0.7625

> <Gold.PLP.Chemscore.Hbond>
5.6558

> <Gold.PLP.Chemscore.CHOScore>
0.2986

> <Gold.PLP.Chemscore.Metal>
0.0000

> <Gold.Chemscore.Hbonds>
donor molecule, donor type, donor heavy atom, donor atom, acceptor molecule, acceptor atom, score
      L1  H     9    29       P1  7948  0.99
      L1  H    12    30       P1  7948  0.83
      L1  H    16    20       P1 10186  0.86
      P1  H  7989  7998       L1     3  0.93
      P1  H  7997  8010       L1     1  2.00
      L1  C    14    31       P1 10747  0.30

> <Gold.PLP.Chemscore.Internal.Correction>
0.0287

> <Gold.Rescore>
     Score         DG    S(hbond)    S(metal)    S(lipo)     H(rot)  DE(clash)    DE(int)     intcor
     18.25     -19.81       4.52        0.00      38.53       2.06       0.03       1.53       ----

> <Gold.Chemscore.Fitness>
18.2533

> <Gold.Chemscore.DG>
-19.8137

> <Gold.Chemscore.ZeroCoef>
-5.4800

> <Gold.Chemscore.Hbond>
4.5193

> <Gold.Chemscore.Metal>
0.0000

> <Gold.Chemscore.Lipo>
38.5349

> <Gold.Chemscore.Internal_Hbond>
0.0000

> <Gold.Chemscore.DEClash>
0.0270

> <Gold.Chemscore.DEInternal>
1.5334

> <Gold.Chemscore.Rot>
2.0584

> <Gold.Chemscore.Internal.Correction>
   9.000000E+99

> <Gold.Chemscore.Hbonds>
donor molecule, donor type, donor heavy atom, donor atom, acceptor molecule, acceptor atom, score
      L1  H     9    29       P1  7948  0.91
      L1  H    12    30       P1  7948  0.73
      L1  H    16    20       P1 10186  0.79
      P1  H  7989  7998       L1     3  0.89
      P1  H  7997  8010       L1     1  0.93

> <Gold.Chemscore.Hbond.Weighted>
-15.0946

> <Gold.Chemscore.Metal.Weighted>
-0.0000

> <Gold.Chemscore.Lipo.Weighted>
-4.5086

> <Gold.Chemscore.Internal_Hbond.Weighted>
0.0000

> <Gold.Chemscore.DEClash.Weighted>
0.0270

> <Gold.Chemscore.DEInternal.Weighted>
1.5334

> <Gold.Chemscore.Rot.Weighted>
5.2695

> <Gold.Chemscore.Internal.Correction.Weighted>
   9.000000E+99

> <Gold.Protein.RotatedTorsions>
[ 6907 6896 6895 6894 ] final -154.81 input  -60.11 | X-H torsion
[ 7974 7965 7964 7962 ] final   22.45 input  175.53 | X-H torsion
[ 8008 7997 7996 7995 ] final   82.70 input   59.86 | X-H torsion
[ 10167 10162 10161 10158 ] final -164.12 input  -65.29 | X-H torsion
[ 10718 10713 10712 10709 ] final   21.04 input   66.30 | X-H torsion
[ 10763 10752 10751 10750 ] final -177.32 input  -60.55 | X-H torsion
[ 11005 11000 10999 10996 ] final   92.55 input  -57.11 | X-H torsion

> <Gold.Protein.ActiveResidues>
 VAL166  LYS551  ARG553  GLY616  TRP617  ASP618  TYR619  PRO620  LYS621  CYS622 
 ASP623  PHE694  ASN695  SER759  ASP760  ASP761  ALA762  ILE779  LEU786  VAL792 
 PHE793  MET794  SER795  GLU796  ALA797  LYS798  CYS799  TRP800  GLU811  SER814 

> <Gold.Protein.RotatedAtoms>
  151.2630  133.4292  159.2616 H   0  0  0  0  0  0  0  0  0  0  0  0  # atno 6907 bound_to 6896
  151.0513  134.9675  159.8223 H   0  0  0  0  0  0  0  0  0  0  0  0  # atno 6908 bound_to 6896
  152.5383  134.2585  159.8979 H   0  0  0  0  0  0  0  0  0  0  0  0  # atno 6909 bound_to 6896
  146.2028  139.7883  142.8748 H   0  0  0  0  0  0  0  0  0  0  0  0  # atno 7974 bound_to 7965
  155.9142  140.3425  155.6122 H   0  0  0  0  0  0  0  0  0  0  0  0  # atno 8008 bound_to 7997
  155.7351  140.0800  157.2290 H   0  0  0  0  0  0  0  0  0  0  0  0  # atno 8009 bound_to 7997
  154.4060  140.1581  156.2540 H   0  0  0  0  0  0  0  0  0  0  0  0  # atno 8010 bound_to 7997
  139.6273  144.0508  152.1985 H   0  0  0  0  0  0  0  0  0  0  0  0  # atno 10167 bound_to 10162
  157.1329  130.6599  149.5957 H   0  0  0  0  0  0  0  0  0  0  0  0  # atno 10718 bound_to 10713
  154.5615  135.2820  155.0914 H   0  0  0  0  0  0  0  0  0  0  0  0  # atno 10763 bound_to 10752
  154.2321  135.6372  153.5182 H   0  0  0  0  0  0  0  0  0  0  0  0  # atno 10764 bound_to 10752
  153.0030  135.5540  154.6211 H   0  0  0  0  0  0  0  0  0  0  0  0  # atno 10765 bound_to 10752
  139.8822  134.8739  156.3590 H   0  0  0  0  0  0  0  0  0  0  0  0  # atno 11005 bound_to 11000
  145.3424  141.0290  143.3384 LP  0  0  0  0  0  0  0  0  0  0  0  0  # atno 17320 bound_to 7965
  144.8722  139.5021  143.6762 LP  0  0  0  0  0  0  0  0  0  0  0  0  # atno 17321 bound_to 7965
  140.0164  144.6185  150.7603 LP  0  0  0  0  0  0  0  0  0  0  0  0  # atno 17342 bound_to 10162
  140.7418  143.2823  151.3562 LP  0  0  0  0  0  0  0  0  0  0  0  0  # atno 17343 bound_to 10162
  155.9804  130.4804  150.6770 LP  0  0  0  0  0  0  0  0  0  0  0  0  # atno 17370 bound_to 10713
  157.4376  131.0857  151.0976 LP  0  0  0  0  0  0  0  0  0  0  0  0  # atno 17371 bound_to 10713
  140.9543  133.7430  156.0314 LP  0  0  0  0  0  0  0  0  0  0  0  0  # atno 17394 bound_to 11000
  140.8068  134.3445  157.5423 LP  0  0  0  0  0  0  0  0  0  0  0  0  # atno 17395 bound_to 11000

$$$$
