AV-unprocessed.smi:3165|AV-procd|sdf|12092|dock10
  -GOLD-   2272017523D 1   1.00000     0.00000
 Structure written by MMmdl.
 37 38  0  0  0  0  0  0  0  0  1 V2000
  147.0233  142.1802  155.1087 C   0  0  0  0  0  0  0  0  0  0  0  0
  148.3000  141.3874  155.4314 C   0  0  1  0  0  0  0  0  0  0  0  0
  148.9241  140.7343  154.1717 C   0  0  0  0  0  0  0  0  0  0  0  0
  150.0018  139.8016  154.4627 N   0  0  0  0  0  0  0  0  0  0  0  0
  150.0492  138.4440  154.2225 C   0  0  0  0  0  0  0  0  0  0  0  0
  151.2586  137.9931  154.6676 C   0  0  0  0  0  0  0  0  0  0  0  0
  151.8883  139.1633  155.1760 C   0  0  0  0  0  0  0  0  0  0  0  0
  151.1323  140.2423  155.0565 N   0  0  0  0  0  0  0  0  0  0  0  0
  149.2361  142.2531  156.1568 N   0  0  0  0  0  0  0  0  0  0  0  0
  149.9467  141.6259  157.2712 C   0  0  0  0  0  0  0  0  0  0  0  0
  151.1275  142.4930  157.7327 C   0  0  1  0  0  0  0  0  0  0  0  0
  150.6839  143.8831  158.2341 C   0  0  0  0  0  0  0  0  0  0  0  0
  151.8857  144.6728  158.7648 C   0  0  0  0  0  0  0  0  0  0  0  0
  152.6305  143.8388  159.8121 C   0  0  0  0  0  0  0  0  0  0  0  0
  152.9667  142.4494  159.2475 C   0  0  0  0  0  0  0  0  0  0  0  0
  151.7773  141.8055  158.7995 O   0  0  0  0  0  0  0  0  0  0  0  0
  146.3030  141.5624  154.5719 H   0  0  0  0  0  0  0  0  0  0  0  0
  147.2350  143.0561  154.4945 H   0  0  0  0  0  0  0  0  0  0  0  0
  146.5395  142.5293  156.0215 H   0  0  0  0  0  0  0  0  0  0  0  0
  148.0051  140.5757  156.0976 H   0  0  0  0  0  0  0  0  0  0  0  0
  148.1724  140.2298  153.5642 H   0  0  0  0  0  0  0  0  0  0  0  0
  149.3316  141.5175  153.5313 H   0  0  0  0  0  0  0  0  0  0  0  0
  149.2287  137.9188  153.7562 H   0  0  0  0  0  0  0  0  0  0  0  0
  151.6361  136.9821  154.6350 H   0  0  0  0  0  0  0  0  0  0  0  0
  152.8651  139.2601  155.6266 H   0  0  0  0  0  0  0  0  0  0  0  0
  148.7473  143.0782  156.4889 H   0  0  0  0  0  0  0  0  0  0  0  0
  149.2689  141.4463  158.1067 H   0  0  0  0  0  0  0  0  0  0  0  0
  150.3322  140.6538  156.9645 H   0  0  0  0  0  0  0  0  0  0  0  0
  151.8339  142.5993  156.9069 H   0  0  0  0  0  0  0  0  0  0  0  0
  150.1998  144.4426  157.4330 H   0  0  0  0  0  0  0  0  0  0  0  0
  149.9437  143.7698  159.0275 H   0  0  0  0  0  0  0  0  0  0  0  0
  152.5585  144.9142  157.9409 H   0  0  0  0  0  0  0  0  0  0  0  0
  151.5602  145.6209  159.1936 H   0  0  0  0  0  0  0  0  0  0  0  0
  153.5409  144.3507  160.1253 H   0  0  0  0  0  0  0  0  0  0  0  0
  152.0099  143.7293  160.7021 H   0  0  0  0  0  0  0  0  0  0  0  0
  153.6833  142.5248  158.4282 H   0  0  0  0  0  0  0  0  0  0  0  0
  153.4305  141.8343  160.0188 H   0  0  0  0  0  0  0  0  0  0  0  0
  1  2  1  0  0  0  0
  1 17  1  0  0  0  0
  1 18  1  0  0  0  0
  1 19  1  0  0  0  0
  2  3  1  0  0  0  0
  2  9  1  0  0  0  0
  2 20  1  0  0  0  0
  3  4  1  0  0  0  0
  3 21  1  0  0  0  0
  3 22  1  0  0  0  0
  4  8  1  0  0  0  0
  4  5  1  0  0  0  0
  5  6  2  0  0  0  0
  5 23  1  0  0  0  0
  6  7  1  0  0  0  0
  6 24  1  0  0  0  0
  7  8  2  0  0  0  0
  7 25  1  0  0  0  0
  9 10  1  0  0  0  0
  9 26  1  0  0  0  0
 10 11  1  0  0  0  0
 10 27  1  0  0  0  0
 10 28  1  0  0  0  0
 11 16  1  0  0  0  0
 11 12  1  0  0  0  0
 11 29  1  0  0  0  0
 12 13  1  0  0  0  0
 12 30  1  0  0  0  0
 12 31  1  0  0  0  0
 13 14  1  0  0  0  0
 13 32  1  0  0  0  0
 13 33  1  0  0  0  0
 14 15  1  0  0  0  0
 14 34  1  0  0  0  0
 14 35  1  0  0  0  0
 15 16  1  0  0  0  0
 15 36  1  0  0  0  0
 15 37  1  0  0  0  0
M  END
> <s_m_source_file>
AV-unprocessed.smi

> <i_m_source_file_index>
3165

> <i_lp_mmshare_version>
43012

> <i_f3d_flags>
0

> <s_epik_input>
bjFbY0hdW2NIXVtjSF1uMVtDSDJdW0NAQEhdKFtDSDNdKVtOSF1bQ0gyXVtDQEBIXTJbQ0gyXVtDSDJdW0NIMl1bQ0gyXU8y

> <s_epik_cmdline>
J2VwaWtfcHl0aG9uJywgJy1waCcsICc3LjAnLCAnLXRuJywgJzgnLCAnLW1hJywgJzIwMCcsICctbWV0YWxfYmluZGluZycsICctaW1hZScsICc8aW5maWxlLm1hZT4nLCAnLW9tYWUnLCAnPG91dGZpbGUubWFlPic=

> <r_lp_tautomer_probability>
1

> <r_epik_Ionization_Penalty>
2.51982

> <r_epik_Ionization_Penalty_Charging>
0

> <r_epik_Ionization_Penalty_Neutral>
2.51982

> <r_epik_State_Penalty>
2.68614

> <r_epik_Charging_Adjusted_Penalty>
2.68614

> <i_epik_Tot_Q>
0

> <i_epik_Tot_abs_Q>
0

> <r_epik_Metal_State_Penalty>
2.6861

> <b_epik_Metal_Only>
0

> <s_lp_Force_Field>
OPLS_2005

> <r_lp_Energy>
14.4807

> <b_lp_Chiralities_Consistent>
1

> <s_lp_Variant>
AV-unprocessed.smi:3165-8

> <Gold.Version>
5.8.1

> <Gold.Id.Protein>
6NUR|6NUR_protein|mol2

> <Gold.PLP.Fitness>
43.6035

> <Gold.PLP.PLP>
-38.9642

> <Gold.PLP.part.hbond>
-2.0000

> <Gold.PLP.part.metal>
0.0000

> <Gold.PLP.part.buried>
-1.3809

> <Gold.PLP.part.nonpolar>
-35.4854

> <Gold.PLP.part.repulsive>
0.0511

> <Gold.PLP.ligand.clash>
0.0000

> <Gold.PLP.ligand.torsion>
0.6129

> <Gold.PLP.Chemscore.Hbond>
0.9480

> <Gold.PLP.Chemscore.CHOScore>
1.0000

> <Gold.PLP.Chemscore.Metal>
0.0000

> <Gold.Chemscore.Hbonds>
donor molecule, donor type, donor heavy atom, donor atom, acceptor molecule, acceptor atom, score
      L1  H     9    26       P1  8028  0.46
      P1  H  7989  7998       L1     8  0.45
      L1  C     5    23       P1  7948  1.00

> <Gold.PLP.Chemscore.Internal.Correction>
0.0211

> <Gold.Rescore>
     Score         DG    S(hbond)    S(metal)    S(lipo)     H(rot)  DE(clash)    DE(int)     intcor
     15.63     -17.49       1.25        0.00     101.48       1.57       0.09       1.77       ----

> <Gold.Chemscore.Fitness>
15.6277

> <Gold.Chemscore.DG>
-17.4876

> <Gold.Chemscore.ZeroCoef>
-5.4800

> <Gold.Chemscore.Hbond>
1.2460

> <Gold.Chemscore.Metal>
0.0000

> <Gold.Chemscore.Lipo>
101.4800

> <Gold.Chemscore.Internal_Hbond>
0.0000

> <Gold.Chemscore.DEClash>
0.0887

> <Gold.Chemscore.DEInternal>
1.7712

> <Gold.Chemscore.Rot>
1.5731

> <Gold.Chemscore.Internal.Correction>
   9.000000E+99

> <Gold.Chemscore.Hbonds>
donor molecule, donor type, donor heavy atom, donor atom, acceptor molecule, acceptor atom, score
      L1  H     9    26       P1  8028  0.45
      P1  H  7989  7998       L1     8  0.01

> <Gold.Chemscore.Hbond.Weighted>
-4.1617

> <Gold.Chemscore.Metal.Weighted>
-0.0000

> <Gold.Chemscore.Lipo.Weighted>
-11.8732

> <Gold.Chemscore.Internal_Hbond.Weighted>
0.0000

> <Gold.Chemscore.DEClash.Weighted>
0.0887

> <Gold.Chemscore.DEInternal.Weighted>
1.7712

> <Gold.Chemscore.Rot.Weighted>
4.0273

> <Gold.Chemscore.Internal.Correction.Weighted>
   9.000000E+99

> <Gold.Protein.RotatedTorsions>
[ 6907 6896 6895 6894 ] final  169.27 input  -60.11 | X-H torsion
[ 7974 7965 7964 7962 ] final   17.14 input  175.53 | X-H torsion
[ 8008 7997 7996 7995 ] final  100.16 input   59.86 | X-H torsion
[ 10167 10162 10161 10158 ] final   96.73 input  -65.29 | X-H torsion
[ 10718 10713 10712 10709 ] final -156.17 input   66.30 | X-H torsion
[ 10763 10752 10751 10750 ] final -130.50 input  -60.55 | X-H torsion
[ 11005 11000 10999 10996 ] final   42.92 input  -57.11 | X-H torsion

> <Gold.Protein.ActiveResidues>
 VAL166  LYS551  ARG553  GLY616  TRP617  ASP618  TYR619  PRO620  LYS621  CYS622 
 ASP623  PHE694  ASN695  SER759  ASP760  ASP761  ALA762  ILE779  LEU786  VAL792 
 PHE793  MET794  SER795  GLU796  ALA797  LYS798  CYS799  TRP800  GLU811  SER814 

> <Gold.Protein.RotatedAtoms>
  151.8346  133.3414  159.3623 H   0  0  0  0  0  0  0  0  0  0  0  0  # atno 6907 bound_to 6896
  150.7253  134.5450  159.5775 H   0  0  0  0  0  0  0  0  0  0  0  0  # atno 6908 bound_to 6896
  152.2911  134.7721  160.0429 H   0  0  0  0  0  0  0  0  0  0  0  0  # atno 6909 bound_to 6896
  146.2228  139.8645  142.8598 H   0  0  0  0  0  0  0  0  0  0  0  0  # atno 7974 bound_to 7965
  156.1176  140.3217  155.8161 H   0  0  0  0  0  0  0  0  0  0  0  0  # atno 8008 bound_to 7997
  155.4562  140.0536  157.3013 H   0  0  0  0  0  0  0  0  0  0  0  0  # atno 8009 bound_to 7997
  154.4804  140.2050  155.9792 H   0  0  0  0  0  0  0  0  0  0  0  0  # atno 8010 bound_to 7997
  139.7867  144.6868  150.9948 H   0  0  0  0  0  0  0  0  0  0  0  0  # atno 10167 bound_to 10162
  156.5228  130.8486  151.2688 H   0  0  0  0  0  0  0  0  0  0  0  0  # atno 10718 bound_to 10713
  154.8755  135.3860  154.4093 H   0  0  0  0  0  0  0  0  0  0  0  0  # atno 10763 bound_to 10752
  153.4808  135.7030  153.5944 H   0  0  0  0  0  0  0  0  0  0  0  0  # atno 10764 bound_to 10752
  153.4360  135.3867  155.2167 H   0  0  0  0  0  0  0  0  0  0  0  0  # atno 10765 bound_to 10752
  140.1694  134.4241  155.8267 H   0  0  0  0  0  0  0  0  0  0  0  0  # atno 11005 bound_to 11000
  145.2670  141.0096  143.3793 LP  0  0  0  0  0  0  0  0  0  0  0  0  # atno 17320 bound_to 7965
  144.9253  139.4362  143.6521 LP  0  0  0  0  0  0  0  0  0  0  0  0  # atno 17321 bound_to 7965
  140.7820  143.4425  151.0531 LP  0  0  0  0  0  0  0  0  0  0  0  0  # atno 17342 bound_to 10162
  139.8103  143.7960  152.3170 LP  0  0  0  0  0  0  0  0  0  0  0  0  # atno 17343 bound_to 10162
  157.7434  130.9911  150.2590 LP  0  0  0  0  0  0  0  0  0  0  0  0  # atno 17370 bound_to 10713
  156.3133  130.3775  149.7641 LP  0  0  0  0  0  0  0  0  0  0  0  0  # atno 17371 bound_to 10713
  141.2216  133.6949  156.7736 LP  0  0  0  0  0  0  0  0  0  0  0  0  # atno 17394 bound_to 11000
  140.2395  134.8624  157.3559 LP  0  0  0  0  0  0  0  0  0  0  0  0  # atno 17395 bound_to 11000

$$$$
