AV-unprocessed.smi:1076|AV-procd|sdf|4697|dock6
  -GOLD-   22720 3213D 1   1.00000     0.00000
 Structure written by MMmdl.
 45 46  0  0  0  0  0  0  0  0  2 V2000
  144.4066  132.6997  150.2875 C   0  0  0  0  0  0  0  0  0  0  0  0
  145.0629  133.8071  151.0593 C   0  0  0  0  0  0  0  0  0  0  0  0
  145.8298  133.7023  152.2538 C   0  0  0  0  0  0  0  0  0  0  0  0
  146.2568  134.8744  152.6942 N   0  0  0  0  0  0  0  0  0  0  0  0
  145.7857  135.7654  151.7954 N   0  0  0  0  0  0  0  0  0  0  0  0
  146.0385  137.1844  151.9852 C   0  0  0  0  0  0  0  0  0  0  0  0
  145.7676  137.6236  153.4372 C   0  0  2  0  0  0  0  0  0  0  0  0
  144.3462  137.2551  153.8865 C   0  0  0  0  0  0  0  0  0  0  0  0
  146.0014  139.0780  153.5705 N   0  3  0  0  0  0  0  0  0  0  0  0
  147.4141  139.5135  153.5203 C   0  0  0  0  0  0  0  0  0  0  0  0
  148.1296  139.2151  154.8535 C   0  0  0  0  0  0  0  0  0  0  0  0
  149.6309  139.5719  154.8492 C   0  0  0  0  0  0  0  0  0  0  0  0
  149.9619  140.7441  154.6623 O   0  0  0  0  0  0  0  0  0  0  0  0
  150.5437  138.5981  155.0750 N   0  0  0  0  0  0  0  0  0  0  0  0
  151.9670  138.8709  155.2909 C   0  0  0  0  0  0  0  0  0  0  0  0
  152.3079  138.4951  156.7448 C   0  0  0  0  0  0  0  0  0  0  0  0
  151.9833  137.1259  156.9780 O   0  0  0  0  0  0  0  0  0  0  0  0
  150.6117  136.8210  156.7333 C   0  0  0  0  0  0  0  0  0  0  0  0
  150.2598  137.1751  155.2777 C   0  0  0  0  0  0  0  0  0  0  0  0
  145.0641  135.1477  150.7961 C   0  0  0  0  0  0  0  0  0  0  0  0
  144.8526  131.7304  150.5118 H   0  0  0  0  0  0  0  0  0  0  0  0
  144.4923  132.8505  149.2114 H   0  0  0  0  0  0  0  0  0  0  0  0
  143.3440  132.6258  150.5195 H   0  0  0  0  0  0  0  0  0  0  0  0
  146.0805  132.8140  152.8144 H   0  0  0  0  0  0  0  0  0  0  0  0
  147.0689  137.4039  151.7001 H   0  0  0  0  0  0  0  0  0  0  0  0
  145.3986  137.7381  151.2971 H   0  0  0  0  0  0  0  0  0  0  0  0
  146.4806  137.0965  154.0732 H   0  0  0  0  0  0  0  0  0  0  0  0
  144.1732  136.1825  153.7939 H   0  0  0  0  0  0  0  0  0  0  0  0
  143.5941  137.7656  153.2838 H   0  0  0  0  0  0  0  0  0  0  0  0
  144.1767  137.5235  154.9296 H   0  0  0  0  0  0  0  0  0  0  0  0
  145.5449  139.5042  152.7755 H   0  0  0  0  0  0  0  0  0  0  0  0
  147.9121  138.9990  152.6983 H   0  0  0  0  0  0  0  0  0  0  0  0
  147.4813  140.5807  153.3032 H   0  0  0  0  0  0  0  0  0  0  0  0
  147.6228  139.7713  155.6428 H   0  0  0  0  0  0  0  0  0  0  0  0
  148.0294  138.1557  155.0917 H   0  0  0  0  0  0  0  0  0  0  0  0
  152.5631  138.2769  154.5965 H   0  0  0  0  0  0  0  0  0  0  0  0
  152.2364  139.9120  155.1083 H   0  0  0  0  0  0  0  0  0  0  0  0
  153.3706  138.6447  156.9357 H   0  0  0  0  0  0  0  0  0  0  0  0
  151.7642  139.1288  157.4471 H   0  0  0  0  0  0  0  0  0  0  0  0
  150.4482  135.7588  156.9150 H   0  0  0  0  0  0  0  0  0  0  0  0
  149.9764  137.3681  157.4319 H   0  0  0  0  0  0  0  0  0  0  0  0
  149.2314  136.8949  155.0557 H   0  0  0  0  0  0  0  0  0  0  0  0
  150.8747  136.5871  154.5947 H   0  0  0  0  0  0  0  0  0  0  0  0
  144.6058  135.7086  149.9949 H   0  0  0  0  0  0  0  0  0  0  0  0
  145.5593  139.4247  154.4096 H   0  0  0  0  0  0  0  0  0  0  0  0
  1  2  1  0  0  0  0
  1 21  1  0  0  0  0
  1 22  1  0  0  0  0
  1 23  1  0  0  0  0
  2 20  2  0  0  0  0
  2  3  1  0  0  0  0
  3  4  2  0  0  0  0
  3 24  1  0  0  0  0
  4  5  1  0  0  0  0
  5  6  1  0  0  0  0
  5 20  1  0  0  0  0
  6  7  1  0  0  0  0
  6 25  1  0  0  0  0
  6 26  1  0  0  0  0
  7  8  1  0  0  0  0
  7  9  1  0  0  0  0
  7 27  1  0  0  0  0
  8 28  1  0  0  0  0
  8 29  1  0  0  0  0
  8 30  1  0  0  0  0
  9 10  1  0  0  0  0
  9 31  1  0  0  0  0
  9 45  1  0  0  0  0
 10 11  1  0  0  0  0
 10 32  1  0  0  0  0
 10 33  1  0  0  0  0
 11 12  1  0  0  0  0
 11 34  1  0  0  0  0
 11 35  1  0  0  0  0
 12 13  2  0  0  0  0
 12 14  1  0  0  0  0
 14 19  1  0  0  0  0
 14 15  1  0  0  0  0
 15 16  1  0  0  0  0
 15 36  1  0  0  0  0
 15 37  1  0  0  0  0
 16 17  1  0  0  0  0
 16 38  1  0  0  0  0
 16 39  1  0  0  0  0
 17 18  1  0  0  0  0
 18 19  1  0  0  0  0
 18 40  1  0  0  0  0
 18 41  1  0  0  0  0
 19 42  1  0  0  0  0
 19 43  1  0  0  0  0
 20 44  1  0  0  0  0
M  CHG  1   9   1
M  END
> <s_m_source_file>
AV-unprocessed.smi

> <i_m_source_file_index>
1076

> <i_lp_mmshare_version>
43012

> <i_f3d_flags>
0

> <s_epik_input>
W0NIM11jMVtjSF1ubihbY0hdMSlbQ0gyXVtDQEhdKFtDSDNdKVtOSF1bQ0gyXVtDSDJdQyg9TylOMltDSDJdW0NIMl1PW0NIMl1bQ0gyXTI=

> <s_epik_cmdline>
J2VwaWtfcHl0aG9uJywgJy1waCcsICc3LjAnLCAnLXRuJywgJzgnLCAnLW1hJywgJzIwMCcsICctbWV0YWxfYmluZGluZycsICctaW1hZScsICc8aW5maWxlLm1hZT4nLCAnLW9tYWUnLCAnPG91dGZpbGUubWFlPic=

> <r_lp_tautomer_probability>
1

> <r_epik_Ionization_Penalty>
0.00797518

> <r_epik_Ionization_Penalty_Charging>
0.0079672

> <r_epik_Ionization_Penalty_Neutral>
7.97619e-06

> <r_epik_State_Penalty>
0.00597998

> <r_epik_Charging_Adjusted_Penalty>
0.0139472

> <i_epik_Tot_Q>
1

> <i_epik_Tot_abs_Q>
1

> <r_epik_Metal_State_Penalty>
0.00598062

> <b_epik_Metal_Only>
0

> <s_lp_Force_Field>
OPLS_2005

> <r_lp_Energy>
21.8291

> <b_lp_Chiralities_Consistent>
1

> <s_lp_Variant>
AV-unprocessed.smi:1076-1

> <Gold.Version>
5.8.1

> <Gold.Id.Protein>
6NUR|6NUR_protein|mol2

> <Gold.PLP.Fitness>
49.0727

> <Gold.PLP.PLP>
-35.3515

> <Gold.PLP.part.hbond>
-3.0000

> <Gold.PLP.part.metal>
0.0000

> <Gold.PLP.part.buried>
-4.6137

> <Gold.PLP.part.nonpolar>
-29.9340

> <Gold.PLP.part.repulsive>
0.7883

> <Gold.PLP.ligand.clash>
0.0000

> <Gold.PLP.ligand.torsion>
0.3419

> <Gold.PLP.Chemscore.Hbond>
3.7440

> <Gold.PLP.Chemscore.CHOScore>
1.0000

> <Gold.PLP.Chemscore.Metal>
0.0000

> <Gold.Chemscore.Hbonds>
donor molecule, donor type, donor heavy atom, donor atom, acceptor molecule, acceptor atom, score
      L1  H     9    31       P1 10175  1.10
      P1  H  7989  7998       L1    13  0.77

> <Gold.PLP.Chemscore.Internal.Correction>
0.1730

> <Gold.Rescore>
     Score         DG    S(hbond)    S(metal)    S(lipo)     H(rot)  DE(clash)    DE(int)     intcor
     16.19     -16.86       2.44        0.00      70.95       1.98       0.28       0.39       ----

> <Gold.Chemscore.Fitness>
16.1912

> <Gold.Chemscore.DG>
-16.8590

> <Gold.Chemscore.ZeroCoef>
-5.4800

> <Gold.Chemscore.Hbond>
2.4419

> <Gold.Chemscore.Metal>
0.0000

> <Gold.Chemscore.Lipo>
70.9516

> <Gold.Chemscore.Internal_Hbond>
0.0000

> <Gold.Chemscore.DEClash>
0.2791

> <Gold.Chemscore.DEInternal>
0.3887

> <Gold.Chemscore.Rot>
1.9837

> <Gold.Chemscore.Internal.Correction>
   9.000000E+99

> <Gold.Chemscore.Hbonds>
donor molecule, donor type, donor heavy atom, donor atom, acceptor molecule, acceptor atom, score
      L1  H     9    31       P1 10175  0.54
      P1  H  7989  7998       L1    13  0.58

> <Gold.Chemscore.Hbond.Weighted>
-8.1558

> <Gold.Chemscore.Metal.Weighted>
-0.0000

> <Gold.Chemscore.Lipo.Weighted>
-8.3013

> <Gold.Chemscore.Internal_Hbond.Weighted>
0.0000

> <Gold.Chemscore.DEClash.Weighted>
0.2791

> <Gold.Chemscore.DEInternal.Weighted>
0.3887

> <Gold.Chemscore.Rot.Weighted>
5.0782

> <Gold.Chemscore.Internal.Correction.Weighted>
   9.000000E+99

> <Gold.Protein.RotatedTorsions>
[ 6907 6896 6895 6894 ] final -120.71 input  -60.11 | X-H torsion
[ 7974 7965 7964 7962 ] final  -49.53 input  175.53 | X-H torsion
[ 8008 7997 7996 7995 ] final -108.20 input   59.86 | X-H torsion
[ 10167 10162 10161 10158 ] final  -30.99 input  -65.29 | X-H torsion
[ 10718 10713 10712 10709 ] final  161.56 input   66.30 | X-H torsion
[ 10763 10752 10751 10750 ] final  -38.68 input  -60.55 | X-H torsion
[ 11005 11000 10999 10996 ] final   89.71 input  -57.11 | X-H torsion

> <Gold.Protein.ActiveResidues>
 VAL166  LYS551  ARG553  GLY616  TRP617  ASP618  TYR619  PRO620  LYS621  CYS622 
 ASP623  PHE694  ASN695  SER759  ASP760  ASP761  ALA762  ILE779  LEU786  VAL792 
 PHE793  MET794  SER795  GLU796  ALA797  LYS798  CYS799  TRP800  GLU811  SER814 

> <Gold.Protein.RotatedAtoms>
  150.8418  133.7924  159.3057 H   0  0  0  0  0  0  0  0  0  0  0  0  # atno 6907 bound_to 6896
  151.5623  135.1063  159.9985 H   0  0  0  0  0  0  0  0  0  0  0  0  # atno 6908 bound_to 6896
  152.4480  133.7531  159.6761 H   0  0  0  0  0  0  0  0  0  0  0  0  # atno 6909 bound_to 6896
  145.9396  140.7675  142.9559 H   0  0  0  0  0  0  0  0  0  0  0  0  # atno 7974 bound_to 7965
  154.9407  140.0403  157.2095 H   0  0  0  0  0  0  0  0  0  0  0  0  # atno 8008 bound_to 7997
  154.8072  140.2862  155.5857 H   0  0  0  0  0  0  0  0  0  0  0  0  # atno 8009 bound_to 7997
  156.2968  140.2544  156.2952 H   0  0  0  0  0  0  0  0  0  0  0  0  # atno 8010 bound_to 7997
  140.7242  143.3806  151.1608 H   0  0  0  0  0  0  0  0  0  0  0  0  # atno 10167 bound_to 10162
  157.1348  131.0525  151.2355 H   0  0  0  0  0  0  0  0  0  0  0  0  # atno 10718 bound_to 10713
  153.9168  135.6786  153.4749 H   0  0  0  0  0  0  0  0  0  0  0  0  # atno 10763 bound_to 10752
  153.1049  135.4810  154.8931 H   0  0  0  0  0  0  0  0  0  0  0  0  # atno 10764 bound_to 10752
  154.7499  135.3182  154.8533 H   0  0  0  0  0  0  0  0  0  0  0  0  # atno 10765 bound_to 10752
  139.8870  134.8568  156.3181 H   0  0  0  0  0  0  0  0  0  0  0  0  # atno 11005 bound_to 11000
  144.6777  140.2258  143.7361 LP  0  0  0  0  0  0  0  0  0  0  0  0  # atno 17320 bound_to 7965
  145.8318  139.2089  143.1878 LP  0  0  0  0  0  0  0  0  0  0  0  0  # atno 17321 bound_to 7965
  139.7394  143.8948  152.3045 LP  0  0  0  0  0  0  0  0  0  0  0  0  # atno 17342 bound_to 10162
  139.8764  144.7041  150.8928 LP  0  0  0  0  0  0  0  0  0  0  0  0  # atno 17343 bound_to 10162
  157.4360  130.7517  149.7030 LP  0  0  0  0  0  0  0  0  0  0  0  0  # atno 17370 bound_to 10713
  155.9800  130.4033  150.3551 LP  0  0  0  0  0  0  0  0  0  0  0  0  # atno 17371 bound_to 10713
  140.9805  133.7270  156.0665 LP  0  0  0  0  0  0  0  0  0  0  0  0  # atno 17394 bound_to 11000
  140.7755  134.3784  157.5499 LP  0  0  0  0  0  0  0  0  0  0  0  0  # atno 17395 bound_to 11000

$$$$
