AV-unprocessed.smi:102|AV-procd|sdf|963|dock2
  -GOLD-   2262017503D 1   1.00000     0.00000
 Structure written by MMmdl.
 43 44  0  0  0  0  0  0  0  0  2 V2000
  148.7150  141.2446  154.1060 C   0  0  0  0  0  0  0  0  0  0  0  0
  148.9985  139.7520  154.0028 C   0  0  0  0  0  0  0  0  0  0  0  0
  148.1580  138.9649  153.5675 O   0  0  0  0  0  0  0  0  0  0  0  0
  150.2266  139.4360  154.4363 O   0  0  0  0  0  0  0  0  0  0  0  0
  150.7265  138.1204  154.2533 C   0  0  0  0  0  0  0  0  0  0  0  0
  151.4356  137.6189  155.5224 C   0  0  2  0  0  0  0  0  0  0  0  0
  151.7548  136.2348  155.3862 O   0  0  0  0  0  0  0  0  0  0  0  0
  151.1120  135.4816  156.3735 C   0  0  2  0  0  0  0  0  0  0  0  0
  150.5092  134.2449  155.7483 N   0  0  0  0  0  0  0  0  0  0  0  0
  149.6882  134.3390  154.6373 C   0  0  0  0  0  0  0  0  0  0  0  0
  149.1147  133.2457  154.0958 C   0  0  0  0  0  0  0  0  0  0  0  0
  148.3207  133.3712  153.0185 F   0  0  0  0  0  0  0  0  0  0  0  0
  149.3603  131.9322  154.6881 C   0  0  0  0  0  0  0  0  0  0  0  0
  148.8344  130.9380  154.1902 O   0  0  0  0  0  0  0  0  0  0  0  0
  150.1732  131.8687  155.7823 N   0  5  0  0  0  0  0  0  0  0  0  0
  150.7518  132.9741  156.3373 C   0  0  0  0  0  0  0  0  0  0  0  0
  151.4748  132.9251  157.3323 O   0  0  0  0  0  0  0  0  0  0  0  0
  150.0196  136.3629  156.9806 C   0  0  1  0  0  0  0  0  0  0  0  0
  149.7683  136.0176  158.3368 O   0  0  0  0  0  0  0  0  0  0  0  0
  148.5789  136.2934  158.8929 C   0  0  0  0  0  0  0  0  0  0  0  0
  148.6297  136.2584  160.4141 C   0  0  0  0  0  0  0  0  0  0  0  0
  147.5386  136.5549  158.2885 O   0  0  0  0  0  0  0  0  0  0  0  0
  150.6033  137.7578  156.8057 C   0  0  1  0  0  0  0  0  0  0  0  0
  151.4584  138.0858  157.8980 O   0  0  0  0  0  0  0  0  0  0  0  0
  152.2938  139.1355  157.8163 C   0  0  0  0  0  0  0  0  0  0  0  0
  153.0412  139.3832  159.1197 C   0  0  0  0  0  0  0  0  0  0  0  0
  152.4759  139.8426  156.8252 O   0  0  0  0  0  0  0  0  0  0  0  0
  149.0614  141.6326  155.0645 H   0  0  0  0  0  0  0  0  0  0  0  0
  147.6447  141.4356  154.0241 H   0  0  0  0  0  0  0  0  0  0  0  0
  149.2262  141.7830  153.3076 H   0  0  0  0  0  0  0  0  0  0  0  0
  149.9152  137.4381  153.9952 H   0  0  0  0  0  0  0  0  0  0  0  0
  151.4253  138.1241  153.4160 H   0  0  0  0  0  0  0  0  0  0  0  0
  152.3725  138.1699  155.6124 H   0  0  0  0  0  0  0  0  0  0  0  0
  151.8645  135.1505  157.0913 H   0  0  0  0  0  0  0  0  0  0  0  0
  149.4944  135.2986  154.1849 H   0  0  0  0  0  0  0  0  0  0  0  0
  149.1227  136.2551  156.3683 H   0  0  0  0  0  0  0  0  0  0  0  0
  148.9873  135.2873  160.7575 H   0  0  0  0  0  0  0  0  0  0  0  0
  147.6390  136.4304  160.8355 H   0  0  0  0  0  0  0  0  0  0  0  0
  149.3043  137.0288  160.7879 H   0  0  0  0  0  0  0  0  0  0  0  0
  149.8075  138.4982  156.7097 H   0  0  0  0  0  0  0  0  0  0  0  0
  152.3376  139.4806  159.9464 H   0  0  0  0  0  0  0  0  0  0  0  0
  153.6300  140.2985  159.0565 H   0  0  0  0  0  0  0  0  0  0  0  0
  153.7144  138.5528  159.3328 H   0  0  0  0  0  0  0  0  0  0  0  0
  1  2  1  0  0  0  0
  1 28  1  0  0  0  0
  1 29  1  0  0  0  0
  1 30  1  0  0  0  0
  2  3  2  0  0  0  0
  2  4  1  0  0  0  0
  4  5  1  0  0  0  0
  5  6  1  0  0  0  0
  5 31  1  0  0  0  0
  5 32  1  0  0  0  0
  6 23  1  0  0  0  0
  6  7  1  0  0  0  0
  6 33  1  0  0  0  0
  7  8  1  0  0  0  0
  8  9  1  0  0  0  0
  8 18  1  0  0  0  0
  8 34  1  0  0  0  0
  9 16  1  0  0  0  0
  9 10  1  0  0  0  0
 10 11  2  0  0  0  0
 10 35  1  0  0  0  0
 11 12  1  0  0  0  0
 11 13  1  0  0  0  0
 13 14  2  0  0  0  0
 13 15  1  0  0  0  0
 15 16  1  0  0  0  0
 16 17  2  0  0  0  0
 18 19  1  0  0  0  0
 18 23  1  0  0  0  0
 18 36  1  0  0  0  0
 19 20  1  0  0  0  0
 20 21  1  0  0  0  0
 20 22  2  0  0  0  0
 21 37  1  0  0  0  0
 21 38  1  0  0  0  0
 21 39  1  0  0  0  0
 23 24  1  0  0  0  0
 23 40  1  0  0  0  0
 24 25  1  0  0  0  0
 25 26  1  0  0  0  0
 25 27  2  0  0  0  0
 26 41  1  0  0  0  0
 26 42  1  0  0  0  0
 26 43  1  0  0  0  0
M  CHG  1  15  -1
M  END
> <s_m_source_file>
AV-unprocessed.smi

> <i_m_source_file_index>
102

> <i_lp_mmshare_version>
43012

> <i_f3d_flags>
0

> <s_epik_input>
W0NIM11DKD1PKU9bQ0gyXVtDQEBIXTFPW0NASF0oW0NAQEhdKE9DKD1PKVtDSDNdKVtDQEhdMU9DKD1PKVtDSDNdKW4yW2NIXWMoRiljKD1PKVtuSF1jMj1P

> <s_epik_cmdline>
J2VwaWtfcHl0aG9uJywgJy1waCcsICc3LjAnLCAnLXRuJywgJzgnLCAnLW1hJywgJzIwMCcsICctbWV0YWxfYmluZGluZycsICctaW1hZScsICc8aW5maWxlLm1hZT4nLCAnLW9tYWUnLCAnPG91dGZpbGUubWFlPic=

> <r_epik_Ionization_Penalty>
1.40304

> <r_epik_Ionization_Penalty_Charging>
1.43915e-08

> <r_epik_Ionization_Penalty_Neutral>
1.40304

> <r_epik_State_Penalty>
1.48536

> <r_epik_Charging_Adjusted_Penalty>
1.48536

> <i_epik_Tot_Q>
-1

> <i_epik_Tot_abs_Q>
1

> <r_epik_Metal_State_Penalty>
0.00663881

> <b_epik_Metal_Only>
0

> <s_epik_Chemistry_Notes>
This compound has an ester and may undergo hydrolysis at high or low pH. This compound contains an acetal/aminal-like group ( X-CH(R)-Y where X, Y are N, S, or O) that may be acid/base labile, releasing an aldehyde.

> <s_lp_Force_Field>
OPLS_2005

> <r_lp_Energy>
27.0192

> <b_lp_Chiralities_Consistent>
1

> <s_lp_Variant>
AV-unprocessed.smi:102-19

> <Gold.Version>
5.8.1

> <Gold.Id.Protein>
6NUR|6NUR_protein|mol2

> <Gold.PLP.Fitness>
46.3483

> <Gold.PLP.PLP>
-37.0217

> <Gold.PLP.part.hbond>
-4.4187

> <Gold.PLP.part.metal>
0.0000

> <Gold.PLP.part.buried>
-3.4573

> <Gold.PLP.part.nonpolar>
-30.1165

> <Gold.PLP.part.repulsive>
1.2936

> <Gold.PLP.ligand.clash>
0.0000

> <Gold.PLP.ligand.torsion>
1.1866

> <Gold.PLP.Chemscore.Hbond>
2.8560

> <Gold.PLP.Chemscore.CHOScore>
1.0000

> <Gold.PLP.Chemscore.Metal>
0.0000

> <Gold.Chemscore.Hbonds>
donor molecule, donor type, donor heavy atom, donor atom, acceptor molecule, acceptor atom, score
      P1  H  6896  6909       L1    17  0.88
      P1  H  7997  8008       L1    27  0.98
      P1  H 10752 10764       L1     7  1.00
      L1  C    10    35       P1  7948  1.00

> <Gold.PLP.Chemscore.Internal.Correction>
0.1317

> <Gold.Rescore>
     Score         DG    S(hbond)    S(metal)    S(lipo)     H(rot)  DE(clash)    DE(int)     intcor
      7.27     -10.65       2.85        0.00      50.29       4.00       1.09       2.29       ----

> <Gold.Chemscore.Fitness>
7.2749

> <Gold.Chemscore.DG>
-10.6549

> <Gold.Chemscore.ZeroCoef>
-5.4800

> <Gold.Chemscore.Hbond>
2.8497

> <Gold.Chemscore.Metal>
0.0000

> <Gold.Chemscore.Lipo>
50.2924

> <Gold.Chemscore.Internal_Hbond>
0.0000

> <Gold.Chemscore.DEClash>
1.0874

> <Gold.Chemscore.DEInternal>
2.2925

> <Gold.Chemscore.Rot>
3.9951

> <Gold.Chemscore.Internal.Correction>
   9.000000E+99

> <Gold.Chemscore.Hbonds>
donor molecule, donor type, donor heavy atom, donor atom, acceptor molecule, acceptor atom, score
      P1  H  6896  6909       L1    17  0.86
      P1  H  7997  8008       L1    27  0.36
      P1  H 10752 10764       L1     7  0.78

> <Gold.Chemscore.Hbond.Weighted>
-9.5181

> <Gold.Chemscore.Metal.Weighted>
-0.0000

> <Gold.Chemscore.Lipo.Weighted>
-5.8842

> <Gold.Chemscore.Internal_Hbond.Weighted>
0.0000

> <Gold.Chemscore.DEClash.Weighted>
1.0874

> <Gold.Chemscore.DEInternal.Weighted>
2.2925

> <Gold.Chemscore.Rot.Weighted>
10.2274

> <Gold.Chemscore.Internal.Correction.Weighted>
   9.000000E+99

> <Gold.Protein.RotatedTorsions>
[ 6907 6896 6895 6894 ] final  -51.27 input  -60.11 | X-H torsion
[ 7974 7965 7964 7962 ] final  -98.61 input  175.53 | X-H torsion
[ 8008 7997 7996 7995 ] final  -72.74 input   59.86 | X-H torsion
[ 10167 10162 10161 10158 ] final   50.15 input  -65.29 | X-H torsion
[ 10718 10713 10712 10709 ] final -143.89 input   66.30 | X-H torsion
[ 10763 10752 10751 10750 ] final  -42.42 input  -60.55 | X-H torsion
[ 11005 11000 10999 10996 ] final  178.89 input  -57.11 | X-H torsion

> <Gold.Protein.ActiveResidues>
 VAL166  LYS551  ARG553  GLY616  TRP617  ASP618  TYR619  PRO620  LYS621  CYS622 
 ASP623  PHE694  ASN695  SER759  ASP760  ASP761  ALA762  ILE779  LEU786  VAL792 
 PHE793  MET794  SER795  GLU796  ALA797  LYS798  CYS799  TRP800  GLU811  SER814 

> <Gold.Protein.RotatedAtoms>
  150.8627  134.7983  159.7094 H   0  0  0  0  0  0  0  0  0  0  0  0  # atno 6907 bound_to 6896
  152.4659  134.5073  159.9753 H   0  0  0  0  0  0  0  0  0  0  0  0  # atno 6908 bound_to 6896
  151.5175  133.3434  159.2931 H   0  0  0  0  0  0  0  0  0  0  0  0  # atno 6909 bound_to 6896
  145.3184  140.9416  143.2729 H   0  0  0  0  0  0  0  0  0  0  0  0  # atno 7974 bound_to 7965
  154.5190  140.0792  156.8136 H   0  0  0  0  0  0  0  0  0  0  0  0  # atno 8008 bound_to 7997
  155.3617  140.3418  155.4223 H   0  0  0  0  0  0  0  0  0  0  0  0  # atno 8009 bound_to 7997
  156.1660  140.1604  156.8518 H   0  0  0  0  0  0  0  0  0  0  0  0  # atno 8010 bound_to 7997
  140.2754  144.3218  150.6278 H   0  0  0  0  0  0  0  0  0  0  0  0  # atno 10167 bound_to 10162
  156.3634  130.7750  151.1921 H   0  0  0  0  0  0  0  0  0  0  0  0  # atno 10718 bound_to 10713
  153.9788  135.6719  153.4749 H   0  0  0  0  0  0  0  0  0  0  0  0  # atno 10763 bound_to 10752
  153.0758  135.4949  154.8398 H   0  0  0  0  0  0  0  0  0  0  0  0  # atno 10764 bound_to 10752
  154.7177  135.3110  154.9059 H   0  0  0  0  0  0  0  0  0  0  0  0  # atno 10765 bound_to 10752
  140.4001  134.6785  157.4557 H   0  0  0  0  0  0  0  0  0  0  0  0  # atno 11005 bound_to 11000
  144.8959  139.4713  143.6656 LP  0  0  0  0  0  0  0  0  0  0  0  0  # atno 17320 bound_to 7965
  146.3092  139.7685  142.9033 LP  0  0  0  0  0  0  0  0  0  0  0  0  # atno 17321 bound_to 7965
  140.5855  143.2170  151.7349 LP  0  0  0  0  0  0  0  0  0  0  0  0  # atno 17342 bound_to 10162
  139.4977  144.4016  152.0175 LP  0  0  0  0  0  0  0  0  0  0  0  0  # atno 17343 bound_to 10162
  157.7476  131.0393  150.4545 LP  0  0  0  0  0  0  0  0  0  0  0  0  # atno 17370 bound_to 10713
  156.4759  130.4063  149.6490 LP  0  0  0  0  0  0  0  0  0  0  0  0  # atno 17371 bound_to 10713
  140.0342  134.6361  155.9065 LP  0  0  0  0  0  0  0  0  0  0  0  0  # atno 17394 bound_to 11000
  141.1860  133.6556  156.5220 LP  0  0  0  0  0  0  0  0  0  0  0  0  # atno 17395 bound_to 11000

$$$$
