AV-unprocessed.smi:1776|AV-procd|sdf|7174|dock6
  -GOLD-   22720 8413D 1   1.00000     0.00000
 Structure written by MMmdl.
 31 32  0  0  0  0  0  0  0  0  1 V2000
  147.7828  133.0754  154.2418 O   0  0  0  0  0  0  0  0  0  0  0  0
  147.7840  134.2897  154.4432 C   0  0  0  0  0  0  0  0  0  0  0  0
  147.0661  135.1925  153.7444 N   0  0  0  0  0  0  0  0  0  0  0  0
  146.1738  135.0120  152.6728 C   0  0  0  0  0  0  0  0  0  0  0  0
  145.7631  133.8120  152.1836 C   0  0  0  0  0  0  0  0  0  0  0  0
  144.8298  133.7089  151.0742 C   0  0  0  0  0  0  0  0  0  0  0  0
  144.4364  132.3603  150.4910 C   0  0  0  0  0  0  0  0  0  0  0  0
  145.0584  131.3597  151.1163 F   0  0  0  0  0  0  0  0  0  0  0  0
  143.1217  132.1633  150.5910 F   0  0  0  0  0  0  0  0  0  0  0  0
  144.7650  132.3124  149.2009 F   0  0  0  0  0  0  0  0  0  0  0  0
  144.3983  134.8673  150.5424 C   0  0  0  0  0  0  0  0  0  0  0  0
  144.8023  136.1043  151.0484 N   0  0  0  0  0  0  0  0  0  0  0  0
  145.6619  136.2593  152.0801 C   0  0  0  0  0  0  0  0  0  0  0  0
  145.9693  137.3865  152.4666 O   0  0  0  0  0  0  0  0  0  0  0  0
  148.6440  134.8773  155.5724 C   0  0  1  0  0  0  0  0  0  0  0  0
  149.3890  133.8014  156.3967 C   0  0  0  0  0  0  0  0  0  0  0  0
  150.1866  134.4367  157.3879 O   0  0  0  0  0  0  0  0  0  0  0  0
  151.1449  135.3067  156.8018 C   0  0  0  0  0  0  0  0  0  0  0  0
  150.4077  136.3852  155.9916 C   0  0  0  0  0  0  0  0  0  0  0  0
  149.6103  135.7544  154.9986 O   0  0  0  0  0  0  0  0  0  0  0  0
  144.4235  136.9279  150.6034 H   0  0  0  0  0  0  0  0  0  0  0  0
  147.1993  136.1571  154.0141 H   0  0  0  0  0  0  0  0  0  0  0  0
  146.1050  132.8845  152.6101 H   0  0  0  0  0  0  0  0  0  0  0  0
  143.7258  134.9382  149.7002 H   0  0  0  0  0  0  0  0  0  0  0  0
  147.9830  135.4485  156.2268 H   0  0  0  0  0  0  0  0  0  0  0  0
  148.6808  133.1409  156.8984 H   0  0  0  0  0  0  0  0  0  0  0  0
  150.0168  133.1765  155.7588 H   0  0  0  0  0  0  0  0  0  0  0  0
  151.7408  135.7655  157.5910 H   0  0  0  0  0  0  0  0  0  0  0  0
  151.8303  134.7424  156.1673 H   0  0  0  0  0  0  0  0  0  0  0  0
  149.7846  137.0029  156.6403 H   0  0  0  0  0  0  0  0  0  0  0  0
  151.1229  137.0484  155.5048 H   0  0  0  0  0  0  0  0  0  0  0  0
  1  2  2  0  0  0  0
  2  3  1  0  0  0  0
  2 15  1  0  0  0  0
  3  4  1  0  0  0  0
  3 22  1  0  0  0  0
  4 13  1  0  0  0  0
  4  5  2  0  0  0  0
  5  6  1  0  0  0  0
  5 23  1  0  0  0  0
  6  7  1  0  0  0  0
  6 11  2  0  0  0  0
  7  8  1  0  0  0  0
  7  9  1  0  0  0  0
  7 10  1  0  0  0  0
 11 12  1  0  0  0  0
 11 24  1  0  0  0  0
 12 21  1  0  0  0  0
 12 13  1  0  0  0  0
 13 14  2  0  0  0  0
 15 20  1  0  0  0  0
 15 16  1  0  0  0  0
 15 25  1  0  0  0  0
 16 17  1  0  0  0  0
 16 26  1  0  0  0  0
 16 27  1  0  0  0  0
 17 18  1  0  0  0  0
 18 19  1  0  0  0  0
 18 28  1  0  0  0  0
 18 29  1  0  0  0  0
 19 20  1  0  0  0  0
 19 30  1  0  0  0  0
 19 31  1  0  0  0  0
M  END
> <s_m_source_file>
AV-unprocessed.smi

> <i_m_source_file_index>
1776

> <i_lp_mmshare_version>
43012

> <i_f3d_flags>
0

> <s_epik_input>
TzFbQ0gyXVtDSDJdT1tDSDJdW0NASF0xQyg9TylbTkhdYzJbY0hdYyhDKEYpKEYpRilbY0hdW25IXWMyPU8=

> <s_epik_cmdline>
J2VwaWtfcHl0aG9uJywgJy1waCcsICc3LjAnLCAnLXRuJywgJzgnLCAnLW1hJywgJzIwMCcsICctbWV0YWxfYmluZGluZycsICctaW1hZScsICc8aW5maWxlLm1hZT4nLCAnLW9tYWUnLCAnPG91dGZpbGUubWFlPic=

> <r_lp_tautomer_probability>
0.999

> <r_epik_Ionization_Penalty>
0.0100875

> <r_epik_Ionization_Penalty_Charging>
0.0100873

> <r_epik_Ionization_Penalty_Neutral>
1.79075e-07

> <r_epik_State_Penalty>
0.00769562

> <r_epik_Charging_Adjusted_Penalty>
0.017783

> <i_epik_Tot_Q>
0

> <i_epik_Tot_abs_Q>
0

> <r_epik_Metal_State_Penalty>
0.325451

> <b_epik_Metal_Only>
0

> <s_lp_Force_Field>
OPLS_2005

> <r_lp_Energy>
23.697

> <b_lp_Chiralities_Consistent>
1

> <s_lp_Variant>
AV-unprocessed.smi:1776-2

> <Gold.Version>
5.8.1

> <Gold.Id.Protein>
6NUR|6NUR_protein|mol2

> <Gold.PLP.Fitness>
34.3690

> <Gold.PLP.PLP>
-27.9930

> <Gold.PLP.part.hbond>
-3.0000

> <Gold.PLP.part.metal>
0.0000

> <Gold.PLP.part.buried>
-3.3918

> <Gold.PLP.part.nonpolar>
-23.1522

> <Gold.PLP.part.repulsive>
0.4915

> <Gold.PLP.ligand.clash>
0.0000

> <Gold.PLP.ligand.torsion>
0.0534

> <Gold.PLP.Chemscore.Hbond>
1.6698

> <Gold.PLP.Chemscore.CHOScore>
0.4810

> <Gold.PLP.Chemscore.Metal>
0.0000

> <Gold.Chemscore.Hbonds>
donor molecule, donor type, donor heavy atom, donor atom, acceptor molecule, acceptor atom, score
      L1  H    12    21       P1 10171  1.00
      P1  H  6896  6907       L1    17  0.76
      L1  C    11    24       P1 10186  0.43

> <Gold.PLP.Chemscore.Internal.Correction>
0.0305

> <Gold.Rescore>
     Score         DG    S(hbond)    S(metal)    S(lipo)     H(rot)  DE(clash)    DE(int)     intcor
     11.76     -12.96       1.57        0.00      41.14       1.00       0.04       1.16       ----

> <Gold.Chemscore.Fitness>
11.7638

> <Gold.Chemscore.DG>
-12.9629

> <Gold.Chemscore.ZeroCoef>
-5.4800

> <Gold.Chemscore.Hbond>
1.5658

> <Gold.Chemscore.Metal>
0.0000

> <Gold.Chemscore.Lipo>
41.1361

> <Gold.Chemscore.Internal_Hbond>
0.0000

> <Gold.Chemscore.DEClash>
0.0405

> <Gold.Chemscore.DEInternal>
1.1585

> <Gold.Chemscore.Rot>
1.0000

> <Gold.Chemscore.Internal.Correction>
   9.000000E+99

> <Gold.Chemscore.Hbonds>
donor molecule, donor type, donor heavy atom, donor atom, acceptor molecule, acceptor atom, score
      L1  H    12    21       P1 10171  1.00
      P1  H  6896  6907       L1    17  0.53

> <Gold.Chemscore.Hbond.Weighted>
-5.2299

> <Gold.Chemscore.Metal.Weighted>
-0.0000

> <Gold.Chemscore.Lipo.Weighted>
-4.8129

> <Gold.Chemscore.Internal_Hbond.Weighted>
0.0000

> <Gold.Chemscore.DEClash.Weighted>
0.0405

> <Gold.Chemscore.DEInternal.Weighted>
1.1585

> <Gold.Chemscore.Rot.Weighted>
2.5600

> <Gold.Chemscore.Internal.Correction.Weighted>
   9.000000E+99

> <Gold.Protein.RotatedTorsions>
[ 6907 6896 6895 6894 ] final -111.05 input  -60.11 | X-H torsion
[ 7974 7965 7964 7962 ] final -107.39 input  175.53 | X-H torsion
[ 8008 7997 7996 7995 ] final -136.10 input   59.86 | X-H torsion
[ 10167 10162 10161 10158 ] final  155.39 input  -65.29 | X-H torsion
[ 10718 10713 10712 10709 ] final -171.42 input   66.30 | X-H torsion
[ 10763 10752 10751 10750 ] final  -56.04 input  -60.55 | X-H torsion
[ 11005 11000 10999 10996 ] final  108.57 input  -57.11 | X-H torsion

> <Gold.Protein.ActiveResidues>
 VAL166  LYS551  ARG553  GLY616  TRP617  ASP618  TYR619  PRO620  LYS621  CYS622 
 ASP623  PHE694  ASN695  SER759  ASP760  ASP761  ALA762  ILE779  LEU786  VAL792 
 PHE793  MET794  SER795  GLU796  ALA797  LYS798  CYS799  TRP800  GLU811  SER814 

> <Gold.Protein.RotatedAtoms>
  150.7664  133.9293  159.3421 H   0  0  0  0  0  0  0  0  0  0  0  0  # atno 6907 bound_to 6896
  151.7189  135.0896  160.0290 H   0  0  0  0  0  0  0  0  0  0  0  0  # atno 6908 bound_to 6896
  152.3662  133.6322  159.6088 H   0  0  0  0  0  0  0  0  0  0  0  0  # atno 6909 bound_to 6896
  145.2060  140.9076  143.3342 H   0  0  0  0  0  0  0  0  0  0  0  0  # atno 7974 bound_to 7965
  155.3897  140.0499  157.3041 H   0  0  0  0  0  0  0  0  0  0  0  0  # atno 8008 bound_to 7997
  154.5042  140.2168  155.9246 H   0  0  0  0  0  0  0  0  0  0  0  0  # atno 8009 bound_to 7997
  156.1505  140.3137  155.8645 H   0  0  0  0  0  0  0  0  0  0  0  0  # atno 8010 bound_to 7997
  139.4821  144.5103  151.8035 H   0  0  0  0  0  0  0  0  0  0  0  0  # atno 10167 bound_to 10162
  156.7406  130.9341  151.3110 H   0  0  0  0  0  0  0  0  0  0  0  0  # atno 10718 bound_to 10713
  154.2004  135.6412  153.5085 H   0  0  0  0  0  0  0  0  0  0  0  0  # atno 10763 bound_to 10752
  153.0013  135.5450  154.6322 H   0  0  0  0  0  0  0  0  0  0  0  0  # atno 10764 bound_to 10752
  154.5733  135.2918  155.0779 H   0  0  0  0  0  0  0  0  0  0  0  0  # atno 10765 bound_to 10752
  139.8846  134.9434  156.5993 H   0  0  0  0  0  0  0  0  0  0  0  0  # atno 11005 bound_to 11000
  144.9902  139.3697  143.6218 LP  0  0  0  0  0  0  0  0  0  0  0  0  # atno 17320 bound_to 7965
  146.3408  139.9081  142.8784 LP  0  0  0  0  0  0  0  0  0  0  0  0  # atno 17321 bound_to 7965
  140.4605  144.1729  150.5906 LP  0  0  0  0  0  0  0  0  0  0  0  0  # atno 17342 bound_to 10162
  140.4490  143.2495  151.9373 LP  0  0  0  0  0  0  0  0  0  0  0  0  # atno 17343 bound_to 10162
  157.6820  130.9149  150.0290 LP  0  0  0  0  0  0  0  0  0  0  0  0  # atno 17370 bound_to 10713
  156.1467  130.3642  149.9500 LP  0  0  0  0  0  0  0  0  0  0  0  0  # atno 17371 bound_to 10713
  140.7896  133.8593  155.8635 LP  0  0  0  0  0  0  0  0  0  0  0  0  # atno 17394 bound_to 11000
  140.9689  134.1558  157.4593 LP  0  0  0  0  0  0  0  0  0  0  0  0  # atno 17395 bound_to 11000

$$$$
