AV-unprocessed.smi:227|AV-procd|sdf|1740|dock9
  -GOLD-   2262020243D 1   1.00000     0.00000
 Structure written by MMmdl.
 54 58  0  0  0  0  0  0  0  0  1 V2000
  147.6377  136.8001  162.0553 O   0  0  0  0  0  0  0  0  0  0  0  0
  147.3334  135.5074  162.5364 C   0  0  0  0  0  0  0  0  0  0  0  0
  146.9426  134.5563  161.3765 C   0  0  1  0  0  0  0  0  0  0  0  0
  148.0640  134.5174  160.2963 C   0  0  0  0  0  0  0  0  0  0  0  0
  148.2115  135.7521  159.5378 N   0  0  0  0  0  0  0  0  0  0  0  0
  147.2294  136.4147  158.8368 C   0  0  0  0  0  0  0  0  0  0  0  0
  147.6150  137.5036  158.2321 N   0  0  0  0  0  0  0  0  0  0  0  0
  148.9638  137.6141  158.5479 C   0  0  0  0  0  0  0  0  0  0  0  0
  149.9922  138.5447  158.2192 C   0  0  0  0  0  0  0  0  0  0  0  0
  149.8067  139.6222  157.4094 N   0  0  0  0  0  0  0  0  0  0  0  0
  150.9032  140.5224  157.0867 C   0  0  2  0  0  0  0  0  0  0  0  0
  150.1766  141.6743  156.3712 C   0  0  0  0  0  0  0  0  0  0  0  0
  149.0602  140.9146  155.6354 C   0  0  0  0  0  0  0  0  0  0  0  0
  149.3728  139.4593  156.0289 C   0  0  1  0  0  0  0  0  0  0  0  0
  150.6376  139.0038  155.2578 C   0  0  2  0  0  0  0  0  0  0  0  0
  150.8188  137.4749  155.1857 C   0  0  0  0  0  0  0  0  0  0  0  0
  151.9447  137.1555  154.3966 O   0  0  0  0  0  0  0  0  0  0  0  0
  151.7375  139.7326  156.0567 C   0  0  0  0  0  0  0  0  0  0  0  0
  151.2188  138.3347  158.7663 N   0  0  0  0  0  0  0  0  0  0  0  0
  151.4389  137.2778  159.5524 C   0  0  0  0  0  0  0  0  0  0  0  0
  150.5861  136.3211  159.9194 N   0  0  0  0  0  0  0  0  0  0  0  0
  149.3476  136.5306  159.3893 C   0  0  0  0  0  0  0  0  0  0  0  0
  146.5468  133.1430  161.9087 C   0  0  1  0  0  0  0  0  0  0  0  0
  145.3906  133.1360  162.9062 C   0  0  0  0  0  0  0  0  0  0  0  0
  144.1435  133.1133  162.0229 C   0  0  0  0  0  0  0  0  0  0  0  0
  144.5614  132.5788  160.7726 O   0  0  0  0  0  0  0  0  0  0  0  0
  145.9316  132.2127  160.8522 C   0  0  0  0  0  0  0  0  0  0  0  0
  146.8662  137.3401  162.1362 H   0  0  0  0  0  0  0  0  0  0  0  0
  148.1821  135.1176  163.0983 H   0  0  0  0  0  0  0  0  0  0  0  0
  146.5243  135.6349  163.2513 H   0  0  0  0  0  0  0  0  0  0  0  0
  146.0605  134.9818  160.8954 H   0  0  0  0  0  0  0  0  0  0  0  0
  149.0276  134.2740  160.7411 H   0  0  0  0  0  0  0  0  0  0  0  0
  147.8801  133.7072  159.5904 H   0  0  0  0  0  0  0  0  0  0  0  0
  146.2100  136.0638  158.7800 H   0  0  0  0  0  0  0  0  0  0  0  0
  151.4844  140.8653  157.9435 H   0  0  0  0  0  0  0  0  0  0  0  0
  149.7530  142.3766  157.0902 H   0  0  0  0  0  0  0  0  0  0  0  0
  150.8304  142.2289  155.6971 H   0  0  0  0  0  0  0  0  0  0  0  0
  148.0820  141.2146  156.0136 H   0  0  0  0  0  0  0  0  0  0  0  0
  149.0695  141.0797  154.5574 H   0  0  0  0  0  0  0  0  0  0  0  0
  148.5135  138.8096  155.8727 H   0  0  0  0  0  0  0  0  0  0  0  0
  150.5949  139.3841  154.2359 H   0  0  0  0  0  0  0  0  0  0  0  0
  150.9487  137.0339  156.1733 H   0  0  0  0  0  0  0  0  0  0  0  0
  149.9394  137.0102  154.7389 H   0  0  0  0  0  0  0  0  0  0  0  0
  151.6457  136.8749  153.5450 H   0  0  0  0  0  0  0  0  0  0  0  0
  152.3540  140.3784  155.4306 H   0  0  0  0  0  0  0  0  0  0  0  0
  152.4010  139.0262  156.5571 H   0  0  0  0  0  0  0  0  0  0  0  0
  152.4430  137.1832  159.9388 H   0  0  0  0  0  0  0  0  0  0  0  0
  147.4256  132.6772  162.3557 H   0  0  0  0  0  0  0  0  0  0  0  0
  145.4305  132.2138  163.4881 H   0  0  0  0  0  0  0  0  0  0  0  0
  145.3759  133.9543  163.6223 H   0  0  0  0  0  0  0  0  0  0  0  0
  143.3461  132.5128  162.4613 H   0  0  0  0  0  0  0  0  0  0  0  0
  143.7601  134.1213  161.8617 H   0  0  0  0  0  0  0  0  0  0  0  0
  146.4031  132.2455  159.8729 H   0  0  0  0  0  0  0  0  0  0  0  0
  145.9881  131.1782  161.1951 H   0  0  0  0  0  0  0  0  0  0  0  0
  1  2  1  0  0  0  0
  1 28  1  0  0  0  0
  2  3  1  0  0  0  0
  2 29  1  0  0  0  0
  2 30  1  0  0  0  0
  3  4  1  0  0  0  0
  3 23  1  0  0  0  0
  3 31  1  0  0  0  0
  4  5  1  0  0  0  0
  4 32  1  0  0  0  0
  4 33  1  0  0  0  0
  5 22  1  0  0  0  0
  5  6  1  0  0  0  0
  6  7  2  0  0  0  0
  6 34  1  0  0  0  0
  7  8  1  0  0  0  0
  8 22  2  0  0  0  0
  8  9  1  0  0  0  0
  9 10  1  0  0  0  0
  9 19  2  0  0  0  0
 10 14  1  0  0  0  0
 10 11  1  0  0  0  0
 11 18  1  0  0  0  0
 11 12  1  0  0  0  0
 11 35  1  0  0  0  0
 12 13  1  0  0  0  0
 12 36  1  0  0  0  0
 12 37  1  0  0  0  0
 13 14  1  0  0  0  0
 13 38  1  0  0  0  0
 13 39  1  0  0  0  0
 14 15  1  0  0  0  0
 14 40  1  0  0  0  0
 15 16  1  0  0  0  0
 15 18  1  0  0  0  0
 15 41  1  0  0  0  0
 16 17  1  0  0  0  0
 16 42  1  0  0  0  0
 16 43  1  0  0  0  0
 17 44  1  0  0  0  0
 18 45  1  0  0  0  0
 18 46  1  0  0  0  0
 19 20  1  0  0  0  0
 20 21  2  0  0  0  0
 20 47  1  0  0  0  0
 21 22  1  0  0  0  0
 23 27  1  0  0  0  0
 23 24  1  0  0  0  0
 23 48  1  0  0  0  0
 24 25  1  0  0  0  0
 24 49  1  0  0  0  0
 24 50  1  0  0  0  0
 25 26  1  0  0  0  0
 25 51  1  0  0  0  0
 25 52  1  0  0  0  0
 26 27  1  0  0  0  0
 27 53  1  0  0  0  0
 27 54  1  0  0  0  0
M  END
> <s_m_source_file>
AV-unprocessed.smi

> <i_m_source_file_index>
227

> <i_lp_mmshare_version>
43012

> <i_f3d_flags>
0

> <s_epik_input>
W0NIMl0xT1tDSDJdW0NIMl1bQ0BIXTFbQ0BIXShbQ0gyXVtPSF0pW0NIMl1uKFtjSF1uMiljKGMyMyluW2NIXW5jM04oW0NASF00NSlbQ0BASF0oW0NIMl1bQ0gyXTQpW0NASF0oW0NIMl01KVtDSDJdW09IXQ==

> <s_epik_cmdline>
J2VwaWtfcHl0aG9uJywgJy1waCcsICc3LjAnLCAnLXRuJywgJzgnLCAnLW1hJywgJzIwMCcsICctbWV0YWxfYmluZGluZycsICctaW1hZScsICc8aW5maWxlLm1hZT4nLCAnLW9tYWUnLCAnPG91dGZpbGUubWFlPic=

> <r_lp_tautomer_probability>
1

> <r_epik_Ionization_Penalty>
0.0055791

> <r_epik_Ionization_Penalty_Charging>
0

> <r_epik_Ionization_Penalty_Neutral>
0.0055791

> <r_epik_State_Penalty>
0.00401299

> <r_epik_Charging_Adjusted_Penalty>
0.00401299

> <i_epik_Tot_Q>
0

> <i_epik_Tot_abs_Q>
0

> <r_epik_Metal_State_Penalty>
-0

> <b_epik_Metal_Only>
0

> <s_lp_Force_Field>
OPLS_2005

> <r_lp_Energy>
90.2099

> <b_lp_Chiralities_Consistent>
1

> <s_lp_Variant>
AV-unprocessed.smi:227-14

> <Gold.Version>
5.8.1

> <Gold.Id.Protein>
6NUR|6NUR_protein|mol2

> <Gold.PLP.Fitness>
53.5953

> <Gold.PLP.PLP>
-42.5824

> <Gold.PLP.part.hbond>
-4.8079

> <Gold.PLP.part.metal>
0.0000

> <Gold.PLP.part.buried>
-4.3344

> <Gold.PLP.part.nonpolar>
-34.1081

> <Gold.PLP.part.repulsive>
0.0290

> <Gold.PLP.ligand.clash>
0.0000

> <Gold.PLP.ligand.torsion>
0.1607

> <Gold.PLP.Chemscore.Hbond>
3.7440

> <Gold.PLP.Chemscore.CHOScore>
0.0000

> <Gold.PLP.Chemscore.Metal>
0.0000

> <Gold.Chemscore.Hbonds>
donor molecule, donor type, donor heavy atom, donor atom, acceptor molecule, acceptor atom, score
      L1  H    17    44       P1  7949  0.36
      P1  H  6896  6909       L1    21  0.74
      P1  H  6931  6943       L1     1  0.95
      P1  H 10752 10765       L1    17  0.45

> <Gold.PLP.Chemscore.Internal.Correction>
0.1023

> <Gold.Rescore>
     Score         DG    S(hbond)    S(metal)    S(lipo)     H(rot)  DE(clash)    DE(int)     intcor
     15.91     -17.79       3.19        0.00      93.06       3.61       0.15       1.73       ----

> <Gold.Chemscore.Fitness>
15.9084

> <Gold.Chemscore.DG>
-17.7888

> <Gold.Chemscore.ZeroCoef>
-5.4800

> <Gold.Chemscore.Hbond>
3.1901

> <Gold.Chemscore.Metal>
0.0000

> <Gold.Chemscore.Lipo>
93.0602

> <Gold.Chemscore.Internal_Hbond>
0.0000

> <Gold.Chemscore.DEClash>
0.1462

> <Gold.Chemscore.DEInternal>
1.7343

> <Gold.Chemscore.Rot>
3.6071

> <Gold.Chemscore.Internal.Correction>
   9.000000E+99

> <Gold.Chemscore.Hbonds>
donor molecule, donor type, donor heavy atom, donor atom, acceptor molecule, acceptor atom, score
      L1  H    17    44       P1  7949  0.35
      P1  H  6896  6909       L1    21  0.45
      P1  H  6931  6943       L1     1  0.20
      P1  H 10752 10765       L1    17  0.02

> <Gold.Chemscore.Hbond.Weighted>
-10.6549

> <Gold.Chemscore.Metal.Weighted>
-0.0000

> <Gold.Chemscore.Lipo.Weighted>
-10.8880

> <Gold.Chemscore.Internal_Hbond.Weighted>
0.0000

> <Gold.Chemscore.DEClash.Weighted>
0.1462

> <Gold.Chemscore.DEInternal.Weighted>
1.7343

> <Gold.Chemscore.Rot.Weighted>
9.2342

> <Gold.Chemscore.Internal.Correction.Weighted>
   9.000000E+99

> <Gold.Protein.RotatedTorsions>
[ 6907 6896 6895 6894 ] final   75.21 input  -60.11 | X-H torsion
[ 7974 7965 7964 7962 ] final   63.14 input  175.53 | X-H torsion
[ 8008 7997 7996 7995 ] final -132.25 input   59.86 | X-H torsion
[ 10167 10162 10161 10158 ] final  146.08 input  -65.29 | X-H torsion
[ 10718 10713 10712 10709 ] final -131.78 input   66.30 | X-H torsion
[ 10763 10752 10751 10750 ] final  177.23 input  -60.55 | X-H torsion
[ 11005 11000 10999 10996 ] final -129.91 input  -57.11 | X-H torsion

> <Gold.Protein.ActiveResidues>
 VAL166  LYS551  ARG553  GLY616  TRP617  ASP618  TYR619  PRO620  LYS621  CYS622 
 ASP623  PHE694  ASN695  SER759  ASP760  ASP761  ALA762  ILE779  LEU786  VAL792 
 PHE793  MET794  SER795  GLU796  ALA797  LYS798  CYS799  TRP800  GLU811  SER814 

> <Gold.Protein.RotatedAtoms>
  152.5015  134.4154  159.9462 H   0  0  0  0  0  0  0  0  0  0  0  0  # atno 6907 bound_to 6896
  151.4125  133.3717  159.2753 H   0  0  0  0  0  0  0  0  0  0  0  0  # atno 6908 bound_to 6896
  150.9281  134.8719  159.7593 H   0  0  0  0  0  0  0  0  0  0  0  0  # atno 6909 bound_to 6896
  145.8653  139.3342  143.0795 H   0  0  0  0  0  0  0  0  0  0  0  0  # atno 7974 bound_to 7965
  155.3258  140.0464  157.3041 H   0  0  0  0  0  0  0  0  0  0  0  0  # atno 8008 bound_to 7997
  154.5355  140.2271  155.8696 H   0  0  0  0  0  0  0  0  0  0  0  0  # atno 8009 bound_to 7997
  156.1830  140.3069  155.9192 H   0  0  0  0  0  0  0  0  0  0  0  0  # atno 8010 bound_to 7997
  139.4914  144.5855  151.6786 H   0  0  0  0  0  0  0  0  0  0  0  0  # atno 10167 bound_to 10162
  156.2279  130.7019  151.0827 H   0  0  0  0  0  0  0  0  0  0  0  0  # atno 10718 bound_to 10713
  154.4917  135.2779  155.1491 H   0  0  0  0  0  0  0  0  0  0  0  0  # atno 10763 bound_to 10752
  154.3160  135.6219  153.5490 H   0  0  0  0  0  0  0  0  0  0  0  0  # atno 10764 bound_to 10752
  152.9889  135.5731  154.5340 H   0  0  0  0  0  0  0  0  0  0  0  0  # atno 10765 bound_to 10752
  140.9391  134.1217  157.4167 H   0  0  0  0  0  0  0  0  0  0  0  0  # atno 11005 bound_to 11000
  145.9200  140.9121  143.0410 LP  0  0  0  0  0  0  0  0  0  0  0  0  # atno 17320 bound_to 7965
  144.6726  140.1276  143.7446 LP  0  0  0  0  0  0  0  0  0  0  0  0  # atno 17321 bound_to 7965
  140.5470  144.0486  150.6111 LP  0  0  0  0  0  0  0  0  0  0  0  0  # atno 17342 bound_to 10162
  140.3528  143.2953  152.0469 LP  0  0  0  0  0  0  0  0  0  0  0  0  # atno 17343 bound_to 10162
  157.7119  131.0730  150.6469 LP  0  0  0  0  0  0  0  0  0  0  0  0  # atno 17370 bound_to 10713
  156.6535  130.4492  149.5711 LP  0  0  0  0  0  0  0  0  0  0  0  0  # atno 17371 bound_to 10713
  139.8815  135.0031  156.6164 LP  0  0  0  0  0  0  0  0  0  0  0  0  # atno 17394 bound_to 11000
  140.7758  133.8700  155.8528 LP  0  0  0  0  0  0  0  0  0  0  0  0  # atno 17395 bound_to 11000

$$$$
