AV-unprocessed.smi:1005|AV-procd|sdf|4381|dock6
  -GOLD-   22720 2303D 1   1.00000     0.00000
 Structure written by MMmdl.
 58 60  0  0  0  0  0  0  0  0  4 V2000
  152.2482  144.0084  159.9935 C   0  0  0  0  0  0  0  0  0  0  0  0
  151.9653  142.9563  158.9347 C   0  0  0  0  0  0  0  0  0  0  0  0
  151.0735  143.2768  157.8870 C   0  0  0  0  0  0  0  0  0  0  0  0
  150.8352  142.2943  156.9335 C   0  0  0  0  0  0  0  0  0  0  0  0
  150.0229  142.3021  155.7981 N   0  3  0  0  0  0  0  0  0  0  0  0
  150.1149  141.1004  155.1649 C   0  0  0  0  0  0  0  0  0  0  0  0
  150.9740  140.3232  155.8794 N   0  0  0  0  0  0  0  0  0  0  0  0
  151.4183  138.9440  155.6290 C   0  0  0  0  0  0  0  0  0  0  0  0
  150.3407  138.0834  154.9394 C   0  0  1  0  0  0  0  0  0  0  0  0
  150.4113  138.2653  153.5381 O   0  0  0  0  0  0  0  0  0  0  0  0
  150.5149  136.5838  155.2523 C   0  0  0  0  0  0  0  0  0  0  0  0
  149.4083  135.7592  154.6953 N   0  3  2  0  0  0  0  0  0  0  0  0
  148.0775  136.0128  155.3036 C   0  0  0  0  0  0  0  0  0  0  0  0
  147.9302  135.2994  156.6613 C   0  0  0  0  0  0  0  0  0  0  0  0
  148.2055  133.9119  156.5104 O   0  0  0  0  0  0  0  0  0  0  0  0
  149.5331  133.6629  156.0596 C   0  0  1  0  0  0  0  0  0  0  0  0
  149.7423  132.1370  156.0102 C   0  0  0  0  0  0  0  0  0  0  0  0
  151.1635  131.7495  155.8144 N   0  3  0  0  0  0  0  0  0  0  0  0
  151.3438  130.3273  155.4409 C   0  0  0  0  0  0  0  0  0  0  0  0
  152.0018  132.1120  156.9790 C   0  0  0  0  0  0  0  0  0  0  0  0
  149.6987  134.3042  154.6648 C   0  0  0  0  0  0  0  0  0  0  0  0
  151.4478  141.0272  156.9942 C   0  0  0  0  0  0  0  0  0  0  0  0
  152.3291  140.6954  158.0213 C   0  0  0  0  0  0  0  0  0  0  0  0
  152.5852  141.6817  159.0008 C   0  0  0  0  0  0  0  0  0  0  0  0
  153.5431  141.3481  160.1320 C   0  0  0  0  0  0  0  0  0  0  0  0
  151.6922  144.9268  159.8018 H   0  0  0  0  0  0  0  0  0  0  0  0
  153.3090  144.2594  160.0108 H   0  0  0  0  0  0  0  0  0  0  0  0
  151.9609  143.6457  160.9806 H   0  0  0  0  0  0  0  0  0  0  0  0
  150.5984  144.2455  157.8300 H   0  0  0  0  0  0  0  0  0  0  0  0
  149.5986  140.8168  154.2590 H   0  0  0  0  0  0  0  0  0  0  0  0
  152.3443  138.9606  155.0540 H   0  0  0  0  0  0  0  0  0  0  0  0
  151.6711  138.5118  156.5980 H   0  0  0  0  0  0  0  0  0  0  0  0
  149.3616  138.4271  155.2727 H   0  0  0  0  0  0  0  0  0  0  0  0
  150.0355  137.5094  153.1131 H   0  0  0  0  0  0  0  0  0  0  0  0
  151.4683  136.2551  154.8356 H   0  0  0  0  0  0  0  0  0  0  0  0
  150.5898  136.4271  156.3285 H   0  0  0  0  0  0  0  0  0  0  0  0
  147.8879  137.0803  155.4095 H   0  0  0  0  0  0  0  0  0  0  0  0
  147.3163  135.6354  154.6194 H   0  0  0  0  0  0  0  0  0  0  0  0
  148.5882  135.7330  157.4152 H   0  0  0  0  0  0  0  0  0  0  0  0
  146.9119  135.4150  157.0328 H   0  0  0  0  0  0  0  0  0  0  0  0
  150.2476  134.1143  156.7484 H   0  0  0  0  0  0  0  0  0  0  0  0
  149.3797  131.7126  156.9478 H   0  0  0  0  0  0  0  0  0  0  0  0
  149.1362  131.6935  155.2189 H   0  0  0  0  0  0  0  0  0  0  0  0
  150.9571  129.6664  156.2178 H   0  0  0  0  0  0  0  0  0  0  0  0
  152.4012  130.1000  155.3002 H   0  0  0  0  0  0  0  0  0  0  0  0
  150.8390  130.0894  154.5055 H   0  0  0  0  0  0  0  0  0  0  0  0
  151.6852  131.5720  157.8726 H   0  0  0  0  0  0  0  0  0  0  0  0
  151.9398  133.1810  157.1850 H   0  0  0  0  0  0  0  0  0  0  0  0
  153.0496  131.8752  156.7903 H   0  0  0  0  0  0  0  0  0  0  0  0
  149.0048  133.8367  153.9645 H   0  0  0  0  0  0  0  0  0  0  0  0
  150.6979  134.1234  154.2667 H   0  0  0  0  0  0  0  0  0  0  0  0
  152.8049  139.7281  158.0746 H   0  0  0  0  0  0  0  0  0  0  0  0
  153.9415  140.3380  160.0330 H   0  0  0  0  0  0  0  0  0  0  0  0
  153.0360  141.4136  161.0948 H   0  0  0  0  0  0  0  0  0  0  0  0
  154.3866  142.0386  160.1365 H   0  0  0  0  0  0  0  0  0  0  0  0
  151.5102  132.3024  155.0429 H   0  0  0  0  0  0  0  0  0  0  0  0
  149.3411  136.0445  153.7279 H   0  0  0  0  0  0  0  0  0  0  0  0
  149.4472  143.0703  155.4774 H   0  0  0  0  0  0  0  0  0  0  0  0
  1  2  1  0  0  0  0
  1 26  1  0  0  0  0
  1 27  1  0  0  0  0
  1 28  1  0  0  0  0
  2 24  1  0  0  0  0
  2  3  2  0  0  0  0
  3  4  1  0  0  0  0
  3 29  1  0  0  0  0
  4 22  2  0  0  0  0
  4  5  1  0  0  0  0
  5  6  2  0  0  0  0
  5 58  1  0  0  0  0
  6  7  1  0  0  0  0
  6 30  1  0  0  0  0
  7  8  1  0  0  0  0
  7 22  1  0  0  0  0
  8  9  1  0  0  0  0
  8 31  1  0  0  0  0
  8 32  1  0  0  0  0
  9 10  1  0  0  0  0
  9 11  1  0  0  0  0
  9 33  1  0  0  0  0
 10 34  1  0  0  0  0
 11 12  1  0  0  0  0
 11 35  1  0  0  0  0
 11 36  1  0  0  0  0
 12 21  1  0  0  0  0
 12 13  1  0  0  0  0
 12 57  1  0  0  0  0
 13 14  1  0  0  0  0
 13 37  1  0  0  0  0
 13 38  1  0  0  0  0
 14 15  1  0  0  0  0
 14 39  1  0  0  0  0
 14 40  1  0  0  0  0
 15 16  1  0  0  0  0
 16 17  1  0  0  0  0
 16 21  1  0  0  0  0
 16 41  1  0  0  0  0
 17 18  1  0  0  0  0
 17 42  1  0  0  0  0
 17 43  1  0  0  0  0
 18 19  1  0  0  0  0
 18 20  1  0  0  0  0
 18 56  1  0  0  0  0
 19 44  1  0  0  0  0
 19 45  1  0  0  0  0
 19 46  1  0  0  0  0
 20 47  1  0  0  0  0
 20 48  1  0  0  0  0
 20 49  1  0  0  0  0
 21 50  1  0  0  0  0
 21 51  1  0  0  0  0
 22 23  1  0  0  0  0
 23 24  2  0  0  0  0
 23 52  1  0  0  0  0
 24 25  1  0  0  0  0
 25 53  1  0  0  0  0
 25 54  1  0  0  0  0
 25 55  1  0  0  0  0
M  CHG  1   5   1
M  CHG  1  12   1
M  CHG  1  18   1
M  END
> <s_m_source_file>
AV-unprocessed.smi

> <i_m_source_file_index>
1005

> <i_lp_mmshare_version>
43012

> <i_f3d_flags>
0

> <s_epik_input>
W0NIM11jKFtjSF0xKWMoW0NIM10pW2NIXWMoYzEyKW4oW2NIXW4yKVtDSDJdW0NASF0oW09IXSlbQ0gyXU4zW0NIMl1bQ0gyXU9bQ0BIXShbQ0gyXTMpW0NIMl1OKFtDSDNdKVtDSDNd

> <s_epik_cmdline>
J2VwaWtfcHl0aG9uJywgJy1waCcsICc3LjAnLCAnLXRuJywgJzgnLCAnLW1hJywgJzIwMCcsICctbWV0YWxfYmluZGluZycsICctaW1hZScsICc8aW5maWxlLm1hZT4nLCAnLW9tYWUnLCAnPG91dGZpbGUubWFlPic=

> <r_epik_Ionization_Penalty>
2.30802

> <r_epik_Ionization_Penalty_Charging>
2.30798

> <r_epik_Ionization_Penalty_Neutral>
3.4851e-05

> <r_epik_State_Penalty>
2.52618

> <r_epik_Charging_Adjusted_Penalty>
4.83416

> <i_epik_Tot_Q>
3

> <i_epik_Tot_abs_Q>
3

> <r_epik_Metal_State_Penalty>
6.53149

> <b_epik_Metal_Only>
0

> <s_lp_Force_Field>
OPLS_2005

> <r_lp_Energy>
46.6076

> <b_lp_Chiralities_Consistent>
1

> <s_lp_Variant>
AV-unprocessed.smi:1005-20

> <Gold.Version>
5.8.1

> <Gold.Id.Protein>
6NUR|6NUR_protein|mol2

> <Gold.PLP.Fitness>
59.2347

> <Gold.PLP.PLP>
-45.8371

> <Gold.PLP.part.hbond>
-4.5351

> <Gold.PLP.part.metal>
0.0000

> <Gold.PLP.part.buried>
-3.8290

> <Gold.PLP.part.nonpolar>
-37.2716

> <Gold.PLP.part.repulsive>
0.2094

> <Gold.PLP.ligand.clash>
0.0000

> <Gold.PLP.ligand.torsion>
0.8719

> <Gold.PLP.Chemscore.Hbond>
4.9913

> <Gold.PLP.Chemscore.CHOScore>
0.0000

> <Gold.PLP.Chemscore.Metal>
0.0000

> <Gold.Chemscore.Hbonds>
donor molecule, donor type, donor heavy atom, donor atom, acceptor molecule, acceptor atom, score
      L1  H     5    58       P1  8028  2.00
      L1  H    10    34       P1  7948  0.93
      L1  H    12    57       P1  7948  2.00

> <Gold.PLP.Chemscore.Internal.Correction>
0.1675

> <Gold.Rescore>
     Score         DG    S(hbond)    S(metal)    S(lipo)     H(rot)  DE(clash)    DE(int)     intcor
     21.49     -22.35       2.90        0.00     117.35       2.56       0.02       0.84       ----

> <Gold.Chemscore.Fitness>
21.4934

> <Gold.Chemscore.DG>
-22.3534

> <Gold.Chemscore.ZeroCoef>
-5.4800

> <Gold.Chemscore.Hbond>
2.9008

> <Gold.Chemscore.Metal>
0.0000

> <Gold.Chemscore.Lipo>
117.3467

> <Gold.Chemscore.Internal_Hbond>
0.0000

> <Gold.Chemscore.DEClash>
0.0189

> <Gold.Chemscore.DEInternal>
0.8411

> <Gold.Chemscore.Rot>
2.5566

> <Gold.Chemscore.Internal.Correction>
   9.000000E+99

> <Gold.Chemscore.Hbonds>
donor molecule, donor type, donor heavy atom, donor atom, acceptor molecule, acceptor atom, score
      L1  H     5    58       P1  8028  0.94
      L1  H    10    34       P1  7948  0.20
      L1  H    12    57       P1  7948  0.74

> <Gold.Chemscore.Hbond.Weighted>
-9.6888

> <Gold.Chemscore.Metal.Weighted>
-0.0000

> <Gold.Chemscore.Lipo.Weighted>
-13.7296

> <Gold.Chemscore.Internal_Hbond.Weighted>
0.0000

> <Gold.Chemscore.DEClash.Weighted>
0.0189

> <Gold.Chemscore.DEInternal.Weighted>
0.8411

> <Gold.Chemscore.Rot.Weighted>
6.5450

> <Gold.Chemscore.Internal.Correction.Weighted>
   9.000000E+99

> <Gold.Protein.RotatedTorsions>
[ 6907 6896 6895 6894 ] final  -25.34 input  -60.11 | X-H torsion
[ 7974 7965 7964 7962 ] final   89.36 input  175.53 | X-H torsion
[ 8008 7997 7996 7995 ] final  -43.37 input   59.86 | X-H torsion
[ 10167 10162 10161 10158 ] final   22.08 input  -65.29 | X-H torsion
[ 10718 10713 10712 10709 ] final  120.60 input   66.30 | X-H torsion
[ 10763 10752 10751 10750 ] final    2.11 input  -60.55 | X-H torsion
[ 11005 11000 10999 10996 ] final -136.37 input  -57.11 | X-H torsion

> <Gold.Protein.ActiveResidues>
 VAL166  LYS551  ARG553  GLY616  TRP617  ASP618  TYR619  PRO620  LYS621  CYS622 
 ASP623  PHE694  ASN695  SER759  ASP760  ASP761  ALA762  ILE779  LEU786  VAL792 
 PHE793  MET794  SER795  GLU796  ALA797  LYS798  CYS799  TRP800  GLU811  SER814 

> <Gold.Protein.RotatedAtoms>
  151.1766  135.0342  159.8774 H   0  0  0  0  0  0  0  0  0  0  0  0  # atno 6907 bound_to 6896
  152.5446  134.1111  159.8369 H   0  0  0  0  0  0  0  0  0  0  0  0  # atno 6908 bound_to 6896
  151.1223  133.5049  159.2634 H   0  0  0  0  0  0  0  0  0  0  0  0  # atno 6909 bound_to 6896
  145.5334  139.2284  143.2606 H   0  0  0  0  0  0  0  0  0  0  0  0  # atno 7974 bound_to 7965
  154.3997  140.1449  156.3507 H   0  0  0  0  0  0  0  0  0  0  0  0  # atno 8008 bound_to 7997
  155.8271  140.3467  155.5528 H   0  0  0  0  0  0  0  0  0  0  0  0  # atno 8009 bound_to 7997
  155.8227  140.0900  157.1830 H   0  0  0  0  0  0  0  0  0  0  0  0  # atno 8010 bound_to 7997
  140.5377  143.9732  150.6501 H   0  0  0  0  0  0  0  0  0  0  0  0  # atno 10167 bound_to 10162
  157.5879  131.1068  150.8057 H   0  0  0  0  0  0  0  0  0  0  0  0  # atno 10718 bound_to 10713
  153.2996  135.6955  153.7216 H   0  0  0  0  0  0  0  0  0  0  0  0  # atno 10763 bound_to 10752
  153.6135  135.3440  155.2987 H   0  0  0  0  0  0  0  0  0  0  0  0  # atno 10764 bound_to 10752
  154.8547  135.4369  154.2103 H   0  0  0  0  0  0  0  0  0  0  0  0  # atno 10765 bound_to 10752
  140.8811  134.1930  157.4590 H   0  0  0  0  0  0  0  0  0  0  0  0  # atno 11005 bound_to 11000
  146.2029  140.6151  142.9094 LP  0  0  0  0  0  0  0  0  0  0  0  0  # atno 17320 bound_to 7965
  144.7614  140.5430  143.6733 LP  0  0  0  0  0  0  0  0  0  0  0  0  # atno 17321 bound_to 7965
  140.3124  143.3189  152.0865 LP  0  0  0  0  0  0  0  0  0  0  0  0  # atno 17342 bound_to 10162
  139.4977  144.6627  151.6427 LP  0  0  0  0  0  0  0  0  0  0  0  0  # atno 17343 bound_to 10162
  156.8487  130.5073  149.5314 LP  0  0  0  0  0  0  0  0  0  0  0  0  # atno 17370 bound_to 10713
  156.0930  130.5911  150.9766 LP  0  0  0  0  0  0  0  0  0  0  0  0  # atno 17371 bound_to 10713
  139.8720  134.9817  156.5129 LP  0  0  0  0  0  0  0  0  0  0  0  0  # atno 17394 bound_to 11000
  140.8460  133.8168  155.9121 LP  0  0  0  0  0  0  0  0  0  0  0  0  # atno 17395 bound_to 11000

$$$$
