AV-unprocessed.smi:2131|AV-procd|sdf|8687|dock8
  -GOLD-   2272011443D 1   1.00000     0.00000
 Structure written by MMmdl.
 40 42  0  0  0  0  0  0  0  0  1 V2000
  151.1277  145.7319  159.4420 N   0  0  0  0  0  0  0  0  0  0  0  0
  151.7259  144.7698  159.6772 C   0  0  0  0  0  0  0  0  0  0  0  0
  152.4864  143.5470  159.9766 C   0  0  0  0  0  0  0  0  0  0  0  0
  152.1590  142.4233  159.0154 C   0  0  0  0  0  0  0  0  0  0  0  0
  152.3647  141.0824  159.3944 C   0  0  0  0  0  0  0  0  0  0  0  0
  152.0566  140.0405  158.4985 C   0  0  0  0  0  0  0  0  0  0  0  0
  151.5416  140.3184  157.2155 C   0  0  0  0  0  0  0  0  0  0  0  0
  151.2646  139.2385  156.4044 O   0  0  0  0  0  0  0  0  0  0  0  0
  150.8585  139.4900  155.0651 C   0  0  0  0  0  0  0  0  0  0  0  0
  150.3882  138.1759  154.4243 C   0  0  2  0  0  0  0  0  0  0  0  0
  149.7922  138.4764  153.1776 O   0  0  0  0  0  0  0  0  0  0  0  0
  149.3853  137.4124  155.3112 C   0  0  0  0  0  0  0  0  0  0  0  0
  149.9310  136.1670  155.8220 N   0  0  0  0  0  0  0  0  0  0  0  0
  150.8277  136.0254  156.8169 C   0  0  0  0  0  0  0  0  0  0  0  0
  151.1978  134.7877  157.1326 N   0  0  0  0  0  0  0  0  0  0  0  0
  150.4535  134.0369  156.2388 C   0  0  0  0  0  0  0  0  0  0  0  0
  150.3852  132.6378  156.0502 C   0  0  0  0  0  0  0  0  0  0  0  0
  149.5430  132.0907  155.0600 C   0  0  0  0  0  0  0  0  0  0  0  0
  148.7584  132.9316  154.2440 C   0  0  0  0  0  0  0  0  0  0  0  0
  148.8095  134.3287  154.4131 C   0  0  0  0  0  0  0  0  0  0  0  0
  149.6499  134.8706  155.4035 C   0  0  0  0  0  0  0  0  0  0  0  0
  151.3421  141.6709  156.8393 C   0  0  0  0  0  0  0  0  0  0  0  0
  151.6484  142.7138  157.7352 C   0  0  0  0  0  0  0  0  0  0  0  0
  153.5502  143.7820  159.9327 H   0  0  0  0  0  0  0  0  0  0  0  0
  152.2605  143.2415  160.9987 H   0  0  0  0  0  0  0  0  0  0  0  0
  152.7586  140.8493  160.3727 H   0  0  0  0  0  0  0  0  0  0  0  0
  152.2165  139.0157  158.8001 H   0  0  0  0  0  0  0  0  0  0  0  0
  150.0545  140.2276  155.0363 H   0  0  0  0  0  0  0  0  0  0  0  0
  151.7047  139.8884  154.5021 H   0  0  0  0  0  0  0  0  0  0  0  0
  151.2568  137.5457  154.2287 H   0  0  0  0  0  0  0  0  0  0  0  0
  149.7365  137.6793  152.6726 H   0  0  0  0  0  0  0  0  0  0  0  0
  149.0904  138.0270  156.1628 H   0  0  0  0  0  0  0  0  0  0  0  0
  148.4717  137.1936  154.7570 H   0  0  0  0  0  0  0  0  0  0  0  0
  151.2326  136.8809  157.3378 H   0  0  0  0  0  0  0  0  0  0  0  0
  150.9822  131.9837  156.6684 H   0  0  0  0  0  0  0  0  0  0  0  0
  149.4989  131.0199  154.9250 H   0  0  0  0  0  0  0  0  0  0  0  0
  148.1174  132.5033  153.4875 H   0  0  0  0  0  0  0  0  0  0  0  0
  148.2118  134.9756  153.7882 H   0  0  0  0  0  0  0  0  0  0  0  0
  150.9546  141.9363  155.8675 H   0  0  0  0  0  0  0  0  0  0  0  0
  151.4905  143.7397  157.4363 H   0  0  0  0  0  0  0  0  0  0  0  0
  1  2  3  0  0  0  0
  2  3  1  0  0  0  0
  3  4  1  0  0  0  0
  3 24  1  0  0  0  0
  3 25  1  0  0  0  0
  4 23  1  0  0  0  0
  4  5  2  0  0  0  0
  5  6  1  0  0  0  0
  5 26  1  0  0  0  0
  6  7  2  0  0  0  0
  6 27  1  0  0  0  0
  7  8  1  0  0  0  0
  7 22  1  0  0  0  0
  8  9  1  0  0  0  0
  9 10  1  0  0  0  0
  9 28  1  0  0  0  0
  9 29  1  0  0  0  0
 10 11  1  0  0  0  0
 10 12  1  0  0  0  0
 10 30  1  0  0  0  0
 11 31  1  0  0  0  0
 12 13  1  0  0  0  0
 12 32  1  0  0  0  0
 12 33  1  0  0  0  0
 13 21  1  0  0  0  0
 13 14  1  0  0  0  0
 14 15  2  0  0  0  0
 14 34  1  0  0  0  0
 15 16  1  0  0  0  0
 16 21  2  0  0  0  0
 16 17  1  0  0  0  0
 17 18  2  0  0  0  0
 17 35  1  0  0  0  0
 18 19  1  0  0  0  0
 18 36  1  0  0  0  0
 19 20  2  0  0  0  0
 19 37  1  0  0  0  0
 20 21  1  0  0  0  0
 20 38  1  0  0  0  0
 22 23  2  0  0  0  0
 22 39  1  0  0  0  0
 23 40  1  0  0  0  0
M  END
> <s_m_source_file>
AV-unprocessed.smi

> <i_m_source_file_index>
2131

> <i_lp_mmshare_version>
43012

> <i_f3d_flags>
0

> <s_epik_input>
TiNDW0NIMl1jMVtjSF1bY0hdYyhbY0hdW2NIXTEpT1tDSDJdW0NASF0oW09IXSlbQ0gyXW4oW2NIXW4yKWMoYzIzKVtjSF1bY0hdW2NIXVtjSF0z

> <s_epik_cmdline>
J2VwaWtfcHl0aG9uJywgJy1waCcsICc3LjAnLCAnLXRuJywgJzgnLCAnLW1hJywgJzIwMCcsICctbWV0YWxfYmluZGluZycsICctaW1hZScsICc8aW5maWxlLm1hZT4nLCAnLW9tYWUnLCAnPG91dGZpbGUubWFlPic=

> <r_lp_tautomer_probability>
1

> <r_epik_Ionization_Penalty>
0.0609831

> <r_epik_Ionization_Penalty_Charging>
0

> <r_epik_Ionization_Penalty_Neutral>
0.0609831

> <r_epik_State_Penalty>
0.0529032

> <r_epik_Charging_Adjusted_Penalty>
0.0529032

> <i_epik_Tot_Q>
0

> <i_epik_Tot_abs_Q>
0

> <r_epik_Metal_State_Penalty>
5.53344e-05

> <b_epik_Metal_Only>
0

> <s_lp_Force_Field>
OPLS_2005

> <r_lp_Energy>
15.4123

> <b_lp_Chiralities_Consistent>
1

> <s_lp_Variant>
AV-unprocessed.smi:2131-1

> <Gold.Version>
5.8.1

> <Gold.Id.Protein>
6NUR|6NUR_protein|mol2

> <Gold.PLP.Fitness>
47.1025

> <Gold.PLP.PLP>
-46.7415

> <Gold.PLP.part.hbond>
-4.3683

> <Gold.PLP.part.metal>
0.0000

> <Gold.PLP.part.buried>
-5.6493

> <Gold.PLP.part.nonpolar>
-35.9766

> <Gold.PLP.part.repulsive>
0.2012

> <Gold.PLP.ligand.clash>
0.0000

> <Gold.PLP.ligand.torsion>
1.3593

> <Gold.PLP.Chemscore.Hbond>
1.0000

> <Gold.PLP.Chemscore.CHOScore>
0.0000

> <Gold.PLP.Chemscore.Metal>
0.0000

> <Gold.Chemscore.Hbonds>
donor molecule, donor type, donor heavy atom, donor atom, acceptor molecule, acceptor atom, score
      L1  H    11    31       P1  7948  1.00

> <Gold.PLP.Chemscore.Internal.Correction>
0.0796

> <Gold.Rescore>
     Score         DG    S(hbond)    S(metal)    S(lipo)     H(rot)  DE(clash)    DE(int)     intcor
     13.11     -14.55       1.00        0.00     108.62       2.72       0.08       1.36       ----

> <Gold.Chemscore.Fitness>
13.1107

> <Gold.Chemscore.DG>
-14.5546

> <Gold.Chemscore.ZeroCoef>
-5.4800

> <Gold.Chemscore.Hbond>
0.9954

> <Gold.Chemscore.Metal>
0.0000

> <Gold.Chemscore.Lipo>
108.6219

> <Gold.Chemscore.Internal_Hbond>
0.0000

> <Gold.Chemscore.DEClash>
0.0832

> <Gold.Chemscore.DEInternal>
1.3607

> <Gold.Chemscore.Rot>
2.7183

> <Gold.Chemscore.Internal.Correction>
   9.000000E+99

> <Gold.Chemscore.Hbonds>
donor molecule, donor type, donor heavy atom, donor atom, acceptor molecule, acceptor atom, score
      L1  H    11    31       P1  7948  0.39

> <Gold.Chemscore.Hbond.Weighted>
-3.3247

> <Gold.Chemscore.Metal.Weighted>
-0.0000

> <Gold.Chemscore.Lipo.Weighted>
-12.7088

> <Gold.Chemscore.Internal_Hbond.Weighted>
0.0000

> <Gold.Chemscore.DEClash.Weighted>
0.0832

> <Gold.Chemscore.DEInternal.Weighted>
1.3607

> <Gold.Chemscore.Rot.Weighted>
6.9588

> <Gold.Chemscore.Internal.Correction.Weighted>
   9.000000E+99

> <Gold.Protein.RotatedTorsions>
[ 6907 6896 6895 6894 ] final -169.54 input  -60.11 | X-H torsion
[ 7974 7965 7964 7962 ] final  129.26 input  175.53 | X-H torsion
[ 8008 7997 7996 7995 ] final   10.48 input   59.86 | X-H torsion
[ 10167 10162 10161 10158 ] final  178.32 input  -65.29 | X-H torsion
[ 10718 10713 10712 10709 ] final -153.11 input   66.30 | X-H torsion
[ 10763 10752 10751 10750 ] final  -96.07 input  -60.55 | X-H torsion
[ 11005 11000 10999 10996 ] final   27.37 input  -57.11 | X-H torsion

> <Gold.Protein.ActiveResidues>
 VAL166  LYS551  ARG553  GLY616  TRP617  ASP618  TYR619  PRO620  LYS621  CYS622 
 ASP623  PHE694  ASN695  SER759  ASP760  ASP761  ALA762  ILE779  LEU786  VAL792 
 PHE793  MET794  SER795  GLU796  ALA797  LYS798  CYS799  TRP800  GLU811  SER814 

> <Gold.Protein.RotatedAtoms>
  151.4933  133.3520  159.2856 H   0  0  0  0  0  0  0  0  0  0  0  0  # atno 6907 bound_to 6896
  150.8820  134.8214  159.7243 H   0  0  0  0  0  0  0  0  0  0  0  0  # atno 6908 bound_to 6896
  152.4769  134.4832  159.9724 H   0  0  0  0  0  0  0  0  0  0  0  0  # atno 6909 bound_to 6896
  145.0306  139.4049  143.5151 H   0  0  0  0  0  0  0  0  0  0  0  0  # atno 7974 bound_to 7965
  154.7940  140.2840  155.5970 H   0  0  0  0  0  0  0  0  0  0  0  0  # atno 8008 bound_to 7997
  156.2968  140.2599  156.2723 H   0  0  0  0  0  0  0  0  0  0  0  0  # atno 8009 bound_to 7997
  154.9636  140.0377  157.2191 H   0  0  0  0  0  0  0  0  0  0  0  0  # atno 8010 bound_to 7997
  139.5289  144.2694  152.0640 H   0  0  0  0  0  0  0  0  0  0  0  0  # atno 10167 bound_to 10162
  156.4814  130.8305  151.2531 H   0  0  0  0  0  0  0  0  0  0  0  0  # atno 10718 bound_to 10713
  154.7206  135.5097  153.8807 H   0  0  0  0  0  0  0  0  0  0  0  0  # atno 10763 bound_to 10752
  153.0859  135.6645  153.9958 H   0  0  0  0  0  0  0  0  0  0  0  0  # atno 10764 bound_to 10752
  153.9782  135.3031  155.3401 H   0  0  0  0  0  0  0  0  0  0  0  0  # atno 10765 bound_to 10752
  140.3270  134.2480  155.7708 H   0  0  0  0  0  0  0  0  0  0  0  0  # atno 11005 bound_to 11000
  146.3498  139.9854  142.8691 LP  0  0  0  0  0  0  0  0  0  0  0  0  # atno 17320 bound_to 7965
  145.1775  140.9751  143.4285 LP  0  0  0  0  0  0  0  0  0  0  0  0  # atno 17321 bound_to 7965
  140.2155  144.4520  150.6366 LP  0  0  0  0  0  0  0  0  0  0  0  0  # atno 17342 bound_to 10162
  140.6453  143.2212  151.6200 LP  0  0  0  0  0  0  0  0  0  0  0  0  # atno 17343 bound_to 10162
  157.7483  131.0043  150.3073 LP  0  0  0  0  0  0  0  0  0  0  0  0  # atno 17370 bound_to 10713
  156.3518  130.3832  149.7323 LP  0  0  0  0  0  0  0  0  0  0  0  0  # atno 17371 bound_to 10713
  141.2073  133.7810  157.0128 LP  0  0  0  0  0  0  0  0  0  0  0  0  # atno 17394 bound_to 11000
  140.0893  134.9602  157.1751 LP  0  0  0  0  0  0  0  0  0  0  0  0  # atno 17395 bound_to 11000

$$$$
