AV-unprocessed.smi:1023|AV-procd|sdf|4463|dock7
  -GOLD-   22720 2443D 1   1.00000     0.00000
 Structure written by MMmdl.
 31 32  0  0  0  0  0  0  0  0  2 V2000
  153.1339  142.5885  162.1794 C   0  0  0  0  0  0  0  0  0  0  0  0
  153.3785  142.4228  160.6726 C   0  0  0  0  0  0  0  0  0  0  0  0
  152.2706  143.1182  159.8608 C   0  0  0  0  0  0  0  0  0  0  0  0
  153.5329  140.9342  160.3046 C   0  0  0  0  0  0  0  0  0  0  0  0
  153.4429  140.7349  158.8644 N   0  0  0  0  0  0  0  0  0  0  0  0
  152.3709  140.2708  158.1962 C   0  0  0  0  0  0  0  0  0  0  0  0
  151.3693  139.9460  158.8325 O   0  0  0  0  0  0  0  0  0  0  0  0
  152.4567  140.1891  156.8419 N   0  5  0  0  0  0  0  0  0  0  0  0
  151.3774  140.2939  156.0440 C   0  0  0  0  0  0  0  0  0  0  0  0
  151.2662  139.6218  154.8896 N   0  0  0  0  0  0  0  0  0  0  0  0
  150.0874  139.8957  154.2118 N   0  0  0  0  0  0  0  0  0  0  0  0
  149.3169  140.7639  154.8713 C   0  0  0  0  0  0  0  0  0  0  0  0
  148.0004  141.2259  154.3425 C   0  0  0  0  0  0  0  0  0  0  0  0
  146.7303  140.9954  155.1285 C   0  0  0  0  0  0  0  0  0  0  0  0
  146.9600  140.2494  153.8389 C   0  0  0  0  0  0  0  0  0  0  0  0
  149.9825  141.3115  156.4017 S   0  0  0  0  0  0  0  0  0  0  0  0
  152.1998  142.1152  162.4833 H   0  0  0  0  0  0  0  0  0  0  0  0
  153.0789  143.6419  162.4556 H   0  0  0  0  0  0  0  0  0  0  0  0
  153.9394  142.1386  162.7603 H   0  0  0  0  0  0  0  0  0  0  0  0
  154.3197  142.9224  160.4386 H   0  0  0  0  0  0  0  0  0  0  0  0
  151.3026  142.6449  160.0282 H   0  0  0  0  0  0  0  0  0  0  0  0
  152.4748  143.0883  158.7901 H   0  0  0  0  0  0  0  0  0  0  0  0
  152.1801  144.1678  160.1410 H   0  0  0  0  0  0  0  0  0  0  0  0
  154.4965  140.5609  160.6551 H   0  0  0  0  0  0  0  0  0  0  0  0
  152.7606  140.3415  160.7975 H   0  0  0  0  0  0  0  0  0  0  0  0
  154.2566  140.9837  158.3213 H   0  0  0  0  0  0  0  0  0  0  0  0
  148.1091  142.1719  153.8156 H   0  0  0  0  0  0  0  0  0  0  0  0
  146.8046  140.4291  156.0549 H   0  0  0  0  0  0  0  0  0  0  0  0
  145.9876  141.7906  155.1254 H   0  0  0  0  0  0  0  0  0  0  0  0
  146.3707  140.5472  152.9742 H   0  0  0  0  0  0  0  0  0  0  0  0
  147.1721  139.1846  153.9129 H   0  0  0  0  0  0  0  0  0  0  0  0
  1  2  1  0  0  0  0
  1 17  1  0  0  0  0
  1 18  1  0  0  0  0
  1 19  1  0  0  0  0
  2  3  1  0  0  0  0
  2  4  1  0  0  0  0
  2 20  1  0  0  0  0
  3 21  1  0  0  0  0
  3 22  1  0  0  0  0
  3 23  1  0  0  0  0
  4  5  1  0  0  0  0
  4 24  1  0  0  0  0
  4 25  1  0  0  0  0
  5  6  1  0  0  0  0
  5 26  1  0  0  0  0
  6  7  2  0  0  0  0
  6  8  1  0  0  0  0
  8  9  1  0  0  0  0
  9 16  1  0  0  0  0
  9 10  2  0  0  0  0
 10 11  1  0  0  0  0
 11 12  2  0  0  0  0
 12 13  1  0  0  0  0
 12 16  1  0  0  0  0
 13 15  1  0  0  0  0
 13 14  1  0  0  0  0
 13 27  1  0  0  0  0
 14 15  1  0  0  0  0
 14 28  1  0  0  0  0
 14 29  1  0  0  0  0
 15 30  1  0  0  0  0
 15 31  1  0  0  0  0
M  CHG  1   8  -1
M  END
> <s_m_source_file>
AV-unprocessed.smi

> <i_m_source_file_index>
1023

> <i_lp_mmshare_version>
43012

> <i_f3d_flags>
0

> <s_epik_input>
W0NIM11bQ0hdKFtDSDNdKVtDSDJdW05IXUMoPU8pW05IXWMxbm5jKHMxKVtDSF0yW0NIMl1bQ0gyXTI=

> <s_epik_cmdline>
J2VwaWtfcHl0aG9uJywgJy1waCcsICc3LjAnLCAnLXRuJywgJzgnLCAnLW1hJywgJzIwMCcsICctbWV0YWxfYmluZGluZycsICctaW1hZScsICc8aW5maWxlLm1hZT4nLCAnLW9tYWUnLCAnPG91dGZpbGUubWFlPic=

> <r_lp_tautomer_probability>
1

> <r_epik_Ionization_Penalty>
3.99087

> <r_epik_Ionization_Penalty_Charging>
3.83446

> <r_epik_Ionization_Penalty_Neutral>
0.156418

> <r_epik_State_Penalty>
3.83354

> <r_epik_Charging_Adjusted_Penalty>
7.668

> <i_epik_Tot_Q>
-1

> <i_epik_Tot_abs_Q>
1

> <r_epik_Metal_State_Penalty>
0.575872

> <b_epik_Metal_Only>
1

> <s_lp_Force_Field>
OPLS_2005

> <r_lp_Energy>
2.18617

> <b_lp_Chiralities_Consistent>
1

> <s_lp_Variant>
AV-unprocessed.smi:1023-2

> <Gold.Version>
5.8.1

> <Gold.Id.Protein>
6NUR|6NUR_protein|mol2

> <Gold.PLP.Fitness>
43.0991

> <Gold.PLP.PLP>
-38.4067

> <Gold.PLP.part.hbond>
-3.0000

> <Gold.PLP.part.metal>
0.0000

> <Gold.PLP.part.buried>
-2.1604

> <Gold.PLP.part.nonpolar>
-31.6673

> <Gold.PLP.part.repulsive>
1.0736

> <Gold.PLP.ligand.clash>
0.0000

> <Gold.PLP.ligand.torsion>
0.7476

> <Gold.PLP.Chemscore.Hbond>
2.0000

> <Gold.PLP.Chemscore.CHOScore>
0.0000

> <Gold.PLP.Chemscore.Metal>
0.0000

> <Gold.Chemscore.Hbonds>
donor molecule, donor type, donor heavy atom, donor atom, acceptor molecule, acceptor atom, score
      P1  H  7997  8010       L1     8  2.00

> <Gold.PLP.Chemscore.Internal.Correction>
0.1877

> <Gold.Rescore>
     Score         DG    S(hbond)    S(metal)    S(lipo)     H(rot)  DE(clash)    DE(int)     intcor
     13.09     -13.97       0.84        0.00      79.09       1.39       0.04       0.84       ----

> <Gold.Chemscore.Fitness>
13.0885

> <Gold.Chemscore.DG>
-13.9728

> <Gold.Chemscore.ZeroCoef>
-5.4800

> <Gold.Chemscore.Hbond>
0.8383

> <Gold.Chemscore.Metal>
0.0000

> <Gold.Chemscore.Lipo>
79.0938

> <Gold.Chemscore.Internal_Hbond>
0.0000

> <Gold.Chemscore.DEClash>
0.0435

> <Gold.Chemscore.DEInternal>
0.8409

> <Gold.Chemscore.Rot>
1.3911

> <Gold.Chemscore.Internal.Correction>
   9.000000E+99

> <Gold.Chemscore.Hbonds>
donor molecule, donor type, donor heavy atom, donor atom, acceptor molecule, acceptor atom, score
      P1  H  7997  8010       L1     8  0.58

> <Gold.Chemscore.Hbond.Weighted>
-2.8000

> <Gold.Chemscore.Metal.Weighted>
-0.0000

> <Gold.Chemscore.Lipo.Weighted>
-9.2540

> <Gold.Chemscore.Internal_Hbond.Weighted>
0.0000

> <Gold.Chemscore.DEClash.Weighted>
0.0435

> <Gold.Chemscore.DEInternal.Weighted>
0.8409

> <Gold.Chemscore.Rot.Weighted>
3.5612

> <Gold.Chemscore.Internal.Correction.Weighted>
   9.000000E+99

> <Gold.Protein.RotatedTorsions>
[ 6907 6896 6895 6894 ] final -109.66 input  -60.11 | X-H torsion
[ 7974 7965 7964 7962 ] final   29.58 input  175.53 | X-H torsion
[ 8008 7997 7996 7995 ] final   74.18 input   59.86 | X-H torsion
[ 10167 10162 10161 10158 ] final  -80.86 input  -65.29 | X-H torsion
[ 10718 10713 10712 10709 ] final   52.77 input   66.30 | X-H torsion
[ 10763 10752 10751 10750 ] final  119.68 input  -60.55 | X-H torsion
[ 11005 11000 10999 10996 ] final  -44.18 input  -57.11 | X-H torsion

> <Gold.Protein.ActiveResidues>
 VAL166  LYS551  ARG553  GLY616  TRP617  ASP618  TYR619  PRO620  LYS621  CYS622 
 ASP623  PHE694  ASN695  SER759  ASP760  ASP761  ALA762  ILE779  LEU786  VAL792 
 PHE793  MET794  SER795  GLU796  ALA797  LYS798  CYS799  TRP800  GLU811  SER814 

> <Gold.Protein.RotatedAtoms>
  150.7576  133.9496  159.3481 H   0  0  0  0  0  0  0  0  0  0  0  0  # atno 6907 bound_to 6896
  151.7412  135.0852  160.0325 H   0  0  0  0  0  0  0  0  0  0  0  0  # atno 6908 bound_to 6896
  152.3527  133.6162  159.5992 H   0  0  0  0  0  0  0  0  0  0  0  0  # atno 6909 bound_to 6896
  146.1663  139.6902  142.8999 H   0  0  0  0  0  0  0  0  0  0  0  0  # atno 7974 bound_to 7965
  155.7945  140.3478  155.5368 H   0  0  0  0  0  0  0  0  0  0  0  0  # atno 8008 bound_to 7997
  155.8600  140.0970  157.1640 H   0  0  0  0  0  0  0  0  0  0  0  0  # atno 8009 bound_to 7997
  154.4011  140.1360  156.3936 H   0  0  0  0  0  0  0  0  0  0  0  0  # atno 8010 bound_to 7997
  140.4465  143.2497  151.8551 H   0  0  0  0  0  0  0  0  0  0  0  0  # atno 10167 bound_to 10162
  157.5105  130.8498  149.8429 H   0  0  0  0  0  0  0  0  0  0  0  0  # atno 10718 bound_to 10713
  153.5868  135.3473  155.2896 H   0  0  0  0  0  0  0  0  0  0  0  0  # atno 10763 bound_to 10752
  154.8659  135.4195  154.2560 H   0  0  0  0  0  0  0  0  0  0  0  0  # atno 10764 bound_to 10752
  153.3358  135.7047  153.6979 H   0  0  0  0  0  0  0  0  0  0  0  0  # atno 10765 bound_to 10752
  141.0433  133.6771  156.2837 H   0  0  0  0  0  0  0  0  0  0  0  0  # atno 11005 bound_to 11000
  145.4459  141.0425  143.2831 LP  0  0  0  0  0  0  0  0  0  0  0  0  # atno 17320 bound_to 7965
  144.8097  139.5985  143.7035 LP  0  0  0  0  0  0  0  0  0  0  0  0  # atno 17321 bound_to 7965
  139.4793  144.5170  151.8855 LP  0  0  0  0  0  0  0  0  0  0  0  0  # atno 17342 bound_to 10162
  140.4258  144.2182  150.5887 LP  0  0  0  0  0  0  0  0  0  0  0  0  # atno 17343 bound_to 10162
  156.0286  130.3771  150.1752 LP  0  0  0  0  0  0  0  0  0  0  0  0  # atno 17370 bound_to 10713
  156.9941  130.9902  151.3407 LP  0  0  0  0  0  0  0  0  0  0  0  0  # atno 17371 bound_to 10713
  140.6193  134.5378  157.5545 LP  0  0  0  0  0  0  0  0  0  0  0  0  # atno 17394 bound_to 11000
  139.9293  134.7995  156.0978 LP  0  0  0  0  0  0  0  0  0  0  0  0  # atno 17395 bound_to 11000

$$$$
