AV-unprocessed.smi:3126|AV-procd|sdf|11913|dock8
  -GOLD-   2272017293D 1   1.00000     0.00000
 Structure written by MMmdl.
 42 43  0  0  0  0  0  0  0  0  2 V2000
  153.6355  140.6310  160.3033 C   0  0  0  0  0  0  0  0  0  0  0  0
  153.5460  142.0760  160.8128 C   0  0  0  0  0  0  0  0  0  0  0  0
  152.4104  142.9010  160.1735 C   0  0  1  0  0  0  0  0  0  0  0  0
  152.1902  144.2524  160.8862 C   0  0  0  0  0  0  0  0  0  0  0  0
  151.0728  145.0718  160.2220 C   0  0  0  0  0  0  0  0  0  0  0  0
  151.3512  145.2959  158.7268 C   0  0  0  0  0  0  0  0  0  0  0  0
  151.5963  143.9726  157.9784 C   0  0  2  0  0  0  0  0  0  0  0  0
  150.3416  143.1972  157.8497 N   0  3  0  0  0  0  0  0  0  0  0  0
  150.5169  141.7980  157.4136 C   0  0  0  0  0  0  0  0  0  0  0  0
  150.3458  141.6699  155.8946 C   0  0  0  0  0  0  0  0  0  0  0  0
  150.6100  140.2583  155.4097 C   0  0  0  0  0  0  0  0  0  0  0  0
  151.8489  139.6300  155.6531 C   0  0  0  0  0  0  0  0  0  0  0  0
  152.0503  138.3199  155.1786 C   0  0  0  0  0  0  0  0  0  0  0  0
  151.0013  137.6916  154.4781 C   0  0  0  0  0  0  0  0  0  0  0  0
  149.8116  138.2840  154.2381 N   0  0  0  0  0  0  0  0  0  0  0  0
  149.6259  139.5398  154.6977 C   0  0  0  0  0  0  0  0  0  0  0  0
  152.6884  143.1351  158.6723 C   0  0  0  0  0  0  0  0  0  0  0  0
  154.4983  140.1245  160.7364 H   0  0  0  0  0  0  0  0  0  0  0  0
  153.7455  140.6005  159.2190 H   0  0  0  0  0  0  0  0  0  0  0  0
  152.7518  140.0523  160.5706 H   0  0  0  0  0  0  0  0  0  0  0  0
  153.4397  142.0745  161.8983 H   0  0  0  0  0  0  0  0  0  0  0  0
  154.4998  142.5628  160.6060 H   0  0  0  0  0  0  0  0  0  0  0  0
  151.4916  142.3185  160.2569 H   0  0  0  0  0  0  0  0  0  0  0  0
  151.9342  144.0942  161.9334 H   0  0  0  0  0  0  0  0  0  0  0  0
  153.1167  144.8283  160.8795 H   0  0  0  0  0  0  0  0  0  0  0  0
  150.1185  144.5593  160.3484 H   0  0  0  0  0  0  0  0  0  0  0  0
  150.9723  146.0337  160.7258 H   0  0  0  0  0  0  0  0  0  0  0  0
  150.5280  145.8454  158.2681 H   0  0  0  0  0  0  0  0  0  0  0  0
  152.2325  145.9306  158.6241 H   0  0  0  0  0  0  0  0  0  0  0  0
  151.9564  144.2174  156.9778 H   0  0  0  0  0  0  0  0  0  0  0  0
  149.8817  143.1920  158.7489 H   0  0  0  0  0  0  0  0  0  0  0  0
  151.5074  141.4494  157.7100 H   0  0  0  0  0  0  0  0  0  0  0  0
  149.7843  141.1717  157.9251 H   0  0  0  0  0  0  0  0  0  0  0  0
  149.3349  141.9605  155.6050 H   0  0  0  0  0  0  0  0  0  0  0  0
  151.0227  142.3545  155.3811 H   0  0  0  0  0  0  0  0  0  0  0  0
  152.6326  140.1419  156.1922 H   0  0  0  0  0  0  0  0  0  0  0  0
  152.9860  137.8075  155.3473 H   0  0  0  0  0  0  0  0  0  0  0  0
  151.1218  136.6871  154.1002 H   0  0  0  0  0  0  0  0  0  0  0  0
  148.6644  139.9849  154.4879 H   0  0  0  0  0  0  0  0  0  0  0  0
  153.6458  143.6472  158.5649 H   0  0  0  0  0  0  0  0  0  0  0  0
  152.8009  142.1804  158.1563 H   0  0  0  0  0  0  0  0  0  0  0  0
  149.7421  143.6700  157.1881 H   0  0  0  0  0  0  0  0  0  0  0  0
  1  2  1  0  0  0  0
  1 18  1  0  0  0  0
  1 19  1  0  0  0  0
  1 20  1  0  0  0  0
  2  3  1  0  0  0  0
  2 21  1  0  0  0  0
  2 22  1  0  0  0  0
  3 17  1  0  0  0  0
  3  4  1  0  0  0  0
  3 23  1  0  0  0  0
  4  5  1  0  0  0  0
  4 24  1  0  0  0  0
  4 25  1  0  0  0  0
  5  6  1  0  0  0  0
  5 26  1  0  0  0  0
  5 27  1  0  0  0  0
  6  7  1  0  0  0  0
  6 28  1  0  0  0  0
  6 29  1  0  0  0  0
  7  8  1  0  0  0  0
  7 17  1  0  0  0  0
  7 30  1  0  0  0  0
  8  9  1  0  0  0  0
  8 31  1  0  0  0  0
  8 42  1  0  0  0  0
  9 10  1  0  0  0  0
  9 32  1  0  0  0  0
  9 33  1  0  0  0  0
 10 11  1  0  0  0  0
 10 34  1  0  0  0  0
 10 35  1  0  0  0  0
 11 16  1  0  0  0  0
 11 12  2  0  0  0  0
 12 13  1  0  0  0  0
 12 36  1  0  0  0  0
 13 14  2  0  0  0  0
 13 37  1  0  0  0  0
 14 15  1  0  0  0  0
 14 38  1  0  0  0  0
 15 16  2  0  0  0  0
 16 39  1  0  0  0  0
 17 40  1  0  0  0  0
 17 41  1  0  0  0  0
M  CHG  1   8   1
M  END
> <s_m_source_file>
AV-unprocessed.smi

> <i_m_source_file_index>
3126

> <i_lp_mmshare_version>
43012

> <i_f3d_flags>
0

> <s_epik_input>
W0NIM11bQ0gyXVtDQEBIXTFbQ0gyXVtDSDJdW0NIMl1bQ0BIXShbQ0gyXTEpW05IXVtDSDJdW0NIMl1jMltjSF1bY0hdW2NIXW5bY0hdMg==

> <s_epik_cmdline>
J2VwaWtfcHl0aG9uJywgJy1waCcsICc3LjAnLCAnLXRuJywgJzgnLCAnLW1hJywgJzIwMCcsICctbWV0YWxfYmluZGluZycsICctaW1hZScsICc8aW5maWxlLm1hZT4nLCAnLW9tYWUnLCAnPG91dGZpbGUubWFlPic=

> <r_lp_tautomer_probability>
1

> <r_epik_Ionization_Penalty>
0.000947364

> <r_epik_Ionization_Penalty_Charging>
0.000286103

> <r_epik_Ionization_Penalty_Neutral>
0.000661261

> <r_epik_State_Penalty>
-0

> <r_epik_Charging_Adjusted_Penalty>
0.000286103

> <i_epik_Tot_Q>
1

> <i_epik_Tot_abs_Q>
1

> <r_epik_Metal_State_Penalty>
-0

> <b_epik_Metal_Only>
0

> <s_lp_Force_Field>
OPLS_2005

> <r_lp_Energy>
19.3892

> <b_lp_Chiralities_Consistent>
1

> <s_lp_Variant>
AV-unprocessed.smi:3126-4

> <Gold.Version>
5.8.1

> <Gold.Id.Protein>
6NUR|6NUR_protein|mol2

> <Gold.PLP.Fitness>
57.1429

> <Gold.PLP.PLP>
-48.8819

> <Gold.PLP.part.hbond>
-1.0000

> <Gold.PLP.part.metal>
0.0000

> <Gold.PLP.part.buried>
-3.5262

> <Gold.PLP.part.nonpolar>
-44.4685

> <Gold.PLP.part.repulsive>
0.2813

> <Gold.PLP.ligand.clash>
0.0000

> <Gold.PLP.ligand.torsion>
0.3891

> <Gold.PLP.Chemscore.Hbond>
2.0000

> <Gold.PLP.Chemscore.CHOScore>
1.0000

> <Gold.PLP.Chemscore.Metal>
0.0000

> <Gold.Chemscore.Hbonds>
donor molecule, donor type, donor heavy atom, donor atom, acceptor molecule, acceptor atom, score
      L1  H     8    42       P1  8028  2.00
      L1  C    14    38       P1  7949  0.53

> <Gold.PLP.Chemscore.Internal.Correction>
0.0392

> <Gold.Rescore>
     Score         DG    S(hbond)    S(metal)    S(lipo)     H(rot)  DE(clash)    DE(int)     intcor
     21.20     -21.85       0.98        0.00     141.52       1.35       0.14       0.50       ----

> <Gold.Chemscore.Fitness>
21.2012

> <Gold.Chemscore.DG>
-21.8462

> <Gold.Chemscore.ZeroCoef>
-5.4800

> <Gold.Chemscore.Hbond>
0.9779

> <Gold.Chemscore.Metal>
0.0000

> <Gold.Chemscore.Lipo>
141.5185

> <Gold.Chemscore.Internal_Hbond>
0.0000

> <Gold.Chemscore.DEClash>
0.1408

> <Gold.Chemscore.DEInternal>
0.5041

> <Gold.Chemscore.Rot>
1.3507

> <Gold.Chemscore.Internal.Correction>
   9.000000E+99

> <Gold.Chemscore.Hbonds>
donor molecule, donor type, donor heavy atom, donor atom, acceptor molecule, acceptor atom, score
      L1  H     8    42       P1  8028  0.82

> <Gold.Chemscore.Hbond.Weighted>
-3.2663

> <Gold.Chemscore.Metal.Weighted>
-0.0000

> <Gold.Chemscore.Lipo.Weighted>
-16.5577

> <Gold.Chemscore.Internal_Hbond.Weighted>
0.0000

> <Gold.Chemscore.DEClash.Weighted>
0.1408

> <Gold.Chemscore.DEInternal.Weighted>
0.5041

> <Gold.Chemscore.Rot.Weighted>
3.4579

> <Gold.Chemscore.Internal.Correction.Weighted>
   9.000000E+99

> <Gold.Protein.RotatedTorsions>
[ 6907 6896 6895 6894 ] final -103.69 input  -60.11 | X-H torsion
[ 7974 7965 7964 7962 ] final  -59.57 input  175.53 | X-H torsion
[ 8008 7997 7996 7995 ] final  112.64 input   59.86 | X-H torsion
[ 10167 10162 10161 10158 ] final   94.57 input  -65.29 | X-H torsion
[ 10718 10713 10712 10709 ] final   23.83 input   66.30 | X-H torsion
[ 10763 10752 10751 10750 ] final  104.94 input  -60.55 | X-H torsion
[ 11005 11000 10999 10996 ] final   79.99 input  -57.11 | X-H torsion

> <Gold.Protein.ActiveResidues>
 VAL166  LYS551  ARG553  GLY616  TRP617  ASP618  TYR619  PRO620  LYS621  CYS622 
 ASP623  PHE694  ASN695  SER759  ASP760  ASP761  ALA762  ILE779  LEU786  VAL792 
 PHE793  MET794  SER795  GLU796  ALA797  LYS798  CYS799  TRP800  GLU811  SER814 

> <Gold.Protein.RotatedAtoms>
  150.7252  134.0391  159.3759 H   0  0  0  0  0  0  0  0  0  0  0  0  # atno 6907 bound_to 6896
  151.8364  135.0602  160.0452 H   0  0  0  0  0  0  0  0  0  0  0  0  # atno 6908 bound_to 6896
  152.2895  133.5512  159.5585 H   0  0  0  0  0  0  0  0  0  0  0  0  # atno 6909 bound_to 6896
  145.8259  140.8511  143.0109 H   0  0  0  0  0  0  0  0  0  0  0  0  # atno 7974 bound_to 7965
  156.2205  140.2995  155.9942 H   0  0  0  0  0  0  0  0  0  0  0  0  # atno 8008 bound_to 7997
  155.2493  140.0425  157.3002 H   0  0  0  0  0  0  0  0  0  0  0  0  # atno 8009 bound_to 7997
  154.5834  140.2381  155.8030 H   0  0  0  0  0  0  0  0  0  0  0  0  # atno 8010 bound_to 7997
  139.8071  144.6789  150.9688 H   0  0  0  0  0  0  0  0  0  0  0  0  # atno 10167 bound_to 10162
  157.1715  130.6762  149.6079 H   0  0  0  0  0  0  0  0  0  0  0  0  # atno 10718 bound_to 10713
  153.3727  135.3926  155.1800 H   0  0  0  0  0  0  0  0  0  0  0  0  # atno 10763 bound_to 10752
  154.8696  135.3706  154.4957 H   0  0  0  0  0  0  0  0  0  0  0  0  # atno 10764 bound_to 10752
  153.5426  135.7084  153.5690 H   0  0  0  0  0  0  0  0  0  0  0  0  # atno 10765 bound_to 10752
  139.9151  134.7886  156.1851 H   0  0  0  0  0  0  0  0  0  0  0  0  # atno 11005 bound_to 11000
  144.6743  140.0601  143.7476 LP  0  0  0  0  0  0  0  0  0  0  0  0  # atno 17320 bound_to 7965
  145.9624  139.2810  143.1147 LP  0  0  0  0  0  0  0  0  0  0  0  0  # atno 17321 bound_to 7965
  140.7819  143.4222  151.0823 LP  0  0  0  0  0  0  0  0  0  0  0  0  # atno 17342 bound_to 10162
  139.7891  143.8244  152.3149 LP  0  0  0  0  0  0  0  0  0  0  0  0  # atno 17343 bound_to 10162
  155.9737  130.4677  150.6335 LP  0  0  0  0  0  0  0  0  0  0  0  0  # atno 17370 bound_to 10713
  157.4038  131.0814  151.1284 LP  0  0  0  0  0  0  0  0  0  0  0  0  # atno 17371 bound_to 10713
  141.0618  133.6838  156.1967 LP  0  0  0  0  0  0  0  0  0  0  0  0  # atno 17394 bound_to 11000
  140.6648  134.4929  157.5585 LP  0  0  0  0  0  0  0  0  0  0  0  0  # atno 17395 bound_to 11000

$$$$
