AV-unprocessed.smi:1990|AV-procd|sdf|8065|dock3
  -GOLD-   2272010273D 1   1.00000     0.00000
 Structure written by MMmdl.
 46 47  0  0  0  0  0  0  0  0  1 V2000
  150.6131  142.7982  157.8239 C   0  0  0  0  0  0  0  0  0  0  0  0
  151.4707  142.2192  158.9541 C   0  0  1  0  0  0  0  0  0  0  0  0
  152.1742  140.9168  158.5304 C   0  0  0  0  0  0  0  0  0  0  0  0
  153.0871  140.4686  159.5762 N   0  0  0  0  0  0  0  0  0  0  0  0
  153.5445  139.1394  159.4555 C   0  0  0  0  0  0  0  0  0  0  0  0
  153.5443  138.2849  160.5824 C   0  0  0  0  0  0  0  0  0  0  0  0
  154.0083  136.9623  160.4461 C   0  0  0  0  0  0  0  0  0  0  0  0
  154.4567  136.5204  159.1789 C   0  0  0  0  0  0  0  0  0  0  0  0
  154.9639  135.2219  158.8985 N   0  0  0  0  0  0  0  0  0  0  0  0
  155.5098  134.7394  157.7661 C   0  0  0  0  0  0  0  0  0  0  0  0
  155.7175  135.4023  156.7506 O   0  0  0  0  0  0  0  0  0  0  0  0
  155.9075  133.2568  157.8046 C   0  0  2  0  0  0  0  0  0  0  0  0
  156.5588  132.8002  156.4886 C   0  0  0  0  0  0  0  0  0  0  0  0
  154.4209  132.2096  158.1684 S   0  0  0  0  0  0  0  0  0  0  0  0
  154.3110  131.1075  156.6957 C   0  0  0  0  0  0  0  0  0  0  0  0
  154.7019  131.3716  159.3444 O   0  0  0  0  0  0  0  0  0  0  0  0
  153.2394  133.0858  158.1744 O   0  0  0  0  0  0  0  0  0  0  0  0
  154.4268  137.4488  158.1192 C   0  0  0  0  0  0  0  0  0  0  0  0
  153.9870  138.7175  158.2463 N   0  0  0  0  0  0  0  0  0  0  0  0
  154.0498  141.4914  159.9779 C   0  0  0  0  0  0  0  0  0  0  0  0
  153.3355  142.8026  160.3584 C   0  0  2  0  0  0  0  0  0  0  0  0
  152.6357  142.7447  161.7283 C   0  0  0  0  0  0  0  0  0  0  0  0
  152.4451  143.1985  159.3129 O   0  0  0  0  0  0  0  0  0  0  0  0
  149.8376  142.0949  157.5202 H   0  0  0  0  0  0  0  0  0  0  0  0
  151.2188  143.0286  156.9470 H   0  0  0  0  0  0  0  0  0  0  0  0
  150.1218  143.7186  158.1405 H   0  0  0  0  0  0  0  0  0  0  0  0
  150.8176  142.0224  159.8044 H   0  0  0  0  0  0  0  0  0  0  0  0
  151.4234  140.1609  158.3024 H   0  0  0  0  0  0  0  0  0  0  0  0
  152.7458  141.0792  157.6156 H   0  0  0  0  0  0  0  0  0  0  0  0
  153.2128  138.6341  161.5492 H   0  0  0  0  0  0  0  0  0  0  0  0
  154.0194  136.3301  161.3190 H   0  0  0  0  0  0  0  0  0  0  0  0
  154.9155  134.5726  159.6702 H   0  0  0  0  0  0  0  0  0  0  0  0
  156.6193  133.0959  158.6153 H   0  0  0  0  0  0  0  0  0  0  0  0
  157.4167  133.4228  156.2323 H   0  0  0  0  0  0  0  0  0  0  0  0
  155.8541  132.8406  155.6571 H   0  0  0  0  0  0  0  0  0  0  0  0
  156.9126  131.7721  156.5678 H   0  0  0  0  0  0  0  0  0  0  0  0
  153.3969  130.5175  156.7565 H   0  0  0  0  0  0  0  0  0  0  0  0
  155.1661  130.4326  156.6710 H   0  0  0  0  0  0  0  0  0  0  0  0
  154.2913  131.7091  155.7874 H   0  0  0  0  0  0  0  0  0  0  0  0
  154.7685  137.1665  157.1338 H   0  0  0  0  0  0  0  0  0  0  0  0
  154.6505  141.1431  160.8193 H   0  0  0  0  0  0  0  0  0  0  0  0
  154.7334  141.6740  159.1475 H   0  0  0  0  0  0  0  0  0  0  0  0
  154.0928  143.5842  160.4252 H   0  0  0  0  0  0  0  0  0  0  0  0
  153.3606  142.5731  162.5241 H   0  0  0  0  0  0  0  0  0  0  0  0
  151.9004  141.9425  161.7849 H   0  0  0  0  0  0  0  0  0  0  0  0
  152.1255  143.6835  161.9443 H   0  0  0  0  0  0  0  0  0  0  0  0
  1  2  1  0  0  0  0
  1 24  1  0  0  0  0
  1 25  1  0  0  0  0
  1 26  1  0  0  0  0
  2 23  1  0  0  0  0
  2  3  1  0  0  0  0
  2 27  1  0  0  0  0
  3  4  1  0  0  0  0
  3 28  1  0  0  0  0
  3 29  1  0  0  0  0
  4  5  1  0  0  0  0
  4 20  1  0  0  0  0
  5 19  1  0  0  0  0
  5  6  2  0  0  0  0
  6  7  1  0  0  0  0
  6 30  1  0  0  0  0
  7  8  2  0  0  0  0
  7 31  1  0  0  0  0
  8  9  1  0  0  0  0
  8 18  1  0  0  0  0
  9 10  1  0  0  0  0
  9 32  1  0  0  0  0
 10 11  2  0  0  0  0
 10 12  1  0  0  0  0
 12 13  1  0  0  0  0
 12 14  1  0  0  0  0
 12 33  1  0  0  0  0
 13 34  1  0  0  0  0
 13 35  1  0  0  0  0
 13 36  1  0  0  0  0
 14 15  1  0  0  0  0
 14 16  2  0  0  0  0
 14 17  2  0  0  0  0
 15 37  1  0  0  0  0
 15 38  1  0  0  0  0
 15 39  1  0  0  0  0
 18 19  2  0  0  0  0
 18 40  1  0  0  0  0
 20 21  1  0  0  0  0
 20 41  1  0  0  0  0
 20 42  1  0  0  0  0
 21 22  1  0  0  0  0
 21 23  1  0  0  0  0
 21 43  1  0  0  0  0
 22 44  1  0  0  0  0
 22 45  1  0  0  0  0
 22 46  1  0  0  0  0
M  END
> <s_m_source_file>
AV-unprocessed.smi

> <i_m_source_file_index>
1990

> <i_lp_mmshare_version>
43012

> <i_f3d_flags>
0

> <s_epik_input>
W0NIM11bQ0BASF0xW0NIMl1OKFtDSDJdW0NASF0oTzEpW0NIM10pYzJbY0hdW2NIXWMoW2NIXW4yKVtOSF1DKD1PKVtDQEhdKFtDSDNdKVMoPU8pKD1PKVtDSDNd

> <s_epik_cmdline>
J2VwaWtfcHl0aG9uJywgJy1waCcsICc3LjAnLCAnLXRuJywgJzgnLCAnLW1hJywgJzIwMCcsICctbWV0YWxfYmluZGluZycsICctaW1hZScsICc8aW5maWxlLm1hZT4nLCAnLW9tYWUnLCAnPG91dGZpbGUubWFlPic=

> <r_lp_tautomer_probability>
1

> <r_epik_Ionization_Penalty>
0.000334888

> <r_epik_Ionization_Penalty_Charging>
0

> <r_epik_Ionization_Penalty_Neutral>
0.000334888

> <r_epik_State_Penalty>
0.000200905

> <r_epik_Charging_Adjusted_Penalty>
0.000200905

> <i_epik_Tot_Q>
0

> <i_epik_Tot_abs_Q>
0

> <r_epik_Metal_State_Penalty>
-0

> <b_epik_Metal_Only>
0

> <s_lp_Force_Field>
OPLS_2005

> <r_lp_Energy>
21.5774

> <b_lp_Chiralities_Consistent>
1

> <s_lp_Variant>
AV-unprocessed.smi:1990-5

> <Gold.Version>
5.8.1

> <Gold.Id.Protein>
6NUR|6NUR_protein|mol2

> <Gold.PLP.Fitness>
40.0602

> <Gold.PLP.PLP>
-31.9806

> <Gold.PLP.part.hbond>
-3.0000

> <Gold.PLP.part.metal>
0.0000

> <Gold.PLP.part.buried>
-5.8005

> <Gold.PLP.part.nonpolar>
-23.2940

> <Gold.PLP.part.repulsive>
0.0968

> <Gold.PLP.ligand.clash>
0.0000

> <Gold.PLP.ligand.torsion>
0.6151

> <Gold.PLP.Chemscore.Hbond>
2.9440

> <Gold.PLP.Chemscore.CHOScore>
0.0000

> <Gold.PLP.Chemscore.Metal>
0.0000

> <Gold.Chemscore.Hbonds>
donor molecule, donor type, donor heavy atom, donor atom, acceptor molecule, acceptor atom, score
      P1  H  6896  6908       L1    17  1.00
      P1  H  7997  8008       L1    19  1.00
      P1  H 10752 10765       L1    11  1.00

> <Gold.PLP.Chemscore.Internal.Correction>
0.4778

> <Gold.Rescore>
     Score         DG    S(hbond)    S(metal)    S(lipo)     H(rot)  DE(clash)    DE(int)     intcor
     17.71     -20.99       2.79        0.00      86.16       1.52       0.01       3.28       ----

> <Gold.Chemscore.Fitness>
17.7071

> <Gold.Chemscore.DG>
-20.9928

> <Gold.Chemscore.ZeroCoef>
-5.4800

> <Gold.Chemscore.Hbond>
2.7895

> <Gold.Chemscore.Metal>
0.0000

> <Gold.Chemscore.Lipo>
86.1650

> <Gold.Chemscore.Internal_Hbond>
0.0000

> <Gold.Chemscore.DEClash>
0.0069

> <Gold.Chemscore.DEInternal>
3.2789

> <Gold.Chemscore.Rot>
1.5177

> <Gold.Chemscore.Internal.Correction>
   9.000000E+99

> <Gold.Chemscore.Hbonds>
donor molecule, donor type, donor heavy atom, donor atom, acceptor molecule, acceptor atom, score
      P1  H  6896  6908       L1    17  0.95
      P1  H  7997  8008       L1    19  0.87
      P1  H 10752 10765       L1    11  0.98

> <Gold.Chemscore.Hbond.Weighted>
-9.3168

> <Gold.Chemscore.Metal.Weighted>
-0.0000

> <Gold.Chemscore.Lipo.Weighted>
-10.0813

> <Gold.Chemscore.Internal_Hbond.Weighted>
0.0000

> <Gold.Chemscore.DEClash.Weighted>
0.0069

> <Gold.Chemscore.DEInternal.Weighted>
3.2789

> <Gold.Chemscore.Rot.Weighted>
3.8853

> <Gold.Chemscore.Internal.Correction.Weighted>
   9.000000E+99

> <Gold.Protein.RotatedTorsions>
[ 6907 6896 6895 6894 ] final   26.02 input  -60.11 | X-H torsion
[ 7974 7965 7964 7962 ] final   53.23 input  175.53 | X-H torsion
[ 8008 7997 7996 7995 ] final -100.33 input   59.86 | X-H torsion
[ 10167 10162 10161 10158 ] final -168.79 input  -65.29 | X-H torsion
[ 10718 10713 10712 10709 ] final  -56.07 input   66.30 | X-H torsion
[ 10763 10752 10751 10750 ] final  -61.05 input  -60.55 | X-H torsion
[ 11005 11000 10999 10996 ] final   31.14 input  -57.11 | X-H torsion

> <Gold.Protein.ActiveResidues>
 VAL166  LYS551  ARG553  GLY616  TRP617  ASP618  TYR619  PRO620  LYS621  CYS622 
 ASP623  PHE694  ASN695  SER759  ASP760  ASP761  ALA762  ILE779  LEU786  VAL792 
 PHE793  MET794  SER795  GLU796  ALA797  LYS798  CYS799  TRP800  GLU811  SER814 

> <Gold.Protein.RotatedAtoms>
  151.9812  135.0028  160.0557 H   0  0  0  0  0  0  0  0  0  0  0  0  # atno 6907 bound_to 6896
  152.1695  133.4629  159.4910 H   0  0  0  0  0  0  0  0  0  0  0  0  # atno 6908 bound_to 6896
  150.6899  134.1889  159.4320 H   0  0  0  0  0  0  0  0  0  0  0  0  # atno 6909 bound_to 6896
  145.9733  139.4170  143.0177 H   0  0  0  0  0  0  0  0  0  0  0  0  # atno 7974 bound_to 7965
  154.8271  140.0441  157.1451 H   0  0  0  0  0  0  0  0  0  0  0  0  # atno 8008 bound_to 7997
  154.9194  140.3024  155.5204 H   0  0  0  0  0  0  0  0  0  0  0  0  # atno 8009 bound_to 7997
  156.2984  140.2343  156.4242 H   0  0  0  0  0  0  0  0  0  0  0  0  # atno 8010 bound_to 7997
  139.5963  144.1105  152.1693 H   0  0  0  0  0  0  0  0  0  0  0  0  # atno 10167 bound_to 10162
  156.1317  130.4159  150.0256 H   0  0  0  0  0  0  0  0  0  0  0  0  # atno 10718 bound_to 10713
  154.2786  135.6276  153.5338 H   0  0  0  0  0  0  0  0  0  0  0  0  # atno 10763 bound_to 10752
  152.9869  135.5627  154.5520 H   0  0  0  0  0  0  0  0  0  0  0  0  # atno 10764 bound_to 10752
  154.5106  135.2877  155.1321 H   0  0  0  0  0  0  0  0  0  0  0  0  # atno 10765 bound_to 10752
  140.2870  134.2908  155.7786 H   0  0  0  0  0  0  0  0  0  0  0  0  # atno 11005 bound_to 11000
  145.7875  140.9829  143.1066 LP  0  0  0  0  0  0  0  0  0  0  0  0  # atno 17320 bound_to 7965
  144.6842  139.9641  143.7481 LP  0  0  0  0  0  0  0  0  0  0  0  0  # atno 17321 bound_to 7965
  140.0691  144.5794  150.7205 LP  0  0  0  0  0  0  0  0  0  0  0  0  # atno 17342 bound_to 10162
  140.7214  143.2593  151.4264 LP  0  0  0  0  0  0  0  0  0  0  0  0  # atno 17343 bound_to 10162
  156.8166  130.9344  151.3642 LP  0  0  0  0  0  0  0  0  0  0  0  0  # atno 17370 bound_to 10713
  157.6495  130.8872  149.9604 LP  0  0  0  0  0  0  0  0  0  0  0  0  # atno 17371 bound_to 10713
  141.2153  133.7561  156.9566 LP  0  0  0  0  0  0  0  0  0  0  0  0  # atno 17394 bound_to 11000
  140.1231  134.9404  157.2231 LP  0  0  0  0  0  0  0  0  0  0  0  0  # atno 17395 bound_to 11000

$$$$
