AV-unprocessed.smi:3312|AV-procd|sdf|12728|dock5
  -GOLD-   2272019 73D 1   1.00000     0.00000
 Structure written by MMmdl.
 38 39  0  0  0  0  0  0  0  0  1 V2000
  151.8673  145.8908  160.0214 C   0  0  0  0  0  0  0  0  0  0  0  0
  151.8951  144.5673  159.3124 C   0  0  0  0  0  0  0  0  0  0  0  0
  151.3409  144.2434  158.0413 C   0  0  0  0  0  0  0  0  0  0  0  0
  151.5371  142.9799  157.7015 N   0  0  0  0  0  0  0  0  0  0  0  0
  152.2181  142.4529  158.7408 N   0  0  0  0  0  0  0  0  0  0  0  0
  152.6112  141.0549  158.7139 C   0  0  0  0  0  0  0  0  0  0  0  0
  151.6175  140.1740  157.9372 C   0  0  0  0  0  0  0  0  0  0  0  0
  152.1576  139.8432  156.6215 N   0  0  0  0  0  0  0  0  0  0  0  0
  151.3594  140.4059  155.5186 C   0  0  0  0  0  0  0  0  0  0  0  0
  150.4115  139.4159  154.8104 C   0  0  0  0  0  0  0  0  0  0  0  0
  150.8729  138.3714  154.3466 O   0  0  0  0  0  0  0  0  0  0  0  0
  149.0918  139.7133  154.7311 N   0  0  0  0  0  0  0  0  0  0  0  0
  148.1231  138.8833  154.0086 C   0  0  0  0  0  0  0  0  0  0  0  0
  147.5492  139.7122  152.8448 C   0  0  0  0  0  0  0  0  0  0  0  0
  146.9563  140.9069  153.3493 O   0  0  0  0  0  0  0  0  0  0  0  0
  147.8688  141.7187  154.0852 C   0  0  0  0  0  0  0  0  0  0  0  0
  148.4378  140.9118  155.2656 C   0  0  0  0  0  0  0  0  0  0  0  0
  152.4512  143.3897  159.7251 C   0  0  0  0  0  0  0  0  0  0  0  0
  151.7223  146.7187  159.3270 H   0  0  0  0  0  0  0  0  0  0  0  0
  152.7973  146.0813  160.5576 H   0  0  0  0  0  0  0  0  0  0  0  0
  151.0591  145.9376  160.7514 H   0  0  0  0  0  0  0  0  0  0  0  0
  150.8046  144.8861  157.3588 H   0  0  0  0  0  0  0  0  0  0  0  0
  153.5994  140.9886  158.2570 H   0  0  0  0  0  0  0  0  0  0  0  0
  152.7188  140.6982  159.7392 H   0  0  0  0  0  0  0  0  0  0  0  0
  151.4114  139.2599  158.4960 H   0  0  0  0  0  0  0  0  0  0  0  0
  150.6719  140.7070  157.8422 H   0  0  0  0  0  0  0  0  0  0  0  0
  152.2205  138.8380  156.5469 H   0  0  0  0  0  0  0  0  0  0  0  0
  150.7487  141.2135  155.9233 H   0  0  0  0  0  0  0  0  0  0  0  0
  152.0415  140.8560  154.7963 H   0  0  0  0  0  0  0  0  0  0  0  0
  148.5557  137.9599  153.6218 H   0  0  0  0  0  0  0  0  0  0  0  0
  147.3243  138.5824  154.6880 H   0  0  0  0  0  0  0  0  0  0  0  0
  148.3293  139.9597  152.1231 H   0  0  0  0  0  0  0  0  0  0  0  0
  146.7903  139.1397  152.3113 H   0  0  0  0  0  0  0  0  0  0  0  0
  148.6688  142.0701  153.4316 H   0  0  0  0  0  0  0  0  0  0  0  0
  147.3417  142.6005  154.4492 H   0  0  0  0  0  0  0  0  0  0  0  0
  147.6288  140.6085  155.9316 H   0  0  0  0  0  0  0  0  0  0  0  0
  149.0886  141.5421  155.8687 H   0  0  0  0  0  0  0  0  0  0  0  0
  152.9854  143.1421  160.6306 H   0  0  0  0  0  0  0  0  0  0  0  0
  1  2  1  0  0  0  0
  1 19  1  0  0  0  0
  1 20  1  0  0  0  0
  1 21  1  0  0  0  0
  2 18  2  0  0  0  0
  2  3  1  0  0  0  0
  3  4  2  0  0  0  0
  3 22  1  0  0  0  0
  4  5  1  0  0  0  0
  5  6  1  0  0  0  0
  5 18  1  0  0  0  0
  6  7  1  0  0  0  0
  6 23  1  0  0  0  0
  6 24  1  0  0  0  0
  7  8  1  0  0  0  0
  7 25  1  0  0  0  0
  7 26  1  0  0  0  0
  8  9  1  0  0  0  0
  8 27  1  0  0  0  0
  9 10  1  0  0  0  0
  9 28  1  0  0  0  0
  9 29  1  0  0  0  0
 10 11  2  0  0  0  0
 10 12  1  0  0  0  0
 12 17  1  0  0  0  0
 12 13  1  0  0  0  0
 13 14  1  0  0  0  0
 13 30  1  0  0  0  0
 13 31  1  0  0  0  0
 14 15  1  0  0  0  0
 14 32  1  0  0  0  0
 14 33  1  0  0  0  0
 15 16  1  0  0  0  0
 16 17  1  0  0  0  0
 16 34  1  0  0  0  0
 16 35  1  0  0  0  0
 17 36  1  0  0  0  0
 17 37  1  0  0  0  0
 18 38  1  0  0  0  0
M  END
> <s_m_source_file>
AV-unprocessed.smi

> <i_m_source_file_index>
3312

> <i_lp_mmshare_version>
43012

> <i_f3d_flags>
0

> <s_epik_input>
W0NIM11jMVtjSF1ubihbY0hdMSlbQ0gyXVtDSDJdW05IXVtDSDJdQyg9TylOMltDSDJdW0NIMl1PW0NIMl1bQ0gyXTI=

> <s_epik_cmdline>
J2VwaWtfcHl0aG9uJywgJy1waCcsICc3LjAnLCAnLXRuJywgJzgnLCAnLW1hJywgJzIwMCcsICctbWV0YWxfYmluZGluZycsICctaW1hZScsICc8aW5maWxlLm1hZT4nLCAnLW9tYWUnLCAnPG91dGZpbGUubWFlPic=

> <r_lp_tautomer_probability>
1

> <r_epik_Ionization_Penalty>
0.513825

> <r_epik_Ionization_Penalty_Charging>
0

> <r_epik_Ionization_Penalty_Neutral>
0.513825

> <r_epik_State_Penalty>
0.518565

> <r_epik_Charging_Adjusted_Penalty>
0.518565

> <i_epik_Tot_Q>
0

> <i_epik_Tot_abs_Q>
0

> <r_epik_Metal_State_Penalty>
0.515505

> <b_epik_Metal_Only>
0

> <s_lp_Force_Field>
OPLS_2005

> <r_lp_Energy>
26.2636

> <b_lp_Chiralities_Consistent>
1

> <s_lp_Variant>
AV-unprocessed.smi:3312-2

> <Gold.Version>
5.8.1

> <Gold.Id.Protein>
6NUR|6NUR_protein|mol2

> <Gold.PLP.Fitness>
38.7956

> <Gold.PLP.PLP>
-37.3158

> <Gold.PLP.part.hbond>
-0.5081

> <Gold.PLP.part.metal>
0.0000

> <Gold.PLP.part.buried>
0.1531

> <Gold.PLP.part.nonpolar>
-36.8423

> <Gold.PLP.part.repulsive>
0.4527

> <Gold.PLP.ligand.clash>
0.0000

> <Gold.PLP.ligand.torsion>
1.3731

> <Gold.PLP.Chemscore.Hbond>
0.4095

> <Gold.PLP.Chemscore.CHOScore>
0.9915

> <Gold.PLP.Chemscore.Metal>
0.0000

> <Gold.Chemscore.Hbonds>
donor molecule, donor type, donor heavy atom, donor atom, acceptor molecule, acceptor atom, score
      P1  H  7997  8010       L1     8  0.37
      L1  C     3    22       P1  8028  1.00

> <Gold.PLP.Chemscore.Internal.Correction>
0.0230

> <Gold.Rescore>
     Score         DG    S(hbond)    S(metal)    S(lipo)     H(rot)  DE(clash)    DE(int)     intcor
      9.95     -11.52       0.02        0.00      91.04       1.82       0.26       1.31       ----

> <Gold.Chemscore.Fitness>
9.9518

> <Gold.Chemscore.DG>
-11.5205

> <Gold.Chemscore.ZeroCoef>
-5.4800

> <Gold.Chemscore.Hbond>
0.0153

> <Gold.Chemscore.Metal>
0.0000

> <Gold.Chemscore.Lipo>
91.0405

> <Gold.Chemscore.Internal_Hbond>
0.0000

> <Gold.Chemscore.DEClash>
0.2616

> <Gold.Chemscore.DEInternal>
1.3071

> <Gold.Chemscore.Rot>
1.8213

> <Gold.Chemscore.Internal.Correction>
   9.000000E+99

> <Gold.Chemscore.Hbonds>
donor molecule, donor type, donor heavy atom, donor atom, acceptor molecule, acceptor atom, score
      P1  H  7997  8010       L1     8  0.03

> <Gold.Chemscore.Hbond.Weighted>
-0.0512

> <Gold.Chemscore.Metal.Weighted>
-0.0000

> <Gold.Chemscore.Lipo.Weighted>
-10.6517

> <Gold.Chemscore.Internal_Hbond.Weighted>
0.0000

> <Gold.Chemscore.DEClash.Weighted>
0.2616

> <Gold.Chemscore.DEInternal.Weighted>
1.3071

> <Gold.Chemscore.Rot.Weighted>
4.6624

> <Gold.Chemscore.Internal.Correction.Weighted>
   9.000000E+99

> <Gold.Protein.RotatedTorsions>
[ 6907 6896 6895 6894 ] final    7.93 input  -60.11 | X-H torsion
[ 7974 7965 7964 7962 ] final -118.93 input  175.53 | X-H torsion
[ 8008 7997 7996 7995 ] final   71.81 input   59.86 | X-H torsion
[ 10167 10162 10161 10158 ] final  154.84 input  -65.29 | X-H torsion
[ 10718 10713 10712 10709 ] final  -82.23 input   66.30 | X-H torsion
[ 10763 10752 10751 10750 ] final  -86.46 input  -60.55 | X-H torsion
[ 11005 11000 10999 10996 ] final  161.40 input  -57.11 | X-H torsion

> <Gold.Protein.ActiveResidues>
 VAL166  LYS551  ARG553  GLY616  TRP617  ASP618  TYR619  PRO620  LYS621  CYS622 
 ASP623  PHE694  ASN695  SER759  ASP760  ASP761  ALA762  ILE779  LEU786  VAL792 
 PHE793  MET794  SER795  GLU796  ALA797  LYS798  CYS799  TRP800  GLU811  SER814 

> <Gold.Protein.RotatedAtoms>
  151.6978  135.0935  160.0245 H   0  0  0  0  0  0  0  0  0  0  0  0  # atno 6907 bound_to 6896
  152.3739  133.6451  159.6117 H   0  0  0  0  0  0  0  0  0  0  0  0  # atno 6908 bound_to 6896
  150.7694  133.9142  159.3420 H   0  0  0  0  0  0  0  0  0  0  0  0  # atno 6909 bound_to 6896
  145.0683  140.8340  143.4111 H   0  0  0  0  0  0  0  0  0  0  0  0  # atno 7974 bound_to 7965
  155.7595  140.3487  155.5191 H   0  0  0  0  0  0  0  0  0  0  0  0  # atno 8008 bound_to 7997
  155.8927  140.1020  157.1428 H   0  0  0  0  0  0  0  0  0  0  0  0  # atno 8009 bound_to 7997
  154.4035  140.1301  156.4323 H   0  0  0  0  0  0  0  0  0  0  0  0  # atno 8010 bound_to 7997
  139.4822  144.5151  151.7964 H   0  0  0  0  0  0  0  0  0  0  0  0  # atno 10167 bound_to 10162
  156.0036  130.4628  150.4073 H   0  0  0  0  0  0  0  0  0  0  0  0  # atno 10718 bound_to 10713
  154.6227  135.5448  153.7593 H   0  0  0  0  0  0  0  0  0  0  0  0  # atno 10763 bound_to 10752
  153.0246  135.6416  154.1417 H   0  0  0  0  0  0  0  0  0  0  0  0  # atno 10764 bound_to 10752
  154.1351  135.2912  155.3155 H   0  0  0  0  0  0  0  0  0  0  0  0  # atno 10765 bound_to 10752
  140.2154  134.8236  157.3165 H   0  0  0  0  0  0  0  0  0  0  0  0  # atno 11005 bound_to 11000
  145.1324  139.2624  143.5532 LP  0  0  0  0  0  0  0  0  0  0  0  0  # atno 17320 bound_to 7965
  146.3527  140.0978  142.8609 LP  0  0  0  0  0  0  0  0  0  0  0  0  # atno 17321 bound_to 7965
  140.4659  144.1656  150.5911 LP  0  0  0  0  0  0  0  0  0  0  0  0  # atno 17342 bound_to 10162
  140.4435  143.2516  151.9442 LP  0  0  0  0  0  0  0  0  0  0  0  0  # atno 17343 bound_to 10162
  157.2138  131.0466  151.2585 LP  0  0  0  0  0  0  0  0  0  0  0  0  # atno 17370 bound_to 10713
  157.3864  130.7259  149.6666 LP  0  0  0  0  0  0  0  0  0  0  0  0  # atno 17371 bound_to 10713
  140.1906  134.4377  155.7718 LP  0  0  0  0  0  0  0  0  0  0  0  0  # atno 17394 bound_to 11000
  141.2225  133.7025  156.8020 LP  0  0  0  0  0  0  0  0  0  0  0  0  # atno 17395 bound_to 11000

$$$$
