AV-unprocessed.smi:2822|AV-procd|sdf|10871|dock9
  -GOLD-   2272015313D 1   1.00000     0.00000
 Structure written by MMmdl.
 40 42  0  0  0  0  0  0  0  0  2 V2000
  148.0953  133.1571  152.5949 Cl  0  0  0  0  0  0  0  0  0  0  0  0
  146.5876  132.7271  151.8646 C   0  0  0  0  0  0  0  0  0  0  0  0
  146.1144  131.4025  151.9624 C   0  0  0  0  0  0  0  0  0  0  0  0
  144.9494  130.9874  151.4222 N   0  0  0  0  0  0  0  0  0  0  0  0
  144.2065  131.8957  150.7561 C   0  0  0  0  0  0  0  0  0  0  0  0
  144.5854  133.2440  150.6000 C   0  0  0  0  0  0  0  0  0  0  0  0
  145.8072  133.6770  151.1665 C   0  0  0  0  0  0  0  0  0  0  0  0
  146.2635  134.9991  151.0604 N   0  0  0  0  0  0  0  0  0  0  0  0
  145.4474  136.0427  150.4562 C   0  0  0  0  0  0  0  0  0  0  0  0
  145.5324  137.3680  151.2320 C   0  0  1  0  0  0  0  0  0  0  0  0
  145.2681  137.2134  152.7438 C   0  0  0  0  0  0  0  0  0  0  0  0
  145.4259  138.5159  153.4367 N   0  3  1  0  0  0  0  0  0  0  0  0
  145.1530  138.4560  154.8966 C   0  0  0  0  0  0  0  0  0  0  0  0
  146.3011  137.7876  155.6780 C   0  0  0  0  0  0  0  0  0  0  0  0
  147.6445  138.4664  155.3768 C   0  0  0  0  0  0  0  0  0  0  0  0
  147.8995  138.5051  153.8632 C   0  0  0  0  0  0  0  0  0  0  0  0
  146.7229  139.1762  153.1213 C   0  0  1  0  0  0  0  0  0  0  0  0
  146.9357  139.2356  151.5959 C   0  0  0  0  0  0  0  0  0  0  0  0
  146.8203  137.9383  151.0248 O   0  0  0  0  0  0  0  0  0  0  0  0
  146.6874  130.6544  152.4903 H   0  0  0  0  0  0  0  0  0  0  0  0
  143.2799  131.5373  150.3330 H   0  0  0  0  0  0  0  0  0  0  0  0
  143.9400  133.9137  150.0519 H   0  0  0  0  0  0  0  0  0  0  0  0
  147.1837  135.2356  151.4037 H   0  0  0  0  0  0  0  0  0  0  0  0
  145.7722  136.1987  149.4270 H   0  0  0  0  0  0  0  0  0  0  0  0
  144.4097  135.7094  150.4195 H   0  0  0  0  0  0  0  0  0  0  0  0
  144.7847  138.0425  150.8106 H   0  0  0  0  0  0  0  0  0  0  0  0
  144.2577  136.8362  152.9057 H   0  0  0  0  0  0  0  0  0  0  0  0
  145.9498  136.4797  153.1737 H   0  0  0  0  0  0  0  0  0  0  0  0
  145.0147  139.4753  155.2597 H   0  0  0  0  0  0  0  0  0  0  0  0
  144.2121  137.9354  155.0788 H   0  0  0  0  0  0  0  0  0  0  0  0
  146.0953  137.8344  156.7478 H   0  0  0  0  0  0  0  0  0  0  0  0
  146.3603  136.7279  155.4288 H   0  0  0  0  0  0  0  0  0  0  0  0
  147.6386  139.4822  155.7741 H   0  0  0  0  0  0  0  0  0  0  0  0
  148.4545  137.9389  155.8815 H   0  0  0  0  0  0  0  0  0  0  0  0
  148.8232  139.0495  153.6638 H   0  0  0  0  0  0  0  0  0  0  0  0
  148.0582  137.4925  153.4904 H   0  0  0  0  0  0  0  0  0  0  0  0
  146.6544  140.2043  153.4806 H   0  0  0  0  0  0  0  0  0  0  0  0
  146.2095  139.9059  151.1336 H   0  0  0  0  0  0  0  0  0  0  0  0
  147.9218  139.6394  151.3648 H   0  0  0  0  0  0  0  0  0  0  0  0
  144.7100  139.1116  153.0456 H   0  0  0  0  0  0  0  0  0  0  0  0
  1  2  1  0  0  0  0
  2  7  1  0  0  0  0
  2  3  2  0  0  0  0
  3  4  1  0  0  0  0
  3 20  1  0  0  0  0
  4  5  2  0  0  0  0
  5  6  1  0  0  0  0
  5 21  1  0  0  0  0
  6  7  2  0  0  0  0
  6 22  1  0  0  0  0
  7  8  1  0  0  0  0
  8  9  1  0  0  0  0
  8 23  1  0  0  0  0
  9 10  1  0  0  0  0
  9 24  1  0  0  0  0
  9 25  1  0  0  0  0
 10 19  1  0  0  0  0
 10 11  1  0  0  0  0
 10 26  1  0  0  0  0
 11 12  1  0  0  0  0
 11 27  1  0  0  0  0
 11 28  1  0  0  0  0
 12 17  1  0  0  0  0
 12 13  1  0  0  0  0
 12 40  1  0  0  0  0
 13 14  1  0  0  0  0
 13 29  1  0  0  0  0
 13 30  1  0  0  0  0
 14 15  1  0  0  0  0
 14 31  1  0  0  0  0
 14 32  1  0  0  0  0
 15 16  1  0  0  0  0
 15 33  1  0  0  0  0
 15 34  1  0  0  0  0
 16 17  1  0  0  0  0
 16 35  1  0  0  0  0
 16 36  1  0  0  0  0
 17 18  1  0  0  0  0
 17 37  1  0  0  0  0
 18 19  1  0  0  0  0
 18 38  1  0  0  0  0
 18 39  1  0  0  0  0
M  CHG  1  12   1
M  END
> <s_m_source_file>
AV-unprocessed.smi

> <i_m_source_file_index>
2822

> <i_lp_mmshare_version>
43012

> <i_f3d_flags>
0

> <s_epik_input>
Q2xjMVtjSF1uW2NIXVtjSF1jMVtOSF1bQ0gyXVtDQEhdKFtDSDJdMilPW0NIMl1bQ0BASF0oTjIzKVtDSDJdW0NIMl1bQ0gyXVtDSDJdMw==

> <s_epik_cmdline>
J2VwaWtfcHl0aG9uJywgJy1waCcsICc3LjAnLCAnLXRuJywgJzgnLCAnLW1hJywgJzIwMCcsICctbWV0YWxfYmluZGluZycsICctaW1hZScsICc8aW5maWxlLm1hZT4nLCAnLW9tYWUnLCAnPG91dGZpbGUubWFlPic=

> <r_lp_tautomer_probability>
0.999999

> <r_epik_Ionization_Penalty>
0.88937

> <r_epik_Ionization_Penalty_Charging>
0.0803403

> <r_epik_Ionization_Penalty_Neutral>
0.80903

> <r_epik_State_Penalty>
0.931884

> <r_epik_Charging_Adjusted_Penalty>
1.01222

> <i_epik_Tot_Q>
1

> <i_epik_Tot_abs_Q>
1

> <r_epik_Metal_State_Penalty>
0.0782275

> <b_epik_Metal_Only>
0

> <s_lp_Force_Field>
OPLS_2005

> <r_lp_Energy>
33.0779

> <b_lp_Chiralities_Consistent>
1

> <s_lp_Variant>
AV-unprocessed.smi:2822-12

> <Gold.Version>
5.8.1

> <Gold.Id.Protein>
6NUR|6NUR_protein|mol2

> <Gold.PLP.Fitness>
38.0660

> <Gold.PLP.PLP>
-25.5547

> <Gold.PLP.part.hbond>
-2.8873

> <Gold.PLP.part.metal>
0.0000

> <Gold.PLP.part.buried>
4.0759

> <Gold.PLP.part.nonpolar>
-29.4620

> <Gold.PLP.part.repulsive>
2.6781

> <Gold.PLP.ligand.clash>
0.0000

> <Gold.PLP.ligand.torsion>
0.1904

> <Gold.PLP.Chemscore.Hbond>
3.8613

> <Gold.PLP.Chemscore.CHOScore>
0.4355

> <Gold.PLP.Chemscore.Metal>
0.0000

> <Gold.Chemscore.Hbonds>
donor molecule, donor type, donor heavy atom, donor atom, acceptor molecule, acceptor atom, score
      L1  H     8    23       P1  7948  1.00
      L1  H    12    40       P1 10175  2.00
      P1  H  7954  7966       L1    19  1.00
      L1  C     5    21       P1 10952  0.23

> <Gold.PLP.Chemscore.Internal.Correction>
0.0018

> <Gold.Rescore>
     Score         DG    S(hbond)    S(metal)    S(lipo)     H(rot)  DE(clash)    DE(int)     intcor
     17.65     -21.83       2.86        0.00      83.68       1.17       3.93       0.24       ----

> <Gold.Chemscore.Fitness>
17.6539

> <Gold.Chemscore.DG>
-21.8261

> <Gold.Chemscore.ZeroCoef>
-5.4800

> <Gold.Chemscore.Hbond>
2.8589

> <Gold.Chemscore.Metal>
0.0000

> <Gold.Chemscore.Lipo>
83.6798

> <Gold.Chemscore.Internal_Hbond>
0.0000

> <Gold.Chemscore.DEClash>
3.9311

> <Gold.Chemscore.DEInternal>
0.2411

> <Gold.Chemscore.Rot>
1.1693

> <Gold.Chemscore.Internal.Correction>
   9.000000E+99

> <Gold.Chemscore.Hbonds>
donor molecule, donor type, donor heavy atom, donor atom, acceptor molecule, acceptor atom, score
      L1  H     8    23       P1  7948  0.80
      L1  H    12    40       P1 10175  1.00
      P1  H  7954  7966       L1    19  0.45

> <Gold.Chemscore.Hbond.Weighted>
-9.5489

> <Gold.Chemscore.Metal.Weighted>
-0.0000

> <Gold.Chemscore.Lipo.Weighted>
-9.7905

> <Gold.Chemscore.Internal_Hbond.Weighted>
0.0000

> <Gold.Chemscore.DEClash.Weighted>
3.9311

> <Gold.Chemscore.DEInternal.Weighted>
0.2411

> <Gold.Chemscore.Rot.Weighted>
2.9934

> <Gold.Chemscore.Internal.Correction.Weighted>
   9.000000E+99

> <Gold.Protein.RotatedTorsions>
[ 6907 6896 6895 6894 ] final  175.51 input  -60.11 | X-H torsion
[ 7974 7965 7964 7962 ] final  -68.90 input  175.53 | X-H torsion
[ 8008 7997 7996 7995 ] final  136.76 input   59.86 | X-H torsion
[ 10167 10162 10161 10158 ] final  -88.83 input  -65.29 | X-H torsion
[ 10718 10713 10712 10709 ] final   94.36 input   66.30 | X-H torsion
[ 10763 10752 10751 10750 ] final  -13.05 input  -60.55 | X-H torsion
[ 11005 11000 10999 10996 ] final  -12.88 input  -57.11 | X-H torsion

> <Gold.Protein.ActiveResidues>
 VAL166  LYS551  ARG553  GLY616  TRP617  ASP618  TYR619  PRO620  LYS621  CYS622 
 ASP623  PHE694  ASN695  SER759  ASP760  ASP761  ALA762  ILE779  LEU786  VAL792 
 PHE793  MET794  SER795  GLU796  ALA797  LYS798  CYS799  TRP800  GLU811  SER814 

> <Gold.Protein.RotatedAtoms>
  151.7350  133.3319  159.3350 H   0  0  0  0  0  0  0  0  0  0  0  0  # atno 6907 bound_to 6896
  150.7597  134.6329  159.6205 H   0  0  0  0  0  0  0  0  0  0  0  0  # atno 6908 bound_to 6896
  152.3567  134.6932  160.0271 H   0  0  0  0  0  0  0  0  0  0  0  0  # atno 6909 bound_to 6896
  145.7106  140.9080  143.0683 H   0  0  0  0  0  0  0  0  0  0  0  0  # atno 7974 bound_to 7965
  156.3003  140.2437  156.3798 H   0  0  0  0  0  0  0  0  0  0  0  0  # atno 8008 bound_to 7997
  154.8711  140.0416  157.1745 H   0  0  0  0  0  0  0  0  0  0  0  0  # atno 8009 bound_to 7997
  154.8794  140.2947  155.5438 H   0  0  0  0  0  0  0  0  0  0  0  0  # atno 8010 bound_to 7997
  140.3708  143.2795  151.9502 H   0  0  0  0  0  0  0  0  0  0  0  0  # atno 10167 bound_to 10162
  157.6948  131.0510  150.4175 H   0  0  0  0  0  0  0  0  0  0  0  0  # atno 10718 bound_to 10713
  153.5076  135.7016  153.5798 H   0  0  0  0  0  0  0  0  0  0  0  0  # atno 10763 bound_to 10752
  153.3903  135.3898  155.1918 H   0  0  0  0  0  0  0  0  0  0  0  0  # atno 10764 bound_to 10752
  154.8706  135.3856  154.4552 H   0  0  0  0  0  0  0  0  0  0  0  0  # atno 10765 bound_to 10752
  140.7703  133.8444  155.9201 H   0  0  0  0  0  0  0  0  0  0  0  0  # atno 11005 bound_to 11000
  144.6943  139.9069  143.7461 LP  0  0  0  0  0  0  0  0  0  0  0  0  # atno 17320 bound_to 7965
  146.0716  139.3705  143.0519 LP  0  0  0  0  0  0  0  0  0  0  0  0  # atno 17321 bound_to 7965
  139.4804  144.5908  151.7775 LP  0  0  0  0  0  0  0  0  0  0  0  0  # atno 17342 bound_to 10162
  140.5035  144.1134  150.5977 LP  0  0  0  0  0  0  0  0  0  0  0  0  # atno 17343 bound_to 10162
  156.4553  130.4020  149.6610 LP  0  0  0  0  0  0  0  0  0  0  0  0  # atno 17370 bound_to 10713
  156.3744  130.7547  151.2534 LP  0  0  0  0  0  0  0  0  0  0  0  0  # atno 17371 bound_to 10713
  140.9580  134.1692  157.4676 LP  0  0  0  0  0  0  0  0  0  0  0  0  # atno 17394 bound_to 11000
  139.8757  134.9934  156.5644 LP  0  0  0  0  0  0  0  0  0  0  0  0  # atno 17395 bound_to 11000

$$$$
