AV-unprocessed.smi:688|AV-procd|sdf|3355|dock5
  -GOLD-   22720 0333D 1   1.00000     0.00000
 Structure written by MMmdl.
 36 37  0  0  0  0  0  0  0  0  1 V2000
  141.4018  143.0104  161.2583 O   0  0  0  0  0  0  0  0  0  0  0  0
  142.5182  143.4219  160.9491 C   0  0  0  0  0  0  0  0  0  0  0  0
  143.5954  142.5325  160.8876 N   0  0  0  0  0  0  0  0  0  0  0  0
  144.9074  142.8678  160.5519 C   0  0  0  0  0  0  0  0  0  0  0  0
  145.7775  141.9973  160.5322 O   0  0  0  0  0  0  0  0  0  0  0  0
  145.1604  144.2251  160.2481 N   0  0  0  0  0  0  0  0  0  0  0  0
  146.5136  144.5986  159.9090 C   0  0  0  0  0  0  0  0  0  0  0  0
  147.4431  144.7894  161.1290 C   0  0  1  0  0  0  0  0  0  0  0  0
  147.5887  143.5254  161.7424 O   0  0  0  0  0  0  0  0  0  0  0  0
  148.8450  145.3065  160.7600 C   0  0  0  0  0  0  0  0  0  0  0  0
  149.6326  144.2149  160.3144 O   0  0  0  0  0  0  0  0  0  0  0  0
  150.9476  144.5972  159.9475 C   0  0  0  0  0  0  0  0  0  0  0  0
  151.9208  143.4466  160.1066 C   0  0  0  0  0  0  0  0  0  0  0  0
  152.2346  142.9669  161.3952 C   0  0  0  0  0  0  0  0  0  0  0  0
  153.1421  141.9014  161.5526 C   0  0  0  0  0  0  0  0  0  0  0  0
  153.7400  141.3122  160.4215 C   0  0  0  0  0  0  0  0  0  0  0  0
  154.8509  140.0061  160.6140 Cl  0  0  0  0  0  0  0  0  0  0  0  0
  153.4313  141.7910  159.1331 C   0  0  0  0  0  0  0  0  0  0  0  0
  152.5250  142.8578  158.9757 C   0  0  0  0  0  0  0  0  0  0  0  0
  144.1216  145.1428  160.2973 C   0  0  0  0  0  0  0  0  0  0  0  0
  142.8503  144.8087  160.6256 C   0  0  0  0  0  0  0  0  0  0  0  0
  141.6115  146.0118  160.6696 Cl  0  0  0  0  0  0  0  0  0  0  0  0
  143.4078  141.5644  161.1041 H   0  0  0  0  0  0  0  0  0  0  0  0
  146.8861  143.8368  159.2199 H   0  0  0  0  0  0  0  0  0  0  0  0
  146.4413  145.5193  159.3275 H   0  0  0  0  0  0  0  0  0  0  0  0
  146.9778  145.4664  161.8460 H   0  0  0  0  0  0  0  0  0  0  0  0
  147.0081  143.4878  162.4874 H   0  0  0  0  0  0  0  0  0  0  0  0
  148.7880  146.0938  160.0062 H   0  0  0  0  0  0  0  0  0  0  0  0
  149.3338  145.7337  161.6359 H   0  0  0  0  0  0  0  0  0  0  0  0
  150.9560  144.9502  158.9149 H   0  0  0  0  0  0  0  0  0  0  0  0
  151.2859  145.4236  160.5745 H   0  0  0  0  0  0  0  0  0  0  0  0
  151.7782  143.4153  162.2656 H   0  0  0  0  0  0  0  0  0  0  0  0
  153.3783  141.5375  162.5417 H   0  0  0  0  0  0  0  0  0  0  0  0
  153.8891  141.3413  158.2641 H   0  0  0  0  0  0  0  0  0  0  0  0
  152.2952  143.2194  157.9842 H   0  0  0  0  0  0  0  0  0  0  0  0
  144.3318  146.1780  160.0687 H   0  0  0  0  0  0  0  0  0  0  0  0
  1  2  2  0  0  0  0
  2 21  1  0  0  0  0
  2  3  1  0  0  0  0
  3 23  1  0  0  0  0
  3  4  1  0  0  0  0
  4  5  2  0  0  0  0
  4  6  1  0  0  0  0
  6  7  1  0  0  0  0
  6 20  1  0  0  0  0
  7  8  1  0  0  0  0
  7 24  1  0  0  0  0
  7 25  1  0  0  0  0
  8  9  1  0  0  0  0
  8 10  1  0  0  0  0
  8 26  1  0  0  0  0
  9 27  1  0  0  0  0
 10 11  1  0  0  0  0
 10 28  1  0  0  0  0
 10 29  1  0  0  0  0
 11 12  1  0  0  0  0
 12 13  1  0  0  0  0
 12 30  1  0  0  0  0
 12 31  1  0  0  0  0
 13 19  1  0  0  0  0
 13 14  2  0  0  0  0
 14 15  1  0  0  0  0
 14 32  1  0  0  0  0
 15 16  2  0  0  0  0
 15 33  1  0  0  0  0
 16 17  1  0  0  0  0
 16 18  1  0  0  0  0
 18 19  2  0  0  0  0
 18 34  1  0  0  0  0
 19 35  1  0  0  0  0
 20 21  2  0  0  0  0
 20 36  1  0  0  0  0
 21 22  1  0  0  0  0
M  END
> <s_m_source_file>
AV-unprocessed.smi

> <i_m_source_file_index>
688

> <i_lp_mmshare_version>
43012

> <i_f3d_flags>
0

> <s_epik_input>
Tz1jMVtuSF1jKD1PKW4oW2NIXWMxQ2wpW0NIMl1bQ0BIXShbT0hdKVtDSDJdT1tDSDJdYzJbY0hdW2NIXWMoQ2wpW2NIXVtjSF0y

> <s_epik_cmdline>
J2VwaWtfcHl0aG9uJywgJy1waCcsICc3LjAnLCAnLXRuJywgJzgnLCAnLW1hJywgJzIwMCcsICctbWV0YWxfYmluZGluZycsICctaW1hZScsICc8aW5maWxlLm1hZT4nLCAnLW9tYWUnLCAnPG91dGZpbGUubWFlPic=

> <r_lp_tautomer_probability>
0.999537

> <r_epik_Ionization_Penalty>
0.0280571

> <r_epik_Ionization_Penalty_Charging>
0.028057

> <r_epik_Ionization_Penalty_Neutral>
6.25502e-08

> <r_epik_State_Penalty>
0.0230008

> <r_epik_Charging_Adjusted_Penalty>
0.0510579

> <i_epik_Tot_Q>
0

> <i_epik_Tot_abs_Q>
0

> <r_epik_Metal_State_Penalty>
2.1942

> <b_epik_Metal_Only>
0

> <s_lp_Force_Field>
OPLS_2005

> <r_lp_Energy>
13.9943

> <b_lp_Chiralities_Consistent>
1

> <s_lp_Variant>
AV-unprocessed.smi:688-2

> <Gold.Version>
5.8.1

> <Gold.Id.Protein>
6NUR|6NUR_protein|mol2

> <Gold.PLP.Fitness>
51.9240

> <Gold.PLP.PLP>
-47.7909

> <Gold.PLP.part.hbond>
-4.2505

> <Gold.PLP.part.metal>
0.0000

> <Gold.PLP.part.buried>
-5.6423

> <Gold.PLP.part.nonpolar>
-39.0992

> <Gold.PLP.part.repulsive>
0.3720

> <Gold.PLP.ligand.clash>
0.0000

> <Gold.PLP.ligand.torsion>
0.7346

> <Gold.PLP.Chemscore.Hbond>
1.8240

> <Gold.PLP.Chemscore.CHOScore>
0.0000

> <Gold.PLP.Chemscore.Metal>
0.0000

> <Gold.Chemscore.Hbonds>
donor molecule, donor type, donor heavy atom, donor atom, acceptor molecule, acceptor atom, score
      P1  H  6933  6944       L1     9  0.91
      P1  H  6934  6946       L1     5  1.00

> <Gold.PLP.Chemscore.Internal.Correction>
0.1304

> <Gold.Rescore>
     Score         DG    S(hbond)    S(metal)    S(lipo)     H(rot)  DE(clash)    DE(int)     intcor
     17.66     -18.36       1.89        0.00     120.65       2.94       0.14       0.57       ----

> <Gold.Chemscore.Fitness>
17.6554

> <Gold.Chemscore.DG>
-18.3631

> <Gold.Chemscore.ZeroCoef>
-5.4800

> <Gold.Chemscore.Hbond>
1.8864

> <Gold.Chemscore.Metal>
0.0000

> <Gold.Chemscore.Lipo>
120.6511

> <Gold.Chemscore.Internal_Hbond>
0.0000

> <Gold.Chemscore.DEClash>
0.1353

> <Gold.Chemscore.DEInternal>
0.5724

> <Gold.Chemscore.Rot>
2.9429

> <Gold.Chemscore.Internal.Correction>
   9.000000E+99

> <Gold.Chemscore.Hbonds>
donor molecule, donor type, donor heavy atom, donor atom, acceptor molecule, acceptor atom, score
      P1  H  6933  6944       L1     9  0.80
      P1  H  6934  6946       L1     5  0.99

> <Gold.Chemscore.Hbond.Weighted>
-6.3007

> <Gold.Chemscore.Metal.Weighted>
-0.0000

> <Gold.Chemscore.Lipo.Weighted>
-14.1162

> <Gold.Chemscore.Internal_Hbond.Weighted>
0.0000

> <Gold.Chemscore.DEClash.Weighted>
0.1353

> <Gold.Chemscore.DEInternal.Weighted>
0.5724

> <Gold.Chemscore.Rot.Weighted>
7.5337

> <Gold.Chemscore.Internal.Correction.Weighted>
   9.000000E+99

> <Gold.Protein.RotatedTorsions>
[ 6907 6896 6895 6894 ] final -112.29 input  -60.11 | X-H torsion
[ 7974 7965 7964 7962 ] final   -8.96 input  175.53 | X-H torsion
[ 8008 7997 7996 7995 ] final  -63.13 input   59.86 | X-H torsion
[ 10167 10162 10161 10158 ] final  150.75 input  -65.29 | X-H torsion
[ 10718 10713 10712 10709 ] final  -52.03 input   66.30 | X-H torsion
[ 10763 10752 10751 10750 ] final -175.87 input  -60.55 | X-H torsion
[ 11005 11000 10999 10996 ] final -133.80 input  -57.11 | X-H torsion

> <Gold.Protein.ActiveResidues>
 VAL166  LYS551  ARG553  GLY616  TRP617  ASP618  TYR619  PRO620  LYS621  CYS622 
 ASP623  PHE694  ASN695  SER759  ASP760  ASP761  ALA762  ILE779  LEU786  VAL792 
 PHE793  MET794  SER795  GLU796  ALA797  LYS798  CYS799  TRP800  GLU811  SER814 

> <Gold.Protein.RotatedAtoms>
  150.7748  133.9111  159.3369 H   0  0  0  0  0  0  0  0  0  0  0  0  # atno 6907 bound_to 6896
  151.6988  135.0932  160.0256 H   0  0  0  0  0  0  0  0  0  0  0  0  # atno 6908 bound_to 6896
  152.3780  133.6469  159.6174 H   0  0  0  0  0  0  0  0  0  0  0  0  # atno 6909 bound_to 6896
  146.2265  140.2546  142.8349 H   0  0  0  0  0  0  0  0  0  0  0  0  # atno 7974 bound_to 7965
  154.4537  140.0981  156.6695 H   0  0  0  0  0  0  0  0  0  0  0  0  # atno 8008 bound_to 7997
  155.5204  140.3479  155.4387 H   0  0  0  0  0  0  0  0  0  0  0  0  # atno 8009 bound_to 7997
  156.0734  140.1355  156.9790 H   0  0  0  0  0  0  0  0  0  0  0  0  # atno 8010 bound_to 7997
  139.4847  144.5497  151.7422 H   0  0  0  0  0  0  0  0  0  0  0  0  # atno 10167 bound_to 10162
  156.1658  130.4149  149.9723 H   0  0  0  0  0  0  0  0  0  0  0  0  # atno 10718 bound_to 10713
  154.5792  135.2834  155.0750 H   0  0  0  0  0  0  0  0  0  0  0  0  # atno 10763 bound_to 10752
  154.2093  135.6410  153.5114 H   0  0  0  0  0  0  0  0  0  0  0  0  # atno 10764 bound_to 10752
  153.0082  135.5488  154.6440 H   0  0  0  0  0  0  0  0  0  0  0  0  # atno 10765 bound_to 10752
  140.9048  134.1644  157.4434 H   0  0  0  0  0  0  0  0  0  0  0  0  # atno 11005 bound_to 11000
  144.9386  140.8053  143.5645 LP  0  0  0  0  0  0  0  0  0  0  0  0  # atno 17320 bound_to 7965
  145.2496  139.2037  143.4949 LP  0  0  0  0  0  0  0  0  0  0  0  0  # atno 17321 bound_to 7965
  140.5049  144.1113  150.5980 LP  0  0  0  0  0  0  0  0  0  0  0  0  # atno 17342 bound_to 10162
  140.4019  143.2700  151.9938 LP  0  0  0  0  0  0  0  0  0  0  0  0  # atno 17343 bound_to 10162
  156.7539  130.9125  151.3638 LP  0  0  0  0  0  0  0  0  0  0  0  0  # atno 17370 bound_to 10713
  157.6766  130.9100  150.0166 LP  0  0  0  0  0  0  0  0  0  0  0  0  # atno 17371 bound_to 10713
  139.8748  134.9912  156.5540 LP  0  0  0  0  0  0  0  0  0  0  0  0  # atno 17394 bound_to 11000
  140.8184  133.8373  155.8873 LP  0  0  0  0  0  0  0  0  0  0  0  0  # atno 17395 bound_to 11000

$$$$
