AV-unprocessed.smi:763|AV-procd|sdf|3634|dock2
  -GOLD-   22720 1 23D 1   1.00000     0.00000
 Structure written by MMmdl.
 44 45  0  0  0  0  0  0  0  0  1 V2000
  147.0154  136.1321  162.0868 C   0  0  0  0  0  0  0  0  0  0  0  0
  148.2569  136.3335  161.4299 O   0  0  0  0  0  0  0  0  0  0  0  0
  148.3579  135.6838  160.1704 C   0  0  0  0  0  0  0  0  0  0  0  0
  147.6139  136.4496  159.0665 C   0  0  0  0  0  0  0  0  0  0  0  0
  148.5344  137.3253  158.4225 O   0  0  0  0  0  0  0  0  0  0  0  0
  148.0545  138.2208  157.4859 C   0  0  0  0  0  0  0  0  0  0  0  0
  146.7561  138.1264  157.1033 N   0  0  0  0  0  0  0  0  0  0  0  0
  146.2906  139.0054  156.1912 C   0  0  0  0  0  0  0  0  0  0  0  0
  147.0851  140.0157  155.6177 C   0  0  0  0  0  0  0  0  0  0  0  0
  148.4320  140.1126  156.0130 C   0  0  0  0  0  0  0  0  0  0  0  0
  148.9322  139.1985  156.9655 C   0  0  0  0  0  0  0  0  0  0  0  0
  150.2612  139.2405  157.3961 N   0  0  0  0  0  0  0  0  0  0  0  0
  151.5175  140.3322  156.9120 S   0  0  0  0  0  0  0  0  0  0  0  0
  152.7784  139.6094  157.1398 O   0  0  0  0  0  0  0  0  0  0  0  0
  151.1399  140.7976  155.5686 O   0  0  0  0  0  0  0  0  0  0  0  0
  151.3560  141.7150  158.1402 C   0  0  2  0  0  0  0  0  0  0  0  0
  151.1244  143.0476  157.3983 C   0  0  0  0  0  0  0  0  0  0  0  0
  151.0143  144.2316  158.3704 C   0  0  0  0  0  0  0  0  0  0  0  0
  152.2505  144.3169  159.2767 C   0  0  0  0  0  0  0  0  0  0  0  0
  152.4561  143.0050  160.0479 C   0  0  0  0  0  0  0  0  0  0  0  0
  152.5716  141.7998  159.0961 C   0  0  1  0  0  0  0  0  0  0  0  0
  152.6691  140.6352  159.8896 O   0  0  0  0  0  0  0  0  0  0  0  0
  146.9997  136.7043  163.0142 H   0  0  0  0  0  0  0  0  0  0  0  0
  146.8579  135.0846  162.3433 H   0  0  0  0  0  0  0  0  0  0  0  0
  146.1820  136.4713  161.4706 H   0  0  0  0  0  0  0  0  0  0  0  0
  149.3999  135.5082  159.8983 H   0  0  0  0  0  0  0  0  0  0  0  0
  147.8992  134.7016  160.2858 H   0  0  0  0  0  0  0  0  0  0  0  0
  147.2122  135.7410  158.3403 H   0  0  0  0  0  0  0  0  0  0  0  0
  146.7810  137.0130  159.4894 H   0  0  0  0  0  0  0  0  0  0  0  0
  145.2531  138.8998  155.9103 H   0  0  0  0  0  0  0  0  0  0  0  0
  146.6722  140.6994  154.8909 H   0  0  0  0  0  0  0  0  0  0  0  0
  149.0613  140.8786  155.5851 H   0  0  0  0  0  0  0  0  0  0  0  0
  150.5165  138.5327  158.0694 H   0  0  0  0  0  0  0  0  0  0  0  0
  150.4627  141.4984  158.7277 H   0  0  0  0  0  0  0  0  0  0  0  0
  151.9455  143.2313  156.7046 H   0  0  0  0  0  0  0  0  0  0  0  0
  150.2188  142.9889  156.7940 H   0  0  0  0  0  0  0  0  0  0  0  0
  150.8980  145.1609  157.8121 H   0  0  0  0  0  0  0  0  0  0  0  0
  150.1169  144.1234  158.9808 H   0  0  0  0  0  0  0  0  0  0  0  0
  153.1343  144.5313  158.6744 H   0  0  0  0  0  0  0  0  0  0  0  0
  152.1421  145.1466  159.9760 H   0  0  0  0  0  0  0  0  0  0  0  0
  153.3507  143.0792  160.6674 H   0  0  0  0  0  0  0  0  0  0  0  0
  151.6191  142.8572  160.7323 H   0  0  0  0  0  0  0  0  0  0  0  0
  153.4911  141.8954  158.5179 H   0  0  0  0  0  0  0  0  0  0  0  0
  152.9738  140.8813  160.7504 H   0  0  0  0  0  0  0  0  0  0  0  0
  1  2  1  0  0  0  0
  1 23  1  0  0  0  0
  1 24  1  0  0  0  0
  1 25  1  0  0  0  0
  2  3  1  0  0  0  0
  3  4  1  0  0  0  0
  3 26  1  0  0  0  0
  3 27  1  0  0  0  0
  4  5  1  0  0  0  0
  4 28  1  0  0  0  0
  4 29  1  0  0  0  0
  5  6  1  0  0  0  0
  6 11  1  0  0  0  0
  6  7  2  0  0  0  0
  7  8  1  0  0  0  0
  8  9  2  0  0  0  0
  8 30  1  0  0  0  0
  9 10  1  0  0  0  0
  9 31  1  0  0  0  0
 10 11  2  0  0  0  0
 10 32  1  0  0  0  0
 11 12  1  0  0  0  0
 12 13  1  0  0  0  0
 12 33  1  0  0  0  0
 13 14  2  0  0  0  0
 13 15  2  0  0  0  0
 13 16  1  0  0  0  0
 16 21  1  0  0  0  0
 16 17  1  0  0  0  0
 16 34  1  0  0  0  0
 17 18  1  0  0  0  0
 17 35  1  0  0  0  0
 17 36  1  0  0  0  0
 18 19  1  0  0  0  0
 18 37  1  0  0  0  0
 18 38  1  0  0  0  0
 19 20  1  0  0  0  0
 19 39  1  0  0  0  0
 19 40  1  0  0  0  0
 20 21  1  0  0  0  0
 20 41  1  0  0  0  0
 20 42  1  0  0  0  0
 21 22  1  0  0  0  0
 21 43  1  0  0  0  0
 22 44  1  0  0  0  0
M  END
> <s_m_source_file>
AV-unprocessed.smi

> <i_m_source_file_index>
763

> <i_lp_mmshare_version>
43012

> <i_f3d_flags>
0

> <s_epik_input>
W0NIM11PW0NIMl1bQ0gyXU9jMW5bY0hdW2NIXVtjSF1jMVtOSF1TKD1PKSg9TylbQ0BASF0yW0NIMl1bQ0gyXVtDSDJdW0NIMl1bQ0BIXTJbT0hd

> <s_epik_cmdline>
J2VwaWtfcHl0aG9uJywgJy1waCcsICc3LjAnLCAnLXRuJywgJzgnLCAnLW1hJywgJzIwMCcsICctbWV0YWxfYmluZGluZycsICctaW1hZScsICc8aW5maWxlLm1hZT4nLCAnLW9tYWUnLCAnPG91dGZpbGUubWFlPic=

> <r_epik_Ionization_Penalty>
0.124685

> <r_epik_Ionization_Penalty_Charging>
0

> <r_epik_Ionization_Penalty_Neutral>
0.124685

> <r_epik_State_Penalty>
0.114154

> <r_epik_Charging_Adjusted_Penalty>
0.114154

> <i_epik_Tot_Q>
0

> <i_epik_Tot_abs_Q>
0

> <r_epik_Metal_State_Penalty>
0.443785

> <b_epik_Metal_Only>
0

> <s_lp_Force_Field>
OPLS_2005

> <r_lp_Energy>
9.05246

> <b_lp_Chiralities_Consistent>
1

> <s_lp_Variant>
AV-unprocessed.smi:763-1

> <Gold.Version>
5.8.1

> <Gold.Id.Protein>
6NUR|6NUR_protein|mol2

> <Gold.PLP.Fitness>
42.7901

> <Gold.PLP.PLP>
-35.3411

> <Gold.PLP.part.hbond>
-3.2851

> <Gold.PLP.part.metal>
0.0000

> <Gold.PLP.part.buried>
-5.2146

> <Gold.PLP.part.nonpolar>
-26.5571

> <Gold.PLP.part.repulsive>
0.0807

> <Gold.PLP.ligand.clash>
0.0000

> <Gold.PLP.ligand.torsion>
1.0697

> <Gold.PLP.Chemscore.Hbond>
2.7389

> <Gold.PLP.Chemscore.CHOScore>
0.0000

> <Gold.PLP.Chemscore.Metal>
0.0000

> <Gold.Chemscore.Hbonds>
donor molecule, donor type, donor heavy atom, donor atom, acceptor molecule, acceptor atom, score
      P1  H  6931  6943       L1     2  0.78
      P1  H  7989  7998       L1    15  0.59
      P1  H  7997  8008       L1    14  1.00

> <Gold.PLP.Chemscore.Internal.Correction>
1.3716

> <Gold.Rescore>
     Score         DG    S(hbond)    S(metal)    S(lipo)     H(rot)  DE(clash)    DE(int)     intcor
     16.69     -19.06       2.76        0.00      89.78       2.41       0.00       2.36       ----

> <Gold.Chemscore.Fitness>
16.6891

> <Gold.Chemscore.DG>
-19.0571

> <Gold.Chemscore.ZeroCoef>
-5.4800

> <Gold.Chemscore.Hbond>
2.7636

> <Gold.Chemscore.Metal>
0.0000

> <Gold.Chemscore.Lipo>
89.7786

> <Gold.Chemscore.Internal_Hbond>
0.0000

> <Gold.Chemscore.DEClash>
0.0048

> <Gold.Chemscore.DEInternal>
2.3633

> <Gold.Chemscore.Rot>
2.4052

> <Gold.Chemscore.Internal.Correction>
   9.000000E+99

> <Gold.Chemscore.Hbonds>
donor molecule, donor type, donor heavy atom, donor atom, acceptor molecule, acceptor atom, score
      P1  H  6931  6943       L1     2  0.57
      P1  H  7989  7998       L1    15  0.58
      P1  H  7997  8008       L1    14  1.00

> <Gold.Chemscore.Hbond.Weighted>
-9.2305

> <Gold.Chemscore.Metal.Weighted>
-0.0000

> <Gold.Chemscore.Lipo.Weighted>
-10.5041

> <Gold.Chemscore.Internal_Hbond.Weighted>
0.0000

> <Gold.Chemscore.DEClash.Weighted>
0.0048

> <Gold.Chemscore.DEInternal.Weighted>
2.3633

> <Gold.Chemscore.Rot.Weighted>
6.1574

> <Gold.Chemscore.Internal.Correction.Weighted>
   9.000000E+99

> <Gold.Protein.RotatedTorsions>
[ 6907 6896 6895 6894 ] final    7.20 input  -60.11 | X-H torsion
[ 7974 7965 7964 7962 ] final    6.95 input  175.53 | X-H torsion
[ 8008 7997 7996 7995 ] final  -63.01 input   59.86 | X-H torsion
[ 10167 10162 10161 10158 ] final   25.83 input  -65.29 | X-H torsion
[ 10718 10713 10712 10709 ] final   50.31 input   66.30 | X-H torsion
[ 10763 10752 10751 10750 ] final  136.91 input  -60.55 | X-H torsion
[ 11005 11000 10999 10996 ] final  169.47 input  -57.11 | X-H torsion

> <Gold.Protein.ActiveResidues>
 VAL166  LYS551  ARG553  GLY616  TRP617  ASP618  TYR619  PRO620  LYS621  CYS622 
 ASP623  PHE694  ASN695  SER759  ASP760  ASP761  ALA762  ILE779  LEU786  VAL792 
 PHE793  MET794  SER795  GLU796  ALA797  LYS798  CYS799  TRP800  GLU811  SER814 

> <Gold.Protein.RotatedAtoms>
  151.6860  135.0954  160.0224 H   0  0  0  0  0  0  0  0  0  0  0  0  # atno 6907 bound_to 6896
  152.3807  133.6538  159.6167 H   0  0  0  0  0  0  0  0  0  0  0  0  # atno 6908 bound_to 6896
  150.7745  133.9035  159.3389 H   0  0  0  0  0  0  0  0  0  0  0  0  # atno 6909 bound_to 6896
  146.2431  140.0156  142.8402 H   0  0  0  0  0  0  0  0  0  0  0  0  # atno 7974 bound_to 7965
  154.4531  140.0984  156.6677 H   0  0  0  0  0  0  0  0  0  0  0  0  # atno 8008 bound_to 7997
  155.5223  140.3479  155.4391 H   0  0  0  0  0  0  0  0  0  0  0  0  # atno 8009 bound_to 7997
  156.0722  140.1352  156.9804 H   0  0  0  0  0  0  0  0  0  0  0  0  # atno 8010 bound_to 7997
  140.5073  144.0218  150.6357 H   0  0  0  0  0  0  0  0  0  0  0  0  # atno 10167 bound_to 10162
  157.4872  130.8352  149.8160 H   0  0  0  0  0  0  0  0  0  0  0  0  # atno 10718 bound_to 10713
  153.8643  135.3063  155.3439 H   0  0  0  0  0  0  0  0  0  0  0  0  # atno 10763 bound_to 10752
  154.7835  135.4823  153.9897 H   0  0  0  0  0  0  0  0  0  0  0  0  # atno 10764 bound_to 10752
  153.1443  135.6830  153.9073 H   0  0  0  0  0  0  0  0  0  0  0  0  # atno 10765 bound_to 10752
  140.2981  134.7618  157.3894 H   0  0  0  0  0  0  0  0  0  0  0  0  # atno 11005 bound_to 11000
  145.1287  140.9505  143.4557 LP  0  0  0  0  0  0  0  0  0  0  0  0  # atno 17320 bound_to 7965
  145.0409  139.3261  143.5977 LP  0  0  0  0  0  0  0  0  0  0  0  0  # atno 17321 bound_to 7965
  140.3530  143.2952  152.0466 LP  0  0  0  0  0  0  0  0  0  0  0  0  # atno 17342 bound_to 10162
  139.4887  144.6359  151.6975 LP  0  0  0  0  0  0  0  0  0  0  0  0  # atno 17343 bound_to 10162
  156.0153  130.3816  150.2131 LP  0  0  0  0  0  0  0  0  0  0  0  0  # atno 17370 bound_to 10713
  157.0318  131.0010  151.3310 LP  0  0  0  0  0  0  0  0  0  0  0  0  # atno 17371 bound_to 10713
  140.1134  134.5315  155.8246 LP  0  0  0  0  0  0  0  0  0  0  0  0  # atno 17394 bound_to 11000
  141.2133  133.6732  156.6732 LP  0  0  0  0  0  0  0  0  0  0  0  0  # atno 17395 bound_to 11000

$$$$
