AV-unprocessed.smi:461|AV-procd|sdf|2630|dock1
  -GOLD-   2262023 33D 1   1.00000     0.00000
 Structure written by MMmdl.
 33 34  0  0  0  0  0  0  0  0  1 V2000
  147.9981  141.4627  154.5645 C   0  0  0  0  0  0  0  0  0  0  0  0
  149.2714  140.9159  155.0355 N   0  0  0  0  0  0  0  0  0  0  0  0
  149.8924  141.7012  155.9930 N   0  0  0  0  0  0  0  0  0  0  0  0
  151.0374  141.2842  156.4485 C   0  0  0  0  0  0  0  0  0  0  0  0
  151.8177  141.9263  157.4011 N   0  0  0  0  0  0  0  0  0  0  0  0
  151.4805  143.1834  158.0534 C   0  0  0  0  0  0  0  0  0  0  0  0
  152.3157  143.4317  159.3214 C   0  0  2  0  0  0  0  0  0  0  0  0
  152.6272  142.1601  160.1049 C   0  0  0  0  0  0  0  0  0  0  0  0
  152.9507  142.6890  161.4905 C   0  0  0  0  0  0  0  0  0  0  0  0
  152.2213  144.0349  161.5461 C   0  0  0  0  0  0  0  0  0  0  0  0
  151.5915  144.1876  160.2796 O   0  0  0  0  0  0  0  0  0  0  0  0
  151.6502  139.9846  155.9509 C   0  0  0  0  0  0  0  0  0  0  0  0
  152.7392  139.5994  156.3867 O   0  0  0  0  0  0  0  0  0  0  0  0
  150.9289  139.3033  155.0179 N   0  0  0  0  0  0  0  0  0  0  0  0
  151.5050  138.0386  154.5258 C   0  0  0  0  0  0  0  0  0  0  0  0
  149.7319  139.7366  154.5239 C   0  0  0  0  0  0  0  0  0  0  0  0
  149.0966  139.1144  153.6690 O   0  0  0  0  0  0  0  0  0  0  0  0
  147.1834  140.7634  154.7569 H   0  0  0  0  0  0  0  0  0  0  0  0
  148.0362  141.6577  153.4919 H   0  0  0  0  0  0  0  0  0  0  0  0
  147.7446  142.4024  155.0587 H   0  0  0  0  0  0  0  0  0  0  0  0
  150.4252  143.1290  158.3218 H   0  0  0  0  0  0  0  0  0  0  0  0
  151.5773  144.0160  157.3548 H   0  0  0  0  0  0  0  0  0  0  0  0
  153.2455  143.9493  159.0768 H   0  0  0  0  0  0  0  0  0  0  0  0
  151.7440  141.5215  160.1523 H   0  0  0  0  0  0  0  0  0  0  0  0
  153.4414  141.5804  159.6693 H   0  0  0  0  0  0  0  0  0  0  0  0
  152.6242  142.0048  162.2740 H   0  0  0  0  0  0  0  0  0  0  0  0
  154.0251  142.8405  161.6020 H   0  0  0  0  0  0  0  0  0  0  0  0
  151.4773  144.0689  162.3422 H   0  0  0  0  0  0  0  0  0  0  0  0
  152.9277  144.8502  161.7059 H   0  0  0  0  0  0  0  0  0  0  0  0
  150.8593  137.4743  153.8521 H   0  0  0  0  0  0  0  0  0  0  0  0
  151.7347  137.3706  155.3580 H   0  0  0  0  0  0  0  0  0  0  0  0
  152.4334  138.2322  153.9863 H   0  0  0  0  0  0  0  0  0  0  0  0
  152.7295  141.5654  157.6433 H   0  0  0  0  0  0  0  0  0  0  0  0
  1 18  1  0  0  0  0
  1 19  1  0  0  0  0
  1 20  1  0  0  0  0
  1  2  1  0  0  0  0
  2 16  1  0  0  0  0
  2  3  1  0  0  0  0
  3  4  2  0  0  0  0
  4 12  1  0  0  0  0
  4  5  1  0  0  0  0
  5  6  1  0  0  0  0
  5 33  1  0  0  0  0
  6  7  1  0  0  0  0
  6 21  1  0  0  0  0
  6 22  1  0  0  0  0
  7 11  1  0  0  0  0
  7  8  1  0  0  0  0
  7 23  1  0  0  0  0
  8  9  1  0  0  0  0
  8 24  1  0  0  0  0
  8 25  1  0  0  0  0
  9 10  1  0  0  0  0
  9 26  1  0  0  0  0
  9 27  1  0  0  0  0
 10 11  1  0  0  0  0
 10 28  1  0  0  0  0
 10 29  1  0  0  0  0
 12 13  2  0  0  0  0
 12 14  1  0  0  0  0
 14 15  1  0  0  0  0
 14 16  1  0  0  0  0
 15 30  1  0  0  0  0
 15 31  1  0  0  0  0
 15 32  1  0  0  0  0
 16 17  2  0  0  0  0
M  END
> <s_m_source_file>
AV-unprocessed.smi

> <i_m_source_file_index>
461

> <i_lp_mmshare_version>
43012

> <i_f3d_flags>
0

> <s_epik_input>
Tz1jMW4oW0NIM10pYyg9TyljKG5uMVtDSDNdKVtOSF1bQ0gyXVtDQEBIXTJbQ0gyXVtDSDJdW0NIMl1PMg==

> <s_epik_cmdline>
J2VwaWtfcHl0aG9uJywgJy1waCcsICc3LjAnLCAnLXRuJywgJzgnLCAnLW1hJywgJzIwMCcsICctbWV0YWxfYmluZGluZycsICctaW1hZScsICc8aW5maWxlLm1hZT4nLCAnLW9tYWUnLCAnPG91dGZpbGUubWFlPic=

> <r_lp_tautomer_probability>
1

> <r_epik_Ionization_Penalty>
0.000103292

> <r_epik_Ionization_Penalty_Charging>
5.59445e-09

> <r_epik_Ionization_Penalty_Neutral>
0.000103287

> <r_epik_State_Penalty>
-0

> <r_epik_Charging_Adjusted_Penalty>
5.59445e-09

> <i_epik_Tot_Q>
0

> <i_epik_Tot_abs_Q>
0

> <r_epik_Metal_State_Penalty>
-0

> <b_epik_Metal_Only>
0

> <s_lp_Force_Field>
OPLS_2005

> <r_lp_Energy>
41.4084

> <b_lp_Chiralities_Consistent>
1

> <s_lp_Variant>
AV-unprocessed.smi:461-1

> <Gold.Version>
5.8.1

> <Gold.Id.Protein>
6NUR|6NUR_protein|mol2

> <Gold.PLP.Fitness>
39.8108

> <Gold.PLP.PLP>
-37.6680

> <Gold.PLP.part.hbond>
-1.0000

> <Gold.PLP.part.metal>
0.0000

> <Gold.PLP.part.buried>
-4.6482

> <Gold.PLP.part.nonpolar>
-35.2439

> <Gold.PLP.part.repulsive>
3.1971

> <Gold.PLP.ligand.clash>
0.0000

> <Gold.PLP.ligand.torsion>
0.4333

> <Gold.PLP.Chemscore.Hbond>
1.0000

> <Gold.PLP.Chemscore.CHOScore>
0.0000

> <Gold.PLP.Chemscore.Metal>
0.0000

> <Gold.Chemscore.Hbonds>
donor molecule, donor type, donor heavy atom, donor atom, acceptor molecule, acceptor atom, score
      P1  H  7997  8010       L1    13  1.00

> <Gold.PLP.Chemscore.Internal.Correction>
0.0093

> <Gold.Rescore>
     Score         DG    S(hbond)    S(metal)    S(lipo)     H(rot)  DE(clash)    DE(int)     intcor
     13.36     -13.76       1.00        0.00      70.53       1.30       0.04       0.36       ----

> <Gold.Chemscore.Fitness>
13.3588

> <Gold.Chemscore.DG>
-13.7560

> <Gold.Chemscore.ZeroCoef>
-5.4800

> <Gold.Chemscore.Hbond>
1.0000

> <Gold.Chemscore.Metal>
0.0000

> <Gold.Chemscore.Lipo>
70.5328

> <Gold.Chemscore.Internal_Hbond>
0.0000

> <Gold.Chemscore.DEClash>
0.0358

> <Gold.Chemscore.DEInternal>
0.3614

> <Gold.Chemscore.Rot>
1.2954

> <Gold.Chemscore.Internal.Correction>
   9.000000E+99

> <Gold.Chemscore.Hbonds>
donor molecule, donor type, donor heavy atom, donor atom, acceptor molecule, acceptor atom, score
      P1  H  7997  8010       L1    13  1.00

> <Gold.Chemscore.Hbond.Weighted>
-3.3400

> <Gold.Chemscore.Metal.Weighted>
-0.0000

> <Gold.Chemscore.Lipo.Weighted>
-8.2523

> <Gold.Chemscore.Internal_Hbond.Weighted>
0.0000

> <Gold.Chemscore.DEClash.Weighted>
0.0358

> <Gold.Chemscore.DEInternal.Weighted>
0.3614

> <Gold.Chemscore.Rot.Weighted>
3.3163

> <Gold.Chemscore.Internal.Correction.Weighted>
   9.000000E+99

> <Gold.Protein.RotatedTorsions>
[ 6907 6896 6895 6894 ] final -131.77 input  -60.11 | X-H torsion
[ 7974 7965 7964 7962 ] final  -13.52 input  175.53 | X-H torsion
[ 8008 7997 7996 7995 ] final   81.19 input   59.86 | X-H torsion
[ 10167 10162 10161 10158 ] final   21.36 input  -65.29 | X-H torsion
[ 10718 10713 10712 10709 ] final  -37.32 input   66.30 | X-H torsion
[ 10763 10752 10751 10750 ] final -168.15 input  -60.55 | X-H torsion
[ 11005 11000 10999 10996 ] final -154.72 input  -57.11 | X-H torsion

> <Gold.Protein.ActiveResidues>
 VAL166  LYS551  ARG553  GLY616  TRP617  ASP618  TYR619  PRO620  LYS621  CYS622 
 ASP623  PHE694  ASN695  SER759  ASP760  ASP761  ALA762  ILE779  LEU786  VAL792 
 PHE793  MET794  SER795  GLU796  ALA797  LYS798  CYS799  TRP800  GLU811  SER814 

> <Gold.Protein.RotatedAtoms>
  150.9548  133.6510  159.2765 H   0  0  0  0  0  0  0  0  0  0  0  0  # atno 6907 bound_to 6896
  151.3853  135.0946  159.9519 H   0  0  0  0  0  0  0  0  0  0  0  0  # atno 6908 bound_to 6896
  152.5124  133.9073  159.7525 H   0  0  0  0  0  0  0  0  0  0  0  0  # atno 6909 bound_to 6896
  146.2111  140.3216  142.8391 H   0  0  0  0  0  0  0  0  0  0  0  0  # atno 7974 bound_to 7965
  155.8938  140.3437  155.5975 H   0  0  0  0  0  0  0  0  0  0  0  0  # atno 8008 bound_to 7997
  155.7580  140.0829  157.2188 H   0  0  0  0  0  0  0  0  0  0  0  0  # atno 8009 bound_to 7997
  154.4036  140.1541  156.2787 H   0  0  0  0  0  0  0  0  0  0  0  0  # atno 8010 bound_to 7997
  140.5433  143.9639  150.6532 H   0  0  0  0  0  0  0  0  0  0  0  0  # atno 10167 bound_to 10162
  156.3166  130.4260  149.8000 H   0  0  0  0  0  0  0  0  0  0  0  0  # atno 10718 bound_to 10713
  154.6658  135.2932  154.9807 H   0  0  0  0  0  0  0  0  0  0  0  0  # atno 10763 bound_to 10752
  154.0851  135.6599  153.4847 H   0  0  0  0  0  0  0  0  0  0  0  0  # atno 10764 bound_to 10752
  153.0457  135.5206  154.7631 H   0  0  0  0  0  0  0  0  0  0  0  0  # atno 10765 bound_to 10752
  140.6942  134.4008  157.5216 H   0  0  0  0  0  0  0  0  0  0  0  0  # atno 11005 bound_to 11000
  144.8916  140.7531  143.5923 LP  0  0  0  0  0  0  0  0  0  0  0  0  # atno 17320 bound_to 7965
  145.3138  139.1810  143.4624 LP  0  0  0  0  0  0  0  0  0  0  0  0  # atno 17321 bound_to 7965
  140.3045  143.3238  152.0939 LP  0  0  0  0  0  0  0  0  0  0  0  0  # atno 17342 bound_to 10162
  139.4997  144.6675  151.6321 LP  0  0  0  0  0  0  0  0  0  0  0  0  # atno 17343 bound_to 10162
  156.5323  130.8263  151.3241 LP  0  0  0  0  0  0  0  0  0  0  0  0  # atno 17370 bound_to 10713
  157.7403  130.9847  150.2367 LP  0  0  0  0  0  0  0  0  0  0  0  0  # atno 17371 bound_to 10713
  139.8915  134.8779  156.2318 LP  0  0  0  0  0  0  0  0  0  0  0  0  # atno 17394 bound_to 11000
  141.0216  133.7038  156.1278 LP  0  0  0  0  0  0  0  0  0  0  0  0  # atno 17395 bound_to 11000

$$$$
