AV-unprocessed.smi:471|AV-procd|sdf|2658|dock1
  -GOLD-   2262023 73D 1   1.00000     0.00000
 Structure written by MMmdl.
 17 17  0  0  0  0  0  0  0  0  2 V2000
  151.8850  137.0287  155.2519 O   0  0  0  0  0  0  0  0  0  0  0  0
  152.1664  138.2311  155.0555 C   0  0  0  0  0  0  0  0  0  0  0  0
  153.3093  138.7337  155.1310 O   0  5  0  0  0  0  0  0  0  0  0  0
  151.0091  139.1687  154.7012 C   0  0  0  0  0  0  0  0  0  0  0  0
  150.8508  140.2420  155.6583 N   0  0  0  0  0  0  0  0  0  0  0  0
  151.4621  140.1954  156.9029 C   0  0  0  0  0  0  0  0  0  0  0  0
  151.3584  141.1883  157.8170 C   0  0  0  0  0  0  0  0  0  0  0  0
  150.5807  142.3865  157.5205 C   0  0  0  0  0  0  0  0  0  0  0  0
  150.4296  143.3397  158.2818 O   0  0  0  0  0  0  0  0  0  0  0  0
  149.9857  142.3947  156.2555 N   0  0  0  0  0  0  0  0  0  0  0  0
  150.0827  141.3784  155.3028 C   0  0  0  0  0  0  0  0  0  0  0  0
  149.5059  141.5076  154.2229 O   0  0  0  0  0  0  0  0  0  0  0  0
  149.4352  143.2040  156.0091 H   0  0  0  0  0  0  0  0  0  0  0  0
  151.1990  139.6673  153.7490 H   0  0  0  0  0  0  0  0  0  0  0  0
  150.0783  138.6139  154.5792 H   0  0  0  0  0  0  0  0  0  0  0  0
  152.0502  139.3253  157.1592 H   0  0  0  0  0  0  0  0  0  0  0  0
  151.8554  141.0960  158.7717 H   0  0  0  0  0  0  0  0  0  0  0  0
  1  2  2  0  0  0  0
  2  3  1  0  0  0  0
  2  4  1  0  0  0  0
  4  5  1  0  0  0  0
  4 14  1  0  0  0  0
  4 15  1  0  0  0  0
  5 11  1  0  0  0  0
  5  6  1  0  0  0  0
  6  7  2  0  0  0  0
  6 16  1  0  0  0  0
  7  8  1  0  0  0  0
  7 17  1  0  0  0  0
  8  9  2  0  0  0  0
  8 10  1  0  0  0  0
 10 13  1  0  0  0  0
 10 11  1  0  0  0  0
 11 12  2  0  0  0  0
M  CHG  1   3  -1
M  END
> <s_m_source_file>
AV-unprocessed.smi

> <i_m_source_file_index>
471

> <i_lp_mmshare_version>
43012

> <i_f3d_flags>
0

> <s_epik_input>
Tz1DKFtPSF0pW0NIMl1uMVtjSF1bY0hdYyg9TylbbkhdYzE9Tw==

> <s_epik_cmdline>
J2VwaWtfcHl0aG9uJywgJy1waCcsICc3LjAnLCAnLXRuJywgJzgnLCAnLW1hJywgJzIwMCcsICctbWV0YWxfYmluZGluZycsICctaW1hZScsICc8aW5maWxlLm1hZT4nLCAnLW9tYWUnLCAnPG91dGZpbGUubWFlPic=

> <r_lp_tautomer_probability>
1

> <r_epik_Ionization_Penalty>
0.00201392

> <r_epik_Ionization_Penalty_Charging>
0.00201392

> <r_epik_Ionization_Penalty_Neutral>
0

> <r_epik_State_Penalty>
-0

> <r_epik_Charging_Adjusted_Penalty>
0.00201392

> <i_epik_Tot_Q>
-1

> <i_epik_Tot_abs_Q>
1

> <r_epik_Metal_State_Penalty>
0.487386

> <b_epik_Metal_Only>
0

> <s_lp_Force_Field>
OPLS_2005

> <r_lp_Energy>
1.1986

> <b_lp_Chiralities_Consistent>
1

> <s_lp_Variant>
AV-unprocessed.smi:471-1

> <Gold.Version>
5.8.1

> <Gold.Id.Protein>
6NUR|6NUR_protein|mol2

> <Gold.PLP.Fitness>
39.8078

> <Gold.PLP.PLP>
-23.6953

> <Gold.PLP.part.hbond>
-5.0000

> <Gold.PLP.part.metal>
0.0000

> <Gold.PLP.part.buried>
-1.3533

> <Gold.PLP.part.nonpolar>
-16.3950

> <Gold.PLP.part.repulsive>
0.5198

> <Gold.PLP.ligand.clash>
0.0000

> <Gold.PLP.ligand.torsion>
0.2051

> <Gold.PLP.Chemscore.Hbond>
5.5070

> <Gold.PLP.Chemscore.CHOScore>
0.0000

> <Gold.PLP.Chemscore.Metal>
0.0000

> <Gold.Chemscore.Hbonds>
donor molecule, donor type, donor heavy atom, donor atom, acceptor molecule, acceptor atom, score
      L1  H    10    13       P1  8028  1.00
      P1  H  7997  8010       L1     3  1.98
      P1  H  8011  8017       L1    12  0.48
      P1  H 10752 10765       L1     1  2.00

> <Gold.PLP.Chemscore.Internal.Correction>
0.0016

> <Gold.Rescore>
     Score         DG    S(hbond)    S(metal)    S(lipo)     H(rot)  DE(clash)    DE(int)     intcor
     14.42     -15.14       3.47        0.00      19.75       1.66       0.41       0.31       ----

> <Gold.Chemscore.Fitness>
14.4228

> <Gold.Chemscore.DG>
-15.1425

> <Gold.Chemscore.ZeroCoef>
-5.4800

> <Gold.Chemscore.Hbond>
3.4729

> <Gold.Chemscore.Metal>
0.0000

> <Gold.Chemscore.Lipo>
19.7477

> <Gold.Chemscore.Internal_Hbond>
0.0000

> <Gold.Chemscore.DEClash>
0.4062

> <Gold.Chemscore.DEInternal>
0.3135

> <Gold.Chemscore.Rot>
1.6591

> <Gold.Chemscore.Internal.Correction>
   9.000000E+99

> <Gold.Chemscore.Hbonds>
donor molecule, donor type, donor heavy atom, donor atom, acceptor molecule, acceptor atom, score
      L1  H    10    13       P1  8028  1.00
      P1  H  7997  8010       L1     3  0.89
      P1  H  8011  8017       L1    12  0.49
      P1  H 10752 10765       L1     1  0.95

> <Gold.Chemscore.Hbond.Weighted>
-11.5993

> <Gold.Chemscore.Metal.Weighted>
-0.0000

> <Gold.Chemscore.Lipo.Weighted>
-2.3105

> <Gold.Chemscore.Internal_Hbond.Weighted>
0.0000

> <Gold.Chemscore.DEClash.Weighted>
0.4062

> <Gold.Chemscore.DEInternal.Weighted>
0.3135

> <Gold.Chemscore.Rot.Weighted>
4.2473

> <Gold.Chemscore.Internal.Correction.Weighted>
   9.000000E+99

> <Gold.Protein.RotatedTorsions>
[ 6907 6896 6895 6894 ] final  -53.64 input  -60.11 | X-H torsion
[ 7974 7965 7964 7962 ] final  141.97 input  175.53 | X-H torsion
[ 8008 7997 7996 7995 ] final  111.77 input   59.86 | X-H torsion
[ 10167 10162 10161 10158 ] final   -0.96 input  -65.29 | X-H torsion
[ 10718 10713 10712 10709 ] final  -64.15 input   66.30 | X-H torsion
[ 10763 10752 10751 10750 ] final -175.37 input  -60.55 | X-H torsion
[ 11005 11000 10999 10996 ] final  -45.17 input  -57.11 | X-H torsion

> <Gold.Protein.ActiveResidues>
 VAL166  LYS551  ARG553  GLY616  TRP617  ASP618  TYR619  PRO620  LYS621  CYS622 
 ASP623  PHE694  ASN695  SER759  ASP760  ASP761  ALA762  ILE779  LEU786  VAL792 
 PHE793  MET794  SER795  GLU796  ALA797  LYS798  CYS799  TRP800  GLU811  SER814 

> <Gold.Protein.RotatedAtoms>
  150.8408  134.7700  159.6930 H   0  0  0  0  0  0  0  0  0  0  0  0  # atno 6907 bound_to 6896
  152.4496  134.5418  159.9851 H   0  0  0  0  0  0  0  0  0  0  0  0  # atno 6908 bound_to 6896
  151.5559  133.3372  159.2997 H   0  0  0  0  0  0  0  0  0  0  0  0  # atno 6909 bound_to 6896
  144.9049  139.5372  143.5736 H   0  0  0  0  0  0  0  0  0  0  0  0  # atno 7974 bound_to 7965
  156.2147  140.3012  155.9812 H   0  0  0  0  0  0  0  0  0  0  0  0  # atno 8008 bound_to 7997
  155.2636  140.0431  157.3017 H   0  0  0  0  0  0  0  0  0  0  0  0  # atno 8009 bound_to 7997
  154.5750  140.2359  155.8144 H   0  0  0  0  0  0  0  0  0  0  0  0  # atno 8010 bound_to 7997
  140.6790  143.6832  150.8088 H   0  0  0  0  0  0  0  0  0  0  0  0  # atno 10167 bound_to 10162
  156.0746  130.4230  150.1379 H   0  0  0  0  0  0  0  0  0  0  0  0  # atno 10718 bound_to 10713
  154.5852  135.2840  155.0692 H   0  0  0  0  0  0  0  0  0  0  0  0  # atno 10763 bound_to 10752
  154.2013  135.6424  153.5092 H   0  0  0  0  0  0  0  0  0  0  0  0  # atno 10764 bound_to 10752
  153.0102  135.5469  154.6519 H   0  0  0  0  0  0  0  0  0  0  0  0  # atno 10765 bound_to 10752
  141.0498  133.6747  156.2976 H   0  0  0  0  0  0  0  0  0  0  0  0  # atno 11005 bound_to 11000
  146.3128  139.7809  142.9006 LP  0  0  0  0  0  0  0  0  0  0  0  0  # atno 17320 bound_to 7965
  145.3553  141.0315  143.3315 LP  0  0  0  0  0  0  0  0  0  0  0  0  # atno 17321 bound_to 7965
  140.0530  143.5231  152.2664 LP  0  0  0  0  0  0  0  0  0  0  0  0  # atno 17342 bound_to 10162
  139.6099  144.7606  151.2975 LP  0  0  0  0  0  0  0  0  0  0  0  0  # atno 17343 bound_to 10162
  156.9423  130.9748  151.3514 LP  0  0  0  0  0  0  0  0  0  0  0  0  # atno 17370 bound_to 10713
  157.5835  130.8393  149.8557 LP  0  0  0  0  0  0  0  0  0  0  0  0  # atno 17371 bound_to 10713
  140.6077  134.5491  157.5528 LP  0  0  0  0  0  0  0  0  0  0  0  0  # atno 17394 bound_to 11000
  139.9341  134.7908  156.0850 LP  0  0  0  0  0  0  0  0  0  0  0  0  # atno 17395 bound_to 11000

$$$$
