AV-unprocessed.smi:94|AV-procd|sdf|853|dock7
  -GOLD-   2262017293D 1   1.00000     0.00000
 Structure written by MMmdl.
 53 55  0  0  0  0  0  0  0  0  1 V2000
  150.7505  130.4974  155.0968 C   0  0  0  0  0  0  0  0  0  0  0  0
  150.4456  131.8837  155.1433 O   0  0  0  0  0  0  0  0  0  0  0  0
  149.3689  132.3461  154.4132 C   0  0  0  0  0  0  0  0  0  0  0  0
  148.5052  131.4950  153.6768 C   0  0  0  0  0  0  0  0  0  0  0  0
  147.4165  132.0217  152.9571 C   0  0  0  0  0  0  0  0  0  0  0  0
  147.1683  133.4065  152.9652 C   0  0  0  0  0  0  0  0  0  0  0  0
  145.9949  133.9859  152.2025 C   0  0  0  0  0  0  0  0  0  0  0  0
  148.0166  134.2585  153.6946 C   0  0  0  0  0  0  0  0  0  0  0  0
  149.1240  133.7424  154.4105 C   0  0  0  0  0  0  0  0  0  0  0  0
  150.0389  134.6852  155.1942 C   0  0  2  0  0  0  0  0  0  0  0  0
  149.5053  134.9045  156.6198 C   0  0  0  0  0  0  0  0  0  0  0  0
  150.1943  135.9619  154.5067 N   0  0  0  0  0  0  0  0  0  0  0  0
  151.0516  136.9534  154.7954 C   0  0  0  0  0  0  0  0  0  0  0  0
  151.8389  136.9073  155.7393 O   0  0  0  0  0  0  0  0  0  0  0  0
  151.0307  138.1924  153.8796 C   0  0  0  0  0  0  0  0  0  0  0  0
  150.5815  139.4375  154.5501 N   0  0  0  0  0  0  0  0  0  0  0  0
  149.2471  139.8702  154.3479 C   0  0  0  0  0  0  0  0  0  0  0  0
  148.4766  139.2467  153.6167 O   0  0  0  0  0  0  0  0  0  0  0  0
  148.8609  141.0784  155.0671 C   0  0  0  0  0  0  0  0  0  0  0  0
  147.6228  141.5779  154.9144 F   0  0  0  0  0  0  0  0  0  0  0  0
  149.7274  141.7024  155.8907 C   0  0  0  0  0  0  0  0  0  0  0  0
  151.0127  141.2487  156.1126 N   0  0  0  0  0  0  0  0  0  0  0  0
  151.9076  142.0196  157.0577 C   0  0  1  0  0  0  0  0  0  0  0  0
  151.3115  143.3622  157.5063 C   0  0  0  0  0  0  0  0  0  0  0  0
  151.8211  143.4495  158.9286 C   0  0  0  0  0  0  0  0  0  0  0  0
  151.7982  141.9885  159.3656 C   0  0  0  0  0  0  0  0  0  0  0  0
  152.1495  141.2482  158.1990 O   0  0  0  0  0  0  0  0  0  0  0  0
  151.4803  140.1124  155.4120 C   0  0  0  0  0  0  0  0  0  0  0  0
  152.6326  139.7031  155.5573 O   0  0  0  0  0  0  0  0  0  0  0  0
  151.6229  130.3008  155.7200 H   0  0  0  0  0  0  0  0  0  0  0  0
  150.9914  130.1762  154.0825 H   0  0  0  0  0  0  0  0  0  0  0  0
  149.9280  129.8941  155.4830 H   0  0  0  0  0  0  0  0  0  0  0  0
  148.6549  130.4266  153.6474 H   0  0  0  0  0  0  0  0  0  0  0  0
  146.7709  131.3560  152.4034 H   0  0  0  0  0  0  0  0  0  0  0  0
  145.2123  134.2937  152.8964 H   0  0  0  0  0  0  0  0  0  0  0  0
  145.5723  133.2567  151.5102 H   0  0  0  0  0  0  0  0  0  0  0  0
  146.3072  134.8588  151.6277 H   0  0  0  0  0  0  0  0  0  0  0  0
  147.8018  135.3173  153.6994 H   0  0  0  0  0  0  0  0  0  0  0  0
  151.0292  134.2305  155.2544 H   0  0  0  0  0  0  0  0  0  0  0  0
  149.4222  133.9585  157.1557 H   0  0  0  0  0  0  0  0  0  0  0  0
  148.5173  135.3661  156.6056 H   0  0  0  0  0  0  0  0  0  0  0  0
  150.1659  135.5493  157.1999 H   0  0  0  0  0  0  0  0  0  0  0  0
  149.5915  136.1034  153.7096 H   0  0  0  0  0  0  0  0  0  0  0  0
  152.0303  138.3198  153.4617 H   0  0  0  0  0  0  0  0  0  0  0  0
  150.4119  137.9659  153.0101 H   0  0  0  0  0  0  0  0  0  0  0  0
  149.3890  142.5921  156.4017 H   0  0  0  0  0  0  0  0  0  0  0  0
  152.8558  142.1522  156.5351 H   0  0  0  0  0  0  0  0  0  0  0  0
  151.6576  144.1753  156.8682 H   0  0  0  0  0  0  0  0  0  0  0  0
  150.2225  143.3445  157.4890 H   0  0  0  0  0  0  0  0  0  0  0  0
  152.8447  143.8263  158.9370 H   0  0  0  0  0  0  0  0  0  0  0  0
  151.2127  144.0944  159.5632 H   0  0  0  0  0  0  0  0  0  0  0  0
  152.4870  141.7870  160.1860 H   0  0  0  0  0  0  0  0  0  0  0  0
  150.7978  141.7024  159.6907 H   0  0  0  0  0  0  0  0  0  0  0  0
  1  2  1  0  0  0  0
  1 30  1  0  0  0  0
  1 31  1  0  0  0  0
  1 32  1  0  0  0  0
  2  3  1  0  0  0  0
  3  9  1  0  0  0  0
  3  4  2  0  0  0  0
  4  5  1  0  0  0  0
  4 33  1  0  0  0  0
  5  6  2  0  0  0  0
  5 34  1  0  0  0  0
  6  7  1  0  0  0  0
  6  8  1  0  0  0  0
  7 35  1  0  0  0  0
  7 36  1  0  0  0  0
  7 37  1  0  0  0  0
  8  9  2  0  0  0  0
  8 38  1  0  0  0  0
  9 10  1  0  0  0  0
 10 11  1  0  0  0  0
 10 12  1  0  0  0  0
 10 39  1  0  0  0  0
 11 40  1  0  0  0  0
 11 41  1  0  0  0  0
 11 42  1  0  0  0  0
 12 13  1  0  0  0  0
 12 43  1  0  0  0  0
 13 14  2  0  0  0  0
 13 15  1  0  0  0  0
 15 16  1  0  0  0  0
 15 44  1  0  0  0  0
 15 45  1  0  0  0  0
 16 28  1  0  0  0  0
 16 17  1  0  0  0  0
 17 18  2  0  0  0  0
 17 19  1  0  0  0  0
 19 20  1  0  0  0  0
 19 21  2  0  0  0  0
 21 22  1  0  0  0  0
 21 46  1  0  0  0  0
 22 23  1  0  0  0  0
 22 28  1  0  0  0  0
 23 27  1  0  0  0  0
 23 24  1  0  0  0  0
 23 47  1  0  0  0  0
 24 25  1  0  0  0  0
 24 48  1  0  0  0  0
 24 49  1  0  0  0  0
 25 26  1  0  0  0  0
 25 50  1  0  0  0  0
 25 51  1  0  0  0  0
 26 27  1  0  0  0  0
 26 52  1  0  0  0  0
 26 53  1  0  0  0  0
 28 29  2  0  0  0  0
M  END
> <s_m_source_file>
AV-unprocessed.smi

> <i_m_source_file_index>
94

> <i_lp_mmshare_version>
43012

> <i_f3d_flags>
0

> <s_epik_input>
W0NIM11PYzFbY0hdW2NIXWMoW0NIM10pW2NIXWMxW0NASF0oW0NIM10pW05IXUMoPU8pW0NIMl1uMmMoPU8pYyhGKVtjSF1uKGMyPU8pW0NAQEhdM1tDSDJdW0NIMl1bQ0gyXU8z

> <s_epik_cmdline>
J2VwaWtfcHl0aG9uJywgJy1waCcsICc3LjAnLCAnLXRuJywgJzgnLCAnLW1hJywgJzIwMCcsICctbWV0YWxfYmluZGluZycsICctaW1hZScsICc8aW5maWxlLm1hZT4nLCAnLW9tYWUnLCAnPG91dGZpbGUubWFlPic=

> <r_lp_tautomer_probability>
1

> <r_epik_Ionization_Penalty>
3.37009e-08

> <r_epik_Ionization_Penalty_Charging>
3.59856e-09

> <r_epik_Ionization_Penalty_Neutral>
3.01024e-08

> <r_epik_State_Penalty>
-0

> <r_epik_Charging_Adjusted_Penalty>
3.59856e-09

> <i_epik_Tot_Q>
0

> <i_epik_Tot_abs_Q>
0

> <r_epik_Metal_State_Penalty>
-0

> <b_epik_Metal_Only>
0

> <s_epik_Chemistry_Notes>
This compound contains an acetal/aminal-like group ( X-CH(R)-Y where X, Y are N, S, or O) that may be acid/base labile, releasing an aldehyde.

> <s_lp_Force_Field>
OPLS_2005

> <r_lp_Energy>
25.2965

> <b_lp_Chiralities_Consistent>
1

> <s_lp_Variant>
AV-unprocessed.smi:94-3

> <Gold.Version>
5.8.1

> <Gold.Id.Protein>
6NUR|6NUR_protein|mol2

> <Gold.PLP.Fitness>
58.0052

> <Gold.PLP.PLP>
-48.5471

> <Gold.PLP.part.hbond>
-3.4895

> <Gold.PLP.part.metal>
0.0000

> <Gold.PLP.part.buried>
-2.7864

> <Gold.PLP.part.nonpolar>
-43.3852

> <Gold.PLP.part.repulsive>
1.3969

> <Gold.PLP.ligand.clash>
0.0000

> <Gold.PLP.ligand.torsion>
1.2477

> <Gold.PLP.Chemscore.Hbond>
3.0000

> <Gold.PLP.Chemscore.CHOScore>
0.9619

> <Gold.PLP.Chemscore.Metal>
0.0000

> <Gold.Chemscore.Hbonds>
donor molecule, donor type, donor heavy atom, donor atom, acceptor molecule, acceptor atom, score
      L1  H    12    43       P1  7948  1.00
      P1  H  7997  8010       L1    29  1.00
      P1  H 10752 10763       L1    14  0.95
      L1  C    21    46       P1  8028  1.00

> <Gold.PLP.Chemscore.Internal.Correction>
0.0677

> <Gold.Rescore>
     Score         DG    S(hbond)    S(metal)    S(lipo)     H(rot)  DE(clash)    DE(int)     intcor
     14.58     -19.52       2.48        0.00     100.40       2.34       2.68       2.26       ----

> <Gold.Chemscore.Fitness>
14.5839

> <Gold.Chemscore.DG>
-19.5201

> <Gold.Chemscore.ZeroCoef>
-5.4800

> <Gold.Chemscore.Hbond>
2.4779

> <Gold.Chemscore.Metal>
0.0000

> <Gold.Chemscore.Lipo>
100.3985

> <Gold.Chemscore.Internal_Hbond>
0.0000

> <Gold.Chemscore.DEClash>
2.6803

> <Gold.Chemscore.DEInternal>
2.2558

> <Gold.Chemscore.Rot>
2.3370

> <Gold.Chemscore.Internal.Correction>
   9.000000E+99

> <Gold.Chemscore.Hbonds>
donor molecule, donor type, donor heavy atom, donor atom, acceptor molecule, acceptor atom, score
      L1  H    12    43       P1  7948  0.44
      P1  H  7997  8010       L1    29  1.00
      P1  H 10752 10763       L1    14  0.22

> <Gold.Chemscore.Hbond.Weighted>
-8.2761

> <Gold.Chemscore.Metal.Weighted>
-0.0000

> <Gold.Chemscore.Lipo.Weighted>
-11.7466

> <Gold.Chemscore.Internal_Hbond.Weighted>
0.0000

> <Gold.Chemscore.DEClash.Weighted>
2.6803

> <Gold.Chemscore.DEInternal.Weighted>
2.2558

> <Gold.Chemscore.Rot.Weighted>
5.9827

> <Gold.Chemscore.Internal.Correction.Weighted>
   9.000000E+99

> <Gold.Protein.RotatedTorsions>
[ 6907 6896 6895 6894 ] final   -7.09 input  -60.11 | X-H torsion
[ 7974 7965 7964 7962 ] final  123.69 input  175.53 | X-H torsion
[ 8008 7997 7996 7995 ] final   94.14 input   59.86 | X-H torsion
[ 10167 10162 10161 10158 ] final  137.66 input  -65.29 | X-H torsion
[ 10718 10713 10712 10709 ] final -126.85 input   66.30 | X-H torsion
[ 10763 10752 10751 10750 ] final   89.66 input  -60.55 | X-H torsion
[ 11005 11000 10999 10996 ] final   38.69 input  -57.11 | X-H torsion

> <Gold.Protein.ActiveResidues>
 VAL166  LYS551  ARG553  GLY616  TRP617  ASP618  TYR619  PRO620  LYS621  CYS622 
 ASP623  PHE694  ASN695  SER759  ASP760  ASP761  ALA762  ILE779  LEU786  VAL792 
 PHE793  MET794  SER795  GLU796  ALA797  LYS798  CYS799  TRP800  GLU811  SER814 

> <Gold.Protein.RotatedAtoms>
  151.4551  135.1033  159.9708 H   0  0  0  0  0  0  0  0  0  0  0  0  # atno 6907 bound_to 6896
  152.4874  133.8404  159.7160 H   0  0  0  0  0  0  0  0  0  0  0  0  # atno 6908 bound_to 6896
  150.8995  133.7077  159.2910 H   0  0  0  0  0  0  0  0  0  0  0  0  # atno 6909 bound_to 6896
  145.0929  139.3573  143.4851 H   0  0  0  0  0  0  0  0  0  0  0  0  # atno 7974 bound_to 7965
  156.0546  140.3304  155.7390 H   0  0  0  0  0  0  0  0  0  0  0  0  # atno 8008 bound_to 7997
  155.5549  140.0613  157.2859 H   0  0  0  0  0  0  0  0  0  0  0  0  # atno 8009 bound_to 7997
  154.4452  140.1887  156.0712 H   0  0  0  0  0  0  0  0  0  0  0  0  # atno 8010 bound_to 7997
  139.5137  144.6397  151.5601 H   0  0  0  0  0  0  0  0  0  0  0  0  # atno 10167 bound_to 10162
  156.1803  130.6727  151.0295 H   0  0  0  0  0  0  0  0  0  0  0  0  # atno 10718 bound_to 10713
  153.1894  135.4462  155.0130 H   0  0  0  0  0  0  0  0  0  0  0  0  # atno 10763 bound_to 10752
  154.8081  135.3283  154.7381 H   0  0  0  0  0  0  0  0  0  0  0  0  # atno 10764 bound_to 10752
  153.7836  135.6975  153.4939 H   0  0  0  0  0  0  0  0  0  0  0  0  # atno 10765 bound_to 10752
  140.2101  134.3765  155.8053 H   0  0  0  0  0  0  0  0  0  0  0  0  # atno 11005 bound_to 11000
  146.3531  140.0772  142.8620 LP  0  0  0  0  0  0  0  0  0  0  0  0  # atno 17320 bound_to 7965
  145.1044  140.9366  143.4693 LP  0  0  0  0  0  0  0  0  0  0  0  0  # atno 17321 bound_to 7965
  140.6160  143.9348  150.6489 LP  0  0  0  0  0  0  0  0  0  0  0  0  # atno 17342 bound_to 10162
  140.2606  143.3526  152.1326 LP  0  0  0  0  0  0  0  0  0  0  0  0  # atno 17343 bound_to 10162
  157.6863  131.0823  150.7233 LP  0  0  0  0  0  0  0  0  0  0  0  0  # atno 17370 bound_to 10713
  156.7290  130.4704  149.5504 LP  0  0  0  0  0  0  0  0  0  0  0  0  # atno 17371 bound_to 10713
  141.2226  133.7139  156.8404 LP  0  0  0  0  0  0  0  0  0  0  0  0  # atno 17394 bound_to 11000
  140.1960  134.8931  157.3115 LP  0  0  0  0  0  0  0  0  0  0  0  0  # atno 17395 bound_to 11000

$$$$
