AV-unprocessed.smi:1891|AV-procd|sdf|7666|dock8
  -GOLD-   22720 9403D 1   1.00000     0.00000
 Structure written by MMmdl.
 36 38  0  0  0  0  0  0  0  0  1 V2000
  152.2796  139.6310  154.8269 O   0  0  0  0  0  0  0  0  0  0  0  0
  151.3759  139.5630  155.9113 C   0  0  0  0  0  0  0  0  0  0  0  0
  151.8784  140.2128  157.1697 C   0  0  0  0  0  0  0  0  0  0  0  0
  152.9369  139.7615  157.8470 N   0  0  0  0  0  0  0  0  0  0  0  0
  153.0290  140.6479  158.9013 C   0  0  0  0  0  0  0  0  0  0  0  0
  153.9446  140.7055  159.9760 C   0  0  0  0  0  0  0  0  0  0  0  0
  153.8399  141.7209  160.9491 C   0  0  0  0  0  0  0  0  0  0  0  0
  152.8217  142.6922  160.8603 C   0  0  0  0  0  0  0  0  0  0  0  0
  151.8989  142.6524  159.7974 C   0  0  0  0  0  0  0  0  0  0  0  0
  152.0064  141.6347  158.8307 C   0  0  0  0  0  0  0  0  0  0  0  0
  151.2740  141.3104  157.6929 N   0  0  0  0  0  0  0  0  0  0  0  0
  150.1044  142.0256  157.1982 C   0  0  0  0  0  0  0  0  0  0  0  0
  148.9469  141.0752  156.8281 C   0  0  1  0  0  0  0  0  0  0  0  0
  148.5650  140.3686  157.9915 O   0  0  0  0  0  0  0  0  0  0  0  0
  147.7762  141.8039  156.1769 C   0  0  0  0  0  0  0  0  0  0  0  0
  146.8459  142.5152  156.9681 C   0  0  0  0  0  0  0  0  0  0  0  0
  145.7783  143.2066  156.3640 C   0  0  0  0  0  0  0  0  0  0  0  0
  145.6332  143.1936  154.9640 C   0  0  0  0  0  0  0  0  0  0  0  0
  144.6074  143.8596  154.3829 F   0  0  0  0  0  0  0  0  0  0  0  0
  146.5564  142.4892  154.1688 C   0  0  0  0  0  0  0  0  0  0  0  0
  147.6246  141.7963  154.7708 C   0  0  0  0  0  0  0  0  0  0  0  0
  148.5089  141.1323  153.9882 F   0  0  0  0  0  0  0  0  0  0  0  0
  152.8567  138.8842  154.8688 H   0  0  0  0  0  0  0  0  0  0  0  0
  150.4410  140.0386  155.6144 H   0  0  0  0  0  0  0  0  0  0  0  0
  151.1628  138.5133  156.1073 H   0  0  0  0  0  0  0  0  0  0  0  0
  154.7282  139.9665  160.0521 H   0  0  0  0  0  0  0  0  0  0  0  0
  154.5441  141.7546  161.7673 H   0  0  0  0  0  0  0  0  0  0  0  0
  152.7488  143.4670  161.6096 H   0  0  0  0  0  0  0  0  0  0  0  0
  151.1163  143.3932  159.7280 H   0  0  0  0  0  0  0  0  0  0  0  0
  149.7836  142.7091  157.9859 H   0  0  0  0  0  0  0  0  0  0  0  0
  150.3784  142.6517  156.3493 H   0  0  0  0  0  0  0  0  0  0  0  0
  149.3142  140.3188  156.1341 H   0  0  0  0  0  0  0  0  0  0  0  0
  147.7305  140.7000  158.2853 H   0  0  0  0  0  0  0  0  0  0  0  0
  146.9508  142.5422  158.0426 H   0  0  0  0  0  0  0  0  0  0  0  0
  145.0723  143.7497  156.9748 H   0  0  0  0  0  0  0  0  0  0  0  0
  146.4477  142.4826  153.0945 H   0  0  0  0  0  0  0  0  0  0  0  0
  1  2  1  0  0  0  0
  1 23  1  0  0  0  0
  2  3  1  0  0  0  0
  2 24  1  0  0  0  0
  2 25  1  0  0  0  0
  3 11  1  0  0  0  0
  3  4  2  0  0  0  0
  4  5  1  0  0  0  0
  5 10  2  0  0  0  0
  5  6  1  0  0  0  0
  6  7  2  0  0  0  0
  6 26  1  0  0  0  0
  7  8  1  0  0  0  0
  7 27  1  0  0  0  0
  8  9  2  0  0  0  0
  8 28  1  0  0  0  0
  9 10  1  0  0  0  0
  9 29  1  0  0  0  0
 10 11  1  0  0  0  0
 11 12  1  0  0  0  0
 12 13  1  0  0  0  0
 12 30  1  0  0  0  0
 12 31  1  0  0  0  0
 13 14  1  0  0  0  0
 13 15  1  0  0  0  0
 13 32  1  0  0  0  0
 14 33  1  0  0  0  0
 15 21  1  0  0  0  0
 15 16  2  0  0  0  0
 16 17  1  0  0  0  0
 16 34  1  0  0  0  0
 17 18  2  0  0  0  0
 17 35  1  0  0  0  0
 18 19  1  0  0  0  0
 18 20  1  0  0  0  0
 20 21  2  0  0  0  0
 20 36  1  0  0  0  0
 21 22  1  0  0  0  0
M  END
> <s_m_source_file>
AV-unprocessed.smi

> <i_m_source_file_index>
1891

> <i_lp_mmshare_version>
43012

> <i_f3d_flags>
0

> <s_epik_input>
W2NIXTFbY0hdW2NIXVtjSF1jKGMxMiluKGMobjIpW0NIMl1bT0hdKVtDSDJdW0NASF0oW09IXSljM1tjSF1bY0hdYyhGKVtjSF1jM0Y=

> <s_epik_cmdline>
J2VwaWtfcHl0aG9uJywgJy1waCcsICc3LjAnLCAnLXRuJywgJzgnLCAnLW1hJywgJzIwMCcsICctbWV0YWxfYmluZGluZycsICctaW1hZScsICc8aW5maWxlLm1hZT4nLCAnLW9tYWUnLCAnPG91dGZpbGUubWFlPic=

> <r_epik_Ionization_Penalty>
0.0634724

> <r_epik_Ionization_Penalty_Charging>
0

> <r_epik_Ionization_Penalty_Neutral>
0.0634724

> <r_epik_State_Penalty>
0.0551572

> <r_epik_Charging_Adjusted_Penalty>
0.0551572

> <i_epik_Tot_Q>
0

> <i_epik_Tot_abs_Q>
0

> <r_epik_Metal_State_Penalty>
5.78034e-05

> <b_epik_Metal_Only>
0

> <s_lp_Force_Field>
OPLS_2005

> <r_lp_Energy>
13.0815

> <b_lp_Chiralities_Consistent>
1

> <s_lp_Variant>
AV-unprocessed.smi:1891-2

> <Gold.Version>
5.8.1

> <Gold.Id.Protein>
6NUR|6NUR_protein|mol2

> <Gold.PLP.Fitness>
49.4382

> <Gold.PLP.PLP>
-45.5737

> <Gold.PLP.part.hbond>
-2.4437

> <Gold.PLP.part.metal>
0.0000

> <Gold.PLP.part.buried>
-4.0931

> <Gold.PLP.part.nonpolar>
-38.9039

> <Gold.PLP.part.repulsive>
0.0000

> <Gold.PLP.ligand.clash>
0.0000

> <Gold.PLP.ligand.torsion>
0.7054

> <Gold.PLP.Chemscore.Hbond>
1.7520

> <Gold.PLP.Chemscore.CHOScore>
0.0000

> <Gold.PLP.Chemscore.Metal>
0.0000

> <Gold.Chemscore.Hbonds>
donor molecule, donor type, donor heavy atom, donor atom, acceptor molecule, acceptor atom, score
      P1  H  7989  7998       L1     1  0.75
      P1  H  7997  8010       L1     4  1.00

> <Gold.PLP.Chemscore.Internal.Correction>
0.0194

> <Gold.Rescore>
     Score         DG    S(hbond)    S(metal)    S(lipo)     H(rot)  DE(clash)    DE(int)     intcor
     13.47     -13.88       1.41        0.00      94.56       2.88       0.19       0.21       ----

> <Gold.Chemscore.Fitness>
13.4698

> <Gold.Chemscore.DG>
-13.8757

> <Gold.Chemscore.ZeroCoef>
-5.4800

> <Gold.Chemscore.Hbond>
1.4060

> <Gold.Chemscore.Metal>
0.0000

> <Gold.Chemscore.Lipo>
94.5648

> <Gold.Chemscore.Internal_Hbond>
0.0000

> <Gold.Chemscore.DEClash>
0.1923

> <Gold.Chemscore.DEInternal>
0.2136

> <Gold.Chemscore.Rot>
2.8767

> <Gold.Chemscore.Internal.Correction>
   9.000000E+99

> <Gold.Chemscore.Hbonds>
donor molecule, donor type, donor heavy atom, donor atom, acceptor molecule, acceptor atom, score
      P1  H  7989  7998       L1     1  0.62
      P1  H  7997  8010       L1     4  0.29

> <Gold.Chemscore.Hbond.Weighted>
-4.6960

> <Gold.Chemscore.Metal.Weighted>
-0.0000

> <Gold.Chemscore.Lipo.Weighted>
-11.0641

> <Gold.Chemscore.Internal_Hbond.Weighted>
0.0000

> <Gold.Chemscore.DEClash.Weighted>
0.1923

> <Gold.Chemscore.DEInternal.Weighted>
0.2136

> <Gold.Chemscore.Rot.Weighted>
7.3644

> <Gold.Chemscore.Internal.Correction.Weighted>
   9.000000E+99

> <Gold.Protein.RotatedTorsions>
[ 6907 6896 6895 6894 ] final  154.00 input  -60.11 | X-H torsion
[ 7974 7965 7964 7962 ] final  148.46 input  175.53 | X-H torsion
[ 8008 7997 7996 7995 ] final   57.04 input   59.86 | X-H torsion
[ 10167 10162 10161 10158 ] final  -70.71 input  -65.29 | X-H torsion
[ 10718 10713 10712 10709 ] final   93.29 input   66.30 | X-H torsion
[ 10763 10752 10751 10750 ] final   21.41 input  -60.55 | X-H torsion
[ 11005 11000 10999 10996 ] final  158.04 input  -57.11 | X-H torsion

> <Gold.Protein.ActiveResidues>
 VAL166  LYS551  ARG553  GLY616  TRP617  ASP618  TYR619  PRO620  LYS621  CYS622 
 ASP623  PHE694  ASN695  SER759  ASP760  ASP761  ALA762  ILE779  LEU786  VAL792 
 PHE793  MET794  SER795  GLU796  ALA797  LYS798  CYS799  TRP800  GLU811  SER814 

> <Gold.Protein.RotatedAtoms>
  152.0648  133.4078  159.4433 H   0  0  0  0  0  0  0  0  0  0  0  0  # atno 6907 bound_to 6896
  150.6865  134.3159  159.4775 H   0  0  0  0  0  0  0  0  0  0  0  0  # atno 6908 bound_to 6896
  152.0984  134.9358  160.0621 H   0  0  0  0  0  0  0  0  0  0  0  0  # atno 6909 bound_to 6896
  144.8512  139.6157  143.5973 H   0  0  0  0  0  0  0  0  0  0  0  0  # atno 7974 bound_to 7965
  155.5273  140.3481  155.4419 H   0  0  0  0  0  0  0  0  0  0  0  0  # atno 8008 bound_to 7997
  156.0743  140.1370  156.9818 H   0  0  0  0  0  0  0  0  0  0  0  0  # atno 8009 bound_to 7997
  154.4544  140.0959  156.6691 H   0  0  0  0  0  0  0  0  0  0  0  0  # atno 8010 bound_to 7997
  140.5331  143.2320  151.7227 H   0  0  0  0  0  0  0  0  0  0  0  0  # atno 10167 bound_to 10162
  157.6955  131.0473  150.4012 H   0  0  0  0  0  0  0  0  0  0  0  0  # atno 10718 bound_to 10713
  153.0998  135.6669  153.9695 H   0  0  0  0  0  0  0  0  0  0  0  0  # atno 10763 bound_to 10752
  153.9269  135.3008  155.3448 H   0  0  0  0  0  0  0  0  0  0  0  0  # atno 10764 bound_to 10752
  154.7418  135.5076  153.9211 H   0  0  0  0  0  0  0  0  0  0  0  0  # atno 10765 bound_to 10752
  140.1827  134.8464  157.2821 H   0  0  0  0  0  0  0  0  0  0  0  0  # atno 11005 bound_to 11000
  146.2786  139.6818  142.9245 LP  0  0  0  0  0  0  0  0  0  0  0  0  # atno 17320 bound_to 7965
  145.4496  141.0427  143.2812 LP  0  0  0  0  0  0  0  0  0  0  0  0  # atno 17321 bound_to 7965
  139.4961  144.4085  152.0106 LP  0  0  0  0  0  0  0  0  0  0  0  0  # atno 17342 bound_to 10162
  140.3188  144.3452  150.6015 LP  0  0  0  0  0  0  0  0  0  0  0  0  # atno 17343 bound_to 10162
  156.4405  130.3990  149.6700 LP  0  0  0  0  0  0  0  0  0  0  0  0  # atno 17370 bound_to 10713
  156.3886  130.7615  151.2614 LP  0  0  0  0  0  0  0  0  0  0  0  0  # atno 17371 bound_to 10713
  140.2249  134.3978  155.7548 LP  0  0  0  0  0  0  0  0  0  0  0  0  # atno 17394 bound_to 11000
  141.2223  133.7185  156.8550 LP  0  0  0  0  0  0  0  0  0  0  0  0  # atno 17395 bound_to 11000

$$$$
