AV-unprocessed.smi:86|AV-procd|sdf|814|dock3
  -GOLD-   2262017213D 1   1.00000     0.00000
 Structure written by MMmdl.
 51 55  0  0  0  0  0  0  0  0  1 V2000
  154.2736  133.7990  165.3056 O   0  0  0  0  0  0  0  0  0  0  0  0
  154.4390  134.0739  163.9289 C   0  0  0  0  0  0  0  0  0  0  0  0
  154.6100  135.5798  163.6437 C   0  0  0  0  0  0  0  0  0  0  0  0
  154.7428  135.7804  162.1227 C   0  0  0  0  0  0  0  0  0  0  0  0
  154.4563  137.1367  161.6801 N   0  0  0  0  0  0  0  0  0  0  0  0
  154.8703  138.3050  162.2775 C   0  0  0  0  0  0  0  0  0  0  0  0
  154.4746  139.4000  161.6893 N   0  0  0  0  0  0  0  0  0  0  0  0
  153.7266  138.9585  160.6029 C   0  0  0  0  0  0  0  0  0  0  0  0
  153.0067  139.6046  159.5547 C   0  0  0  0  0  0  0  0  0  0  0  0
  152.9195  140.9509  159.4067 N   0  0  0  0  0  0  0  0  0  0  0  0
  152.9144  141.8618  160.5497 C   0  0  0  0  0  0  0  0  0  0  0  0
  152.6584  143.2254  159.9131 C   0  0  2  0  0  0  0  0  0  0  0  0
  152.1000  144.3563  160.7833 C   0  0  0  0  0  0  0  0  0  0  0  0
  151.8413  145.5942  159.8949 C   0  0  0  0  0  0  0  0  0  0  0  0
  150.9719  145.2867  158.6482 C   0  0  2  0  0  0  0  0  0  0  0  0
  149.6296  145.0931  159.0475 O   0  0  0  0  0  0  0  0  0  0  0  0
  151.4658  144.0504  157.8570 C   0  0  0  0  0  0  0  0  0  0  0  0
  151.6757  142.8647  158.8090 C   0  0  1  0  0  0  0  0  0  0  0  0
  152.2682  141.5683  158.2532 C   0  0  0  0  0  0  0  0  0  0  0  0
  152.3559  138.8088  158.6654 N   0  0  0  0  0  0  0  0  0  0  0  0
  152.4142  137.4788  158.7745 C   0  0  0  0  0  0  0  0  0  0  0  0
  153.0519  136.7448  159.6871 N   0  0  0  0  0  0  0  0  0  0  0  0
  153.6974  137.5340  160.5924 C   0  0  0  0  0  0  0  0  0  0  0  0
  153.6106  136.5198  164.3332 C   0  0  0  0  0  0  0  0  0  0  0  0
  154.5995  136.9725  165.2843 O   0  0  0  0  0  0  0  0  0  0  0  0
  155.6343  136.3193  164.5161 C   0  0  0  0  0  0  0  0  0  0  0  0
  154.2543  134.6186  165.7756 H   0  0  0  0  0  0  0  0  0  0  0  0
  155.3071  133.5075  163.5918 H   0  0  0  0  0  0  0  0  0  0  0  0
  153.5743  133.6747  163.3979 H   0  0  0  0  0  0  0  0  0  0  0  0
  155.7455  135.5114  161.7885 H   0  0  0  0  0  0  0  0  0  0  0  0
  154.0670  135.1111  161.5886 H   0  0  0  0  0  0  0  0  0  0  0  0
  155.4766  138.3225  163.1713 H   0  0  0  0  0  0  0  0  0  0  0  0
  152.1109  141.5938  161.2375 H   0  0  0  0  0  0  0  0  0  0  0  0
  153.8613  141.8376  161.0902 H   0  0  0  0  0  0  0  0  0  0  0  0
  153.5934  143.5638  159.4610 H   0  0  0  0  0  0  0  0  0  0  0  0
  151.1744  144.0402  161.2661 H   0  0  0  0  0  0  0  0  0  0  0  0
  152.8023  144.6035  161.5799 H   0  0  0  0  0  0  0  0  0  0  0  0
  151.3882  146.3914  160.4855 H   0  0  0  0  0  0  0  0  0  0  0  0
  152.8028  145.9836  159.5576 H   0  0  0  0  0  0  0  0  0  0  0  0
  150.9786  146.1551  157.9889 H   0  0  0  0  0  0  0  0  0  0  0  0
  149.0774  145.6539  158.5243 H   0  0  0  0  0  0  0  0  0  0  0  0
  150.7595  143.7902  157.0678 H   0  0  0  0  0  0  0  0  0  0  0  0
  152.4080  144.2895  157.3624 H   0  0  0  0  0  0  0  0  0  0  0  0
  150.7169  142.6110  159.2658 H   0  0  0  0  0  0  0  0  0  0  0  0
  153.0157  141.7698  157.4849 H   0  0  0  0  0  0  0  0  0  0  0  0
  151.4882  140.9381  157.8251 H   0  0  0  0  0  0  0  0  0  0  0  0
  151.8717  136.9239  158.0233 H   0  0  0  0  0  0  0  0  0  0  0  0
  153.2588  137.3348  163.6988 H   0  0  0  0  0  0  0  0  0  0  0  0
  152.7699  136.0148  164.8097 H   0  0  0  0  0  0  0  0  0  0  0  0
  156.2594  135.6646  165.1241 H   0  0  0  0  0  0  0  0  0  0  0  0
  156.2439  137.0422  163.9735 H   0  0  0  0  0  0  0  0  0  0  0  0
  1  2  1  0  0  0  0
  1 27  1  0  0  0  0
  2  3  1  0  0  0  0
  2 28  1  0  0  0  0
  2 29  1  0  0  0  0
  3 26  1  0  0  0  0
  3  4  1  0  0  0  0
  3 24  1  0  0  0  0
  4  5  1  0  0  0  0
  4 30  1  0  0  0  0
  4 31  1  0  0  0  0
  5 23  1  0  0  0  0
  5  6  1  0  0  0  0
  6  7  2  0  0  0  0
  6 32  1  0  0  0  0
  7  8  1  0  0  0  0
  8 23  2  0  0  0  0
  8  9  1  0  0  0  0
  9 10  1  0  0  0  0
  9 20  2  0  0  0  0
 10 19  1  0  0  0  0
 10 11  1  0  0  0  0
 11 12  1  0  0  0  0
 11 33  1  0  0  0  0
 11 34  1  0  0  0  0
 12 18  1  0  0  0  0
 12 13  1  0  0  0  0
 12 35  1  0  0  0  0
 13 14  1  0  0  0  0
 13 36  1  0  0  0  0
 13 37  1  0  0  0  0
 14 15  1  0  0  0  0
 14 38  1  0  0  0  0
 14 39  1  0  0  0  0
 15 16  1  0  0  0  0
 15 17  1  0  0  0  0
 15 40  1  0  0  0  0
 16 41  1  0  0  0  0
 17 18  1  0  0  0  0
 17 42  1  0  0  0  0
 17 43  1  0  0  0  0
 18 19  1  0  0  0  0
 18 44  1  0  0  0  0
 19 45  1  0  0  0  0
 19 46  1  0  0  0  0
 20 21  1  0  0  0  0
 21 22  2  0  0  0  0
 21 47  1  0  0  0  0
 22 23  1  0  0  0  0
 24 25  1  0  0  0  0
 24 48  1  0  0  0  0
 24 49  1  0  0  0  0
 25 26  1  0  0  0  0
 26 50  1  0  0  0  0
 26 51  1  0  0  0  0
M  END
> <s_m_source_file>
AV-unprocessed.smi

> <i_m_source_file_index>
86

> <i_lp_mmshare_version>
43012

> <i_f3d_flags>
0

> <s_epik_input>
W0NIMl0xT1tDSDJdQzEoW0NIMl1bT0hdKVtDSDJdbihbY0hdbjIpYyhjMjMpbltjSF1uYzNOKFtDSDJdNClbQ0gyXVtDQEBIXShbQ0BIXTQ1KVtDSDJdW0NASF0oW09IXSlbQ0gyXVtDSDJdNQ==

> <s_epik_cmdline>
J2VwaWtfcHl0aG9uJywgJy1waCcsICc3LjAnLCAnLXRuJywgJzgnLCAnLW1hJywgJzIwMCcsICctbWV0YWxfYmluZGluZycsICctaW1hZScsICc8aW5maWxlLm1hZT4nLCAnLW9tYWUnLCAnPG91dGZpbGUubWFlPic=

> <r_lp_tautomer_probability>
1

> <r_epik_Ionization_Penalty>
0.00425795

> <r_epik_Ionization_Penalty_Charging>
0

> <r_epik_Ionization_Penalty_Neutral>
0.00425795

> <r_epik_State_Penalty>
0.00299946

> <r_epik_Charging_Adjusted_Penalty>
0.00299946

> <i_epik_Tot_Q>
0

> <i_epik_Tot_abs_Q>
0

> <r_epik_Metal_State_Penalty>
-0

> <b_epik_Metal_Only>
0

> <s_lp_Force_Field>
OPLS_2005

> <r_lp_Energy>
55.6071

> <b_lp_Chiralities_Consistent>
1

> <s_lp_Variant>
AV-unprocessed.smi:86-3

> <Gold.Version>
5.8.1

> <Gold.Id.Protein>
6NUR|6NUR_protein|mol2

> <Gold.PLP.Fitness>
57.9836

> <Gold.PLP.PLP>
-53.1671

> <Gold.PLP.part.hbond>
-2.7734

> <Gold.PLP.part.metal>
0.0000

> <Gold.PLP.part.buried>
-7.7129

> <Gold.PLP.part.nonpolar>
-43.5463

> <Gold.PLP.part.repulsive>
1.8948

> <Gold.PLP.ligand.clash>
0.0037

> <Gold.PLP.ligand.torsion>
0.8285

> <Gold.PLP.Chemscore.Hbond>
2.0000

> <Gold.PLP.Chemscore.CHOScore>
0.0000

> <Gold.PLP.Chemscore.Metal>
0.0000

> <Gold.Chemscore.Hbonds>
donor molecule, donor type, donor heavy atom, donor atom, acceptor molecule, acceptor atom, score
      L1  H    16    41       P1  8029  1.00
      P1  H  6896  6909       L1    22  1.00

> <Gold.PLP.Chemscore.Internal.Correction>
0.4771

> <Gold.Rescore>
     Score         DG    S(hbond)    S(metal)    S(lipo)     H(rot)  DE(clash)    DE(int)     intcor
     17.93     -20.16       1.85        0.00     133.24       2.76       1.56       0.68       ----

> <Gold.Chemscore.Fitness>
17.9275

> <Gold.Chemscore.DG>
-20.1598

> <Gold.Chemscore.ZeroCoef>
-5.4800

> <Gold.Chemscore.Hbond>
1.8455

> <Gold.Chemscore.Metal>
0.0000

> <Gold.Chemscore.Lipo>
133.2422

> <Gold.Chemscore.Internal_Hbond>
0.0000

> <Gold.Chemscore.DEClash>
1.5552

> <Gold.Chemscore.DEInternal>
0.6771

> <Gold.Chemscore.Rot>
2.7630

> <Gold.Chemscore.Internal.Correction>
   9.000000E+99

> <Gold.Chemscore.Hbonds>
donor molecule, donor type, donor heavy atom, donor atom, acceptor molecule, acceptor atom, score
      L1  H    16    41       P1  8029  0.97
      P1  H  6896  6909       L1    22  0.82

> <Gold.Chemscore.Hbond.Weighted>
-6.1638

> <Gold.Chemscore.Metal.Weighted>
-0.0000

> <Gold.Chemscore.Lipo.Weighted>
-15.5893

> <Gold.Chemscore.Internal_Hbond.Weighted>
0.0000

> <Gold.Chemscore.DEClash.Weighted>
1.5552

> <Gold.Chemscore.DEInternal.Weighted>
0.6771

> <Gold.Chemscore.Rot.Weighted>
7.0734

> <Gold.Chemscore.Internal.Correction.Weighted>
   9.000000E+99

> <Gold.Protein.RotatedTorsions>
[ 6907 6896 6895 6894 ] final  160.15 input  -60.11 | X-H torsion
[ 7974 7965 7964 7962 ] final  -67.86 input  175.53 | X-H torsion
[ 8008 7997 7996 7995 ] final -117.46 input   59.86 | X-H torsion
[ 10167 10162 10161 10158 ] final  169.69 input  -65.29 | X-H torsion
[ 10718 10713 10712 10709 ] final -116.97 input   66.30 | X-H torsion
[ 10763 10752 10751 10750 ] final   -7.36 input  -60.55 | X-H torsion
[ 11005 11000 10999 10996 ] final   15.65 input  -57.11 | X-H torsion

> <Gold.Protein.ActiveResidues>
 VAL166  LYS551  ARG553  GLY616  TRP617  ASP618  TYR619  PRO620  LYS621  CYS622 
 ASP623  PHE694  ASN695  SER759  ASP760  ASP761  ALA762  ILE779  LEU786  VAL792 
 PHE793  MET794  SER795  GLU796  ALA797  LYS798  CYS799  TRP800  GLU811  SER814 

> <Gold.Protein.RotatedAtoms>
  151.9749  133.3738  159.4084 H   0  0  0  0  0  0  0  0  0  0  0  0  # atno 6907 bound_to 6896
  150.6943  134.4101  159.5167 H   0  0  0  0  0  0  0  0  0  0  0  0  # atno 6908 bound_to 6896
  152.1811  134.8753  160.0577 H   0  0  0  0  0  0  0  0  0  0  0  0  # atno 6909 bound_to 6896
  145.7239  140.9027  143.0616 H   0  0  0  0  0  0  0  0  0  0  0  0  # atno 7974 bound_to 7965
  155.0841  140.0394  157.2648 H   0  0  0  0  0  0  0  0  0  0  0  0  # atno 8008 bound_to 7997
  154.6883  140.2648  155.6813 H   0  0  0  0  0  0  0  0  0  0  0  0  # atno 8009 bound_to 7997
  156.2720  140.2764  156.1452 H   0  0  0  0  0  0  0  0  0  0  0  0  # atno 8010 bound_to 7997
  139.4999  144.3679  151.9756 H   0  0  0  0  0  0  0  0  0  0  0  0  # atno 10167 bound_to 10162
  156.1000  130.6164  150.9104 H   0  0  0  0  0  0  0  0  0  0  0  0  # atno 10718 bound_to 10713
  153.4253  135.7011  153.6266 H   0  0  0  0  0  0  0  0  0  0  0  0  # atno 10763 bound_to 10752
  153.4704  135.3716  155.2388 H   0  0  0  0  0  0  0  0  0  0  0  0  # atno 10764 bound_to 10752
  154.8723  135.4041  154.3628 H   0  0  0  0  0  0  0  0  0  0  0  0  # atno 10765 bound_to 10752
  140.4559  134.1176  155.7709 H   0  0  0  0  0  0  0  0  0  0  0  0  # atno 11005 bound_to 11000
  144.6910  139.9239  143.7469 LP  0  0  0  0  0  0  0  0  0  0  0  0  # atno 17320 bound_to 7965
  146.0600  139.3595  143.0587 LP  0  0  0  0  0  0  0  0  0  0  0  0  # atno 17321 bound_to 7965
  140.3115  144.3533  150.6033 LP  0  0  0  0  0  0  0  0  0  0  0  0  # atno 17342 bound_to 10162
  140.5795  143.2174  151.7454 LP  0  0  0  0  0  0  0  0  0  0  0  0  # atno 17343 bound_to 10162
  157.6169  131.0932  150.8694 LP  0  0  0  0  0  0  0  0  0  0  0  0  # atno 17370 bound_to 10713
  156.8824  130.5184  149.5290 LP  0  0  0  0  0  0  0  0  0  0  0  0  # atno 17371 bound_to 10713
  141.1643  133.8733  157.1760 LP  0  0  0  0  0  0  0  0  0  0  0  0  # atno 17394 bound_to 11000
  139.9976  135.0040  157.0118 LP  0  0  0  0  0  0  0  0  0  0  0  0  # atno 17395 bound_to 11000

$$$$
