AV-unprocessed.smi:3234|AV-procd|sdf|12358|dock2
  -GOLD-   2272018223D 1   1.00000     0.00000
 Structure written by MMmdl.
 37 39  0  0  0  0  0  0  0  0  4 V2000
  152.4393  140.0320  156.0821 O   0  0  0  0  0  0  0  0  0  0  0  0
  151.3709  140.6279  155.9017 C   0  0  0  0  0  0  0  0  0  0  0  0
  150.9838  141.5976  156.7493 N   0  0  0  0  0  0  0  0  0  0  0  0
  151.6265  142.0541  157.9311 C   0  0  0  0  0  0  0  0  0  0  0  0
  151.4435  143.4042  158.3027 C   0  0  0  0  0  0  0  0  0  0  0  0
  152.0477  143.8874  159.4810 C   0  0  0  0  0  0  0  0  0  0  0  0
  152.7825  143.0554  160.2502 N   0  3  0  0  0  0  0  0  0  0  0  0
  152.9691  141.7530  159.9456 C   0  0  0  0  0  0  0  0  0  0  0  0
  152.3900  141.2133  158.7795 C   0  0  0  0  0  0  0  0  0  0  0  0
  150.4794  140.4416  154.8908 N   0  5  0  0  0  0  0  0  0  0  0  0
  149.9789  139.1380  154.4501 C   0  0  2  0  0  0  0  0  0  0  0  0
  149.1756  138.4399  155.5485 C   0  0  0  0  0  0  0  0  0  0  0  0
  149.3267  136.9427  155.2383 C   0  0  0  0  0  0  0  0  0  0  0  0
  150.4558  136.8169  154.2870 N   0  3  2  0  0  0  0  0  0  0  0  0
  151.3824  135.7023  154.5793 C   0  0  0  0  0  0  0  0  0  0  0  0
  150.6818  134.4213  154.9645 C   0  0  0  0  0  0  0  0  0  0  0  0
  151.3600  135.2634  156.0235 C   0  0  0  0  0  0  0  0  0  0  0  0
  151.1073  138.1376  154.1960 C   0  0  0  0  0  0  0  0  0  0  0  0
  150.1609  142.1123  156.4712 H   0  0  0  0  0  0  0  0  0  0  0  0
  150.8527  144.0674  157.6872 H   0  0  0  0  0  0  0  0  0  0  0  0
  151.9635  144.9062  159.8299 H   0  0  0  0  0  0  0  0  0  0  0  0
  153.5658  141.1827  160.6421 H   0  0  0  0  0  0  0  0  0  0  0  0
  152.5287  140.1654  158.5598 H   0  0  0  0  0  0  0  0  0  0  0  0
  149.3582  139.2069  153.5550 H   0  0  0  0  0  0  0  0  0  0  0  0
  149.6068  138.6466  156.5298 H   0  0  0  0  0  0  0  0  0  0  0  0
  148.1337  138.7602  155.5719 H   0  0  0  0  0  0  0  0  0  0  0  0
  149.5042  136.3788  156.1557 H   0  0  0  0  0  0  0  0  0  0  0  0
  148.4265  136.5368  154.7741 H   0  0  0  0  0  0  0  0  0  0  0  0
  152.3069  135.6752  154.0049 H   0  0  0  0  0  0  0  0  0  0  0  0
  149.5932  134.4066  154.9541 H   0  0  0  0  0  0  0  0  0  0  0  0
  151.1617  133.4846  154.6888 H   0  0  0  0  0  0  0  0  0  0  0  0
  152.2869  134.8811  156.4464 H   0  0  0  0  0  0  0  0  0  0  0  0
  150.7219  135.8078  156.7175 H   0  0  0  0  0  0  0  0  0  0  0  0
  151.5864  138.2807  153.2268 H   0  0  0  0  0  0  0  0  0  0  0  0
  151.8740  138.2195  154.9692 H   0  0  0  0  0  0  0  0  0  0  0  0
  150.0435  136.6461  153.3812 H   0  0  0  0  0  0  0  0  0  0  0  0
  153.2098  143.4247  161.0999 H   0  0  0  0  0  0  0  0  0  0  0  0
  1  2  2  0  0  0  0
  2  3  1  0  0  0  0
  2 10  1  0  0  0  0
  3  4  1  0  0  0  0
  3 19  1  0  0  0  0
  4  9  1  0  0  0  0
  4  5  2  0  0  0  0
  5  6  1  0  0  0  0
  5 20  1  0  0  0  0
  6  7  2  0  0  0  0
  6 21  1  0  0  0  0
  7  8  1  0  0  0  0
  7 37  1  0  0  0  0
  8  9  2  0  0  0  0
  8 22  1  0  0  0  0
  9 23  1  0  0  0  0
 10 11  1  0  0  0  0
 11 18  1  0  0  0  0
 11 12  1  0  0  0  0
 11 24  1  0  0  0  0
 12 13  1  0  0  0  0
 12 25  1  0  0  0  0
 12 26  1  0  0  0  0
 13 14  1  0  0  0  0
 13 27  1  0  0  0  0
 13 28  1  0  0  0  0
 14 15  1  0  0  0  0
 14 18  1  0  0  0  0
 14 36  1  0  0  0  0
 15 17  1  0  0  0  0
 15 16  1  0  0  0  0
 15 29  1  0  0  0  0
 16 17  1  0  0  0  0
 16 30  1  0  0  0  0
 16 31  1  0  0  0  0
 17 32  1  0  0  0  0
 17 33  1  0  0  0  0
 18 34  1  0  0  0  0
 18 35  1  0  0  0  0
M  CHG  1   7   1
M  CHG  1  10  -1
M  CHG  1  14   1
M  END
> <s_m_source_file>
AV-unprocessed.smi

> <i_m_source_file_index>
3234

> <i_lp_mmshare_version>
43012

> <i_f3d_flags>
0

> <s_epik_input>
W2NIXTFbY0hdbltjSF1bY0hdYzFbTkhdQyg9TylbTkhdW0NAQEhdMltDSDJdW0NIMl1OKFtDSDJdMilbQ0hdM1tDSDJdW0NIMl0z

> <s_epik_cmdline>
J2VwaWtfcHl0aG9uJywgJy1waCcsICc3LjAnLCAnLXRuJywgJzgnLCAnLW1hJywgJzIwMCcsICctbWV0YWxfYmluZGluZycsICctaW1hZScsICc8aW5maWxlLm1hZT4nLCAnLW9tYWUnLCAnPG91dGZpbGUubWFlPic=

> <r_epik_Ionization_Penalty>
8.3234

> <r_epik_Ionization_Penalty_Charging>
8.3234

> <r_epik_Ionization_Penalty_Neutral>
3.58513e-06

> <r_epik_State_Penalty>
7.99376

> <r_epik_Charging_Adjusted_Penalty>
16.3172

> <i_epik_Tot_Q>
1

> <i_epik_Tot_abs_Q>
3

> <r_epik_Metal_State_Penalty>
3.98956

> <b_epik_Metal_Only>
1

> <s_lp_Force_Field>
OPLS_2005

> <r_lp_Energy>
39.7431

> <b_lp_Chiralities_Consistent>
1

> <s_lp_Variant>
AV-unprocessed.smi:3234-11

> <Gold.Version>
5.8.1

> <Gold.Id.Protein>
6NUR|6NUR_protein|mol2

> <Gold.PLP.Fitness>
44.9250

> <Gold.PLP.PLP>
-34.2868

> <Gold.PLP.part.hbond>
-3.0904

> <Gold.PLP.part.metal>
0.0000

> <Gold.PLP.part.buried>
-4.5337

> <Gold.PLP.part.nonpolar>
-26.4267

> <Gold.PLP.part.repulsive>
0.2725

> <Gold.PLP.ligand.clash>
0.0000

> <Gold.PLP.ligand.torsion>
1.3121

> <Gold.PLP.Chemscore.Hbond>
3.9913

> <Gold.PLP.Chemscore.CHOScore>
0.0000

> <Gold.PLP.Chemscore.Metal>
0.0000

> <Gold.Chemscore.Hbonds>
donor molecule, donor type, donor heavy atom, donor atom, acceptor molecule, acceptor atom, score
      L1  H    14    36       P1  7948  1.50
      P1  H  7989  7998       L1    10  0.85
      P1  H  7997  8009       L1     1  1.00

> <Gold.PLP.Chemscore.Internal.Correction>
1.2887

> <Gold.Rescore>
     Score         DG    S(hbond)    S(metal)    S(lipo)     H(rot)  DE(clash)    DE(int)     intcor
     16.18     -19.90       2.37        0.00      81.98       1.21       0.07       3.65       ----

> <Gold.Chemscore.Fitness>
16.1831

> <Gold.Chemscore.DG>
-19.8989

> <Gold.Chemscore.ZeroCoef>
-5.4800

> <Gold.Chemscore.Hbond>
2.3734

> <Gold.Chemscore.Metal>
0.0000

> <Gold.Chemscore.Lipo>
81.9757

> <Gold.Chemscore.Internal_Hbond>
0.0000

> <Gold.Chemscore.DEClash>
0.0694

> <Gold.Chemscore.DEInternal>
3.6464

> <Gold.Chemscore.Rot>
1.2108

> <Gold.Chemscore.Internal.Correction>
   9.000000E+99

> <Gold.Chemscore.Hbonds>
donor molecule, donor type, donor heavy atom, donor atom, acceptor molecule, acceptor atom, score
      L1  H    14    36       P1  7948  0.09
      P1  H  7989  7998       L1    10  0.04
      P1  H  7997  8009       L1     1  0.99

> <Gold.Chemscore.Hbond.Weighted>
-7.9273

> <Gold.Chemscore.Metal.Weighted>
-0.0000

> <Gold.Chemscore.Lipo.Weighted>
-9.5912

> <Gold.Chemscore.Internal_Hbond.Weighted>
0.0000

> <Gold.Chemscore.DEClash.Weighted>
0.0694

> <Gold.Chemscore.DEInternal.Weighted>
3.6464

> <Gold.Chemscore.Rot.Weighted>
3.0996

> <Gold.Chemscore.Internal.Correction.Weighted>
   9.000000E+99

> <Gold.Protein.RotatedTorsions>
[ 6907 6896 6895 6894 ] final  -95.69 input  -60.11 | X-H torsion
[ 7974 7965 7964 7962 ] final  -32.37 input  175.53 | X-H torsion
[ 8008 7997 7996 7995 ] final -166.85 input   59.86 | X-H torsion
[ 10167 10162 10161 10158 ] final  130.29 input  -65.29 | X-H torsion
[ 10718 10713 10712 10709 ] final   23.08 input   66.30 | X-H torsion
[ 10763 10752 10751 10750 ] final   25.83 input  -60.55 | X-H torsion
[ 11005 11000 10999 10996 ] final -131.31 input  -57.11 | X-H torsion

> <Gold.Protein.ActiveResidues>
 VAL166  LYS551  ARG553  GLY616  TRP617  ASP618  TYR619  PRO620  LYS621  CYS622 
 ASP623  PHE694  ASN695  SER759  ASP760  ASP761  ALA762  ILE779  LEU786  VAL792 
 PHE793  MET794  SER795  GLU796  ALA797  LYS798  CYS799  TRP800  GLU811  SER814 

> <Gold.Protein.RotatedAtoms>
  150.6970  134.1618  159.4178 H   0  0  0  0  0  0  0  0  0  0  0  0  # atno 6907 bound_to 6896
  151.9598  135.0127  160.0556 H   0  0  0  0  0  0  0  0  0  0  0  0  # atno 6908 bound_to 6896
  152.1937  133.4756  159.5058 H   0  0  0  0  0  0  0  0  0  0  0  0  # atno 6909 bound_to 6896
  146.0995  140.5784  142.8827 H   0  0  0  0  0  0  0  0  0  0  0  0  # atno 7974 bound_to 7965
  155.8696  140.0991  157.1559 H   0  0  0  0  0  0  0  0  0  0  0  0  # atno 8008 bound_to 7997
  154.3996  140.1349  156.4124 H   0  0  0  0  0  0  0  0  0  0  0  0  # atno 8009 bound_to 7997
  155.7766  140.3459  155.5277 H   0  0  0  0  0  0  0  0  0  0  0  0  # atno 8010 bound_to 7997
  139.5437  144.6754  151.4542 H   0  0  0  0  0  0  0  0  0  0  0  0  # atno 10167 bound_to 10162
  157.1611  130.6717  149.6044 H   0  0  0  0  0  0  0  0  0  0  0  0  # atno 10718 bound_to 10713
  153.0664  135.6574  154.0345 H   0  0  0  0  0  0  0  0  0  0  0  0  # atno 10763 bound_to 10752
  154.0001  135.2938  155.3405 H   0  0  0  0  0  0  0  0  0  0  0  0  # atno 10764 bound_to 10752
  154.7023  135.5239  153.8614 H   0  0  0  0  0  0  0  0  0  0  0  0  # atno 10765 bound_to 10752
  140.9270  134.1370  157.4267 H   0  0  0  0  0  0  0  0  0  0  0  0  # atno 11005 bound_to 11000
  144.7421  140.4971  143.6862 LP  0  0  0  0  0  0  0  0  0  0  0  0  # atno 17320 bound_to 7965
  145.5883  139.1493  143.3197 LP  0  0  0  0  0  0  0  0  0  0  0  0  # atno 17321 bound_to 7965
  140.6677  143.8362  150.6961 LP  0  0  0  0  0  0  0  0  0  0  0  0  # atno 17342 bound_to 10162
  140.1776  143.4141  152.1956 LP  0  0  0  0  0  0  0  0  0  0  0  0  # atno 17343 bound_to 10162
  155.9753  130.4711  150.6453 LP  0  0  0  0  0  0  0  0  0  0  0  0  # atno 17370 bound_to 10713
  157.4131  131.0826  151.1202 LP  0  0  0  0  0  0  0  0  0  0  0  0  # atno 17371 bound_to 10713
  139.8787  134.9992  156.5940 LP  0  0  0  0  0  0  0  0  0  0  0  0  # atno 17394 bound_to 11000
  140.7913  133.8580  155.8648 LP  0  0  0  0  0  0  0  0  0  0  0  0  # atno 17395 bound_to 11000

$$$$
