AV-unprocessed.smi:3031|AV-procd|sdf|11553|dock9
  -GOLD-   2272016513D 1   1.00000     0.00000
 Structure written by MMmdl.
 46 47  0  0  0  0  0  0  0  0  1 V2000
  147.2840  141.3994  153.4528 C   0  0  0  0  0  0  0  0  0  0  0  0
  148.5617  140.7392  153.8835 C   0  0  0  0  0  0  0  0  0  0  0  0
  149.6702  141.3352  154.5491 C   0  0  0  0  0  0  0  0  0  0  0  0
  150.6469  140.4767  154.7923 N   0  0  0  0  0  0  0  0  0  0  0  0
  150.1972  139.3051  154.2953 N   0  0  0  0  0  0  0  0  0  0  0  0
  151.0227  138.1141  154.3921 C   0  0  0  0  0  0  0  0  0  0  0  0
  151.4296  137.7931  155.8441 C   0  0  2  0  0  0  0  0  0  0  0  0
  150.2315  137.2307  156.6304 C   0  0  0  0  0  0  0  0  0  0  0  0
  151.9882  138.9888  156.4853 N   0  0  0  0  0  0  0  0  0  0  0  0
  152.7375  138.7507  157.7187 C   0  0  0  0  0  0  0  0  0  0  0  0
  152.2354  139.6488  158.8620 C   0  0  2  0  0  0  0  0  0  0  0  0
  150.9145  139.2777  159.1955 O   0  0  0  0  0  0  0  0  0  0  0  0
  152.2804  141.1816  158.6455 C   0  0  0  0  0  0  0  0  0  0  0  0
  151.9074  142.0290  159.7851 N   0  0  0  0  0  0  0  0  0  0  0  0
  151.8847  143.4537  159.4496 C   0  0  0  0  0  0  0  0  0  0  0  0
  151.5192  144.3269  160.6622 C   0  0  0  0  0  0  0  0  0  0  0  0
  152.4378  144.0823  161.7212 O   0  0  0  0  0  0  0  0  0  0  0  0
  152.4714  142.7137  162.1104 C   0  0  0  0  0  0  0  0  0  0  0  0
  152.8371  141.8424  160.8961 C   0  0  0  0  0  0  0  0  0  0  0  0
  148.9432  139.4354  153.7374 C   0  0  0  0  0  0  0  0  0  0  0  0
  146.6941  141.7277  154.3086 H   0  0  0  0  0  0  0  0  0  0  0  0
  146.6554  140.7270  152.8684 H   0  0  0  0  0  0  0  0  0  0  0  0
  147.4738  142.2780  152.8361 H   0  0  0  0  0  0  0  0  0  0  0  0
  149.7925  142.3617  154.8617 H   0  0  0  0  0  0  0  0  0  0  0  0
  150.4813  137.2754  153.9516 H   0  0  0  0  0  0  0  0  0  0  0  0
  151.9097  138.2688  153.7761 H   0  0  0  0  0  0  0  0  0  0  0  0
  152.1972  137.0188  155.8096 H   0  0  0  0  0  0  0  0  0  0  0  0
  149.7925  136.3786  156.1107 H   0  0  0  0  0  0  0  0  0  0  0  0
  149.4493  137.9806  156.7524 H   0  0  0  0  0  0  0  0  0  0  0  0
  150.5198  136.8796  157.6208 H   0  0  0  0  0  0  0  0  0  0  0  0
  152.5812  139.4776  155.8220 H   0  0  0  0  0  0  0  0  0  0  0  0
  152.6988  137.7052  158.0174 H   0  0  0  0  0  0  0  0  0  0  0  0
  153.7919  138.9691  157.5439 H   0  0  0  0  0  0  0  0  0  0  0  0
  152.8423  139.4283  159.7412 H   0  0  0  0  0  0  0  0  0  0  0  0
  150.6957  139.6765  160.0240 H   0  0  0  0  0  0  0  0  0  0  0  0
  153.3079  141.4120  158.3589 H   0  0  0  0  0  0  0  0  0  0  0  0
  151.6819  141.4518  157.7743 H   0  0  0  0  0  0  0  0  0  0  0  0
  152.8609  143.7604  159.0709 H   0  0  0  0  0  0  0  0  0  0  0  0
  151.1726  143.6591  158.6570 H   0  0  0  0  0  0  0  0  0  0  0  0
  151.5577  145.3826  160.3940 H   0  0  0  0  0  0  0  0  0  0  0  0
  150.5019  144.1175  160.9965 H   0  0  0  0  0  0  0  0  0  0  0  0
  153.2075  142.5866  162.9043 H   0  0  0  0  0  0  0  0  0  0  0  0
  151.5034  142.4200  162.5193 H   0  0  0  0  0  0  0  0  0  0  0  0
  152.8437  140.7953  161.2010 H   0  0  0  0  0  0  0  0  0  0  0  0
  153.8523  142.0796  160.5737 H   0  0  0  0  0  0  0  0  0  0  0  0
  148.4293  138.5967  153.2910 H   0  0  0  0  0  0  0  0  0  0  0  0
  1  2  1  0  0  0  0
  1 21  1  0  0  0  0
  1 22  1  0  0  0  0
  1 23  1  0  0  0  0
  2 20  2  0  0  0  0
  2  3  1  0  0  0  0
  3  4  2  0  0  0  0
  3 24  1  0  0  0  0
  4  5  1  0  0  0  0
  5  6  1  0  0  0  0
  5 20  1  0  0  0  0
  6  7  1  0  0  0  0
  6 25  1  0  0  0  0
  6 26  1  0  0  0  0
  7  8  1  0  0  0  0
  7  9  1  0  0  0  0
  7 27  1  0  0  0  0
  8 28  1  0  0  0  0
  8 29  1  0  0  0  0
  8 30  1  0  0  0  0
  9 10  1  0  0  0  0
  9 31  1  0  0  0  0
 10 11  1  0  0  0  0
 10 32  1  0  0  0  0
 10 33  1  0  0  0  0
 11 12  1  0  0  0  0
 11 13  1  0  0  0  0
 11 34  1  0  0  0  0
 12 35  1  0  0  0  0
 13 14  1  0  0  0  0
 13 36  1  0  0  0  0
 13 37  1  0  0  0  0
 14 19  1  0  0  0  0
 14 15  1  0  0  0  0
 15 16  1  0  0  0  0
 15 38  1  0  0  0  0
 15 39  1  0  0  0  0
 16 17  1  0  0  0  0
 16 40  1  0  0  0  0
 16 41  1  0  0  0  0
 17 18  1  0  0  0  0
 18 19  1  0  0  0  0
 18 42  1  0  0  0  0
 18 43  1  0  0  0  0
 19 44  1  0  0  0  0
 19 45  1  0  0  0  0
 20 46  1  0  0  0  0
M  END
> <s_m_source_file>
AV-unprocessed.smi

> <i_m_source_file_index>
3031

> <i_lp_mmshare_version>
43012

> <i_f3d_flags>
0

> <s_epik_input>
W0NIM11jMVtjSF1ubihbY0hdMSlbQ0gyXVtDQEhdKFtDSDNdKVtOSF1bQ0gyXVtDQEhdKFtPSF0pW0NIMl1OMltDSDJdW0NIMl1PW0NIMl1bQ0gyXTI=

> <s_epik_cmdline>
J2VwaWtfcHl0aG9uJywgJy1waCcsICc3LjAnLCAnLXRuJywgJzgnLCAnLW1hJywgJzIwMCcsICctbWV0YWxfYmluZGluZycsICctaW1hZScsICc8aW5maWxlLm1hZT4nLCAnLW9tYWUnLCAnPG91dGZpbGUubWFlPic=

> <r_lp_tautomer_probability>
1

> <r_epik_Ionization_Penalty>
2.8101

> <r_epik_Ionization_Penalty_Charging>
0

> <r_epik_Ionization_Penalty_Neutral>
2.8101

> <r_epik_State_Penalty>
2.12351

> <r_epik_Charging_Adjusted_Penalty>
2.12351

> <i_epik_Tot_Q>
0

> <i_epik_Tot_abs_Q>
0

> <r_epik_Metal_State_Penalty>
2.12345

> <b_epik_Metal_Only>
0

> <s_lp_Force_Field>
OPLS_2005

> <r_lp_Energy>
35.4854

> <b_lp_Chiralities_Consistent>
1

> <s_lp_Variant>
AV-unprocessed.smi:3031-13

> <Gold.Version>
5.8.1

> <Gold.Id.Protein>
6NUR|6NUR_protein|mol2

> <Gold.PLP.Fitness>
43.3492

> <Gold.PLP.PLP>
-37.7710

> <Gold.PLP.part.hbond>
-1.4293

> <Gold.PLP.part.metal>
0.0000

> <Gold.PLP.part.buried>
-2.4473

> <Gold.PLP.part.nonpolar>
-34.5057

> <Gold.PLP.part.repulsive>
0.2489

> <Gold.PLP.ligand.clash>
0.0000

> <Gold.PLP.ligand.torsion>
0.5663

> <Gold.PLP.Chemscore.Hbond>
0.9000

> <Gold.PLP.Chemscore.CHOScore>
1.2950

> <Gold.PLP.Chemscore.Metal>
0.0000

> <Gold.Chemscore.Hbonds>
donor molecule, donor type, donor heavy atom, donor atom, acceptor molecule, acceptor atom, score
      P1  H  7989  7998       L1     4  0.72
      L1  C     3    24       P1  8028  0.73
      L1  C    20    46       P1  7948  0.35

> <Gold.PLP.Chemscore.Internal.Correction>
0.1257

> <Gold.Rescore>
     Score         DG    S(hbond)    S(metal)    S(lipo)     H(rot)  DE(clash)    DE(int)     intcor
     11.75     -12.46       0.26        0.00     107.80       2.53       0.13       0.58       ----

> <Gold.Chemscore.Fitness>
11.7468

> <Gold.Chemscore.DG>
-12.4638

> <Gold.Chemscore.ZeroCoef>
-5.4800

> <Gold.Chemscore.Hbond>
0.2563

> <Gold.Chemscore.Metal>
0.0000

> <Gold.Chemscore.Lipo>
107.8036

> <Gold.Chemscore.Internal_Hbond>
0.0000

> <Gold.Chemscore.DEClash>
0.1335

> <Gold.Chemscore.DEInternal>
0.5835

> <Gold.Chemscore.Rot>
2.5333

> <Gold.Chemscore.Internal.Correction>
   9.000000E+99

> <Gold.Chemscore.Hbonds>
donor molecule, donor type, donor heavy atom, donor atom, acceptor molecule, acceptor atom, score
      P1  H  7989  7998       L1     4  0.02

> <Gold.Chemscore.Hbond.Weighted>
-0.8559

> <Gold.Chemscore.Metal.Weighted>
-0.0000

> <Gold.Chemscore.Lipo.Weighted>
-12.6130

> <Gold.Chemscore.Internal_Hbond.Weighted>
0.0000

> <Gold.Chemscore.DEClash.Weighted>
0.1335

> <Gold.Chemscore.DEInternal.Weighted>
0.5835

> <Gold.Chemscore.Rot.Weighted>
6.4852

> <Gold.Chemscore.Internal.Correction.Weighted>
   9.000000E+99

> <Gold.Protein.RotatedTorsions>
[ 6907 6896 6895 6894 ] final  -78.84 input  -60.11 | X-H torsion
[ 7974 7965 7964 7962 ] final  104.23 input  175.53 | X-H torsion
[ 8008 7997 7996 7995 ] final -163.54 input   59.86 | X-H torsion
[ 10167 10162 10161 10158 ] final -133.14 input  -65.29 | X-H torsion
[ 10718 10713 10712 10709 ] final  -57.16 input   66.30 | X-H torsion
[ 10763 10752 10751 10750 ] final   -2.42 input  -60.55 | X-H torsion
[ 11005 11000 10999 10996 ] final  112.94 input  -57.11 | X-H torsion

> <Gold.Protein.ActiveResidues>
 VAL166  LYS551  ARG553  GLY616  TRP617  ASP618  TYR619  PRO620  LYS621  CYS622 
 ASP623  PHE694  ASN695  SER759  ASP760  ASP761  ALA762  ILE779  LEU786  VAL792 
 PHE793  MET794  SER795  GLU796  ALA797  LYS798  CYS799  TRP800  GLU811  SER814 

> <Gold.Protein.RotatedAtoms>
  150.6963  134.4211  159.5205 H   0  0  0  0  0  0  0  0  0  0  0  0  # atno 6907 bound_to 6896
  152.1954  134.8632  160.0522 H   0  0  0  0  0  0  0  0  0  0  0  0  # atno 6908 bound_to 6896
  151.9572  133.3649  159.4059 H   0  0  0  0  0  0  0  0  0  0  0  0  # atno 6909 bound_to 6896
  145.3355  139.2475  143.3637 H   0  0  0  0  0  0  0  0  0  0  0  0  # atno 7974 bound_to 7965
  155.8228  140.0922  157.1839 H   0  0  0  0  0  0  0  0  0  0  0  0  # atno 8008 bound_to 7997
  154.3979  140.1433  156.3580 H   0  0  0  0  0  0  0  0  0  0  0  0  # atno 8009 bound_to 7997
  155.8248  140.3445  155.5539 H   0  0  0  0  0  0  0  0  0  0  0  0  # atno 8010 bound_to 7997
  139.9014  143.6603  152.2594 H   0  0  0  0  0  0  0  0  0  0  0  0  # atno 10167 bound_to 10162
  156.1232  130.4164  150.0403 H   0  0  0  0  0  0  0  0  0  0  0  0  # atno 10718 bound_to 10713
  153.3578  135.6989  153.6736 H   0  0  0  0  0  0  0  0  0  0  0  0  # atno 10763 bound_to 10752
  153.5437  135.3567  155.2730 H   0  0  0  0  0  0  0  0  0  0  0  0  # atno 10764 bound_to 10752
  154.8663  135.4210  154.2828 H   0  0  0  0  0  0  0  0  0  0  0  0  # atno 10765 bound_to 10752
  139.8940  134.9540  156.6663 H   0  0  0  0  0  0  0  0  0  0  0  0  # atno 11005 bound_to 11000
  146.3028  140.3942  142.8698 LP  0  0  0  0  0  0  0  0  0  0  0  0  # atno 17320 bound_to 7965
  144.8831  140.7426  143.5974 LP  0  0  0  0  0  0  0  0  0  0  0  0  # atno 17321 bound_to 7965
  139.7022  144.7633  151.1253 LP  0  0  0  0  0  0  0  0  0  0  0  0  # atno 17342 bound_to 10162
  140.7706  143.5442  150.9278 LP  0  0  0  0  0  0  0  0  0  0  0  0  # atno 17343 bound_to 10162
  156.8336  130.9401  151.3636 LP  0  0  0  0  0  0  0  0  0  0  0  0  # atno 17370 bound_to 10713
  157.6415  130.8809  149.9457 LP  0  0  0  0  0  0  0  0  0  0  0  0  # atno 17371 bound_to 10713
  140.7408  133.8980  155.8276 LP  0  0  0  0  0  0  0  0  0  0  0  0  # atno 17394 bound_to 11000
  141.0079  134.1060  157.4251 LP  0  0  0  0  0  0  0  0  0  0  0  0  # atno 17395 bound_to 11000

$$$$
