AV-unprocessed.smi:2140|AV-procd|sdf|8717|dock3
  -GOLD-   2272011483D 1   1.00000     0.00000
 Structure written by MMmdl.
 40 41  0  0  0  0  0  0  0  0  2 V2000
  149.9635  135.6398  156.9013 C   0  0  0  0  0  0  0  0  0  0  0  0
  149.6260  135.6110  155.3906 C   0  0  1  0  0  0  0  0  0  0  0  0
  148.1422  135.2025  155.1843 C   0  0  0  0  0  0  0  0  0  0  0  0
  147.8034  134.9577  153.7849 N   0  0  0  0  0  0  0  0  0  0  0  0
  146.8385  134.1262  153.3667 C   0  0  0  0  0  0  0  0  0  0  0  0
  146.1373  133.4662  154.1334 O   0  0  0  0  0  0  0  0  0  0  0  0
  146.7591  134.1059  152.0254 N   0  0  0  0  0  0  0  0  0  0  0  0
  145.8467  133.3900  151.2037 C   0  0  0  0  0  0  0  0  0  0  0  0
  146.2029  132.7298  150.0023 C   0  0  0  0  0  0  0  0  0  0  0  0
  145.2080  132.0350  149.2880 C   0  0  0  0  0  0  0  0  0  0  0  0
  143.8971  132.0193  149.8023 C   0  0  0  0  0  0  0  0  0  0  0  0
  143.5463  132.6326  150.9521 N   0  0  0  0  0  0  0  0  0  0  0  0
  144.5055  133.2961  151.6322 C   0  0  0  0  0  0  0  0  0  0  0  0
  149.9132  136.9055  154.6891 N   0  3  0  0  0  0  0  0  0  0  0  0
  149.1550  138.0876  155.1859 C   0  0  0  0  0  0  0  0  0  0  0  0
  149.5067  139.3522  154.3829 C   0  0  0  0  0  0  0  0  0  0  0  0
  150.9056  139.5871  154.4370 O   0  0  0  0  0  0  0  0  0  0  0  0
  151.6356  138.5134  153.8627 C   0  0  0  0  0  0  0  0  0  0  0  0
  151.3667  137.2271  154.6604 C   0  0  0  0  0  0  0  0  0  0  0  0
  149.7181  134.6963  157.3887 H   0  0  0  0  0  0  0  0  0  0  0  0
  149.4123  136.4260  157.4180 H   0  0  0  0  0  0  0  0  0  0  0  0
  151.0278  135.7922  157.0800 H   0  0  0  0  0  0  0  0  0  0  0  0
  150.2678  134.8506  154.9427 H   0  0  0  0  0  0  0  0  0  0  0  0
  147.9316  134.2898  155.7428 H   0  0  0  0  0  0  0  0  0  0  0  0
  147.4525  135.9533  155.5672 H   0  0  0  0  0  0  0  0  0  0  0  0
  148.3391  135.4570  153.0895 H   0  0  0  0  0  0  0  0  0  0  0  0
  147.4630  134.6329  151.5293 H   0  0  0  0  0  0  0  0  0  0  0  0
  147.2130  132.7285  149.6236 H   0  0  0  0  0  0  0  0  0  0  0  0
  145.4459  131.5214  148.3682 H   0  0  0  0  0  0  0  0  0  0  0  0
  143.1112  131.4948  149.2793 H   0  0  0  0  0  0  0  0  0  0  0  0
  144.1892  133.7721  152.5490 H   0  0  0  0  0  0  0  0  0  0  0  0
  148.0813  137.9300  155.0897 H   0  0  0  0  0  0  0  0  0  0  0  0
  149.3713  138.2441  156.2439 H   0  0  0  0  0  0  0  0  0  0  0  0
  149.1811  139.2577  153.3455 H   0  0  0  0  0  0  0  0  0  0  0  0
  148.9888  140.2164  154.7995 H   0  0  0  0  0  0  0  0  0  0  0  0
  151.3647  138.3878  152.8130 H   0  0  0  0  0  0  0  0  0  0  0  0
  152.6981  138.7559  153.8904 H   0  0  0  0  0  0  0  0  0  0  0  0
  151.7335  137.3452  155.6814 H   0  0  0  0  0  0  0  0  0  0  0  0
  151.9422  136.4193  154.2125 H   0  0  0  0  0  0  0  0  0  0  0  0
  149.6216  136.7775  153.7304 H   0  0  0  0  0  0  0  0  0  0  0  0
  1  2  1  0  0  0  0
  1 20  1  0  0  0  0
  1 21  1  0  0  0  0
  1 22  1  0  0  0  0
  2  3  1  0  0  0  0
  2 14  1  0  0  0  0
  2 23  1  0  0  0  0
  3  4  1  0  0  0  0
  3 24  1  0  0  0  0
  3 25  1  0  0  0  0
  4  5  1  0  0  0  0
  4 26  1  0  0  0  0
  5  6  2  0  0  0  0
  5  7  1  0  0  0  0
  7  8  1  0  0  0  0
  7 27  1  0  0  0  0
  8 13  1  0  0  0  0
  8  9  2  0  0  0  0
  9 10  1  0  0  0  0
  9 28  1  0  0  0  0
 10 11  2  0  0  0  0
 10 29  1  0  0  0  0
 11 12  1  0  0  0  0
 11 30  1  0  0  0  0
 12 13  2  0  0  0  0
 13 31  1  0  0  0  0
 14 19  1  0  0  0  0
 14 15  1  0  0  0  0
 14 40  1  0  0  0  0
 15 16  1  0  0  0  0
 15 32  1  0  0  0  0
 15 33  1  0  0  0  0
 16 17  1  0  0  0  0
 16 34  1  0  0  0  0
 16 35  1  0  0  0  0
 17 18  1  0  0  0  0
 18 19  1  0  0  0  0
 18 36  1  0  0  0  0
 18 37  1  0  0  0  0
 19 38  1  0  0  0  0
 19 39  1  0  0  0  0
M  CHG  1  14   1
M  END
> <s_m_source_file>
AV-unprocessed.smi

> <i_m_source_file_index>
2140

> <i_lp_mmshare_version>
43012

> <i_f3d_flags>
0

> <s_epik_input>
W0NIMl0xW0NIMl1PW0NIMl1bQ0gyXU4xW0NASF0oW0NIM10pW0NIMl1bTkhdQyg9TylbTkhdYzJbY0hdW2NIXVtjSF1uW2NIXTI=

> <s_epik_cmdline>
J2VwaWtfcHl0aG9uJywgJy1waCcsICc3LjAnLCAnLXRuJywgJzgnLCAnLW1hJywgJzIwMCcsICctbWV0YWxfYmluZGluZycsICctaW1hZScsICc8aW5maWxlLm1hZT4nLCAnLW9tYWUnLCAnPG91dGZpbGUubWFlPic=

> <r_epik_Ionization_Penalty>
0.60672

> <r_epik_Ionization_Penalty_Charging>
0.602531

> <r_epik_Ionization_Penalty_Neutral>
0.00418997

> <r_epik_State_Penalty>
0.607459

> <r_epik_Charging_Adjusted_Penalty>
1.20999

> <i_epik_Tot_Q>
1

> <i_epik_Tot_abs_Q>
1

> <r_epik_Metal_State_Penalty>
0.604586

> <b_epik_Metal_Only>
0

> <s_lp_Force_Field>
OPLS_2005

> <r_lp_Energy>
23.4588

> <b_lp_Chiralities_Consistent>
1

> <s_lp_Variant>
AV-unprocessed.smi:2140-4

> <Gold.Version>
5.8.1

> <Gold.Id.Protein>
6NUR|6NUR_protein|mol2

> <Gold.PLP.Fitness>
42.7569

> <Gold.PLP.PLP>
-27.3940

> <Gold.PLP.part.hbond>
-3.9644

> <Gold.PLP.part.metal>
0.0000

> <Gold.PLP.part.buried>
-3.1345

> <Gold.PLP.part.nonpolar>
-20.2606

> <Gold.PLP.part.repulsive>
0.4975

> <Gold.PLP.ligand.clash>
0.0000

> <Gold.PLP.ligand.torsion>
0.5489

> <Gold.PLP.Chemscore.Hbond>
4.5613

> <Gold.PLP.Chemscore.CHOScore>
0.9088

> <Gold.PLP.Chemscore.Metal>
0.0000

> <Gold.Chemscore.Hbonds>
donor molecule, donor type, donor heavy atom, donor atom, acceptor molecule, acceptor atom, score
      L1  H     4    26       P1  7948  1.00
      L1  H     7    27       P1  7948  0.59
      L1  H    14    40       P1  7948  2.00
      P1  H  7989  7998       L1    17  0.85
      L1  C    11    30       P1 10952  0.88

> <Gold.PLP.Chemscore.Internal.Correction>
0.0503

> <Gold.Rescore>
     Score         DG    S(hbond)    S(metal)    S(lipo)     H(rot)  DE(clash)    DE(int)     intcor
     17.02     -20.16       2.76        0.00      79.78       1.52       1.46       1.67       ----

> <Gold.Chemscore.Fitness>
17.0245

> <Gold.Chemscore.DG>
-20.1596

> <Gold.Chemscore.ZeroCoef>
-5.4800

> <Gold.Chemscore.Hbond>
2.7640

> <Gold.Chemscore.Metal>
0.0000

> <Gold.Chemscore.Lipo>
79.7751

> <Gold.Chemscore.Internal_Hbond>
0.0000

> <Gold.Chemscore.DEClash>
1.4615

> <Gold.Chemscore.DEInternal>
1.6736

> <Gold.Chemscore.Rot>
1.5179

> <Gold.Chemscore.Internal.Correction>
   9.000000E+99

> <Gold.Chemscore.Hbonds>
donor molecule, donor type, donor heavy atom, donor atom, acceptor molecule, acceptor atom, score
      L1  H     4    26       P1  7948  0.95
      L1  H     7    27       P1  7948  0.20
      L1  H    14    40       P1  7948  0.70
      P1  H  7989  7998       L1    17  0.14

> <Gold.Chemscore.Hbond.Weighted>
-9.2318

> <Gold.Chemscore.Metal.Weighted>
-0.0000

> <Gold.Chemscore.Lipo.Weighted>
-9.3337

> <Gold.Chemscore.Internal_Hbond.Weighted>
0.0000

> <Gold.Chemscore.DEClash.Weighted>
1.4615

> <Gold.Chemscore.DEInternal.Weighted>
1.6736

> <Gold.Chemscore.Rot.Weighted>
3.8859

> <Gold.Chemscore.Internal.Correction.Weighted>
   9.000000E+99

> <Gold.Protein.RotatedTorsions>
[ 6907 6896 6895 6894 ] final    8.49 input  -60.11 | X-H torsion
[ 7974 7965 7964 7962 ] final  -74.61 input  175.53 | X-H torsion
[ 8008 7997 7996 7995 ] final  -83.87 input   59.86 | X-H torsion
[ 10167 10162 10161 10158 ] final   54.04 input  -65.29 | X-H torsion
[ 10718 10713 10712 10709 ] final -150.40 input   66.30 | X-H torsion
[ 10763 10752 10751 10750 ] final   41.62 input  -60.55 | X-H torsion
[ 11005 11000 10999 10996 ] final   77.07 input  -57.11 | X-H torsion

> <Gold.Protein.ActiveResidues>
 VAL166  LYS551  ARG553  GLY616  TRP617  ASP618  TYR619  PRO620  LYS621  CYS622 
 ASP623  PHE694  ASN695  SER759  ASP760  ASP761  ALA762  ILE779  LEU786  VAL792 
 PHE793  MET794  SER795  GLU796  ALA797  LYS798  CYS799  TRP800  GLU811  SER814 

> <Gold.Protein.RotatedAtoms>
  151.7068  135.0920  160.0260 H   0  0  0  0  0  0  0  0  0  0  0  0  # atno 6907 bound_to 6896
  152.3686  133.6385  159.6078 H   0  0  0  0  0  0  0  0  0  0  0  0  # atno 6908 bound_to 6896
  150.7656  133.9223  159.3443 H   0  0  0  0  0  0  0  0  0  0  0  0  # atno 6909 bound_to 6896
  145.6369  140.9322  143.1057 H   0  0  0  0  0  0  0  0  0  0  0  0  # atno 7974 bound_to 7965
  154.6237  140.0613  156.9647 H   0  0  0  0  0  0  0  0  0  0  0  0  # atno 8008 bound_to 7997
  155.1776  140.3296  155.4362 H   0  0  0  0  0  0  0  0  0  0  0  0  # atno 8009 bound_to 7997
  156.2446  140.1903  156.6874 H   0  0  0  0  0  0  0  0  0  0  0  0  # atno 8010 bound_to 7997
  140.2344  144.3652  150.6403 H   0  0  0  0  0  0  0  0  0  0  0  0  # atno 10167 bound_to 10162
  156.4456  130.8143  151.2373 H   0  0  0  0  0  0  0  0  0  0  0  0  # atno 10718 bound_to 10713
  152.9903  135.6156  154.2817 H   0  0  0  0  0  0  0  0  0  0  0  0  # atno 10763 bound_to 10752
  154.2546  135.2784  155.2804 H   0  0  0  0  0  0  0  0  0  0  0  0  # atno 10764 bound_to 10752
  154.5258  135.5802  153.6775 H   0  0  0  0  0  0  0  0  0  0  0  0  # atno 10765 bound_to 10752
  139.9270  134.7653  156.1475 H   0  0  0  0  0  0  0  0  0  0  0  0  # atno 11005 bound_to 11000
  144.7172  139.8155  143.7394 LP  0  0  0  0  0  0  0  0  0  0  0  0  # atno 17320 bound_to 7965
  146.1312  139.4348  143.0167 LP  0  0  0  0  0  0  0  0  0  0  0  0  # atno 17321 bound_to 7965
  140.6161  143.2172  151.6788 LP  0  0  0  0  0  0  0  0  0  0  0  0  # atno 17342 bound_to 10162
  139.5099  144.3561  152.0606 LP  0  0  0  0  0  0  0  0  0  0  0  0  # atno 17343 bound_to 10162
  157.7505  131.0154  150.3503 LP  0  0  0  0  0  0  0  0  0  0  0  0  # atno 17370 bound_to 10713
  156.3870  130.3891  149.7058 LP  0  0  0  0  0  0  0  0  0  0  0  0  # atno 17371 bound_to 10713
  141.0835  133.6744  156.2386 LP  0  0  0  0  0  0  0  0  0  0  0  0  # atno 17394 bound_to 11000
  140.6307  134.5266  157.5559 LP  0  0  0  0  0  0  0  0  0  0  0  0  # atno 17395 bound_to 11000

$$$$
