AV-unprocessed.smi:1749|AV-procd|sdf|7046|dock4
  -GOLD-   22720 8263D 1   1.00000     0.00000
 Structure written by MMmdl.
 32 33  0  0  0  0  0  0  0  0  1 V2000
  153.1847  140.9775  160.3204 C   0  0  0  0  0  0  0  0  0  0  0  0
  152.9787  142.2331  159.4613 C   0  0  2  0  0  0  0  0  0  0  0  0
  152.7083  143.4740  160.3337 C   0  0  0  0  0  0  0  0  0  0  0  0
  152.4983  144.7314  159.4757 C   0  0  0  0  0  0  0  0  0  0  0  0
  151.3673  144.5276  158.4562 C   0  0  0  0  0  0  0  0  0  0  0  0
  151.6241  143.2921  157.5742 C   0  0  2  0  0  0  0  0  0  0  0  0
  150.4878  143.0813  156.6823 N   0  0  0  0  0  0  0  0  0  0  0  0
  150.1839  141.9451  156.0329 C   0  0  0  0  0  0  0  0  0  0  0  0
  150.8694  140.9270  156.1104 O   0  0  0  0  0  0  0  0  0  0  0  0
  149.0686  141.9699  155.2715 N   0  0  0  0  0  0  0  0  0  0  0  0
  148.4489  140.9756  154.4585 C   0  0  0  0  0  0  0  0  0  0  0  0
  147.3625  141.1799  153.6953 N   0  0  0  0  0  0  0  0  0  0  0  0
  146.9741  140.0317  153.0184 N   0  0  0  0  0  0  0  0  0  0  0  0
  147.7788  139.0030  153.2979 C   0  0  0  0  0  0  0  0  0  0  0  0
  149.0896  139.3382  154.4153 S   0  0  0  0  0  0  0  0  0  0  0  0
  151.8435  142.0351  158.4376 C   0  0  0  0  0  0  0  0  0  0  0  0
  152.2936  140.7469  160.9053 H   0  0  0  0  0  0  0  0  0  0  0  0
  154.0144  141.1091  161.0154 H   0  0  0  0  0  0  0  0  0  0  0  0
  153.4090  140.1094  159.7001 H   0  0  0  0  0  0  0  0  0  0  0  0
  153.9026  142.4067  158.9074 H   0  0  0  0  0  0  0  0  0  0  0  0
  151.8255  143.3056  160.9521 H   0  0  0  0  0  0  0  0  0  0  0  0
  153.5395  143.6357  161.0210 H   0  0  0  0  0  0  0  0  0  0  0  0
  152.2711  145.5841  160.1163 H   0  0  0  0  0  0  0  0  0  0  0  0
  153.4234  144.9759  158.9522 H   0  0  0  0  0  0  0  0  0  0  0  0
  150.4207  144.4137  158.9869 H   0  0  0  0  0  0  0  0  0  0  0  0
  151.2681  145.4179  157.8339 H   0  0  0  0  0  0  0  0  0  0  0  0
  152.5327  143.4720  156.9969 H   0  0  0  0  0  0  0  0  0  0  0  0
  149.8665  143.8677  156.5555 H   0  0  0  0  0  0  0  0  0  0  0  0
  148.6007  142.8644  155.2565 H   0  0  0  0  0  0  0  0  0  0  0  0
  147.5989  138.0401  152.8433 H   0  0  0  0  0  0  0  0  0  0  0  0
  152.0718  141.1842  157.7942 H   0  0  0  0  0  0  0  0  0  0  0  0
  150.9199  141.7844  158.9622 H   0  0  0  0  0  0  0  0  0  0  0  0
  1  2  1  0  0  0  0
  1 17  1  0  0  0  0
  1 18  1  0  0  0  0
  1 19  1  0  0  0  0
  2 16  1  0  0  0  0
  2  3  1  0  0  0  0
  2 20  1  0  0  0  0
  3  4  1  0  0  0  0
  3 21  1  0  0  0  0
  3 22  1  0  0  0  0
  4  5  1  0  0  0  0
  4 23  1  0  0  0  0
  4 24  1  0  0  0  0
  5  6  1  0  0  0  0
  5 25  1  0  0  0  0
  5 26  1  0  0  0  0
  6  7  1  0  0  0  0
  6 16  1  0  0  0  0
  6 27  1  0  0  0  0
  7  8  1  0  0  0  0
  7 28  1  0  0  0  0
  8  9  2  0  0  0  0
  8 10  1  0  0  0  0
 10 11  1  0  0  0  0
 10 29  1  0  0  0  0
 11 15  1  0  0  0  0
 11 12  2  0  0  0  0
 12 13  1  0  0  0  0
 13 14  2  0  0  0  0
 14 15  1  0  0  0  0
 14 30  1  0  0  0  0
 16 31  1  0  0  0  0
 16 32  1  0  0  0  0
M  END
> <s_m_source_file>
AV-unprocessed.smi

> <i_m_source_file_index>
1749

> <i_lp_mmshare_version>
43012

> <i_f3d_flags>
0

> <s_epik_input>
W0NIM11bQ0BASF0xW0NIMl1bQ0gyXVtDSDJdW0NASF0oW0NIMl0xKVtOSF1DKD1PKVtOSF1jMm5uW2NIXXMy

> <s_epik_cmdline>
J2VwaWtfcHl0aG9uJywgJy1waCcsICc3LjAnLCAnLXRuJywgJzgnLCAnLW1hJywgJzIwMCcsICctbWV0YWxfYmluZGluZycsICctaW1hZScsICc8aW5maWxlLm1hZT4nLCAnLW9tYWUnLCAnPG91dGZpbGUubWFlPic=

> <r_lp_tautomer_probability>
1

> <r_epik_Ionization_Penalty>
0.000318591

> <r_epik_Ionization_Penalty_Charging>
0

> <r_epik_Ionization_Penalty_Neutral>
0.000318591

> <r_epik_State_Penalty>
-0

> <r_epik_Charging_Adjusted_Penalty>
0

> <i_epik_Tot_Q>
0

> <i_epik_Tot_abs_Q>
0

> <r_epik_Metal_State_Penalty>
0.169791

> <b_epik_Metal_Only>
0

> <s_lp_Force_Field>
OPLS_2005

> <r_lp_Energy>
11.6734

> <b_lp_Chiralities_Consistent>
1

> <s_lp_Variant>
AV-unprocessed.smi:1749-3

> <Gold.Version>
5.8.1

> <Gold.Id.Protein>
6NUR|6NUR_protein|mol2

> <Gold.PLP.Fitness>
41.6191

> <Gold.PLP.PLP>
-33.5800

> <Gold.PLP.part.hbond>
-1.9089

> <Gold.PLP.part.metal>
0.0000

> <Gold.PLP.part.buried>
-4.0491

> <Gold.PLP.part.nonpolar>
-28.2114

> <Gold.PLP.part.repulsive>
0.6517

> <Gold.PLP.ligand.clash>
0.0000

> <Gold.PLP.ligand.torsion>
0.2775

> <Gold.PLP.Chemscore.Hbond>
1.8640

> <Gold.PLP.Chemscore.CHOScore>
1.0000

> <Gold.PLP.Chemscore.Metal>
0.0000

> <Gold.Chemscore.Hbonds>
donor molecule, donor type, donor heavy atom, donor atom, acceptor molecule, acceptor atom, score
      L1  H     7    28       P1  8028  1.00
      L1  H    10    29       P1  8028  0.85
      L1  C    14    30       P1  7948  1.00

> <Gold.PLP.Chemscore.Internal.Correction>
0.0021

> <Gold.Rescore>
     Score         DG    S(hbond)    S(metal)    S(lipo)     H(rot)  DE(clash)    DE(int)     intcor
     16.56     -19.55       1.81        0.00      90.31       1.00       0.00       2.98       ----

> <Gold.Chemscore.Fitness>
16.5580

> <Gold.Chemscore.DG>
-19.5466

> <Gold.Chemscore.ZeroCoef>
-5.4800

> <Gold.Chemscore.Hbond>
1.8143

> <Gold.Chemscore.Metal>
0.0000

> <Gold.Chemscore.Lipo>
90.3130

> <Gold.Chemscore.Internal_Hbond>
0.0000

> <Gold.Chemscore.DEClash>
0.0038

> <Gold.Chemscore.DEInternal>
2.9847

> <Gold.Chemscore.Rot>
1.0000

> <Gold.Chemscore.Internal.Correction>
   9.000000E+99

> <Gold.Chemscore.Hbonds>
donor molecule, donor type, donor heavy atom, donor atom, acceptor molecule, acceptor atom, score
      L1  H     7    28       P1  8028  0.93
      L1  H    10    29       P1  8028  0.85

> <Gold.Chemscore.Hbond.Weighted>
-6.0599

> <Gold.Chemscore.Metal.Weighted>
-0.0000

> <Gold.Chemscore.Lipo.Weighted>
-10.5666

> <Gold.Chemscore.Internal_Hbond.Weighted>
0.0000

> <Gold.Chemscore.DEClash.Weighted>
0.0038

> <Gold.Chemscore.DEInternal.Weighted>
2.9847

> <Gold.Chemscore.Rot.Weighted>
2.5600

> <Gold.Chemscore.Internal.Correction.Weighted>
   9.000000E+99

> <Gold.Protein.RotatedTorsions>
[ 6907 6896 6895 6894 ] final -152.63 input  -60.11 | X-H torsion
[ 7974 7965 7964 7962 ] final  -93.70 input  175.53 | X-H torsion
[ 8008 7997 7996 7995 ] final  -55.05 input   59.86 | X-H torsion
[ 10167 10162 10161 10158 ] final  -29.56 input  -65.29 | X-H torsion
[ 10718 10713 10712 10709 ] final   55.75 input   66.30 | X-H torsion
[ 10763 10752 10751 10750 ] final  125.72 input  -60.55 | X-H torsion
[ 11005 11000 10999 10996 ] final  -77.36 input  -57.11 | X-H torsion

> <Gold.Protein.ActiveResidues>
 VAL166  LYS551  ARG553  GLY616  TRP617  ASP618  TYR619  PRO620  LYS621  CYS622 
 ASP623  PHE694  ASN695  SER759  ASP760  ASP761  ALA762  ILE779  LEU786  VAL792 
 PHE793  MET794  SER795  GLU796  ALA797  LYS798  CYS799  TRP800  GLU811  SER814 

> <Gold.Protein.RotatedAtoms>
  151.2306  133.4452  159.2603 H   0  0  0  0  0  0  0  0  0  0  0  0  # atno 6907 bound_to 6896
  151.0798  134.9851  159.8360 H   0  0  0  0  0  0  0  0  0  0  0  0  # atno 6908 bound_to 6896
  152.5423  134.2246  159.8854 H   0  0  0  0  0  0  0  0  0  0  0  0  # atno 6909 bound_to 6896
  145.3831  140.9520  143.2382 H   0  0  0  0  0  0  0  0  0  0  0  0  # atno 7974 bound_to 7965
  154.4182  140.1162  156.5414 H   0  0  0  0  0  0  0  0  0  0  0  0  # atno 8008 bound_to 7997
  155.6504  140.3496  155.4727 H   0  0  0  0  0  0  0  0  0  0  0  0  # atno 8009 bound_to 7997
  155.9797  140.1158  157.0727 H   0  0  0  0  0  0  0  0  0  0  0  0  # atno 8010 bound_to 7997
  140.7259  143.3918  151.1416 H   0  0  0  0  0  0  0  0  0  0  0  0  # atno 10167 bound_to 10162
  157.5372  130.8672  149.8770 H   0  0  0  0  0  0  0  0  0  0  0  0  # atno 10718 bound_to 10713
  153.6818  135.3313  155.3180 H   0  0  0  0  0  0  0  0  0  0  0  0  # atno 10763 bound_to 10752
  154.8464  135.4411  154.1598 H   0  0  0  0  0  0  0  0  0  0  0  0  # atno 10764 bound_to 10752
  153.2616  135.6992  153.7649 H   0  0  0  0  0  0  0  0  0  0  0  0  # atno 10765 bound_to 10752
  141.1660  133.7019  156.7809 H   0  0  0  0  0  0  0  0  0  0  0  0  # atno 11005 bound_to 11000
  144.8493  139.5347  143.6864 LP  0  0  0  0  0  0  0  0  0  0  0  0  # atno 17320 bound_to 7965
  146.2833  139.6935  142.9214 LP  0  0  0  0  0  0  0  0  0  0  0  0  # atno 17321 bound_to 7965
  139.7525  143.8758  152.3080 LP  0  0  0  0  0  0  0  0  0  0  0  0  # atno 17342 bound_to 10162
  139.8616  144.7114  150.9093 LP  0  0  0  0  0  0  0  0  0  0  0  0  # atno 17343 bound_to 10162
  156.0468  130.3726  150.1298 LP  0  0  0  0  0  0  0  0  0  0  0  0  # atno 17370 bound_to 10713
  156.9480  130.9765  151.3504 LP  0  0  0  0  0  0  0  0  0  0  0  0  # atno 17371 bound_to 10713
  140.2395  134.8624  157.3559 LP  0  0  0  0  0  0  0  0  0  0  0  0  # atno 17394 bound_to 11000
  140.1810  134.4490  155.7772 LP  0  0  0  0  0  0  0  0  0  0  0  0  # atno 17395 bound_to 11000

$$$$
