AV-unprocessed.smi:1288|AV-procd|sdf|5381|dock4
  -GOLD-   22720 4533D 1   1.00000     0.00000
 Structure written by MMmdl.
 42 44  0  0  0  0  0  0  0  0  1 V2000
  150.3721  136.1003  154.2500 C   0  0  0  0  0  0  0  0  0  0  0  0
  149.7266  137.4427  154.3872 C   0  0  0  0  0  0  0  0  0  0  0  0
  148.4074  137.5881  154.5123 N   0  0  0  0  0  0  0  0  0  0  0  0
  148.2607  138.9592  154.5980 C   0  0  0  0  0  0  0  0  0  0  0  0
  147.0991  139.7510  154.7439 C   0  0  0  0  0  0  0  0  0  0  0  0
  147.1968  141.1562  154.8102 C   0  0  0  0  0  0  0  0  0  0  0  0
  148.4543  141.7890  154.7308 C   0  0  0  0  0  0  0  0  0  0  0  0
  149.6244  141.0189  154.5860 C   0  0  0  0  0  0  0  0  0  0  0  0
  149.5217  139.6163  154.5207 C   0  0  0  0  0  0  0  0  0  0  0  0
  150.4511  138.5888  154.3871 N   0  0  0  0  0  0  0  0  0  0  0  0
  151.8960  138.7346  154.2681 C   0  0  0  0  0  0  0  0  0  0  0  0
  152.4955  139.6589  155.3475 C   0  0  2  0  0  0  0  0  0  0  0  0
  153.8388  139.9487  155.0124 O   0  0  0  0  0  0  0  0  0  0  0  0
  152.4702  139.0056  156.7384 C   0  0  0  0  0  0  0  0  0  0  0  0
  153.0438  139.8957  157.6823 O   0  0  0  0  0  0  0  0  0  0  0  0
  152.2346  140.0724  158.8328 C   0  0  0  0  0  0  0  0  0  0  0  0
  152.0852  141.5399  159.1833 C   0  0  0  0  0  0  0  0  0  0  0  0
  152.5762  142.0253  160.4138 C   0  0  0  0  0  0  0  0  0  0  0  0
  152.4385  143.3878  160.7438 C   0  0  0  0  0  0  0  0  0  0  0  0
  151.8107  144.2705  159.8440 C   0  0  0  0  0  0  0  0  0  0  0  0
  151.3219  143.7904  158.6136 C   0  0  0  0  0  0  0  0  0  0  0  0
  151.4589  142.4280  158.2819 C   0  0  0  0  0  0  0  0  0  0  0  0
  150.9869  141.9773  157.0947 F   0  0  0  0  0  0  0  0  0  0  0  0
  149.6223  135.3096  154.2936 H   0  0  0  0  0  0  0  0  0  0  0  0
  151.0874  135.9370  155.0557 H   0  0  0  0  0  0  0  0  0  0  0  0
  150.8913  136.0265  153.2944 H   0  0  0  0  0  0  0  0  0  0  0  0
  146.1312  139.2759  154.8055 H   0  0  0  0  0  0  0  0  0  0  0  0
  146.3026  141.7516  154.9226 H   0  0  0  0  0  0  0  0  0  0  0  0
  148.5204  142.8660  154.7820 H   0  0  0  0  0  0  0  0  0  0  0  0
  150.5889  141.5010  154.5282 H   0  0  0  0  0  0  0  0  0  0  0  0
  152.3515  137.7454  154.3202 H   0  0  0  0  0  0  0  0  0  0  0  0
  152.1257  139.1176  153.2730 H   0  0  0  0  0  0  0  0  0  0  0  0
  151.9316  140.5917  155.3752 H   0  0  0  0  0  0  0  0  0  0  0  0
  153.8767  140.1717  154.0948 H   0  0  0  0  0  0  0  0  0  0  0  0
  151.4372  138.8165  157.0355 H   0  0  0  0  0  0  0  0  0  0  0  0
  152.9850  138.0430  156.7316 H   0  0  0  0  0  0  0  0  0  0  0  0
  151.2451  139.6442  158.6652 H   0  0  0  0  0  0  0  0  0  0  0  0
  152.6715  139.5398  159.6792 H   0  0  0  0  0  0  0  0  0  0  0  0
  153.0610  141.3547  161.1083 H   0  0  0  0  0  0  0  0  0  0  0  0
  152.8151  143.7551  161.6871 H   0  0  0  0  0  0  0  0  0  0  0  0
  151.7054  145.3153  160.0969 H   0  0  0  0  0  0  0  0  0  0  0  0
  150.8418  144.4675  157.9229 H   0  0  0  0  0  0  0  0  0  0  0  0
  1  2  1  0  0  0  0
  1 24  1  0  0  0  0
  1 25  1  0  0  0  0
  1 26  1  0  0  0  0
  2 10  1  0  0  0  0
  2  3  2  0  0  0  0
  3  4  1  0  0  0  0
  4  9  2  0  0  0  0
  4  5  1  0  0  0  0
  5  6  2  0  0  0  0
  5 27  1  0  0  0  0
  6  7  1  0  0  0  0
  6 28  1  0  0  0  0
  7  8  2  0  0  0  0
  7 29  1  0  0  0  0
  8  9  1  0  0  0  0
  8 30  1  0  0  0  0
  9 10  1  0  0  0  0
 10 11  1  0  0  0  0
 11 12  1  0  0  0  0
 11 31  1  0  0  0  0
 11 32  1  0  0  0  0
 12 13  1  0  0  0  0
 12 14  1  0  0  0  0
 12 33  1  0  0  0  0
 13 34  1  0  0  0  0
 14 15  1  0  0  0  0
 14 35  1  0  0  0  0
 14 36  1  0  0  0  0
 15 16  1  0  0  0  0
 16 17  1  0  0  0  0
 16 37  1  0  0  0  0
 16 38  1  0  0  0  0
 17 22  1  0  0  0  0
 17 18  2  0  0  0  0
 18 19  1  0  0  0  0
 18 39  1  0  0  0  0
 19 20  2  0  0  0  0
 19 40  1  0  0  0  0
 20 21  1  0  0  0  0
 20 41  1  0  0  0  0
 21 22  2  0  0  0  0
 21 42  1  0  0  0  0
 22 23  1  0  0  0  0
M  END
> <s_m_source_file>
AV-unprocessed.smi

> <i_m_source_file_index>
1288

> <i_lp_mmshare_version>
43012

> <i_f3d_flags>
0

> <s_epik_input>
W2NIXTFbY0hdW2NIXVtjSF1jKGMxMiluKGMobjIpW0NIM10pW0NIMl1bQ0BIXShbT0hdKVtDSDJdT1tDSDJdYzNbY0hdW2NIXVtjSF1bY0hdYzNG

> <s_epik_cmdline>
J2VwaWtfcHl0aG9uJywgJy1waCcsICc3LjAnLCAnLXRuJywgJzgnLCAnLW1hJywgJzIwMCcsICctbWV0YWxfYmluZGluZycsICctaW1hZScsICc8aW5maWxlLm1hZT4nLCAnLW9tYWUnLCAnPG91dGZpbGUubWFlPic=

> <r_epik_Ionization_Penalty>
0.132603

> <r_epik_Ionization_Penalty_Charging>
0

> <r_epik_Ionization_Penalty_Neutral>
0.132603

> <r_epik_State_Penalty>
0.121982

> <r_epik_Charging_Adjusted_Penalty>
0.121982

> <i_epik_Tot_Q>
0

> <i_epik_Tot_abs_Q>
0

> <r_epik_Metal_State_Penalty>
0.000135431

> <b_epik_Metal_Only>
0

> <s_lp_Force_Field>
OPLS_2005

> <r_lp_Energy>
16.1737

> <b_lp_Chiralities_Consistent>
1

> <s_lp_Variant>
AV-unprocessed.smi:1288-1

> <Gold.Version>
5.8.1

> <Gold.Id.Protein>
6NUR|6NUR_protein|mol2

> <Gold.PLP.Fitness>
52.1459

> <Gold.PLP.PLP>
-49.5872

> <Gold.PLP.part.hbond>
-2.0000

> <Gold.PLP.part.metal>
0.0000

> <Gold.PLP.part.buried>
-4.9280

> <Gold.PLP.part.nonpolar>
-42.1661

> <Gold.PLP.part.repulsive>
0.0712

> <Gold.PLP.ligand.clash>
0.0000

> <Gold.PLP.ligand.torsion>
0.8585

> <Gold.PLP.Chemscore.Hbond>
1.3760

> <Gold.PLP.Chemscore.CHOScore>
0.0000

> <Gold.PLP.Chemscore.Metal>
0.0000

> <Gold.Chemscore.Hbonds>
donor molecule, donor type, donor heavy atom, donor atom, acceptor molecule, acceptor atom, score
      P1  H  7997  8008       L1    13  0.24
      P1  H  7997  8010       L1    15  1.00

> <Gold.PLP.Chemscore.Internal.Correction>
0.1477

> <Gold.Rescore>
     Score         DG    S(hbond)    S(metal)    S(lipo)     H(rot)  DE(clash)    DE(int)     intcor
     16.50     -18.52       1.01        0.00     132.53       2.29       0.11       1.91       ----

> <Gold.Chemscore.Fitness>
16.4965

> <Gold.Chemscore.DG>
-18.5219

> <Gold.Chemscore.ZeroCoef>
-5.4800

> <Gold.Chemscore.Hbond>
1.0146

> <Gold.Chemscore.Metal>
0.0000

> <Gold.Chemscore.Lipo>
132.5318

> <Gold.Chemscore.Internal_Hbond>
0.0000

> <Gold.Chemscore.DEClash>
0.1137

> <Gold.Chemscore.DEInternal>
1.9117

> <Gold.Chemscore.Rot>
2.2863

> <Gold.Chemscore.Internal.Correction>
   9.000000E+99

> <Gold.Chemscore.Hbonds>
donor molecule, donor type, donor heavy atom, donor atom, acceptor molecule, acceptor atom, score
      P1  H  7997  8008       L1    13  0.07
      P1  H  7997  8010       L1    15  0.25

> <Gold.Chemscore.Hbond.Weighted>
-3.3887

> <Gold.Chemscore.Metal.Weighted>
-0.0000

> <Gold.Chemscore.Lipo.Weighted>
-15.5062

> <Gold.Chemscore.Internal_Hbond.Weighted>
0.0000

> <Gold.Chemscore.DEClash.Weighted>
0.1137

> <Gold.Chemscore.DEInternal.Weighted>
1.9117

> <Gold.Chemscore.Rot.Weighted>
5.8530

> <Gold.Chemscore.Internal.Correction.Weighted>
   9.000000E+99

> <Gold.Protein.RotatedTorsions>
[ 6907 6896 6895 6894 ] final  120.29 input  -60.11 | X-H torsion
[ 7974 7965 7964 7962 ] final  -72.65 input  175.53 | X-H torsion
[ 8008 7997 7996 7995 ] final   33.58 input   59.86 | X-H torsion
[ 10167 10162 10161 10158 ] final  148.30 input  -65.29 | X-H torsion
[ 10718 10713 10712 10709 ] final   85.88 input   66.30 | X-H torsion
[ 10763 10752 10751 10750 ] final   50.50 input  -60.55 | X-H torsion
[ 11005 11000 10999 10996 ] final  -14.70 input  -57.11 | X-H torsion

> <Gold.Protein.ActiveResidues>
 VAL166  LYS551  ARG553  GLY616  TRP617  ASP618  TYR619  PRO620  LYS621  CYS622 
 ASP623  PHE694  ASN695  SER759  ASP760  ASP761  ALA762  ILE779  LEU786  VAL792 
 PHE793  MET794  SER795  GLU796  ALA797  LYS798  CYS799  TRP800  GLU811  SER814 

> <Gold.Protein.RotatedAtoms>
  152.4409  133.7447  159.6660 H   0  0  0  0  0  0  0  0  0  0  0  0  # atno 6907 bound_to 6896
  150.8300  133.8097  159.3109 H   0  0  0  0  0  0  0  0  0  0  0  0  # atno 6908 bound_to 6896
  151.5754  135.1063  160.0056 H   0  0  0  0  0  0  0  0  0  0  0  0  # atno 6909 bound_to 6896
  145.6623  140.9248  143.0927 H   0  0  0  0  0  0  0  0  0  0  0  0  # atno 7974 bound_to 7965
  155.1410  140.3266  155.4452 H   0  0  0  0  0  0  0  0  0  0  0  0  # atno 8008 bound_to 7997
  156.2605  140.1993  156.6475 H   0  0  0  0  0  0  0  0  0  0  0  0  # atno 8009 bound_to 7997
  154.6542  140.0555  156.9977 H   0  0  0  0  0  0  0  0  0  0  0  0  # atno 8010 bound_to 7997
  139.4877  144.5690  151.7091 H   0  0  0  0  0  0  0  0  0  0  0  0  # atno 10167 bound_to 10162
  157.6921  131.0193  150.2889 H   0  0  0  0  0  0  0  0  0  0  0  0  # atno 10718 bound_to 10713
  152.9784  135.5877  154.4263 H   0  0  0  0  0  0  0  0  0  0  0  0  # atno 10763 bound_to 10752
  154.3881  135.2767  155.2173 H   0  0  0  0  0  0  0  0  0  0  0  0  # atno 10764 bound_to 10752
  154.4057  135.6093  153.5977 H   0  0  0  0  0  0  0  0  0  0  0  0  # atno 10765 bound_to 10752
  140.7891  133.8302  155.9362 H   0  0  0  0  0  0  0  0  0  0  0  0  # atno 11005 bound_to 11000
  144.7085  139.8465  143.7422 LP  0  0  0  0  0  0  0  0  0  0  0  0  # atno 17320 bound_to 7965
  146.1114  139.4120  143.0285 LP  0  0  0  0  0  0  0  0  0  0  0  0  # atno 17321 bound_to 7965
  140.5273  144.0785  150.6042 LP  0  0  0  0  0  0  0  0  0  0  0  0  # atno 17342 bound_to 10162
  140.3763  143.2827  152.0221 LP  0  0  0  0  0  0  0  0  0  0  0  0  # atno 17343 bound_to 10162
  156.3423  130.3817  149.7398 LP  0  0  0  0  0  0  0  0  0  0  0  0  # atno 17370 bound_to 10713
  156.4903  130.8082  151.3092 LP  0  0  0  0  0  0  0  0  0  0  0  0  # atno 17371 bound_to 10713
  140.9408  134.1904  157.4799 LP  0  0  0  0  0  0  0  0  0  0  0  0  # atno 17394 bound_to 11000
  139.8733  134.9871  156.5352 LP  0  0  0  0  0  0  0  0  0  0  0  0  # atno 17395 bound_to 11000

$$$$
