AV-unprocessed.smi:1464|AV-procd|sdf|5943|dock7
  -GOLD-   22720 6 23D 1   1.00000     0.00000
 Structure written by MMmdl.
 41 42  0  0  0  0  0  0  0  0  1 V2000
  148.2409  141.6267  155.5894 C   0  0  0  0  0  0  0  0  0  0  0  0
  149.2312  140.4484  155.6164 C   0  0  2  0  0  0  0  0  0  0  0  0
  150.6178  140.9437  156.0773 C   0  0  0  0  0  0  0  0  0  0  0  0
  151.6483  139.8082  156.1385 C   0  0  0  0  0  0  0  0  0  0  0  0
  151.7588  139.0932  154.7842 C   0  0  0  0  0  0  0  0  0  0  0  0
  150.3936  138.5772  154.2940 C   0  0  1  0  0  0  0  0  0  0  0  0
  149.9542  137.4611  155.1350 N   0  0  0  0  0  0  0  0  0  0  0  0
  150.7348  136.4993  155.6511 C   0  0  0  0  0  0  0  0  0  0  0  0
  151.9493  136.4322  155.4561 O   0  0  0  0  0  0  0  0  0  0  0  0
  150.0142  135.4396  156.4975 C   0  0  0  0  0  0  0  0  0  0  0  0
  149.7971  134.1719  155.7861 N   0  0  0  0  0  0  0  0  0  0  0  0
  149.1874  134.3136  154.5486 N   0  0  0  0  0  0  0  0  0  0  0  0
  148.9564  133.2736  153.8209 C   0  0  0  0  0  0  0  0  0  0  0  0
  148.3539  133.4589  152.6006 O   0  0  0  0  0  0  0  0  0  0  0  0
  149.3188  131.9480  154.2728 C   0  0  0  0  0  0  0  0  0  0  0  0
  149.9073  131.8195  155.4821 C   0  0  0  0  0  0  0  0  0  0  0  0
  150.1836  132.9784  156.3333 C   0  0  0  0  0  0  0  0  0  0  0  0
  150.7156  132.8905  157.4398 O   0  0  0  0  0  0  0  0  0  0  0  0
  149.3377  139.7142  154.2504 C   0  0  1  0  0  0  0  0  0  0  0  0
  147.9790  139.2025  153.7300 C   0  0  0  0  0  0  0  0  0  0  0  0
  148.3033  134.3950  152.4843 H   0  0  0  0  0  0  0  0  0  0  0  0
  148.5002  142.3459  154.8118 H   0  0  0  0  0  0  0  0  0  0  0  0
  148.2382  142.1567  156.5423 H   0  0  0  0  0  0  0  0  0  0  0  0
  147.2194  141.2920  155.4114 H   0  0  0  0  0  0  0  0  0  0  0  0
  148.8678  139.7379  156.3603 H   0  0  0  0  0  0  0  0  0  0  0  0
  150.9753  141.7181  155.3972 H   0  0  0  0  0  0  0  0  0  0  0  0
  150.5399  141.4116  157.0593 H   0  0  0  0  0  0  0  0  0  0  0  0
  152.6217  140.2064  156.4265 H   0  0  0  0  0  0  0  0  0  0  0  0
  151.3664  139.0962  156.9151 H   0  0  0  0  0  0  0  0  0  0  0  0
  152.1656  139.7867  154.0471 H   0  0  0  0  0  0  0  0  0  0  0  0
  152.4721  138.2705  154.8517 H   0  0  0  0  0  0  0  0  0  0  0  0
  150.5404  138.2206  153.2732 H   0  0  0  0  0  0  0  0  0  0  0  0
  148.9675  137.4230  155.3461 H   0  0  0  0  0  0  0  0  0  0  0  0
  150.5789  135.2589  157.4144 H   0  0  0  0  0  0  0  0  0  0  0  0
  149.0600  135.8597  156.8206 H   0  0  0  0  0  0  0  0  0  0  0  0
  149.1197  131.0867  153.6520 H   0  0  0  0  0  0  0  0  0  0  0  0
  150.1835  130.8358  155.8325 H   0  0  0  0  0  0  0  0  0  0  0  0
  149.6945  140.4420  153.5199 H   0  0  0  0  0  0  0  0  0  0  0  0
  147.4791  138.5695  154.4635 H   0  0  0  0  0  0  0  0  0  0  0  0
  148.1058  138.6176  152.8184 H   0  0  0  0  0  0  0  0  0  0  0  0
  147.3059  140.0243  153.4867 H   0  0  0  0  0  0  0  0  0  0  0  0
  1  2  1  0  0  0  0
  1 22  1  0  0  0  0
  1 23  1  0  0  0  0
  1 24  1  0  0  0  0
  2 19  1  0  0  0  0
  2  3  1  0  0  0  0
  2 25  1  0  0  0  0
  3  4  1  0  0  0  0
  3 26  1  0  0  0  0
  3 27  1  0  0  0  0
  4  5  1  0  0  0  0
  4 28  1  0  0  0  0
  4 29  1  0  0  0  0
  5  6  1  0  0  0  0
  5 30  1  0  0  0  0
  5 31  1  0  0  0  0
  6  7  1  0  0  0  0
  6 19  1  0  0  0  0
  6 32  1  0  0  0  0
  7  8  1  0  0  0  0
  7 33  1  0  0  0  0
  8  9  2  0  0  0  0
  8 10  1  0  0  0  0
 10 34  1  0  0  0  0
 10 35  1  0  0  0  0
 10 11  1  0  0  0  0
 11 12  1  0  0  0  0
 11 17  1  0  0  0  0
 12 13  2  0  0  0  0
 13 14  1  0  0  0  0
 13 15  1  0  0  0  0
 14 21  1  0  0  0  0
 15 36  1  0  0  0  0
 15 16  2  0  0  0  0
 16 37  1  0  0  0  0
 16 17  1  0  0  0  0
 17 18  2  0  0  0  0
 19 20  1  0  0  0  0
 19 38  1  0  0  0  0
 20 39  1  0  0  0  0
 20 40  1  0  0  0  0
 20 41  1  0  0  0  0
M  END
> <s_m_source_file>
AV-unprocessed.smi

> <i_m_source_file_index>
1464

> <i_lp_mmshare_version>
43012

> <i_f3d_flags>
0

> <s_epik_input>
W0NIM11bQ0BASF0xW0NIMl1bQ0gyXVtDSDJdW0NASF0oW0NASF0xW0NIM10pW05IXUMoPU8pW0NIMl1uMltuSF1jKD1PKVtjSF1bY0hdYzI9Tw==

> <s_epik_cmdline>
J2VwaWtfcHl0aG9uJywgJy1waCcsICc3LjAnLCAnLXRuJywgJzgnLCAnLW1hJywgJzIwMCcsICctbWV0YWxfYmluZGluZycsICctaW1hZScsICc8aW5maWxlLm1hZT4nLCAnLW9tYWUnLCAnPG91dGZpbGUubWFlPic=

> <r_lp_tautomer_probability>
0.9996

> <r_epik_Ionization_Penalty>
2.10335

> <r_epik_Ionization_Penalty_Charging>
3.98079e-08

> <r_epik_Ionization_Penalty_Neutral>
2.10335

> <r_epik_State_Penalty>
1.67957

> <r_epik_Charging_Adjusted_Penalty>
1.67957

> <i_epik_Tot_Q>
0

> <i_epik_Tot_abs_Q>
0

> <r_epik_Metal_State_Penalty>
1.67957

> <b_epik_Metal_Only>
0

> <s_lp_Force_Field>
OPLS_2005

> <r_lp_Energy>
20.9709

> <b_lp_Chiralities_Consistent>
1

> <s_lp_Variant>
AV-unprocessed.smi:1464-9

> <Gold.Version>
5.8.1

> <Gold.Id.Protein>
6NUR|6NUR_protein|mol2

> <Gold.PLP.Fitness>
40.8889

> <Gold.PLP.PLP>
-33.0312

> <Gold.PLP.part.hbond>
-2.7943

> <Gold.PLP.part.metal>
0.0000

> <Gold.PLP.part.buried>
-0.5366

> <Gold.PLP.part.nonpolar>
-29.4751

> <Gold.PLP.part.repulsive>
0.2377

> <Gold.PLP.ligand.clash>
0.0000

> <Gold.PLP.ligand.torsion>
0.5763

> <Gold.PLP.Chemscore.Hbond>
3.0000

> <Gold.PLP.Chemscore.CHOScore>
0.0000

> <Gold.PLP.Chemscore.Metal>
0.0000

> <Gold.Chemscore.Hbonds>
donor molecule, donor type, donor heavy atom, donor atom, acceptor molecule, acceptor atom, score
      L1  H    14    21       P1  7948  0.80
      P1  H  6896  6907       L1    18  1.00
      P1  H 10752 10765       L1     9  1.00

> <Gold.PLP.Chemscore.Internal.Correction>
0.0104

> <Gold.Rescore>
     Score         DG    S(hbond)    S(metal)    S(lipo)     H(rot)  DE(clash)    DE(int)     intcor
     14.83     -16.65       2.91        0.00      61.14       2.22       0.03       1.79       ----

> <Gold.Chemscore.Fitness>
14.8331

> <Gold.Chemscore.DG>
-16.6470

> <Gold.Chemscore.ZeroCoef>
-5.4800

> <Gold.Chemscore.Hbond>
2.9051

> <Gold.Chemscore.Metal>
0.0000

> <Gold.Chemscore.Lipo>
61.1389

> <Gold.Chemscore.Internal_Hbond>
0.0000

> <Gold.Chemscore.DEClash>
0.0262

> <Gold.Chemscore.DEInternal>
1.7877

> <Gold.Chemscore.Rot>
2.2224

> <Gold.Chemscore.Internal.Correction>
   9.000000E+99

> <Gold.Chemscore.Hbonds>
donor molecule, donor type, donor heavy atom, donor atom, acceptor molecule, acceptor atom, score
      L1  H    14    21       P1  7948  0.11
      P1  H  6896  6907       L1    18  0.98
      P1  H 10752 10765       L1     9  0.92

> <Gold.Chemscore.Hbond.Weighted>
-9.7031

> <Gold.Chemscore.Metal.Weighted>
-0.0000

> <Gold.Chemscore.Lipo.Weighted>
-7.1533

> <Gold.Chemscore.Internal_Hbond.Weighted>
0.0000

> <Gold.Chemscore.DEClash.Weighted>
0.0262

> <Gold.Chemscore.DEInternal.Weighted>
1.7877

> <Gold.Chemscore.Rot.Weighted>
5.6893

> <Gold.Chemscore.Internal.Correction.Weighted>
   9.000000E+99

> <Gold.Protein.RotatedTorsions>
[ 6907 6896 6895 6894 ] final -149.41 input  -60.11 | X-H torsion
[ 7974 7965 7964 7962 ] final   14.55 input  175.53 | X-H torsion
[ 8008 7997 7996 7995 ] final   85.87 input   59.86 | X-H torsion
[ 10167 10162 10161 10158 ] final   14.75 input  -65.29 | X-H torsion
[ 10718 10713 10712 10709 ] final  112.73 input   66.30 | X-H torsion
[ 10763 10752 10751 10750 ] final  175.36 input  -60.55 | X-H torsion
[ 11005 11000 10999 10996 ] final    0.46 input  -57.11 | X-H torsion

> <Gold.Protein.ActiveResidues>
 VAL166  LYS551  ARG553  GLY616  TRP617  ASP618  TYR619  PRO620  LYS621  CYS622 
 ASP623  PHE694  ASN695  SER759  ASP760  ASP761  ALA762  ILE779  LEU786  VAL792 
 PHE793  MET794  SER795  GLU796  ALA797  LYS798  CYS799  TRP800  GLU811  SER814 

> <Gold.Protein.RotatedAtoms>
  151.1837  133.4709  159.2594 H   0  0  0  0  0  0  0  0  0  0  0  0  # atno 6907 bound_to 6896
  151.1233  135.0091  159.8559 H   0  0  0  0  0  0  0  0  0  0  0  0  # atno 6908 bound_to 6896
  152.5457  134.1747  159.8664 H   0  0  0  0  0  0  0  0  0  0  0  0  # atno 6909 bound_to 6896
  146.2302  139.9024  142.8537 H   0  0  0  0  0  0  0  0  0  0  0  0  # atno 7974 bound_to 7965
  155.9556  140.3397  155.6445 H   0  0  0  0  0  0  0  0  0  0  0  0  # atno 8008 bound_to 7997
  155.6864  140.0744  157.2483 H   0  0  0  0  0  0  0  0  0  0  0  0  # atno 8009 bound_to 7997
  154.4131  140.1665  156.2026 H   0  0  0  0  0  0  0  0  0  0  0  0  # atno 8010 bound_to 7997
  140.5914  143.8787  150.6878 H   0  0  0  0  0  0  0  0  0  0  0  0  # atno 10167 bound_to 10162
  157.6377  131.0972  150.6938 H   0  0  0  0  0  0  0  0  0  0  0  0  # atno 10718 bound_to 10713
  154.4666  135.2769  155.1674 H   0  0  0  0  0  0  0  0  0  0  0  0  # atno 10763 bound_to 10752
  154.3440  135.6164  153.5613 H   0  0  0  0  0  0  0  0  0  0  0  0  # atno 10764 bound_to 10752
  152.9860  135.5795  154.5039 H   0  0  0  0  0  0  0  0  0  0  0  0  # atno 10765 bound_to 10752
  140.6263  133.9615  155.8251 H   0  0  0  0  0  0  0  0  0  0  0  0  # atno 11005 bound_to 11000
  145.2310  140.9973  143.3991 LP  0  0  0  0  0  0  0  0  0  0  0  0  # atno 17320 bound_to 7965
  144.9530  139.4061  143.6393 LP  0  0  0  0  0  0  0  0  0  0  0  0  # atno 17321 bound_to 7965
  140.2311  143.3735  152.1565 LP  0  0  0  0  0  0  0  0  0  0  0  0  # atno 17342 bound_to 10162
  139.5230  144.7066  151.5335 LP  0  0  0  0  0  0  0  0  0  0  0  0  # atno 17343 bound_to 10162
  156.7266  130.4697  149.5509 LP  0  0  0  0  0  0  0  0  0  0  0  0  # atno 17370 bound_to 10713
  156.1630  130.6386  151.0742 LP  0  0  0  0  0  0  0  0  0  0  0  0  # atno 17371 bound_to 10713
  141.0707  134.0210  157.3530 LP  0  0  0  0  0  0  0  0  0  0  0  0  # atno 17394 bound_to 11000
  139.9133  135.0193  156.7781 LP  0  0  0  0  0  0  0  0  0  0  0  0  # atno 17395 bound_to 11000

$$$$
