AV-unprocessed.smi:1790|AV-procd|sdf|7217|dock4
  -GOLD-   22720 8453D 1   1.00000     0.00000
 Structure written by MMmdl.
 32 33  0  0  0  0  0  0  0  0  2 V2000
  155.1547  140.4690  161.1582 O   0  0  0  0  0  0  0  0  0  0  0  0
  154.1700  140.2207  160.4639 C   0  0  0  0  0  0  0  0  0  0  0  0
  153.4573  141.3687  159.7505 C   0  0  0  0  0  0  0  0  0  0  0  0
  152.8753  142.2274  160.7187 O   0  0  0  0  0  0  0  0  0  0  0  0
  152.8028  143.5730  160.2823 C   0  0  0  0  0  0  0  0  0  0  0  0
  152.0935  143.6168  158.9460 C   0  0  0  0  0  0  0  0  0  0  0  0
  152.4642  144.6547  157.9112 C   0  0  0  0  0  0  0  0  0  0  0  0
  151.1387  144.7439  158.6236 C   0  0  0  0  0  0  0  0  0  0  0  0
  153.6573  138.9946  160.2386 N   0  0  0  0  0  0  0  0  0  0  0  0
  154.0576  137.7418  160.7355 C   0  0  0  0  0  0  0  0  0  0  0  0
  154.5425  137.5150  161.9882 C   0  0  0  0  0  0  0  0  0  0  0  0
  154.9327  136.1870  162.4456 C   0  0  0  0  0  0  0  0  0  0  0  0
  155.4015  135.8850  163.8581 C   0  0  0  0  0  0  0  0  0  0  0  0
  156.6081  136.4048  164.0843 F   0  0  0  0  0  0  0  0  0  0  0  0
  154.5518  136.4092  164.7401 F   0  0  0  0  0  0  0  0  0  0  0  0
  155.4635  134.5704  164.0710 F   0  0  0  0  0  0  0  0  0  0  0  0
  154.7236  135.2187  161.4829 C   0  0  0  0  0  0  0  0  0  0  0  0
  154.2592  135.3588  160.2222 N   0  5  0  0  0  0  0  0  0  0  0  0
  153.9043  136.6060  159.8024 C   0  0  0  0  0  0  0  0  0  0  0  0
  153.4628  136.8022  158.6694 O   0  0  0  0  0  0  0  0  0  0  0  0
  154.1678  141.9198  159.1318 H   0  0  0  0  0  0  0  0  0  0  0  0
  152.6896  140.9570  159.0934 H   0  0  0  0  0  0  0  0  0  0  0  0
  152.2456  144.1752  161.0011 H   0  0  0  0  0  0  0  0  0  0  0  0
  153.8018  144.0013  160.1854 H   0  0  0  0  0  0  0  0  0  0  0  0
  151.8112  142.6368  158.5660 H   0  0  0  0  0  0  0  0  0  0  0  0
  153.2272  145.3843  158.1756 H   0  0  0  0  0  0  0  0  0  0  0  0
  152.4567  144.3462  156.8677 H   0  0  0  0  0  0  0  0  0  0  0  0
  150.2447  144.4975  158.0544 H   0  0  0  0  0  0  0  0  0  0  0  0
  151.0182  145.5345  159.3616 H   0  0  0  0  0  0  0  0  0  0  0  0
  152.8757  138.9544  159.6003 H   0  0  0  0  0  0  0  0  0  0  0  0
  154.6447  138.3178  162.6986 H   0  0  0  0  0  0  0  0  0  0  0  0
  154.9614  134.1726  161.7713 H   0  0  0  0  0  0  0  0  0  0  0  0
  1  2  2  0  0  0  0
  2  3  1  0  0  0  0
  2  9  1  0  0  0  0
  3  4  1  0  0  0  0
  3 21  1  0  0  0  0
  3 22  1  0  0  0  0
  4  5  1  0  0  0  0
  5  6  1  0  0  0  0
  5 23  1  0  0  0  0
  5 24  1  0  0  0  0
  6  8  1  0  0  0  0
  6  7  1  0  0  0  0
  6 25  1  0  0  0  0
  7  8  1  0  0  0  0
  7 26  1  0  0  0  0
  7 27  1  0  0  0  0
  8 28  1  0  0  0  0
  8 29  1  0  0  0  0
  9 10  1  0  0  0  0
  9 30  1  0  0  0  0
 10 19  1  0  0  0  0
 10 11  2  0  0  0  0
 11 12  1  0  0  0  0
 11 31  1  0  0  0  0
 12 13  1  0  0  0  0
 12 17  2  0  0  0  0
 13 14  1  0  0  0  0
 13 15  1  0  0  0  0
 13 16  1  0  0  0  0
 17 18  1  0  0  0  0
 17 32  1  0  0  0  0
 18 19  1  0  0  0  0
 19 20  2  0  0  0  0
M  CHG  1  18  -1
M  END
> <s_m_source_file>
AV-unprocessed.smi

> <i_m_source_file_index>
1790

> <i_lp_mmshare_version>
43012

> <i_f3d_flags>
0

> <s_epik_input>
W0NIMl0xW0NIMl1bQ0hdMVtDSDJdT1tDSDJdQyg9TylbTkhdYzJbY0hdYyhDKEYpKEYpRilbY0hdW25IXWMyPU8=

> <s_epik_cmdline>
J2VwaWtfcHl0aG9uJywgJy1waCcsICc3LjAnLCAnLXRuJywgJzgnLCAnLW1hJywgJzIwMCcsICctbWV0YWxfYmluZGluZycsICctaW1hZScsICc8aW5maWxlLm1hZT4nLCAnLW9tYWUnLCAnPG91dGZpbGUubWFlPic=

> <r_epik_Ionization_Penalty>
2.6027

> <r_epik_Ionization_Penalty_Charging>
0.0561891

> <r_epik_Ionization_Penalty_Neutral>
2.54651

> <r_epik_State_Penalty>
2.71477

> <r_epik_Charging_Adjusted_Penalty>
2.77096

> <i_epik_Tot_Q>
-1

> <i_epik_Tot_abs_Q>
1

> <r_epik_Metal_State_Penalty>
0.521168

> <b_epik_Metal_Only>
0

> <s_lp_Force_Field>
OPLS_2005

> <r_lp_Energy>
28.814

> <b_lp_Chiralities_Consistent>
1

> <s_lp_Variant>
AV-unprocessed.smi:1790-2

> <Gold.Version>
5.8.1

> <Gold.Id.Protein>
6NUR|6NUR_protein|mol2

> <Gold.PLP.Fitness>
46.0887

> <Gold.PLP.PLP>
-41.7642

> <Gold.PLP.part.hbond>
-1.2783

> <Gold.PLP.part.metal>
0.0000

> <Gold.PLP.part.buried>
-3.8873

> <Gold.PLP.part.nonpolar>
-36.9330

> <Gold.PLP.part.repulsive>
0.0671

> <Gold.PLP.ligand.clash>
0.0059

> <Gold.PLP.ligand.torsion>
1.1602

> <Gold.PLP.Chemscore.Hbond>
2.0000

> <Gold.PLP.Chemscore.CHOScore>
0.0000

> <Gold.PLP.Chemscore.Metal>
0.0000

> <Gold.Chemscore.Hbonds>
donor molecule, donor type, donor heavy atom, donor atom, acceptor molecule, acceptor atom, score
      P1  H  6896  6907       L1    18  2.00

> <Gold.PLP.Chemscore.Internal.Correction>
0.6508

> <Gold.Rescore>
     Score         DG    S(hbond)    S(metal)    S(lipo)     H(rot)  DE(clash)    DE(int)     intcor
     11.49     -12.49       0.15        0.00      95.78       1.83       0.10       0.91       ----

> <Gold.Chemscore.Fitness>
11.4868

> <Gold.Chemscore.DG>
-12.4934

> <Gold.Chemscore.ZeroCoef>
-5.4800

> <Gold.Chemscore.Hbond>
0.1494

> <Gold.Chemscore.Metal>
0.0000

> <Gold.Chemscore.Lipo>
95.7779

> <Gold.Chemscore.Internal_Hbond>
0.0000

> <Gold.Chemscore.DEClash>
0.0988

> <Gold.Chemscore.DEInternal>
0.9078

> <Gold.Chemscore.Rot>
1.8326

> <Gold.Chemscore.Internal.Correction>
   9.000000E+99

> <Gold.Chemscore.Hbonds>
donor molecule, donor type, donor heavy atom, donor atom, acceptor molecule, acceptor atom, score
      P1  H  6896  6907       L1    18  0.21

> <Gold.Chemscore.Hbond.Weighted>
-0.4990

> <Gold.Chemscore.Metal.Weighted>
-0.0000

> <Gold.Chemscore.Lipo.Weighted>
-11.2060

> <Gold.Chemscore.Internal_Hbond.Weighted>
0.0000

> <Gold.Chemscore.DEClash.Weighted>
0.0988

> <Gold.Chemscore.DEInternal.Weighted>
0.9078

> <Gold.Chemscore.Rot.Weighted>
4.6916

> <Gold.Chemscore.Internal.Correction.Weighted>
   9.000000E+99

> <Gold.Protein.RotatedTorsions>
[ 6907 6896 6895 6894 ] final   77.13 input  -60.11 | X-H torsion
[ 7974 7965 7964 7962 ] final   32.06 input  175.53 | X-H torsion
[ 8008 7997 7996 7995 ] final  140.18 input   59.86 | X-H torsion
[ 10167 10162 10161 10158 ] final  -40.42 input  -65.29 | X-H torsion
[ 10718 10713 10712 10709 ] final  -46.29 input   66.30 | X-H torsion
[ 10763 10752 10751 10750 ] final  123.00 input  -60.55 | X-H torsion
[ 11005 11000 10999 10996 ] final   79.58 input  -57.11 | X-H torsion

> <Gold.Protein.ActiveResidues>
 VAL166  LYS551  ARG553  GLY616  TRP617  ASP618  TYR619  PRO620  LYS621  CYS622 
 ASP623  PHE694  ASN695  SER759  ASP760  ASP761  ALA762  ILE779  LEU786  VAL792 
 PHE793  MET794  SER795  GLU796  ALA797  LYS798  CYS799  TRP800  GLU811  SER814 

> <Gold.Protein.RotatedAtoms>
  152.5104  134.3863  159.9368 H   0  0  0  0  0  0  0  0  0  0  0  0  # atno 6907 bound_to 6896
  151.3822  133.3811  159.2719 H   0  0  0  0  0  0  0  0  0  0  0  0  # atno 6908 bound_to 6896
  150.9496  134.8918  159.7722 H   0  0  0  0  0  0  0  0  0  0  0  0  # atno 6909 bound_to 6896
  146.1511  139.6576  142.9098 H   0  0  0  0  0  0  0  0  0  0  0  0  # atno 7974 bound_to 7965
  156.2982  140.2348  156.4359 H   0  0  0  0  0  0  0  0  0  0  0  0  # atno 8008 bound_to 7997
  154.8229  140.0437  157.1443 H   0  0  0  0  0  0  0  0  0  0  0  0  # atno 8009 bound_to 7997
  154.9295  140.3014  155.5179 H   0  0  0  0  0  0  0  0  0  0  0  0  # atno 8010 bound_to 7997
  140.7034  143.3154  151.2922 H   0  0  0  0  0  0  0  0  0  0  0  0  # atno 10167 bound_to 10162
  156.2198  130.4165  149.9008 H   0  0  0  0  0  0  0  0  0  0  0  0  # atno 10718 bound_to 10713
  153.6386  135.3383  155.3064 H   0  0  0  0  0  0  0  0  0  0  0  0  # atno 10763 bound_to 10752
  154.8564  135.4313  154.2028 H   0  0  0  0  0  0  0  0  0  0  0  0  # atno 10764 bound_to 10752
  153.2942  135.7019  153.7338 H   0  0  0  0  0  0  0  0  0  0  0  0  # atno 10765 bound_to 10752
  139.9167  134.7854  156.1798 H   0  0  0  0  0  0  0  0  0  0  0  0  # atno 11005 bound_to 11000
  145.4821  141.0438  143.2640 LP  0  0  0  0  0  0  0  0  0  0  0  0  # atno 17320 bound_to 7965
  144.7905  139.6338  143.7115 LP  0  0  0  0  0  0  0  0  0  0  0  0  # atno 17321 bound_to 7965
  139.6591  144.0222  152.2680 LP  0  0  0  0  0  0  0  0  0  0  0  0  # atno 17342 bound_to 10162
  139.9783  144.6446  150.7924 LP  0  0  0  0  0  0  0  0  0  0  0  0  # atno 17343 bound_to 10162
  156.6658  130.8800  151.3554 LP  0  0  0  0  0  0  0  0  0  0  0  0  # atno 17370 bound_to 10713
  157.7081  130.9409  150.0999 LP  0  0  0  0  0  0  0  0  0  0  0  0  # atno 17371 bound_to 10713
  141.0649  133.6824  156.2026 LP  0  0  0  0  0  0  0  0  0  0  0  0  # atno 17394 bound_to 11000
  140.6601  134.4977  157.5583 LP  0  0  0  0  0  0  0  0  0  0  0  0  # atno 17395 bound_to 11000

$$$$
