AV-unprocessed.smi:232|AV-procd|sdf|1774|dock1
  -GOLD-   2262020313D 1   1.00000     0.00000
 Structure written by MMmdl.
 52 55  0  0  0  0  0  0  0  0  1 V2000
  149.1180  144.8302  160.8062 C   0  0  0  0  0  0  0  0  0  0  0  0
  149.7845  144.3111  159.5260 C   0  0  0  0  0  0  0  0  0  0  0  0
  151.2634  143.9151  159.7312 C   0  0  1  0  0  0  0  0  0  0  0  0
  151.7765  144.2077  161.1548 C   0  0  0  0  0  0  0  0  0  0  0  0
  152.4702  142.9218  161.6187 C   0  0  0  0  0  0  0  0  0  0  0  0
  152.6420  142.0892  160.3473 C   0  0  2  0  0  0  0  0  0  0  0  0
  154.0014  142.3594  159.6691 C   0  0  0  0  0  0  0  0  0  0  0  0
  151.5028  142.4863  159.5269 N   0  0  0  0  0  0  0  0  0  0  0  0
  151.4027  141.9225  158.2932 C   0  0  0  0  0  0  0  0  0  0  0  0
  150.6587  142.5263  157.3279 N   0  0  0  0  0  0  0  0  0  0  0  0
  150.5680  141.9900  156.1078 C   0  0  0  0  0  0  0  0  0  0  0  0
  151.1330  140.8747  155.6430 N   0  0  0  0  0  0  0  0  0  0  0  0
  151.8803  140.2626  156.6055 C   0  0  0  0  0  0  0  0  0  0  0  0
  152.0686  140.7138  157.9428 C   0  0  0  0  0  0  0  0  0  0  0  0
  152.8881  139.8242  158.6287 N   0  0  0  0  0  0  0  0  0  0  0  0
  153.1707  138.9040  157.7478 C   0  0  0  0  0  0  0  0  0  0  0  0
  152.6040  139.0876  156.5078 N   0  0  0  0  0  0  0  0  0  0  0  0
  152.7420  138.2165  155.3541 C   0  0  0  0  0  0  0  0  0  0  0  0
  151.3944  137.6158  154.9066 C   0  0  1  0  0  0  0  0  0  0  0  0
  151.6127  136.6789  153.8680 O   0  0  0  0  0  0  0  0  0  0  0  0
  150.6445  136.9435  156.0747 C   0  0  2  0  0  0  0  0  0  0  0  0
  151.3270  135.7235  156.7209 C   0  0  0  0  0  0  0  0  0  0  0  0
  150.3187  134.6054  156.5296 C   0  0  0  0  0  0  0  0  0  0  0  0
  149.0034  135.3619  156.3979 C   0  0  0  0  0  0  0  0  0  0  0  0
  149.3646  136.5007  155.6338 O   0  0  0  0  0  0  0  0  0  0  0  0
  148.0817  145.1098  160.6160 H   0  0  0  0  0  0  0  0  0  0  0  0
  149.6349  145.7115  161.1866 H   0  0  0  0  0  0  0  0  0  0  0  0
  149.1167  144.0762  161.5933 H   0  0  0  0  0  0  0  0  0  0  0  0
  149.2250  143.4577  159.1415 H   0  0  0  0  0  0  0  0  0  0  0  0
  149.7018  145.0877  158.7661 H   0  0  0  0  0  0  0  0  0  0  0  0
  151.8822  144.4689  159.0234 H   0  0  0  0  0  0  0  0  0  0  0  0
  152.4759  145.0443  161.1362 H   0  0  0  0  0  0  0  0  0  0  0  0
  150.9730  144.4702  161.8442 H   0  0  0  0  0  0  0  0  0  0  0  0
  153.4087  143.1099  162.1411 H   0  0  0  0  0  0  0  0  0  0  0  0
  151.8141  142.3905  162.3095 H   0  0  0  0  0  0  0  0  0  0  0  0
  152.5768  141.0331  160.6069 H   0  0  0  0  0  0  0  0  0  0  0  0
  154.8241  142.0987  160.3353 H   0  0  0  0  0  0  0  0  0  0  0  0
  154.1173  143.4085  159.3956 H   0  0  0  0  0  0  0  0  0  0  0  0
  154.1209  141.7644  158.7633 H   0  0  0  0  0  0  0  0  0  0  0  0
  149.9560  142.5326  155.4028 H   0  0  0  0  0  0  0  0  0  0  0  0
  153.7996  138.0571  157.9812 H   0  0  0  0  0  0  0  0  0  0  0  0
  153.2004  138.7818  154.5418 H   0  0  0  0  0  0  0  0  0  0  0  0
  153.4420  137.4209  155.6116 H   0  0  0  0  0  0  0  0  0  0  0  0
  150.7740  138.4195  154.5078 H   0  0  0  0  0  0  0  0  0  0  0  0
  151.1579  136.9793  153.0959 H   0  0  0  0  0  0  0  0  0  0  0  0
  150.4582  137.6884  156.8501 H   0  0  0  0  0  0  0  0  0  0  0  0
  152.2956  135.4754  156.2858 H   0  0  0  0  0  0  0  0  0  0  0  0
  151.4860  135.9101  157.7836 H   0  0  0  0  0  0  0  0  0  0  0  0
  150.5300  134.0697  155.6032 H   0  0  0  0  0  0  0  0  0  0  0  0
  150.3179  133.8849  157.3477 H   0  0  0  0  0  0  0  0  0  0  0  0
  148.2259  134.7762  155.9069 H   0  0  0  0  0  0  0  0  0  0  0  0
  148.6353  135.6777  157.3754 H   0  0  0  0  0  0  0  0  0  0  0  0
  1  2  1  0  0  0  0
  1 26  1  0  0  0  0
  1 27  1  0  0  0  0
  1 28  1  0  0  0  0
  2  3  1  0  0  0  0
  2 29  1  0  0  0  0
  2 30  1  0  0  0  0
  3  8  1  0  0  0  0
  3  4  1  0  0  0  0
  3 31  1  0  0  0  0
  4  5  1  0  0  0  0
  4 32  1  0  0  0  0
  4 33  1  0  0  0  0
  5  6  1  0  0  0  0
  5 34  1  0  0  0  0
  5 35  1  0  0  0  0
  6  7  1  0  0  0  0
  6  8  1  0  0  0  0
  6 36  1  0  0  0  0
  7 37  1  0  0  0  0
  7 38  1  0  0  0  0
  7 39  1  0  0  0  0
  8  9  1  0  0  0  0
  9 14  1  0  0  0  0
  9 10  2  0  0  0  0
 10 11  1  0  0  0  0
 11 12  2  0  0  0  0
 11 40  1  0  0  0  0
 12 13  1  0  0  0  0
 13 17  1  0  0  0  0
 13 14  2  0  0  0  0
 14 15  1  0  0  0  0
 15 16  2  0  0  0  0
 16 17  1  0  0  0  0
 16 41  1  0  0  0  0
 17 18  1  0  0  0  0
 18 19  1  0  0  0  0
 18 42  1  0  0  0  0
 18 43  1  0  0  0  0
 19 20  1  0  0  0  0
 19 21  1  0  0  0  0
 19 44  1  0  0  0  0
 20 45  1  0  0  0  0
 21 25  1  0  0  0  0
 21 22  1  0  0  0  0
 21 46  1  0  0  0  0
 22 23  1  0  0  0  0
 22 47  1  0  0  0  0
 22 48  1  0  0  0  0
 23 24  1  0  0  0  0
 23 49  1  0  0  0  0
 23 50  1  0  0  0  0
 24 25  1  0  0  0  0
 24 51  1  0  0  0  0
 24 52  1  0  0  0  0
M  END
> <s_m_source_file>
AV-unprocessed.smi

> <i_m_source_file_index>
232

> <i_lp_mmshare_version>
43012

> <i_f3d_flags>
0

> <s_epik_input>
W0NIM11bQ0gyXVtDQEBIXTFbQ0gyXVtDSDJdW0NAQEhdKFtDSDNdKU4xYyhuW2NIXW4yKWMoYzIzKW5bY0hdbjNbQ0gyXVtDQEhdKFtPSF0pW0NAQEhdNFtDSDJdW0NIMl1bQ0gyXU80

> <s_epik_cmdline>
J2VwaWtfcHl0aG9uJywgJy1waCcsICc3LjAnLCAnLXRuJywgJzgnLCAnLW1hJywgJzIwMCcsICctbWV0YWxfYmluZGluZycsICctaW1hZScsICc8aW5maWxlLm1hZT4nLCAnLW9tYWUnLCAnPG91dGZpbGUubWFlPic=

> <r_lp_tautomer_probability>
1

> <r_epik_Ionization_Penalty>
0.00258048

> <r_epik_Ionization_Penalty_Charging>
0

> <r_epik_Ionization_Penalty_Neutral>
0.00258048

> <r_epik_State_Penalty>
0.00168551

> <r_epik_Charging_Adjusted_Penalty>
0.00168551

> <i_epik_Tot_Q>
0

> <i_epik_Tot_abs_Q>
0

> <r_epik_Metal_State_Penalty>
-0

> <b_epik_Metal_Only>
0

> <s_lp_Force_Field>
OPLS_2005

> <r_lp_Energy>
56.0552

> <b_lp_Chiralities_Consistent>
1

> <s_lp_Variant>
AV-unprocessed.smi:232-8

> <Gold.Version>
5.8.1

> <Gold.Id.Protein>
6NUR|6NUR_protein|mol2

> <Gold.PLP.Fitness>
50.5323

> <Gold.PLP.PLP>
-44.0473

> <Gold.PLP.part.hbond>
-3.2557

> <Gold.PLP.part.metal>
0.0000

> <Gold.PLP.part.buried>
-5.6562

> <Gold.PLP.part.nonpolar>
-34.7123

> <Gold.PLP.part.repulsive>
0.2282

> <Gold.PLP.ligand.clash>
0.0000

> <Gold.PLP.ligand.torsion>
1.4013

> <Gold.PLP.Chemscore.Hbond>
1.9246

> <Gold.PLP.Chemscore.CHOScore>
0.9797

> <Gold.PLP.Chemscore.Metal>
0.0000

> <Gold.Chemscore.Hbonds>
donor molecule, donor type, donor heavy atom, donor atom, acceptor molecule, acceptor atom, score
      L1  H    20    45       P1  7949  0.43
      P1  H  7989  7998       L1    12  0.43
      P1  H 10752 10764       L1    20  1.00
      L1  C    11    40       P1  8028  0.99

> <Gold.PLP.Chemscore.Internal.Correction>
0.5745

> <Gold.Rescore>
     Score         DG    S(hbond)    S(metal)    S(lipo)     H(rot)  DE(clash)    DE(int)     intcor
     13.31     -17.47       1.89        0.00     101.67       2.43       0.53       3.64       ----

> <Gold.Chemscore.Fitness>
13.3120

> <Gold.Chemscore.DG>
-17.4740

> <Gold.Chemscore.ZeroCoef>
-5.4800

> <Gold.Chemscore.Hbond>
1.8890

> <Gold.Chemscore.Metal>
0.0000

> <Gold.Chemscore.Lipo>
101.6719

> <Gold.Chemscore.Internal_Hbond>
0.0000

> <Gold.Chemscore.DEClash>
0.5260

> <Gold.Chemscore.DEInternal>
3.6360

> <Gold.Chemscore.Rot>
2.4260

> <Gold.Chemscore.Internal.Correction>
   9.000000E+99

> <Gold.Chemscore.Hbonds>
donor molecule, donor type, donor heavy atom, donor atom, acceptor molecule, acceptor atom, score
      L1  H    20    45       P1  7949  0.22
      P1  H  7989  7998       L1    12  0.39
      P1  H 10752 10764       L1    20  0.93

> <Gold.Chemscore.Hbond.Weighted>
-6.3091

> <Gold.Chemscore.Metal.Weighted>
-0.0000

> <Gold.Chemscore.Lipo.Weighted>
-11.8956

> <Gold.Chemscore.Internal_Hbond.Weighted>
0.0000

> <Gold.Chemscore.DEClash.Weighted>
0.5260

> <Gold.Chemscore.DEInternal.Weighted>
3.6360

> <Gold.Chemscore.Rot.Weighted>
6.2107

> <Gold.Chemscore.Internal.Correction.Weighted>
   9.000000E+99

> <Gold.Protein.RotatedTorsions>
[ 6907 6896 6895 6894 ] final  176.14 input  -60.11 | X-H torsion
[ 7974 7965 7964 7962 ] final  -63.36 input  175.53 | X-H torsion
[ 8008 7997 7996 7995 ] final  -90.62 input   59.86 | X-H torsion
[ 10167 10162 10161 10158 ] final -177.35 input  -65.29 | X-H torsion
[ 10718 10713 10712 10709 ] final  113.64 input   66.30 | X-H torsion
[ 10763 10752 10751 10750 ] final  -93.24 input  -60.55 | X-H torsion
[ 11005 11000 10999 10996 ] final  103.68 input  -57.11 | X-H torsion

> <Gold.Protein.ActiveResidues>
 VAL166  LYS551  ARG553  GLY616  TRP617  ASP618  TYR619  PRO620  LYS621  CYS622 
 ASP623  PHE694  ASN695  SER759  ASP760  ASP761  ALA762  ILE779  LEU786  VAL792 
 PHE793  MET794  SER795  GLU796  ALA797  LYS798  CYS799  TRP800  GLU811  SER814 

> <Gold.Protein.RotatedAtoms>
  151.7248  133.3315  159.3324 H   0  0  0  0  0  0  0  0  0  0  0  0  # atno 6907 bound_to 6896
  150.7637  134.6416  159.6249 H   0  0  0  0  0  0  0  0  0  0  0  0  # atno 6908 bound_to 6896
  152.3629  134.6849  160.0253 H   0  0  0  0  0  0  0  0  0  0  0  0  # atno 6909 bound_to 6896
  145.7800  140.8767  143.0335 H   0  0  0  0  0  0  0  0  0  0  0  0  # atno 7974 bound_to 7965
  154.7008  140.0528  157.0456 H   0  0  0  0  0  0  0  0  0  0  0  0  # atno 8008 bound_to 7997
  155.0688  140.3197  155.4618 H   0  0  0  0  0  0  0  0  0  0  0  0  # atno 8009 bound_to 7997
  156.2759  140.2085  156.5815 H   0  0  0  0  0  0  0  0  0  0  0  0  # atno 8010 bound_to 7997
  139.5484  144.2173  152.1032 H   0  0  0  0  0  0  0  0  0  0  0  0  # atno 10167 bound_to 10162
  157.6327  131.0986  150.7070 H   0  0  0  0  0  0  0  0  0  0  0  0  # atno 10718 bound_to 10713
  154.6940  135.5201  153.8432 H   0  0  0  0  0  0  0  0  0  0  0  0  # atno 10763 bound_to 10752
  153.0653  135.6583  154.0378 H   0  0  0  0  0  0  0  0  0  0  0  0  # atno 10764 bound_to 10752
  154.0248  135.2990  155.3356 H   0  0  0  0  0  0  0  0  0  0  0  0  # atno 10765 bound_to 10752
  139.8785  134.9272  156.5246 H   0  0  0  0  0  0  0  0  0  0  0  0  # atno 11005 bound_to 11000
  144.6798  139.9975  143.7484 LP  0  0  0  0  0  0  0  0  0  0  0  0  # atno 17320 bound_to 7965
  146.0084  139.3149  143.0885 LP  0  0  0  0  0  0  0  0  0  0  0  0  # atno 17321 bound_to 7965
  140.1664  144.4977  150.6604 LP  0  0  0  0  0  0  0  0  0  0  0  0  # atno 17342 bound_to 10162
  140.6740  143.2297  151.5554 LP  0  0  0  0  0  0  0  0  0  0  0  0  # atno 17343 bound_to 10162
  156.7406  130.4738  149.5478 LP  0  0  0  0  0  0  0  0  0  0  0  0  # atno 17370 bound_to 10713
  156.1542  130.6330  151.0635 LP  0  0  0  0  0  0  0  0  0  0  0  0  # atno 17371 bound_to 10713
  140.8425  133.8194  155.9089 LP  0  0  0  0  0  0  0  0  0  0  0  0  # atno 17394 bound_to 11000
  140.9223  134.2126  157.4918 LP  0  0  0  0  0  0  0  0  0  0  0  0  # atno 17395 bound_to 11000

$$$$
