AV-unprocessed.smi:2448|AV-procd|sdf|9660|dock6
  -GOLD-   2272013293D 1   1.00000     0.00000
 Structure written by MMmdl.
 38 39  0  0  0  0  0  0  0  0  2 V2000
  145.2087  135.8807  149.8041 O   0  0  0  0  0  0  0  0  0  0  0  0
  145.3218  135.2054  151.0446 C   0  0  2  0  0  0  0  0  0  0  0  0
  145.8175  136.2165  152.0991 C   0  0  0  0  0  0  0  0  0  0  0  0
  144.8836  137.3332  152.2653 N   0  0  0  0  0  0  0  0  0  0  0  0
  145.3266  138.4498  153.1136 C   0  0  2  0  0  0  0  0  0  0  0  0
  146.7656  138.8138  152.6753 C   0  0  0  0  0  0  0  0  0  0  0  0
  147.3843  139.9850  153.4196 C   0  0  0  0  0  0  0  0  0  0  0  0
  148.6274  139.8435  154.0766 C   0  0  0  0  0  0  0  0  0  0  0  0
  149.1759  140.9487  154.7586 C   0  0  0  0  0  0  0  0  0  0  0  0
  148.5133  142.1260  154.7743 N   0  3  0  0  0  0  0  0  0  0  0  0
  147.3258  142.3057  154.1557 C   0  0  0  0  0  0  0  0  0  0  0  0
  146.7287  141.2358  153.4578 C   0  0  0  0  0  0  0  0  0  0  0  0
  145.2231  138.1191  154.6298 C   0  0  0  0  0  0  0  0  0  0  0  0
  146.2614  137.3953  155.0433 F   0  0  0  0  0  0  0  0  0  0  0  0
  145.1691  139.2433  155.3445 F   0  0  0  0  0  0  0  0  0  0  0  0
  144.1334  137.3984  154.8900 F   0  0  0  0  0  0  0  0  0  0  0  0
  146.3212  134.0534  150.8493 C   0  0  0  0  0  0  0  0  0  0  0  0
  145.6230  132.9580  150.0369 C   0  0  0  0  0  0  0  0  0  0  0  0
  143.8752  132.9593  150.5077 S   0  0  0  0  0  0  0  0  0  0  0  0
  143.9848  134.5317  151.4040 C   0  0  0  0  0  0  0  0  0  0  0  0
  145.5588  135.3228  149.1267 H   0  0  0  0  0  0  0  0  0  0  0  0
  145.9455  135.7060  153.0543 H   0  0  0  0  0  0  0  0  0  0  0  0
  146.8017  136.5721  151.7984 H   0  0  0  0  0  0  0  0  0  0  0  0
  144.6219  137.6869  151.3504 H   0  0  0  0  0  0  0  0  0  0  0  0
  144.6902  139.3118  152.9097 H   0  0  0  0  0  0  0  0  0  0  0  0
  147.4138  137.9416  152.7721 H   0  0  0  0  0  0  0  0  0  0  0  0
  146.7701  139.0715  151.6150 H   0  0  0  0  0  0  0  0  0  0  0  0
  149.1545  138.9004  154.0638 H   0  0  0  0  0  0  0  0  0  0  0  0
  150.1173  140.9266  155.2880 H   0  0  0  0  0  0  0  0  0  0  0  0
  146.8930  143.2922  154.2367 H   0  0  0  0  0  0  0  0  0  0  0  0
  145.7798  141.3753  152.9604 H   0  0  0  0  0  0  0  0  0  0  0  0
  147.2459  134.3815  150.3729 H   0  0  0  0  0  0  0  0  0  0  0  0
  146.5960  133.6442  151.8225 H   0  0  0  0  0  0  0  0  0  0  0  0
  145.6879  133.1818  148.9717 H   0  0  0  0  0  0  0  0  0  0  0  0
  146.0719  131.9778  150.1975 H   0  0  0  0  0  0  0  0  0  0  0  0
  143.9607  134.2984  152.4691 H   0  0  0  0  0  0  0  0  0  0  0  0
  143.1223  135.1639  151.1908 H   0  0  0  0  0  0  0  0  0  0  0  0
  148.9282  142.9131  155.2739 H   0  0  0  0  0  0  0  0  0  0  0  0
  1  2  1  0  0  0  0
  1 21  1  0  0  0  0
  2 20  1  0  0  0  0
  2  3  1  0  0  0  0
  2 17  1  0  0  0  0
  3  4  1  0  0  0  0
  3 22  1  0  0  0  0
  3 23  1  0  0  0  0
  4  5  1  0  0  0  0
  4 24  1  0  0  0  0
  5  6  1  0  0  0  0
  5 13  1  0  0  0  0
  5 25  1  0  0  0  0
  6  7  1  0  0  0  0
  6 26  1  0  0  0  0
  6 27  1  0  0  0  0
  7 12  1  0  0  0  0
  7  8  2  0  0  0  0
  8  9  1  0  0  0  0
  8 28  1  0  0  0  0
  9 10  2  0  0  0  0
  9 29  1  0  0  0  0
 10 11  1  0  0  0  0
 10 38  1  0  0  0  0
 11 12  2  0  0  0  0
 11 30  1  0  0  0  0
 12 31  1  0  0  0  0
 13 14  1  0  0  0  0
 13 15  1  0  0  0  0
 13 16  1  0  0  0  0
 17 18  1  0  0  0  0
 17 32  1  0  0  0  0
 17 33  1  0  0  0  0
 18 19  1  0  0  0  0
 18 34  1  0  0  0  0
 18 35  1  0  0  0  0
 19 20  1  0  0  0  0
 20 36  1  0  0  0  0
 20 37  1  0  0  0  0
M  CHG  1  10   1
M  END
> <s_m_source_file>
AV-unprocessed.smi

> <i_m_source_file_index>
2448

> <i_lp_mmshare_version>
43012

> <i_f3d_flags>
0

> <s_epik_input>
W0NIMl0xU1tDSDJdW0NIMl1bQ0BAXTEoW09IXSlbQ0gyXVtOSF1bQ0BASF0oQyhGKShGKUYpW0NIMl1jMltjSF1bY0hdbltjSF1bY0hdMg==

> <s_epik_cmdline>
J2VwaWtfcHl0aG9uJywgJy1waCcsICc3LjAnLCAnLXRuJywgJzgnLCAnLW1hJywgJzIwMCcsICctbWV0YWxfYmluZGluZycsICctaW1hZScsICc8aW5maWxlLm1hZT4nLCAnLW9tYWUnLCAnPG91dGZpbGUubWFlPic=

> <r_epik_Ionization_Penalty>
1.11129

> <r_epik_Ionization_Penalty_Charging>
1.08366

> <r_epik_Ionization_Penalty_Neutral>
0.0276276

> <r_epik_State_Penalty>
1.93785

> <r_epik_Charging_Adjusted_Penalty>
3.02151

> <i_epik_Tot_Q>
1

> <i_epik_Tot_abs_Q>
1

> <r_epik_Metal_State_Penalty>
5.97911

> <b_epik_Metal_Only>
0

> <s_lp_Force_Field>
OPLS_2005

> <r_lp_Energy>
38.3653

> <b_lp_Chiralities_Consistent>
1

> <s_lp_Variant>
AV-unprocessed.smi:2448-10

> <Gold.Version>
5.8.1

> <Gold.Id.Protein>
6NUR|6NUR_protein|mol2

> <Gold.PLP.Fitness>
43.3997

> <Gold.PLP.PLP>
-32.5386

> <Gold.PLP.part.hbond>
-4.1248

> <Gold.PLP.part.metal>
0.0000

> <Gold.PLP.part.buried>
0.4938

> <Gold.PLP.part.nonpolar>
-29.0616

> <Gold.PLP.part.repulsive>
0.2046

> <Gold.PLP.ligand.clash>
0.0000

> <Gold.PLP.ligand.torsion>
0.7603

> <Gold.PLP.Chemscore.Hbond>
3.9840

> <Gold.PLP.Chemscore.CHOScore>
0.0000

> <Gold.PLP.Chemscore.Metal>
0.0000

> <Gold.Chemscore.Hbonds>
donor molecule, donor type, donor heavy atom, donor atom, acceptor molecule, acceptor atom, score
      L1  H     1    21       P1  7921  1.00
      L1  H     4    24       P1 10171  1.00
      L1  H    10    38       P1  8028  1.89

> <Gold.PLP.Chemscore.Internal.Correction>
0.4297

> <Gold.Rescore>
     Score         DG    S(hbond)    S(metal)    S(lipo)     H(rot)  DE(clash)    DE(int)     intcor
     16.92     -19.43       2.98        0.00      87.32       2.42       1.54       0.98       ----

> <Gold.Chemscore.Fitness>
16.9153

> <Gold.Chemscore.DG>
-19.4344

> <Gold.Chemscore.ZeroCoef>
-5.4800

> <Gold.Chemscore.Hbond>
2.9777

> <Gold.Chemscore.Metal>
0.0000

> <Gold.Chemscore.Lipo>
87.3185

> <Gold.Chemscore.Internal_Hbond>
0.0000

> <Gold.Chemscore.DEClash>
1.5421

> <Gold.Chemscore.DEInternal>
0.9770

> <Gold.Chemscore.Rot>
2.4247

> <Gold.Chemscore.Internal.Correction>
   9.000000E+99

> <Gold.Chemscore.Hbonds>
donor molecule, donor type, donor heavy atom, donor atom, acceptor molecule, acceptor atom, score
      L1  H     1    21       P1  7921  0.99
      L1  H     4    24       P1 10171  0.99
      L1  H    10    38       P1  8028  0.91

> <Gold.Chemscore.Hbond.Weighted>
-9.9454

> <Gold.Chemscore.Metal.Weighted>
-0.0000

> <Gold.Chemscore.Lipo.Weighted>
-10.2163

> <Gold.Chemscore.Internal_Hbond.Weighted>
0.0000

> <Gold.Chemscore.DEClash.Weighted>
1.5421

> <Gold.Chemscore.DEInternal.Weighted>
0.9770

> <Gold.Chemscore.Rot.Weighted>
6.2072

> <Gold.Chemscore.Internal.Correction.Weighted>
   9.000000E+99

> <Gold.Protein.RotatedTorsions>
[ 6907 6896 6895 6894 ] final   15.34 input  -60.11 | X-H torsion
[ 7974 7965 7964 7962 ] final -142.17 input  175.53 | X-H torsion
[ 8008 7997 7996 7995 ] final   31.85 input   59.86 | X-H torsion
[ 10167 10162 10161 10158 ] final  179.27 input  -65.29 | X-H torsion
[ 10718 10713 10712 10709 ] final   13.39 input   66.30 | X-H torsion
[ 10763 10752 10751 10750 ] final  147.43 input  -60.55 | X-H torsion
[ 11005 11000 10999 10996 ] final   60.59 input  -57.11 | X-H torsion

> <Gold.Protein.ActiveResidues>
 VAL166  LYS551  ARG553  GLY616  TRP617  ASP618  TYR619  PRO620  LYS621  CYS622 
 ASP623  PHE694  ASN695  SER759  ASP760  ASP761  ALA762  ILE779  LEU786  VAL792 
 PHE793  MET794  SER795  GLU796  ALA797  LYS798  CYS799  TRP800  GLU811  SER814 

> <Gold.Protein.RotatedAtoms>
  151.8165  135.0665  160.0419 H   0  0  0  0  0  0  0  0  0  0  0  0  # atno 6907 bound_to 6896
  152.2982  133.5624  159.5610 H   0  0  0  0  0  0  0  0  0  0  0  0  # atno 6908 bound_to 6896
  150.7261  134.0246  159.3755 H   0  0  0  0  0  0  0  0  0  0  0  0  # atno 6909 bound_to 6896
  144.8463  140.5990  143.5419 H   0  0  0  0  0  0  0  0  0  0  0  0  # atno 7974 bound_to 7965
  155.1130  140.3241  155.4516 H   0  0  0  0  0  0  0  0  0  0  0  0  # atno 8008 bound_to 7997
  156.2685  140.2040  156.6202 H   0  0  0  0  0  0  0  0  0  0  0  0  # atno 8009 bound_to 7997
  154.6741  140.0533  157.0184 H   0  0  0  0  0  0  0  0  0  0  0  0  # atno 8010 bound_to 7997
  139.5329  144.2581  152.0729 H   0  0  0  0  0  0  0  0  0  0  0  0  # atno 10167 bound_to 10162
  157.0239  130.6166  149.5725 H   0  0  0  0  0  0  0  0  0  0  0  0  # atno 10718 bound_to 10713
  154.0382  135.2892  155.3359 H   0  0  0  0  0  0  0  0  0  0  0  0  # atno 10763 bound_to 10752
  154.6945  135.5213  153.8443 H   0  0  0  0  0  0  0  0  0  0  0  0  # atno 10764 bound_to 10752
  153.0611  135.6614  154.0589 H   0  0  0  0  0  0  0  0  0  0  0  0  # atno 10765 bound_to 10752
  140.0221  134.6138  155.9625 H   0  0  0  0  0  0  0  0  0  0  0  0  # atno 11005 bound_to 11000
  145.4590  139.1515  143.3877 LP  0  0  0  0  0  0  0  0  0  0  0  0  # atno 17320 bound_to 7965
  146.2747  140.4719  142.8800 LP  0  0  0  0  0  0  0  0  0  0  0  0  # atno 17321 bound_to 7965
  140.2047  144.4622  150.6414 LP  0  0  0  0  0  0  0  0  0  0  0  0  # atno 17342 bound_to 10162
  140.6518  143.2227  151.6059 LP  0  0  0  0  0  0  0  0  0  0  0  0  # atno 17343 bound_to 10162
  156.0092  130.5182  150.7934 LP  0  0  0  0  0  0  0  0  0  0  0  0  # atno 17370 bound_to 10713
  157.5229  131.0932  151.0056 LP  0  0  0  0  0  0  0  0  0  0  0  0  # atno 17371 bound_to 10713
  141.1780  133.6542  156.4905 LP  0  0  0  0  0  0  0  0  0  0  0  0  # atno 17394 bound_to 11000
  140.4370  134.7050  157.4972 LP  0  0  0  0  0  0  0  0  0  0  0  0  # atno 17395 bound_to 11000

$$$$
