AV-unprocessed.smi:3330|AV-procd|sdf|12813|dock10
  -GOLD-   2272019183D 1   1.00000     0.00000
 Structure written by MMmdl.
 37 38  0  0  0  0  0  0  0  0  2 V2000
  153.7107  139.8397  160.2232 C   0  0  0  0  0  0  0  0  0  0  0  0
  152.7312  140.9405  159.7695 C   0  0  2  0  0  0  0  0  0  0  0  0
  152.8052  141.0572  158.3155 N   0  0  0  0  0  0  0  0  0  0  0  0
  151.8152  140.2312  157.6419 C   0  0  0  0  0  0  0  0  0  0  0  0
  152.5161  139.3461  156.6005 C   0  0  0  0  0  0  0  0  0  0  0  0
  151.5394  138.6688  155.7432 N   0  0  0  0  0  0  0  0  0  0  0  0
  150.6573  139.3013  154.9633 C   0  0  0  0  0  0  0  0  0  0  0  0
  150.4967  140.5151  154.8313 O   0  0  0  0  0  0  0  0  0  0  0  0
  149.8598  138.2473  154.2308 C   0  0  0  0  0  0  0  0  0  0  0  0
  150.4461  137.0202  154.7205 N   0  5  0  0  0  0  0  0  0  0  0  0
  151.4268  137.3342  155.5996 C   0  0  0  0  0  0  0  0  0  0  0  0
  152.1489  136.5447  156.2079 O   0  0  0  0  0  0  0  0  0  0  0  0
  153.0450  142.3274  160.3944 C   0  0  2  0  0  0  0  0  0  0  0  0
  153.0146  142.3217  161.9353 C   0  0  0  0  0  0  0  0  0  0  0  0
  152.1416  143.3543  159.8835 N   0  0  0  0  0  0  0  0  0  0  0  0
  152.1610  144.7098  160.1419 C   0  0  0  0  0  0  0  0  0  0  0  0
  151.1452  145.2778  159.4279 C   0  0  0  0  0  0  0  0  0  0  0  0
  150.5545  144.1770  158.7475 C   0  0  0  0  0  0  0  0  0  0  0  0
  151.1509  143.0285  159.0217 N   0  0  0  0  0  0  0  0  0  0  0  0
  153.6325  139.6548  161.2941 H   0  0  0  0  0  0  0  0  0  0  0  0
  154.7438  140.1132  160.0064 H   0  0  0  0  0  0  0  0  0  0  0  0
  153.5103  138.8881  159.7315 H   0  0  0  0  0  0  0  0  0  0  0  0
  151.7173  140.6578  160.0571 H   0  0  0  0  0  0  0  0  0  0  0  0
  153.7346  140.8319  157.9909 H   0  0  0  0  0  0  0  0  0  0  0  0
  151.2851  139.6101  158.3638 H   0  0  0  0  0  0  0  0  0  0  0  0
  151.0778  140.8689  157.1522 H   0  0  0  0  0  0  0  0  0  0  0  0
  153.1906  139.9488  155.9895 H   0  0  0  0  0  0  0  0  0  0  0  0
  153.1481  138.6086  157.0985 H   0  0  0  0  0  0  0  0  0  0  0  0
  148.8017  138.3460  154.4750 H   0  0  0  0  0  0  0  0  0  0  0  0
  149.9719  138.3792  153.1542 H   0  0  0  0  0  0  0  0  0  0  0  0
  154.0540  142.6166  160.0958 H   0  0  0  0  0  0  0  0  0  0  0  0
  153.8096  141.7032  162.3507 H   0  0  0  0  0  0  0  0  0  0  0  0
  152.0647  141.9459  162.3167 H   0  0  0  0  0  0  0  0  0  0  0  0
  153.1567  143.3279  162.3313 H   0  0  0  0  0  0  0  0  0  0  0  0
  152.8916  145.1530  160.8023 H   0  0  0  0  0  0  0  0  0  0  0  0
  150.8702  146.3214  159.3922 H   0  0  0  0  0  0  0  0  0  0  0  0
  149.7161  144.1785  158.0666 H   0  0  0  0  0  0  0  0  0  0  0  0
  1  2  1  0  0  0  0
  1 20  1  0  0  0  0
  1 21  1  0  0  0  0
  1 22  1  0  0  0  0
  2  3  1  0  0  0  0
  2 13  1  0  0  0  0
  2 23  1  0  0  0  0
  3  4  1  0  0  0  0
  3 24  1  0  0  0  0
  4  5  1  0  0  0  0
  4 25  1  0  0  0  0
  4 26  1  0  0  0  0
  5  6  1  0  0  0  0
  5 27  1  0  0  0  0
  5 28  1  0  0  0  0
  6 11  1  0  0  0  0
  6  7  1  0  0  0  0
  7  8  2  0  0  0  0
  7  9  1  0  0  0  0
  9 10  1  0  0  0  0
  9 29  1  0  0  0  0
  9 30  1  0  0  0  0
 10 11  1  0  0  0  0
 11 12  2  0  0  0  0
 13 14  1  0  0  0  0
 13 15  1  0  0  0  0
 13 31  1  0  0  0  0
 14 32  1  0  0  0  0
 14 33  1  0  0  0  0
 14 34  1  0  0  0  0
 15 19  1  0  0  0  0
 15 16  1  0  0  0  0
 16 17  2  0  0  0  0
 16 35  1  0  0  0  0
 17 18  1  0  0  0  0
 17 36  1  0  0  0  0
 18 19  2  0  0  0  0
 18 37  1  0  0  0  0
M  CHG  1  10  -1
M  END
> <s_m_source_file>
AV-unprocessed.smi

> <i_m_source_file_index>
3330

> <i_lp_mmshare_version>
43012

> <i_f3d_flags>
0

> <s_epik_input>
bjFbY0hdW2NIXVtjSF1uMVtDQEBIXShbQ0gzXSlbQ0BIXShbQ0gzXSlbTkhdW0NIMl1bQ0gyXU4yQyg9TylbQ0gyXVtOSF1DMj1P

> <s_epik_cmdline>
J2VwaWtfcHl0aG9uJywgJy1waCcsICc3LjAnLCAnLXRuJywgJzgnLCAnLW1hJywgJzIwMCcsICctbWV0YWxfYmluZGluZycsICctaW1hZScsICc8aW5maWxlLm1hZT4nLCAnLW9tYWUnLCAnPG91dGZpbGUubWFlPic=

> <r_lp_tautomer_probability>
1

> <r_epik_Ionization_Penalty>
8.77477

> <r_epik_Ionization_Penalty_Charging>
6.28461

> <r_epik_Ionization_Penalty_Neutral>
2.49016

> <r_epik_State_Penalty>
8.73376

> <r_epik_Charging_Adjusted_Penalty>
15.0184

> <i_epik_Tot_Q>
-1

> <i_epik_Tot_abs_Q>
1

> <r_epik_Metal_State_Penalty>
4.73175

> <b_epik_Metal_Only>
1

> <s_lp_Force_Field>
OPLS_2005

> <r_lp_Energy>
21.1742

> <b_lp_Chiralities_Consistent>
1

> <s_lp_Variant>
AV-unprocessed.smi:3330-13

> <Gold.Version>
5.8.1

> <Gold.Id.Protein>
6NUR|6NUR_protein|mol2

> <Gold.PLP.Fitness>
46.8039

> <Gold.PLP.PLP>
-39.0581

> <Gold.PLP.part.hbond>
-2.6981

> <Gold.PLP.part.metal>
0.0000

> <Gold.PLP.part.buried>
-1.5607

> <Gold.PLP.part.nonpolar>
-34.9210

> <Gold.PLP.part.repulsive>
0.3312

> <Gold.PLP.ligand.clash>
0.0000

> <Gold.PLP.ligand.torsion>
0.8749

> <Gold.PLP.Chemscore.Hbond>
2.0000

> <Gold.PLP.Chemscore.CHOScore>
1.1407

> <Gold.PLP.Chemscore.Metal>
0.0000

> <Gold.Chemscore.Hbonds>
donor molecule, donor type, donor heavy atom, donor atom, acceptor molecule, acceptor atom, score
      P1  H  7989  7998       L1     8  1.00
      P1  H 10752 10764       L1    12  1.00
      L1  C    18    37       P1  8028  0.67
      L1  C    18    37       P1  8029  0.40

> <Gold.PLP.Chemscore.Internal.Correction>
0.0734

> <Gold.Rescore>
     Score         DG    S(hbond)    S(metal)    S(lipo)     H(rot)  DE(clash)    DE(int)     intcor
     11.89     -14.34       1.45        0.00      89.55       2.52       0.14       2.31       ----

> <Gold.Chemscore.Fitness>
11.8934

> <Gold.Chemscore.DG>
-14.3449

> <Gold.Chemscore.ZeroCoef>
-5.4800

> <Gold.Chemscore.Hbond>
1.4456

> <Gold.Chemscore.Metal>
0.0000

> <Gold.Chemscore.Lipo>
89.5532

> <Gold.Chemscore.Internal_Hbond>
0.0000

> <Gold.Chemscore.DEClash>
0.1394

> <Gold.Chemscore.DEInternal>
2.3121

> <Gold.Chemscore.Rot>
2.5160

> <Gold.Chemscore.Internal.Correction>
   9.000000E+99

> <Gold.Chemscore.Hbonds>
donor molecule, donor type, donor heavy atom, donor atom, acceptor molecule, acceptor atom, score
      P1  H  7989  7998       L1     8  0.33
      P1  H 10752 10764       L1    12  0.70

> <Gold.Chemscore.Hbond.Weighted>
-4.8282

> <Gold.Chemscore.Metal.Weighted>
-0.0000

> <Gold.Chemscore.Lipo.Weighted>
-10.4777

> <Gold.Chemscore.Internal_Hbond.Weighted>
0.0000

> <Gold.Chemscore.DEClash.Weighted>
0.1394

> <Gold.Chemscore.DEInternal.Weighted>
2.3121

> <Gold.Chemscore.Rot.Weighted>
6.4410

> <Gold.Chemscore.Internal.Correction.Weighted>
   9.000000E+99

> <Gold.Protein.RotatedTorsions>
[ 6907 6896 6895 6894 ] final   30.24 input  -60.11 | X-H torsion
[ 7974 7965 7964 7962 ] final  -65.84 input  175.53 | X-H torsion
[ 8008 7997 7996 7995 ] final    7.38 input   59.86 | X-H torsion
[ 10167 10162 10161 10158 ] final  -70.49 input  -65.29 | X-H torsion
[ 10718 10713 10712 10709 ] final -123.75 input   66.30 | X-H torsion
[ 10763 10752 10751 10750 ] final  -36.40 input  -60.55 | X-H torsion
[ 11005 11000 10999 10996 ] final  -37.72 input  -57.11 | X-H torsion

> <Gold.Protein.ActiveResidues>
 VAL166  LYS551  ARG553  GLY616  TRP617  ASP618  TYR619  PRO620  LYS621  CYS622 
 ASP623  PHE694  ASN695  SER759  ASP760  ASP761  ALA762  ILE779  LEU786  VAL792 
 PHE793  MET794  SER795  GLU796  ALA797  LYS798  CYS799  TRP800  GLU811  SER814 

> <Gold.Protein.RotatedAtoms>
  152.0431  134.9699  160.0573 H   0  0  0  0  0  0  0  0  0  0  0  0  # atno 6907 bound_to 6896
  152.1130  133.4306  159.4648 H   0  0  0  0  0  0  0  0  0  0  0  0  # atno 6908 bound_to 6896
  150.6844  134.2545  159.4567 H   0  0  0  0  0  0  0  0  0  0  0  0  # atno 6909 bound_to 6896
  145.7493  140.8916  143.0488 H   0  0  0  0  0  0  0  0  0  0  0  0  # atno 7974 bound_to 7965
  154.7531  140.2770  155.6276 H   0  0  0  0  0  0  0  0  0  0  0  0  # atno 8008 bound_to 7997
  156.2900  140.2674  156.2216 H   0  0  0  0  0  0  0  0  0  0  0  0  # atno 8009 bound_to 7997
  155.0112  140.0372  157.2390 H   0  0  0  0  0  0  0  0  0  0  0  0  # atno 8010 bound_to 7997
  140.5349  143.2319  151.7196 H   0  0  0  0  0  0  0  0  0  0  0  0  # atno 10167 bound_to 10162
  156.1528  130.6547  150.9938 H   0  0  0  0  0  0  0  0  0  0  0  0  # atno 10718 bound_to 10713
  153.8791  135.6823  153.4768 H   0  0  0  0  0  0  0  0  0  0  0  0  # atno 10763 bound_to 10752
  153.1244  135.4725  154.9245 H   0  0  0  0  0  0  0  0  0  0  0  0  # atno 10764 bound_to 10752
  154.7677  135.3229  154.8204 H   0  0  0  0  0  0  0  0  0  0  0  0  # atno 10765 bound_to 10752
  140.9973  133.6973  156.1959 H   0  0  0  0  0  0  0  0  0  0  0  0  # atno 11005 bound_to 11000
  144.6853  139.9569  143.7479 LP  0  0  0  0  0  0  0  0  0  0  0  0  # atno 17320 bound_to 7965
  146.0372  139.3388  143.0719 LP  0  0  0  0  0  0  0  0  0  0  0  0  # atno 17321 bound_to 7965
  139.4967  144.4059  152.0133 LP  0  0  0  0  0  0  0  0  0  0  0  0  # atno 17342 bound_to 10162
  140.3163  144.3479  150.6021 LP  0  0  0  0  0  0  0  0  0  0  0  0  # atno 17343 bound_to 10162
  157.6671  131.0869  150.7702 LP  0  0  0  0  0  0  0  0  0  0  0  0  # atno 17370 bound_to 10713
  156.7769  130.4847  149.5408 LP  0  0  0  0  0  0  0  0  0  0  0  0  # atno 17371 bound_to 10713
  140.6945  134.4631  157.5588 LP  0  0  0  0  0  0  0  0  0  0  0  0  # atno 17394 bound_to 11000
  139.9021  134.8532  156.1852 LP  0  0  0  0  0  0  0  0  0  0  0  0  # atno 17395 bound_to 11000

$$$$
