AV-unprocessed.smi:187|AV-procd|sdf|1469|dock5
  -GOLD-   2262019283D 1   1.00000     0.00000
 Structure written by MMmdl.
 53 56  0  0  0  0  0  0  0  0  1 V2000
  143.3900  138.9369  155.8271 C   0  0  0  0  0  0  0  0  0  0  0  0
  144.2063  138.2186  156.9222 C   0  0  1  0  0  0  0  0  0  0  0  0
  143.5575  138.4862  158.2970 C   0  0  0  0  0  0  0  0  0  0  0  0
  144.2643  137.7237  159.4300 C   0  0  0  0  0  0  0  0  0  0  0  0
  144.3869  136.2155  159.1292 C   0  0  1  0  0  0  0  0  0  0  0  0
  143.0495  135.4660  159.2863 C   0  0  0  0  0  0  0  0  0  0  0  0
  142.4007  135.6246  160.4428 N   0  0  0  0  0  0  0  0  0  0  0  0
  142.6086  134.7456  158.3925 O   0  0  0  0  0  0  0  0  0  0  0  0
  145.0151  136.0161  157.7338 C   0  0  0  0  0  0  0  0  0  0  0  0
  144.3211  136.7707  156.6882 N   0  0  0  0  0  0  0  0  0  0  0  0
  144.7476  136.3692  155.4684 C   0  0  0  0  0  0  0  0  0  0  0  0
  146.0201  136.6287  155.0659 N   0  0  0  0  0  0  0  0  0  0  0  0
  146.4374  136.2128  153.8660 C   0  0  0  0  0  0  0  0  0  0  0  0
  145.7641  135.5279  152.9382 N   0  0  0  0  0  0  0  0  0  0  0  0
  144.4919  135.2552  153.3489 C   0  0  0  0  0  0  0  0  0  0  0  0
  143.9085  135.6373  154.5883 C   0  0  0  0  0  0  0  0  0  0  0  0
  142.5937  135.1959  154.6544 N   0  0  0  0  0  0  0  0  0  0  0  0
  142.4060  134.5939  153.5115 C   0  0  0  0  0  0  0  0  0  0  0  0
  143.5016  134.5615  152.6766 N   0  0  0  0  0  0  0  0  0  0  0  0
  143.5736  133.9999  151.3598 C   0  0  0  0  0  0  0  0  0  0  0  0
  143.8998  132.5221  151.1295 C   0  0  0  0  0  0  0  0  0  0  0  0
  144.6169  132.8955  149.8116 C   0  0  0  0  0  0  0  0  0  0  0  0
  145.9365  132.1530  149.5423 C   0  0  0  0  0  0  0  0  0  0  0  0
  146.8178  132.2581  150.6420 O   0  0  0  0  0  0  0  0  0  0  0  0
  143.7399  132.8436  148.5441 C   0  0  0  0  0  0  0  0  0  0  0  0
  142.6621  131.9427  148.6986 O   0  0  0  0  0  0  0  0  0  0  0  0
  144.7659  134.2953  150.4482 C   0  0  0  0  0  0  0  0  0  0  0  0
  143.2832  139.9974  156.0559 H   0  0  0  0  0  0  0  0  0  0  0  0
  142.3879  138.5151  155.7415 H   0  0  0  0  0  0  0  0  0  0  0  0
  143.8623  138.8718  154.8471 H   0  0  0  0  0  0  0  0  0  0  0  0
  145.2135  138.6378  156.9363 H   0  0  0  0  0  0  0  0  0  0  0  0
  143.5765  139.5547  158.5136 H   0  0  0  0  0  0  0  0  0  0  0  0
  142.5041  138.2062  158.2689 H   0  0  0  0  0  0  0  0  0  0  0  0
  145.2628  138.1401  159.5697 H   0  0  0  0  0  0  0  0  0  0  0  0
  143.7368  137.8848  160.3711 H   0  0  0  0  0  0  0  0  0  0  0  0
  145.0774  135.7885  159.8584 H   0  0  0  0  0  0  0  0  0  0  0  0
  141.5190  135.1573  160.5961 H   0  0  0  0  0  0  0  0  0  0  0  0
  142.7957  136.2151  161.1601 H   0  0  0  0  0  0  0  0  0  0  0  0
  146.0595  136.3314  157.7586 H   0  0  0  0  0  0  0  0  0  0  0  0
  145.0209  134.9529  157.4861 H   0  0  0  0  0  0  0  0  0  0  0  0
  147.4576  136.4622  153.6142 H   0  0  0  0  0  0  0  0  0  0  0  0
  141.4562  134.1506  153.2502 H   0  0  0  0  0  0  0  0  0  0  0  0
  142.6366  134.2679  150.8686 H   0  0  0  0  0  0  0  0  0  0  0  0
  144.5806  132.1201  151.8822 H   0  0  0  0  0  0  0  0  0  0  0  0
  143.0239  131.8825  151.0177 H   0  0  0  0  0  0  0  0  0  0  0  0
  145.7548  131.0929  149.3630 H   0  0  0  0  0  0  0  0  0  0  0  0
  146.4363  132.5318  148.6504 H   0  0  0  0  0  0  0  0  0  0  0  0
  147.5925  131.7496  150.4560 H   0  0  0  0  0  0  0  0  0  0  0  0
  143.3229  133.8234  148.3108 H   0  0  0  0  0  0  0  0  0  0  0  0
  144.3203  132.5486  147.6695 H   0  0  0  0  0  0  0  0  0  0  0  0
  141.8852  132.4376  148.9092 H   0  0  0  0  0  0  0  0  0  0  0  0
  144.6149  135.1300  149.7629 H   0  0  0  0  0  0  0  0  0  0  0  0
  145.6968  134.4130  151.0064 H   0  0  0  0  0  0  0  0  0  0  0  0
  1  2  1  0  0  0  0
  1 28  1  0  0  0  0
  1 29  1  0  0  0  0
  1 30  1  0  0  0  0
  2 10  1  0  0  0  0
  2  3  1  0  0  0  0
  2 31  1  0  0  0  0
  3  4  1  0  0  0  0
  3 32  1  0  0  0  0
  3 33  1  0  0  0  0
  4  5  1  0  0  0  0
  4 34  1  0  0  0  0
  4 35  1  0  0  0  0
  5  6  1  0  0  0  0
  5  9  1  0  0  0  0
  5 36  1  0  0  0  0
  6  7  1  0  0  0  0
  6  8  2  0  0  0  0
  7 37  1  0  0  0  0
  7 38  1  0  0  0  0
  9 10  1  0  0  0  0
  9 39  1  0  0  0  0
  9 40  1  0  0  0  0
 10 11  1  0  0  0  0
 11 16  1  0  0  0  0
 11 12  2  0  0  0  0
 12 13  1  0  0  0  0
 13 14  2  0  0  0  0
 13 41  1  0  0  0  0
 14 15  1  0  0  0  0
 15 19  1  0  0  0  0
 15 16  2  0  0  0  0
 16 17  1  0  0  0  0
 17 18  2  0  0  0  0
 18 19  1  0  0  0  0
 18 42  1  0  0  0  0
 19 20  1  0  0  0  0
 20 27  1  0  0  0  0
 20 21  1  0  0  0  0
 20 43  1  0  0  0  0
 21 22  1  0  0  0  0
 21 44  1  0  0  0  0
 21 45  1  0  0  0  0
 22 23  1  0  0  0  0
 22 25  1  0  0  0  0
 22 27  1  0  0  0  0
 23 24  1  0  0  0  0
 23 46  1  0  0  0  0
 23 47  1  0  0  0  0
 24 48  1  0  0  0  0
 25 26  1  0  0  0  0
 25 49  1  0  0  0  0
 25 50  1  0  0  0  0
 26 51  1  0  0  0  0
 27 52  1  0  0  0  0
 27 53  1  0  0  0  0
M  END
> <s_m_source_file>
AV-unprocessed.smi

> <i_m_source_file_index>
187

> <i_lp_mmshare_version>
43012

> <i_f3d_flags>
0

> <s_epik_input>
W0NIM11bQ0BASF0xW0NIMl1bQ0gyXVtDQEBIXShDKD1PKVtOSDJdKVtDSDJdTjFjKG5bY0hdbjIpYyhjMjMpbltjSF1uM1tDSF0oW0NIMl00KVtDSDJdQzQoW0NIMl1bT0hdKVtDSDJdW09IXQ==

> <s_epik_cmdline>
J2VwaWtfcHl0aG9uJywgJy1waCcsICc3LjAnLCAnLXRuJywgJzgnLCAnLW1hJywgJzIwMCcsICctbWV0YWxfYmluZGluZycsICctaW1hZScsICc8aW5maWxlLm1hZT4nLCAnLW9tYWUnLCAnPG91dGZpbGUubWFlPic=

> <r_lp_tautomer_probability>
1

> <r_epik_Ionization_Penalty>
0.0017711

> <r_epik_Ionization_Penalty_Charging>
0

> <r_epik_Ionization_Penalty_Neutral>
0.0017711

> <r_epik_State_Penalty>
0.00107211

> <r_epik_Charging_Adjusted_Penalty>
0.00107211

> <i_epik_Tot_Q>
0

> <i_epik_Tot_abs_Q>
0

> <r_epik_Metal_State_Penalty>
-0

> <b_epik_Metal_Only>
0

> <s_lp_Force_Field>
OPLS_2005

> <r_lp_Energy>
37.2201

> <b_lp_Chiralities_Consistent>
1

> <s_lp_Variant>
AV-unprocessed.smi:187-2

> <Gold.Version>
5.8.1

> <Gold.Id.Protein>
6NUR|6NUR_protein|mol2

> <Gold.PLP.Fitness>
44.6672

> <Gold.PLP.PLP>
-32.4903

> <Gold.PLP.part.hbond>
-5.1376

> <Gold.PLP.part.metal>
0.0000

> <Gold.PLP.part.buried>
-4.6921

> <Gold.PLP.part.nonpolar>
-22.0078

> <Gold.PLP.part.repulsive>
0.2008

> <Gold.PLP.ligand.clash>
0.0000

> <Gold.PLP.ligand.torsion>
1.6398

> <Gold.PLP.Chemscore.Hbond>
3.9095

> <Gold.PLP.Chemscore.CHOScore>
1.0000

> <Gold.PLP.Chemscore.Metal>
0.0000

> <Gold.Chemscore.Hbonds>
donor molecule, donor type, donor heavy atom, donor atom, acceptor molecule, acceptor atom, score
      L1  H    24    48       P1 10747  1.00
      L1  H    26    51       P1 10186  0.46
      P1  H 10785 10796       L1    26  1.00
      P1  H 11000 11005       L1     8  0.98
      L1  C    13    41       P1  7948  1.00

> <Gold.PLP.Chemscore.Internal.Correction>
0.7278

> <Gold.Rescore>
     Score         DG    S(hbond)    S(metal)    S(lipo)     H(rot)  DE(clash)    DE(int)     intcor
     11.07     -13.95       3.67        0.00      54.87       3.99       0.03       2.85       ----

> <Gold.Chemscore.Fitness>
11.0696

> <Gold.Chemscore.DG>
-13.9536

> <Gold.Chemscore.ZeroCoef>
-5.4800

> <Gold.Chemscore.Hbond>
3.6733

> <Gold.Chemscore.Metal>
0.0000

> <Gold.Chemscore.Lipo>
54.8675

> <Gold.Chemscore.Internal_Hbond>
0.0000

> <Gold.Chemscore.DEClash>
0.0291

> <Gold.Chemscore.DEInternal>
2.8549

> <Gold.Chemscore.Rot>
3.9902

> <Gold.Chemscore.Internal.Correction>
   9.000000E+99

> <Gold.Chemscore.Hbonds>
donor molecule, donor type, donor heavy atom, donor atom, acceptor molecule, acceptor atom, score
      L1  H    24    48       P1 10747  1.00
      L1  H    26    51       P1 10186  0.44
      P1  H 10785 10796       L1    26  0.85
      P1  H 11000 11005       L1     8  0.90

> <Gold.Chemscore.Hbond.Weighted>
-12.2689

> <Gold.Chemscore.Metal.Weighted>
-0.0000

> <Gold.Chemscore.Lipo.Weighted>
-6.4195

> <Gold.Chemscore.Internal_Hbond.Weighted>
0.0000

> <Gold.Chemscore.DEClash.Weighted>
0.0291

> <Gold.Chemscore.DEInternal.Weighted>
2.8549

> <Gold.Chemscore.Rot.Weighted>
10.2148

> <Gold.Chemscore.Internal.Correction.Weighted>
   9.000000E+99

> <Gold.Protein.RotatedTorsions>
[ 6907 6896 6895 6894 ] final  -38.46 input  -60.11 | X-H torsion
[ 7974 7965 7964 7962 ] final -118.26 input  175.53 | X-H torsion
[ 8008 7997 7996 7995 ] final  -34.35 input   59.86 | X-H torsion
[ 10167 10162 10161 10158 ] final  175.34 input  -65.29 | X-H torsion
[ 10718 10713 10712 10709 ] final   85.81 input   66.30 | X-H torsion
[ 10763 10752 10751 10750 ] final   52.63 input  -60.55 | X-H torsion
[ 11005 11000 10999 10996 ] final -144.76 input  -57.11 | X-H torsion

> <Gold.Protein.ActiveResidues>
 VAL166  LYS551  ARG553  GLY616  TRP617  ASP618  TYR619  PRO620  LYS621  CYS622 
 ASP623  PHE694  ASN695  SER759  ASP760  ASP761  ALA762  ILE779  LEU786  VAL792 
 PHE793  MET794  SER795  GLU796  ALA797  LYS798  CYS799  TRP800  GLU811  SER814 

> <Gold.Protein.RotatedAtoms>
  151.0022  134.9331  159.7959 H   0  0  0  0  0  0  0  0  0  0  0  0  # atno 6907 bound_to 6896
  152.5281  134.3139  159.9134 H   0  0  0  0  0  0  0  0  0  0  0  0  # atno 6908 bound_to 6896
  151.3145  133.4024  159.2684 H   0  0  0  0  0  0  0  0  0  0  0  0  # atno 6909 bound_to 6896
  145.0758  140.8391  143.4068 H   0  0  0  0  0  0  0  0  0  0  0  0  # atno 7974 bound_to 7965
  154.4123  140.1686  156.2036 H   0  0  0  0  0  0  0  0  0  0  0  0  # atno 8008 bound_to 7997
  155.9503  140.3401  155.6379 H   0  0  0  0  0  0  0  0  0  0  0  0  # atno 8009 bound_to 7997
  155.6877  140.0730  157.2451 H   0  0  0  0  0  0  0  0  0  0  0  0  # atno 8010 bound_to 7997
  139.5174  144.3042  152.0351 H   0  0  0  0  0  0  0  0  0  0  0  0  # atno 10167 bound_to 10162
  157.6920  131.0190  150.2878 H   0  0  0  0  0  0  0  0  0  0  0  0  # atno 10718 bound_to 10713
  152.9790  135.5806  154.4610 H   0  0  0  0  0  0  0  0  0  0  0  0  # atno 10763 bound_to 10752
  154.4186  135.2771  155.1992 H   0  0  0  0  0  0  0  0  0  0  0  0  # atno 10764 bound_to 10752
  154.3751  135.6159  153.5815 H   0  0  0  0  0  0  0  0  0  0  0  0  # atno 10765 bound_to 10752
  140.7991  134.2878  157.4985 H   0  0  0  0  0  0  0  0  0  0  0  0  # atno 11005 bound_to 11000
  145.1238  139.2676  143.5575 LP  0  0  0  0  0  0  0  0  0  0  0  0  # atno 17320 bound_to 7965
  146.3530  140.0869  142.8614 LP  0  0  0  0  0  0  0  0  0  0  0  0  # atno 17321 bound_to 7965
  140.2489  144.4190  150.6230 LP  0  0  0  0  0  0  0  0  0  0  0  0  # atno 17342 bound_to 10162
  140.6239  143.2179  151.6638 LP  0  0  0  0  0  0  0  0  0  0  0  0  # atno 17343 bound_to 10162
  156.3414  130.3816  149.7406 LP  0  0  0  0  0  0  0  0  0  0  0  0  # atno 17370 bound_to 10713
  156.4913  130.8086  151.3096 LP  0  0  0  0  0  0  0  0  0  0  0  0  # atno 17371 bound_to 10713
  139.8723  134.9419  156.3810 LP  0  0  0  0  0  0  0  0  0  0  0  0  # atno 17394 bound_to 11000
  140.9313  133.7577  156.0028 LP  0  0  0  0  0  0  0  0  0  0  0  0  # atno 17395 bound_to 11000

$$$$
