AV-unprocessed.smi:1011|AV-procd|sdf|4421|dock2
  -GOLD-   22720 2373D 1   1.00000     0.00000
 Structure written by MMmdl.
 44 46  0  0  0  0  0  0  0  0  2 V2000
  143.8895  131.7247  151.5159 C   0  0  0  0  0  0  0  0  0  0  0  0
  144.3548  133.0754  151.9782 C   0  0  0  0  0  0  0  0  0  0  0  0
  143.9903  133.7652  153.1695 C   0  0  0  0  0  0  0  0  0  0  0  0
  144.5772  134.9459  153.2801 N   0  0  0  0  0  0  0  0  0  0  0  0
  145.3370  135.0502  152.1692 N   0  0  0  0  0  0  0  0  0  0  0  0
  146.1289  136.2446  151.9476 C   0  0  0  0  0  0  0  0  0  0  0  0
  145.8836  137.3002  153.0354 C   0  0  0  0  0  0  0  0  0  0  0  0
  145.6931  138.6013  152.4153 N   0  0  0  0  0  0  0  0  0  0  0  0
  146.9678  139.1073  151.9333 C   0  0  0  0  0  0  0  0  0  0  0  0
  147.8734  139.5030  153.0543 C   0  0  0  0  0  0  0  0  0  0  0  0
  148.7857  138.6884  153.6564 N   0  3  0  0  0  0  0  0  0  0  0  0
  149.4650  139.3906  154.6518 C   0  0  0  0  0  0  0  0  0  0  0  0
  150.4723  138.9902  155.5241 C   0  0  0  0  0  0  0  0  0  0  0  0
  150.9578  139.9634  156.4223 C   0  0  0  0  0  0  0  0  0  0  0  0
  152.2088  139.5404  157.5321 Cl  0  0  0  0  0  0  0  0  0  0  0  0
  150.4407  141.2756  156.4285 C   0  0  0  0  0  0  0  0  0  0  0  0
  149.4182  141.6698  155.5403 C   0  0  0  0  0  0  0  0  0  0  0  0
  148.9438  140.7001  154.6575 C   0  0  0  0  0  0  0  0  0  0  0  0
  147.9618  140.7234  153.6606 N   0  0  0  0  0  0  0  0  0  0  0  0
  147.2261  141.9738  153.4130 C   0  0  0  0  0  0  0  0  0  0  0  0
  146.1524  142.2482  154.4790 C   0  0  0  0  0  0  0  0  0  0  0  0
  145.2991  141.1327  154.6306 O   0  0  0  0  0  0  0  0  0  0  0  0
  145.2214  133.9358  151.3657 C   0  0  0  0  0  0  0  0  0  0  0  0
  142.9768  131.4149  152.0252 H   0  0  0  0  0  0  0  0  0  0  0  0
  144.6392  130.9560  151.7032 H   0  0  0  0  0  0  0  0  0  0  0  0
  143.6781  131.7154  150.4465 H   0  0  0  0  0  0  0  0  0  0  0  0
  143.3182  133.4450  153.9520 H   0  0  0  0  0  0  0  0  0  0  0  0
  147.1822  135.9611  151.9212 H   0  0  0  0  0  0  0  0  0  0  0  0
  145.8826  136.6437  150.9624 H   0  0  0  0  0  0  0  0  0  0  0  0
  144.9999  137.0391  153.6195 H   0  0  0  0  0  0  0  0  0  0  0  0
  146.7318  137.3380  153.7205 H   0  0  0  0  0  0  0  0  0  0  0  0
  145.0672  138.4866  151.6307 H   0  0  0  0  0  0  0  0  0  0  0  0
  147.4724  138.3365  151.3491 H   0  0  0  0  0  0  0  0  0  0  0  0
  146.7976  139.9532  151.2677 H   0  0  0  0  0  0  0  0  0  0  0  0
  150.8691  137.9855  155.5184 H   0  0  0  0  0  0  0  0  0  0  0  0
  150.8362  141.9968  157.1290 H   0  0  0  0  0  0  0  0  0  0  0  0
  149.0322  142.6781  155.5545 H   0  0  0  0  0  0  0  0  0  0  0  0
  147.9468  142.7908  153.3808 H   0  0  0  0  0  0  0  0  0  0  0  0
  146.7806  141.9288  152.4188 H   0  0  0  0  0  0  0  0  0  0  0  0
  146.6209  142.4671  155.4388 H   0  0  0  0  0  0  0  0  0  0  0  0
  145.5533  143.1178  154.2077 H   0  0  0  0  0  0  0  0  0  0  0  0
  144.8553  140.9795  153.8103 H   0  0  0  0  0  0  0  0  0  0  0  0
  145.7585  133.8482  150.4324 H   0  0  0  0  0  0  0  0  0  0  0  0
  148.9280  137.7201  153.3987 H   0  0  0  0  0  0  0  0  0  0  0  0
  1  2  1  0  0  0  0
  1 24  1  0  0  0  0
  1 25  1  0  0  0  0
  1 26  1  0  0  0  0
  2 23  2  0  0  0  0
  2  3  1  0  0  0  0
  3  4  2  0  0  0  0
  3 27  1  0  0  0  0
  4  5  1  0  0  0  0
  5  6  1  0  0  0  0
  5 23  1  0  0  0  0
  6  7  1  0  0  0  0
  6 28  1  0  0  0  0
  6 29  1  0  0  0  0
  7  8  1  0  0  0  0
  7 30  1  0  0  0  0
  7 31  1  0  0  0  0
  8  9  1  0  0  0  0
  8 32  1  0  0  0  0
  9 10  1  0  0  0  0
  9 33  1  0  0  0  0
  9 34  1  0  0  0  0
 10 19  1  0  0  0  0
 10 11  2  0  0  0  0
 11 12  1  0  0  0  0
 11 44  1  0  0  0  0
 12 18  2  0  0  0  0
 12 13  1  0  0  0  0
 13 14  2  0  0  0  0
 13 35  1  0  0  0  0
 14 15  1  0  0  0  0
 14 16  1  0  0  0  0
 16 17  2  0  0  0  0
 16 36  1  0  0  0  0
 17 18  1  0  0  0  0
 17 37  1  0  0  0  0
 18 19  1  0  0  0  0
 19 20  1  0  0  0  0
 20 21  1  0  0  0  0
 20 38  1  0  0  0  0
 20 39  1  0  0  0  0
 21 22  1  0  0  0  0
 21 40  1  0  0  0  0
 21 41  1  0  0  0  0
 22 42  1  0  0  0  0
 23 43  1  0  0  0  0
M  CHG  1  11   1
M  END
> <s_m_source_file>
AV-unprocessed.smi

> <i_m_source_file_index>
1011

> <i_lp_mmshare_version>
43012

> <i_f3d_flags>
0

> <s_epik_input>
W0NIM11jMVtjSF1ubihbY0hdMSlbQ0gyXVtDSDJdW05IXVtDSDJdYyhuMiluKFtDSDJdW0NIMl1bT0hdKWMoYzIzKVtjSF1bY0hdYyhDbClbY0hdMw==

> <s_epik_cmdline>
J2VwaWtfcHl0aG9uJywgJy1waCcsICc3LjAnLCAnLXRuJywgJzgnLCAnLW1hJywgJzIwMCcsICctbWV0YWxfYmluZGluZycsICctaW1hZScsICc8aW5maWxlLm1hZT4nLCAnLW9tYWUnLCAnPG91dGZpbGUubWFlPic=

> <r_epik_Ionization_Penalty>
1.62414

> <r_epik_Ionization_Penalty_Charging>
1.50824

> <r_epik_Ionization_Penalty_Neutral>
0.115896

> <r_epik_State_Penalty>
2.25317

> <r_epik_Charging_Adjusted_Penalty>
3.76141

> <i_epik_Tot_Q>
1

> <i_epik_Tot_abs_Q>
1

> <r_epik_Metal_State_Penalty>
2.26539

> <b_epik_Metal_Only>
0

> <s_lp_Force_Field>
OPLS_2005

> <r_lp_Energy>
12.3838

> <b_lp_Chiralities_Consistent>
1

> <s_lp_Variant>
AV-unprocessed.smi:1011-3

> <Gold.Version>
5.8.1

> <Gold.Id.Protein>
6NUR|6NUR_protein|mol2

> <Gold.PLP.Fitness>
62.0663

> <Gold.PLP.PLP>
-45.9801

> <Gold.PLP.part.hbond>
-4.6294

> <Gold.PLP.part.metal>
0.0000

> <Gold.PLP.part.buried>
6.2403

> <Gold.PLP.part.nonpolar>
-47.5588

> <Gold.PLP.part.repulsive>
0.1718

> <Gold.PLP.ligand.clash>
0.0000

> <Gold.PLP.ligand.torsion>
1.0210

> <Gold.PLP.Chemscore.Hbond>
4.0000

> <Gold.PLP.Chemscore.CHOScore>
2.0000

> <Gold.PLP.Chemscore.Metal>
0.0000

> <Gold.Chemscore.Hbonds>
donor molecule, donor type, donor heavy atom, donor atom, acceptor molecule, acceptor atom, score
      L1  H     8    32       P1 10171  0.65
      L1  H    11    44       P1  7948  1.50
      L1  H    22    42       P1 10175  1.00
      L1  C     3    27       P1 10957  0.89

> <Gold.PLP.Chemscore.Internal.Correction>
0.1283

> <Gold.Rescore>
     Score         DG    S(hbond)    S(metal)    S(lipo)     H(rot)  DE(clash)    DE(int)     intcor
     16.90     -19.43       2.93        0.00      99.80       2.93       1.62       0.90       ----

> <Gold.Chemscore.Fitness>
16.9038

> <Gold.Chemscore.DG>
-19.4305

> <Gold.Chemscore.ZeroCoef>
-5.4800

> <Gold.Chemscore.Hbond>
2.9297

> <Gold.Chemscore.Metal>
0.0000

> <Gold.Chemscore.Lipo>
99.7974

> <Gold.Chemscore.Internal_Hbond>
0.0000

> <Gold.Chemscore.DEClash>
1.6229

> <Gold.Chemscore.DEInternal>
0.9038

> <Gold.Chemscore.Rot>
2.9340

> <Gold.Chemscore.Internal.Correction>
   9.000000E+99

> <Gold.Chemscore.Hbonds>
donor molecule, donor type, donor heavy atom, donor atom, acceptor molecule, acceptor atom, score
      L1  H     8    32       P1 10171  0.65
      L1  H    11    44       P1  7948  0.71
      L1  H    22    42       P1 10175  0.82

> <Gold.Chemscore.Hbond.Weighted>
-9.7853

> <Gold.Chemscore.Metal.Weighted>
-0.0000

> <Gold.Chemscore.Lipo.Weighted>
-11.6763

> <Gold.Chemscore.Internal_Hbond.Weighted>
0.0000

> <Gold.Chemscore.DEClash.Weighted>
1.6229

> <Gold.Chemscore.DEInternal.Weighted>
0.9038

> <Gold.Chemscore.Rot.Weighted>
7.5111

> <Gold.Chemscore.Internal.Correction.Weighted>
   9.000000E+99

> <Gold.Protein.RotatedTorsions>
[ 6907 6896 6895 6894 ] final   86.02 input  -60.11 | X-H torsion
[ 7974 7965 7964 7962 ] final   32.43 input  175.53 | X-H torsion
[ 8008 7997 7996 7995 ] final  -37.72 input   59.86 | X-H torsion
[ 10167 10162 10161 10158 ] final  129.98 input  -65.29 | X-H torsion
[ 10718 10713 10712 10709 ] final -104.52 input   66.30 | X-H torsion
[ 10763 10752 10751 10750 ] final  109.41 input  -60.55 | X-H torsion
[ 11005 11000 10999 10996 ] final -155.84 input  -57.11 | X-H torsion

> <Gold.Protein.ActiveResidues>
 VAL166  LYS551  ARG553  GLY616  TRP617  ASP618  TYR619  PRO620  LYS621  CYS622 
 ASP623  PHE694  ASN695  SER759  ASP760  ASP761  ALA762  ILE779  LEU786  VAL792 
 PHE793  MET794  SER795  GLU796  ALA797  LYS798  CYS799  TRP800  GLU811  SER814 

> <Gold.Protein.RotatedAtoms>
  152.5386  134.2496  159.8893 H   0  0  0  0  0  0  0  0  0  0  0  0  # atno 6907 bound_to 6896
  151.2460  133.4368  159.2617 H   0  0  0  0  0  0  0  0  0  0  0  0  # atno 6908 bound_to 6896
  151.0583  134.9733  159.8303 H   0  0  0  0  0  0  0  0  0  0  0  0  # atno 6909 bound_to 6896
  146.1487  139.6527  142.9114 H   0  0  0  0  0  0  0  0  0  0  0  0  # atno 7974 bound_to 7965
  154.4048  140.1597  156.2583 H   0  0  0  0  0  0  0  0  0  0  0  0  # atno 8008 bound_to 7997
  155.9059  140.3430  155.6039 H   0  0  0  0  0  0  0  0  0  0  0  0  # atno 8009 bound_to 7997
  155.7393  140.0790  157.2243 H   0  0  0  0  0  0  0  0  0  0  0  0  # atno 8010 bound_to 7997
  139.5451  144.6766  151.4498 H   0  0  0  0  0  0  0  0  0  0  0  0  # atno 10167 bound_to 10162
  156.0308  130.5519  150.7408 H   0  0  0  0  0  0  0  0  0  0  0  0  # atno 10718 bound_to 10713
  153.4344  135.3781  155.2190 H   0  0  0  0  0  0  0  0  0  0  0  0  # atno 10763 bound_to 10752
  154.8751  135.3848  154.4229 H   0  0  0  0  0  0  0  0  0  0  0  0  # atno 10764 bound_to 10752
  153.4766  135.7088  153.6025 H   0  0  0  0  0  0  0  0  0  0  0  0  # atno 10765 bound_to 10752
  140.6820  134.4134  157.5226 H   0  0  0  0  0  0  0  0  0  0  0  0  # atno 11005 bound_to 11000
  145.4876  141.0438  143.2611 LP  0  0  0  0  0  0  0  0  0  0  0  0  # atno 17320 bound_to 7965
  144.7877  139.6392  143.7127 LP  0  0  0  0  0  0  0  0  0  0  0  0  # atno 17321 bound_to 7965
  140.6697  143.8321  150.6984 LP  0  0  0  0  0  0  0  0  0  0  0  0  # atno 17342 bound_to 10162
  140.1742  143.4169  152.1979 LP  0  0  0  0  0  0  0  0  0  0  0  0  # atno 17343 bound_to 10162
  157.4977  131.0916  151.0352 LP  0  0  0  0  0  0  0  0  0  0  0  0  # atno 17370 bound_to 10713
  157.0741  130.5876  149.5408 LP  0  0  0  0  0  0  0  0  0  0  0  0  # atno 17371 bound_to 10713
  139.8949  134.8696  156.2157 LP  0  0  0  0  0  0  0  0  0  0  0  0  # atno 17394 bound_to 11000
  141.0309  133.6989  156.1429 LP  0  0  0  0  0  0  0  0  0  0  0  0  # atno 17395 bound_to 11000

$$$$
