AV-unprocessed.smi:2678|AV-procd|sdf|10369|dock9
  -GOLD-   2272014393D 1   1.00000     0.00000
 Structure written by MMmdl.
 46 47  0  0  0  0  0  0  0  0  1 V2000
  152.8782  144.5552  158.0271 C   0  0  0  0  0  0  0  0  0  0  0  0
  151.4072  144.4274  158.4444 C   0  0  0  0  0  0  0  0  0  0  0  0
  151.2697  143.9349  159.8938 C   0  0  0  0  0  0  0  0  0  0  0  0
  150.7201  143.5215  157.5284 N   0  0  0  0  0  0  0  0  0  0  0  0
  150.8639  142.1869  157.4984 C   0  0  0  0  0  0  0  0  0  0  0  0
  151.6175  141.5804  158.2598 O   0  0  0  0  0  0  0  0  0  0  0  0
  150.0233  141.4341  156.4497 C   0  0  1  0  0  0  0  0  0  0  0  0
  150.8912  140.7016  155.3999 C   0  0  0  0  0  0  0  0  0  0  0  0
  151.5033  139.3868  155.9166 C   0  0  0  0  0  0  0  0  0  0  0  0
  150.4240  138.4574  156.4915 C   0  0  0  0  0  0  0  0  0  0  0  0
  149.6291  139.1513  157.6112 C   0  0  2  0  0  0  0  0  0  0  0  0
  148.5935  138.2443  158.1108 N   0  0  0  0  0  0  0  0  0  0  0  0
  148.5051  137.6701  159.3248 C   0  0  0  0  0  0  0  0  0  0  0  0
  149.3660  137.8594  160.1811 O   0  0  0  0  0  0  0  0  0  0  0  0
  147.4255  136.8789  159.4820 N   0  0  0  0  0  0  0  0  0  0  0  0
  147.0322  136.1174  160.6146 C   0  0  0  0  0  0  0  0  0  0  0  0
  147.1140  136.5729  161.9527 C   0  0  0  0  0  0  0  0  0  0  0  0
  146.6728  135.7244  162.9865 C   0  0  0  0  0  0  0  0  0  0  0  0
  146.1609  134.4575  162.6452 C   0  0  0  0  0  0  0  0  0  0  0  0
  146.0651  134.0159  161.3734 N   0  0  0  0  0  0  0  0  0  0  0  0
  146.4886  134.8352  160.3874 C   0  0  0  0  0  0  0  0  0  0  0  0
  149.0015  140.4678  157.0935 C   0  0  0  0  0  0  0  0  0  0  0  0
  153.4095  145.2511  158.6773 H   0  0  0  0  0  0  0  0  0  0  0  0
  152.9668  144.9265  157.0056 H   0  0  0  0  0  0  0  0  0  0  0  0
  153.3915  143.5944  158.0791 H   0  0  0  0  0  0  0  0  0  0  0  0
  150.9541  145.4177  158.3687 H   0  0  0  0  0  0  0  0  0  0  0  0
  151.7770  144.6083  160.5850 H   0  0  0  0  0  0  0  0  0  0  0  0
  151.7030  142.9421  160.0185 H   0  0  0  0  0  0  0  0  0  0  0  0
  150.2239  143.8822  160.1984 H   0  0  0  0  0  0  0  0  0  0  0  0
  150.0813  143.9420  156.8690 H   0  0  0  0  0  0  0  0  0  0  0  0
  149.4482  142.1906  155.9127 H   0  0  0  0  0  0  0  0  0  0  0  0
  150.2731  140.4810  154.5287 H   0  0  0  0  0  0  0  0  0  0  0  0
  151.6847  141.3586  155.0403 H   0  0  0  0  0  0  0  0  0  0  0  0
  152.0282  138.8828  155.1048 H   0  0  0  0  0  0  0  0  0  0  0  0
  152.2553  139.5931  156.6783 H   0  0  0  0  0  0  0  0  0  0  0  0
  149.7488  138.1489  155.6919 H   0  0  0  0  0  0  0  0  0  0  0  0
  150.8897  137.5474  156.8716 H   0  0  0  0  0  0  0  0  0  0  0  0
  150.3261  139.3630  158.4223 H   0  0  0  0  0  0  0  0  0  0  0  0
  147.8641  138.0116  157.4524 H   0  0  0  0  0  0  0  0  0  0  0  0
  146.8450  136.7647  158.6637 H   0  0  0  0  0  0  0  0  0  0  0  0
  147.4891  137.5518  162.2061 H   0  0  0  0  0  0  0  0  0  0  0  0
  146.7222  136.0402  164.0181 H   0  0  0  0  0  0  0  0  0  0  0  0
  145.8140  133.7832  163.4143 H   0  0  0  0  0  0  0  0  0  0  0  0
  146.3948  134.4506  159.3820 H   0  0  0  0  0  0  0  0  0  0  0  0
  148.4746  140.9779  157.9011 H   0  0  0  0  0  0  0  0  0  0  0  0
  148.2383  140.2285  156.3515 H   0  0  0  0  0  0  0  0  0  0  0  0
  1  2  1  0  0  0  0
  1 23  1  0  0  0  0
  1 24  1  0  0  0  0
  1 25  1  0  0  0  0
  2  3  1  0  0  0  0
  2  4  1  0  0  0  0
  2 26  1  0  0  0  0
  3 27  1  0  0  0  0
  3 28  1  0  0  0  0
  3 29  1  0  0  0  0
  4  5  1  0  0  0  0
  4 30  1  0  0  0  0
  5  6  2  0  0  0  0
  5  7  1  0  0  0  0
  7 22  1  0  0  0  0
  7  8  1  0  0  0  0
  7 31  1  0  0  0  0
  8  9  1  0  0  0  0
  8 32  1  0  0  0  0
  8 33  1  0  0  0  0
  9 10  1  0  0  0  0
  9 34  1  0  0  0  0
  9 35  1  0  0  0  0
 10 11  1  0  0  0  0
 10 36  1  0  0  0  0
 10 37  1  0  0  0  0
 11 12  1  0  0  0  0
 11 22  1  0  0  0  0
 11 38  1  0  0  0  0
 12 13  1  0  0  0  0
 12 39  1  0  0  0  0
 13 14  2  0  0  0  0
 13 15  1  0  0  0  0
 15 16  1  0  0  0  0
 15 40  1  0  0  0  0
 16 21  1  0  0  0  0
 16 17  2  0  0  0  0
 17 18  1  0  0  0  0
 17 41  1  0  0  0  0
 18 19  2  0  0  0  0
 18 42  1  0  0  0  0
 19 20  1  0  0  0  0
 19 43  1  0  0  0  0
 20 21  2  0  0  0  0
 21 44  1  0  0  0  0
 22 45  1  0  0  0  0
 22 46  1  0  0  0  0
M  END
> <s_m_source_file>
AV-unprocessed.smi

> <i_m_source_file_index>
2678

> <i_lp_mmshare_version>
43012

> <i_f3d_flags>
0

> <s_epik_input>
W0NIM11bQ0hdKFtDSDNdKVtOSF1DKD1PKVtDQEBIXTFbQ0gyXVtDSDJdW0NIMl1bQ0BIXShbQ0gyXTEpW05IXUMoPU8pW05IXWMyW2NIXVtjSF1bY0hdbltjSF0y

> <s_epik_cmdline>
J2VwaWtfcHl0aG9uJywgJy1waCcsICc3LjAnLCAnLXRuJywgJzgnLCAnLW1hJywgJzIwMCcsICctbWV0YWxfYmluZGluZycsICctaW1hZScsICc8aW5maWxlLm1hZT4nLCAnLW9tYWUnLCAnPG91dGZpbGUubWFlPic=

> <r_epik_Ionization_Penalty>
0.00482944

> <r_epik_Ionization_Penalty_Charging>
0

> <r_epik_Ionization_Penalty_Neutral>
0.00482944

> <r_epik_State_Penalty>
0.00347168

> <r_epik_Charging_Adjusted_Penalty>
0.00347168

> <i_epik_Tot_Q>
0

> <i_epik_Tot_abs_Q>
0

> <r_epik_Metal_State_Penalty>
-0

> <b_epik_Metal_Only>
0

> <s_lp_Force_Field>
OPLS_2005

> <r_lp_Energy>
20.538

> <b_lp_Chiralities_Consistent>
1

> <s_lp_Variant>
AV-unprocessed.smi:2678-4

> <Gold.Version>
5.8.1

> <Gold.Id.Protein>
6NUR|6NUR_protein|mol2

> <Gold.PLP.Fitness>
41.9120

> <Gold.PLP.PLP>
-39.6269

> <Gold.PLP.part.hbond>
-2.0000

> <Gold.PLP.part.metal>
0.0000

> <Gold.PLP.part.buried>
-3.0698

> <Gold.PLP.part.nonpolar>
-35.0925

> <Gold.PLP.part.repulsive>
0.2504

> <Gold.PLP.ligand.clash>
0.0000

> <Gold.PLP.ligand.torsion>
0.4977

> <Gold.PLP.Chemscore.Hbond>
1.0749

> <Gold.PLP.Chemscore.CHOScore>
0.0000

> <Gold.PLP.Chemscore.Metal>
0.0000

> <Gold.Chemscore.Hbonds>
donor molecule, donor type, donor heavy atom, donor atom, acceptor molecule, acceptor atom, score
      L1  H     4    30       P1  8028  1.00
      P1  H  6931  6943       L1    14  0.10

> <Gold.PLP.Chemscore.Internal.Correction>
0.0559

> <Gold.Rescore>
     Score         DG    S(hbond)    S(metal)    S(lipo)     H(rot)  DE(clash)    DE(int)     intcor
     15.27     -17.29       1.00        0.00     104.22       1.46       0.63       1.39       ----

> <Gold.Chemscore.Fitness>
15.2676

> <Gold.Chemscore.DG>
-17.2874

> <Gold.Chemscore.ZeroCoef>
-5.4800

> <Gold.Chemscore.Hbond>
1.0037

> <Gold.Chemscore.Metal>
0.0000

> <Gold.Chemscore.Lipo>
104.2179

> <Gold.Chemscore.Internal_Hbond>
0.0000

> <Gold.Chemscore.DEClash>
0.6323

> <Gold.Chemscore.DEInternal>
1.3875

> <Gold.Chemscore.Rot>
1.4603

> <Gold.Chemscore.Internal.Correction>
   9.000000E+99

> <Gold.Chemscore.Hbonds>
donor molecule, donor type, donor heavy atom, donor atom, acceptor molecule, acceptor atom, score
      L1  H     4    30       P1  8028  0.98
      P1  H  6931  6943       L1    14  0.12

> <Gold.Chemscore.Hbond.Weighted>
-3.3522

> <Gold.Chemscore.Metal.Weighted>
-0.0000

> <Gold.Chemscore.Lipo.Weighted>
-12.1935

> <Gold.Chemscore.Internal_Hbond.Weighted>
0.0000

> <Gold.Chemscore.DEClash.Weighted>
0.6323

> <Gold.Chemscore.DEInternal.Weighted>
1.3875

> <Gold.Chemscore.Rot.Weighted>
3.7383

> <Gold.Chemscore.Internal.Correction.Weighted>
   9.000000E+99

> <Gold.Protein.RotatedTorsions>
[ 6907 6896 6895 6894 ] final  112.86 input  -60.11 | X-H torsion
[ 7974 7965 7964 7962 ] final   98.20 input  175.53 | X-H torsion
[ 8008 7997 7996 7995 ] final  166.12 input   59.86 | X-H torsion
[ 10167 10162 10161 10158 ] final  -65.34 input  -65.29 | X-H torsion
[ 10718 10713 10712 10709 ] final   70.05 input   66.30 | X-H torsion
[ 10763 10752 10751 10750 ] final  120.83 input  -60.55 | X-H torsion
[ 11005 11000 10999 10996 ] final  145.08 input  -57.11 | X-H torsion

> <Gold.Protein.ActiveResidues>
 VAL166  LYS551  ARG553  GLY616  TRP617  ASP618  TYR619  PRO620  LYS621  CYS622 
 ASP623  PHE694  ASN695  SER759  ASP760  ASP761  ALA762  ILE779  LEU786  VAL792 
 PHE793  MET794  SER795  GLU796  ALA797  LYS798  CYS799  TRP800  GLU811  SER814 

> <Gold.Protein.RotatedAtoms>
  152.4893  133.8456  159.7174 H   0  0  0  0  0  0  0  0  0  0  0  0  # atno 6907 bound_to 6896
  150.9007  133.7113  159.2886 H   0  0  0  0  0  0  0  0  0  0  0  0  # atno 6908 bound_to 6896
  151.4555  135.1038  159.9762 H   0  0  0  0  0  0  0  0  0  0  0  0  # atno 6909 bound_to 6896
  145.4153  139.2328  143.3226 H   0  0  0  0  0  0  0  0  0  0  0  0  # atno 7974 bound_to 7965
  156.1745  140.1652  156.8388 H   0  0  0  0  0  0  0  0  0  0  0  0  # atno 8008 bound_to 7997
  154.5292  140.0760  156.8347 H   0  0  0  0  0  0  0  0  0  0  0  0  # atno 8009 bound_to 7997
  155.3443  140.3386  155.4241 H   0  0  0  0  0  0  0  0  0  0  0  0  # atno 8010 bound_to 7997
  140.5736  143.2320  151.6487 H   0  0  0  0  0  0  0  0  0  0  0  0  # atno 10167 bound_to 10162
  157.6379  130.9457  150.0597 H   0  0  0  0  0  0  0  0  0  0  0  0  # atno 10718 bound_to 10713
  153.6045  135.3442  155.2957 H   0  0  0  0  0  0  0  0  0  0  0  0  # atno 10763 bound_to 10752
  154.8630  135.4235  154.2376 H   0  0  0  0  0  0  0  0  0  0  0  0  # atno 10764 bound_to 10752
  153.3212  135.7038  153.7100 H   0  0  0  0  0  0  0  0  0  0  0  0  # atno 10765 bound_to 10752
  140.0683  134.9166  157.1302 H   0  0  0  0  0  0  0  0  0  0  0  0  # atno 11005 bound_to 11000
  146.2684  140.4870  142.8824 LP  0  0  0  0  0  0  0  0  0  0  0  0  # atno 17320 bound_to 7965
  144.8281  140.6662  143.6309 LP  0  0  0  0  0  0  0  0  0  0  0  0  # atno 17321 bound_to 7965
  139.5131  144.3455  152.0701 LP  0  0  0  0  0  0  0  0  0  0  0  0  # atno 17342 bound_to 10162
  140.2595  144.4082  150.6191 LP  0  0  0  0  0  0  0  0  0  0  0  0  # atno 17343 bound_to 10162
  156.1633  130.3644  149.9268 LP  0  0  0  0  0  0  0  0  0  0  0  0  # atno 17370 bound_to 10713
  156.7260  130.9025  151.3622 LP  0  0  0  0  0  0  0  0  0  0  0  0  # atno 17371 bound_to 10713
  140.3665  134.2437  155.7182 LP  0  0  0  0  0  0  0  0  0  0  0  0  # atno 17394 bound_to 11000
  141.2002  133.7994  157.0502 LP  0  0  0  0  0  0  0  0  0  0  0  0  # atno 17395 bound_to 11000

$$$$
