AV-unprocessed.smi:287|AV-procd|sdf|2191|dock2
  -GOLD-   2262021583D 1   1.00000     0.00000
 Structure written by MMmdl.
 55 58  0  0  0  0  0  0  0  0  1 V2000
  154.2984  141.4519  161.6763 C   0  0  0  0  0  0  0  0  0  0  0  0
  153.4027  142.2236  160.7690 C   0  0  0  0  0  0  0  0  0  0  0  0
  152.6616  141.8967  159.6710 C   0  0  0  0  0  0  0  0  0  0  0  0
  152.0113  143.0865  159.2255 C   0  0  0  0  0  0  0  0  0  0  0  0
  151.0685  143.2082  158.0358 C   0  0  1  0  0  0  0  0  0  0  0  0
  149.6583  143.5704  158.5289 C   0  0  0  0  0  0  0  0  0  0  0  0
  151.4379  144.2482  157.1507 O   0  0  0  0  0  0  0  0  0  0  0  0
  151.0171  141.9229  157.1785 C   0  0  0  0  0  0  0  0  0  0  0  0
  150.0110  141.9836  156.1231 N   0  0  0  0  0  0  0  0  0  0  0  0
  149.7265  140.8850  155.3934 C   0  0  0  0  0  0  0  0  0  0  0  0
  148.9263  140.9598  154.2979 N   0  0  0  0  0  0  0  0  0  0  0  0
  148.6611  139.8581  153.5897 C   0  0  0  0  0  0  0  0  0  0  0  0
  149.0847  138.6102  153.7993 N   0  0  0  0  0  0  0  0  0  0  0  0
  149.8887  138.5297  154.8996 C   0  0  0  0  0  0  0  0  0  0  0  0
  150.2543  139.6155  155.7427 C   0  0  0  0  0  0  0  0  0  0  0  0
  151.0851  139.1640  156.7599 N   0  0  0  0  0  0  0  0  0  0  0  0
  151.2045  137.8849  156.5253 C   0  0  0  0  0  0  0  0  0  0  0  0
  150.5205  137.4193  155.4245 N   0  0  0  0  0  0  0  0  0  0  0  0
  150.4770  136.0157  154.9080 C   0  0  1  0  0  0  0  0  0  0  0  0
  151.2539  135.1992  155.7208 O   0  0  0  0  0  0  0  0  0  0  0  0
  150.7540  133.8673  155.6620 C   0  0  1  0  0  0  0  0  0  0  0  0
  150.8274  133.2372  157.0654 C   0  0  0  0  0  0  0  0  0  0  0  0
  149.9748  133.8882  157.9847 O   0  0  0  0  0  0  0  0  0  0  0  0
  149.3505  133.9287  155.0210 C   0  0  2  0  0  0  0  0  0  0  0  0
  149.3961  133.3370  153.7360 O   0  0  0  0  0  0  0  0  0  0  0  0
  149.0624  135.4201  154.8932 C   0  0  1  0  0  0  0  0  0  0  0  0
  148.2466  135.8752  155.9570 O   0  0  0  0  0  0  0  0  0  0  0  0
  152.4057  144.0548  160.1170 C   0  0  0  0  0  0  0  0  0  0  0  0
  152.0986  145.5078  160.2695 C   0  0  0  0  0  0  0  0  0  0  0  0
  153.2536  143.5418  161.0516 O   0  0  0  0  0  0  0  0  0  0  0  0
  150.9229  136.0622  153.9132 H   0  0  0  0  0  0  0  0  0  0  0  0
  151.4363  133.3142  155.0142 H   0  0  0  0  0  0  0  0  0  0  0  0
  148.5890  133.4066  155.6021 H   0  0  0  0  0  0  0  0  0  0  0  0
  148.5662  135.6805  153.9571 H   0  0  0  0  0  0  0  0  0  0  0  0
  154.3832  140.4150  161.3505 H   0  0  0  0  0  0  0  0  0  0  0  0
  153.9123  141.4555  162.6957 H   0  0  0  0  0  0  0  0  0  0  0  0
  155.2992  141.8841  161.6908 H   0  0  0  0  0  0  0  0  0  0  0  0
  152.5963  140.9125  159.2310 H   0  0  0  0  0  0  0  0  0  0  0  0
  149.2659  142.8039  159.1981 H   0  0  0  0  0  0  0  0  0  0  0  0
  148.9573  143.6706  157.6993 H   0  0  0  0  0  0  0  0  0  0  0  0
  149.6597  144.5136  159.0769 H   0  0  0  0  0  0  0  0  0  0  0  0
  150.6651  144.5384  156.6910 H   0  0  0  0  0  0  0  0  0  0  0  0
  151.9851  141.7861  156.6942 H   0  0  0  0  0  0  0  0  0  0  0  0
  150.8555  141.0449  157.8060 H   0  0  0  0  0  0  0  0  0  0  0  0
  149.5578  142.8767  155.9912 H   0  0  0  0  0  0  0  0  0  0  0  0
  148.0197  139.9958  152.7320 H   0  0  0  0  0  0  0  0  0  0  0  0
  151.8040  137.2409  157.1521 H   0  0  0  0  0  0  0  0  0  0  0  0
  150.5239  132.1914  157.0145 H   0  0  0  0  0  0  0  0  0  0  0  0
  151.8507  133.2548  157.4412 H   0  0  0  0  0  0  0  0  0  0  0  0
  149.0994  133.5494  157.8767 H   0  0  0  0  0  0  0  0  0  0  0  0
  148.5939  132.8579  153.5962 H   0  0  0  0  0  0  0  0  0  0  0  0
  148.7784  135.9404  156.7353 H   0  0  0  0  0  0  0  0  0  0  0  0
  151.0217  145.6763  160.2710 H   0  0  0  0  0  0  0  0  0  0  0  0
  152.5305  146.0807  159.4488 H   0  0  0  0  0  0  0  0  0  0  0  0
  152.5008  145.9013  161.2034 H   0  0  0  0  0  0  0  0  0  0  0  0
  1  2  1  0  0  0  0
  1 35  1  0  0  0  0
  1 36  1  0  0  0  0
  1 37  1  0  0  0  0
  2 30  1  0  0  0  0
  2  3  2  0  0  0  0
  3  4  1  0  0  0  0
  3 38  1  0  0  0  0
  4  5  1  0  0  0  0
  4 28  2  0  0  0  0
  5  6  1  0  0  0  0
  5  7  1  0  0  0  0
  5  8  1  0  0  0  0
  6 39  1  0  0  0  0
  6 40  1  0  0  0  0
  6 41  1  0  0  0  0
  7 42  1  0  0  0  0
  8  9  1  0  0  0  0
  8 43  1  0  0  0  0
  8 44  1  0  0  0  0
  9 10  1  0  0  0  0
  9 45  1  0  0  0  0
 10 15  1  0  0  0  0
 10 11  2  0  0  0  0
 11 12  1  0  0  0  0
 12 13  2  0  0  0  0
 12 46  1  0  0  0  0
 13 14  1  0  0  0  0
 14 18  1  0  0  0  0
 14 15  2  0  0  0  0
 15 16  1  0  0  0  0
 16 17  2  0  0  0  0
 17 18  1  0  0  0  0
 17 47  1  0  0  0  0
 18 19  1  0  0  0  0
 19 31  1  0  0  0  0
 19 26  1  0  0  0  0
 19 20  1  0  0  0  0
 20 21  1  0  0  0  0
 21 32  1  0  0  0  0
 21 22  1  0  0  0  0
 21 24  1  0  0  0  0
 22 23  1  0  0  0  0
 22 48  1  0  0  0  0
 22 49  1  0  0  0  0
 23 50  1  0  0  0  0
 24 33  1  0  0  0  0
 24 25  1  0  0  0  0
 24 26  1  0  0  0  0
 25 51  1  0  0  0  0
 26 34  1  0  0  0  0
 26 27  1  0  0  0  0
 27 52  1  0  0  0  0
 28 29  1  0  0  0  0
 28 30  1  0  0  0  0
 29 53  1  0  0  0  0
 29 54  1  0  0  0  0
 29 55  1  0  0  0  0
M  END
> <s_m_source_file>
AV-unprocessed.smi

> <i_m_source_file_index>
287

> <i_lp_mmshare_version>
43012

> <i_f3d_flags>
0

> <s_epik_input>
W0NIM11jMVtjSF1jKGMobzEpW0NIM10pW0NAQF0oW0NIM10pKFtPSF0pW0NIMl1bTkhdYyhuW2NIXW4yKWMoYzIzKW5bY0hdbjNbQ0BASF00T1tDQEhdKFtDSDJdW09IXSlbQ0BASF0oW09IXSlbQ0BIXTRbT0hd

> <s_epik_cmdline>
J2VwaWtfcHl0aG9uJywgJy1waCcsICc3LjAnLCAnLXRuJywgJzgnLCAnLW1hJywgJzIwMCcsICctbWV0YWxfYmluZGluZycsICctaW1hZScsICc8aW5maWxlLm1hZT4nLCAnLW9tYWUnLCAnPG91dGZpbGUubWFlPic=

> <r_lp_tautomer_probability>
1

> <r_epik_Ionization_Penalty>
0.000992612

> <r_epik_Ionization_Penalty_Charging>
0

> <r_epik_Ionization_Penalty_Neutral>
0.000992612

> <r_epik_State_Penalty>
-0

> <r_epik_Charging_Adjusted_Penalty>
0

> <i_epik_Tot_Q>
0

> <i_epik_Tot_abs_Q>
0

> <r_epik_Metal_State_Penalty>
-0

> <b_epik_Metal_Only>
0

> <s_epik_Chemistry_Notes>
This compound contains an acetal/aminal-like group ( X-CH(R)-Y where X, Y are N, S, or O) that may be acid/base labile, releasing an aldehyde.

> <s_lp_Force_Field>
OPLS_2005

> <r_lp_Energy>
44.0492

> <b_lp_Chiralities_Consistent>
1

> <s_lp_Variant>
AV-unprocessed.smi:287-15

> <Gold.Version>
5.8.1

> <Gold.Id.Protein>
6NUR|6NUR_protein|mol2

> <Gold.PLP.Fitness>
55.2665

> <Gold.PLP.PLP>
-42.4951

> <Gold.PLP.part.hbond>
-4.2857

> <Gold.PLP.part.metal>
0.0000

> <Gold.PLP.part.buried>
1.4078

> <Gold.PLP.part.nonpolar>
-41.3186

> <Gold.PLP.part.repulsive>
2.2415

> <Gold.PLP.ligand.clash>
0.0000

> <Gold.PLP.ligand.torsion>
0.2242

> <Gold.PLP.Chemscore.Hbond>
4.0000

> <Gold.PLP.Chemscore.CHOScore>
0.3798

> <Gold.PLP.Chemscore.Metal>
0.0000

> <Gold.Chemscore.Hbonds>
donor molecule, donor type, donor heavy atom, donor atom, acceptor molecule, acceptor atom, score
      L1  H     7    42       P1  8028  1.00
      L1  H     9    45       P1  8028  1.00
      P1  H  6896  6907       L1    23  0.93
      P1  H 10752 10763       L1    20  0.90
      L1  C    12    46       P1  7957  0.38

> <Gold.PLP.Chemscore.Internal.Correction>
0.0802

> <Gold.Rescore>
     Score         DG    S(hbond)    S(metal)    S(lipo)     H(rot)  DE(clash)    DE(int)     intcor
     12.28     -16.00       3.36        0.00     109.16       5.27       2.09       1.63       ----

> <Gold.Chemscore.Fitness>
12.2793

> <Gold.Chemscore.DG>
-15.9980

> <Gold.Chemscore.ZeroCoef>
-5.4800

> <Gold.Chemscore.Hbond>
3.3623

> <Gold.Chemscore.Metal>
0.0000

> <Gold.Chemscore.Lipo>
109.1619

> <Gold.Chemscore.Internal_Hbond>
0.0000

> <Gold.Chemscore.DEClash>
2.0869

> <Gold.Chemscore.DEInternal>
1.6318

> <Gold.Chemscore.Rot>
5.2672

> <Gold.Chemscore.Internal.Correction>
   9.000000E+99

> <Gold.Chemscore.Hbonds>
donor molecule, donor type, donor heavy atom, donor atom, acceptor molecule, acceptor atom, score
      L1  H     7    42       P1  8028  0.91
      L1  H     9    45       P1  8028  0.97
      P1  H  6896  6907       L1    23  0.44
      P1  H 10752 10763       L1    20  0.15

> <Gold.Chemscore.Hbond.Weighted>
-11.2300

> <Gold.Chemscore.Metal.Weighted>
-0.0000

> <Gold.Chemscore.Lipo.Weighted>
-12.7719

> <Gold.Chemscore.Internal_Hbond.Weighted>
0.0000

> <Gold.Chemscore.DEClash.Weighted>
2.0869

> <Gold.Chemscore.DEInternal.Weighted>
1.6318

> <Gold.Chemscore.Rot.Weighted>
13.4839

> <Gold.Chemscore.Internal.Correction.Weighted>
   9.000000E+99

> <Gold.Protein.RotatedTorsions>
[ 6907 6896 6895 6894 ] final -113.12 input  -60.11 | X-H torsion
[ 7974 7965 7964 7962 ] final  163.28 input  175.53 | X-H torsion
[ 8008 7997 7996 7995 ] final  -98.63 input   59.86 | X-H torsion
[ 10167 10162 10161 10158 ] final   61.68 input  -65.29 | X-H torsion
[ 10718 10713 10712 10709 ] final   45.06 input   66.30 | X-H torsion
[ 10763 10752 10751 10750 ] final   73.62 input  -60.55 | X-H torsion
[ 11005 11000 10999 10996 ] final  -23.88 input  -57.11 | X-H torsion

> <Gold.Protein.ActiveResidues>
 VAL166  LYS551  ARG553  GLY616  TRP617  ASP618  TYR619  PRO620  LYS621  CYS622 
 ASP623  PHE694  ASN695  SER759  ASP760  ASP761  ALA762  ILE779  LEU786  VAL792 
 PHE793  MET794  SER795  GLU796  ALA797  LYS798  CYS799  TRP800  GLU811  SER814 

> <Gold.Protein.RotatedAtoms>
  150.7806  133.8991  159.3335 H   0  0  0  0  0  0  0  0  0  0  0  0  # atno 6907 bound_to 6896
  151.6855  135.0953  160.0233 H   0  0  0  0  0  0  0  0  0  0  0  0  # atno 6908 bound_to 6896
  152.3856  133.6568  159.6232 H   0  0  0  0  0  0  0  0  0  0  0  0  # atno 6909 bound_to 6896
  144.7597  139.8159  143.6337 H   0  0  0  0  0  0  0  0  0  0  0  0  # atno 7974 bound_to 7965
  154.8038  140.0454  157.1292 H   0  0  0  0  0  0  0  0  0  0  0  0  # atno 8008 bound_to 7997
  154.9447  140.3057  155.5083 H   0  0  0  0  0  0  0  0  0  0  0  0  # atno 8009 bound_to 7997
  156.2964  140.2299  156.4520 H   0  0  0  0  0  0  0  0  0  0  0  0  # atno 8010 bound_to 7997
  140.1522  144.4452  150.6753 H   0  0  0  0  0  0  0  0  0  0  0  0  # atno 10167 bound_to 10162
  157.4335  130.8039  149.7625 H   0  0  0  0  0  0  0  0  0  0  0  0  # atno 10718 bound_to 10713
  153.0533  135.5056  154.7921 H   0  0  0  0  0  0  0  0  0  0  0  0  # atno 10763 bound_to 10752
  154.6766  135.2961  154.9672 H   0  0  0  0  0  0  0  0  0  0  0  0  # atno 10764 bound_to 10752
  154.0473  135.6709  153.4849 H   0  0  0  0  0  0  0  0  0  0  0  0  # atno 10765 bound_to 10752
  140.8793  133.7665  156.0282 H   0  0  0  0  0  0  0  0  0  0  0  0  # atno 11005 bound_to 11000
  146.1647  139.4774  142.9966 LP  0  0  0  0  0  0  0  0  0  0  0  0  # atno 17320 bound_to 7965
  145.6660  141.0229  143.1683 LP  0  0  0  0  0  0  0  0  0  0  0  0  # atno 17321 bound_to 7965
  140.6696  143.2280  151.5659 LP  0  0  0  0  0  0  0  0  0  0  0  0  # atno 17342 bound_to 10162
  139.5421  144.2621  152.1370 LP  0  0  0  0  0  0  0  0  0  0  0  0  # atno 17343 bound_to 10162
  155.9922  130.3932  150.2953 LP  0  0  0  0  0  0  0  0  0  0  0  0  # atno 17370 bound_to 10713
  157.1112  131.0222  151.3047 LP  0  0  0  0  0  0  0  0  0  0  0  0  # atno 17371 bound_to 10713
  140.8481  134.2987  157.5287 LP  0  0  0  0  0  0  0  0  0  0  0  0  # atno 17394 bound_to 11000
  139.8718  134.9452  156.3904 LP  0  0  0  0  0  0  0  0  0  0  0  0  # atno 17395 bound_to 11000

$$$$
