AV-unprocessed.smi:3031|AV-procd|sdf|11555|dock7
  -GOLD-   2272016523D 1   1.00000     0.00000
 Structure written by MMmdl.
 46 47  0  0  0  0  0  0  0  0  1 V2000
  143.9743  131.7522  150.5620 C   0  0  0  0  0  0  0  0  0  0  0  0
  144.7973  132.9938  150.7504 C   0  0  0  0  0  0  0  0  0  0  0  0
  146.1829  133.0824  151.0656 C   0  0  0  0  0  0  0  0  0  0  0  0
  146.6090  134.3307  151.1633 N   0  0  0  0  0  0  0  0  0  0  0  0
  145.5172  135.0829  150.9063 N   0  0  0  0  0  0  0  0  0  0  0  0
  145.6173  136.5342  150.9234 C   0  0  0  0  0  0  0  0  0  0  0  0
  145.6147  137.1447  152.3483 C   0  0  2  0  0  0  0  0  0  0  0  0
  144.2576  136.9799  153.0506 C   0  0  0  0  0  0  0  0  0  0  0  0
  145.9996  138.5601  152.3636 N   0  0  0  0  0  0  0  0  0  0  0  0
  146.7737  138.9957  153.5260 C   0  0  0  0  0  0  0  0  0  0  0  0
  147.4341  140.3597  153.2701 C   0  0  1  0  0  0  0  0  0  0  0  0
  146.3986  141.3157  153.1719 O   0  0  0  0  0  0  0  0  0  0  0  0
  148.3635  140.7793  154.4310 C   0  0  0  0  0  0  0  0  0  0  0  0
  149.7112  140.2089  154.4001 N   0  0  0  0  0  0  0  0  0  0  0  0
  149.7045  138.7589  154.2123 C   0  0  0  0  0  0  0  0  0  0  0  0
  151.1269  138.1719  154.2157 C   0  0  0  0  0  0  0  0  0  0  0  0
  151.7900  138.5253  155.4251 O   0  0  0  0  0  0  0  0  0  0  0  0
  151.8575  139.9337  155.6216 C   0  0  0  0  0  0  0  0  0  0  0  0
  150.4354  140.5202  155.6280 C   0  0  0  0  0  0  0  0  0  0  0  0
  144.4080  134.3006  150.6623 C   0  0  0  0  0  0  0  0  0  0  0  0
  144.2538  131.2204  149.6525 H   0  0  0  0  0  0  0  0  0  0  0  0
  142.9099  131.9767  150.4890 H   0  0  0  0  0  0  0  0  0  0  0  0
  144.0991  131.0573  151.3926 H   0  0  0  0  0  0  0  0  0  0  0  0
  146.8878  132.2801  151.2268 H   0  0  0  0  0  0  0  0  0  0  0  0
  146.5423  136.8094  150.4154 H   0  0  0  0  0  0  0  0  0  0  0  0
  144.8184  136.9510  150.3098 H   0  0  0  0  0  0  0  0  0  0  0  0
  146.3419  136.5861  152.9389 H   0  0  0  0  0  0  0  0  0  0  0  0
  143.9436  135.9357  153.0571 H   0  0  0  0  0  0  0  0  0  0  0  0
  143.4750  137.5613  152.5623 H   0  0  0  0  0  0  0  0  0  0  0  0
  144.3126  137.3104  154.0883 H   0  0  0  0  0  0  0  0  0  0  0  0
  145.1722  139.1406  152.2703 H   0  0  0  0  0  0  0  0  0  0  0  0
  146.1111  139.0685  154.3895 H   0  0  0  0  0  0  0  0  0  0  0  0
  147.5434  138.2683  153.7821 H   0  0  0  0  0  0  0  0  0  0  0  0
  147.9604  140.3256  152.3169 H   0  0  0  0  0  0  0  0  0  0  0  0
  145.5756  140.8577  153.0959 H   0  0  0  0  0  0  0  0  0  0  0  0
  148.4309  141.8686  154.4322 H   0  0  0  0  0  0  0  0  0  0  0  0
  147.8959  140.5186  155.3818 H   0  0  0  0  0  0  0  0  0  0  0  0
  149.1190  138.2864  155.0025 H   0  0  0  0  0  0  0  0  0  0  0  0
  149.2256  138.4968  153.2700 H   0  0  0  0  0  0  0  0  0  0  0  0
  151.0887  137.0853  154.1351 H   0  0  0  0  0  0  0  0  0  0  0  0
  151.6974  138.5366  153.3599 H   0  0  0  0  0  0  0  0  0  0  0  0
  152.3573  140.1384  156.5684 H   0  0  0  0  0  0  0  0  0  0  0  0
  152.4603  140.3903  154.8349 H   0  0  0  0  0  0  0  0  0  0  0  0
  150.4950  141.6015  155.7585 H   0  0  0  0  0  0  0  0  0  0  0  0
  149.8891  140.1324  156.4895 H   0  0  0  0  0  0  0  0  0  0  0  0
  143.4439  134.7351  150.4419 H   0  0  0  0  0  0  0  0  0  0  0  0
  1  2  1  0  0  0  0
  1 21  1  0  0  0  0
  1 22  1  0  0  0  0
  1 23  1  0  0  0  0
  2 20  2  0  0  0  0
  2  3  1  0  0  0  0
  3  4  2  0  0  0  0
  3 24  1  0  0  0  0
  4  5  1  0  0  0  0
  5  6  1  0  0  0  0
  5 20  1  0  0  0  0
  6  7  1  0  0  0  0
  6 25  1  0  0  0  0
  6 26  1  0  0  0  0
  7  8  1  0  0  0  0
  7  9  1  0  0  0  0
  7 27  1  0  0  0  0
  8 28  1  0  0  0  0
  8 29  1  0  0  0  0
  8 30  1  0  0  0  0
  9 10  1  0  0  0  0
  9 31  1  0  0  0  0
 10 11  1  0  0  0  0
 10 32  1  0  0  0  0
 10 33  1  0  0  0  0
 11 12  1  0  0  0  0
 11 13  1  0  0  0  0
 11 34  1  0  0  0  0
 12 35  1  0  0  0  0
 13 14  1  0  0  0  0
 13 36  1  0  0  0  0
 13 37  1  0  0  0  0
 14 19  1  0  0  0  0
 14 15  1  0  0  0  0
 15 16  1  0  0  0  0
 15 38  1  0  0  0  0
 15 39  1  0  0  0  0
 16 17  1  0  0  0  0
 16 40  1  0  0  0  0
 16 41  1  0  0  0  0
 17 18  1  0  0  0  0
 18 19  1  0  0  0  0
 18 42  1  0  0  0  0
 18 43  1  0  0  0  0
 19 44  1  0  0  0  0
 19 45  1  0  0  0  0
 20 46  1  0  0  0  0
M  END
> <s_m_source_file>
AV-unprocessed.smi

> <i_m_source_file_index>
3031

> <i_lp_mmshare_version>
43012

> <i_f3d_flags>
0

> <s_epik_input>
W0NIM11jMVtjSF1ubihbY0hdMSlbQ0gyXVtDQEhdKFtDSDNdKVtOSF1bQ0gyXVtDQEhdKFtPSF0pW0NIMl1OMltDSDJdW0NIMl1PW0NIMl1bQ0gyXTI=

> <s_epik_cmdline>
J2VwaWtfcHl0aG9uJywgJy1waCcsICc3LjAnLCAnLXRuJywgJzgnLCAnLW1hJywgJzIwMCcsICctbWV0YWxfYmluZGluZycsICctaW1hZScsICc8aW5maWxlLm1hZT4nLCAnLW9tYWUnLCAnPG91dGZpbGUubWFlPic=

> <r_lp_tautomer_probability>
1

> <r_epik_Ionization_Penalty>
2.8101

> <r_epik_Ionization_Penalty_Charging>
0

> <r_epik_Ionization_Penalty_Neutral>
2.8101

> <r_epik_State_Penalty>
2.12351

> <r_epik_Charging_Adjusted_Penalty>
2.12351

> <i_epik_Tot_Q>
0

> <i_epik_Tot_abs_Q>
0

> <r_epik_Metal_State_Penalty>
2.12345

> <b_epik_Metal_Only>
0

> <s_lp_Force_Field>
OPLS_2005

> <r_lp_Energy>
32.0321

> <b_lp_Chiralities_Consistent>
1

> <s_lp_Variant>
AV-unprocessed.smi:3031-15

> <Gold.Version>
5.8.1

> <Gold.Id.Protein>
6NUR|6NUR_protein|mol2

> <Gold.PLP.Fitness>
47.2823

> <Gold.PLP.PLP>
-38.8359

> <Gold.PLP.part.hbond>
-2.9534

> <Gold.PLP.part.metal>
0.0000

> <Gold.PLP.part.buried>
-1.0368

> <Gold.PLP.part.nonpolar>
-35.4408

> <Gold.PLP.part.repulsive>
0.5566

> <Gold.PLP.ligand.clash>
0.0000

> <Gold.PLP.ligand.torsion>
1.0670

> <Gold.PLP.Chemscore.Hbond>
2.0172

> <Gold.PLP.Chemscore.CHOScore>
1.4546

> <Gold.PLP.Chemscore.Metal>
0.0000

> <Gold.Chemscore.Hbonds>
donor molecule, donor type, donor heavy atom, donor atom, acceptor molecule, acceptor atom, score
      L1  H     9    31       P1 10175  1.00
      L1  H    12    35       P1 10175  1.00
      P1  H  7989  7998       L1    14  0.05
      L1  C     3    24       P1 10747  0.58
      L1  C    20    46       P1 10186  0.82

> <Gold.PLP.Chemscore.Internal.Correction>
0.1653

> <Gold.Rescore>
     Score         DG    S(hbond)    S(metal)    S(lipo)     H(rot)  DE(clash)    DE(int)     intcor
     14.42     -15.48       1.73        0.00      91.61       2.53       0.08       0.98       ----

> <Gold.Chemscore.Fitness>
14.4203

> <Gold.Chemscore.DG>
-15.4801

> <Gold.Chemscore.ZeroCoef>
-5.4800

> <Gold.Chemscore.Hbond>
1.7265

> <Gold.Chemscore.Metal>
0.0000

> <Gold.Chemscore.Lipo>
91.6116

> <Gold.Chemscore.Internal_Hbond>
0.0000

> <Gold.Chemscore.DEClash>
0.0810

> <Gold.Chemscore.DEInternal>
0.9788

> <Gold.Chemscore.Rot>
2.5333

> <Gold.Chemscore.Internal.Correction>
   9.000000E+99

> <Gold.Chemscore.Hbonds>
donor molecule, donor type, donor heavy atom, donor atom, acceptor molecule, acceptor atom, score
      L1  H     9    31       P1 10175  0.96
      L1  H    12    35       P1 10175  0.52

> <Gold.Chemscore.Hbond.Weighted>
-5.7667

> <Gold.Chemscore.Metal.Weighted>
-0.0000

> <Gold.Chemscore.Lipo.Weighted>
-10.7186

> <Gold.Chemscore.Internal_Hbond.Weighted>
0.0000

> <Gold.Chemscore.DEClash.Weighted>
0.0810

> <Gold.Chemscore.DEInternal.Weighted>
0.9788

> <Gold.Chemscore.Rot.Weighted>
6.4852

> <Gold.Chemscore.Internal.Correction.Weighted>
   9.000000E+99

> <Gold.Protein.RotatedTorsions>
[ 6907 6896 6895 6894 ] final  -15.22 input  -60.11 | X-H torsion
[ 7974 7965 7964 7962 ] final  -74.05 input  175.53 | X-H torsion
[ 8008 7997 7996 7995 ] final -167.56 input   59.86 | X-H torsion
[ 10167 10162 10161 10158 ] final   21.94 input  -65.29 | X-H torsion
[ 10718 10713 10712 10709 ] final  112.51 input   66.30 | X-H torsion
[ 10763 10752 10751 10750 ] final  -17.99 input  -60.55 | X-H torsion
[ 11005 11000 10999 10996 ] final   -1.92 input  -57.11 | X-H torsion

> <Gold.Protein.ActiveResidues>
 VAL166  LYS551  ARG553  GLY616  TRP617  ASP618  TYR619  PRO620  LYS621  CYS622 
 ASP623  PHE694  ASN695  SER759  ASP760  ASP761  ALA762  ILE779  LEU786  VAL792 
 PHE793  MET794  SER795  GLU796  ALA797  LYS798  CYS799  TRP800  GLU811  SER814 

> <Gold.Protein.RotatedAtoms>
  151.3274  135.0833  159.9326 H   0  0  0  0  0  0  0  0  0  0  0  0  # atno 6907 bound_to 6896
  152.5243  133.9577  159.7713 H   0  0  0  0  0  0  0  0  0  0  0  0  # atno 6908 bound_to 6896
  150.9910  133.6097  159.2738 H   0  0  0  0  0  0  0  0  0  0  0  0  # atno 6909 bound_to 6896
  145.6442  140.9302  143.1019 H   0  0  0  0  0  0  0  0  0  0  0  0  # atno 7974 bound_to 7965
  155.8794  140.1006  157.1496 H   0  0  0  0  0  0  0  0  0  0  0  0  # atno 8008 bound_to 7997
  154.4004  140.1332  156.4241 H   0  0  0  0  0  0  0  0  0  0  0  0  # atno 8009 bound_to 7997
  155.7660  140.3462  155.5224 H   0  0  0  0  0  0  0  0  0  0  0  0  # atno 8010 bound_to 7997
  140.5387  143.9715  150.6506 H   0  0  0  0  0  0  0  0  0  0  0  0  # atno 10167 bound_to 10162
  157.6389  131.0969  150.6905 H   0  0  0  0  0  0  0  0  0  0  0  0  # atno 10718 bound_to 10713
  153.5824  135.7004  153.5457 H   0  0  0  0  0  0  0  0  0  0  0  0  # atno 10763 bound_to 10752
  153.3249  135.4063  155.1447 H   0  0  0  0  0  0  0  0  0  0  0  0  # atno 10764 bound_to 10752
  154.8615  135.3704  154.5352 H   0  0  0  0  0  0  0  0  0  0  0  0  # atno 10765 bound_to 10752
  140.6527  133.9390  155.8389 H   0  0  0  0  0  0  0  0  0  0  0  0  # atno 11005 bound_to 11000
  144.7146  139.8243  143.7403 LP  0  0  0  0  0  0  0  0  0  0  0  0  # atno 17320 bound_to 7965
  146.1256  139.4282  143.0201 LP  0  0  0  0  0  0  0  0  0  0  0  0  # atno 17321 bound_to 7965
  140.3109  143.3198  152.0879 LP  0  0  0  0  0  0  0  0  0  0  0  0  # atno 17342 bound_to 10162
  139.4980  144.6636  151.6407 LP  0  0  0  0  0  0  0  0  0  0  0  0  # atno 17343 bound_to 10162
  156.7232  130.4687  149.5517 LP  0  0  0  0  0  0  0  0  0  0  0  0  # atno 17370 bound_to 10713
  156.1651  130.6400  151.0768 LP  0  0  0  0  0  0  0  0  0  0  0  0  # atno 17371 bound_to 10713
  141.0525  134.0464  157.3765 LP  0  0  0  0  0  0  0  0  0  0  0  0  # atno 17394 bound_to 11000
  139.9040  135.0174  156.7402 LP  0  0  0  0  0  0  0  0  0  0  0  0  # atno 17395 bound_to 11000

$$$$
