AV-unprocessed.smi:1834|AV-procd|sdf|7470|dock3
  -GOLD-   22720 9163D 1   1.00000     0.00000
 Structure written by MMmdl.
 46 47  0  0  0  0  0  0  0  0  2 V2000
  150.5820  138.8841  156.0095 C   0  0  0  0  0  0  0  0  0  0  0  0
  150.4657  138.9152  154.4786 C   0  0  0  0  0  0  0  0  0  0  0  0
  149.1404  139.3958  154.0109 N   0  3  2  0  0  0  0  0  0  0  0  0
  148.8551  140.7771  154.4800 C   0  0  0  0  0  0  0  0  0  0  0  0
  147.5357  141.3096  153.8981 C   0  0  0  0  0  0  0  0  0  0  0  0
  146.3692  140.3590  154.2062 C   0  0  0  0  0  0  0  0  0  0  0  0
  146.6832  138.9234  153.7453 C   0  0  1  0  0  0  0  0  0  0  0  0
  146.5948  138.7771  152.2070 C   0  0  0  0  0  0  0  0  0  0  0  0
  146.9135  137.4264  151.7531 N   0  0  0  0  0  0  0  0  0  0  0  0
  146.0202  136.4448  151.5614 C   0  0  0  0  0  0  0  0  0  0  0  0
  144.8145  136.5793  151.7700 O   0  0  0  0  0  0  0  0  0  0  0  0
  146.6135  135.3289  151.1045 N   0  0  0  0  0  0  0  0  0  0  0  0
  146.0381  134.1601  150.7157 C   0  0  0  0  0  0  0  0  0  0  0  0
  144.8957  133.9654  149.9879 C   0  0  0  0  0  0  0  0  0  0  0  0
  144.8134  132.5447  149.9070 C   0  0  0  0  0  0  0  0  0  0  0  0
  143.7636  131.7165  149.2266 C   0  0  0  0  0  0  0  0  0  0  0  0
  145.8162  131.9374  150.5310 N   0  0  0  0  0  0  0  0  0  0  0  0
  146.5786  132.9326  151.0320 N   0  0  0  0  0  0  0  0  0  0  0  0
  147.7738  132.6082  151.7866 C   0  0  0  0  0  0  0  0  0  0  0  0
  148.0300  138.4668  154.3551 C   0  0  0  0  0  0  0  0  0  0  0  0
  151.5513  138.4860  156.3099 H   0  0  0  0  0  0  0  0  0  0  0  0
  149.8166  138.2445  156.4491 H   0  0  0  0  0  0  0  0  0  0  0  0
  150.4891  139.8751  156.4532 H   0  0  0  0  0  0  0  0  0  0  0  0
  151.2584  139.5267  154.0450 H   0  0  0  0  0  0  0  0  0  0  0  0
  150.6292  137.8992  154.1167 H   0  0  0  0  0  0  0  0  0  0  0  0
  148.8148  140.7887  155.5704 H   0  0  0  0  0  0  0  0  0  0  0  0
  149.6674  141.4432  154.1864 H   0  0  0  0  0  0  0  0  0  0  0  0
  147.3241  142.2977  154.3082 H   0  0  0  0  0  0  0  0  0  0  0  0
  147.6364  141.4447  152.8210 H   0  0  0  0  0  0  0  0  0  0  0  0
  146.1846  140.3591  155.2814 H   0  0  0  0  0  0  0  0  0  0  0  0
  145.4518  140.7209  153.7407 H   0  0  0  0  0  0  0  0  0  0  0  0
  145.9081  138.2777  154.1609 H   0  0  0  0  0  0  0  0  0  0  0  0
  145.5774  138.9949  151.8804 H   0  0  0  0  0  0  0  0  0  0  0  0
  147.2292  139.5102  151.7073 H   0  0  0  0  0  0  0  0  0  0  0  0
  147.8858  137.2286  151.5639 H   0  0  0  0  0  0  0  0  0  0  0  0
  147.6161  135.3703  150.9947 H   0  0  0  0  0  0  0  0  0  0  0  0
  144.2180  134.6974  149.5754 H   0  0  0  0  0  0  0  0  0  0  0  0
  143.0661  132.3429  148.6703 H   0  0  0  0  0  0  0  0  0  0  0  0
  143.1873  131.1414  149.9516 H   0  0  0  0  0  0  0  0  0  0  0  0
  144.2111  131.0140  148.5230 H   0  0  0  0  0  0  0  0  0  0  0  0
  148.4864  133.4318  151.7410 H   0  0  0  0  0  0  0  0  0  0  0  0
  148.2468  131.7162  151.3744 H   0  0  0  0  0  0  0  0  0  0  0  0
  147.5087  132.4228  152.8277 H   0  0  0  0  0  0  0  0  0  0  0  0
  148.2614  137.4515  154.0382 H   0  0  0  0  0  0  0  0  0  0  0  0
  147.9374  138.4217  155.4416 H   0  0  0  0  0  0  0  0  0  0  0  0
  149.1898  139.4399  153.0026 H   0  0  0  0  0  0  0  0  0  0  0  0
  1  2  1  0  0  0  0
  1 21  1  0  0  0  0
  1 22  1  0  0  0  0
  1 23  1  0  0  0  0
  2  3  1  0  0  0  0
  2 24  1  0  0  0  0
  2 25  1  0  0  0  0
  3 20  1  0  0  0  0
  3  4  1  0  0  0  0
  3 46  1  0  0  0  0
  4  5  1  0  0  0  0
  4 26  1  0  0  0  0
  4 27  1  0  0  0  0
  5  6  1  0  0  0  0
  5 28  1  0  0  0  0
  5 29  1  0  0  0  0
  6  7  1  0  0  0  0
  6 30  1  0  0  0  0
  6 31  1  0  0  0  0
  7  8  1  0  0  0  0
  7 20  1  0  0  0  0
  7 32  1  0  0  0  0
  8  9  1  0  0  0  0
  8 33  1  0  0  0  0
  8 34  1  0  0  0  0
  9 10  1  0  0  0  0
  9 35  1  0  0  0  0
 10 11  2  0  0  0  0
 10 12  1  0  0  0  0
 12 13  1  0  0  0  0
 12 36  1  0  0  0  0
 13 18  1  0  0  0  0
 13 14  2  0  0  0  0
 14 15  1  0  0  0  0
 14 37  1  0  0  0  0
 15 16  1  0  0  0  0
 15 17  2  0  0  0  0
 16 38  1  0  0  0  0
 16 39  1  0  0  0  0
 16 40  1  0  0  0  0
 17 18  1  0  0  0  0
 18 19  1  0  0  0  0
 19 41  1  0  0  0  0
 19 42  1  0  0  0  0
 19 43  1  0  0  0  0
 20 44  1  0  0  0  0
 20 45  1  0  0  0  0
M  CHG  1   3   1
M  END
> <s_m_source_file>
AV-unprocessed.smi

> <i_m_source_file_index>
1834

> <i_lp_mmshare_version>
43012

> <i_f3d_flags>
0

> <s_epik_input>
W0NIM11bQ0gyXU4xW0NIMl1bQ0gyXVtDSDJdW0NASF0oW0NIMl0xKVtDSDJdW05IXUMoPU8pW05IXWMyW2NIXWMoW0NIM10pbm4yW0NIM10=

> <s_epik_cmdline>
J2VwaWtfcHl0aG9uJywgJy1waCcsICc3LjAnLCAnLXRuJywgJzgnLCAnLW1hJywgJzIwMCcsICctbWV0YWxfYmluZGluZycsICctaW1hZScsICc8aW5maWxlLm1hZT4nLCAnLW9tYWUnLCAnPG91dGZpbGUubWFlPic=

> <r_lp_tautomer_probability>
1

> <r_epik_Ionization_Penalty>
0.000466842

> <r_epik_Ionization_Penalty_Charging>
0.000378984

> <r_epik_Ionization_Penalty_Neutral>
8.78572e-05

> <r_epik_State_Penalty>
0.000231434

> <r_epik_Charging_Adjusted_Penalty>
0.000610418

> <i_epik_Tot_Q>
1

> <i_epik_Tot_abs_Q>
1

> <r_epik_Metal_State_Penalty>
-0

> <b_epik_Metal_Only>
0

> <s_lp_Force_Field>
OPLS_2005

> <r_lp_Energy>
21.1664

> <b_lp_Chiralities_Consistent>
1

> <s_lp_Variant>
AV-unprocessed.smi:1834-2

> <Gold.Version>
5.8.1

> <Gold.Id.Protein>
6NUR|6NUR_protein|mol2

> <Gold.PLP.Fitness>
43.4291

> <Gold.PLP.PLP>
-35.8276

> <Gold.PLP.part.hbond>
-3.0000

> <Gold.PLP.part.metal>
0.0000

> <Gold.PLP.part.buried>
-2.0167

> <Gold.PLP.part.nonpolar>
-32.3506

> <Gold.PLP.part.repulsive>
1.0114

> <Gold.PLP.ligand.clash>
0.0000

> <Gold.PLP.ligand.torsion>
0.5235

> <Gold.PLP.Chemscore.Hbond>
2.8720

> <Gold.PLP.Chemscore.CHOScore>
0.0000

> <Gold.PLP.Chemscore.Metal>
0.0000

> <Gold.Chemscore.Hbonds>
donor molecule, donor type, donor heavy atom, donor atom, acceptor molecule, acceptor atom, score
      L1  H     3    46       P1  7957  1.00
      L1  H     9    35       P1  7948  0.70
      L1  H    12    36       P1  7948  0.74

> <Gold.PLP.Chemscore.Internal.Correction>
0.0325

> <Gold.Rescore>
     Score         DG    S(hbond)    S(metal)    S(lipo)     H(rot)  DE(clash)    DE(int)     intcor
     20.01     -21.03       2.82        0.00      83.76       1.43       0.55       0.47       ----

> <Gold.Chemscore.Fitness>
20.0103

> <Gold.Chemscore.DG>
-21.0285

> <Gold.Chemscore.ZeroCoef>
-5.4800

> <Gold.Chemscore.Hbond>
2.8166

> <Gold.Chemscore.Metal>
0.0000

> <Gold.Chemscore.Lipo>
83.7568

> <Gold.Chemscore.Internal_Hbond>
0.0000

> <Gold.Chemscore.DEClash>
0.5471

> <Gold.Chemscore.DEInternal>
0.4711

> <Gold.Chemscore.Rot>
1.4291

> <Gold.Chemscore.Internal.Correction>
   9.000000E+99

> <Gold.Chemscore.Hbonds>
donor molecule, donor type, donor heavy atom, donor atom, acceptor molecule, acceptor atom, score
      L1  H     3    46       P1  7957  0.98
      L1  H     9    35       P1  7948  0.67
      L1  H    12    36       P1  7948  0.22

> <Gold.Chemscore.Hbond.Weighted>
-9.4074

> <Gold.Chemscore.Metal.Weighted>
-0.0000

> <Gold.Chemscore.Lipo.Weighted>
-9.7996

> <Gold.Chemscore.Internal_Hbond.Weighted>
0.0000

> <Gold.Chemscore.DEClash.Weighted>
0.5471

> <Gold.Chemscore.DEInternal.Weighted>
0.4711

> <Gold.Chemscore.Rot.Weighted>
3.6584

> <Gold.Chemscore.Internal.Correction.Weighted>
   9.000000E+99

> <Gold.Protein.RotatedTorsions>
[ 6907 6896 6895 6894 ] final  118.43 input  -60.11 | X-H torsion
[ 7974 7965 7964 7962 ] final  101.20 input  175.53 | X-H torsion
[ 8008 7997 7996 7995 ] final -104.53 input   59.86 | X-H torsion
[ 10167 10162 10161 10158 ] final -126.89 input  -65.29 | X-H torsion
[ 10718 10713 10712 10709 ] final   58.02 input   66.30 | X-H torsion
[ 10763 10752 10751 10750 ] final   85.53 input  -60.55 | X-H torsion
[ 11005 11000 10999 10996 ] final -144.37 input  -57.11 | X-H torsion

> <Gold.Protein.ActiveResidues>
 VAL166  LYS551  ARG553  GLY616  TRP617  ASP618  TYR619  PRO620  LYS621  CYS622 
 ASP623  PHE694  ASN695  SER759  ASP760  ASP761  ALA762  ILE779  LEU786  VAL792 
 PHE793  MET794  SER795  GLU796  ALA797  LYS798  CYS799  TRP800  GLU811  SER814 

> <Gold.Protein.RotatedAtoms>
  152.4543  133.7692  159.6789 H   0  0  0  0  0  0  0  0  0  0  0  0  # atno 6907 bound_to 6896
  150.8465  133.7844  159.3047 H   0  0  0  0  0  0  0  0  0  0  0  0  # atno 6908 bound_to 6896
  151.5453  135.1071  159.9988 H   0  0  0  0  0  0  0  0  0  0  0  0  # atno 6909 bound_to 6896
  145.3755  139.2390  143.3432 H   0  0  0  0  0  0  0  0  0  0  0  0  # atno 7974 bound_to 7965
  154.8866  140.0417  157.1814 H   0  0  0  0  0  0  0  0  0  0  0  0  # atno 8008 bound_to 7997
  154.8584  140.2940  155.5533 H   0  0  0  0  0  0  0  0  0  0  0  0  # atno 8009 bound_to 7997
  156.2998  140.2451  156.3554 H   0  0  0  0  0  0  0  0  0  0  0  0  # atno 8010 bound_to 7997
  139.9666  143.5891  152.2427 H   0  0  0  0  0  0  0  0  0  0  0  0  # atno 10167 bound_to 10162
  157.5562  130.8802  149.9039 H   0  0  0  0  0  0  0  0  0  0  0  0  # atno 10718 bound_to 10713
  153.1484  135.4614  154.9600 H   0  0  0  0  0  0  0  0  0  0  0  0  # atno 10763 bound_to 10752
  154.7804  135.3187  154.8003 H   0  0  0  0  0  0  0  0  0  0  0  0  # atno 10764 bound_to 10752
  153.8513  135.6921  153.4846 H   0  0  0  0  0  0  0  0  0  0  0  0  # atno 10765 bound_to 10752
  140.8031  134.2833  157.4971 H   0  0  0  0  0  0  0  0  0  0  0  0  # atno 11005 bound_to 11000
  146.2866  140.4413  142.8755 LP  0  0  0  0  0  0  0  0  0  0  0  0  # atno 17320 bound_to 7965
  144.8546  140.7051  143.6146 LP  0  0  0  0  0  0  0  0  0  0  0  0  # atno 17321 bound_to 7965
  139.6513  144.7661  151.2143 LP  0  0  0  0  0  0  0  0  0  0  0  0  # atno 17342 bound_to 10162
  140.7536  143.6157  150.8562 LP  0  0  0  0  0  0  0  0  0  0  0  0  # atno 17343 bound_to 10162
  156.0621  130.3698  150.0960 LP  0  0  0  0  0  0  0  0  0  0  0  0  # atno 17370 bound_to 10713
  156.9128  130.9657  151.3560 LP  0  0  0  0  0  0  0  0  0  0  0  0  # atno 17371 bound_to 10713
  139.8720  134.9440  156.3870 LP  0  0  0  0  0  0  0  0  0  0  0  0  # atno 17394 bound_to 11000
  140.9275  133.7602  155.9982 LP  0  0  0  0  0  0  0  0  0  0  0  0  # atno 17395 bound_to 11000

$$$$
