AV-unprocessed.smi:2701|AV-procd|sdf|10429|dock2
  -GOLD-   2272014473D 1   1.00000     0.00000
 Structure written by MMmdl.
 31 32  0  0  0  0  0  0  0  0  2 V2000
  149.9600  135.4844  154.8354 C   0  0  0  0  0  0  0  0  0  0  0  0
  150.6359  136.8214  155.1891 C   0  0  2  0  0  0  0  0  0  0  0  0
  150.7418  136.9870  156.7285 C   0  0  0  0  0  0  0  0  0  0  0  0
  151.8510  137.0150  157.2633 O   0  0  0  0  0  0  0  0  0  0  0  0
  149.5292  137.1032  157.3194 N   0  5  0  0  0  0  0  0  0  0  0  0
  149.3800  137.2703  158.9200 S   0  0  0  0  0  0  0  0  0  0  0  0
  150.5251  136.7081  159.6535 O   0  0  0  0  0  0  0  0  0  0  0  0
  148.9271  138.6173  159.3019 O   0  0  0  0  0  0  0  0  0  0  0  0
  147.9595  136.1407  159.2478 C   0  0  0  0  0  0  0  0  0  0  0  0
  147.7023  136.0480  160.7257 C   0  0  0  0  0  0  0  0  0  0  0  0
  147.3955  134.8942  161.4993 C   0  0  0  0  0  0  0  0  0  0  0  0
  147.2703  135.3837  162.7672 C   0  0  0  0  0  0  0  0  0  0  0  0
  147.4897  136.7224  162.7838 O   0  0  0  0  0  0  0  0  0  0  0  0
  147.7683  137.1370  161.4764 N   0  0  0  0  0  0  0  0  0  0  0  0
  149.9637  138.0165  154.4922 C   0  0  0  0  0  0  0  0  0  0  0  0
  151.0687  139.0568  154.4106 C   0  0  0  0  0  0  0  0  0  0  0  0
  152.3514  138.2207  154.4271 C   0  0  0  0  0  0  0  0  0  0  0  0
  151.9324  136.8661  154.5901 O   0  0  0  0  0  0  0  0  0  0  0  0
  148.9344  135.4516  155.2048 H   0  0  0  0  0  0  0  0  0  0  0  0
  150.4957  134.6372  155.2652 H   0  0  0  0  0  0  0  0  0  0  0  0
  149.9279  135.3325  153.7563 H   0  0  0  0  0  0  0  0  0  0  0  0
  147.0862  136.5298  158.7252 H   0  0  0  0  0  0  0  0  0  0  0  0
  148.1940  135.1652  158.8211 H   0  0  0  0  0  0  0  0  0  0  0  0
  147.2791  133.8717  161.1719 H   0  0  0  0  0  0  0  0  0  0  0  0
  147.0420  134.9280  163.7194 H   0  0  0  0  0  0  0  0  0  0  0  0
  149.6615  137.7354  153.4824 H   0  0  0  0  0  0  0  0  0  0  0  0
  149.0726  138.3870  155.0004 H   0  0  0  0  0  0  0  0  0  0  0  0
  150.9835  139.6761  153.5174 H   0  0  0  0  0  0  0  0  0  0  0  0
  151.0389  139.7143  155.2804 H   0  0  0  0  0  0  0  0  0  0  0  0
  152.9207  138.3244  153.5033 H   0  0  0  0  0  0  0  0  0  0  0  0
  152.9957  138.5139  155.2569 H   0  0  0  0  0  0  0  0  0  0  0  0
  1  2  1  0  0  0  0
  1 19  1  0  0  0  0
  1 20  1  0  0  0  0
  1 21  1  0  0  0  0
  2 18  1  0  0  0  0
  2  3  1  0  0  0  0
  2 15  1  0  0  0  0
  3  4  2  0  0  0  0
  3  5  1  0  0  0  0
  5  6  1  0  0  0  0
  6  7  2  0  0  0  0
  6  8  2  0  0  0  0
  6  9  1  0  0  0  0
  9 10  1  0  0  0  0
  9 22  1  0  0  0  0
  9 23  1  0  0  0  0
 10 14  2  0  0  0  0
 10 11  1  0  0  0  0
 11 12  2  0  0  0  0
 11 24  1  0  0  0  0
 12 13  1  0  0  0  0
 12 25  1  0  0  0  0
 13 14  1  0  0  0  0
 15 16  1  0  0  0  0
 15 26  1  0  0  0  0
 15 27  1  0  0  0  0
 16 17  1  0  0  0  0
 16 28  1  0  0  0  0
 16 29  1  0  0  0  0
 17 18  1  0  0  0  0
 17 30  1  0  0  0  0
 17 31  1  0  0  0  0
M  CHG  1   5  -1
M  END
> <s_m_source_file>
AV-unprocessed.smi

> <i_m_source_file_index>
2701

> <i_lp_mmshare_version>
43012

> <i_f3d_flags>
0

> <s_epik_input>
TzFbQ0gyXVtDSDJdW0NIMl1bQ0BAXTEoW0NIM10pQyg9TylbTkhdUyg9TykoPU8pW0NIMl1jMltjSF1bY0hdb24y

> <s_epik_cmdline>
J2VwaWtfcHl0aG9uJywgJy1waCcsICc3LjAnLCAnLXRuJywgJzgnLCAnLW1hJywgJzIwMCcsICctbWV0YWxfYmluZGluZycsICctaW1hZScsICc8aW5maWxlLm1hZT4nLCAnLW9tYWUnLCAnPG91dGZpbGUubWFlPic=

> <r_lp_tautomer_probability>
1

> <r_epik_Ionization_Penalty>
0.000279175

> <r_epik_Ionization_Penalty_Charging>
0.000279174

> <r_epik_Ionization_Penalty_Neutral>
1.67252e-10

> <r_epik_State_Penalty>
-0

> <r_epik_Charging_Adjusted_Penalty>
0.000279174

> <i_epik_Tot_Q>
-1

> <i_epik_Tot_abs_Q>
1

> <r_epik_Metal_State_Penalty>
-0

> <b_epik_Metal_Only>
0

> <s_lp_Force_Field>
OPLS_2005

> <r_lp_Energy>
16.1622

> <b_lp_Chiralities_Consistent>
1

> <s_lp_Variant>
AV-unprocessed.smi:2701-2

> <Gold.Version>
5.8.1

> <Gold.Id.Protein>
6NUR|6NUR_protein|mol2

> <Gold.PLP.Fitness>
39.0920

> <Gold.PLP.PLP>
-29.5354

> <Gold.PLP.part.hbond>
-6.1814

> <Gold.PLP.part.metal>
0.0000

> <Gold.PLP.part.buried>
-1.8357

> <Gold.PLP.part.nonpolar>
-21.9825

> <Gold.PLP.part.repulsive>
0.1084

> <Gold.PLP.ligand.clash>
0.0000

> <Gold.PLP.ligand.torsion>
0.9385

> <Gold.PLP.Chemscore.Hbond>
3.4549

> <Gold.PLP.Chemscore.CHOScore>
0.0000

> <Gold.PLP.Chemscore.Metal>
0.0000

> <Gold.Chemscore.Hbonds>
donor molecule, donor type, donor heavy atom, donor atom, acceptor molecule, acceptor atom, score
      P1  H  6896  6908       L1     7  1.00
      P1  H  6931  6943       L1    14  0.80
      P1  H  6934  6947       L1    14  0.73
      P1  H 10752 10765       L1    18  1.00

> <Gold.PLP.Chemscore.Internal.Correction>
1.0690

> <Gold.Rescore>
     Score         DG    S(hbond)    S(metal)    S(lipo)     H(rot)  DE(clash)    DE(int)     intcor
     13.38     -18.14       2.90        0.00      59.61       1.56       1.20       3.56       ----

> <Gold.Chemscore.Fitness>
13.3817

> <Gold.Chemscore.DG>
-18.1370

> <Gold.Chemscore.ZeroCoef>
-5.4800

> <Gold.Chemscore.Hbond>
2.8964

> <Gold.Chemscore.Metal>
0.0000

> <Gold.Chemscore.Lipo>
59.6096

> <Gold.Chemscore.Internal_Hbond>
0.0000

> <Gold.Chemscore.DEClash>
1.1996

> <Gold.Chemscore.DEInternal>
3.5558

> <Gold.Chemscore.Rot>
1.5591

> <Gold.Chemscore.Internal.Correction>
   9.000000E+99

> <Gold.Chemscore.Hbonds>
donor molecule, donor type, donor heavy atom, donor atom, acceptor molecule, acceptor atom, score
      P1  H  6896  6908       L1     7  0.98
      P1  H  6931  6943       L1    14  0.11
      P1  H  6934  6947       L1    14  0.65
      P1  H 10752 10765       L1    18  0.94

> <Gold.Chemscore.Hbond.Weighted>
-9.6741

> <Gold.Chemscore.Metal.Weighted>
-0.0000

> <Gold.Chemscore.Lipo.Weighted>
-6.9743

> <Gold.Chemscore.Internal_Hbond.Weighted>
0.0000

> <Gold.Chemscore.DEClash.Weighted>
1.1996

> <Gold.Chemscore.DEInternal.Weighted>
3.5558

> <Gold.Chemscore.Rot.Weighted>
3.9914

> <Gold.Chemscore.Internal.Correction.Weighted>
   9.000000E+99

> <Gold.Protein.RotatedTorsions>
[ 6907 6896 6895 6894 ] final -162.87 input  -60.11 | X-H torsion
[ 7974 7965 7964 7962 ] final  -99.72 input  175.53 | X-H torsion
[ 8008 7997 7996 7995 ] final -134.43 input   59.86 | X-H torsion
[ 10167 10162 10161 10158 ] final -168.47 input  -65.29 | X-H torsion
[ 10718 10713 10712 10709 ] final  -55.08 input   66.30 | X-H torsion
[ 10763 10752 10751 10750 ] final  175.97 input  -60.55 | X-H torsion
[ 11005 11000 10999 10996 ] final   73.78 input  -57.11 | X-H torsion

> <Gold.Protein.ActiveResidues>
 VAL166  LYS551  ARG553  GLY616  TRP617  ASP618  TYR619  PRO620  LYS621  CYS622 
 ASP623  PHE694  ASN695  SER759  ASP760  ASP761  ALA762  ILE779  LEU786  VAL792 
 PHE793  MET794  SER795  GLU796  ALA797  LYS798  CYS799  TRP800  GLU811  SER814 

> <Gold.Protein.RotatedAtoms>
  151.3871  133.3801  159.2716 H   0  0  0  0  0  0  0  0  0  0  0  0  # atno 6907 bound_to 6896
  150.9533  134.8932  159.7696 H   0  0  0  0  0  0  0  0  0  0  0  0  # atno 6908 bound_to 6896
  152.5120  134.3827  159.9409 H   0  0  0  0  0  0  0  0  0  0  0  0  # atno 6909 bound_to 6896
  145.3039  140.9384  143.2808 H   0  0  0  0  0  0  0  0  0  0  0  0  # atno 7974 bound_to 7965
  155.3620  140.0483  157.3046 H   0  0  0  0  0  0  0  0  0  0  0  0  # atno 8008 bound_to 7997
  154.5173  140.2213  155.9005 H   0  0  0  0  0  0  0  0  0  0  0  0  # atno 8009 bound_to 7997
  156.1651  140.3108  155.8880 H   0  0  0  0  0  0  0  0  0  0  0  0  # atno 8010 bound_to 7997
  139.5983  144.1064  152.1714 H   0  0  0  0  0  0  0  0  0  0  0  0  # atno 10167 bound_to 10162
  156.1397  130.4155  150.0124 H   0  0  0  0  0  0  0  0  0  0  0  0  # atno 10718 bound_to 10713
  154.4748  135.2772  155.1615 H   0  0  0  0  0  0  0  0  0  0  0  0  # atno 10763 bound_to 10752
  154.3350  135.6182  153.5573 H   0  0  0  0  0  0  0  0  0  0  0  0  # atno 10764 bound_to 10752
  152.9868  135.5774  154.5136 H   0  0  0  0  0  0  0  0  0  0  0  0  # atno 10765 bound_to 10752
  139.9423  134.7376  156.1068 H   0  0  0  0  0  0  0  0  0  0  0  0  # atno 11005 bound_to 11000
  144.9071  139.4576  143.6605 LP  0  0  0  0  0  0  0  0  0  0  0  0  # atno 17320 bound_to 7965
  146.3142  139.7857  142.8996 LP  0  0  0  0  0  0  0  0  0  0  0  0  # atno 17321 bound_to 7965
  140.0655  144.5822  150.7231 LP  0  0  0  0  0  0  0  0  0  0  0  0  # atno 17342 bound_to 10162
  140.7230  143.2607  151.4216 LP  0  0  0  0  0  0  0  0  0  0  0  0  # atno 17343 bound_to 10162
  156.8012  130.9291  151.3646 LP  0  0  0  0  0  0  0  0  0  0  0  0  # atno 17370 bound_to 10713
  157.6565  130.8929  149.9739 LP  0  0  0  0  0  0  0  0  0  0  0  0  # atno 17371 bound_to 10713
  141.1062  133.6659  156.2869 LP  0  0  0  0  0  0  0  0  0  0  0  0  # atno 17394 bound_to 11000
  140.5921  134.5640  157.5501 LP  0  0  0  0  0  0  0  0  0  0  0  0  # atno 17395 bound_to 11000

$$$$
