AV-unprocessed.smi:2973|AV-procd|sdf|11342|dock6
  -GOLD-   2272016253D 1   1.00000     0.00000
 Structure written by MMmdl.
 50 52  0  0  0  0  0  0  0  0  2 V2000
  150.1252  141.5006  156.5010 C   0  0  0  0  0  0  0  0  0  0  0  0
  151.3552  141.5936  157.4288 C   0  0  1  0  0  0  0  0  0  0  0  0
  151.0730  142.5730  158.5892 C   0  0  0  0  0  0  0  0  0  0  0  0
  152.2955  142.7502  159.5036 C   0  0  0  0  0  0  0  0  0  0  0  0
  152.7820  141.4020  160.0529 C   0  0  0  0  0  0  0  0  0  0  0  0
  153.0834  140.4214  158.9087 C   0  0  0  0  0  0  0  0  0  0  0  0
  151.8624  140.2241  157.9780 C   0  0  1  0  0  0  0  0  0  0  0  0
  150.8132  139.4766  158.6514 N   0  0  0  0  0  0  0  0  0  0  0  0
  150.5810  138.2825  158.0921 C   0  0  0  0  0  0  0  0  0  0  0  0
  149.7586  137.4607  158.4924 O   0  0  0  0  0  0  0  0  0  0  0  0
  151.4029  138.1431  157.0360 N   0  0  0  0  0  0  0  0  0  0  0  0
  151.4646  136.9452  156.1848 C   0  0  0  0  0  0  0  0  0  0  0  0
  150.1152  136.5007  155.5928 C   0  0  0  0  0  0  0  0  0  0  0  0
  149.2287  137.3384  155.4311 O   0  0  0  0  0  0  0  0  0  0  0  0
  149.9563  135.2067  155.2653 N   0  0  0  0  0  0  0  0  0  0  0  0
  148.7551  134.6285  154.6778 C   0  0  0  0  0  0  0  0  0  0  0  0
  149.0993  133.5099  153.6803 C   0  0  0  0  0  0  0  0  0  0  0  0
  147.9124  133.1260  152.8191 C   0  0  0  0  0  0  0  0  0  0  0  0
  147.3356  131.8381  152.8644 C   0  0  0  0  0  0  0  0  0  0  0  0
  146.2256  131.5515  152.0424 C   0  0  0  0  0  0  0  0  0  0  0  0
  145.7169  132.5570  151.1943 C   0  0  0  0  0  0  0  0  0  0  0  0
  146.3324  133.8254  151.1888 C   0  0  0  0  0  0  0  0  0  0  0  0
  147.3936  134.0614  151.9911 N   0  3  0  0  0  0  0  0  0  0  0  0
  152.1892  139.2178  156.8819 C   0  0  0  0  0  0  0  0  0  0  0  0
  153.0534  139.3886  156.0218 O   0  0  0  0  0  0  0  0  0  0  0  0
  149.2612  141.0819  157.0176 H   0  0  0  0  0  0  0  0  0  0  0  0
  150.3223  140.8829  155.6247 H   0  0  0  0  0  0  0  0  0  0  0  0
  149.8401  142.4876  156.1357 H   0  0  0  0  0  0  0  0  0  0  0  0
  152.1627  142.0273  156.8363 H   0  0  0  0  0  0  0  0  0  0  0  0
  150.7794  143.5452  158.1919 H   0  0  0  0  0  0  0  0  0  0  0  0
  150.2272  142.2168  159.1786 H   0  0  0  0  0  0  0  0  0  0  0  0
  153.1015  143.2300  158.9467 H   0  0  0  0  0  0  0  0  0  0  0  0
  152.0489  143.4199  160.3281 H   0  0  0  0  0  0  0  0  0  0  0  0
  153.6758  141.5494  160.6597 H   0  0  0  0  0  0  0  0  0  0  0  0
  152.0263  140.9796  160.7163 H   0  0  0  0  0  0  0  0  0  0  0  0
  153.9269  140.8042  158.3318 H   0  0  0  0  0  0  0  0  0  0  0  0
  153.4100  139.4662  159.3235 H   0  0  0  0  0  0  0  0  0  0  0  0
  150.3276  139.8286  159.4637 H   0  0  0  0  0  0  0  0  0  0  0  0
  152.1613  137.1100  155.3612 H   0  0  0  0  0  0  0  0  0  0  0  0
  151.8807  136.1124  156.7542 H   0  0  0  0  0  0  0  0  0  0  0  0
  150.7302  134.5797  155.4318 H   0  0  0  0  0  0  0  0  0  0  0  0
  148.1430  134.2291  155.4871 H   0  0  0  0  0  0  0  0  0  0  0  0
  148.1635  135.4088  154.1959 H   0  0  0  0  0  0  0  0  0  0  0  0
  149.9173  133.8197  153.0282 H   0  0  0  0  0  0  0  0  0  0  0  0
  149.4521  132.6281  154.2170 H   0  0  0  0  0  0  0  0  0  0  0  0
  147.7355  131.0788  153.5207 H   0  0  0  0  0  0  0  0  0  0  0  0
  145.7692  130.5726  152.0633 H   0  0  0  0  0  0  0  0  0  0  0  0
  144.8672  132.3576  150.5578 H   0  0  0  0  0  0  0  0  0  0  0  0
  146.0095  134.6524  150.5734 H   0  0  0  0  0  0  0  0  0  0  0  0
  147.8227  134.9870  151.9725 H   0  0  0  0  0  0  0  0  0  0  0  0
  1  2  1  0  0  0  0
  1 26  1  0  0  0  0
  1 27  1  0  0  0  0
  1 28  1  0  0  0  0
  2  7  1  0  0  0  0
  2  3  1  0  0  0  0
  2 29  1  0  0  0  0
  3  4  1  0  0  0  0
  3 30  1  0  0  0  0
  3 31  1  0  0  0  0
  4  5  1  0  0  0  0
  4 32  1  0  0  0  0
  4 33  1  0  0  0  0
  5  6  1  0  0  0  0
  5 34  1  0  0  0  0
  5 35  1  0  0  0  0
  6  7  1  0  0  0  0
  6 36  1  0  0  0  0
  6 37  1  0  0  0  0
  7 24  1  0  0  0  0
  7  8  1  0  0  0  0
  8  9  1  0  0  0  0
  8 38  1  0  0  0  0
  9 10  2  0  0  0  0
  9 11  1  0  0  0  0
 11 12  1  0  0  0  0
 11 24  1  0  0  0  0
 12 13  1  0  0  0  0
 12 39  1  0  0  0  0
 12 40  1  0  0  0  0
 13 14  2  0  0  0  0
 13 15  1  0  0  0  0
 15 16  1  0  0  0  0
 15 41  1  0  0  0  0
 16 17  1  0  0  0  0
 16 42  1  0  0  0  0
 16 43  1  0  0  0  0
 17 18  1  0  0  0  0
 17 44  1  0  0  0  0
 17 45  1  0  0  0  0
 18 23  1  0  0  0  0
 18 19  2  0  0  0  0
 19 20  1  0  0  0  0
 19 46  1  0  0  0  0
 20 21  2  0  0  0  0
 20 47  1  0  0  0  0
 21 22  1  0  0  0  0
 21 48  1  0  0  0  0
 22 23  2  0  0  0  0
 22 49  1  0  0  0  0
 23 50  1  0  0  0  0
 24 25  2  0  0  0  0
M  CHG  1  23   1
M  END
> <s_m_source_file>
AV-unprocessed.smi

> <i_m_source_file_index>
2973

> <i_lp_mmshare_version>
43012

> <i_f3d_flags>
0

> <s_epik_input>
W0NIMl0xW0NIMl1bQ0gyXVtDSDJdW0NAQEhdKFtDSDNdKVtDQF0xMltOSF1DKD1PKU4oQzI9TylbQ0gyXUMoPU8pW05IXVtDSDJdW0NIMl1jM1tjSF1bY0hdW2NIXVtjSF1uMw==

> <s_epik_cmdline>
J2VwaWtfcHl0aG9uJywgJy1waCcsICc3LjAnLCAnLXRuJywgJzgnLCAnLW1hJywgJzIwMCcsICctbWV0YWxfYmluZGluZycsICctaW1hZScsICc8aW5maWxlLm1hZT4nLCAnLW9tYWUnLCAnPG91dGZpbGUubWFlPic=

> <r_lp_tautomer_probability>
1

> <r_epik_Ionization_Penalty>
1.90043

> <r_epik_Ionization_Penalty_Charging>
1.90039

> <r_epik_Ionization_Penalty_Neutral>
4.65525e-05

> <r_epik_State_Penalty>
2.02162

> <r_epik_Charging_Adjusted_Penalty>
3.922

> <i_epik_Tot_Q>
1

> <i_epik_Tot_abs_Q>
1

> <r_epik_Metal_State_Penalty>
2.06631

> <b_epik_Metal_Only>
0

> <s_lp_Force_Field>
OPLS_2005

> <r_lp_Energy>
28.0299

> <b_lp_Chiralities_Consistent>
1

> <s_lp_Variant>
AV-unprocessed.smi:2973-6

> <Gold.Version>
5.8.1

> <Gold.Id.Protein>
6NUR|6NUR_protein|mol2

> <Gold.PLP.Fitness>
47.2165

> <Gold.PLP.PLP>
-39.4542

> <Gold.PLP.part.hbond>
-2.0000

> <Gold.PLP.part.metal>
0.0000

> <Gold.PLP.part.buried>
-5.4899

> <Gold.PLP.part.nonpolar>
-32.1209

> <Gold.PLP.part.repulsive>
0.3416

> <Gold.PLP.ligand.clash>
0.0000

> <Gold.PLP.ligand.torsion>
0.6383

> <Gold.PLP.Chemscore.Hbond>
3.0000

> <Gold.PLP.Chemscore.CHOScore>
0.0000

> <Gold.PLP.Chemscore.Metal>
0.0000

> <Gold.Chemscore.Hbonds>
donor molecule, donor type, donor heavy atom, donor atom, acceptor molecule, acceptor atom, score
      L1  H    23    50       P1  7948  2.00
      P1  H  7997  8009       L1    25  0.96

> <Gold.PLP.Chemscore.Internal.Correction>
0.0390

> <Gold.Rescore>
     Score         DG    S(hbond)    S(metal)    S(lipo)     H(rot)  DE(clash)    DE(int)     intcor
     17.77     -18.34       1.88        0.00      99.16       1.96       0.01       0.56       ----

> <Gold.Chemscore.Fitness>
17.7701

> <Gold.Chemscore.DG>
-18.3397

> <Gold.Chemscore.ZeroCoef>
-5.4800

> <Gold.Chemscore.Hbond>
1.8819

> <Gold.Chemscore.Metal>
0.0000

> <Gold.Chemscore.Lipo>
99.1588

> <Gold.Chemscore.Internal_Hbond>
0.0000

> <Gold.Chemscore.DEClash>
0.0074

> <Gold.Chemscore.DEInternal>
0.5622

> <Gold.Chemscore.Rot>
1.9638

> <Gold.Chemscore.Internal.Correction>
   9.000000E+99

> <Gold.Chemscore.Hbonds>
donor molecule, donor type, donor heavy atom, donor atom, acceptor molecule, acceptor atom, score
      L1  H    23    50       P1  7948  0.69
      P1  H  7997  8009       L1    25  0.88

> <Gold.Chemscore.Hbond.Weighted>
-6.2855

> <Gold.Chemscore.Metal.Weighted>
-0.0000

> <Gold.Chemscore.Lipo.Weighted>
-11.6016

> <Gold.Chemscore.Internal_Hbond.Weighted>
0.0000

> <Gold.Chemscore.DEClash.Weighted>
0.0074

> <Gold.Chemscore.DEInternal.Weighted>
0.5622

> <Gold.Chemscore.Rot.Weighted>
5.0274

> <Gold.Chemscore.Internal.Correction.Weighted>
   9.000000E+99

> <Gold.Protein.RotatedTorsions>
[ 6907 6896 6895 6894 ] final -143.63 input  -60.11 | X-H torsion
[ 7974 7965 7964 7962 ] final  -96.32 input  175.53 | X-H torsion
[ 8008 7997 7996 7995 ] final -164.74 input   59.86 | X-H torsion
[ 10167 10162 10161 10158 ] final   35.58 input  -65.29 | X-H torsion
[ 10718 10713 10712 10709 ] final   31.23 input   66.30 | X-H torsion
[ 10763 10752 10751 10750 ] final  174.88 input  -60.55 | X-H torsion
[ 11005 11000 10999 10996 ] final   53.00 input  -57.11 | X-H torsion

> <Gold.Protein.ActiveResidues>
 VAL166  LYS551  ARG553  GLY616  TRP617  ASP618  TYR619  PRO620  LYS621  CYS622 
 ASP623  PHE694  ASN695  SER759  ASP760  ASP761  ALA762  ILE779  LEU786  VAL792 
 PHE793  MET794  SER795  GLU796  ALA797  LYS798  CYS799  TRP800  GLU811  SER814 

> <Gold.Protein.RotatedAtoms>
  151.1030  133.5229  159.2608 H   0  0  0  0  0  0  0  0  0  0  0  0  # atno 6907 bound_to 6896
  151.2052  135.0458  159.8898 H   0  0  0  0  0  0  0  0  0  0  0  0  # atno 6908 bound_to 6896
  152.5444  134.0853  159.8307 H   0  0  0  0  0  0  0  0  0  0  0  0  # atno 6909 bound_to 6896
  145.3484  140.9472  143.2568 H   0  0  0  0  0  0  0  0  0  0  0  0  # atno 7974 bound_to 7965
  155.8399  140.0947  157.1741 H   0  0  0  0  0  0  0  0  0  0  0  0  # atno 8008 bound_to 7997
  154.3981  140.1403  156.3777 H   0  0  0  0  0  0  0  0  0  0  0  0  # atno 8009 bound_to 7997
  155.8075  140.3451  155.5441 H   0  0  0  0  0  0  0  0  0  0  0  0  # atno 8010 bound_to 7997
  140.4209  144.1461  150.6148 H   0  0  0  0  0  0  0  0  0  0  0  0  # atno 10167 bound_to 10162
  157.2698  130.7202  149.6498 H   0  0  0  0  0  0  0  0  0  0  0  0  # atno 10718 bound_to 10713
  154.4600  135.2767  155.1720 H   0  0  0  0  0  0  0  0  0  0  0  0  # atno 10763 bound_to 10752
  154.3512  135.6149  153.5647 H   0  0  0  0  0  0  0  0  0  0  0  0  # atno 10764 bound_to 10752
  152.9854  135.5812  154.4960 H   0  0  0  0  0  0  0  0  0  0  0  0  # atno 10765 bound_to 10752
  140.0803  134.5348  155.8954 H   0  0  0  0  0  0  0  0  0  0  0  0  # atno 11005 bound_to 11000
  144.8736  139.5002  143.6756 LP  0  0  0  0  0  0  0  0  0  0  0  0  # atno 17320 bound_to 7965
  146.2978  139.7332  142.9113 LP  0  0  0  0  0  0  0  0  0  0  0  0  # atno 17321 bound_to 7965
  140.4535  143.2477  151.9316 LP  0  0  0  0  0  0  0  0  0  0  0  0  # atno 17342 bound_to 10162
  139.4782  144.5539  151.8344 LP  0  0  0  0  0  0  0  0  0  0  0  0  # atno 17343 bound_to 10162
  155.9663  130.4371  150.5162 LP  0  0  0  0  0  0  0  0  0  0  0  0  # atno 17370 bound_to 10713
  157.3084  131.0659  151.2019 LP  0  0  0  0  0  0  0  0  0  0  0  0  # atno 17371 bound_to 10713
  141.2044  133.6639  156.6119 LP  0  0  0  0  0  0  0  0  0  0  0  0  # atno 17394 bound_to 11000
  140.3498  134.7778  157.4458 LP  0  0  0  0  0  0  0  0  0  0  0  0  # atno 17395 bound_to 11000

$$$$
