AV-unprocessed.smi:2182|AV-procd|sdf|8863|dock4
  -GOLD-   2272012 53D 1   1.00000     0.00000
 Structure written by MMmdl.
 41 43  0  0  0  0  0  0  0  0  1 V2000
  153.5819  138.8014  154.7304 N   0  0  0  0  0  0  0  0  0  0  0  0
  152.4481  138.5808  154.8037 C   0  0  0  0  0  0  0  0  0  0  0  0
  151.0454  138.3382  154.8824 C   0  0  0  0  0  0  0  0  0  0  0  0
  150.1423  139.2528  154.4731 C   0  0  0  0  0  0  0  0  0  0  0  0
  148.7836  139.0328  154.5347 N   0  0  0  0  0  0  0  0  0  0  0  0
  147.8425  140.0788  154.2484 C   0  0  0  0  0  0  0  0  0  0  0  0
  148.3247  141.4372  153.7771 C   0  0  0  0  0  0  0  0  0  0  0  0
  147.7715  141.2751  155.1719 C   0  0  0  0  0  0  0  0  0  0  0  0
  148.2832  137.8462  155.1130 C   0  0  0  0  0  0  0  0  0  0  0  0
  147.0713  137.6721  155.2666 O   0  0  0  0  0  0  0  0  0  0  0  0
  149.2169  136.8648  155.5269 N   0  0  0  0  0  0  0  0  0  0  0  0
  148.6987  135.6164  156.1274 C   0  0  0  0  0  0  0  0  0  0  0  0
  149.0790  135.4689  157.6076 C   0  0  0  0  0  0  0  0  0  0  0  0
  149.8215  134.5582  157.9772 O   0  0  0  0  0  0  0  0  0  0  0  0
  148.5567  136.3790  158.4435 N   0  0  0  0  0  0  0  0  0  0  0  0
  148.8268  136.4660  159.8747 C   0  0  0  0  0  0  0  0  0  0  0  0
  147.6372  135.9578  160.7081 C   0  0  2  0  0  0  0  0  0  0  0  0
  147.7153  136.2481  162.2062 C   0  0  0  0  0  0  0  0  0  0  0  0
  146.7890  135.2039  162.8024 C   0  0  0  0  0  0  0  0  0  0  0  0
  146.7305  134.1072  161.7333 C   0  0  0  0  0  0  0  0  0  0  0  0
  147.5847  134.5408  160.6807 O   0  0  0  0  0  0  0  0  0  0  0  0
  150.6198  137.0545  155.4356 C   0  0  0  0  0  0  0  0  0  0  0  0
  151.4056  136.1855  155.8169 O   0  0  0  0  0  0  0  0  0  0  0  0
  150.4953  140.1941  154.0767 H   0  0  0  0  0  0  0  0  0  0  0  0
  146.8927  139.7453  153.8337 H   0  0  0  0  0  0  0  0  0  0  0  0
  149.3968  141.6008  153.6847 H   0  0  0  0  0  0  0  0  0  0  0  0
  147.7093  141.9620  153.0493 H   0  0  0  0  0  0  0  0  0  0  0  0
  146.7880  141.6946  155.3740 H   0  0  0  0  0  0  0  0  0  0  0  0
  148.4792  141.3292  155.9972 H   0  0  0  0  0  0  0  0  0  0  0  0
  147.6129  135.5735  156.0229 H   0  0  0  0  0  0  0  0  0  0  0  0
  149.0515  134.7309  155.5972 H   0  0  0  0  0  0  0  0  0  0  0  0
  147.9499  137.0851  158.0528 H   0  0  0  0  0  0  0  0  0  0  0  0
  149.7034  135.8527  160.0846 H   0  0  0  0  0  0  0  0  0  0  0  0
  149.0920  137.4847  160.1628 H   0  0  0  0  0  0  0  0  0  0  0  0
  146.7005  136.3464  160.3031 H   0  0  0  0  0  0  0  0  0  0  0  0
  148.7314  136.0854  162.5682 H   0  0  0  0  0  0  0  0  0  0  0  0
  147.4242  137.2682  162.4590 H   0  0  0  0  0  0  0  0  0  0  0  0
  147.1618  134.8329  163.7577 H   0  0  0  0  0  0  0  0  0  0  0  0
  145.7948  135.6206  162.9686 H   0  0  0  0  0  0  0  0  0  0  0  0
  147.0592  133.1397  162.1140 H   0  0  0  0  0  0  0  0  0  0  0  0
  145.7138  133.9947  161.3542 H   0  0  0  0  0  0  0  0  0  0  0  0
  1  2  3  0  0  0  0
  2  3  1  0  0  0  0
  3 22  1  0  0  0  0
  3  4  2  0  0  0  0
  4  5  1  0  0  0  0
  4 24  1  0  0  0  0
  5  6  1  0  0  0  0
  5  9  1  0  0  0  0
  6  8  1  0  0  0  0
  6  7  1  0  0  0  0
  6 25  1  0  0  0  0
  7  8  1  0  0  0  0
  7 26  1  0  0  0  0
  7 27  1  0  0  0  0
  8 28  1  0  0  0  0
  8 29  1  0  0  0  0
  9 10  2  0  0  0  0
  9 11  1  0  0  0  0
 11 12  1  0  0  0  0
 11 22  1  0  0  0  0
 12 13  1  0  0  0  0
 12 30  1  0  0  0  0
 12 31  1  0  0  0  0
 13 14  2  0  0  0  0
 13 15  1  0  0  0  0
 15 16  1  0  0  0  0
 15 32  1  0  0  0  0
 16 17  1  0  0  0  0
 16 33  1  0  0  0  0
 16 34  1  0  0  0  0
 17 21  1  0  0  0  0
 17 18  1  0  0  0  0
 17 35  1  0  0  0  0
 18 19  1  0  0  0  0
 18 36  1  0  0  0  0
 18 37  1  0  0  0  0
 19 20  1  0  0  0  0
 19 38  1  0  0  0  0
 19 39  1  0  0  0  0
 20 21  1  0  0  0  0
 20 40  1  0  0  0  0
 20 41  1  0  0  0  0
 22 23  2  0  0  0  0
M  END
> <s_m_source_file>
AV-unprocessed.smi

> <i_m_source_file_index>
2182

> <i_lp_mmshare_version>
43012

> <i_f3d_flags>
0

> <s_epik_input>
TiNDYzFbY0hdbihbQ0hdMltDSDJdW0NIMl0yKWMoPU8pbihjMT1PKVtDSDJdQyg9TylbTkhdW0NIMl1bQ0BASF0zW0NIMl1bQ0gyXVtDSDJdTzM=

> <s_epik_cmdline>
J2VwaWtfcHl0aG9uJywgJy1waCcsICc3LjAnLCAnLXRuJywgJzgnLCAnLW1hJywgJzIwMCcsICctbWV0YWxfYmluZGluZycsICctaW1hZScsICc8aW5maWxlLm1hZT4nLCAnLW9tYWUnLCAnPG91dGZpbGUubWFlPic=

> <r_lp_tautomer_probability>
1

> <r_epik_Ionization_Penalty>
2.69429e-08

> <r_epik_Ionization_Penalty_Charging>
8.38654e-11

> <r_epik_Ionization_Penalty_Neutral>
2.6859e-08

> <r_epik_State_Penalty>
-0

> <r_epik_Charging_Adjusted_Penalty>
8.38654e-11

> <i_epik_Tot_Q>
0

> <i_epik_Tot_abs_Q>
0

> <r_epik_Metal_State_Penalty>
-0

> <b_epik_Metal_Only>
0

> <s_lp_Force_Field>
OPLS_2005

> <r_lp_Energy>
43.5175

> <b_lp_Chiralities_Consistent>
1

> <s_lp_Variant>
AV-unprocessed.smi:2182-1

> <Gold.Version>
5.8.1

> <Gold.Id.Protein>
6NUR|6NUR_protein|mol2

> <Gold.PLP.Fitness>
47.5756

> <Gold.PLP.PLP>
-39.2067

> <Gold.PLP.part.hbond>
-3.0000

> <Gold.PLP.part.metal>
0.0000

> <Gold.PLP.part.buried>
-5.7766

> <Gold.PLP.part.nonpolar>
-31.6476

> <Gold.PLP.part.repulsive>
0.1914

> <Gold.PLP.ligand.clash>
0.0000

> <Gold.PLP.ligand.torsion>
0.3931

> <Gold.PLP.Chemscore.Hbond>
2.9760

> <Gold.PLP.Chemscore.CHOScore>
0.0000

> <Gold.PLP.Chemscore.Metal>
0.0000

> <Gold.Chemscore.Hbonds>
donor molecule, donor type, donor heavy atom, donor atom, acceptor molecule, acceptor atom, score
      P1  H  6896  6908       L1    14  1.00
      P1  H  7997  8008       L1     1  1.00
      P1  H 10752 10764       L1    23  1.00

> <Gold.PLP.Chemscore.Internal.Correction>
0.2271

> <Gold.Rescore>
     Score         DG    S(hbond)    S(metal)    S(lipo)     H(rot)  DE(clash)    DE(int)     intcor
     18.01     -18.33       2.91        0.00      72.30       2.08       0.02       0.29       ----

> <Gold.Chemscore.Fitness>
18.0107

> <Gold.Chemscore.DG>
-18.3270

> <Gold.Chemscore.ZeroCoef>
-5.4800

> <Gold.Chemscore.Hbond>
2.9063

> <Gold.Chemscore.Metal>
0.0000

> <Gold.Chemscore.Lipo>
72.2991

> <Gold.Chemscore.Internal_Hbond>
0.0000

> <Gold.Chemscore.DEClash>
0.0231

> <Gold.Chemscore.DEInternal>
0.2931

> <Gold.Chemscore.Rot>
2.0778

> <Gold.Chemscore.Internal.Correction>
   9.000000E+99

> <Gold.Chemscore.Hbonds>
donor molecule, donor type, donor heavy atom, donor atom, acceptor molecule, acceptor atom, score
      P1  H  6896  6908       L1    14  0.95
      P1  H  7997  8008       L1     1  0.91
      P1  H 10752 10764       L1    23  0.97

> <Gold.Chemscore.Hbond.Weighted>
-9.7071

> <Gold.Chemscore.Metal.Weighted>
-0.0000

> <Gold.Chemscore.Lipo.Weighted>
-8.4590

> <Gold.Chemscore.Internal_Hbond.Weighted>
0.0000

> <Gold.Chemscore.DEClash.Weighted>
0.0231

> <Gold.Chemscore.DEInternal.Weighted>
0.2931

> <Gold.Chemscore.Rot.Weighted>
5.3191

> <Gold.Chemscore.Internal.Correction.Weighted>
   9.000000E+99

> <Gold.Protein.RotatedTorsions>
[ 6907 6896 6895 6894 ] final  137.16 input  -60.11 | X-H torsion
[ 7974 7965 7964 7962 ] final -106.56 input  175.53 | X-H torsion
[ 8008 7997 7996 7995 ] final  -12.47 input   59.86 | X-H torsion
[ 10167 10162 10161 10158 ] final  165.07 input  -65.29 | X-H torsion
[ 10718 10713 10712 10709 ] final  -15.36 input   66.30 | X-H torsion
[ 10763 10752 10751 10750 ] final  -41.11 input  -60.55 | X-H torsion
[ 11005 11000 10999 10996 ] final   91.27 input  -57.11 | X-H torsion

> <Gold.Protein.ActiveResidues>
 VAL166  LYS551  ARG553  GLY616  TRP617  ASP618  TYR619  PRO620  LYS621  CYS622 
 ASP623  PHE694  ASN695  SER759  ASP760  ASP761  ALA762  ILE779  LEU786  VAL792 
 PHE793  MET794  SER795  GLU796  ALA797  LYS798  CYS799  TRP800  GLU811  SER814 

> <Gold.Protein.RotatedAtoms>
  152.2813  133.5473  159.5498 H   0  0  0  0  0  0  0  0  0  0  0  0  # atno 6907 bound_to 6896
  150.7197  134.0560  159.3824 H   0  0  0  0  0  0  0  0  0  0  0  0  # atno 6908 bound_to 6896
  151.8471  135.0570  160.0505 H   0  0  0  0  0  0  0  0  0  0  0  0  # atno 6909 bound_to 6896
  145.2163  140.9116  143.3285 H   0  0  0  0  0  0  0  0  0  0  0  0  # atno 7974 bound_to 7965
  154.5375  140.2275  155.8698 H   0  0  0  0  0  0  0  0  0  0  0  0  # atno 8008 bound_to 7997
  156.1825  140.3096  155.9139 H   0  0  0  0  0  0  0  0  0  0  0  0  # atno 8009 bound_to 7997
  155.3326  140.0446  157.3033 H   0  0  0  0  0  0  0  0  0  0  0  0  # atno 8010 bound_to 7997
  139.4899  144.4170  151.9232 H   0  0  0  0  0  0  0  0  0  0  0  0  # atno 10167 bound_to 10162
  156.6029  130.4829  149.6232 H   0  0  0  0  0  0  0  0  0  0  0  0  # atno 10718 bound_to 10713
  153.9571  135.6744  153.4744 H   0  0  0  0  0  0  0  0  0  0  0  0  # atno 10763 bound_to 10752
  153.0856  135.4901  154.8586 H   0  0  0  0  0  0  0  0  0  0  0  0  # atno 10764 bound_to 10752
  154.7293  135.3134  154.8878 H   0  0  0  0  0  0  0  0  0  0  0  0  # atno 10765 bound_to 10752
  139.8841  134.8664  156.3404 H   0  0  0  0  0  0  0  0  0  0  0  0  # atno 11005 bound_to 11000
  144.9808  139.3786  143.6263 LP  0  0  0  0  0  0  0  0  0  0  0  0  # atno 17320 bound_to 7965
  146.3386  139.8947  142.8803 LP  0  0  0  0  0  0  0  0  0  0  0  0  # atno 17321 bound_to 7965
  140.3612  144.2970  150.5933 LP  0  0  0  0  0  0  0  0  0  0  0  0  # atno 17342 bound_to 10162
  140.5401  143.2225  151.8099 LP  0  0  0  0  0  0  0  0  0  0  0  0  # atno 17343 bound_to 10162
  156.2454  130.6876  151.1595 LP  0  0  0  0  0  0  0  0  0  0  0  0  # atno 17370 bound_to 10713
  157.7275  131.0639  150.5864 LP  0  0  0  0  0  0  0  0  0  0  0  0  # atno 17371 bound_to 10713
  140.9663  133.7356  156.0471 LP  0  0  0  0  0  0  0  0  0  0  0  0  # atno 17394 bound_to 11000
  140.7927  134.3599  157.5460 LP  0  0  0  0  0  0  0  0  0  0  0  0  # atno 17395 bound_to 11000

$$$$
