AV-unprocessed.smi:2636|AV-procd|sdf|10260|dock8
  -GOLD-   2272014273D 1   1.00000     0.00000
 Structure written by MMmdl.
 35 36  0  0  0  0  0  0  0  0  2 V2000
  148.1171  141.1689  154.1833 C   0  0  0  0  0  0  0  0  0  0  0  0
  149.1639  140.0807  154.3339 C   0  0  0  0  0  0  0  0  0  0  0  0
  150.4594  140.3461  154.5996 C   0  0  0  0  0  0  0  0  0  0  0  0
  151.4216  139.3300  154.7261 N   0  0  0  0  0  0  0  0  0  0  0  0
  152.7949  139.6970  155.0523 C   0  0  0  0  0  0  0  0  0  0  0  0
  153.1059  139.4105  156.3873 O   0  0  0  0  0  0  0  0  0  0  0  0
  152.2806  140.0040  157.3858 C   0  0  0  0  0  0  0  0  0  0  0  0
  152.8738  139.8542  158.7774 C   0  0  0  0  0  0  0  0  0  0  0  0
  153.0117  140.7964  159.7313 C   0  0  0  0  0  0  0  0  0  0  0  0
  152.5606  142.1988  159.7204 C   0  0  0  0  0  0  0  0  0  0  0  0
  152.3405  142.9397  160.9040 C   0  0  0  0  0  0  0  0  0  0  0  0
  151.8868  144.2716  160.8415 C   0  0  0  0  0  0  0  0  0  0  0  0
  151.6555  144.8799  159.5939 C   0  0  0  0  0  0  0  0  0  0  0  0
  151.8803  144.1542  158.4096 C   0  0  0  0  0  0  0  0  0  0  0  0
  152.3279  142.8206  158.4747 C   0  0  0  0  0  0  0  0  0  0  0  0
  151.0603  138.0191  154.5953 C   0  0  0  0  0  0  0  0  0  0  0  0
  151.9174  137.1435  154.7197 O   0  0  0  0  0  0  0  0  0  0  0  0
  149.7509  137.7267  154.3280 N   0  5  0  0  0  0  0  0  0  0  0  0
  148.7786  138.6749  154.1890 C   0  0  0  0  0  0  0  0  0  0  0  0
  147.6064  138.3858  153.9496 O   0  0  0  0  0  0  0  0  0  0  0  0
  148.5588  142.1581  154.3052 H   0  0  0  0  0  0  0  0  0  0  0  0
  147.3334  141.0507  154.9320 H   0  0  0  0  0  0  0  0  0  0  0  0
  147.6596  141.1228  153.1948 H   0  0  0  0  0  0  0  0  0  0  0  0
  150.8353  141.3501  154.7306 H   0  0  0  0  0  0  0  0  0  0  0  0
  153.4654  139.1296  154.4049 H   0  0  0  0  0  0  0  0  0  0  0  0
  152.9587  140.7542  154.8404 H   0  0  0  0  0  0  0  0  0  0  0  0
  152.0722  141.0391  157.1271 H   0  0  0  0  0  0  0  0  0  0  0  0
  151.3226  139.4846  157.3748 H   0  0  0  0  0  0  0  0  0  0  0  0
  153.2390  138.8624  158.9999 H   0  0  0  0  0  0  0  0  0  0  0  0
  153.4932  140.4877  160.6479 H   0  0  0  0  0  0  0  0  0  0  0  0
  152.5349  142.5016  161.8712 H   0  0  0  0  0  0  0  0  0  0  0  0
  151.7208  144.8277  161.7524 H   0  0  0  0  0  0  0  0  0  0  0  0
  151.3069  145.9010  159.5459 H   0  0  0  0  0  0  0  0  0  0  0  0
  151.7020  144.6172  157.4505 H   0  0  0  0  0  0  0  0  0  0  0  0
  152.4868  142.2708  157.5584 H   0  0  0  0  0  0  0  0  0  0  0  0
  1  2  1  0  0  0  0
  1 21  1  0  0  0  0
  1 22  1  0  0  0  0
  1 23  1  0  0  0  0
  2 19  1  0  0  0  0
  2  3  2  0  0  0  0
  3  4  1  0  0  0  0
  3 24  1  0  0  0  0
  4  5  1  0  0  0  0
  4 16  1  0  0  0  0
  5  6  1  0  0  0  0
  5 25  1  0  0  0  0
  5 26  1  0  0  0  0
  6  7  1  0  0  0  0
  7  8  1  0  0  0  0
  7 27  1  0  0  0  0
  7 28  1  0  0  0  0
  8  9  2  0  0  0  0
  8 29  1  0  0  0  0
  9 10  1  0  0  0  0
  9 30  1  0  0  0  0
 10 15  1  0  0  0  0
 10 11  2  0  0  0  0
 11 12  1  0  0  0  0
 11 31  1  0  0  0  0
 12 13  2  0  0  0  0
 12 32  1  0  0  0  0
 13 14  1  0  0  0  0
 13 33  1  0  0  0  0
 14 15  2  0  0  0  0
 14 34  1  0  0  0  0
 15 35  1  0  0  0  0
 16 17  2  0  0  0  0
 16 18  1  0  0  0  0
 18 19  1  0  0  0  0
 19 20  2  0  0  0  0
M  CHG  1  18  -1
M  END
> <s_m_source_file>
AV-unprocessed.smi

> <i_m_source_file_index>
2636

> <i_lp_mmshare_version>
43012

> <i_f3d_flags>
0

> <s_epik_input>
Tz1jMVtuSF1jKD1PKW4oW2NIXWMxW0NIM10pW0NIMl1PW0NIMl0vW0NIXT1bQ0hdL2MyW2NIXVtjSF1bY0hdW2NIXVtjSF0y

> <s_epik_cmdline>
J2VwaWtfcHl0aG9uJywgJy1waCcsICc3LjAnLCAnLXRuJywgJzgnLCAnLW1hJywgJzIwMCcsICctbWV0YWxfYmluZGluZycsICctaW1hZScsICc8aW5maWxlLm1hZT4nLCAnLW9tYWUnLCAnPG91dGZpbGUubWFlPic=

> <r_lp_tautomer_probability>
0.999537

> <r_epik_Ionization_Penalty>
3.43625

> <r_epik_Ionization_Penalty_Charging>
7.29021e-08

> <r_epik_Ionization_Penalty_Neutral>
3.43625

> <r_epik_State_Penalty>
3.43567

> <r_epik_Charging_Adjusted_Penalty>
3.43567

> <i_epik_Tot_Q>
-1

> <i_epik_Tot_abs_Q>
1

> <r_epik_Metal_State_Penalty>
0.168611

> <b_epik_Metal_Only>
1

> <s_epik_Chemistry_Notes>
This compound contains an acetal/aminal-like group ( X-CH(R)-Y where X, Y are N, S, or O) that may be acid/base labile, releasing an aldehyde.

> <s_lp_Force_Field>
OPLS_2005

> <r_lp_Energy>
10.6813

> <b_lp_Chiralities_Consistent>
1

> <s_lp_Variant>
AV-unprocessed.smi:2636-4

> <Gold.Version>
5.8.1

> <Gold.Id.Protein>
6NUR|6NUR_protein|mol2

> <Gold.PLP.Fitness>
51.0835

> <Gold.PLP.PLP>
-45.8332

> <Gold.PLP.part.hbond>
-2.0000

> <Gold.PLP.part.metal>
0.0000

> <Gold.PLP.part.buried>
-1.0471

> <Gold.PLP.part.nonpolar>
-42.7297

> <Gold.PLP.part.repulsive>
0.4137

> <Gold.PLP.ligand.clash>
0.0000

> <Gold.PLP.ligand.torsion>
0.3867

> <Gold.PLP.Chemscore.Hbond>
2.0000

> <Gold.PLP.Chemscore.CHOScore>
0.0000

> <Gold.PLP.Chemscore.Metal>
0.0000

> <Gold.Chemscore.Hbonds>
donor molecule, donor type, donor heavy atom, donor atom, acceptor molecule, acceptor atom, score
      P1  H  7997  8008       L1     6  0.73
      P1  H 10752 10763       L1    17  0.98

> <Gold.PLP.Chemscore.Internal.Correction>
0.0237

> <Gold.Rescore>
     Score         DG    S(hbond)    S(metal)    S(lipo)     H(rot)  DE(clash)    DE(int)     intcor
     15.85     -17.42       1.19        0.00     109.11       1.88       0.11       1.46       ----

> <Gold.Chemscore.Fitness>
15.8505

> <Gold.Chemscore.DG>
-17.4237

> <Gold.Chemscore.ZeroCoef>
-5.4800

> <Gold.Chemscore.Hbond>
1.1948

> <Gold.Chemscore.Metal>
0.0000

> <Gold.Chemscore.Lipo>
109.1103

> <Gold.Chemscore.Internal_Hbond>
0.0000

> <Gold.Chemscore.DEClash>
0.1143

> <Gold.Chemscore.DEInternal>
1.4589

> <Gold.Chemscore.Rot>
1.8800

> <Gold.Chemscore.Internal.Correction>
   9.000000E+99

> <Gold.Chemscore.Hbonds>
donor molecule, donor type, donor heavy atom, donor atom, acceptor molecule, acceptor atom, score
      P1  H  7997  8008       L1     6  0.11
      P1  H 10752 10763       L1    17  0.93

> <Gold.Chemscore.Hbond.Weighted>
-3.9906

> <Gold.Chemscore.Metal.Weighted>
-0.0000

> <Gold.Chemscore.Lipo.Weighted>
-12.7659

> <Gold.Chemscore.Internal_Hbond.Weighted>
0.0000

> <Gold.Chemscore.DEClash.Weighted>
0.1143

> <Gold.Chemscore.DEInternal.Weighted>
1.4589

> <Gold.Chemscore.Rot.Weighted>
4.8129

> <Gold.Chemscore.Internal.Correction.Weighted>
   9.000000E+99

> <Gold.Protein.RotatedTorsions>
[ 6907 6896 6895 6894 ] final  -70.37 input  -60.11 | X-H torsion
[ 7974 7965 7964 7962 ] final -171.48 input  175.53 | X-H torsion
[ 8008 7997 7996 7995 ] final  -73.13 input   59.86 | X-H torsion
[ 10167 10162 10161 10158 ] final  -23.39 input  -65.29 | X-H torsion
[ 10718 10713 10712 10709 ] final   56.07 input   66.30 | X-H torsion
[ 10763 10752 10751 10750 ] final   48.10 input  -60.55 | X-H torsion
[ 11005 11000 10999 10996 ] final  -95.68 input  -57.11 | X-H torsion

> <Gold.Protein.ActiveResidues>
 VAL166  LYS551  ARG553  GLY616  TRP617  ASP618  TYR619  PRO620  LYS621  CYS622 
 ASP623  PHE694  ASN695  SER759  ASP760  ASP761  ALA762  ILE779  LEU786  VAL792 
 PHE793  MET794  SER795  GLU796  ALA797  LYS798  CYS799  TRP800  GLU811  SER814 

> <Gold.Protein.RotatedAtoms>
  150.7261  134.5463  159.5772 H   0  0  0  0  0  0  0  0  0  0  0  0  # atno 6907 bound_to 6896
  152.2961  134.7662  160.0376 H   0  0  0  0  0  0  0  0  0  0  0  0  # atno 6908 bound_to 6896
  151.8258  133.3366  159.3635 H   0  0  0  0  0  0  0  0  0  0  0  0  # atno 6909 bound_to 6896
  144.7156  140.1915  143.6348 H   0  0  0  0  0  0  0  0  0  0  0  0  # atno 7974 bound_to 7965
  154.5222  140.0785  156.8192 H   0  0  0  0  0  0  0  0  0  0  0  0  # atno 8008 bound_to 7997
  155.3552  140.3415  155.4221 H   0  0  0  0  0  0  0  0  0  0  0  0  # atno 8009 bound_to 7997
  156.1693  140.1614  156.8463 H   0  0  0  0  0  0  0  0  0  0  0  0  # atno 8010 bound_to 7997
  140.7288  143.4447  151.0604 H   0  0  0  0  0  0  0  0  0  0  0  0  # atno 10167 bound_to 10162
  157.5399  130.8690  149.8807 H   0  0  0  0  0  0  0  0  0  0  0  0  # atno 10718 bound_to 10713
  152.9794  135.5955  154.3870 H   0  0  0  0  0  0  0  0  0  0  0  0  # atno 10763 bound_to 10752
  154.3529  135.2767  155.2364 H   0  0  0  0  0  0  0  0  0  0  0  0  # atno 10764 bound_to 10752
  154.4395  135.6016  153.6175 H   0  0  0  0  0  0  0  0  0  0  0  0  # atno 10765 bound_to 10752
  141.1434  133.8043  157.0468 H   0  0  0  0  0  0  0  0  0  0  0  0  # atno 11005 bound_to 11000
  145.8764  139.2299  143.1631 LP  0  0  0  0  0  0  0  0  0  0  0  0  # atno 17320 bound_to 7965
  146.0036  140.8498  143.0006 LP  0  0  0  0  0  0  0  0  0  0  0  0  # atno 17321 bound_to 7965
  139.8118  143.7941  152.3171 LP  0  0  0  0  0  0  0  0  0  0  0  0  # atno 17342 bound_to 10162
  139.7993  144.7380  150.9847 LP  0  0  0  0  0  0  0  0  0  0  0  0  # atno 17343 bound_to 10162
  156.0489  130.3722  150.1250 LP  0  0  0  0  0  0  0  0  0  0  0  0  # atno 17370 bound_to 10713
  156.9431  130.9750  151.3512 LP  0  0  0  0  0  0  0  0  0  0  0  0  # atno 17371 bound_to 10713
  140.0657  134.9730  157.1382 LP  0  0  0  0  0  0  0  0  0  0  0  0  # atno 17394 bound_to 11000
  140.3783  134.2315  155.7173 LP  0  0  0  0  0  0  0  0  0  0  0  0  # atno 17395 bound_to 11000

$$$$
