AV-unprocessed.smi:1487|AV-procd|sdf|6017|dock2
  -GOLD-   22720 6123D 1   1.00000     0.00000
 Structure written by MMmdl.
 49 51  0  0  0  0  0  0  0  0  3 V2000
  152.5208  142.7379  160.8456 C   0  0  0  0  0  0  0  0  0  0  0  0
  152.1500  142.0597  159.5375 C   0  0  0  0  0  0  0  0  0  0  0  0
  151.2711  142.7293  158.6562 C   0  0  0  0  0  0  0  0  0  0  0  0
  150.9525  142.0845  157.4669 C   0  0  0  0  0  0  0  0  0  0  0  0
  150.1336  142.4739  156.4045 N   0  3  0  0  0  0  0  0  0  0  0  0
  150.1368  141.5041  155.4483 C   0  0  0  0  0  0  0  0  0  0  0  0
  150.9370  140.4955  155.8903 N   0  0  0  0  0  0  0  0  0  0  0  0
  151.2979  139.2242  155.2492 C   0  0  0  0  0  0  0  0  0  0  0  0
  150.0813  138.3337  154.9217 C   0  0  2  0  0  0  0  0  0  0  0  0
  150.5602  137.2315  154.1780 O   0  0  0  0  0  0  0  0  0  0  0  0
  148.9908  139.0627  154.1048 C   0  0  0  0  0  0  0  0  0  0  0  0
  147.9300  138.1470  153.6113 N   0  3  2  0  0  0  0  0  0  0  0  0
  146.9132  138.8518  152.7895 C   0  0  0  0  0  0  0  0  0  0  0  0
  145.9424  137.8529  152.1412 C   0  0  0  0  0  0  0  0  0  0  0  0
  145.2605  136.9798  153.2033 C   0  0  0  0  0  0  0  0  0  0  0  0
  146.2982  136.3125  154.1218 C   0  0  1  0  0  0  0  0  0  0  0  0
  146.9958  135.2988  153.4252 O   0  0  0  0  0  0  0  0  0  0  0  0
  147.2999  137.3367  154.6903 C   0  0  0  0  0  0  0  0  0  0  0  0
  151.4747  140.8178  157.1409 C   0  0  0  0  0  0  0  0  0  0  0  0
  152.3439  140.1453  157.9960 C   0  0  0  0  0  0  0  0  0  0  0  0
  152.6783  140.7834  159.2120 C   0  0  0  0  0  0  0  0  0  0  0  0
  153.6216  140.0720  160.1672 C   0  0  0  0  0  0  0  0  0  0  0  0
  152.0844  143.7347  160.9168 H   0  0  0  0  0  0  0  0  0  0  0  0
  153.6024  142.8436  160.9313 H   0  0  0  0  0  0  0  0  0  0  0  0
  152.1609  142.1549  161.6937 H   0  0  0  0  0  0  0  0  0  0  0  0
  150.8673  143.7024  158.8965 H   0  0  0  0  0  0  0  0  0  0  0  0
  149.6010  141.5315  154.5101 H   0  0  0  0  0  0  0  0  0  0  0  0
  151.8450  139.4665  154.3368 H   0  0  0  0  0  0  0  0  0  0  0  0
  152.0006  138.7027  155.9011 H   0  0  0  0  0  0  0  0  0  0  0  0
  149.6698  137.9516  155.8543 H   0  0  0  0  0  0  0  0  0  0  0  0
  149.9417  137.0272  153.4934 H   0  0  0  0  0  0  0  0  0  0  0  0
  148.5215  139.8517  154.6934 H   0  0  0  0  0  0  0  0  0  0  0  0
  149.4728  139.5612  153.2622 H   0  0  0  0  0  0  0  0  0  0  0  0
  146.3674  139.5637  153.4108 H   0  0  0  0  0  0  0  0  0  0  0  0
  147.4047  139.4267  152.0036 H   0  0  0  0  0  0  0  0  0  0  0  0
  145.1896  138.3875  151.5613 H   0  0  0  0  0  0  0  0  0  0  0  0
  146.4832  137.2214  151.4349 H   0  0  0  0  0  0  0  0  0  0  0  0
  144.5988  137.6041  153.8052 H   0  0  0  0  0  0  0  0  0  0  0  0
  144.6260  136.2295  152.7298 H   0  0  0  0  0  0  0  0  0  0  0  0
  145.7768  135.8257  154.9469 H   0  0  0  0  0  0  0  0  0  0  0  0
  147.5664  135.7037  152.7893 H   0  0  0  0  0  0  0  0  0  0  0  0
  148.0551  136.8153  155.2774 H   0  0  0  0  0  0  0  0  0  0  0  0
  146.7834  138.0077  155.3786 H   0  0  0  0  0  0  0  0  0  0  0  0
  152.7518  139.1773  157.7450 H   0  0  0  0  0  0  0  0  0  0  0  0
  153.9039  139.0882  159.7908 H   0  0  0  0  0  0  0  0  0  0  0  0
  153.1499  139.9328  161.1403 H   0  0  0  0  0  0  0  0  0  0  0  0
  154.5351  140.6511  160.3038 H   0  0  0  0  0  0  0  0  0  0  0  0
  148.3838  137.4971  152.9855 H   0  0  0  0  0  0  0  0  0  0  0  0
  149.6166  143.3412  156.3313 H   0  0  0  0  0  0  0  0  0  0  0  0
  1  2  1  0  0  0  0
  1 23  1  0  0  0  0
  1 24  1  0  0  0  0
  1 25  1  0  0  0  0
  2 21  1  0  0  0  0
  2  3  2  0  0  0  0
  3  4  1  0  0  0  0
  3 26  1  0  0  0  0
  4 19  2  0  0  0  0
  4  5  1  0  0  0  0
  5  6  2  0  0  0  0
  5 49  1  0  0  0  0
  6  7  1  0  0  0  0
  6 27  1  0  0  0  0
  7  8  1  0  0  0  0
  7 19  1  0  0  0  0
  8  9  1  0  0  0  0
  8 28  1  0  0  0  0
  8 29  1  0  0  0  0
  9 10  1  0  0  0  0
  9 11  1  0  0  0  0
  9 30  1  0  0  0  0
 10 31  1  0  0  0  0
 11 12  1  0  0  0  0
 11 32  1  0  0  0  0
 11 33  1  0  0  0  0
 12 18  1  0  0  0  0
 12 13  1  0  0  0  0
 12 48  1  0  0  0  0
 13 14  1  0  0  0  0
 13 34  1  0  0  0  0
 13 35  1  0  0  0  0
 14 15  1  0  0  0  0
 14 36  1  0  0  0  0
 14 37  1  0  0  0  0
 15 16  1  0  0  0  0
 15 38  1  0  0  0  0
 15 39  1  0  0  0  0
 16 17  1  0  0  0  0
 16 18  1  0  0  0  0
 16 40  1  0  0  0  0
 17 41  1  0  0  0  0
 18 42  1  0  0  0  0
 18 43  1  0  0  0  0
 19 20  1  0  0  0  0
 20 21  2  0  0  0  0
 20 44  1  0  0  0  0
 21 22  1  0  0  0  0
 22 45  1  0  0  0  0
 22 46  1  0  0  0  0
 22 47  1  0  0  0  0
M  CHG  1   5   1
M  CHG  1  12   1
M  END
> <s_m_source_file>
AV-unprocessed.smi

> <i_m_source_file_index>
1487

> <i_lp_mmshare_version>
43012

> <i_f3d_flags>
0

> <s_epik_input>
W0NIM11jKFtjSF0xKWMoW0NIM10pW2NIXWMoYzEyKW4oW2NIXW4yKVtDSDJdW0NASF0oW09IXSlbQ0gyXU4zW0NIMl1bQ0gyXVtDSDJdW0NAQEhdKFtPSF0pW0NIMl0z

> <s_epik_cmdline>
J2VwaWtfcHl0aG9uJywgJy1waCcsICc3LjAnLCAnLXRuJywgJzgnLCAnLW1hJywgJzIwMCcsICctbWV0YWxfYmluZGluZycsICctaW1hZScsICc8aW5maWxlLm1hZT4nLCAnLW9tYWUnLCAnPG91dGZpbGUubWFlPic=

> <r_epik_Ionization_Penalty>
1.1857

> <r_epik_Ionization_Penalty_Charging>
1.1857

> <r_epik_Ionization_Penalty_Neutral>
1.75578e-06

> <r_epik_State_Penalty>
1.26953

> <r_epik_Charging_Adjusted_Penalty>
2.45524

> <i_epik_Tot_Q>
2

> <i_epik_Tot_abs_Q>
2

> <r_epik_Metal_State_Penalty>
5.28243

> <b_epik_Metal_Only>
0

> <s_lp_Force_Field>
OPLS_2005

> <r_lp_Energy>
35.9042

> <b_lp_Chiralities_Consistent>
1

> <s_lp_Variant>
AV-unprocessed.smi:1487-11

> <Gold.Version>
5.8.1

> <Gold.Id.Protein>
6NUR|6NUR_protein|mol2

> <Gold.PLP.Fitness>
60.6638

> <Gold.PLP.PLP>
-42.8196

> <Gold.PLP.part.hbond>
-5.0000

> <Gold.PLP.part.metal>
0.0000

> <Gold.PLP.part.buried>
-3.5370

> <Gold.PLP.part.nonpolar>
-34.5186

> <Gold.PLP.part.repulsive>
0.0991

> <Gold.PLP.ligand.clash>
0.0000

> <Gold.PLP.ligand.torsion>
0.0775

> <Gold.PLP.Chemscore.Hbond>
5.9913

> <Gold.PLP.Chemscore.CHOScore>
0.0000

> <Gold.PLP.Chemscore.Metal>
0.0000

> <Gold.Chemscore.Hbonds>
donor molecule, donor type, donor heavy atom, donor atom, acceptor molecule, acceptor atom, score
      L1  H     5    49       P1  8028  2.00
      L1  H    10    31       P1  7948  1.00
      L1  H    12    48       P1  7948  2.00
      L1  H    17    41       P1  7948  1.00

> <Gold.PLP.Chemscore.Internal.Correction>
0.0255

> <Gold.Rescore>
     Score         DG    S(hbond)    S(metal)    S(lipo)     H(rot)  DE(clash)    DE(int)     intcor
     21.91     -22.17       3.54        0.00     101.44       2.74       0.19       0.07       ----

> <Gold.Chemscore.Fitness>
21.9126

> <Gold.Chemscore.DG>
-22.1701

> <Gold.Chemscore.ZeroCoef>
-5.4800

> <Gold.Chemscore.Hbond>
3.5425

> <Gold.Chemscore.Metal>
0.0000

> <Gold.Chemscore.Lipo>
101.4407

> <Gold.Chemscore.Internal_Hbond>
0.0000

> <Gold.Chemscore.DEClash>
0.1859

> <Gold.Chemscore.DEInternal>
0.0716

> <Gold.Chemscore.Rot>
2.7384

> <Gold.Chemscore.Internal.Correction>
   9.000000E+99

> <Gold.Chemscore.Hbonds>
donor molecule, donor type, donor heavy atom, donor atom, acceptor molecule, acceptor atom, score
      L1  H     5    49       P1  8028  1.00
      L1  H    10    31       P1  7948  0.32
      L1  H    12    48       P1  7948  1.00
      L1  H    17    41       P1  7948  1.00

> <Gold.Chemscore.Hbond.Weighted>
-11.8319

> <Gold.Chemscore.Metal.Weighted>
-0.0000

> <Gold.Chemscore.Lipo.Weighted>
-11.8686

> <Gold.Chemscore.Internal_Hbond.Weighted>
0.0000

> <Gold.Chemscore.DEClash.Weighted>
0.1859

> <Gold.Chemscore.DEInternal.Weighted>
0.0716

> <Gold.Chemscore.Rot.Weighted>
7.0103

> <Gold.Chemscore.Internal.Correction.Weighted>
   9.000000E+99

> <Gold.Protein.RotatedTorsions>
[ 6907 6896 6895 6894 ] final  -53.86 input  -60.11 | X-H torsion
[ 7974 7965 7964 7962 ] final   33.34 input  175.53 | X-H torsion
[ 8008 7997 7996 7995 ] final -112.07 input   59.86 | X-H torsion
[ 10167 10162 10161 10158 ] final  123.02 input  -65.29 | X-H torsion
[ 10718 10713 10712 10709 ] final  121.31 input   66.30 | X-H torsion
[ 10763 10752 10751 10750 ] final -160.57 input  -60.55 | X-H torsion
[ 11005 11000 10999 10996 ] final   49.93 input  -57.11 | X-H torsion

> <Gold.Protein.ActiveResidues>
 VAL166  LYS551  ARG553  GLY616  TRP617  ASP618  TYR619  PRO620  LYS621  CYS622 
 ASP623  PHE694  ASN695  SER759  ASP760  ASP761  ALA762  ILE779  LEU786  VAL792 
 PHE793  MET794  SER795  GLU796  ALA797  LYS798  CYS799  TRP800  GLU811  SER814 

> <Gold.Protein.RotatedAtoms>
  150.8389  134.7673  159.6915 H   0  0  0  0  0  0  0  0  0  0  0  0  # atno 6907 bound_to 6896
  152.4480  134.5450  159.9860 H   0  0  0  0  0  0  0  0  0  0  0  0  # atno 6908 bound_to 6896
  151.5594  133.3367  159.3004 H   0  0  0  0  0  0  0  0  0  0  0  0  # atno 6909 bound_to 6896
  146.1427  139.6410  142.9152 H   0  0  0  0  0  0  0  0  0  0  0  0  # atno 7974 bound_to 7965
  154.9995  140.0394  157.2354 H   0  0  0  0  0  0  0  0  0  0  0  0  # atno 8008 bound_to 7997
  154.7556  140.2775  155.6233 H   0  0  0  0  0  0  0  0  0  0  0  0  # atno 8009 bound_to 7997
  156.2894  140.2638  156.2322 H   0  0  0  0  0  0  0  0  0  0  0  0  # atno 8010 bound_to 7997
  139.5824  144.6992  151.3495 H   0  0  0  0  0  0  0  0  0  0  0  0  # atno 10167 bound_to 10162
  157.5827  131.1073  150.8155 H   0  0  0  0  0  0  0  0  0  0  0  0  # atno 10718 bound_to 10713
  154.7379  135.3061  154.8780 H   0  0  0  0  0  0  0  0  0  0  0  0  # atno 10763 bound_to 10752
  153.9603  135.6753  153.4749 H   0  0  0  0  0  0  0  0  0  0  0  0  # atno 10764 bound_to 10752
  153.0980  135.4926  154.8737 H   0  0  0  0  0  0  0  0  0  0  0  0  # atno 10765 bound_to 10752
  140.1060  134.5017  155.8719 H   0  0  0  0  0  0  0  0  0  0  0  0  # atno 11005 bound_to 11000
  145.5009  141.0437  143.2541 LP  0  0  0  0  0  0  0  0  0  0  0  0  # atno 17320 bound_to 7965
  144.7811  139.6524  143.7154 LP  0  0  0  0  0  0  0  0  0  0  0  0  # atno 17321 bound_to 7965
  140.7100  143.7414  150.7551 LP  0  0  0  0  0  0  0  0  0  0  0  0  # atno 17342 bound_to 10162
  140.0950  143.4842  152.2457 LP  0  0  0  0  0  0  0  0  0  0  0  0  # atno 17343 bound_to 10162
  156.8597  130.5109  149.5305 LP  0  0  0  0  0  0  0  0  0  0  0  0  # atno 17370 bound_to 10713
  156.0874  130.5869  150.9672 LP  0  0  0  0  0  0  0  0  0  0  0  0  # atno 17371 bound_to 10713
  141.2118  133.6711  156.6612 LP  0  0  0  0  0  0  0  0  0  0  0  0  # atno 17394 bound_to 11000
  140.3155  134.8051  157.4210 LP  0  0  0  0  0  0  0  0  0  0  0  0  # atno 17395 bound_to 11000

$$$$
