AV-unprocessed.smi:744|AV-procd|sdf|3570|dock1
  -GOLD-   22720 0563D 1   1.00000     0.00000
 Structure written by MMmdl.
 34 35  0  0  0  0  0  0  0  0  1 V2000
  144.7810  137.3393  152.3104 O   0  0  0  0  0  0  0  0  0  0  0  0
  145.9743  137.0444  152.2399 C   0  0  0  0  0  0  0  0  0  0  0  0
  146.9668  137.9183  152.4628 N   0  0  0  0  0  0  0  0  0  0  0  0
  146.7961  139.3258  152.8124 C   0  0  0  0  0  0  0  0  0  0  0  0
  147.6720  139.7300  154.0164 C   0  0  2  0  0  0  0  0  0  0  0  0
  148.2715  141.1370  153.9125 C   0  0  0  0  0  0  0  0  0  0  0  0
  149.4628  141.1533  154.8825 C   0  0  0  0  0  0  0  0  0  0  0  0
  149.7247  139.6911  155.2785 C   0  0  0  0  0  0  0  0  0  0  0  0
  148.8860  138.8368  154.3217 C   0  0  2  0  0  0  0  0  0  0  0  0
  149.6472  138.5796  153.1562 O   0  0  0  0  0  0  0  0  0  0  0  0
  146.4571  135.8281  151.9302 N   0  0  0  0  0  0  0  0  0  0  0  0
  145.7290  134.6480  151.6211 C   0  0  0  0  0  0  0  0  0  0  0  0
  146.5190  133.4972  151.3993 C   0  0  0  0  0  0  0  0  0  0  0  0
  145.8916  132.2759  151.0861 C   0  0  0  0  0  0  0  0  0  0  0  0
  144.4882  132.2361  151.0035 C   0  0  0  0  0  0  0  0  0  0  0  0
  143.7762  133.4267  151.2384 C   0  0  0  0  0  0  0  0  0  0  0  0
  144.3757  134.5984  151.5380 N   0  0  0  0  0  0  0  0  0  0  0  0
  147.9166  137.5857  152.3841 H   0  0  0  0  0  0  0  0  0  0  0  0
  146.9876  139.9729  151.9547 H   0  0  0  0  0  0  0  0  0  0  0  0
  145.7463  139.4732  153.0672 H   0  0  0  0  0  0  0  0  0  0  0  0
  147.0369  139.7209  154.9044 H   0  0  0  0  0  0  0  0  0  0  0  0
  148.6298  141.3147  152.8974 H   0  0  0  0  0  0  0  0  0  0  0  0
  147.5410  141.9136  154.1407 H   0  0  0  0  0  0  0  0  0  0  0  0
  150.3374  141.5919  154.4008 H   0  0  0  0  0  0  0  0  0  0  0  0
  149.2428  141.7531  155.7662 H   0  0  0  0  0  0  0  0  0  0  0  0
  150.7847  139.4339  155.2624 H   0  0  0  0  0  0  0  0  0  0  0  0
  149.3729  139.5322  156.2986 H   0  0  0  0  0  0  0  0  0  0  0  0
  148.5974  137.8867  154.7726 H   0  0  0  0  0  0  0  0  0  0  0  0
  149.5505  137.6659  152.9302 H   0  0  0  0  0  0  0  0  0  0  0  0
  147.4619  135.7356  151.9100 H   0  0  0  0  0  0  0  0  0  0  0  0
  147.5964  133.5448  151.4674 H   0  0  0  0  0  0  0  0  0  0  0  0
  146.4778  131.3856  150.9122 H   0  0  0  0  0  0  0  0  0  0  0  0
  143.9708  131.3184  150.7667 H   0  0  0  0  0  0  0  0  0  0  0  0
  142.6977  133.4394  151.1850 H   0  0  0  0  0  0  0  0  0  0  0  0
  1  2  2  0  0  0  0
  2  3  1  0  0  0  0
  2 11  1  0  0  0  0
  3  4  1  0  0  0  0
  3 18  1  0  0  0  0
  4  5  1  0  0  0  0
  4 19  1  0  0  0  0
  4 20  1  0  0  0  0
  5  9  1  0  0  0  0
  5  6  1  0  0  0  0
  5 21  1  0  0  0  0
  6  7  1  0  0  0  0
  6 22  1  0  0  0  0
  6 23  1  0  0  0  0
  7  8  1  0  0  0  0
  7 24  1  0  0  0  0
  7 25  1  0  0  0  0
  8  9  1  0  0  0  0
  8 26  1  0  0  0  0
  8 27  1  0  0  0  0
  9 10  1  0  0  0  0
  9 28  1  0  0  0  0
 10 29  1  0  0  0  0
 11 12  1  0  0  0  0
 11 30  1  0  0  0  0
 12 17  1  0  0  0  0
 12 13  2  0  0  0  0
 13 14  1  0  0  0  0
 13 31  1  0  0  0  0
 14 15  2  0  0  0  0
 14 32  1  0  0  0  0
 15 16  1  0  0  0  0
 15 33  1  0  0  0  0
 16 17  2  0  0  0  0
 16 34  1  0  0  0  0
M  END
> <s_m_source_file>
AV-unprocessed.smi

> <i_m_source_file_index>
744

> <i_lp_mmshare_version>
43012

> <i_f3d_flags>
0

> <s_epik_input>
bjFbY0hdW2NIXVtjSF1bY0hdYzFbTkhdQyg9TylbTkhdW0NIMl1bQ0BASF0yW0NIMl1bQ0gyXVtDSDJdW0NASF0yW09IXQ==

> <s_epik_cmdline>
J2VwaWtfcHl0aG9uJywgJy1waCcsICc3LjAnLCAnLXRuJywgJzgnLCAnLW1hJywgJzIwMCcsICctbWV0YWxfYmluZGluZycsICctaW1hZScsICc8aW5maWxlLm1hZT4nLCAnLW9tYWUnLCAnPG91dGZpbGUubWFlPic=

> <r_lp_tautomer_probability>
1

> <r_epik_Ionization_Penalty>
5.04769e-05

> <r_epik_Ionization_Penalty_Charging>
0

> <r_epik_Ionization_Penalty_Neutral>
5.04769e-05

> <r_epik_State_Penalty>
-0

> <r_epik_Charging_Adjusted_Penalty>
0

> <i_epik_Tot_Q>
0

> <i_epik_Tot_abs_Q>
0

> <r_epik_Metal_State_Penalty>
-0

> <b_epik_Metal_Only>
0

> <s_lp_Force_Field>
OPLS_2005

> <r_lp_Energy>
26.8719

> <b_lp_Chiralities_Consistent>
1

> <s_lp_Variant>
AV-unprocessed.smi:744-3

> <Gold.Version>
5.8.1

> <Gold.Id.Protein>
6NUR|6NUR_protein|mol2

> <Gold.PLP.Fitness>
41.4296

> <Gold.PLP.PLP>
-30.8879

> <Gold.PLP.part.hbond>
-3.6942

> <Gold.PLP.part.metal>
0.0000

> <Gold.PLP.part.buried>
-4.5502

> <Gold.PLP.part.nonpolar>
-24.7243

> <Gold.PLP.part.repulsive>
1.7739

> <Gold.PLP.ligand.clash>
0.0000

> <Gold.PLP.ligand.torsion>
0.5999

> <Gold.PLP.Chemscore.Hbond>
2.9120

> <Gold.PLP.Chemscore.CHOScore>
1.0000

> <Gold.PLP.Chemscore.Metal>
0.0000

> <Gold.Chemscore.Hbonds>
donor molecule, donor type, donor heavy atom, donor atom, acceptor molecule, acceptor atom, score
      L1  H     3    18       P1  7948  0.91
      L1  H    10    29       P1  7948  1.00
      L1  H    11    30       P1  7948  1.00
      L1  C    16    34       P1 10186  0.98

> <Gold.PLP.Chemscore.Internal.Correction>
0.0056

> <Gold.Rescore>
     Score         DG    S(hbond)    S(metal)    S(lipo)     H(rot)  DE(clash)    DE(int)     intcor
     15.11     -18.31       2.90        0.00      66.51       1.81       0.02       3.19       ----

> <Gold.Chemscore.Fitness>
15.1079

> <Gold.Chemscore.DG>
-18.3136

> <Gold.Chemscore.ZeroCoef>
-5.4800

> <Gold.Chemscore.Hbond>
2.8962

> <Gold.Chemscore.Metal>
0.0000

> <Gold.Chemscore.Lipo>
66.5080

> <Gold.Chemscore.Internal_Hbond>
0.0000

> <Gold.Chemscore.DEClash>
0.0181

> <Gold.Chemscore.DEInternal>
3.1875

> <Gold.Chemscore.Rot>
1.8052

> <Gold.Chemscore.Internal.Correction>
   9.000000E+99

> <Gold.Chemscore.Hbonds>
donor molecule, donor type, donor heavy atom, donor atom, acceptor molecule, acceptor atom, score
      L1  H     3    18       P1  7948  0.88
      L1  H    10    29       P1  7948  0.77
      L1  H    11    30       P1  7948  0.93

> <Gold.Chemscore.Hbond.Weighted>
-9.6734

> <Gold.Chemscore.Metal.Weighted>
-0.0000

> <Gold.Chemscore.Lipo.Weighted>
-7.7814

> <Gold.Chemscore.Internal_Hbond.Weighted>
0.0000

> <Gold.Chemscore.DEClash.Weighted>
0.0181

> <Gold.Chemscore.DEInternal.Weighted>
3.1875

> <Gold.Chemscore.Rot.Weighted>
4.6212

> <Gold.Chemscore.Internal.Correction.Weighted>
   9.000000E+99

> <Gold.Protein.RotatedTorsions>
[ 6907 6896 6895 6894 ] final  -66.80 input  -60.11 | X-H torsion
[ 7974 7965 7964 7962 ] final  174.00 input  175.53 | X-H torsion
[ 8008 7997 7996 7995 ] final -127.38 input   59.86 | X-H torsion
[ 10167 10162 10161 10158 ] final  -11.88 input  -65.29 | X-H torsion
[ 10718 10713 10712 10709 ] final  -73.29 input   66.30 | X-H torsion
[ 10763 10752 10751 10750 ] final  -83.90 input  -60.55 | X-H torsion
[ 11005 11000 10999 10996 ] final  -33.95 input  -57.11 | X-H torsion

> <Gold.Protein.ActiveResidues>
 VAL166  LYS551  ARG553  GLY616  TRP617  ASP618  TYR619  PRO620  LYS621  CYS622 
 ASP623  PHE694  ASN695  SER759  ASP760  ASP761  ALA762  ILE779  LEU786  VAL792 
 PHE793  MET794  SER795  GLU796  ALA797  LYS798  CYS799  TRP800  GLU811  SER814 

> <Gold.Protein.RotatedAtoms>
  150.7445  134.5971  159.6016 H   0  0  0  0  0  0  0  0  0  0  0  0  # atno 6907 bound_to 6896
  152.3342  134.7216  160.0290 H   0  0  0  0  0  0  0  0  0  0  0  0  # atno 6908 bound_to 6896
  151.7690  133.3304  159.3475 H   0  0  0  0  0  0  0  0  0  0  0  0  # atno 6909 bound_to 6896
  144.7231  139.9732  143.6437 H   0  0  0  0  0  0  0  0  0  0  0  0  # atno 7974 bound_to 7965
  155.2452  140.0430  157.2980 H   0  0  0  0  0  0  0  0  0  0  0  0  # atno 8008 bound_to 7997
  154.5803  140.2399  155.8033 H   0  0  0  0  0  0  0  0  0  0  0  0  # atno 8009 bound_to 7997
  156.2188  140.2976  155.9911 H   0  0  0  0  0  0  0  0  0  0  0  0  # atno 8010 bound_to 7997
  140.7149  143.5592  150.9215 H   0  0  0  0  0  0  0  0  0  0  0  0  # atno 10167 bound_to 10162
  156.0286  130.4391  150.2720 H   0  0  0  0  0  0  0  0  0  0  0  0  # atno 10718 bound_to 10713
  154.5932  135.5539  153.7299 H   0  0  0  0  0  0  0  0  0  0  0  0  # atno 10763 bound_to 10752
  153.0125  135.6348  154.1820 H   0  0  0  0  0  0  0  0  0  0  0  0  # atno 10764 bound_to 10752
  154.1760  135.2889  155.3046 H   0  0  0  0  0  0  0  0  0  0  0  0  # atno 10765 bound_to 10752
  140.9676  133.7128  156.1471 H   0  0  0  0  0  0  0  0  0  0  0  0  # atno 11005 bound_to 11000
  146.0546  139.3544  143.0618 LP  0  0  0  0  0  0  0  0  0  0  0  0  # atno 17320 bound_to 7965
  145.8170  140.9698  143.0918 LP  0  0  0  0  0  0  0  0  0  0  0  0  # atno 17321 bound_to 7965
  139.9317  143.6486  152.3075 LP  0  0  0  0  0  0  0  0  0  0  0  0  # atno 17342 bound_to 10162
  139.6939  144.7643  151.1391 LP  0  0  0  0  0  0  0  0  0  0  0  0  # atno 17343 bound_to 10162
  157.0823  131.0146  151.3152 LP  0  0  0  0  0  0  0  0  0  0  0  0  # atno 17370 bound_to 10713
  157.4918  130.7827  149.7515 LP  0  0  0  0  0  0  0  0  0  0  0  0  # atno 17371 bound_to 10713
  140.7376  134.4186  157.5559 LP  0  0  0  0  0  0  0  0  0  0  0  0  # atno 17394 bound_to 11000
  139.8900  134.8815  156.2391 LP  0  0  0  0  0  0  0  0  0  0  0  0  # atno 17395 bound_to 11000

$$$$
