AV-unprocessed.smi:37|AV-procd|sdf|331|dock10
  -GOLD-   2262016163D 1   1.00000     0.00000
 Structure written by MMmdl.
 43 44  0  0  0  0  0  0  0  0  2 V2000
  144.7010  141.6706  160.7099 C   0  0  0  0  0  0  0  0  0  0  0  0
  144.0161  141.0801  159.4703 C   0  0  0  0  0  0  0  0  0  0  0  0
  144.3345  139.5979  159.2884 C   0  0  0  0  0  0  0  0  0  0  0  0
  143.4709  138.7333  159.4402 O   0  0  0  0  0  0  0  0  0  0  0  0
  145.6168  139.3810  158.9544 O   0  0  0  0  0  0  0  0  0  0  0  0
  146.0240  138.0856  158.5459 C   0  0  0  0  0  0  0  0  0  0  0  0
  147.4606  138.1504  157.9999 C   0  0  2  0  0  0  0  0  0  0  0  0
  147.3790  138.5737  156.6339 O   0  0  0  0  0  0  0  0  0  0  0  0
  148.0570  137.6929  155.7863 C   0  0  1  0  0  0  0  0  0  0  0  0
  149.4700  138.1910  155.5289 N   0  0  0  0  0  0  0  0  0  0  0  0
  150.5737  137.6144  156.1392 C   0  0  0  0  0  0  0  0  0  0  0  0
  151.8217  138.0696  155.9066 C   0  0  0  0  0  0  0  0  0  0  0  0
  152.8702  137.4865  156.5129 F   0  0  0  0  0  0  0  0  0  0  0  0
  152.0238  139.1978  155.0005 C   0  0  0  0  0  0  0  0  0  0  0  0
  153.1656  139.5992  154.7814 O   0  0  0  0  0  0  0  0  0  0  0  0
  150.9199  139.7640  154.4335 N   0  5  0  0  0  0  0  0  0  0  0  0
  149.6543  139.3103  154.6697 C   0  0  0  0  0  0  0  0  0  0  0  0
  148.6531  139.8254  154.1715 O   0  0  0  0  0  0  0  0  0  0  0  0
  148.0779  136.3512  156.5191 C   0  0  2  0  0  0  0  0  0  0  0  0
  146.3496  135.4060  156.1982 Br  0  0  0  0  0  0  0  0  0  0  0  0
  148.2028  136.8012  157.9677 C   0  0  2  0  0  0  0  0  0  0  0  0
  147.7024  135.8442  158.8942 O   0  0  0  0  0  0  0  0  0  0  0  0
  147.6755  136.1190  160.2107 C   0  0  0  0  0  0  0  0  0  0  0  0
  147.9320  137.2061  160.7283 O   0  0  0  0  0  0  0  0  0  0  0  0
  147.2801  134.9094  161.0540 C   0  0  0  0  0  0  0  0  0  0  0  0
  147.1453  135.2617  162.5420 C   0  0  0  0  0  0  0  0  0  0  0  0
  144.4406  142.7226  160.8272 H   0  0  0  0  0  0  0  0  0  0  0  0
  145.7873  141.6065  160.6361 H   0  0  0  0  0  0  0  0  0  0  0  0
  144.3931  141.1507  161.6178 H   0  0  0  0  0  0  0  0  0  0  0  0
  142.9355  141.2021  159.5496 H   0  0  0  0  0  0  0  0  0  0  0  0
  144.3306  141.6204  158.5771 H   0  0  0  0  0  0  0  0  0  0  0  0
  145.9777  137.4264  159.4133 H   0  0  0  0  0  0  0  0  0  0  0  0
  145.3418  137.6894  157.7931 H   0  0  0  0  0  0  0  0  0  0  0  0
  148.0389  138.8641  158.5876 H   0  0  0  0  0  0  0  0  0  0  0  0
  147.5854  137.6631  154.8026 H   0  0  0  0  0  0  0  0  0  0  0  0
  150.4560  136.7873  156.8209 H   0  0  0  0  0  0  0  0  0  0  0  0
  148.8871  135.6980  156.1924 H   0  0  0  0  0  0  0  0  0  0  0  0
  149.2542  137.0073  158.1759 H   0  0  0  0  0  0  0  0  0  0  0  0
  146.3348  134.5139  160.6807 H   0  0  0  0  0  0  0  0  0  0  0  0
  148.0266  134.1262  160.9203 H   0  0  0  0  0  0  0  0  0  0  0  0
  146.8148  134.3943  163.1131 H   0  0  0  0  0  0  0  0  0  0  0  0
  146.4160  136.0580  162.6968 H   0  0  0  0  0  0  0  0  0  0  0  0
  148.0961  135.5905  162.9635 H   0  0  0  0  0  0  0  0  0  0  0  0
  1  2  1  0  0  0  0
  1 27  1  0  0  0  0
  1 28  1  0  0  0  0
  1 29  1  0  0  0  0
  2  3  1  0  0  0  0
  2 30  1  0  0  0  0
  2 31  1  0  0  0  0
  3  4  2  0  0  0  0
  3  5  1  0  0  0  0
  5  6  1  0  0  0  0
  6  7  1  0  0  0  0
  6 32  1  0  0  0  0
  6 33  1  0  0  0  0
  7 21  1  0  0  0  0
  7  8  1  0  0  0  0
  7 34  1  0  0  0  0
  8  9  1  0  0  0  0
  9 10  1  0  0  0  0
  9 19  1  0  0  0  0
  9 35  1  0  0  0  0
 10 17  1  0  0  0  0
 10 11  1  0  0  0  0
 11 12  2  0  0  0  0
 11 36  1  0  0  0  0
 12 13  1  0  0  0  0
 12 14  1  0  0  0  0
 14 15  2  0  0  0  0
 14 16  1  0  0  0  0
 16 17  1  0  0  0  0
 17 18  2  0  0  0  0
 19 20  1  0  0  0  0
 19 21  1  0  0  0  0
 19 37  1  0  0  0  0
 21 22  1  0  0  0  0
 21 38  1  0  0  0  0
 22 23  1  0  0  0  0
 23 24  2  0  0  0  0
 23 25  1  0  0  0  0
 25 26  1  0  0  0  0
 25 39  1  0  0  0  0
 25 40  1  0  0  0  0
 26 41  1  0  0  0  0
 26 42  1  0  0  0  0
 26 43  1  0  0  0  0
M  CHG  1  16  -1
M  END
> <s_m_source_file>
AV-unprocessed.smi

> <i_m_source_file_index>
37

> <i_lp_mmshare_version>
43012

> <i_f3d_flags>
0

> <s_epik_input>
W0NIM11bQ0gyXUMoPU8pT1tDSDJdW0NAQEhdMU9bQ0BASF0objJbY0hdYyhGKWMoPU8pW25IXWMyPU8pW0NAQEhdKEJyKVtDQEhdMU9DKD1PKVtDSDJdW0NIM10=

> <s_epik_cmdline>
J2VwaWtfcHl0aG9uJywgJy1waCcsICc3LjAnLCAnLXRuJywgJzgnLCAnLW1hJywgJzIwMCcsICctbWV0YWxfYmluZGluZycsICctaW1hZScsICc8aW5maWxlLm1hZT4nLCAnLW9tYWUnLCAnPG91dGZpbGUubWFlPic=

> <r_epik_Ionization_Penalty>
1.08158

> <r_epik_Ionization_Penalty_Charging>
9.05154e-09

> <r_epik_Ionization_Penalty_Neutral>
1.08158

> <r_epik_State_Penalty>
1.13706

> <r_epik_Charging_Adjusted_Penalty>
1.13706

> <i_epik_Tot_Q>
-1

> <i_epik_Tot_abs_Q>
1

> <r_epik_Metal_State_Penalty>
0.00343535

> <b_epik_Metal_Only>
0

> <s_epik_Chemistry_Notes>
This compound has an ester and may undergo hydrolysis at high or low pH. This compound contains an acetal/aminal-like group ( X-CH(R)-Y where X, Y are N, S, or O) that may be acid/base labile, releasing an aldehyde.

> <s_lp_Force_Field>
OPLS_2005

> <r_lp_Energy>
34.8108

> <b_lp_Chiralities_Consistent>
1

> <s_lp_Variant>
AV-unprocessed.smi:37-29

> <Gold.Version>
5.8.1

> <Gold.Id.Protein>
6NUR|6NUR_protein|mol2

> <Gold.PLP.Fitness>
37.3257

> <Gold.PLP.PLP>
-27.8844

> <Gold.PLP.part.hbond>
-6.0000

> <Gold.PLP.part.metal>
0.0000

> <Gold.PLP.part.buried>
-3.6162

> <Gold.PLP.part.nonpolar>
-17.5560

> <Gold.PLP.part.repulsive>
0.2713

> <Gold.PLP.ligand.clash>
0.0000

> <Gold.PLP.ligand.torsion>
0.7713

> <Gold.PLP.Chemscore.Hbond>
3.6320

> <Gold.PLP.Chemscore.CHOScore>
0.0000

> <Gold.PLP.Chemscore.Metal>
0.0000

> <Gold.Chemscore.Hbonds>
donor molecule, donor type, donor heavy atom, donor atom, acceptor molecule, acceptor atom, score
      P1  H  6931  6943       L1    24  0.83
      P1  H  6934  6947       L1    24  0.78
      P1  H  7989  7998       L1    16  1.00
      P1  H  7997  8008       L1    15  1.00

> <Gold.PLP.Chemscore.Internal.Correction>
0.0879

> <Gold.Rescore>
     Score         DG    S(hbond)    S(metal)    S(lipo)     H(rot)  DE(clash)    DE(int)     intcor
      9.14     -12.45       3.54        0.00      30.08       3.27       0.40       2.90       ----

> <Gold.Chemscore.Fitness>
9.1439

> <Gold.Chemscore.DG>
-12.4479

> <Gold.Chemscore.ZeroCoef>
-5.4800

> <Gold.Chemscore.Hbond>
3.5364

> <Gold.Chemscore.Metal>
0.0000

> <Gold.Chemscore.Lipo>
30.0830

> <Gold.Chemscore.Internal_Hbond>
0.0000

> <Gold.Chemscore.DEClash>
0.4043

> <Gold.Chemscore.DEInternal>
2.8997

> <Gold.Chemscore.Rot>
3.2669

> <Gold.Chemscore.Internal.Correction>
   9.000000E+99

> <Gold.Chemscore.Hbonds>
donor molecule, donor type, donor heavy atom, donor atom, acceptor molecule, acceptor atom, score
      P1  H  6931  6943       L1    24  0.81
      P1  H  6934  6947       L1    24  0.78
      P1  H  7989  7998       L1    16  0.25
      P1  H  7997  8008       L1    15  1.00

> <Gold.Chemscore.Hbond.Weighted>
-11.8116

> <Gold.Chemscore.Metal.Weighted>
-0.0000

> <Gold.Chemscore.Lipo.Weighted>
-3.5197

> <Gold.Chemscore.Internal_Hbond.Weighted>
0.0000

> <Gold.Chemscore.DEClash.Weighted>
0.4043

> <Gold.Chemscore.DEInternal.Weighted>
2.8997

> <Gold.Chemscore.Rot.Weighted>
8.3634

> <Gold.Chemscore.Internal.Correction.Weighted>
   9.000000E+99

> <Gold.Protein.RotatedTorsions>
[ 6907 6896 6895 6894 ] final  136.16 input  -60.11 | X-H torsion
[ 7974 7965 7964 7962 ] final  -88.02 input  175.53 | X-H torsion
[ 8008 7997 7996 7995 ] final   -4.63 input   59.86 | X-H torsion
[ 10167 10162 10161 10158 ] final -121.76 input  -65.29 | X-H torsion
[ 10718 10713 10712 10709 ] final  128.06 input   66.30 | X-H torsion
[ 10763 10752 10751 10750 ] final  161.68 input  -60.55 | X-H torsion
[ 11005 11000 10999 10996 ] final   82.02 input  -57.11 | X-H torsion

> <Gold.Protein.ActiveResidues>
 VAL166  LYS551  ARG553  GLY616  TRP617  ASP618  TYR619  PRO620  LYS621  CYS622 
 ASP623  PHE694  ASN695  SER759  ASP760  ASP761  ALA762  ILE779  LEU786  VAL792 
 PHE793  MET794  SER795  GLU796  ALA797  LYS798  CYS799  TRP800  GLU811  SER814 

> <Gold.Protein.RotatedAtoms>
  152.2925  133.5575  159.5565 H   0  0  0  0  0  0  0  0  0  0  0  0  # atno 6907 bound_to 6896
  150.7241  134.0409  159.3774 H   0  0  0  0  0  0  0  0  0  0  0  0  # atno 6908 bound_to 6896
  151.8314  135.0620  160.0488 H   0  0  0  0  0  0  0  0  0  0  0  0  # atno 6909 bound_to 6896
  145.4588  140.9561  143.1981 H   0  0  0  0  0  0  0  0  0  0  0  0  # atno 7974 bound_to 7965
  154.6123  140.2479  155.7654 H   0  0  0  0  0  0  0  0  0  0  0  0  # atno 8008 bound_to 7997
  156.2378  140.2944  156.0309 H   0  0  0  0  0  0  0  0  0  0  0  0  # atno 8009 bound_to 7997
  155.2032  140.0395  157.2911 H   0  0  0  0  0  0  0  0  0  0  0  0  # atno 8010 bound_to 7997
  140.0215  143.5339  152.2218 H   0  0  0  0  0  0  0  0  0  0  0  0  # atno 10167 bound_to 10162
  157.5278  131.1098  150.9055 H   0  0  0  0  0  0  0  0  0  0  0  0  # atno 10718 bound_to 10713
  154.2667  135.2767  155.2755 H   0  0  0  0  0  0  0  0  0  0  0  0  # atno 10763 bound_to 10752
  154.5337  135.5722  153.6784 H   0  0  0  0  0  0  0  0  0  0  0  0  # atno 10764 bound_to 10752
  152.9952  135.6234  154.2820 H   0  0  0  0  0  0  0  0  0  0  0  0  # atno 10765 bound_to 10752
  139.9078  134.8040  156.2119 H   0  0  0  0  0  0  0  0  0  0  0  0  # atno 11005 bound_to 11000
  144.8016  139.6130  143.7069 LP  0  0  0  0  0  0  0  0  0  0  0  0  # atno 17320 bound_to 7965
  146.2463  139.6105  142.9457 LP  0  0  0  0  0  0  0  0  0  0  0  0  # atno 17321 bound_to 7965
  139.6136  144.7614  151.2896 LP  0  0  0  0  0  0  0  0  0  0  0  0  # atno 17342 bound_to 10162
  140.7340  143.6778  150.8027 LP  0  0  0  0  0  0  0  0  0  0  0  0  # atno 17343 bound_to 10162
  156.9646  130.5468  149.5287 LP  0  0  0  0  0  0  0  0  0  0  0  0  # atno 17370 bound_to 10713
  156.0400  130.5483  150.8747 LP  0  0  0  0  0  0  0  0  0  0  0  0  # atno 17371 bound_to 10713
  141.0460  133.6913  156.1684 LP  0  0  0  0  0  0  0  0  0  0  0  0  # atno 17394 bound_to 11000
  140.6884  134.4693  157.5589 LP  0  0  0  0  0  0  0  0  0  0  0  0  # atno 17395 bound_to 11000

$$$$
