AV-unprocessed.smi:3202|AV-procd|sdf|12246|dock8
  -GOLD-   2272018 83D 1   1.00000     0.00000
 Structure written by MMmdl.
 43 44  0  0  0  0  0  0  0  0  2 V2000
  144.0431  132.6477  150.8087 C   0  0  0  0  0  0  0  0  0  0  0  0
  144.6087  133.9312  151.3414 C   0  0  0  0  0  0  0  0  0  0  0  0
  143.9228  134.9838  152.0150 C   0  0  0  0  0  0  0  0  0  0  0  0
  144.8967  135.9050  152.2876 C   0  0  0  0  0  0  0  0  0  0  0  0
  144.8496  137.2436  152.9558 C   0  0  0  0  0  0  0  0  0  0  0  0
  146.1707  138.0425  152.9017 C   0  0  1  0  0  0  0  0  0  0  0  0
  146.4984  138.5085  151.4736 C   0  0  0  0  0  0  0  0  0  0  0  0
  146.1036  139.2287  153.7869 N   0  3  0  0  0  0  0  0  0  0  0  0
  147.3074  140.0940  153.8110 C   0  0  2  0  0  0  0  0  0  0  0  0
  148.5650  139.4007  154.3500 C   0  0  0  0  0  0  0  0  0  0  0  0
  149.4630  140.5324  154.8648 C   0  0  0  0  0  0  0  0  0  0  0  0
  148.6049  141.8069  154.8505 C   0  0  0  0  0  0  0  0  0  0  0  0
  147.1423  141.3513  154.6914 C   0  0  0  0  0  0  0  0  0  0  0  0
  146.2959  142.4319  153.9923 C   0  0  0  0  0  0  0  0  0  0  0  0
  146.5368  141.0393  156.0798 C   0  0  0  0  0  0  0  0  0  0  0  0
  146.0635  135.3875  151.7728 N   0  0  0  0  0  0  0  0  0  0  0  0
  145.9014  134.1809  151.1996 N   0  0  0  0  0  0  0  0  0  0  0  0
  146.9672  135.8376  151.8082 H   0  0  0  0  0  0  0  0  0  0  0  0
  142.9549  132.6395  150.8750 H   0  0  0  0  0  0  0  0  0  0  0  0
  144.4160  131.7916  151.3713 H   0  0  0  0  0  0  0  0  0  0  0  0
  144.3111  132.5026  149.7618 H   0  0  0  0  0  0  0  0  0  0  0  0
  142.8728  135.0483  152.2593 H   0  0  0  0  0  0  0  0  0  0  0  0
  144.5530  137.0863  153.9917 H   0  0  0  0  0  0  0  0  0  0  0  0
  144.0522  137.8403  152.5102 H   0  0  0  0  0  0  0  0  0  0  0  0
  146.9894  137.4030  153.2346 H   0  0  0  0  0  0  0  0  0  0  0  0
  146.6265  137.6663  150.7936 H   0  0  0  0  0  0  0  0  0  0  0  0
  147.4256  139.0823  151.4528 H   0  0  0  0  0  0  0  0  0  0  0  0
  145.7072  139.1419  151.0706 H   0  0  0  0  0  0  0  0  0  0  0  0
  145.3497  139.8052  153.4411 H   0  0  0  0  0  0  0  0  0  0  0  0
  147.5129  140.4251  152.7911 H   0  0  0  0  0  0  0  0  0  0  0  0
  148.3115  138.7387  155.1791 H   0  0  0  0  0  0  0  0  0  0  0  0
  149.0607  138.7987  153.5875 H   0  0  0  0  0  0  0  0  0  0  0  0
  149.8107  140.3083  155.8740 H   0  0  0  0  0  0  0  0  0  0  0  0
  150.3460  140.6566  154.2371 H   0  0  0  0  0  0  0  0  0  0  0  0
  148.7629  142.4204  155.7383 H   0  0  0  0  0  0  0  0  0  0  0  0
  148.9007  142.4139  153.9933 H   0  0  0  0  0  0  0  0  0  0  0  0
  146.2629  143.3486  154.5821 H   0  0  0  0  0  0  0  0  0  0  0  0
  145.2684  142.0973  153.8462 H   0  0  0  0  0  0  0  0  0  0  0  0
  146.6992  142.6888  153.0123 H   0  0  0  0  0  0  0  0  0  0  0  0
  146.5229  141.9306  156.7083 H   0  0  0  0  0  0  0  0  0  0  0  0
  147.1046  140.2781  156.6151 H   0  0  0  0  0  0  0  0  0  0  0  0
  145.5076  140.6887  156.0020 H   0  0  0  0  0  0  0  0  0  0  0  0
  145.8714  138.9388  154.7261 H   0  0  0  0  0  0  0  0  0  0  0  0
  1 19  1  0  0  0  0
  1 20  1  0  0  0  0
  1 21  1  0  0  0  0
  1  2  1  0  0  0  0
  2 17  2  0  0  0  0
  2  3  1  0  0  0  0
  3  4  2  0  0  0  0
  3 22  1  0  0  0  0
  4 16  1  0  0  0  0
  4  5  1  0  0  0  0
  5  6  1  0  0  0  0
  5 23  1  0  0  0  0
  5 24  1  0  0  0  0
  6  7  1  0  0  0  0
  6  8  1  0  0  0  0
  6 25  1  0  0  0  0
  7 26  1  0  0  0  0
  7 27  1  0  0  0  0
  7 28  1  0  0  0  0
  8  9  1  0  0  0  0
  8 29  1  0  0  0  0
  8 43  1  0  0  0  0
  9 13  1  0  0  0  0
  9 10  1  0  0  0  0
  9 30  1  0  0  0  0
 10 11  1  0  0  0  0
 10 31  1  0  0  0  0
 10 32  1  0  0  0  0
 11 12  1  0  0  0  0
 11 33  1  0  0  0  0
 11 34  1  0  0  0  0
 12 13  1  0  0  0  0
 12 35  1  0  0  0  0
 12 36  1  0  0  0  0
 13 14  1  0  0  0  0
 13 15  1  0  0  0  0
 14 37  1  0  0  0  0
 14 38  1  0  0  0  0
 14 39  1  0  0  0  0
 15 40  1  0  0  0  0
 15 41  1  0  0  0  0
 15 42  1  0  0  0  0
 16 17  1  0  0  0  0
 16 18  1  0  0  0  0
M  CHG  1   8   1
M  END
> <s_m_source_file>
AV-unprocessed.smi

> <i_m_source_file_index>
3202

> <i_lp_mmshare_version>
43012

> <i_f3d_flags>
0

> <s_epik_input>
W0NIM11jMVtjSF1jKG5bbkhdMSlbQ0gyXVtDQEhdKFtDSDNdKVtOSF1bQ0BASF0oQzIoW0NIM10pW0NIM10pW0NIMl1bQ0gyXVtDSDJdMg==

> <s_epik_cmdline>
J2VwaWtfcHl0aG9uJywgJy1waCcsICc3LjAnLCAnLXRuJywgJzgnLCAnLW1hJywgJzIwMCcsICctbWV0YWxfYmluZGluZycsICctaW1hZScsICc8aW5maWxlLm1hZT4nLCAnLW9tYWUnLCAnPG91dGZpbGUubWFlPic=

> <r_lp_tautomer_probability>
0.5

> <r_epik_Ionization_Penalty>
0.000449684

> <r_epik_Ionization_Penalty_Charging>
0.000404963

> <r_epik_Ionization_Penalty_Neutral>
4.47208e-05

> <r_epik_State_Penalty>
0.41068

> <r_epik_Charging_Adjusted_Penalty>
0.411085

> <i_epik_Tot_Q>
1

> <i_epik_Tot_abs_Q>
1

> <r_epik_Metal_State_Penalty>
0.410687

> <b_epik_Metal_Only>
0

> <s_lp_Force_Field>
OPLS_2005

> <r_lp_Energy>
31.7221

> <b_lp_Chiralities_Consistent>
1

> <s_lp_Variant>
AV-unprocessed.smi:3202-6

> <Gold.Version>
5.8.1

> <Gold.Id.Protein>
6NUR|6NUR_protein|mol2

> <Gold.PLP.Fitness>
42.0243

> <Gold.PLP.PLP>
-33.2090

> <Gold.PLP.part.hbond>
-2.0000

> <Gold.PLP.part.metal>
0.0000

> <Gold.PLP.part.buried>
-0.4831

> <Gold.PLP.part.nonpolar>
-31.2938

> <Gold.PLP.part.repulsive>
0.2513

> <Gold.PLP.ligand.clash>
0.0000

> <Gold.PLP.ligand.torsion>
0.0973

> <Gold.PLP.Chemscore.Hbond>
3.0000

> <Gold.PLP.Chemscore.CHOScore>
0.0000

> <Gold.PLP.Chemscore.Metal>
0.0000

> <Gold.Chemscore.Hbonds>
donor molecule, donor type, donor heavy atom, donor atom, acceptor molecule, acceptor atom, score
      L1  H     8    29       P1 10175  1.95
      L1  H    16    18       P1  7948  1.00

> <Gold.PLP.Chemscore.Internal.Correction>
0.0098

> <Gold.Rescore>
     Score         DG    S(hbond)    S(metal)    S(lipo)     H(rot)  DE(clash)    DE(int)     intcor
     18.05     -18.23       1.98        0.00      84.23       1.46       0.06       0.11       ----

> <Gold.Chemscore.Fitness>
18.0543

> <Gold.Chemscore.DG>
-18.2275

> <Gold.Chemscore.ZeroCoef>
-5.4800

> <Gold.Chemscore.Hbond>
1.9847

> <Gold.Chemscore.Metal>
0.0000

> <Gold.Chemscore.Lipo>
84.2306

> <Gold.Chemscore.Internal_Hbond>
0.0000

> <Gold.Chemscore.DEClash>
0.0619

> <Gold.Chemscore.DEInternal>
0.1113

> <Gold.Chemscore.Rot>
1.4596

> <Gold.Chemscore.Internal.Correction>
   9.000000E+99

> <Gold.Chemscore.Hbonds>
donor molecule, donor type, donor heavy atom, donor atom, acceptor molecule, acceptor atom, score
      L1  H     8    29       P1 10175  0.91
      L1  H    16    18       P1  7948  0.97

> <Gold.Chemscore.Hbond.Weighted>
-6.6290

> <Gold.Chemscore.Metal.Weighted>
-0.0000

> <Gold.Chemscore.Lipo.Weighted>
-9.8550

> <Gold.Chemscore.Internal_Hbond.Weighted>
0.0000

> <Gold.Chemscore.DEClash.Weighted>
0.0619

> <Gold.Chemscore.DEInternal.Weighted>
0.1113

> <Gold.Chemscore.Rot.Weighted>
3.7365

> <Gold.Chemscore.Internal.Correction.Weighted>
   9.000000E+99

> <Gold.Protein.RotatedTorsions>
[ 6907 6896 6895 6894 ] final  134.78 input  -60.11 | X-H torsion
[ 7974 7965 7964 7962 ] final  -72.49 input  175.53 | X-H torsion
[ 8008 7997 7996 7995 ] final  -49.25 input   59.86 | X-H torsion
[ 10167 10162 10161 10158 ] final  -78.89 input  -65.29 | X-H torsion
[ 10718 10713 10712 10709 ] final   30.40 input   66.30 | X-H torsion
[ 10763 10752 10751 10750 ] final  126.71 input  -60.55 | X-H torsion
[ 11005 11000 10999 10996 ] final   81.27 input  -57.11 | X-H torsion

> <Gold.Protein.ActiveResidues>
 VAL166  LYS551  ARG553  GLY616  TRP617  ASP618  TYR619  PRO620  LYS621  CYS622 
 ASP623  PHE694  ASN695  SER759  ASP760  ASP761  ALA762  ILE779  LEU786  VAL792 
 PHE793  MET794  SER795  GLU796  ALA797  LYS798  CYS799  TRP800  GLU811  SER814 

> <Gold.Protein.RotatedAtoms>
  152.3076  133.5719  159.5658 H   0  0  0  0  0  0  0  0  0  0  0  0  # atno 6907 bound_to 6896
  150.7307  134.0200  159.3707 H   0  0  0  0  0  0  0  0  0  0  0  0  # atno 6908 bound_to 6896
  151.8096  135.0685  160.0462 H   0  0  0  0  0  0  0  0  0  0  0  0  # atno 6909 bound_to 6896
  145.6645  140.9242  143.0916 H   0  0  0  0  0  0  0  0  0  0  0  0  # atno 7974 bound_to 7965
  154.4041  140.1301  156.4472 H   0  0  0  0  0  0  0  0  0  0  0  0  # atno 8008 bound_to 7997
  155.7401  140.3490  155.5080 H   0  0  0  0  0  0  0  0  0  0  0  0  # atno 8009 bound_to 7997
  155.9047  140.1025  157.1314 H   0  0  0  0  0  0  0  0  0  0  0  0  # atno 8010 bound_to 7997
  140.4642  143.2445  151.8303 H   0  0  0  0  0  0  0  0  0  0  0  0  # atno 10167 bound_to 10162
  157.2591  130.7152  149.6444 H   0  0  0  0  0  0  0  0  0  0  0  0  # atno 10718 bound_to 10713
  153.6978  135.3288  155.3217 H   0  0  0  0  0  0  0  0  0  0  0  0  # atno 10763 bound_to 10752
  154.8422  135.4447  154.1442 H   0  0  0  0  0  0  0  0  0  0  0  0  # atno 10764 bound_to 10752
  153.2501  135.6980  153.7766 H   0  0  0  0  0  0  0  0  0  0  0  0  # atno 10765 bound_to 10752
  139.9104  134.7984  156.2019 H   0  0  0  0  0  0  0  0  0  0  0  0  # atno 11005 bound_to 11000
  144.7078  139.8492  143.7424 LP  0  0  0  0  0  0  0  0  0  0  0  0  # atno 17320 bound_to 7965
  146.1097  139.4101  143.0295 LP  0  0  0  0  0  0  0  0  0  0  0  0  # atno 17321 bound_to 7965
  139.4810  144.4971  151.9109 LP  0  0  0  0  0  0  0  0  0  0  0  0  # atno 17342 bound_to 10162
  140.4057  144.2435  150.5891 LP  0  0  0  0  0  0  0  0  0  0  0  0  # atno 17343 bound_to 10162
  155.9664  130.4403  150.5295 LP  0  0  0  0  0  0  0  0  0  0  0  0  # atno 17370 bound_to 10713
  157.3195  131.0679  151.1942 LP  0  0  0  0  0  0  0  0  0  0  0  0  # atno 17371 bound_to 10713
  141.0519  133.6884  156.1789 LP  0  0  0  0  0  0  0  0  0  0  0  0  # atno 17394 bound_to 11000
  140.6796  134.4781  157.5589 LP  0  0  0  0  0  0  0  0  0  0  0  0  # atno 17395 bound_to 11000

$$$$
