AV-unprocessed.smi:763|AV-procd|sdf|3638|dock3
  -GOLD-   22720 1 33D 1   1.00000     0.00000
 Structure written by MMmdl.
 43 44  0  0  0  0  0  0  0  0  2 V2000
  153.3684  143.7988  163.7505 C   0  0  0  0  0  0  0  0  0  0  0  0
  153.6118  142.5300  163.1696 O   0  0  0  0  0  0  0  0  0  0  0  0
  152.8531  142.3167  161.9907 C   0  0  0  0  0  0  0  0  0  0  0  0
  153.6224  141.3611  161.0652 C   0  0  0  0  0  0  0  0  0  0  0  0
  152.8776  141.0667  159.8830 O   0  0  0  0  0  0  0  0  0  0  0  0
  152.4409  142.0922  159.0609 C   0  0  0  0  0  0  0  0  0  0  0  0
  152.7294  143.3686  159.4222 N   0  0  0  0  0  0  0  0  0  0  0  0
  152.3169  144.3738  158.6267 C   0  0  0  0  0  0  0  0  0  0  0  0
  151.6029  144.1628  157.4362 C   0  0  0  0  0  0  0  0  0  0  0  0
  151.3077  142.8392  157.0639 C   0  0  0  0  0  0  0  0  0  0  0  0
  151.7261  141.7602  157.8814 C   0  0  0  0  0  0  0  0  0  0  0  0
  151.4740  140.4745  157.5812 N   0  5  0  0  0  0  0  0  0  0  0  0
  151.7696  139.7410  156.1688 S   0  0  0  0  0  0  0  0  0  0  0  0
  151.3555  140.5759  155.0309 O   0  0  0  0  0  0  0  0  0  0  0  0
  153.1295  139.1811  156.1208 O   0  0  0  0  0  0  0  0  0  0  0  0
  150.5987  138.2966  156.2644 C   0  0  2  0  0  0  0  0  0  0  0  0
  150.7539  137.6025  157.6366 C   0  0  0  0  0  0  0  0  0  0  0  0
  149.8428  136.3749  157.7701 C   0  0  0  0  0  0  0  0  0  0  0  0
  150.1251  135.3674  156.6488 C   0  0  0  0  0  0  0  0  0  0  0  0
  149.9486  136.0249  155.2740 C   0  0  0  0  0  0  0  0  0  0  0  0
  150.8313  137.2795  155.1165 C   0  0  1  0  0  0  0  0  0  0  0  0
  150.5188  137.8379  153.8564 O   0  0  0  0  0  0  0  0  0  0  0  0
  153.9780  143.9140  164.6466 H   0  0  0  0  0  0  0  0  0  0  0  0
  152.3220  143.9057  164.0392 H   0  0  0  0  0  0  0  0  0  0  0  0
  153.6262  144.6047  163.0620 H   0  0  0  0  0  0  0  0  0  0  0  0
  151.8632  141.9271  162.2309 H   0  0  0  0  0  0  0  0  0  0  0  0
  152.7104  143.2717  161.4829 H   0  0  0  0  0  0  0  0  0  0  0  0
  154.6085  141.7599  160.8231 H   0  0  0  0  0  0  0  0  0  0  0  0
  153.8119  140.4245  161.5898 H   0  0  0  0  0  0  0  0  0  0  0  0
  152.5643  145.3745  158.9485 H   0  0  0  0  0  0  0  0  0  0  0  0
  151.2885  144.9936  156.8225 H   0  0  0  0  0  0  0  0  0  0  0  0
  150.7589  142.6704  156.1493 H   0  0  0  0  0  0  0  0  0  0  0  0
  149.5887  138.6991  156.1799 H   0  0  0  0  0  0  0  0  0  0  0  0
  151.7889  137.2906  157.7809 H   0  0  0  0  0  0  0  0  0  0  0  0
  150.5319  138.3052  158.4400 H   0  0  0  0  0  0  0  0  0  0  0  0
  149.9939  135.9037  158.7415 H   0  0  0  0  0  0  0  0  0  0  0  0
  148.7978  136.6863  157.7341 H   0  0  0  0  0  0  0  0  0  0  0  0
  151.1413  134.9831  156.7455 H   0  0  0  0  0  0  0  0  0  0  0  0
  149.4577  134.5102  156.7406 H   0  0  0  0  0  0  0  0  0  0  0  0
  150.1821  135.3026  154.4906 H   0  0  0  0  0  0  0  0  0  0  0  0
  148.8992  136.2934  155.1418 H   0  0  0  0  0  0  0  0  0  0  0  0
  151.8807  136.9819  155.1063 H   0  0  0  0  0  0  0  0  0  0  0  0
  150.0144  137.2085  153.3648 H   0  0  0  0  0  0  0  0  0  0  0  0
  1  2  1  0  0  0  0
  1 23  1  0  0  0  0
  1 24  1  0  0  0  0
  1 25  1  0  0  0  0
  2  3  1  0  0  0  0
  3  4  1  0  0  0  0
  3 26  1  0  0  0  0
  3 27  1  0  0  0  0
  4  5  1  0  0  0  0
  4 28  1  0  0  0  0
  4 29  1  0  0  0  0
  5  6  1  0  0  0  0
  6 11  1  0  0  0  0
  6  7  2  0  0  0  0
  7  8  1  0  0  0  0
  8  9  2  0  0  0  0
  8 30  1  0  0  0  0
  9 10  1  0  0  0  0
  9 31  1  0  0  0  0
 10 11  2  0  0  0  0
 10 32  1  0  0  0  0
 11 12  1  0  0  0  0
 12 13  1  0  0  0  0
 13 14  2  0  0  0  0
 13 15  2  0  0  0  0
 13 16  1  0  0  0  0
 16 21  1  0  0  0  0
 16 17  1  0  0  0  0
 16 33  1  0  0  0  0
 17 18  1  0  0  0  0
 17 34  1  0  0  0  0
 17 35  1  0  0  0  0
 18 19  1  0  0  0  0
 18 36  1  0  0  0  0
 18 37  1  0  0  0  0
 19 20  1  0  0  0  0
 19 38  1  0  0  0  0
 19 39  1  0  0  0  0
 20 21  1  0  0  0  0
 20 40  1  0  0  0  0
 20 41  1  0  0  0  0
 21 22  1  0  0  0  0
 21 42  1  0  0  0  0
 22 43  1  0  0  0  0
M  CHG  1  12  -1
M  END
> <s_m_source_file>
AV-unprocessed.smi

> <i_m_source_file_index>
763

> <i_lp_mmshare_version>
43012

> <i_f3d_flags>
0

> <s_epik_input>
W0NIM11PW0NIMl1bQ0gyXU9jMW5bY0hdW2NIXVtjSF1jMVtOSF1TKD1PKSg9TylbQ0BASF0yW0NIMl1bQ0gyXVtDSDJdW0NIMl1bQ0BIXTJbT0hd

> <s_epik_cmdline>
J2VwaWtfcHl0aG9uJywgJy1waCcsICc3LjAnLCAnLXRuJywgJzgnLCAnLW1hJywgJzIwMCcsICctbWV0YWxfYmluZGluZycsICctaW1hZScsICc8aW5maWxlLm1hZT4nLCAnLW9tYWUnLCAnPG91dGZpbGUubWFlPic=

> <r_epik_Ionization_Penalty>
0.985866

> <r_epik_Ionization_Penalty_Charging>
0.984689

> <r_epik_Ionization_Penalty_Neutral>
0.00117669

> <r_epik_State_Penalty>
1.03185

> <r_epik_Charging_Adjusted_Penalty>
2.01654

> <i_epik_Tot_Q>
-1

> <i_epik_Tot_abs_Q>
1

> <r_epik_Metal_State_Penalty>
0.379327

> <b_epik_Metal_Only>
0

> <s_lp_Force_Field>
OPLS_2005

> <r_lp_Energy>
11.4471

> <b_lp_Chiralities_Consistent>
1

> <s_lp_Variant>
AV-unprocessed.smi:763-5

> <Gold.Version>
5.8.1

> <Gold.Id.Protein>
6NUR|6NUR_protein|mol2

> <Gold.PLP.Fitness>
48.3936

> <Gold.PLP.PLP>
-41.4001

> <Gold.PLP.part.hbond>
-3.9330

> <Gold.PLP.part.metal>
0.0000

> <Gold.PLP.part.buried>
-6.9911

> <Gold.PLP.part.nonpolar>
-30.1915

> <Gold.PLP.part.repulsive>
0.1089

> <Gold.PLP.ligand.clash>
0.0000

> <Gold.PLP.ligand.torsion>
1.5441

> <Gold.PLP.Chemscore.Hbond>
2.9280

> <Gold.PLP.Chemscore.CHOScore>
0.0000

> <Gold.PLP.Chemscore.Metal>
0.0000

> <Gold.Chemscore.Hbonds>
donor molecule, donor type, donor heavy atom, donor atom, acceptor molecule, acceptor atom, score
      L1  H    22    43       P1  7948  0.98
      P1  H  7989  7998       L1    14  0.90
      P1  H  7997  8008       L1    15  1.00

> <Gold.PLP.Chemscore.Internal.Correction>
1.2977

> <Gold.Rescore>
     Score         DG    S(hbond)    S(metal)    S(lipo)     H(rot)  DE(clash)    DE(int)     intcor
     15.81     -19.84       2.71        0.00      96.72       2.35       0.09       3.94       ----

> <Gold.Chemscore.Fitness>
15.8079

> <Gold.Chemscore.DG>
-19.8390

> <Gold.Chemscore.ZeroCoef>
-5.4800

> <Gold.Chemscore.Hbond>
2.7128

> <Gold.Chemscore.Metal>
0.0000

> <Gold.Chemscore.Lipo>
96.7214

> <Gold.Chemscore.Internal_Hbond>
0.0000

> <Gold.Chemscore.DEClash>
0.0911

> <Gold.Chemscore.DEInternal>
3.9399

> <Gold.Chemscore.Rot>
2.3509

> <Gold.Chemscore.Internal.Correction>
   9.000000E+99

> <Gold.Chemscore.Hbonds>
donor molecule, donor type, donor heavy atom, donor atom, acceptor molecule, acceptor atom, score
      L1  H    22    43       P1  7948  0.24
      P1  H  7989  7998       L1    14  0.86
      P1  H  7997  8008       L1    15  0.92

> <Gold.Chemscore.Hbond.Weighted>
-9.0608

> <Gold.Chemscore.Metal.Weighted>
-0.0000

> <Gold.Chemscore.Lipo.Weighted>
-11.3164

> <Gold.Chemscore.Internal_Hbond.Weighted>
0.0000

> <Gold.Chemscore.DEClash.Weighted>
0.0911

> <Gold.Chemscore.DEInternal.Weighted>
3.9399

> <Gold.Chemscore.Rot.Weighted>
6.0182

> <Gold.Chemscore.Internal.Correction.Weighted>
   9.000000E+99

> <Gold.Protein.RotatedTorsions>
[ 6907 6896 6895 6894 ] final  147.77 input  -60.11 | X-H torsion
[ 7974 7965 7964 7962 ] final   -7.81 input  175.53 | X-H torsion
[ 8008 7997 7996 7995 ] final  -24.89 input   59.86 | X-H torsion
[ 10167 10162 10161 10158 ] final  171.87 input  -65.29 | X-H torsion
[ 10718 10713 10712 10709 ] final -128.01 input   66.30 | X-H torsion
[ 10763 10752 10751 10750 ] final  167.30 input  -60.55 | X-H torsion
[ 11005 11000 10999 10996 ] final  174.02 input  -57.11 | X-H torsion

> <Gold.Protein.ActiveResidues>
 VAL166  LYS551  ARG553  GLY616  TRP617  ASP618  TYR619  PRO620  LYS621  CYS622 
 ASP623  PHE694  ASN695  SER759  ASP760  ASP761  ALA762  ILE779  LEU786  VAL792 
 PHE793  MET794  SER795  GLU796  ALA797  LYS798  CYS799  TRP800  GLU811  SER814 

> <Gold.Protein.RotatedAtoms>
  152.1504  133.4518  159.4810 H   0  0  0  0  0  0  0  0  0  0  0  0  # atno 6907 bound_to 6896
  150.6895  134.2196  159.4400 H   0  0  0  0  0  0  0  0  0  0  0  0  # atno 6908 bound_to 6896
  152.0092  134.9885  160.0618 H   0  0  0  0  0  0  0  0  0  0  0  0  # atno 6909 bound_to 6896
  146.2297  140.2375  142.8342 H   0  0  0  0  0  0  0  0  0  0  0  0  # atno 7974 bound_to 7965
  154.4504  140.1941  156.0535 H   0  0  0  0  0  0  0  0  0  0  0  0  # atno 8008 bound_to 7997
  156.0636  140.3293  155.7464 H   0  0  0  0  0  0  0  0  0  0  0  0  # atno 8009 bound_to 7997
  155.5373  140.0583  157.2868 H   0  0  0  0  0  0  0  0  0  0  0  0  # atno 8010 bound_to 7997
  139.5059  144.3437  151.9992 H   0  0  0  0  0  0  0  0  0  0  0  0  # atno 10167 bound_to 10162
  156.1910  130.6795  151.0424 H   0  0  0  0  0  0  0  0  0  0  0  0  # atno 10718 bound_to 10713
  154.3517  135.2753  155.2368 H   0  0  0  0  0  0  0  0  0  0  0  0  # atno 10763 bound_to 10752
  154.4594  135.5911  153.6249 H   0  0  0  0  0  0  0  0  0  0  0  0  # atno 10764 bound_to 10752
  152.9849  135.6061  154.3729 H   0  0  0  0  0  0  0  0  0  0  0  0  # atno 10765 bound_to 10752
  140.3468  134.7229  157.4240 H   0  0  0  0  0  0  0  0  0  0  0  0  # atno 11005 bound_to 11000
  144.9510  140.8178  143.5572 LP  0  0  0  0  0  0  0  0  0  0  0  0  # atno 17320 bound_to 7965
  145.2336  139.2104  143.5030 LP  0  0  0  0  0  0  0  0  0  0  0  0  # atno 17321 bound_to 7965
  140.2875  144.3791  150.6099 LP  0  0  0  0  0  0  0  0  0  0  0  0  # atno 17342 bound_to 10162
  140.5972  143.2167  151.7142 LP  0  0  0  0  0  0  0  0  0  0  0  0  # atno 17343 bound_to 10162
  157.6929  131.0804  150.7055 LP  0  0  0  0  0  0  0  0  0  0  0  0  # atno 17370 bound_to 10713
  156.7111  130.4652  149.5547 LP  0  0  0  0  0  0  0  0  0  0  0  0  # atno 17371 bound_to 10713
  140.0736  134.5828  155.8615 LP  0  0  0  0  0  0  0  0  0  0  0  0  # atno 17394 bound_to 11000
  141.2023  133.6624  156.6000 LP  0  0  0  0  0  0  0  0  0  0  0  0  # atno 17395 bound_to 11000

$$$$
