AV-unprocessed.smi:287|AV-procd|sdf|2192|dock7
  -GOLD-   2262021593D 1   1.00000     0.00000
 Structure written by MMmdl.
 55 58  0  0  0  0  0  0  0  0  1 V2000
  154.6721  132.4487  158.2745 C   0  0  0  0  0  0  0  0  0  0  0  0
  153.6934  131.8071  157.3518 C   0  0  0  0  0  0  0  0  0  0  0  0
  153.7128  130.6718  156.5955 C   0  0  0  0  0  0  0  0  0  0  0  0
  152.4573  130.5860  155.9226 C   0  0  0  0  0  0  0  0  0  0  0  0
  152.0264  129.4799  154.9686 C   0  0  2  0  0  0  0  0  0  0  0  0
  152.0761  128.1229  155.6895 C   0  0  0  0  0  0  0  0  0  0  0  0
  152.8899  129.3467  153.8562 O   0  0  0  0  0  0  0  0  0  0  0  0
  150.6159  129.7216  154.3838 C   0  0  0  0  0  0  0  0  0  0  0  0
  150.0725  128.5450  153.7129 N   0  0  0  0  0  0  0  0  0  0  0  0
  148.8832  128.6131  153.0801 C   0  0  0  0  0  0  0  0  0  0  0  0
  148.3077  127.5025  152.5501 N   0  0  0  0  0  0  0  0  0  0  0  0
  147.1262  127.5949  151.9328 C   0  0  0  0  0  0  0  0  0  0  0  0
  146.3682  128.6761  151.7404 N   0  0  0  0  0  0  0  0  0  0  0  0
  146.9436  129.7950  152.2700 C   0  0  0  0  0  0  0  0  0  0  0  0
  148.1916  129.8447  152.9504 C   0  0  0  0  0  0  0  0  0  0  0  0
  148.4574  131.1466  153.3543 N   0  0  0  0  0  0  0  0  0  0  0  0
  147.4218  131.8240  152.9368 C   0  0  0  0  0  0  0  0  0  0  0  0
  146.4609  131.0891  152.2786 N   0  0  0  0  0  0  0  0  0  0  0  0
  145.1724  131.5857  151.7023 C   0  0  1  0  0  0  0  0  0  0  0  0
  144.9777  132.9095  152.0774 O   0  0  0  0  0  0  0  0  0  0  0  0
  144.1729  133.5600  151.0998 C   0  0  1  0  0  0  0  0  0  0  0  0
  144.6906  134.9948  150.8892 C   0  0  0  0  0  0  0  0  0  0  0  0
  144.2962  135.5231  149.6397 O   0  0  0  0  0  0  0  0  0  0  0  0
  144.1509  132.6591  149.8458 C   0  0  2  0  0  0  0  0  0  0  0  0
  142.8540  132.1170  149.6805 O   0  0  0  0  0  0  0  0  0  0  0  0
  145.1396  131.5444  150.1681 C   0  0  1  0  0  0  0  0  0  0  0  0
  146.3986  131.7907  149.5691 O   0  0  0  0  0  0  0  0  0  0  0  0
  151.7696  131.7074  156.3205 C   0  0  0  0  0  0  0  0  0  0  0  0
  150.4205  132.2637  156.0040 C   0  0  0  0  0  0  0  0  0  0  0  0
  152.5098  132.4498  157.1903 O   0  0  0  0  0  0  0  0  0  0  0  0
  144.3975  130.9653  152.1550 H   0  0  0  0  0  0  0  0  0  0  0  0
  143.1711  133.6289  151.5273 H   0  0  0  0  0  0  0  0  0  0  0  0
  144.4098  133.1913  148.9294 H   0  0  0  0  0  0  0  0  0  0  0  0
  144.7987  130.5623  149.8370 H   0  0  0  0  0  0  0  0  0  0  0  0
  155.5494  131.8164  158.4121 H   0  0  0  0  0  0  0  0  0  0  0  0
  154.2246  132.6227  159.2531 H   0  0  0  0  0  0  0  0  0  0  0  0
  155.0051  133.4078  157.8779 H   0  0  0  0  0  0  0  0  0  0  0  0
  154.5346  129.9736  156.5359 H   0  0  0  0  0  0  0  0  0  0  0  0
  151.4081  128.1087  156.5514 H   0  0  0  0  0  0  0  0  0  0  0  0
  153.0817  127.9031  156.0509 H   0  0  0  0  0  0  0  0  0  0  0  0
  151.7764  127.3077  155.0300 H   0  0  0  0  0  0  0  0  0  0  0  0
  152.6124  128.5990  153.3494 H   0  0  0  0  0  0  0  0  0  0  0  0
  149.9274  130.0721  155.1543 H   0  0  0  0  0  0  0  0  0  0  0  0
  150.6810  130.5163  153.6389 H   0  0  0  0  0  0  0  0  0  0  0  0
  150.6651  127.7270  153.7023 H   0  0  0  0  0  0  0  0  0  0  0  0
  146.7305  126.6710  151.5375 H   0  0  0  0  0  0  0  0  0  0  0  0
  147.3276  132.8872  153.1029 H   0  0  0  0  0  0  0  0  0  0  0  0
  144.2914  135.6464  151.6667 H   0  0  0  0  0  0  0  0  0  0  0  0
  145.7772  135.0272  150.9722 H   0  0  0  0  0  0  0  0  0  0  0  0
  144.8734  135.1838  148.9729 H   0  0  0  0  0  0  0  0  0  0  0  0
  142.2320  132.8276  149.6525 H   0  0  0  0  0  0  0  0  0  0  0  0
  147.0572  131.3127  150.0495 H   0  0  0  0  0  0  0  0  0  0  0  0
  150.2796  132.3461  154.9262 H   0  0  0  0  0  0  0  0  0  0  0  0
  150.2916  133.2570  156.4348 H   0  0  0  0  0  0  0  0  0  0  0  0
  149.6351  131.6208  156.4013 H   0  0  0  0  0  0  0  0  0  0  0  0
  1  2  1  0  0  0  0
  1 35  1  0  0  0  0
  1 36  1  0  0  0  0
  1 37  1  0  0  0  0
  2 30  1  0  0  0  0
  2  3  2  0  0  0  0
  3  4  1  0  0  0  0
  3 38  1  0  0  0  0
  4  5  1  0  0  0  0
  4 28  2  0  0  0  0
  5  6  1  0  0  0  0
  5  7  1  0  0  0  0
  5  8  1  0  0  0  0
  6 39  1  0  0  0  0
  6 40  1  0  0  0  0
  6 41  1  0  0  0  0
  7 42  1  0  0  0  0
  8  9  1  0  0  0  0
  8 43  1  0  0  0  0
  8 44  1  0  0  0  0
  9 10  1  0  0  0  0
  9 45  1  0  0  0  0
 10 15  1  0  0  0  0
 10 11  2  0  0  0  0
 11 12  1  0  0  0  0
 12 13  2  0  0  0  0
 12 46  1  0  0  0  0
 13 14  1  0  0  0  0
 14 18  1  0  0  0  0
 14 15  2  0  0  0  0
 15 16  1  0  0  0  0
 16 17  2  0  0  0  0
 17 18  1  0  0  0  0
 17 47  1  0  0  0  0
 18 19  1  0  0  0  0
 19 31  1  0  0  0  0
 19 26  1  0  0  0  0
 19 20  1  0  0  0  0
 20 21  1  0  0  0  0
 21 32  1  0  0  0  0
 21 22  1  0  0  0  0
 21 24  1  0  0  0  0
 22 23  1  0  0  0  0
 22 48  1  0  0  0  0
 22 49  1  0  0  0  0
 23 50  1  0  0  0  0
 24 33  1  0  0  0  0
 24 25  1  0  0  0  0
 24 26  1  0  0  0  0
 25 51  1  0  0  0  0
 26 34  1  0  0  0  0
 26 27  1  0  0  0  0
 27 52  1  0  0  0  0
 28 29  1  0  0  0  0
 28 30  1  0  0  0  0
 29 53  1  0  0  0  0
 29 54  1  0  0  0  0
 29 55  1  0  0  0  0
M  END
> <s_m_source_file>
AV-unprocessed.smi

> <i_m_source_file_index>
287

> <i_lp_mmshare_version>
43012

> <i_f3d_flags>
0

> <s_epik_input>
W0NIM11jMVtjSF1jKGMobzEpW0NIM10pW0NAQF0oW0NIM10pKFtPSF0pW0NIMl1bTkhdYyhuW2NIXW4yKWMoYzIzKW5bY0hdbjNbQ0BASF00T1tDQEhdKFtDSDJdW09IXSlbQ0BASF0oW09IXSlbQ0BIXTRbT0hd

> <s_epik_cmdline>
J2VwaWtfcHl0aG9uJywgJy1waCcsICc3LjAnLCAnLXRuJywgJzgnLCAnLW1hJywgJzIwMCcsICctbWV0YWxfYmluZGluZycsICctaW1hZScsICc8aW5maWxlLm1hZT4nLCAnLW9tYWUnLCAnPG91dGZpbGUubWFlPic=

> <r_lp_tautomer_probability>
1

> <r_epik_Ionization_Penalty>
0.000992612

> <r_epik_Ionization_Penalty_Charging>
0

> <r_epik_Ionization_Penalty_Neutral>
0.000992612

> <r_epik_State_Penalty>
-0

> <r_epik_Charging_Adjusted_Penalty>
0

> <i_epik_Tot_Q>
0

> <i_epik_Tot_abs_Q>
0

> <r_epik_Metal_State_Penalty>
-0

> <b_epik_Metal_Only>
0

> <s_epik_Chemistry_Notes>
This compound contains an acetal/aminal-like group ( X-CH(R)-Y where X, Y are N, S, or O) that may be acid/base labile, releasing an aldehyde.

> <s_lp_Force_Field>
OPLS_2005

> <r_lp_Energy>
44.6889

> <b_lp_Chiralities_Consistent>
1

> <s_lp_Variant>
AV-unprocessed.smi:287-16

> <Gold.Version>
5.8.1

> <Gold.Id.Protein>
6NUR|6NUR_protein|mol2

> <Gold.PLP.Fitness>
62.2387

> <Gold.PLP.PLP>
-47.2795

> <Gold.PLP.part.hbond>
-8.3546

> <Gold.PLP.part.metal>
0.0000

> <Gold.PLP.part.buried>
-5.2072

> <Gold.PLP.part.nonpolar>
-35.0581

> <Gold.PLP.part.repulsive>
0.4376

> <Gold.PLP.ligand.clash>
0.0000

> <Gold.PLP.ligand.torsion>
0.5112

> <Gold.PLP.Chemscore.Hbond>
5.2920

> <Gold.PLP.Chemscore.CHOScore>
0.0000

> <Gold.PLP.Chemscore.Metal>
0.0000

> <Gold.Chemscore.Hbonds>
donor molecule, donor type, donor heavy atom, donor atom, acceptor molecule, acceptor atom, score
      L1  H     7    42       P1 10737  0.80
      L1  H     9    45       P1 10737  0.01
      L1  H    23    50       P1  7921  1.00
      L1  H    25    51       P1 10186  1.00
      L1  H    27    52       P1 10747  0.94
      P1  H  6896  6907       L1    30  0.13
      P1  H 10785 10796       L1    25  0.54

> <Gold.PLP.Chemscore.Internal.Correction>
0.1057

> <Gold.Rescore>
     Score         DG    S(hbond)    S(metal)    S(lipo)     H(rot)  DE(clash)    DE(int)     intcor
     10.71     -13.80       3.86        0.00      76.09       5.27       0.30       2.79       ----

> <Gold.Chemscore.Fitness>
10.7053

> <Gold.Chemscore.DG>
-13.7957

> <Gold.Chemscore.ZeroCoef>
-5.4800

> <Gold.Chemscore.Hbond>
3.8614

> <Gold.Chemscore.Metal>
0.0000

> <Gold.Chemscore.Lipo>
76.0906

> <Gold.Chemscore.Internal_Hbond>
0.0000

> <Gold.Chemscore.DEClash>
0.3033

> <Gold.Chemscore.DEInternal>
2.7871

> <Gold.Chemscore.Rot>
5.2672

> <Gold.Chemscore.Internal.Correction>
   9.000000E+99

> <Gold.Chemscore.Hbonds>
donor molecule, donor type, donor heavy atom, donor atom, acceptor molecule, acceptor atom, score
      L1  H     7    42       P1 10737  0.11
      L1  H     9    45       P1 10737  0.02
      L1  H    23    50       P1  7921  1.00
      L1  H    25    51       P1 10186  0.96
      L1  H    27    52       P1 10747  0.89
      P1  H  6896  6907       L1    30  0.12
      P1  H 10785 10796       L1    25  0.27

> <Gold.Chemscore.Hbond.Weighted>
-12.8970

> <Gold.Chemscore.Metal.Weighted>
-0.0000

> <Gold.Chemscore.Lipo.Weighted>
-8.9026

> <Gold.Chemscore.Internal_Hbond.Weighted>
0.0000

> <Gold.Chemscore.DEClash.Weighted>
0.3033

> <Gold.Chemscore.DEInternal.Weighted>
2.7871

> <Gold.Chemscore.Rot.Weighted>
13.4839

> <Gold.Chemscore.Internal.Correction.Weighted>
   9.000000E+99

> <Gold.Protein.RotatedTorsions>
[ 6907 6896 6895 6894 ] final  177.09 input  -60.11 | X-H torsion
[ 7974 7965 7964 7962 ] final  -99.93 input  175.53 | X-H torsion
[ 8008 7997 7996 7995 ] final -107.17 input   59.86 | X-H torsion
[ 10167 10162 10161 10158 ] final  117.34 input  -65.29 | X-H torsion
[ 10718 10713 10712 10709 ] final -177.95 input   66.30 | X-H torsion
[ 10763 10752 10751 10750 ] final -163.37 input  -60.55 | X-H torsion
[ 11005 11000 10999 10996 ] final -136.23 input  -57.11 | X-H torsion

> <Gold.Protein.ActiveResidues>
 VAL166  LYS551  ARG553  GLY616  TRP617  ASP618  TYR619  PRO620  LYS621  CYS622 
 ASP623  PHE694  ASN695  SER759  ASP760  ASP761  ALA762  ILE779  LEU786  VAL792 
 PHE793  MET794  SER795  GLU796  ALA797  LYS798  CYS799  TRP800  GLU811  SER814 

> <Gold.Protein.RotatedAtoms>
  151.7096  133.3312  159.3286 H   0  0  0  0  0  0  0  0  0  0  0  0  # atno 6907 bound_to 6896
  150.7700  134.6544  159.6315 H   0  0  0  0  0  0  0  0  0  0  0  0  # atno 6908 bound_to 6896
  152.3720  134.6723  160.0225 H   0  0  0  0  0  0  0  0  0  0  0  0  # atno 6909 bound_to 6896
  145.3012  140.9377  143.2822 H   0  0  0  0  0  0  0  0  0  0  0  0  # atno 7974 bound_to 7965
  154.9253  140.0406  157.2019 H   0  0  0  0  0  0  0  0  0  0  0  0  # atno 8008 bound_to 7997
  154.8213  140.2884  155.5763 H   0  0  0  0  0  0  0  0  0  0  0  0  # atno 8009 bound_to 7997
  156.2980  140.2518  156.3121 H   0  0  0  0  0  0  0  0  0  0  0  0  # atno 8010 bound_to 7997
  139.6185  144.7096  151.2686 H   0  0  0  0  0  0  0  0  0  0  0  0  # atno 10167 bound_to 10162
  156.8370  130.9673  151.3102 H   0  0  0  0  0  0  0  0  0  0  0  0  # atno 10718 bound_to 10713
  154.7129  135.3010  154.9169 H   0  0  0  0  0  0  0  0  0  0  0  0  # atno 10763 bound_to 10752
  154.0066  135.6700  153.4766 H   0  0  0  0  0  0  0  0  0  0  0  0  # atno 10764 bound_to 10752
  153.0769  135.5030  154.8337 H   0  0  0  0  0  0  0  0  0  0  0  0  # atno 10765 bound_to 10752
  140.8824  134.1915  157.4582 H   0  0  0  0  0  0  0  0  0  0  0  0  # atno 11005 bound_to 11000
  144.9092  139.4550  143.6595 LP  0  0  0  0  0  0  0  0  0  0  0  0  # atno 17320 bound_to 7965
  146.3151  139.7890  142.8989 LP  0  0  0  0  0  0  0  0  0  0  0  0  # atno 17321 bound_to 7965
  140.7367  143.6700  150.8090 LP  0  0  0  0  0  0  0  0  0  0  0  0  # atno 17342 bound_to 10162
  140.0307  143.5446  152.2761 LP  0  0  0  0  0  0  0  0  0  0  0  0  # atno 17343 bound_to 10162
  157.6376  130.8779  149.9388 LP  0  0  0  0  0  0  0  0  0  0  0  0  # atno 17370 bound_to 10713
  156.0902  130.3664  150.0410 LP  0  0  0  0  0  0  0  0  0  0  0  0  # atno 17371 bound_to 10713
  139.8721  134.9823  156.5151 LP  0  0  0  0  0  0  0  0  0  0  0  0  # atno 17394 bound_to 11000
  140.8445  133.8179  155.9107 LP  0  0  0  0  0  0  0  0  0  0  0  0  # atno 17395 bound_to 11000

$$$$
