AV-unprocessed.smi:38|AV-procd|sdf|346|dock6
  -GOLD-   2262016183D 1   1.00000     0.00000
 Structure written by MMmdl.
 27 28  0  0  0  0  0  0  0  0  2 V2000
  153.0248  135.4176  158.5430 O   0  0  0  0  0  0  0  0  0  0  0  0
  152.7636  136.4783  157.9771 C   0  0  0  0  0  0  0  0  0  0  0  0
  152.8718  136.6415  156.6269 N   0  5  0  0  0  0  0  0  0  0  0  0
  152.5839  137.8205  156.0011 C   0  0  0  0  0  0  0  0  0  0  0  0
  152.6769  137.9752  154.7831 O   0  0  0  0  0  0  0  0  0  0  0  0
  152.1577  138.9299  156.7824 N   0  0  0  0  0  0  0  0  0  0  0  0
  151.8395  140.2359  156.0802 C   0  0  2  0  0  0  0  0  0  0  0  0
  151.2104  141.2427  157.0612 C   0  0  0  0  0  0  0  0  0  0  0  0
  149.9424  141.6819  156.3506 C   0  0  1  0  0  0  0  0  0  0  0  0
  150.1718  142.8580  155.5969 O   0  0  0  0  0  0  0  0  0  0  0  0
  149.6253  140.4750  155.4601 C   0  0  1  0  0  0  0  0  0  0  0  0
  148.7225  140.7263  154.2397 C   0  0  0  0  0  0  0  0  0  0  0  0
  149.4465  141.3751  153.2153 O   0  0  0  0  0  0  0  0  0  0  0  0
  150.9100  140.0141  155.0579 O   0  0  0  0  0  0  0  0  0  0  0  0
  152.0318  138.7896  158.1556 C   0  0  0  0  0  0  0  0  0  0  0  0
  152.3162  137.6225  158.7690 C   0  0  0  0  0  0  0  0  0  0  0  0
  152.1845  137.5183  160.1028 F   0  0  0  0  0  0  0  0  0  0  0  0
  152.7801  140.5715  155.6402 H   0  0  0  0  0  0  0  0  0  0  0  0
  149.1354  141.8824  157.0559 H   0  0  0  0  0  0  0  0  0  0  0  0
  149.1772  139.6961  156.0795 H   0  0  0  0  0  0  0  0  0  0  0  0
  150.9578  140.7391  157.9956 H   0  0  0  0  0  0  0  0  0  0  0  0
  151.8996  142.0583  157.2838 H   0  0  0  0  0  0  0  0  0  0  0  0
  149.7018  143.5697  156.0040 H   0  0  0  0  0  0  0  0  0  0  0  0
  148.2969  139.7983  153.8579 H   0  0  0  0  0  0  0  0  0  0  0  0
  147.8853  141.3641  154.5246 H   0  0  0  0  0  0  0  0  0  0  0  0
  149.5354  140.7792  152.4872 H   0  0  0  0  0  0  0  0  0  0  0  0
  151.6998  139.6165  158.7640 H   0  0  0  0  0  0  0  0  0  0  0  0
  1  2  2  0  0  0  0
  2 16  1  0  0  0  0
  2  3  1  0  0  0  0
  3  4  1  0  0  0  0
  4  5  2  0  0  0  0
  4  6  1  0  0  0  0
  6  7  1  0  0  0  0
  6 15  1  0  0  0  0
  7 18  1  0  0  0  0
  7 14  1  0  0  0  0
  7  8  1  0  0  0  0
  8  9  1  0  0  0  0
  8 21  1  0  0  0  0
  8 22  1  0  0  0  0
  9 19  1  0  0  0  0
  9 10  1  0  0  0  0
  9 11  1  0  0  0  0
 10 23  1  0  0  0  0
 11 20  1  0  0  0  0
 11 12  1  0  0  0  0
 11 14  1  0  0  0  0
 12 13  1  0  0  0  0
 12 24  1  0  0  0  0
 12 25  1  0  0  0  0
 13 26  1  0  0  0  0
 15 16  2  0  0  0  0
 15 27  1  0  0  0  0
 16 17  1  0  0  0  0
M  CHG  1   3  -1
M  END
> <s_m_source_file>
AV-unprocessed.smi

> <i_m_source_file_index>
38

> <i_lp_mmshare_version>
43012

> <i_f3d_flags>
0

> <s_epik_input>
Tz1jMVtuSF1jKD1PKW4oW2NIXWMxRilbQ0BIXTJbQ0gyXVtDQEhdKFtPSF0pW0NASF0oTzIpW0NIMl1bT0hd

> <s_epik_cmdline>
J2VwaWtfcHl0aG9uJywgJy1waCcsICc3LjAnLCAnLXRuJywgJzgnLCAnLW1hJywgJzIwMCcsICctbWV0YWxfYmluZGluZycsICctaW1hZScsICc8aW5maWxlLm1hZT4nLCAnLW9tYWUnLCAnPG91dGZpbGUubWFlPic=

> <r_epik_Ionization_Penalty>
1.68146

> <r_epik_Ionization_Penalty_Charging>
3.4211e-08

> <r_epik_Ionization_Penalty_Neutral>
1.68146

> <r_epik_State_Penalty>
1.78593

> <r_epik_Charging_Adjusted_Penalty>
1.78593

> <i_epik_Tot_Q>
-1

> <i_epik_Tot_abs_Q>
1

> <r_epik_Metal_State_Penalty>
0.0113696

> <b_epik_Metal_Only>
0

> <s_epik_Chemistry_Notes>
This compound contains an acetal/aminal-like group ( X-CH(R)-Y where X, Y are N, S, or O) that may be acid/base labile, releasing an aldehyde.

> <s_lp_Force_Field>
OPLS_2005

> <r_lp_Energy>
41.2481

> <b_lp_Chiralities_Consistent>
1

> <s_lp_Variant>
AV-unprocessed.smi:38-12

> <Gold.Version>
5.8.1

> <Gold.Id.Protein>
6NUR|6NUR_protein|mol2

> <Gold.PLP.Fitness>
43.7277

> <Gold.PLP.PLP>
-25.8034

> <Gold.PLP.part.hbond>
-6.9202

> <Gold.PLP.part.metal>
0.0000

> <Gold.PLP.part.buried>
-3.8553

> <Gold.PLP.part.nonpolar>
-15.8857

> <Gold.PLP.part.repulsive>
0.0875

> <Gold.PLP.ligand.clash>
0.0000

> <Gold.PLP.ligand.torsion>
0.2273

> <Gold.PLP.Chemscore.Hbond>
6.1251

> <Gold.PLP.Chemscore.CHOScore>
0.0000

> <Gold.PLP.Chemscore.Metal>
0.0000

> <Gold.Chemscore.Hbonds>
donor molecule, donor type, donor heavy atom, donor atom, acceptor molecule, acceptor atom, score
      L1  H    10    23       P1  8028  0.65
      L1  H    13    26       P1  7957  0.96
      P1  H  6896  6908       L1     1  0.34
      P1  H  7989  7998       L1    14  1.00
      P1  H  8011  8017       L1    13  0.24
      P1  H 10752 10763       L1     3  1.92

> <Gold.PLP.Chemscore.Internal.Correction>
0.0037

> <Gold.Rescore>
     Score         DG    S(hbond)    S(metal)    S(lipo)     H(rot)  DE(clash)    DE(int)     intcor
     12.13     -13.81       3.51        0.00      33.95       2.88       0.25       1.43       ----

> <Gold.Chemscore.Fitness>
12.1310

> <Gold.Chemscore.DG>
-13.8144

> <Gold.Chemscore.ZeroCoef>
-5.4800

> <Gold.Chemscore.Hbond>
3.5147

> <Gold.Chemscore.Metal>
0.0000

> <Gold.Chemscore.Lipo>
33.9471

> <Gold.Chemscore.Internal_Hbond>
0.0000

> <Gold.Chemscore.DEClash>
0.2549

> <Gold.Chemscore.DEInternal>
1.4285

> <Gold.Chemscore.Rot>
2.8815

> <Gold.Chemscore.Internal.Correction>
   9.000000E+99

> <Gold.Chemscore.Hbonds>
donor molecule, donor type, donor heavy atom, donor atom, acceptor molecule, acceptor atom, score
      L1  H    10    23       P1  8028  0.64
      L1  H    13    26       P1  7957  0.90
      P1  H  6896  6908       L1     1  0.34
      P1  H  7989  7998       L1    14  0.50
      P1  H 10752 10763       L1     3  0.64

> <Gold.Chemscore.Hbond.Weighted>
-11.7391

> <Gold.Chemscore.Metal.Weighted>
-0.0000

> <Gold.Chemscore.Lipo.Weighted>
-3.9718

> <Gold.Chemscore.Internal_Hbond.Weighted>
0.0000

> <Gold.Chemscore.DEClash.Weighted>
0.2549

> <Gold.Chemscore.DEInternal.Weighted>
1.4285

> <Gold.Chemscore.Rot.Weighted>
7.3765

> <Gold.Chemscore.Internal.Correction.Weighted>
   9.000000E+99

> <Gold.Protein.RotatedTorsions>
[ 6907 6896 6895 6894 ] final  -42.98 input  -60.11 | X-H torsion
[ 7974 7965 7964 7962 ] final   84.02 input  175.53 | X-H torsion
[ 8008 7997 7996 7995 ] final  -75.64 input   59.86 | X-H torsion
[ 10167 10162 10161 10158 ] final -148.61 input  -65.29 | X-H torsion
[ 10718 10713 10712 10709 ] final  -30.67 input   66.30 | X-H torsion
[ 10763 10752 10751 10750 ] final  121.09 input  -60.55 | X-H torsion
[ 11005 11000 10999 10996 ] final   99.01 input  -57.11 | X-H torsion

> <Gold.Protein.ActiveResidues>
 VAL166  LYS551  ARG553  GLY616  TRP617  ASP618  TYR619  PRO620  LYS621  CYS622 
 ASP623  PHE694  ASN695  SER759  ASP760  ASP761  ALA762  ILE779  LEU786  VAL792 
 PHE793  MET794  SER795  GLU796  ALA797  LYS798  CYS799  TRP800  GLU811  SER814 

> <Gold.Protein.RotatedAtoms>
  150.9491  134.8893  159.7660 H   0  0  0  0  0  0  0  0  0  0  0  0  # atno 6907 bound_to 6896
  152.5112  134.3832  159.9368 H   0  0  0  0  0  0  0  0  0  0  0  0  # atno 6908 bound_to 6896
  151.3849  133.3768  159.2749 H   0  0  0  0  0  0  0  0  0  0  0  0  # atno 6909 bound_to 6896
  145.6043  139.2357  143.2228 H   0  0  0  0  0  0  0  0  0  0  0  0  # atno 7974 bound_to 7965
  154.5434  140.0740  156.8548 H   0  0  0  0  0  0  0  0  0  0  0  0  # atno 8008 bound_to 7997
  155.3135  140.3391  155.4225 H   0  0  0  0  0  0  0  0  0  0  0  0  # atno 8009 bound_to 7997
  156.1896  140.1681  156.8105 H   0  0  0  0  0  0  0  0  0  0  0  0  # atno 8010 bound_to 7997
  139.7516  143.8510  152.2587 H   0  0  0  0  0  0  0  0  0  0  0  0  # atno 10167 bound_to 10162
  156.3969  130.4383  149.7352 H   0  0  0  0  0  0  0  0  0  0  0  0  # atno 10718 bound_to 10713
  153.6087  135.3434  155.2971 H   0  0  0  0  0  0  0  0  0  0  0  0  # atno 10763 bound_to 10752
  154.8622  135.4245  154.2333 H   0  0  0  0  0  0  0  0  0  0  0  0  # atno 10764 bound_to 10752
  153.3179  135.7036  153.7129 H   0  0  0  0  0  0  0  0  0  0  0  0  # atno 10765 bound_to 10752
  139.8771  134.9076  156.4542 H   0  0  0  0  0  0  0  0  0  0  0  0  # atno 11005 bound_to 11000
  146.1553  140.6867  142.9303 LP  0  0  0  0  0  0  0  0  0  0  0  0  # atno 17320 bound_to 7965
  144.7297  140.4633  143.6947 LP  0  0  0  0  0  0  0  0  0  0  0  0  # atno 17321 bound_to 7965
  139.8490  144.7173  150.9237 LP  0  0  0  0  0  0  0  0  0  0  0  0  # atno 17342 bound_to 10162
  140.7798  143.3916  151.1300 LP  0  0  0  0  0  0  0  0  0  0  0  0  # atno 17343 bound_to 10162
  156.4384  130.7849  151.2870 LP  0  0  0  0  0  0  0  0  0  0  0  0  # atno 17370 bound_to 10713
  157.7502  131.0132  150.3417 LP  0  0  0  0  0  0  0  0  0  0  0  0  # atno 17371 bound_to 10713
  140.8910  133.7848  155.9572 LP  0  0  0  0  0  0  0  0  0  0  0  0  # atno 17394 bound_to 11000
  140.8753  134.2677  157.5171 LP  0  0  0  0  0  0  0  0  0  0  0  0  # atno 17395 bound_to 11000

$$$$
