AV-unprocessed.smi:2011|AV-procd|sdf|8153|dock1
  -GOLD-   2272010393D 1   1.00000     0.00000
 Structure written by MMmdl.
 26 27  0  0  0  0  0  0  0  0  1 V2000
  151.0988  140.8721  156.2801 O   0  0  0  0  0  0  0  0  0  0  0  0
  150.4564  141.9049  156.0880 C   0  0  0  0  0  0  0  0  0  0  0  0
  150.7875  143.0905  156.6196 N   0  0  0  0  0  0  0  0  0  0  0  0
  151.9294  143.3252  157.4957 C   0  0  0  0  0  0  0  0  0  0  0  0
  151.4835  143.5870  158.9320 C   0  0  0  0  0  0  0  0  0  0  0  0
  151.2472  145.0282  159.4097 C   0  0  0  0  0  0  0  0  0  0  0  0
  151.7784  144.6097  160.7833 C   0  0  0  0  0  0  0  0  0  0  0  0
  152.4975  143.4563  160.0780 C   0  0  0  0  0  0  0  0  0  0  0  0
  149.3460  142.0020  155.3357 N   0  0  0  0  0  0  0  0  0  0  0  0
  148.6906  140.9814  154.5970 C   0  0  0  0  0  0  0  0  0  0  0  0
  147.5346  141.1630  153.9391 N   0  0  0  0  0  0  0  0  0  0  0  0
  147.1114  140.0034  153.3022 N   0  0  0  0  0  0  0  0  0  0  0  0
  147.9629  138.9941  153.5055 C   0  0  0  0  0  0  0  0  0  0  0  0
  149.3657  139.3616  154.4943 S   0  0  0  0  0  0  0  0  0  0  0  0
  150.2051  143.8879  156.4095 H   0  0  0  0  0  0  0  0  0  0  0  0
  152.6161  142.4782  157.4533 H   0  0  0  0  0  0  0  0  0  0  0  0
  152.4808  144.1815  157.1066 H   0  0  0  0  0  0  0  0  0  0  0  0
  150.6055  142.9871  159.1816 H   0  0  0  0  0  0  0  0  0  0  0  0
  151.8938  145.7523  158.9109 H   0  0  0  0  0  0  0  0  0  0  0  0
  150.2044  145.3464  159.3991 H   0  0  0  0  0  0  0  0  0  0  0  0
  152.4362  145.3360  161.2613 H   0  0  0  0  0  0  0  0  0  0  0  0
  150.9899  144.2688  161.4563 H   0  0  0  0  0  0  0  0  0  0  0  0
  152.4655  142.5046  160.6094 H   0  0  0  0  0  0  0  0  0  0  0  0
  153.5142  143.7153  159.7780 H   0  0  0  0  0  0  0  0  0  0  0  0
  148.9203  142.9153  155.2815 H   0  0  0  0  0  0  0  0  0  0  0  0
  147.7630  138.0260  153.0704 H   0  0  0  0  0  0  0  0  0  0  0  0
  1  2  2  0  0  0  0
  2  3  1  0  0  0  0
  2  9  1  0  0  0  0
  3  4  1  0  0  0  0
  3 15  1  0  0  0  0
  4  5  1  0  0  0  0
  4 16  1  0  0  0  0
  4 17  1  0  0  0  0
  5  8  1  0  0  0  0
  5  6  1  0  0  0  0
  5 18  1  0  0  0  0
  6  7  1  0  0  0  0
  6 19  1  0  0  0  0
  6 20  1  0  0  0  0
  7  8  1  0  0  0  0
  7 21  1  0  0  0  0
  7 22  1  0  0  0  0
  8 23  1  0  0  0  0
  8 24  1  0  0  0  0
  9 10  1  0  0  0  0
  9 25  1  0  0  0  0
 10 14  1  0  0  0  0
 10 11  2  0  0  0  0
 11 12  1  0  0  0  0
 12 13  2  0  0  0  0
 13 14  1  0  0  0  0
 13 26  1  0  0  0  0
M  END
> <s_m_source_file>
AV-unprocessed.smi

> <i_m_source_file_index>
2011

> <i_lp_mmshare_version>
43012

> <i_f3d_flags>
0

> <s_epik_input>
czFbY0hdbm5jMVtOSF1DKD1PKVtOSF1bQ0gyXVtDSF0yW0NIMl1bQ0gyXVtDSDJdMg==

> <s_epik_cmdline>
J2VwaWtfcHl0aG9uJywgJy1waCcsICc3LjAnLCAnLXRuJywgJzgnLCAnLW1hJywgJzIwMCcsICctbWV0YWxfYmluZGluZycsICctaW1hZScsICc8aW5maWxlLm1hZT4nLCAnLW9tYWUnLCAnPG91dGZpbGUubWFlPic=

> <r_lp_tautomer_probability>
1

> <r_epik_Ionization_Penalty>
0.000339164

> <r_epik_Ionization_Penalty_Charging>
0

> <r_epik_Ionization_Penalty_Neutral>
0.000339164

> <r_epik_State_Penalty>
-0

> <r_epik_Charging_Adjusted_Penalty>
0

> <i_epik_Tot_Q>
0

> <i_epik_Tot_abs_Q>
0

> <r_epik_Metal_State_Penalty>
0.176475

> <b_epik_Metal_Only>
0

> <s_lp_Force_Field>
OPLS_2005

> <r_lp_Energy>
11.4486

> <b_lp_Chiralities_Consistent>
1

> <s_lp_Variant>
AV-unprocessed.smi:2011-1

> <Gold.Version>
5.8.1

> <Gold.Id.Protein>
6NUR|6NUR_protein|mol2

> <Gold.PLP.Fitness>
37.2776

> <Gold.PLP.PLP>
-28.9194

> <Gold.PLP.part.hbond>
-2.0000

> <Gold.PLP.part.metal>
0.0000

> <Gold.PLP.part.buried>
-4.8008

> <Gold.PLP.part.nonpolar>
-23.2211

> <Gold.PLP.part.repulsive>
0.6184

> <Gold.PLP.ligand.clash>
0.0000

> <Gold.PLP.ligand.torsion>
0.3498

> <Gold.PLP.Chemscore.Hbond>
2.0000

> <Gold.PLP.Chemscore.CHOScore>
1.0000

> <Gold.PLP.Chemscore.Metal>
0.0000

> <Gold.Chemscore.Hbonds>
donor molecule, donor type, donor heavy atom, donor atom, acceptor molecule, acceptor atom, score
      L1  H     3    15       P1  8028  1.00
      L1  H     9    25       P1  8028  1.00
      L1  C    13    26       P1  7948  1.00

> <Gold.PLP.Chemscore.Internal.Correction>
0.0578

> <Gold.Rescore>
     Score         DG    S(hbond)    S(metal)    S(lipo)     H(rot)  DE(clash)    DE(int)     intcor
     14.88     -16.85       1.95        0.00      70.84       1.34       0.55       1.43       ----

> <Gold.Chemscore.Fitness>
14.8758

> <Gold.Chemscore.DG>
-16.8538

> <Gold.Chemscore.ZeroCoef>
-5.4800

> <Gold.Chemscore.Hbond>
1.9489

> <Gold.Chemscore.Metal>
0.0000

> <Gold.Chemscore.Lipo>
70.8418

> <Gold.Chemscore.Internal_Hbond>
0.0000

> <Gold.Chemscore.DEClash>
0.5464

> <Gold.Chemscore.DEInternal>
1.4316

> <Gold.Chemscore.Rot>
1.3375

> <Gold.Chemscore.Internal.Correction>
   9.000000E+99

> <Gold.Chemscore.Hbonds>
donor molecule, donor type, donor heavy atom, donor atom, acceptor molecule, acceptor atom, score
      L1  H     3    15       P1  8028  0.99
      L1  H     9    25       P1  8028  0.97

> <Gold.Chemscore.Hbond.Weighted>
-6.5093

> <Gold.Chemscore.Metal.Weighted>
-0.0000

> <Gold.Chemscore.Lipo.Weighted>
-8.2885

> <Gold.Chemscore.Internal_Hbond.Weighted>
0.0000

> <Gold.Chemscore.DEClash.Weighted>
0.5464

> <Gold.Chemscore.DEInternal.Weighted>
1.4316

> <Gold.Chemscore.Rot.Weighted>
3.4240

> <Gold.Chemscore.Internal.Correction.Weighted>
   9.000000E+99

> <Gold.Protein.RotatedTorsions>
[ 6907 6896 6895 6894 ] final -147.37 input  -60.11 | X-H torsion
[ 7974 7965 7964 7962 ] final -109.59 input  175.53 | X-H torsion
[ 8008 7997 7996 7995 ] final  -26.82 input   59.86 | X-H torsion
[ 10167 10162 10161 10158 ] final    9.30 input  -65.29 | X-H torsion
[ 10718 10713 10712 10709 ] final   54.01 input   66.30 | X-H torsion
[ 10763 10752 10751 10750 ] final   18.69 input  -60.55 | X-H torsion
[ 11005 11000 10999 10996 ] final -114.45 input  -57.11 | X-H torsion

> <Gold.Protein.ActiveResidues>
 VAL166  LYS551  ARG553  GLY616  TRP617  ASP618  TYR619  PRO620  LYS621  CYS622 
 ASP623  PHE694  ASN695  SER759  ASP760  ASP761  ALA762  ILE779  LEU786  VAL792 
 PHE793  MET794  SER795  GLU796  ALA797  LYS798  CYS799  TRP800  GLU811  SER814 

> <Gold.Protein.RotatedAtoms>
  151.1547  133.4884  159.2594 H   0  0  0  0  0  0  0  0  0  0  0  0  # atno 6907 bound_to 6896
  151.1517  135.0230  159.8681 H   0  0  0  0  0  0  0  0  0  0  0  0  # atno 6908 bound_to 6896
  152.5463  134.1430  159.8540 H   0  0  0  0  0  0  0  0  0  0  0  0  # atno 6909 bound_to 6896
  145.1786  140.8960  143.3493 H   0  0  0  0  0  0  0  0  0  0  0  0  # atno 7974 bound_to 7965
  154.4406  140.1889  156.0836 H   0  0  0  0  0  0  0  0  0  0  0  0  # atno 8008 bound_to 7997
  156.0420  140.3318  155.7228 H   0  0  0  0  0  0  0  0  0  0  0  0  # atno 8009 bound_to 7997
  155.5686  140.0610  157.2803 H   0  0  0  0  0  0  0  0  0  0  0  0  # atno 8010 bound_to 7997
  140.6263  143.8093  150.7238 H   0  0  0  0  0  0  0  0  0  0  0  0  # atno 10167 bound_to 10162
  157.5218  130.8570  149.8569 H   0  0  0  0  0  0  0  0  0  0  0  0  # atno 10718 bound_to 10713
  153.1227  135.6723  153.9309 H   0  0  0  0  0  0  0  0  0  0  0  0  # atno 10763 bound_to 10752
  153.8819  135.3057  155.3447 H   0  0  0  0  0  0  0  0  0  0  0  0  # atno 10764 bound_to 10752
  154.7636  135.4975  153.9591 H   0  0  0  0  0  0  0  0  0  0  0  0  # atno 10765 bound_to 10752
  141.0551  133.9625  157.2768 H   0  0  0  0  0  0  0  0  0  0  0  0  # atno 11005 bound_to 11000
  145.0159  139.3468  143.6097 LP  0  0  0  0  0  0  0  0  0  0  0  0  # atno 17320 bound_to 7965
  146.3457  139.9440  142.8737 LP  0  0  0  0  0  0  0  0  0  0  0  0  # atno 17321 bound_to 7965
  140.1694  143.4207  152.2011 LP  0  0  0  0  0  0  0  0  0  0  0  0  # atno 17342 bound_to 10162
  139.5483  144.7317  151.4514 LP  0  0  0  0  0  0  0  0  0  0  0  0  # atno 17343 bound_to 10162
  156.0359  130.3751  150.1562 LP  0  0  0  0  0  0  0  0  0  0  0  0  # atno 17370 bound_to 10713
  156.9750  130.9846  151.3450 LP  0  0  0  0  0  0  0  0  0  0  0  0  # atno 17371 bound_to 10713
  139.9383  135.0194  156.8628 LP  0  0  0  0  0  0  0  0  0  0  0  0  # atno 17394 bound_to 11000
  140.5979  134.0199  155.7525 LP  0  0  0  0  0  0  0  0  0  0  0  0  # atno 17395 bound_to 11000

$$$$
