AV-unprocessed.smi:940|AV-procd|sdf|4219|dock9
  -GOLD-   22720 2133D 1   1.00000     0.00000
 Structure written by MMmdl.
 36 36  0  0  0  0  0  0  0  0  1 V2000
  149.2547  133.8493  154.9856 C   0  0  0  0  0  0  0  0  0  0  0  0
  148.9681  135.2033  155.6478 C   0  0  0  0  0  0  0  0  0  0  0  0
  149.3878  136.3133  154.8008 N   0  0  0  0  0  0  0  0  0  0  0  0
  150.2155  137.3013  155.1769 C   0  0  0  0  0  0  0  0  0  0  0  0
  150.7236  137.3717  156.2955 O   0  0  0  0  0  0  0  0  0  0  0  0
  150.5223  138.3729  154.1292 C   0  0  0  0  0  0  0  0  0  0  0  0
  150.0530  139.6782  154.5584 N   0  0  0  0  0  0  0  0  0  0  0  0
  149.0417  140.4457  154.0161 C   0  0  0  0  0  0  0  0  0  0  0  0
  148.9519  141.5903  154.7556 C   0  0  0  0  0  0  0  0  0  0  0  0
  149.9667  141.4207  155.7450 C   0  0  0  0  0  0  0  0  0  0  0  0
  150.2974  142.3436  156.7705 N   0  0  0  0  0  0  0  0  0  0  0  0
  151.0341  142.1380  157.8772 C   0  0  0  0  0  0  0  0  0  0  0  0
  151.5744  141.0727  158.1733 O   0  0  0  0  0  0  0  0  0  0  0  0
  151.1938  143.3421  158.8042 C   0  0  0  0  0  0  0  0  0  0  0  0
  152.0924  142.9967  159.8459 O   0  0  0  0  0  0  0  0  0  0  0  0
  152.0055  143.8707  160.9581 C   0  0  0  0  0  0  0  0  0  0  0  0
  152.8133  143.2795  162.1157 C   0  0  0  0  0  0  0  0  0  0  0  0
  150.6274  140.2824  155.6220 N   0  0  0  0  0  0  0  0  0  0  0  0
  148.9128  133.0297  155.6178 H   0  0  0  0  0  0  0  0  0  0  0  0
  150.3221  133.7098  154.8124 H   0  0  0  0  0  0  0  0  0  0  0  0
  148.7443  133.7639  154.0259 H   0  0  0  0  0  0  0  0  0  0  0  0
  147.8984  135.3023  155.8334 H   0  0  0  0  0  0  0  0  0  0  0  0
  149.4582  135.2620  156.6211 H   0  0  0  0  0  0  0  0  0  0  0  0
  149.0192  136.3342  153.8611 H   0  0  0  0  0  0  0  0  0  0  0  0
  151.5965  138.4191  153.9426 H   0  0  0  0  0  0  0  0  0  0  0  0
  150.0436  138.1177  153.1830 H   0  0  0  0  0  0  0  0  0  0  0  0
  148.4753  140.1164  153.1576 H   0  0  0  0  0  0  0  0  0  0  0  0
  148.2648  142.4079  154.5980 H   0  0  0  0  0  0  0  0  0  0  0  0
  149.9385  143.2784  156.6415 H   0  0  0  0  0  0  0  0  0  0  0  0
  151.5815  144.1837  158.2281 H   0  0  0  0  0  0  0  0  0  0  0  0
  150.2290  143.6372  159.2209 H   0  0  0  0  0  0  0  0  0  0  0  0
  152.3976  144.8541  160.6948 H   0  0  0  0  0  0  0  0  0  0  0  0
  150.9642  143.9983  161.2573 H   0  0  0  0  0  0  0  0  0  0  0  0
  152.7705  143.9270  162.9915 H   0  0  0  0  0  0  0  0  0  0  0  0
  153.8612  143.1584  161.8394 H   0  0  0  0  0  0  0  0  0  0  0  0
  152.4272  142.3013  162.4030 H   0  0  0  0  0  0  0  0  0  0  0  0
  1  2  1  0  0  0  0
  1 19  1  0  0  0  0
  1 20  1  0  0  0  0
  1 21  1  0  0  0  0
  2  3  1  0  0  0  0
  2 22  1  0  0  0  0
  2 23  1  0  0  0  0
  3  4  1  0  0  0  0
  3 24  1  0  0  0  0
  4  5  2  0  0  0  0
  4  6  1  0  0  0  0
  6  7  1  0  0  0  0
  6 25  1  0  0  0  0
  6 26  1  0  0  0  0
  7 18  1  0  0  0  0
  7  8  1  0  0  0  0
  8  9  2  0  0  0  0
  8 27  1  0  0  0  0
  9 10  1  0  0  0  0
  9 28  1  0  0  0  0
 10 11  1  0  0  0  0
 10 18  2  0  0  0  0
 11 12  1  0  0  0  0
 11 29  1  0  0  0  0
 12 13  2  0  0  0  0
 12 14  1  0  0  0  0
 14 15  1  0  0  0  0
 14 30  1  0  0  0  0
 14 31  1  0  0  0  0
 15 16  1  0  0  0  0
 16 17  1  0  0  0  0
 16 32  1  0  0  0  0
 16 33  1  0  0  0  0
 17 34  1  0  0  0  0
 17 35  1  0  0  0  0
 17 36  1  0  0  0  0
M  END
> <s_m_source_file>
AV-unprocessed.smi

> <i_m_source_file_index>
940

> <i_lp_mmshare_version>
43012

> <i_f3d_flags>
0

> <s_epik_input>
W0NIM11bQ0gyXVtOSF1DKD1PKVtDSDJdbjFbY0hdW2NIXWMobjEpW05IXUMoPU8pW0NIMl1PW0NIMl1bQ0gzXQ==

> <s_epik_cmdline>
J2VwaWtfcHl0aG9uJywgJy1waCcsICc3LjAnLCAnLXRuJywgJzgnLCAnLW1hJywgJzIwMCcsICctbWV0YWxfYmluZGluZycsICctaW1hZScsICc8aW5maWxlLm1hZT4nLCAnLW9tYWUnLCAnPG91dGZpbGUubWFlPic=

> <r_lp_tautomer_probability>
1

> <r_epik_Ionization_Penalty>
3.22351e-06

> <r_epik_Ionization_Penalty_Charging>
0

> <r_epik_Ionization_Penalty_Neutral>
3.22351e-06

> <r_epik_State_Penalty>
-0

> <r_epik_Charging_Adjusted_Penalty>
0

> <i_epik_Tot_Q>
0

> <i_epik_Tot_abs_Q>
0

> <r_epik_Metal_State_Penalty>
-0

> <b_epik_Metal_Only>
0

> <s_lp_Force_Field>
OPLS_2005

> <r_lp_Energy>
6.8138

> <b_lp_Chiralities_Consistent>
1

> <s_lp_Variant>
AV-unprocessed.smi:940-1

> <Gold.Version>
5.8.1

> <Gold.Id.Protein>
6NUR|6NUR_protein|mol2

> <Gold.PLP.Fitness>
42.0393

> <Gold.PLP.PLP>
-34.1158

> <Gold.PLP.part.hbond>
-2.3758

> <Gold.PLP.part.metal>
0.0000

> <Gold.PLP.part.buried>
-2.4649

> <Gold.PLP.part.nonpolar>
-28.6949

> <Gold.PLP.part.repulsive>
0.1172

> <Gold.PLP.ligand.clash>
0.0000

> <Gold.PLP.ligand.torsion>
0.2515

> <Gold.PLP.Chemscore.Hbond>
1.9913

> <Gold.PLP.Chemscore.CHOScore>
0.8000

> <Gold.PLP.Chemscore.Metal>
0.0000

> <Gold.Chemscore.Hbonds>
donor molecule, donor type, donor heavy atom, donor atom, acceptor molecule, acceptor atom, score
      L1  H     3    24       P1  7948  1.00
      L1  H    11    29       P1  8028  0.99
      L1  C     8    27       P1  7957  0.73

> <Gold.PLP.Chemscore.Internal.Correction>
0.0526

> <Gold.Rescore>
     Score         DG    S(hbond)    S(metal)    S(lipo)     H(rot)  DE(clash)    DE(int)     intcor
     11.21     -13.80       1.95        0.00      66.58       2.34       0.86       1.74       ----

> <Gold.Chemscore.Fitness>
11.2073

> <Gold.Chemscore.DG>
-13.8016

> <Gold.Chemscore.ZeroCoef>
-5.4800

> <Gold.Chemscore.Hbond>
1.9505

> <Gold.Chemscore.Metal>
0.0000

> <Gold.Chemscore.Lipo>
66.5832

> <Gold.Chemscore.Internal_Hbond>
0.0000

> <Gold.Chemscore.DEClash>
0.8554

> <Gold.Chemscore.DEInternal>
1.7389

> <Gold.Chemscore.Rot>
2.3372

> <Gold.Chemscore.Internal.Correction>
   9.000000E+99

> <Gold.Chemscore.Hbonds>
donor molecule, donor type, donor heavy atom, donor atom, acceptor molecule, acceptor atom, score
      L1  H     3    24       P1  7948  0.96
      L1  H    11    29       P1  8028  0.91

> <Gold.Chemscore.Hbond.Weighted>
-6.5147

> <Gold.Chemscore.Metal.Weighted>
-0.0000

> <Gold.Chemscore.Lipo.Weighted>
-7.7902

> <Gold.Chemscore.Internal_Hbond.Weighted>
0.0000

> <Gold.Chemscore.DEClash.Weighted>
0.8554

> <Gold.Chemscore.DEInternal.Weighted>
1.7389

> <Gold.Chemscore.Rot.Weighted>
5.9833

> <Gold.Chemscore.Internal.Correction.Weighted>
   9.000000E+99

> <Gold.Protein.RotatedTorsions>
[ 6907 6896 6895 6894 ] final -177.82 input  -60.11 | X-H torsion
[ 7974 7965 7964 7962 ] final  163.89 input  175.53 | X-H torsion
[ 8008 7997 7996 7995 ] final -119.18 input   59.86 | X-H torsion
[ 10167 10162 10161 10158 ] final  -16.81 input  -65.29 | X-H torsion
[ 10718 10713 10712 10709 ] final   58.75 input   66.30 | X-H torsion
[ 10763 10752 10751 10750 ] final   73.87 input  -60.55 | X-H torsion
[ 11005 11000 10999 10996 ] final    3.58 input  -57.11 | X-H torsion

> <Gold.Protein.ActiveResidues>
 VAL166  LYS551  ARG553  GLY616  TRP617  ASP618  TYR619  PRO620  LYS621  CYS622 
 ASP623  PHE694  ASN695  SER759  ASP760  ASP761  ALA762  ILE779  LEU786  VAL792 
 PHE793  MET794  SER795  GLU796  ALA797  LYS798  CYS799  TRP800  GLU811  SER814 

> <Gold.Protein.RotatedAtoms>
  151.6273  133.3334  159.3100 H   0  0  0  0  0  0  0  0  0  0  0  0  # atno 6907 bound_to 6896
  150.8075  134.7213  159.6669 H   0  0  0  0  0  0  0  0  0  0  0  0  # atno 6908 bound_to 6896
  152.4171  134.6027  160.0056 H   0  0  0  0  0  0  0  0  0  0  0  0  # atno 6909 bound_to 6896
  144.7569  139.8247  143.6346 H   0  0  0  0  0  0  0  0  0  0  0  0  # atno 7974 bound_to 7965
  155.1116  140.0397  157.2725 H   0  0  0  0  0  0  0  0  0  0  0  0  # atno 8008 bound_to 7997
  154.6681  140.2606  155.7011 H   0  0  0  0  0  0  0  0  0  0  0  0  # atno 8009 bound_to 7997
  156.2647  140.2803  156.1180 H   0  0  0  0  0  0  0  0  0  0  0  0  # atno 8010 bound_to 7997
  140.7239  143.5079  150.9787 H   0  0  0  0  0  0  0  0  0  0  0  0  # atno 10167 bound_to 10162
  157.5621  130.8843  149.9128 H   0  0  0  0  0  0  0  0  0  0  0  0  # atno 10718 bound_to 10713
  153.0549  135.5047  154.7957 H   0  0  0  0  0  0  0  0  0  0  0  0  # atno 10763 bound_to 10752
  154.6791  135.2965  154.9640 H   0  0  0  0  0  0  0  0  0  0  0  0  # atno 10764 bound_to 10752
  154.0433  135.6714  153.4845 H   0  0  0  0  0  0  0  0  0  0  0  0  # atno 10765 bound_to 10752
  140.5915  133.9920  155.8091 H   0  0  0  0  0  0  0  0  0  0  0  0  # atno 11005 bound_to 11000
  146.1590  139.4698  143.0000 LP  0  0  0  0  0  0  0  0  0  0  0  0  # atno 17320 bound_to 7965
  145.6748  141.0207  143.1638 LP  0  0  0  0  0  0  0  0  0  0  0  0  # atno 17321 bound_to 7965
  139.8791  143.7094  152.3159 LP  0  0  0  0  0  0  0  0  0  0  0  0  # atno 17342 bound_to 10162
  139.7370  144.7569  151.0711 LP  0  0  0  0  0  0  0  0  0  0  0  0  # atno 17343 bound_to 10162
  156.0673  130.3690  150.0852 LP  0  0  0  0  0  0  0  0  0  0  0  0  # atno 17370 bound_to 10713
  156.9014  130.9621  151.3575 LP  0  0  0  0  0  0  0  0  0  0  0  0  # atno 17371 bound_to 10713
  141.0932  133.9885  157.3203 LP  0  0  0  0  0  0  0  0  0  0  0  0  # atno 17394 bound_to 11000
  139.9272  135.0201  156.8276 LP  0  0  0  0  0  0  0  0  0  0  0  0  # atno 17395 bound_to 11000

$$$$
