AV-unprocessed.smi:2039|AV-procd|sdf|8283|dock2
  -GOLD-   2272010553D 1   1.00000     0.00000
 Structure written by MMmdl.
 33 34  0  0  0  0  0  0  0  0  1 V2000
  152.7020  132.5654  157.1978 C   0  0  0  0  0  0  0  0  0  0  0  0
  151.7585  133.2859  156.2962 C   0  0  0  0  0  0  0  0  0  0  0  0
  151.7097  134.6211  156.2137 N   0  0  0  0  0  0  0  0  0  0  0  0
  150.7534  135.0577  155.3076 N   0  0  0  0  0  0  0  0  0  0  0  0
  150.1071  134.0349  154.7312 C   0  0  0  0  0  0  0  0  0  0  0  0
  149.0773  134.1948  153.7665 N   0  0  0  0  0  0  0  0  0  0  0  0
  148.1572  133.2965  153.3729 C   0  0  0  0  0  0  0  0  0  0  0  0
  148.0505  132.1491  153.8071 O   0  0  0  0  0  0  0  0  0  0  0  0
  147.3497  133.8097  152.4331 N   0  0  0  0  0  0  0  0  0  0  0  0
  146.2466  133.1008  151.7907 C   0  0  2  0  0  0  0  0  0  0  0  0
  146.5612  132.9018  150.2970 C   0  0  0  0  0  0  0  0  0  0  0  0
  145.4057  132.1951  149.5668 C   0  0  0  0  0  0  0  0  0  0  0  0
  144.0630  132.9259  149.7556 C   0  0  2  0  0  0  0  0  0  0  0  0
  144.0749  134.1503  149.0485 O   0  0  0  0  0  0  0  0  0  0  0  0
  143.7592  133.1778  151.2447 C   0  0  0  0  0  0  0  0  0  0  0  0
  144.9243  133.8736  151.9705 C   0  0  0  0  0  0  0  0  0  0  0  0
  150.6204  132.4397  155.2548 S   0  0  0  0  0  0  0  0  0  0  0  0
  153.2786  133.2714  157.7964 H   0  0  0  0  0  0  0  0  0  0  0  0
  153.3921  131.9619  156.6082 H   0  0  0  0  0  0  0  0  0  0  0  0
  152.1479  131.9098  157.8696 H   0  0  0  0  0  0  0  0  0  0  0  0
  149.0377  135.1003  153.3224 H   0  0  0  0  0  0  0  0  0  0  0  0
  147.5091  134.7615  152.1369 H   0  0  0  0  0  0  0  0  0  0  0  0
  146.1447  132.1147  152.2484 H   0  0  0  0  0  0  0  0  0  0  0  0
  146.7522  133.8674  149.8264 H   0  0  0  0  0  0  0  0  0  0  0  0
  147.4753  132.3183  150.1822 H   0  0  0  0  0  0  0  0  0  0  0  0
  145.6367  132.0961  148.5055 H   0  0  0  0  0  0  0  0  0  0  0  0
  145.3141  131.1790  149.9530 H   0  0  0  0  0  0  0  0  0  0  0  0
  143.2644  132.3196  149.3265 H   0  0  0  0  0  0  0  0  0  0  0  0
  144.7610  134.1157  148.3995 H   0  0  0  0  0  0  0  0  0  0  0  0
  142.8464  133.7651  151.3515 H   0  0  0  0  0  0  0  0  0  0  0  0
  143.5624  132.2222  151.7326 H   0  0  0  0  0  0  0  0  0  0  0  0
  144.6847  133.9678  153.0304 H   0  0  0  0  0  0  0  0  0  0  0  0
  145.0358  134.8901  151.5902 H   0  0  0  0  0  0  0  0  0  0  0  0
  1  2  1  0  0  0  0
  1 18  1  0  0  0  0
  1 19  1  0  0  0  0
  1 20  1  0  0  0  0
  2 17  1  0  0  0  0
  2  3  2  0  0  0  0
  3  4  1  0  0  0  0
  4  5  2  0  0  0  0
  5  6  1  0  0  0  0
  5 17  1  0  0  0  0
  6  7  1  0  0  0  0
  6 21  1  0  0  0  0
  7  8  2  0  0  0  0
  7  9  1  0  0  0  0
  9 10  1  0  0  0  0
  9 22  1  0  0  0  0
 10 16  1  0  0  0  0
 10 11  1  0  0  0  0
 10 23  1  0  0  0  0
 11 12  1  0  0  0  0
 11 24  1  0  0  0  0
 11 25  1  0  0  0  0
 12 13  1  0  0  0  0
 12 26  1  0  0  0  0
 12 27  1  0  0  0  0
 13 14  1  0  0  0  0
 13 15  1  0  0  0  0
 13 28  1  0  0  0  0
 14 29  1  0  0  0  0
 15 16  1  0  0  0  0
 15 30  1  0  0  0  0
 15 31  1  0  0  0  0
 16 32  1  0  0  0  0
 16 33  1  0  0  0  0
M  END
> <s_m_source_file>
AV-unprocessed.smi

> <i_m_source_file_index>
2039

> <i_lp_mmshare_version>
43012

> <i_f3d_flags>
0

> <s_epik_input>
W0NIM11jMW5uYyhzMSlbTkhdQyg9TylbTkhdW0NAQEhdMltDSDJdW0NIMl1bQ0BASF0oW09IXSlbQ0gyXVtDSDJdMg==

> <s_epik_cmdline>
J2VwaWtfcHl0aG9uJywgJy1waCcsICc3LjAnLCAnLXRuJywgJzgnLCAnLW1hJywgJzIwMCcsICctbWV0YWxfYmluZGluZycsICctaW1hZScsICc8aW5maWxlLm1hZT4nLCAnLW9tYWUnLCAnPG91dGZpbGUubWFlPic=

> <r_lp_tautomer_probability>
1

> <r_epik_Ionization_Penalty>
0.000385244

> <r_epik_Ionization_Penalty_Charging>
0

> <r_epik_Ionization_Penalty_Neutral>
0.000385244

> <r_epik_State_Penalty>
-0

> <r_epik_Charging_Adjusted_Penalty>
0

> <i_epik_Tot_Q>
0

> <i_epik_Tot_abs_Q>
0

> <r_epik_Metal_State_Penalty>
0.189642

> <b_epik_Metal_Only>
0

> <s_lp_Force_Field>
OPLS_2005

> <r_lp_Energy>
9.23932

> <b_lp_Chiralities_Consistent>
1

> <s_lp_Variant>
AV-unprocessed.smi:2039-2

> <Gold.Version>
5.8.1

> <Gold.Id.Protein>
6NUR|6NUR_protein|mol2

> <Gold.PLP.Fitness>
39.0241

> <Gold.PLP.PLP>
-29.0494

> <Gold.PLP.part.hbond>
-4.9243

> <Gold.PLP.part.metal>
0.0000

> <Gold.PLP.part.buried>
-2.1565

> <Gold.PLP.part.nonpolar>
-19.9607

> <Gold.PLP.part.repulsive>
0.1963

> <Gold.PLP.ligand.clash>
0.0000

> <Gold.PLP.ligand.torsion>
0.0949

> <Gold.PLP.Chemscore.Hbond>
3.3872

> <Gold.PLP.Chemscore.CHOScore>
0.0000

> <Gold.PLP.Chemscore.Metal>
0.0000

> <Gold.Chemscore.Hbonds>
donor molecule, donor type, donor heavy atom, donor atom, acceptor molecule, acceptor atom, score
      L1  H     6    21       P1  7948  1.00
      L1  H     9    22       P1  7948  0.87
      L1  H    14    29       P1  7921  1.00
      P1  H 10752 10763       L1     3  0.58

> <Gold.PLP.Chemscore.Internal.Correction>
0.0030

> <Gold.Rescore>
     Score         DG    S(hbond)    S(metal)    S(lipo)     H(rot)  DE(clash)    DE(int)     intcor
     15.03     -16.24       2.25        0.00      60.56       1.50       0.03       1.18       ----

> <Gold.Chemscore.Fitness>
15.0295

> <Gold.Chemscore.DG>
-16.2368

> <Gold.Chemscore.ZeroCoef>
-5.4800

> <Gold.Chemscore.Hbond>
2.2491

> <Gold.Chemscore.Metal>
0.0000

> <Gold.Chemscore.Lipo>
60.5618

> <Gold.Chemscore.Internal_Hbond>
0.0000

> <Gold.Chemscore.DEClash>
0.0267

> <Gold.Chemscore.DEInternal>
1.1805

> <Gold.Chemscore.Rot>
1.5004

> <Gold.Chemscore.Internal.Correction>
   9.000000E+99

> <Gold.Chemscore.Hbonds>
donor molecule, donor type, donor heavy atom, donor atom, acceptor molecule, acceptor atom, score
      L1  H     6    21       P1  7948  0.29
      L1  H     9    22       P1  7948  0.66
      L1  H    14    29       P1  7921  0.95
      P1  H 10752 10763       L1     3  0.07

> <Gold.Chemscore.Hbond.Weighted>
-7.5119

> <Gold.Chemscore.Metal.Weighted>
-0.0000

> <Gold.Chemscore.Lipo.Weighted>
-7.0857

> <Gold.Chemscore.Internal_Hbond.Weighted>
0.0000

> <Gold.Chemscore.DEClash.Weighted>
0.0267

> <Gold.Chemscore.DEInternal.Weighted>
1.1805

> <Gold.Chemscore.Rot.Weighted>
3.8409

> <Gold.Chemscore.Internal.Correction.Weighted>
   9.000000E+99

> <Gold.Protein.RotatedTorsions>
[ 6907 6896 6895 6894 ] final  -72.14 input  -60.11 | X-H torsion
[ 7974 7965 7964 7962 ] final  -76.47 input  175.53 | X-H torsion
[ 8008 7997 7996 7995 ] final  124.51 input   59.86 | X-H torsion
[ 10167 10162 10161 10158 ] final  117.94 input  -65.29 | X-H torsion
[ 10718 10713 10712 10709 ] final  -14.06 input   66.30 | X-H torsion
[ 10763 10752 10751 10750 ] final  104.66 input  -60.55 | X-H torsion
[ 11005 11000 10999 10996 ] final    1.07 input  -57.11 | X-H torsion

> <Gold.Protein.ActiveResidues>
 VAL166  LYS551  ARG553  GLY616  TRP617  ASP618  TYR619  PRO620  LYS621  CYS622 
 ASP623  PHE694  ASN695  SER759  ASP760  ASP761  ALA762  ILE779  LEU786  VAL792 
 PHE793  MET794  SER795  GLU796  ALA797  LYS798  CYS799  TRP800  GLU811  SER814 

> <Gold.Protein.RotatedAtoms>
  150.7182  134.5207  159.5651 H   0  0  0  0  0  0  0  0  0  0  0  0  # atno 6907 bound_to 6896
  152.2763  134.7875  160.0414 H   0  0  0  0  0  0  0  0  0  0  0  0  # atno 6908 bound_to 6896
  151.8538  133.3409  159.3718 H   0  0  0  0  0  0  0  0  0  0  0  0  # atno 6909 bound_to 6896
  145.6125  140.9383  143.1182 H   0  0  0  0  0  0  0  0  0  0  0  0  # atno 7974 bound_to 7965
  156.2803  140.2738  156.1799 H   0  0  0  0  0  0  0  0  0  0  0  0  # atno 8008 bound_to 7997
  155.0567  140.0386  157.2580 H   0  0  0  0  0  0  0  0  0  0  0  0  # atno 8009 bound_to 7997
  154.7150  140.2676  155.6599 H   0  0  0  0  0  0  0  0  0  0  0  0  # atno 8010 bound_to 7997
  139.6145  144.7089  151.2770 H   0  0  0  0  0  0  0  0  0  0  0  0  # atno 10167 bound_to 10162
  156.6214  130.4876  149.6163 H   0  0  0  0  0  0  0  0  0  0  0  0  # atno 10718 bound_to 10713
  153.3689  135.3936  155.1773 H   0  0  0  0  0  0  0  0  0  0  0  0  # atno 10763 bound_to 10752
  154.8691  135.3697  154.5004 H   0  0  0  0  0  0  0  0  0  0  0  0  # atno 10764 bound_to 10752
  153.5470  135.7083  153.5670 H   0  0  0  0  0  0  0  0  0  0  0  0  # atno 10765 bound_to 10752
  140.6195  133.9674  155.8218 H   0  0  0  0  0  0  0  0  0  0  0  0  # atno 11005 bound_to 11000
  144.7264  139.7862  143.7363 LP  0  0  0  0  0  0  0  0  0  0  0  0  # atno 17320 bound_to 7965
  146.1493  139.4572  143.0059 LP  0  0  0  0  0  0  0  0  0  0  0  0  # atno 17321 bound_to 7965
  140.7341  143.6774  150.8030 LP  0  0  0  0  0  0  0  0  0  0  0  0  # atno 17342 bound_to 10162
  140.0375  143.5380  152.2733 LP  0  0  0  0  0  0  0  0  0  0  0  0  # atno 17343 bound_to 10162
  156.2309  130.6794  151.1462 LP  0  0  0  0  0  0  0  0  0  0  0  0  # atno 17370 bound_to 10713
  157.7226  131.0671  150.6069 LP  0  0  0  0  0  0  0  0  0  0  0  0  # atno 17371 bound_to 10713
  141.0752  134.0145  157.3468 LP  0  0  0  0  0  0  0  0  0  0  0  0  # atno 17394 bound_to 11000
  139.9159  135.0196  156.7878 LP  0  0  0  0  0  0  0  0  0  0  0  0  # atno 17395 bound_to 11000

$$$$
