AV-unprocessed.smi:34|AV-procd|sdf|230|dock4
  -GOLD-   2262015563D 1   1.00000     0.00000
 Structure written by MMmdl.
 55 59  0  0  0  0  0  0  0  0  1 V2000
  152.1322  140.7851  158.3756 O   0  0  0  0  0  0  0  0  0  0  0  0
  151.6053  141.7810  157.8785 C   0  0  0  0  0  0  0  0  0  0  0  0
  150.8894  141.7290  156.6162 N   0  0  0  0  0  0  0  0  0  0  0  0
  150.7626  140.6811  155.7692 C   0  0  0  0  0  0  0  0  0  0  0  0
  151.8316  139.9709  155.3208 N   0  0  0  0  0  0  0  0  0  0  0  0
  151.6553  138.9468  154.4804 C   0  0  0  0  0  0  0  0  0  0  0  0
  150.5167  138.4750  153.9670 N   0  0  0  0  0  0  0  0  0  0  0  0
  149.4407  139.1864  154.4111 C   0  0  0  0  0  0  0  0  0  0  0  0
  149.4793  140.2910  155.3056 C   0  0  0  0  0  0  0  0  0  0  0  0
  148.1902  140.7561  155.5318 N   0  0  0  0  0  0  0  0  0  0  0  0
  147.4374  139.9666  154.8128 C   0  0  0  0  0  0  0  0  0  0  0  0
  148.1133  139.0011  154.0944 N   0  0  0  0  0  0  0  0  0  0  0  0
  147.5790  137.9404  153.1823 C   0  0  1  0  0  0  0  0  0  0  0  0
  147.0335  136.9253  153.9725 O   0  0  0  0  0  0  0  0  0  0  0  0
  145.6292  137.1316  154.0794 C   0  0  2  0  0  0  0  0  0  0  0  0
  144.9230  135.8644  154.5730 C   0  0  0  0  0  0  0  0  0  0  0  0
  145.2809  134.7908  153.7186 O   0  0  0  0  0  0  0  0  0  0  0  0
  146.0324  133.7759  154.1841 C   0  0  0  0  0  0  0  0  0  0  0  0
  146.6443  133.8141  155.2535 O   0  0  0  0  0  0  0  0  0  0  0  0
  146.0475  132.6000  153.2667 C   0  0  0  0  0  0  0  0  0  0  0  0
  146.7389  131.4280  153.6529 C   0  0  0  0  0  0  0  0  0  0  0  0
  146.7702  130.3021  152.8074 C   0  0  0  0  0  0  0  0  0  0  0  0
  146.1088  130.3336  151.5659 C   0  0  0  0  0  0  0  0  0  0  0  0
  145.4165  131.4930  151.1703 C   0  0  0  0  0  0  0  0  0  0  0  0
  145.3853  132.6206  152.0139 C   0  0  0  0  0  0  0  0  0  0  0  0
  145.2821  137.5496  152.6534 C   0  0  2  0  0  0  0  0  0  0  0  0
  145.3307  136.4710  151.8657 F   0  0  0  0  0  0  0  0  0  0  0  0
  146.4214  138.5111  152.3390 C   0  0  2  0  0  0  0  0  0  0  0  0
  146.6972  138.5585  150.9537 O   0  0  0  0  0  0  0  0  0  0  0  0
  151.5873  143.1028  158.5891 C   0  0  0  0  0  0  0  0  0  0  0  0
  151.9204  143.1732  159.9604 C   0  0  0  0  0  0  0  0  0  0  0  0
  151.9199  144.4116  160.6313 C   0  0  0  0  0  0  0  0  0  0  0  0
  151.5945  145.5909  159.9350 C   0  0  0  0  0  0  0  0  0  0  0  0
  151.2739  145.5316  158.5657 C   0  0  0  0  0  0  0  0  0  0  0  0
  151.2734  144.2936  157.8937 C   0  0  0  0  0  0  0  0  0  0  0  0
  150.4417  142.5864  156.3274 H   0  0  0  0  0  0  0  0  0  0  0  0
  152.5550  138.4331  154.1752 H   0  0  0  0  0  0  0  0  0  0  0  0
  146.3626  140.0750  154.7899 H   0  0  0  0  0  0  0  0  0  0  0  0
  148.4420  137.5906  152.6144 H   0  0  0  0  0  0  0  0  0  0  0  0
  145.4250  137.9618  154.7584 H   0  0  0  0  0  0  0  0  0  0  0  0
  145.2420  135.6322  155.5899 H   0  0  0  0  0  0  0  0  0  0  0  0
  143.8411  136.0029  154.5865 H   0  0  0  0  0  0  0  0  0  0  0  0
  147.2532  131.3797  154.6021 H   0  0  0  0  0  0  0  0  0  0  0  0
  147.3022  129.4132  153.1127 H   0  0  0  0  0  0  0  0  0  0  0  0
  146.1323  129.4698  150.9178 H   0  0  0  0  0  0  0  0  0  0  0  0
  144.9083  131.5182  150.2177 H   0  0  0  0  0  0  0  0  0  0  0  0
  144.8435  133.4934  151.6797 H   0  0  0  0  0  0  0  0  0  0  0  0
  144.2930  137.9977  152.5549 H   0  0  0  0  0  0  0  0  0  0  0  0
  146.1635  139.5112  152.6917 H   0  0  0  0  0  0  0  0  0  0  0  0
  145.8768  138.5247  150.4850 H   0  0  0  0  0  0  0  0  0  0  0  0
  152.1732  142.2771  160.5088 H   0  0  0  0  0  0  0  0  0  0  0  0
  152.1704  144.4566  161.6810 H   0  0  0  0  0  0  0  0  0  0  0  0
  151.5949  146.5401  160.4498 H   0  0  0  0  0  0  0  0  0  0  0  0
  151.0306  146.4369  158.0292 H   0  0  0  0  0  0  0  0  0  0  0  0
  151.0343  144.2717  156.8404 H   0  0  0  0  0  0  0  0  0  0  0  0
  1  2  2  0  0  0  0
  2  3  1  0  0  0  0
  2 30  1  0  0  0  0
  3  4  1  0  0  0  0
  3 36  1  0  0  0  0
  4  9  1  0  0  0  0
  4  5  2  0  0  0  0
  5  6  1  0  0  0  0
  6  7  2  0  0  0  0
  6 37  1  0  0  0  0
  7  8  1  0  0  0  0
  8 12  1  0  0  0  0
  8  9  2  0  0  0  0
  9 10  1  0  0  0  0
 10 11  2  0  0  0  0
 11 12  1  0  0  0  0
 11 38  1  0  0  0  0
 12 13  1  0  0  0  0
 13 28  1  0  0  0  0
 13 14  1  0  0  0  0
 13 39  1  0  0  0  0
 14 15  1  0  0  0  0
 15 16  1  0  0  0  0
 15 26  1  0  0  0  0
 15 40  1  0  0  0  0
 16 17  1  0  0  0  0
 16 41  1  0  0  0  0
 16 42  1  0  0  0  0
 17 18  1  0  0  0  0
 18 19  2  0  0  0  0
 18 20  1  0  0  0  0
 20 25  1  0  0  0  0
 20 21  2  0  0  0  0
 21 22  1  0  0  0  0
 21 43  1  0  0  0  0
 22 23  2  0  0  0  0
 22 44  1  0  0  0  0
 23 24  1  0  0  0  0
 23 45  1  0  0  0  0
 24 25  2  0  0  0  0
 24 46  1  0  0  0  0
 25 47  1  0  0  0  0
 26 27  1  0  0  0  0
 26 28  1  0  0  0  0
 26 48  1  0  0  0  0
 28 29  1  0  0  0  0
 28 49  1  0  0  0  0
 29 50  1  0  0  0  0
 30 35  1  0  0  0  0
 30 31  2  0  0  0  0
 31 32  1  0  0  0  0
 31 51  1  0  0  0  0
 32 33  2  0  0  0  0
 32 52  1  0  0  0  0
 33 34  1  0  0  0  0
 33 53  1  0  0  0  0
 34 35  2  0  0  0  0
 34 54  1  0  0  0  0
 35 55  1  0  0  0  0
M  END
> <s_m_source_file>
AV-unprocessed.smi

> <i_m_source_file_index>
34

> <i_lp_mmshare_version>
43012

> <i_f3d_flags>
0

> <s_epik_input>
W2NIXTFbY0hdW2NIXVtjSF1bY0hdYzFDKD1PKVtOSF1jKG5bY0hdbjIpYyhjMjMpbltjSF1uM1tDQEBIXTRPW0NASF0oW0NAQEhdKEYpW0NASF00W09IXSlbQ0gyXU9DKD1PKWM1W2NIXVtjSF1bY0hdW2NIXVtjSF01

> <s_epik_cmdline>
J2VwaWtfcHl0aG9uJywgJy1waCcsICc3LjAnLCAnLXRuJywgJzgnLCAnLW1hJywgJzIwMCcsICctbWV0YWxfYmluZGluZycsICctaW1hZScsICc8aW5maWxlLm1hZT4nLCAnLW9tYWUnLCAnPG91dGZpbGUubWFlPic=

> <r_lp_tautomer_probability>
1

> <r_epik_Ionization_Penalty>
0.00257489

> <r_epik_Ionization_Penalty_Charging>
0

> <r_epik_Ionization_Penalty_Neutral>
0.00257489

> <r_epik_State_Penalty>
0.00519398

> <r_epik_Charging_Adjusted_Penalty>
0.00519398

> <i_epik_Tot_Q>
0

> <i_epik_Tot_abs_Q>
0

> <r_epik_Metal_State_Penalty>
0.335891

> <b_epik_Metal_Only>
0

> <s_epik_Chemistry_Notes>
This compound has an ester and may undergo hydrolysis at high or low pH. This compound contains an acetal/aminal-like group ( X-CH(R)-Y where X, Y are N, S, or O) that may be acid/base labile, releasing an aldehyde.

> <s_lp_Force_Field>
OPLS_2005

> <r_lp_Energy>
45.4918

> <b_lp_Chiralities_Consistent>
1

> <s_lp_Variant>
AV-unprocessed.smi:34-16

> <Gold.Version>
5.8.1

> <Gold.Id.Protein>
6NUR|6NUR_protein|mol2

> <Gold.PLP.Fitness>
58.4789

> <Gold.PLP.PLP>
-55.9295

> <Gold.PLP.part.hbond>
-3.4912

> <Gold.PLP.part.metal>
0.0000

> <Gold.PLP.part.buried>
-6.4855

> <Gold.PLP.part.nonpolar>
-49.5754

> <Gold.PLP.part.repulsive>
2.2988

> <Gold.PLP.ligand.clash>
0.0000

> <Gold.PLP.ligand.torsion>
1.6273

> <Gold.PLP.Chemscore.Hbond>
1.8582

> <Gold.PLP.Chemscore.CHOScore>
0.0000

> <Gold.PLP.Chemscore.Metal>
0.0000

> <Gold.Chemscore.Hbonds>
donor molecule, donor type, donor heavy atom, donor atom, acceptor molecule, acceptor atom, score
      L1  H    29    50       P1 10171  0.83
      P1  H  7954  7966       L1    29  0.99

> <Gold.PLP.Chemscore.Internal.Correction>
0.2295

> <Gold.Rescore>
     Score         DG    S(hbond)    S(metal)    S(lipo)     H(rot)  DE(clash)    DE(int)     intcor
     14.34     -20.56       1.89        0.00     134.43       2.72       2.80       3.43       ----

> <Gold.Chemscore.Fitness>
14.3374

> <Gold.Chemscore.DG>
-20.5596

> <Gold.Chemscore.ZeroCoef>
-5.4800

> <Gold.Chemscore.Hbond>
1.8918

> <Gold.Chemscore.Metal>
0.0000

> <Gold.Chemscore.Lipo>
134.4293

> <Gold.Chemscore.Internal_Hbond>
0.0000

> <Gold.Chemscore.DEClash>
2.7953

> <Gold.Chemscore.DEInternal>
3.4270

> <Gold.Chemscore.Rot>
2.7215

> <Gold.Chemscore.Internal.Correction>
   9.000000E+99

> <Gold.Chemscore.Hbonds>
donor molecule, donor type, donor heavy atom, donor atom, acceptor molecule, acceptor atom, score
      L1  H    29    50       P1 10171  0.82
      P1  H  7954  7966       L1    29  0.76

> <Gold.Chemscore.Hbond.Weighted>
-6.3185

> <Gold.Chemscore.Metal.Weighted>
-0.0000

> <Gold.Chemscore.Lipo.Weighted>
-15.7282

> <Gold.Chemscore.Internal_Hbond.Weighted>
0.0000

> <Gold.Chemscore.DEClash.Weighted>
2.7953

> <Gold.Chemscore.DEInternal.Weighted>
3.4270

> <Gold.Chemscore.Rot.Weighted>
6.9670

> <Gold.Chemscore.Internal.Correction.Weighted>
   9.000000E+99

> <Gold.Protein.RotatedTorsions>
[ 6907 6896 6895 6894 ] final    0.25 input  -60.11 | X-H torsion
[ 7974 7965 7964 7962 ] final   -0.45 input  175.53 | X-H torsion
[ 8008 7997 7996 7995 ] final  148.44 input   59.86 | X-H torsion
[ 10167 10162 10161 10158 ] final  139.95 input  -65.29 | X-H torsion
[ 10718 10713 10712 10709 ] final   36.09 input   66.30 | X-H torsion
[ 10763 10752 10751 10750 ] final   99.15 input  -60.55 | X-H torsion
[ 11005 11000 10999 10996 ] final  -78.66 input  -57.11 | X-H torsion

> <Gold.Protein.ActiveResidues>
 VAL166  LYS551  ARG553  GLY616  TRP617  ASP618  TYR619  PRO620  LYS621  CYS622 
 ASP623  PHE694  ASN695  SER759  ASP760  ASP761  ALA762  ILE779  LEU786  VAL792 
 PHE793  MET794  SER795  GLU796  ALA797  LYS798  CYS799  TRP800  GLU811  SER814 

> <Gold.Protein.RotatedAtoms>
  151.5733  135.1061  160.0000 H   0  0  0  0  0  0  0  0  0  0  0  0  # atno 6907 bound_to 6896
  152.4390  133.7409  159.6651 H   0  0  0  0  0  0  0  0  0  0  0  0  # atno 6908 bound_to 6896
  150.8292  133.8050  159.3129 H   0  0  0  0  0  0  0  0  0  0  0  0  # atno 6909 bound_to 6896
  146.2427  140.1272  142.8339 H   0  0  0  0  0  0  0  0  0  0  0  0  # atno 7974 bound_to 7965
  156.2791  140.2128  156.5699 H   0  0  0  0  0  0  0  0  0  0  0  0  # atno 8008 bound_to 7997
  154.7144  140.0509  157.0603 H   0  0  0  0  0  0  0  0  0  0  0  0  # atno 8009 bound_to 7997
  155.0562  140.3161  155.4678 H   0  0  0  0  0  0  0  0  0  0  0  0  # atno 8010 bound_to 7997
  139.5063  144.6264  151.5927 H   0  0  0  0  0  0  0  0  0  0  0  0  # atno 10167 bound_to 10162
  157.3307  130.7496  149.6845 H   0  0  0  0  0  0  0  0  0  0  0  0  # atno 10718 bound_to 10713
  153.2978  135.4123  155.1225 H   0  0  0  0  0  0  0  0  0  0  0  0  # atno 10763 bound_to 10752
  154.8540  135.3534  154.5893 H   0  0  0  0  0  0  0  0  0  0  0  0  # atno 10764 bound_to 10752
  153.6317  135.7060  153.5331 H   0  0  0  0  0  0  0  0  0  0  0  0  # atno 10765 bound_to 10752
  141.1665  133.7073  156.8006 H   0  0  0  0  0  0  0  0  0  0  0  0  # atno 11005 bound_to 11000
  145.0357  140.8906  143.5083 LP  0  0  0  0  0  0  0  0  0  0  0  0  # atno 17320 bound_to 7965
  145.1344  139.2612  143.5523 LP  0  0  0  0  0  0  0  0  0  0  0  0  # atno 17321 bound_to 7965
  140.5982  143.9658  150.6368 LP  0  0  0  0  0  0  0  0  0  0  0  0  # atno 17342 bound_to 10162
  140.2861  143.3356  152.1106 LP  0  0  0  0  0  0  0  0  0  0  0  0  # atno 17343 bound_to 10162
  155.9695  130.4196  150.4383 LP  0  0  0  0  0  0  0  0  0  0  0  0  # atno 17370 bound_to 10713
  157.2415  131.0526  151.2434 LP  0  0  0  0  0  0  0  0  0  0  0  0  # atno 17371 bound_to 10713
  140.2259  134.8722  157.3426 LP  0  0  0  0  0  0  0  0  0  0  0  0  # atno 17394 bound_to 11000
  140.1940  134.4336  155.7699 LP  0  0  0  0  0  0  0  0  0  0  0  0  # atno 17395 bound_to 11000

$$$$
