AV-unprocessed.smi:910|AV-procd|sdf|4127|dock8
  -GOLD-   22720 2 33D 1   1.00000     0.00000
 Structure written by MMmdl.
 46 47  0  0  0  0  0  0  0  0  1 V2000
  146.5360  133.8137  161.9348 C   0  0  0  0  0  0  0  0  0  0  0  0
  146.6865  135.1812  161.3059 C   0  0  0  0  0  0  0  0  0  0  0  0
  147.6559  135.4519  160.3802 N   0  0  0  0  0  0  0  0  0  0  0  0
  147.5323  136.7850  159.9955 C   0  0  0  0  0  0  0  0  0  0  0  0
  148.1911  137.5291  159.1607 N   0  0  0  0  0  0  0  0  0  0  0  0
  149.2440  136.9908  158.4348 C   0  0  0  0  0  0  0  0  0  0  0  0
  149.5267  135.8012  158.2600 O   0  0  0  0  0  0  0  0  0  0  0  0
  149.9946  137.9738  157.9164 N   0  0  0  0  0  0  0  0  0  0  0  0
  151.2046  137.7910  157.1211 C   0  0  0  0  0  0  0  0  0  0  0  0
  152.4312  138.4159  157.8013 C   0  0  0  0  0  0  0  0  0  0  0  0
  152.4186  139.8167  157.5700 O   0  0  0  0  0  0  0  0  0  0  0  0
  152.1011  140.6008  158.7127 C   0  0  1  0  0  0  0  0  0  0  0  0
  153.2642  140.5293  159.7242 C   0  0  0  0  0  0  0  0  0  0  0  0
  153.0340  141.4711  160.9151 C   0  0  0  0  0  0  0  0  0  0  0  0
  152.8104  142.9135  160.4401 C   0  0  0  0  0  0  0  0  0  0  0  0
  151.6467  142.9912  159.4400 C   0  0  0  0  0  0  0  0  0  0  0  0
  151.8616  142.0512  158.2364 C   0  0  2  0  0  0  0  0  0  0  0  0
  150.6767  142.1391  157.2596 C   0  0  0  0  0  0  0  0  0  0  0  0
  146.4782  137.2931  160.7124 O   0  0  0  0  0  0  0  0  0  0  0  0
  145.9845  136.2951  161.4973 C   0  0  0  0  0  0  0  0  0  0  0  0
  144.8054  136.5918  162.3960 C   0  0  0  0  0  0  0  0  0  0  0  0
  146.6432  133.8829  163.0175 H   0  0  0  0  0  0  0  0  0  0  0  0
  147.2918  133.1242  161.5575 H   0  0  0  0  0  0  0  0  0  0  0  0
  145.5518  133.4017  161.7109 H   0  0  0  0  0  0  0  0  0  0  0  0
  148.3259  134.7690  160.0570 H   0  0  0  0  0  0  0  0  0  0  0  0
  149.7154  138.9262  158.1032 H   0  0  0  0  0  0  0  0  0  0  0  0
  151.3732  136.7285  156.9393 H   0  0  0  0  0  0  0  0  0  0  0  0
  151.0476  138.2512  156.1454 H   0  0  0  0  0  0  0  0  0  0  0  0
  152.4181  138.2051  158.8717 H   0  0  0  0  0  0  0  0  0  0  0  0
  153.3405  137.9729  157.3947 H   0  0  0  0  0  0  0  0  0  0  0  0
  151.1843  140.2381  159.1819 H   0  0  0  0  0  0  0  0  0  0  0  0
  153.3910  139.5109  160.0906 H   0  0  0  0  0  0  0  0  0  0  0  0
  154.1975  140.7961  159.2262 H   0  0  0  0  0  0  0  0  0  0  0  0
  152.1681  141.1344  161.4867 H   0  0  0  0  0  0  0  0  0  0  0  0
  153.8877  141.4303  161.5920 H   0  0  0  0  0  0  0  0  0  0  0  0
  152.6094  143.5597  161.2950 H   0  0  0  0  0  0  0  0  0  0  0  0
  153.7211  143.2913  159.9734 H   0  0  0  0  0  0  0  0  0  0  0  0
  150.7162  142.7329  159.9476 H   0  0  0  0  0  0  0  0  0  0  0  0
  151.5332  144.0194  159.0943 H   0  0  0  0  0  0  0  0  0  0  0  0
  152.7542  142.3864  157.7058 H   0  0  0  0  0  0  0  0  0  0  0  0
  149.7520  141.7974  157.7261 H   0  0  0  0  0  0  0  0  0  0  0  0
  150.8455  141.5275  156.3727 H   0  0  0  0  0  0  0  0  0  0  0  0
  150.5205  143.1644  156.9234 H   0  0  0  0  0  0  0  0  0  0  0  0
  144.1184  135.7455  162.4162 H   0  0  0  0  0  0  0  0  0  0  0  0
  144.2636  137.4672  162.0379 H   0  0  0  0  0  0  0  0  0  0  0  0
  145.1466  136.7865  163.4128 H   0  0  0  0  0  0  0  0  0  0  0  0
  1 22  1  0  0  0  0
  1 23  1  0  0  0  0
  1 24  1  0  0  0  0
  1  2  1  0  0  0  0
  2  3  1  0  0  0  0
  2 20  2  0  0  0  0
  3 25  1  0  0  0  0
  3  4  1  0  0  0  0
  4 19  1  0  0  0  0
  4  5  2  0  0  0  0
  5  6  1  0  0  0  0
  6  8  1  0  0  0  0
  6  7  2  0  0  0  0
  8  9  1  0  0  0  0
  8 26  1  0  0  0  0
  9 10  1  0  0  0  0
  9 27  1  0  0  0  0
  9 28  1  0  0  0  0
 10 11  1  0  0  0  0
 10 29  1  0  0  0  0
 10 30  1  0  0  0  0
 11 12  1  0  0  0  0
 12 17  1  0  0  0  0
 12 13  1  0  0  0  0
 12 31  1  0  0  0  0
 13 14  1  0  0  0  0
 13 32  1  0  0  0  0
 13 33  1  0  0  0  0
 14 15  1  0  0  0  0
 14 34  1  0  0  0  0
 14 35  1  0  0  0  0
 15 16  1  0  0  0  0
 15 36  1  0  0  0  0
 15 37  1  0  0  0  0
 16 17  1  0  0  0  0
 16 38  1  0  0  0  0
 16 39  1  0  0  0  0
 17 18  1  0  0  0  0
 17 40  1  0  0  0  0
 18 41  1  0  0  0  0
 18 42  1  0  0  0  0
 18 43  1  0  0  0  0
 19 20  1  0  0  0  0
 20 21  1  0  0  0  0
 21 44  1  0  0  0  0
 21 45  1  0  0  0  0
 21 46  1  0  0  0  0
M  END
> <s_m_source_file>
AV-unprocessed.smi

> <i_m_source_file_index>
910

> <i_lp_mmshare_version>
43012

> <i_f3d_flags>
0

> <s_epik_input>
W0NIM11jMW5jKG9jMVtDSDNdKVtOSF1DKD1PKVtOSF1bQ0gyXVtDSDJdT1tDQEBIXTJbQ0gyXVtDSDJdW0NIMl1bQ0gyXVtDQEhdMltDSDNd

> <s_epik_cmdline>
J2VwaWtfcHl0aG9uJywgJy1waCcsICc3LjAnLCAnLXRuJywgJzgnLCAnLW1hJywgJzIwMCcsICctbWV0YWxfYmluZGluZycsICctaW1hZScsICc8aW5maWxlLm1hZT4nLCAnLW9tYWUnLCAnPG91dGZpbGUubWFlPic=

> <r_lp_tautomer_probability>
0.107061

> <r_epik_Ionization_Penalty>
0.727192

> <r_epik_Ionization_Penalty_Charging>
0.726719

> <r_epik_Ionization_Penalty_Neutral>
0.000473387

> <r_epik_State_Penalty>
2.53712

> <r_epik_Charging_Adjusted_Penalty>
3.26383

> <i_epik_Tot_Q>
0

> <i_epik_Tot_abs_Q>
0

> <r_epik_Metal_State_Penalty>
3.71015

> <b_epik_Metal_Only>
0

> <s_lp_Force_Field>
OPLS_2005

> <r_lp_Energy>
31.2477

> <b_lp_Chiralities_Consistent>
1

> <s_lp_Variant>
AV-unprocessed.smi:910-12

> <Gold.Version>
5.8.1

> <Gold.Id.Protein>
6NUR|6NUR_protein|mol2

> <Gold.PLP.Fitness>
46.8068

> <Gold.PLP.PLP>
-38.8737

> <Gold.PLP.part.hbond>
-4.6492

> <Gold.PLP.part.metal>
0.0000

> <Gold.PLP.part.buried>
-5.0667

> <Gold.PLP.part.nonpolar>
-30.3001

> <Gold.PLP.part.repulsive>
0.2488

> <Gold.PLP.ligand.clash>
0.0000

> <Gold.PLP.ligand.torsion>
0.5383

> <Gold.PLP.Chemscore.Hbond>
3.0000

> <Gold.PLP.Chemscore.CHOScore>
0.0000

> <Gold.PLP.Chemscore.Metal>
0.0000

> <Gold.Chemscore.Hbonds>
donor molecule, donor type, donor heavy atom, donor atom, acceptor molecule, acceptor atom, score
      P1  H  6896  6908       L1     7  0.81
      P1  H  6934  6947       L1    19  0.85
      P1  H  7997  8010       L1    11  0.65

> <Gold.PLP.Chemscore.Internal.Correction>
0.0098

> <Gold.Rescore>
     Score         DG    S(hbond)    S(metal)    S(lipo)     H(rot)  DE(clash)    DE(int)     intcor
     18.87     -20.88       2.33        0.00     101.46       1.66       0.01       1.99       ----

> <Gold.Chemscore.Fitness>
18.8708

> <Gold.Chemscore.DG>
-20.8753

> <Gold.Chemscore.ZeroCoef>
-5.4800

> <Gold.Chemscore.Hbond>
2.3258

> <Gold.Chemscore.Metal>
0.0000

> <Gold.Chemscore.Lipo>
101.4589

> <Gold.Chemscore.Internal_Hbond>
0.0000

> <Gold.Chemscore.DEClash>
0.0126

> <Gold.Chemscore.DEInternal>
1.9919

> <Gold.Chemscore.Rot>
1.6576

> <Gold.Chemscore.Internal.Correction>
   9.000000E+99

> <Gold.Chemscore.Hbonds>
donor molecule, donor type, donor heavy atom, donor atom, acceptor molecule, acceptor atom, score
      P1  H  6896  6908       L1     7  0.78
      P1  H  6934  6947       L1    19  0.15
      P1  H  7997  8010       L1    11  0.15

> <Gold.Chemscore.Hbond.Weighted>
-7.7682

> <Gold.Chemscore.Metal.Weighted>
-0.0000

> <Gold.Chemscore.Lipo.Weighted>
-11.8707

> <Gold.Chemscore.Internal_Hbond.Weighted>
0.0000

> <Gold.Chemscore.DEClash.Weighted>
0.0126

> <Gold.Chemscore.DEInternal.Weighted>
1.9919

> <Gold.Chemscore.Rot.Weighted>
4.2436

> <Gold.Chemscore.Internal.Correction.Weighted>
   9.000000E+99

> <Gold.Protein.RotatedTorsions>
[ 6907 6896 6895 6894 ] final  177.58 input  -60.11 | X-H torsion
[ 7974 7965 7964 7962 ] final   95.52 input  175.53 | X-H torsion
[ 8008 7997 7996 7995 ] final   51.44 input   59.86 | X-H torsion
[ 10167 10162 10161 10158 ] final  -24.05 input  -65.29 | X-H torsion
[ 10718 10713 10712 10709 ] final   76.67 input   66.30 | X-H torsion
[ 10763 10752 10751 10750 ] final   17.20 input  -60.55 | X-H torsion
[ 11005 11000 10999 10996 ] final  -83.33 input  -57.11 | X-H torsion

> <Gold.Protein.ActiveResidues>
 VAL166  LYS551  ARG553  GLY616  TRP617  ASP618  TYR619  PRO620  LYS621  CYS622 
 ASP623  PHE694  ASN695  SER759  ASP760  ASP761  ALA762  ILE779  LEU786  VAL792 
 PHE793  MET794  SER795  GLU796  ALA797  LYS798  CYS799  TRP800  GLU811  SER814 

> <Gold.Protein.RotatedAtoms>
  151.7017  133.3311  159.3268 H   0  0  0  0  0  0  0  0  0  0  0  0  # atno 6907 bound_to 6896
  150.7733  134.6610  159.6349 H   0  0  0  0  0  0  0  0  0  0  0  0  # atno 6908 bound_to 6896
  152.3765  134.6658  160.0210 H   0  0  0  0  0  0  0  0  0  0  0  0  # atno 6909 bound_to 6896
  145.4511  139.2293  143.3039 H   0  0  0  0  0  0  0  0  0  0  0  0  # atno 7974 bound_to 7965
  155.4353  140.3452  155.4284 H   0  0  0  0  0  0  0  0  0  0  0  0  # atno 8008 bound_to 7997
  156.1312  140.1514  156.9093 H   0  0  0  0  0  0  0  0  0  0  0  0  # atno 8009 bound_to 7997
  154.4896  140.0845  156.7544 H   0  0  0  0  0  0  0  0  0  0  0  0  # atno 8010 bound_to 7997
  140.7288  143.4388  151.0688 H   0  0  0  0  0  0  0  0  0  0  0  0  # atno 10167 bound_to 10162
  157.6682  130.9785  150.1530 H   0  0  0  0  0  0  0  0  0  0  0  0  # atno 10718 bound_to 10713
  153.1361  135.6750  153.9101 H   0  0  0  0  0  0  0  0  0  0  0  0  # atno 10763 bound_to 10752
  153.8572  135.3086  155.3437 H   0  0  0  0  0  0  0  0  0  0  0  0  # atno 10764 bound_to 10752
  154.7748  135.4920  153.9805 H   0  0  0  0  0  0  0  0  0  0  0  0  # atno 10765 bound_to 10752
  141.1658  133.7289  156.8704 H   0  0  0  0  0  0  0  0  0  0  0  0  # atno 11005 bound_to 11000
  146.2504  140.5270  142.8896 LP  0  0  0  0  0  0  0  0  0  0  0  0  # atno 17320 bound_to 7965
  144.8061  140.6302  143.6446 LP  0  0  0  0  0  0  0  0  0  0  0  0  # atno 17321 bound_to 7965
  139.8053  143.8026  152.3167 LP  0  0  0  0  0  0  0  0  0  0  0  0  # atno 17342 bound_to 10162
  139.8057  144.7356  150.9764 LP  0  0  0  0  0  0  0  0  0  0  0  0  # atno 17343 bound_to 10162
  156.2324  130.3683  149.8429 LP  0  0  0  0  0  0  0  0  0  0  0  0  # atno 17370 bound_to 10713
  156.6252  130.8643  151.3484 LP  0  0  0  0  0  0  0  0  0  0  0  0  # atno 17371 bound_to 10713
  140.1785  134.9050  157.2920 LP  0  0  0  0  0  0  0  0  0  0  0  0  # atno 17394 bound_to 11000
  140.2421  134.3783  155.7476 LP  0  0  0  0  0  0  0  0  0  0  0  0  # atno 17395 bound_to 11000

$$$$
