AV-unprocessed.smi:824|AV-procd|sdf|3850|dock9
  -GOLD-   22720 1293D 1   1.00000     0.00000
 Structure written by MMmdl.
 51 52  0  0  0  0  0  0  0  0  2 V2000
  146.3500  142.0424  155.7305 C   0  0  0  0  0  0  0  0  0  0  0  0
  147.7994  141.5896  155.7306 C   0  0  0  0  0  0  0  0  0  0  0  0
  148.5637  142.0203  156.8246 N   0  0  0  0  0  0  0  0  0  0  0  0
  149.8185  141.6983  156.9123 C   0  0  0  0  0  0  0  0  0  0  0  0
  150.6234  142.1382  157.9644 N   0  0  0  0  0  0  0  0  0  0  0  0
  151.9011  141.4799  158.2443 C   0  0  0  0  0  0  0  0  0  0  0  0
  152.3573  141.7370  159.6898 C   0  0  0  0  0  0  0  0  0  0  0  0
  152.4193  143.1363  159.9324 O   0  0  0  0  0  0  0  0  0  0  0  0
  151.1446  143.7450  159.7761 C   0  0  0  0  0  0  0  0  0  0  0  0
  150.6527  143.5535  158.3320 C   0  0  0  0  0  0  0  0  0  0  0  0
  150.4492  140.8990  155.9732 N   0  5  0  0  0  0  0  0  0  0  0  0
  149.7655  140.4347  154.8902 C   0  0  0  0  0  0  0  0  0  0  0  0
  150.2941  139.7072  154.0505 O   0  0  0  0  0  0  0  0  0  0  0  0
  148.3530  140.8288  154.7425 C   0  0  0  0  0  0  0  0  0  0  0  0
  147.5864  140.3502  153.5045 C   0  0  0  0  0  0  0  0  0  0  0  0
  146.7703  139.0548  153.7251 C   0  0  0  0  0  0  0  0  0  0  0  0
  146.5339  138.2674  152.4225 C   0  0  0  0  0  0  0  0  0  0  0  0
  147.0732  138.6904  151.3991 O   0  0  0  0  0  0  0  0  0  0  0  0
  145.7779  137.1406  152.4244 N   0  0  0  0  0  0  0  0  0  0  0  0
  145.0080  136.6841  153.5856 C   0  0  0  0  0  0  0  0  0  0  0  0
  145.6719  136.2992  151.2210 C   0  0  0  0  0  0  0  0  0  0  0  0
  145.2264  134.8530  151.5430 C   0  0  0  0  0  0  0  0  0  0  0  0
  146.3904  134.0436  152.1327 C   0  0  0  0  0  0  0  0  0  0  0  0
  144.6337  134.1316  150.3203 C   0  0  0  0  0  0  0  0  0  0  0  0
  146.1362  142.6584  154.8588 H   0  0  0  0  0  0  0  0  0  0  0  0
  146.1223  142.6347  156.6175 H   0  0  0  0  0  0  0  0  0  0  0  0
  145.6803  141.1825  155.7246 H   0  0  0  0  0  0  0  0  0  0  0  0
  151.8406  140.4040  158.0784 H   0  0  0  0  0  0  0  0  0  0  0  0
  152.6478  141.8606  157.5463 H   0  0  0  0  0  0  0  0  0  0  0  0
  151.6804  141.2607  160.4009 H   0  0  0  0  0  0  0  0  0  0  0  0
  153.3448  141.3056  159.8530 H   0  0  0  0  0  0  0  0  0  0  0  0
  150.4347  143.3204  160.4879 H   0  0  0  0  0  0  0  0  0  0  0  0
  151.2282  144.8072  160.0055 H   0  0  0  0  0  0  0  0  0  0  0  0
  151.3073  144.0855  157.6404 H   0  0  0  0  0  0  0  0  0  0  0  0
  149.6584  143.9910  158.2320 H   0  0  0  0  0  0  0  0  0  0  0  0
  146.9168  141.1479  153.1813 H   0  0  0  0  0  0  0  0  0  0  0  0
  148.2667  140.2023  152.6669 H   0  0  0  0  0  0  0  0  0  0  0  0
  147.2331  138.4547  154.5053 H   0  0  0  0  0  0  0  0  0  0  0  0
  145.7922  139.3238  154.1249 H   0  0  0  0  0  0  0  0  0  0  0  0
  144.2830  137.4401  153.8889 H   0  0  0  0  0  0  0  0  0  0  0  0
  145.6649  136.4744  154.4288 H   0  0  0  0  0  0  0  0  0  0  0  0
  144.4540  135.7660  153.3909 H   0  0  0  0  0  0  0  0  0  0  0  0
  144.9867  136.7402  150.4961 H   0  0  0  0  0  0  0  0  0  0  0  0
  146.6354  136.2810  150.7081 H   0  0  0  0  0  0  0  0  0  0  0  0
  144.4481  134.8950  152.3058 H   0  0  0  0  0  0  0  0  0  0  0  0
  147.2058  133.9419  151.4162 H   0  0  0  0  0  0  0  0  0  0  0  0
  146.0683  133.0410  152.4154 H   0  0  0  0  0  0  0  0  0  0  0  0
  146.7899  134.5237  153.0265 H   0  0  0  0  0  0  0  0  0  0  0  0
  145.3625  134.0536  149.5131 H   0  0  0  0  0  0  0  0  0  0  0  0
  143.7626  134.6559  149.9296 H   0  0  0  0  0  0  0  0  0  0  0  0
  144.3104  133.1224  150.5772 H   0  0  0  0  0  0  0  0  0  0  0  0
  1  2  1  0  0  0  0
  1 25  1  0  0  0  0
  1 26  1  0  0  0  0
  1 27  1  0  0  0  0
  2 14  2  0  0  0  0
  2  3  1  0  0  0  0
  3  4  2  0  0  0  0
  4  5  1  0  0  0  0
  4 11  1  0  0  0  0
  5 10  1  0  0  0  0
  5  6  1  0  0  0  0
  6  7  1  0  0  0  0
  6 28  1  0  0  0  0
  6 29  1  0  0  0  0
  7  8  1  0  0  0  0
  7 30  1  0  0  0  0
  7 31  1  0  0  0  0
  8  9  1  0  0  0  0
  9 10  1  0  0  0  0
  9 32  1  0  0  0  0
  9 33  1  0  0  0  0
 10 34  1  0  0  0  0
 10 35  1  0  0  0  0
 11 12  1  0  0  0  0
 12 13  2  0  0  0  0
 12 14  1  0  0  0  0
 14 15  1  0  0  0  0
 15 16  1  0  0  0  0
 15 36  1  0  0  0  0
 15 37  1  0  0  0  0
 16 17  1  0  0  0  0
 16 38  1  0  0  0  0
 16 39  1  0  0  0  0
 17 18  2  0  0  0  0
 17 19  1  0  0  0  0
 19 20  1  0  0  0  0
 19 21  1  0  0  0  0
 20 40  1  0  0  0  0
 20 41  1  0  0  0  0
 20 42  1  0  0  0  0
 21 22  1  0  0  0  0
 21 43  1  0  0  0  0
 21 44  1  0  0  0  0
 22 23  1  0  0  0  0
 22 24  1  0  0  0  0
 22 45  1  0  0  0  0
 23 46  1  0  0  0  0
 23 47  1  0  0  0  0
 23 48  1  0  0  0  0
 24 49  1  0  0  0  0
 24 50  1  0  0  0  0
 24 51  1  0  0  0  0
M  CHG  1  11  -1
M  END
> <s_m_source_file>
AV-unprocessed.smi

> <i_m_source_file_index>
824

> <i_lp_mmshare_version>
43012

> <i_f3d_flags>
0

> <s_epik_input>
W0NIMl0xW0NIMl1PW0NIMl1bQ0gyXU4xYyhuYzJbQ0gzXSlbbkhdYyg9TyljMltDSDJdW0NIMl1DKD1PKU4oW0NIM10pW0NIMl1bQ0hdKFtDSDNdKVtDSDNd

> <s_epik_cmdline>
J2VwaWtfcHl0aG9uJywgJy1waCcsICc3LjAnLCAnLXRuJywgJzgnLCAnLW1hJywgJzIwMCcsICctbWV0YWxfYmluZGluZycsICctaW1hZScsICc8aW5maWxlLm1hZT4nLCAnLW9tYWUnLCAnPG91dGZpbGUubWFlPic=

> <r_lp_tautomer_probability>
1

> <r_epik_Ionization_Penalty>
5.09891

> <r_epik_Ionization_Penalty_Charging>
4.43024e-08

> <r_epik_Ionization_Penalty_Neutral>
5.09891

> <r_epik_State_Penalty>
2.55975

> <r_epik_Charging_Adjusted_Penalty>
2.55975

> <i_epik_Tot_Q>
-1

> <i_epik_Tot_abs_Q>
1

> <r_epik_Metal_State_Penalty>
0.115808

> <b_epik_Metal_Only>
0

> <s_lp_Force_Field>
OPLS_2005

> <r_lp_Energy>
31.6324

> <b_lp_Chiralities_Consistent>
1

> <s_lp_Variant>
AV-unprocessed.smi:824-3

> <Gold.Version>
5.8.1

> <Gold.Id.Protein>
6NUR|6NUR_protein|mol2

> <Gold.PLP.Fitness>
40.7857

> <Gold.PLP.PLP>
-37.8390

> <Gold.PLP.part.hbond>
-2.0000

> <Gold.PLP.part.metal>
0.0000

> <Gold.PLP.part.buried>
-6.4636

> <Gold.PLP.part.nonpolar>
-34.6533

> <Gold.PLP.part.repulsive>
5.1337

> <Gold.PLP.ligand.clash>
0.0000

> <Gold.PLP.ligand.torsion>
1.4968

> <Gold.PLP.Chemscore.Hbond>
1.8500

> <Gold.PLP.Chemscore.CHOScore>
0.0000

> <Gold.PLP.Chemscore.Metal>
0.0000

> <Gold.Chemscore.Hbonds>
donor molecule, donor type, donor heavy atom, donor atom, acceptor molecule, acceptor atom, score
      P1  H  7954  7966       L1    18  1.00
      P1  H  7989  7998       L1    13  0.95

> <Gold.PLP.Chemscore.Internal.Correction>
0.3903

> <Gold.Rescore>
     Score         DG    S(hbond)    S(metal)    S(lipo)     H(rot)  DE(clash)    DE(int)     intcor
     12.46     -15.43       1.38        0.00      81.96       1.66       1.89       1.08       ----

> <Gold.Chemscore.Fitness>
12.4570

> <Gold.Chemscore.DG>
-15.4272

> <Gold.Chemscore.ZeroCoef>
-5.4800

> <Gold.Chemscore.Hbond>
1.3820

> <Gold.Chemscore.Metal>
0.0000

> <Gold.Chemscore.Lipo>
81.9633

> <Gold.Chemscore.Internal_Hbond>
0.0000

> <Gold.Chemscore.DEClash>
1.8865

> <Gold.Chemscore.DEInternal>
1.0837

> <Gold.Chemscore.Rot>
1.6635

> <Gold.Chemscore.Internal.Correction>
   9.000000E+99

> <Gold.Chemscore.Hbonds>
donor molecule, donor type, donor heavy atom, donor atom, acceptor molecule, acceptor atom, score
      P1  H  7954  7966       L1    18  0.90
      P1  H  7989  7998       L1    13  0.21

> <Gold.Chemscore.Hbond.Weighted>
-4.6160

> <Gold.Chemscore.Metal.Weighted>
-0.0000

> <Gold.Chemscore.Lipo.Weighted>
-9.5897

> <Gold.Chemscore.Internal_Hbond.Weighted>
0.0000

> <Gold.Chemscore.DEClash.Weighted>
1.8865

> <Gold.Chemscore.DEInternal.Weighted>
1.0837

> <Gold.Chemscore.Rot.Weighted>
4.2585

> <Gold.Chemscore.Internal.Correction.Weighted>
   9.000000E+99

> <Gold.Protein.RotatedTorsions>
[ 6907 6896 6895 6894 ] final  119.57 input  -60.11 | X-H torsion
[ 7974 7965 7964 7962 ] final   95.36 input  175.53 | X-H torsion
[ 8008 7997 7996 7995 ] final  -39.54 input   59.86 | X-H torsion
[ 10167 10162 10161 10158 ] final -172.41 input  -65.29 | X-H torsion
[ 10718 10713 10712 10709 ] final   97.66 input   66.30 | X-H torsion
[ 10763 10752 10751 10750 ] final  161.90 input  -60.55 | X-H torsion
[ 11005 11000 10999 10996 ] final   23.31 input  -57.11 | X-H torsion

> <Gold.Protein.ActiveResidues>
 VAL166  LYS551  ARG553  GLY616  TRP617  ASP618  TYR619  PRO620  LYS621  CYS622 
 ASP623  PHE694  ASN695  SER759  ASP760  ASP761  ALA762  ILE779  LEU786  VAL792 
 PHE793  MET794  SER795  GLU796  ALA797  LYS798  CYS799  TRP800  GLU811  SER814 

> <Gold.Protein.RotatedAtoms>
  152.4462  133.7541  159.6710 H   0  0  0  0  0  0  0  0  0  0  0  0  # atno 6907 bound_to 6896
  150.8363  133.7998  159.3084 H   0  0  0  0  0  0  0  0  0  0  0  0  # atno 6908 bound_to 6896
  151.5637  135.1067  160.0030 H   0  0  0  0  0  0  0  0  0  0  0  0  # atno 6909 bound_to 6896
  145.4532  139.2292  143.3028 H   0  0  0  0  0  0  0  0  0  0  0  0  # atno 7974 bound_to 7965
  154.4022  140.1549  156.2881 H   0  0  0  0  0  0  0  0  0  0  0  0  # atno 8008 bound_to 7997
  155.8810  140.3444  155.5866 H   0  0  0  0  0  0  0  0  0  0  0  0  # atno 8009 bound_to 7997
  155.7667  140.0825  157.2119 H   0  0  0  0  0  0  0  0  0  0  0  0  # atno 8010 bound_to 7997
  139.5746  144.1562  152.1432 H   0  0  0  0  0  0  0  0  0  0  0  0  # atno 10167 bound_to 10162
  157.6909  131.0616  150.4678 H   0  0  0  0  0  0  0  0  0  0  0  0  # atno 10718 bound_to 10713
  154.2700  135.2766  155.2742 H   0  0  0  0  0  0  0  0  0  0  0  0  # atno 10763 bound_to 10752
  154.5309  135.5730  153.6762 H   0  0  0  0  0  0  0  0  0  0  0  0  # atno 10764 bound_to 10752
  152.9947  135.6227  154.2855 H   0  0  0  0  0  0  0  0  0  0  0  0  # atno 10765 bound_to 10752
  140.3710  134.2023  155.7667 H   0  0  0  0  0  0  0  0  0  0  0  0  # atno 11005 bound_to 11000
  146.2492  140.5294  142.8900 LP  0  0  0  0  0  0  0  0  0  0  0  0  # atno 17320 bound_to 7965
  144.8048  140.6280  143.6454 LP  0  0  0  0  0  0  0  0  0  0  0  0  # atno 17321 bound_to 7965
  140.1102  144.5464  150.6930 LP  0  0  0  0  0  0  0  0  0  0  0  0  # atno 17342 bound_to 10162
  140.7029  143.2447  151.4811 LP  0  0  0  0  0  0  0  0  0  0  0  0  # atno 17343 bound_to 10162
  156.5018  130.4119  149.6349 LP  0  0  0  0  0  0  0  0  0  0  0  0  # atno 17370 bound_to 10713
  156.3321  130.7337  151.2268 LP  0  0  0  0  0  0  0  0  0  0  0  0  # atno 17371 bound_to 10713
  141.1954  133.8105  157.0714 LP  0  0  0  0  0  0  0  0  0  0  0  0  # atno 17394 bound_to 11000
  140.0552  134.9784  157.1208 LP  0  0  0  0  0  0  0  0  0  0  0  0  # atno 17395 bound_to 11000

$$$$
