AV-unprocessed.smi:2952|AV-procd|sdf|11291|dock3
  -GOLD-   2272016183D 1   1.00000     0.00000
 Structure written by MMmdl.
 38 40  0  0  0  0  0  0  0  0  1 V2000
  148.5408  143.0689  158.0887 O   0  0  0  0  0  0  0  0  0  0  0  0
  149.3219  141.8939  158.1404 C   0  0  0  0  0  0  0  0  0  0  0  0
  150.6255  142.0504  157.3397 C   0  0  0  0  0  0  0  0  0  0  0  0
  151.7032  141.2168  157.8570 N   0  0  0  0  0  0  0  0  0  0  0  0
  152.2942  140.1332  157.2887 C   0  0  0  0  0  0  0  0  0  0  0  0
  151.8905  139.6073  155.9369 C   0  0  0  0  0  0  0  0  0  0  0  0
  151.3660  138.2418  155.9548 N   0  0  0  0  0  0  0  0  0  0  0  0
  152.2117  137.3322  156.7248 C   0  0  0  0  0  0  0  0  0  0  0  0
  151.6570  135.8976  156.7236 C   0  0  0  0  0  0  0  0  0  0  0  0
  151.5110  135.4439  155.3814 O   0  0  0  0  0  0  0  0  0  0  0  0
  150.6578  136.2814  154.6075 C   0  0  0  0  0  0  0  0  0  0  0  0
  151.2102  137.7174  154.6034 C   0  0  0  0  0  0  0  0  0  0  0  0
  153.2489  139.5502  158.0184 N   0  0  0  0  0  0  0  0  0  0  0  0
  153.2956  140.3375  159.1508 C   0  0  0  0  0  0  0  0  0  0  0  0
  154.1110  140.2449  160.3012 C   0  0  0  0  0  0  0  0  0  0  0  0
  153.9748  141.1789  161.3492 C   0  0  0  0  0  0  0  0  0  0  0  0
  153.0230  142.2160  161.2620 C   0  0  0  0  0  0  0  0  0  0  0  0
  152.8644  143.3520  162.5505 Cl  0  0  0  0  0  0  0  0  0  0  0  0
  152.2006  142.3248  160.1243 C   0  0  0  0  0  0  0  0  0  0  0  0
  152.3410  141.3902  159.0812 C   0  0  0  0  0  0  0  0  0  0  0  0
  148.4758  143.3469  157.1877 H   0  0  0  0  0  0  0  0  0  0  0  0
  149.5399  141.6612  159.1830 H   0  0  0  0  0  0  0  0  0  0  0  0
  148.7351  141.0655  157.7434 H   0  0  0  0  0  0  0  0  0  0  0  0
  150.4471  141.7652  156.3025 H   0  0  0  0  0  0  0  0  0  0  0  0
  150.9424  143.0921  157.3054 H   0  0  0  0  0  0  0  0  0  0  0  0
  151.1306  140.2838  155.5447 H   0  0  0  0  0  0  0  0  0  0  0  0
  152.7304  139.6552  155.2455 H   0  0  0  0  0  0  0  0  0  0  0  0
  153.2203  137.3255  156.3092 H   0  0  0  0  0  0  0  0  0  0  0  0
  152.3015  137.6789  157.7546 H   0  0  0  0  0  0  0  0  0  0  0  0
  152.3339  135.2287  157.2551 H   0  0  0  0  0  0  0  0  0  0  0  0
  150.6950  135.8553  157.2365 H   0  0  0  0  0  0  0  0  0  0  0  0
  150.6025  135.8928  153.5906 H   0  0  0  0  0  0  0  0  0  0  0  0
  149.6463  136.2575  155.0159 H   0  0  0  0  0  0  0  0  0  0  0  0
  150.5394  138.3603  154.0323 H   0  0  0  0  0  0  0  0  0  0  0  0
  152.1715  137.7323  154.0875 H   0  0  0  0  0  0  0  0  0  0  0  0
  154.8421  139.4536  160.3777 H   0  0  0  0  0  0  0  0  0  0  0  0
  154.6034  141.0971  162.2237 H   0  0  0  0  0  0  0  0  0  0  0  0
  151.4703  143.1170  160.0529 H   0  0  0  0  0  0  0  0  0  0  0  0
  1  2  1  0  0  0  0
  1 21  1  0  0  0  0
  2  3  1  0  0  0  0
  2 22  1  0  0  0  0
  2 23  1  0  0  0  0
  3  4  1  0  0  0  0
  3 24  1  0  0  0  0
  3 25  1  0  0  0  0
  4 20  1  0  0  0  0
  4  5  1  0  0  0  0
  5  6  1  0  0  0  0
  5 13  2  0  0  0  0
  6  7  1  0  0  0  0
  6 26  1  0  0  0  0
  6 27  1  0  0  0  0
  7 12  1  0  0  0  0
  7  8  1  0  0  0  0
  8  9  1  0  0  0  0
  8 28  1  0  0  0  0
  8 29  1  0  0  0  0
  9 10  1  0  0  0  0
  9 30  1  0  0  0  0
  9 31  1  0  0  0  0
 10 11  1  0  0  0  0
 11 12  1  0  0  0  0
 11 32  1  0  0  0  0
 11 33  1  0  0  0  0
 12 34  1  0  0  0  0
 12 35  1  0  0  0  0
 13 14  1  0  0  0  0
 14 20  2  0  0  0  0
 14 15  1  0  0  0  0
 15 16  2  0  0  0  0
 15 36  1  0  0  0  0
 16 17  1  0  0  0  0
 16 37  1  0  0  0  0
 17 18  1  0  0  0  0
 17 19  2  0  0  0  0
 19 20  1  0  0  0  0
 19 38  1  0  0  0  0
M  END
> <s_m_source_file>
AV-unprocessed.smi

> <i_m_source_file_index>
2952

> <i_lp_mmshare_version>
43012

> <i_f3d_flags>
0

> <s_epik_input>
W2NIXTFbY0hdYyhDbClbY0hdYyhjMTIpbihbQ0gyXVtDSDJdW09IXSljKG4yKVtDSDJdTjNbQ0gyXVtDSDJdT1tDSDJdW0NIMl0z

> <s_epik_cmdline>
J2VwaWtfcHl0aG9uJywgJy1waCcsICc3LjAnLCAnLXRuJywgJzgnLCAnLW1hJywgJzIwMCcsICctbWV0YWxfYmluZGluZycsICctaW1hZScsICc8aW5maWxlLm1hZT4nLCAnLW9tYWUnLCAnPG91dGZpbGUubWFlPic=

> <r_epik_Ionization_Penalty>
0.0905371

> <r_epik_Ionization_Penalty_Charging>
0

> <r_epik_Ionization_Penalty_Neutral>
0.0905371

> <r_epik_State_Penalty>
0.0787939

> <r_epik_Charging_Adjusted_Penalty>
0.0787939

> <i_epik_Tot_Q>
0

> <i_epik_Tot_abs_Q>
0

> <r_epik_Metal_State_Penalty>
8.42675e-05

> <b_epik_Metal_Only>
0

> <s_lp_Force_Field>
OPLS_2005

> <r_lp_Energy>
22.7724

> <b_lp_Chiralities_Consistent>
1

> <s_lp_Variant>
AV-unprocessed.smi:2952-1

> <Gold.Version>
5.8.1

> <Gold.Id.Protein>
6NUR|6NUR_protein|mol2

> <Gold.PLP.Fitness>
47.0960

> <Gold.PLP.PLP>
-38.8295

> <Gold.PLP.part.hbond>
-4.0000

> <Gold.PLP.part.metal>
0.0000

> <Gold.PLP.part.buried>
-1.4100

> <Gold.PLP.part.nonpolar>
-32.2160

> <Gold.PLP.part.repulsive>
0.0813

> <Gold.PLP.ligand.clash>
0.0000

> <Gold.PLP.ligand.torsion>
0.2958

> <Gold.PLP.Chemscore.Hbond>
2.9500

> <Gold.PLP.Chemscore.CHOScore>
0.0000

> <Gold.PLP.Chemscore.Metal>
0.0000

> <Gold.Chemscore.Hbonds>
donor molecule, donor type, donor heavy atom, donor atom, acceptor molecule, acceptor atom, score
      L1  H     1    21       P1  8028  0.76
      P1  H  7997  8008       L1    13  1.00
      P1  H 10752 10763       L1    10  1.00

> <Gold.PLP.Chemscore.Internal.Correction>
0.0080

> <Gold.Rescore>
     Score         DG    S(hbond)    S(metal)    S(lipo)     H(rot)  DE(clash)    DE(int)     intcor
     16.17     -18.05       1.57        0.00     109.00       2.13       0.14       1.74       ----

> <Gold.Chemscore.Fitness>
16.1653

> <Gold.Chemscore.DG>
-18.0463

> <Gold.Chemscore.ZeroCoef>
-5.4800

> <Gold.Chemscore.Hbond>
1.5734

> <Gold.Chemscore.Metal>
0.0000

> <Gold.Chemscore.Lipo>
108.9984

> <Gold.Chemscore.Internal_Hbond>
0.0000

> <Gold.Chemscore.DEClash>
0.1379

> <Gold.Chemscore.DEInternal>
1.7431

> <Gold.Chemscore.Rot>
2.1256

> <Gold.Chemscore.Internal.Correction>
   9.000000E+99

> <Gold.Chemscore.Hbonds>
donor molecule, donor type, donor heavy atom, donor atom, acceptor molecule, acceptor atom, score
      L1  H     1    21       P1  8028  0.12
      P1  H  7997  8008       L1    13  0.14
      P1  H 10752 10763       L1    10  0.32

> <Gold.Chemscore.Hbond.Weighted>
-5.2550

> <Gold.Chemscore.Metal.Weighted>
-0.0000

> <Gold.Chemscore.Lipo.Weighted>
-12.7528

> <Gold.Chemscore.Internal_Hbond.Weighted>
0.0000

> <Gold.Chemscore.DEClash.Weighted>
0.1379

> <Gold.Chemscore.DEInternal.Weighted>
1.7431

> <Gold.Chemscore.Rot.Weighted>
5.4415

> <Gold.Chemscore.Internal.Correction.Weighted>
   9.000000E+99

> <Gold.Protein.RotatedTorsions>
[ 6907 6896 6895 6894 ] final    8.05 input  -60.11 | X-H torsion
[ 7974 7965 7964 7962 ] final  -37.82 input  175.53 | X-H torsion
[ 8008 7997 7996 7995 ] final  -97.30 input   59.86 | X-H torsion
[ 10167 10162 10161 10158 ] final  135.04 input  -65.29 | X-H torsion
[ 10718 10713 10712 10709 ] final -121.38 input   66.30 | X-H torsion
[ 10763 10752 10751 10750 ] final   68.04 input  -60.55 | X-H torsion
[ 11005 11000 10999 10996 ] final  -23.85 input  -57.11 | X-H torsion

> <Gold.Protein.ActiveResidues>
 VAL166  LYS551  ARG553  GLY616  TRP617  ASP618  TYR619  PRO620  LYS621  CYS622 
 ASP623  PHE694  ASN695  SER759  ASP760  ASP761  ALA762  ILE779  LEU786  VAL792 
 PHE793  MET794  SER795  GLU796  ALA797  LYS798  CYS799  TRP800  GLU811  SER814 

> <Gold.Protein.RotatedAtoms>
  151.6998  135.0932  160.0248 H   0  0  0  0  0  0  0  0  0  0  0  0  # atno 6907 bound_to 6896
  152.3728  133.6437  159.6108 H   0  0  0  0  0  0  0  0  0  0  0  0  # atno 6908 bound_to 6896
  150.7686  133.9159  159.3425 H   0  0  0  0  0  0  0  0  0  0  0  0  # atno 6909 bound_to 6896
  146.0541  140.6440  142.9028 H   0  0  0  0  0  0  0  0  0  0  0  0  # atno 7974 bound_to 7965
  154.7859  140.0464  157.1163 H   0  0  0  0  0  0  0  0  0  0  0  0  # atno 8008 bound_to 7997
  154.9649  140.3082  155.4994 H   0  0  0  0  0  0  0  0  0  0  0  0  # atno 8009 bound_to 7997
  156.2943  140.2264  156.4737 H   0  0  0  0  0  0  0  0  0  0  0  0  # atno 8010 bound_to 7997
  139.5232  144.6537  151.5226 H   0  0  0  0  0  0  0  0  0  0  0  0  # atno 10167 bound_to 10162
  156.1333  130.6411  150.9656 H   0  0  0  0  0  0  0  0  0  0  0  0  # atno 10718 bound_to 10713
  153.0215  135.5262  154.7072 H   0  0  0  0  0  0  0  0  0  0  0  0  # atno 10763 bound_to 10752
  154.6165  135.2884  155.0377 H   0  0  0  0  0  0  0  0  0  0  0  0  # atno 10764 bound_to 10752
  154.1379  135.6582  153.4988 H   0  0  0  0  0  0  0  0  0  0  0  0  # atno 10765 bound_to 10752
  140.8790  133.7667  156.0279 H   0  0  0  0  0  0  0  0  0  0  0  0  # atno 11005 bound_to 11000
  144.7138  140.4137  143.7060 LP  0  0  0  0  0  0  0  0  0  0  0  0  # atno 17320 bound_to 7965
  145.6673  139.1592  143.2774 LP  0  0  0  0  0  0  0  0  0  0  0  0  # atno 17321 bound_to 7965
  140.6353  143.8996  150.6642 LP  0  0  0  0  0  0  0  0  0  0  0  0  # atno 17342 bound_to 10162
  140.2313  143.3733  152.1563 LP  0  0  0  0  0  0  0  0  0  0  0  0  # atno 17343 bound_to 10162
  157.6508  131.0897  150.8054 LP  0  0  0  0  0  0  0  0  0  0  0  0  # atno 17370 bound_to 10713
  156.8137  130.4961  149.5352 LP  0  0  0  0  0  0  0  0  0  0  0  0  # atno 17371 bound_to 10713
  140.8484  134.2984  157.5285 LP  0  0  0  0  0  0  0  0  0  0  0  0  # atno 17394 bound_to 11000
  139.8718  134.9454  156.3909 LP  0  0  0  0  0  0  0  0  0  0  0  0  # atno 17395 bound_to 11000

$$$$
