AV-unprocessed.smi:2862|AV-procd|sdf|11010|dock3
  -GOLD-   2272015473D 1   1.00000     0.00000
 Structure written by MMmdl.
 52 54  0  0  0  0  0  0  0  0  1 V2000
  151.8992  141.1125  159.5044 C   0  0  0  0  0  0  0  0  0  0  0  0
  151.3801  142.1866  158.5358 C   0  0  2  0  0  0  0  0  0  0  0  0
  151.3360  141.6578  157.1789 N   0  0  0  0  0  0  0  0  0  0  0  0
  150.6552  140.5752  156.7646 C   0  0  0  0  0  0  0  0  0  0  0  0
  150.0222  139.8502  157.5308 O   0  0  0  0  0  0  0  0  0  0  0  0
  150.6657  140.2512  155.2588 C   0  0  0  0  0  0  0  0  0  0  0  0
  149.3628  140.4270  154.5885 N   0  0  0  0  0  0  0  0  0  0  0  0
  148.7369  141.6814  154.7352 C   0  0  0  0  0  0  0  0  0  0  0  0
  147.5236  141.9383  154.2229 C   0  0  0  0  0  0  0  0  0  0  0  0
  146.8451  140.8847  153.5091 C   0  0  0  0  0  0  0  0  0  0  0  0
  147.4292  139.6726  153.3764 C   0  0  0  0  0  0  0  0  0  0  0  0
  146.7967  138.5773  152.6337 C   0  0  0  0  0  0  0  0  0  0  0  0
  146.8178  138.5158  151.4031 O   0  0  0  0  0  0  0  0  0  0  0  0
  146.1594  137.6395  153.3930 N   0  0  0  0  0  0  0  0  0  0  0  0
  146.4314  137.4404  154.8274 C   0  0  0  0  0  0  0  0  0  0  0  0
  145.2567  136.6195  152.8150 C   0  0  1  0  0  0  0  0  0  0  0  0
  143.8231  137.1571  152.6320 C   0  0  0  0  0  0  0  0  0  0  0  0
  145.7709  135.9694  151.5373 C   0  0  0  0  0  0  0  0  0  0  0  0
  144.9014  135.0270  150.7401 C   0  0  0  0  0  0  0  0  0  0  0  0
  146.1046  134.4982  151.4892 C   0  0  0  0  0  0  0  0  0  0  0  0
  148.7845  139.3928  153.8996 C   0  0  0  0  0  0  0  0  0  0  0  0
  149.3639  138.3098  153.7775 O   0  0  0  0  0  0  0  0  0  0  0  0
  152.2216  143.4459  158.6202 C   0  0  0  0  0  0  0  0  0  0  0  0
  152.2550  144.2861  159.8736 C   0  0  0  0  0  0  0  0  0  0  0  0
  151.5793  144.8116  158.6256 C   0  0  0  0  0  0  0  0  0  0  0  0
  151.9164  141.4858  160.5287 H   0  0  0  0  0  0  0  0  0  0  0  0
  152.9123  140.8024  159.2469 H   0  0  0  0  0  0  0  0  0  0  0  0
  151.2655  140.2251  159.4908 H   0  0  0  0  0  0  0  0  0  0  0  0
  150.3643  142.4526  158.8344 H   0  0  0  0  0  0  0  0  0  0  0  0
  151.8336  142.1877  156.4783 H   0  0  0  0  0  0  0  0  0  0  0  0
  151.4249  140.8759  154.7862 H   0  0  0  0  0  0  0  0  0  0  0  0
  151.0222  139.2283  155.1249 H   0  0  0  0  0  0  0  0  0  0  0  0
  149.3002  142.4143  155.2945 H   0  0  0  0  0  0  0  0  0  0  0  0
  147.0618  142.9063  154.3512 H   0  0  0  0  0  0  0  0  0  0  0  0
  145.8704  141.0765  153.0836 H   0  0  0  0  0  0  0  0  0  0  0  0
  147.4438  137.7337  155.1090 H   0  0  0  0  0  0  0  0  0  0  0  0
  146.3436  136.3931  155.1186 H   0  0  0  0  0  0  0  0  0  0  0  0
  145.7253  138.0113  155.4308 H   0  0  0  0  0  0  0  0  0  0  0  0
  145.1497  135.8150  153.5445 H   0  0  0  0  0  0  0  0  0  0  0  0
  143.1392  136.3487  152.3718 H   0  0  0  0  0  0  0  0  0  0  0  0
  143.7546  137.9012  151.8388 H   0  0  0  0  0  0  0  0  0  0  0  0
  143.4539  137.6121  153.5516 H   0  0  0  0  0  0  0  0  0  0  0  0
  146.4105  136.6153  150.9395 H   0  0  0  0  0  0  0  0  0  0  0  0
  143.9173  134.7844  151.1363 H   0  0  0  0  0  0  0  0  0  0  0  0
  144.9673  135.0809  149.6553 H   0  0  0  0  0  0  0  0  0  0  0  0
  146.9733  134.2017  150.9051 H   0  0  0  0  0  0  0  0  0  0  0  0
  145.9185  133.9046  152.3818 H   0  0  0  0  0  0  0  0  0  0  0  0
  153.1629  143.3743  158.0778 H   0  0  0  0  0  0  0  0  0  0  0  0
  151.6152  143.9891  160.7026 H   0  0  0  0  0  0  0  0  0  0  0  0
  153.2079  144.7294  160.1553 H   0  0  0  0  0  0  0  0  0  0  0  0
  152.0821  145.6023  158.0722 H   0  0  0  0  0  0  0  0  0  0  0  0
  150.4921  144.8602  158.6246 H   0  0  0  0  0  0  0  0  0  0  0  0
  1  2  1  0  0  0  0
  1 26  1  0  0  0  0
  1 27  1  0  0  0  0
  1 28  1  0  0  0  0
  2  3  1  0  0  0  0
  2 23  1  0  0  0  0
  2 29  1  0  0  0  0
  3  4  1  0  0  0  0
  3 30  1  0  0  0  0
  4  5  2  0  0  0  0
  4  6  1  0  0  0  0
  6  7  1  0  0  0  0
  6 31  1  0  0  0  0
  6 32  1  0  0  0  0
  7 21  1  0  0  0  0
  7  8  1  0  0  0  0
  8  9  2  0  0  0  0
  8 33  1  0  0  0  0
  9 10  1  0  0  0  0
  9 34  1  0  0  0  0
 10 11  2  0  0  0  0
 10 35  1  0  0  0  0
 11 12  1  0  0  0  0
 11 21  1  0  0  0  0
 12 13  2  0  0  0  0
 12 14  1  0  0  0  0
 14 15  1  0  0  0  0
 14 16  1  0  0  0  0
 15 36  1  0  0  0  0
 15 37  1  0  0  0  0
 15 38  1  0  0  0  0
 16 17  1  0  0  0  0
 16 18  1  0  0  0  0
 16 39  1  0  0  0  0
 17 40  1  0  0  0  0
 17 41  1  0  0  0  0
 17 42  1  0  0  0  0
 18 20  1  0  0  0  0
 18 19  1  0  0  0  0
 18 43  1  0  0  0  0
 19 20  1  0  0  0  0
 19 44  1  0  0  0  0
 19 45  1  0  0  0  0
 20 46  1  0  0  0  0
 20 47  1  0  0  0  0
 21 22  2  0  0  0  0
 23 25  1  0  0  0  0
 23 24  1  0  0  0  0
 23 48  1  0  0  0  0
 24 25  1  0  0  0  0
 24 49  1  0  0  0  0
 24 50  1  0  0  0  0
 25 51  1  0  0  0  0
 25 52  1  0  0  0  0
M  END
> <s_m_source_file>
AV-unprocessed.smi

> <i_m_source_file_index>
2862

> <i_lp_mmshare_version>
43012

> <i_f3d_flags>
0

> <s_epik_input>
W0NIMl0xW0NIMl1bQ0hdMVtDQEhdKFtDSDNdKVtOSF1DKD1PKVtDSDJdbjJbY0hdW2NIXVtjSF1jKGMyPU8pQyg9TylOKFtDSDNdKVtDQEhdKFtDSDNdKVtDSF0zW0NIMl1bQ0gyXTM=

> <s_epik_cmdline>
J2VwaWtfcHl0aG9uJywgJy1waCcsICc3LjAnLCAnLXRuJywgJzgnLCAnLW1hJywgJzIwMCcsICctbWV0YWxfYmluZGluZycsICctaW1hZScsICc8aW5maWxlLm1hZT4nLCAnLW9tYWUnLCAnPG91dGZpbGUubWFlPic=

> <r_lp_tautomer_probability>
1

> <r_epik_Ionization_Penalty>
4.00841e-08

> <r_epik_Ionization_Penalty_Charging>
2.07773e-08

> <r_epik_Ionization_Penalty_Neutral>
1.93069e-08

> <r_epik_State_Penalty>
-0

> <r_epik_Charging_Adjusted_Penalty>
2.07773e-08

> <i_epik_Tot_Q>
0

> <i_epik_Tot_abs_Q>
0

> <r_epik_Metal_State_Penalty>
-0

> <b_epik_Metal_Only>
0

> <s_lp_Force_Field>
OPLS_2005

> <r_lp_Energy>
59.7867

> <b_lp_Chiralities_Consistent>
1

> <s_lp_Variant>
AV-unprocessed.smi:2862-3

> <Gold.Version>
5.8.1

> <Gold.Id.Protein>
6NUR|6NUR_protein|mol2

> <Gold.PLP.Fitness>
49.5210

> <Gold.PLP.PLP>
-46.8383

> <Gold.PLP.part.hbond>
-0.8875

> <Gold.PLP.part.metal>
0.0000

> <Gold.PLP.part.buried>
0.3925

> <Gold.PLP.part.nonpolar>
-48.8717

> <Gold.PLP.part.repulsive>
2.7564

> <Gold.PLP.ligand.clash>
0.0000

> <Gold.PLP.ligand.torsion>
3.5297

> <Gold.PLP.Chemscore.Hbond>
0.7963

> <Gold.PLP.Chemscore.CHOScore>
1.0000

> <Gold.PLP.Chemscore.Metal>
0.0000

> <Gold.Chemscore.Hbonds>
donor molecule, donor type, donor heavy atom, donor atom, acceptor molecule, acceptor atom, score
      P1  H  7954  7966       L1    13  0.78
      L1  C     8    33       P1  8028  1.00

> <Gold.PLP.Chemscore.Internal.Correction>
4.3533

> <Gold.Rescore>
     Score         DG    S(hbond)    S(metal)    S(lipo)     H(rot)  DE(clash)    DE(int)     intcor
      8.83     -17.68       0.87        0.00     117.33       1.73       3.89       4.97       ----

> <Gold.Chemscore.Fitness>
8.8269

> <Gold.Chemscore.DG>
-17.6812

> <Gold.Chemscore.ZeroCoef>
-5.4800

> <Gold.Chemscore.Hbond>
0.8725

> <Gold.Chemscore.Metal>
0.0000

> <Gold.Chemscore.Lipo>
117.3348

> <Gold.Chemscore.Internal_Hbond>
0.0000

> <Gold.Chemscore.DEClash>
3.8852

> <Gold.Chemscore.DEInternal>
4.9691

> <Gold.Chemscore.Rot>
1.7348

> <Gold.Chemscore.Internal.Correction>
   9.000000E+99

> <Gold.Chemscore.Hbonds>
donor molecule, donor type, donor heavy atom, donor atom, acceptor molecule, acceptor atom, score
      P1  H  7954  7966       L1    13  0.76

> <Gold.Chemscore.Hbond.Weighted>
-2.9142

> <Gold.Chemscore.Metal.Weighted>
-0.0000

> <Gold.Chemscore.Lipo.Weighted>
-13.7282

> <Gold.Chemscore.Internal_Hbond.Weighted>
0.0000

> <Gold.Chemscore.DEClash.Weighted>
3.8852

> <Gold.Chemscore.DEInternal.Weighted>
4.9691

> <Gold.Chemscore.Rot.Weighted>
4.4412

> <Gold.Chemscore.Internal.Correction.Weighted>
   9.000000E+99

> <Gold.Protein.RotatedTorsions>
[ 6907 6896 6895 6894 ] final  -81.19 input  -60.11 | X-H torsion
[ 7974 7965 7964 7962 ] final -110.75 input  175.53 | X-H torsion
[ 8008 7997 7996 7995 ] final  -90.68 input   59.86 | X-H torsion
[ 10167 10162 10161 10158 ] final  147.43 input  -65.29 | X-H torsion
[ 10718 10713 10712 10709 ] final   35.89 input   66.30 | X-H torsion
[ 10763 10752 10751 10750 ] final   30.65 input  -60.55 | X-H torsion
[ 11005 11000 10999 10996 ] final -123.05 input  -57.11 | X-H torsion

> <Gold.Protein.ActiveResidues>
 VAL166  LYS551  ARG553  GLY616  TRP617  ASP618  TYR619  PRO620  LYS621  CYS622 
 ASP623  PHE694  ASN695  SER759  ASP760  ASP761  ALA762  ILE779  LEU786  VAL792 
 PHE793  MET794  SER795  GLU796  ALA797  LYS798  CYS799  TRP800  GLU811  SER814 

> <Gold.Protein.RotatedAtoms>
  150.6916  134.3855  159.5052 H   0  0  0  0  0  0  0  0  0  0  0  0  # atno 6907 bound_to 6896
  152.1651  134.8878  160.0548 H   0  0  0  0  0  0  0  0  0  0  0  0  # atno 6908 bound_to 6896
  151.9925  133.3761  159.4187 H   0  0  0  0  0  0  0  0  0  0  0  0  # atno 6909 bound_to 6896
  145.1645  140.8895  143.3571 H   0  0  0  0  0  0  0  0  0  0  0  0  # atno 7974 bound_to 7965
  154.7015  140.0527  157.0463 H   0  0  0  0  0  0  0  0  0  0  0  0  # atno 8008 bound_to 7997
  155.0678  140.3196  155.4621 H   0  0  0  0  0  0  0  0  0  0  0  0  # atno 8009 bound_to 7997
  156.2761  140.2087  156.5805 H   0  0  0  0  0  0  0  0  0  0  0  0  # atno 8010 bound_to 7997
  139.4890  144.5756  151.6972 H   0  0  0  0  0  0  0  0  0  0  0  0  # atno 10167 bound_to 10162
  157.3283  130.7484  149.6830 H   0  0  0  0  0  0  0  0  0  0  0  0  # atno 10718 bound_to 10713
  153.0359  135.6459  154.1077 H   0  0  0  0  0  0  0  0  0  0  0  0  # atno 10763 bound_to 10752
  154.0792  135.2874  155.3295 H   0  0  0  0  0  0  0  0  0  0  0  0  # atno 10764 bound_to 10752
  154.6541  135.5415  153.8002 H   0  0  0  0  0  0  0  0  0  0  0  0  # atno 10765 bound_to 10752
  140.9948  134.0487  157.3610 H   0  0  0  0  0  0  0  0  0  0  0  0  # atno 11005 bound_to 11000
  145.0297  139.3352  143.6031 LP  0  0  0  0  0  0  0  0  0  0  0  0  # atno 17320 bound_to 7965
  146.3478  139.9629  142.8715 LP  0  0  0  0  0  0  0  0  0  0  0  0  # atno 17321 bound_to 7965
  140.5352  144.0668  150.6067 LP  0  0  0  0  0  0  0  0  0  0  0  0  # atno 17342 bound_to 10162
  140.3671  143.2875  152.0319 LP  0  0  0  0  0  0  0  0  0  0  0  0  # atno 17343 bound_to 10162
  155.9693  130.4203  150.4415 LP  0  0  0  0  0  0  0  0  0  0  0  0  # atno 17370 bound_to 10713
  157.2442  131.0532  151.2418 LP  0  0  0  0  0  0  0  0  0  0  0  0  # atno 17371 bound_to 10713
  139.9009  135.0164  156.7265 LP  0  0  0  0  0  0  0  0  0  0  0  0  # atno 17394 bound_to 11000
  140.6983  133.9329  155.8008 LP  0  0  0  0  0  0  0  0  0  0  0  0  # atno 17395 bound_to 11000

$$$$
