AV-unprocessed.smi:183|AV-procd|sdf|1460|dock10
  -GOLD-   2262019273D 1   1.00000     0.00000
 Structure written by MMmdl.
 55 57  0  0  0  0  0  0  0  0  1 V2000
  150.9198  145.3167  158.6875 C   0  0  0  0  0  0  0  0  0  0  0  0
  151.3027  143.8535  158.4965 C   0  0  0  0  0  0  0  0  0  0  0  0
  152.1165  143.3241  159.2535 O   0  0  0  0  0  0  0  0  0  0  0  0
  150.7067  143.2101  157.4804 N   0  0  0  0  0  0  0  0  0  0  0  0
  150.9430  141.8142  157.1359 C   0  0  0  0  0  0  0  0  0  0  0  0
  149.6172  141.0686  156.8779 C   0  0  0  0  0  0  0  0  0  0  0  0
  149.8012  139.6993  156.3871 N   0  0  0  0  0  0  0  0  0  0  0  0
  149.9385  138.8259  157.4162 C   0  0  0  0  0  0  0  0  0  0  0  0
  151.1354  138.8113  158.0554 N   0  0  0  0  0  0  0  0  0  0  0  0
  151.3535  137.9503  159.0532 C   0  0  0  0  0  0  0  0  0  0  0  0
  150.5307  137.0268  159.5533 N   0  0  0  0  0  0  0  0  0  0  0  0
  149.3299  137.0298  158.9069 C   0  0  0  0  0  0  0  0  0  0  0  0
  148.9468  137.8957  157.8437 C   0  0  0  0  0  0  0  0  0  0  0  0
  147.6460  137.6072  157.4470 N   0  0  0  0  0  0  0  0  0  0  0  0
  147.2838  136.6261  158.2266 C   0  0  0  0  0  0  0  0  0  0  0  0
  148.2412  136.2026  159.1201 N   0  0  0  0  0  0  0  0  0  0  0  0
  148.1134  135.1209  160.0834 C   0  0  0  0  0  0  0  0  0  0  0  0
  146.7880  135.1520  160.8950 C   0  0  2  0  0  0  0  0  0  0  0  0
  145.7013  134.8376  160.0451 O   0  0  0  0  0  0  0  0  0  0  0  0
  146.5087  136.4862  161.5773 C   0  0  0  0  0  0  0  0  0  0  0  0
  147.3301  136.3819  162.8587 C   0  0  0  0  0  0  0  0  0  0  0  0
  147.3687  134.9943  163.1799 O   0  0  0  0  0  0  0  0  0  0  0  0
  146.7861  134.2284  162.1281 C   0  0  2  0  0  0  0  0  0  0  0  0
  147.4974  132.8753  161.9795 C   0  0  0  0  0  0  0  0  0  0  0  0
  150.5750  139.4567  155.1578 C   0  0  0  0  0  0  0  0  0  0  0  0
  150.2110  138.1050  154.5139 C   0  0  0  0  0  0  0  0  0  0  0  0
  152.0998  139.4911  155.4011 C   0  0  0  0  0  0  0  0  0  0  0  0
  149.8631  145.4027  158.9420 H   0  0  0  0  0  0  0  0  0  0  0  0
  151.1039  145.8825  157.7738 H   0  0  0  0  0  0  0  0  0  0  0  0
  151.5029  145.7679  159.4913 H   0  0  0  0  0  0  0  0  0  0  0  0
  150.0490  143.7208  156.9090 H   0  0  0  0  0  0  0  0  0  0  0  0
  151.5808  141.7694  156.2531 H   0  0  0  0  0  0  0  0  0  0  0  0
  151.5095  141.3501  157.9428 H   0  0  0  0  0  0  0  0  0  0  0  0
  149.0334  141.0377  157.7995 H   0  0  0  0  0  0  0  0  0  0  0  0
  149.0014  141.6316  156.1771 H   0  0  0  0  0  0  0  0  0  0  0  0
  152.3294  138.0045  159.5124 H   0  0  0  0  0  0  0  0  0  0  0  0
  146.3069  136.1695  158.1601 H   0  0  0  0  0  0  0  0  0  0  0  0
  148.2058  134.1786  159.5422 H   0  0  0  0  0  0  0  0  0  0  0  0
  148.9708  135.1692  160.7557 H   0  0  0  0  0  0  0  0  0  0  0  0
  144.8979  135.0667  160.4863 H   0  0  0  0  0  0  0  0  0  0  0  0
  146.7483  137.3668  160.9828 H   0  0  0  0  0  0  0  0  0  0  0  0
  145.4527  136.5595  161.8439 H   0  0  0  0  0  0  0  0  0  0  0  0
  148.3498  136.7307  162.6916 H   0  0  0  0  0  0  0  0  0  0  0  0
  146.9019  136.9669  163.6729 H   0  0  0  0  0  0  0  0  0  0  0  0
  145.7523  134.0434  162.4269 H   0  0  0  0  0  0  0  0  0  0  0  0
  147.0754  132.2999  161.1551 H   0  0  0  0  0  0  0  0  0  0  0  0
  147.3888  132.2821  162.8875 H   0  0  0  0  0  0  0  0  0  0  0  0
  148.5650  132.9968  161.7964 H   0  0  0  0  0  0  0  0  0  0  0  0
  150.3268  140.2388  154.4402 H   0  0  0  0  0  0  0  0  0  0  0  0
  150.8171  137.9181  153.6272 H   0  0  0  0  0  0  0  0  0  0  0  0
  149.1704  138.0720  154.1928 H   0  0  0  0  0  0  0  0  0  0  0  0
  150.3758  137.2791  155.2067 H   0  0  0  0  0  0  0  0  0  0  0  0
  152.6455  139.2691  154.4837 H   0  0  0  0  0  0  0  0  0  0  0  0
  152.3965  138.7534  156.1473 H   0  0  0  0  0  0  0  0  0  0  0  0
  152.4484  140.4657  155.7407 H   0  0  0  0  0  0  0  0  0  0  0  0
  1  2  1  0  0  0  0
  1 28  1  0  0  0  0
  1 29  1  0  0  0  0
  1 30  1  0  0  0  0
  2  3  2  0  0  0  0
  2  4  1  0  0  0  0
  4  5  1  0  0  0  0
  4 31  1  0  0  0  0
  5  6  1  0  0  0  0
  5 32  1  0  0  0  0
  5 33  1  0  0  0  0
  6  7  1  0  0  0  0
  6 34  1  0  0  0  0
  6 35  1  0  0  0  0
  7  8  1  0  0  0  0
  7 25  1  0  0  0  0
  8 13  1  0  0  0  0
  8  9  2  0  0  0  0
  9 10  1  0  0  0  0
 10 11  2  0  0  0  0
 10 36  1  0  0  0  0
 11 12  1  0  0  0  0
 12 16  1  0  0  0  0
 12 13  2  0  0  0  0
 13 14  1  0  0  0  0
 14 15  2  0  0  0  0
 15 16  1  0  0  0  0
 15 37  1  0  0  0  0
 16 17  1  0  0  0  0
 17 18  1  0  0  0  0
 17 38  1  0  0  0  0
 17 39  1  0  0  0  0
 18 23  1  0  0  0  0
 18 19  1  0  0  0  0
 18 20  1  0  0  0  0
 19 40  1  0  0  0  0
 20 21  1  0  0  0  0
 20 41  1  0  0  0  0
 20 42  1  0  0  0  0
 21 22  1  0  0  0  0
 21 43  1  0  0  0  0
 21 44  1  0  0  0  0
 22 23  1  0  0  0  0
 23 24  1  0  0  0  0
 23 45  1  0  0  0  0
 24 46  1  0  0  0  0
 24 47  1  0  0  0  0
 24 48  1  0  0  0  0
 25 26  1  0  0  0  0
 25 27  1  0  0  0  0
 25 49  1  0  0  0  0
 26 50  1  0  0  0  0
 26 51  1  0  0  0  0
 26 52  1  0  0  0  0
 27 53  1  0  0  0  0
 27 54  1  0  0  0  0
 27 55  1  0  0  0  0
M  END
> <s_m_source_file>
AV-unprocessed.smi

> <i_m_source_file_index>
183

> <i_lp_mmshare_version>
43012

> <i_f3d_flags>
0

> <s_epik_input>
W0NIM11DKD1PKVtOSF1bQ0gyXVtDSDJdTihbQ0hdKFtDSDNdKVtDSDNdKWMobltjSF1uMSljKGMxMiluW2NIXW4yW0NIMl1bQ0BAXTMoW09IXSlbQ0gyXVtDSDJdT1tDQEhdM1tDSDNd

> <s_epik_cmdline>
J2VwaWtfcHl0aG9uJywgJy1waCcsICc3LjAnLCAnLXRuJywgJzgnLCAnLW1hJywgJzIwMCcsICctbWV0YWxfYmluZGluZycsICctaW1hZScsICc8aW5maWxlLm1hZT4nLCAnLW9tYWUnLCAnPG91dGZpbGUubWFlPic=

> <r_lp_tautomer_probability>
1

> <r_epik_Ionization_Penalty>
0.00156158

> <r_epik_Ionization_Penalty_Charging>
0

> <r_epik_Ionization_Penalty_Neutral>
0.00156158

> <r_epik_State_Penalty>
0.000865808

> <r_epik_Charging_Adjusted_Penalty>
0.000865808

> <i_epik_Tot_Q>
0

> <i_epik_Tot_abs_Q>
0

> <r_epik_Metal_State_Penalty>
-0

> <b_epik_Metal_Only>
0

> <s_lp_Force_Field>
OPLS_2005

> <r_lp_Energy>
30.6117

> <b_lp_Chiralities_Consistent>
1

> <s_lp_Variant>
AV-unprocessed.smi:183-4

> <Gold.Version>
5.8.1

> <Gold.Id.Protein>
6NUR|6NUR_protein|mol2

> <Gold.PLP.Fitness>
49.9858

> <Gold.PLP.PLP>
-44.8841

> <Gold.PLP.part.hbond>
-1.9834

> <Gold.PLP.part.metal>
0.0000

> <Gold.PLP.part.buried>
-7.1026

> <Gold.PLP.part.nonpolar>
-36.2781

> <Gold.PLP.part.repulsive>
0.0111

> <Gold.PLP.ligand.clash>
0.0000

> <Gold.PLP.ligand.torsion>
0.9656

> <Gold.PLP.Chemscore.Hbond>
2.0000

> <Gold.PLP.Chemscore.CHOScore>
0.0000

> <Gold.PLP.Chemscore.Metal>
0.0000

> <Gold.Chemscore.Hbonds>
donor molecule, donor type, donor heavy atom, donor atom, acceptor molecule, acceptor atom, score
      L1  H     4    31       P1  8028  1.00
      P1  H  6896  6907       L1    11  0.93

> <Gold.PLP.Chemscore.Internal.Correction>
1.0328

> <Gold.Rescore>
     Score         DG    S(hbond)    S(metal)    S(lipo)     H(rot)  DE(clash)    DE(int)     intcor
     11.20     -13.51       1.90        0.00      89.84       3.45       0.03       2.29       ----

> <Gold.Chemscore.Fitness>
11.1995

> <Gold.Chemscore.DG>
-13.5133

> <Gold.Chemscore.ZeroCoef>
-5.4800

> <Gold.Chemscore.Hbond>
1.8987

> <Gold.Chemscore.Metal>
0.0000

> <Gold.Chemscore.Lipo>
89.8389

> <Gold.Chemscore.Internal_Hbond>
0.0000

> <Gold.Chemscore.DEClash>
0.0275

> <Gold.Chemscore.DEInternal>
2.2863

> <Gold.Chemscore.Rot>
3.4451

> <Gold.Chemscore.Internal.Correction>
   9.000000E+99

> <Gold.Chemscore.Hbonds>
donor molecule, donor type, donor heavy atom, donor atom, acceptor molecule, acceptor atom, score
      L1  H     4    31       P1  8028  0.98
      P1  H  6896  6907       L1    11  0.57

> <Gold.Chemscore.Hbond.Weighted>
-6.3416

> <Gold.Chemscore.Metal.Weighted>
-0.0000

> <Gold.Chemscore.Lipo.Weighted>
-10.5112

> <Gold.Chemscore.Internal_Hbond.Weighted>
0.0000

> <Gold.Chemscore.DEClash.Weighted>
0.0275

> <Gold.Chemscore.DEInternal.Weighted>
2.2863

> <Gold.Chemscore.Rot.Weighted>
8.8194

> <Gold.Chemscore.Internal.Correction.Weighted>
   9.000000E+99

> <Gold.Protein.RotatedTorsions>
[ 6907 6896 6895 6894 ] final  -30.55 input  -60.11 | X-H torsion
[ 7974 7965 7964 7962 ] final  -66.97 input  175.53 | X-H torsion
[ 8008 7997 7996 7995 ] final  164.71 input   59.86 | X-H torsion
[ 10167 10162 10161 10158 ] final  -67.33 input  -65.29 | X-H torsion
[ 10718 10713 10712 10709 ] final  -75.19 input   66.30 | X-H torsion
[ 10763 10752 10751 10750 ] final  -16.00 input  -60.55 | X-H torsion
[ 11005 11000 10999 10996 ] final -136.86 input  -57.11 | X-H torsion

> <Gold.Protein.ActiveResidues>
 VAL166  LYS551  ARG553  GLY616  TRP617  ASP618  TYR619  PRO620  LYS621  CYS622 
 ASP623  PHE694  ASN695  SER759  ASP760  ASP761  ALA762  ILE779  LEU786  VAL792 
 PHE793  MET794  SER795  GLU796  ALA797  LYS798  CYS799  TRP800  GLU811  SER814 

> <Gold.Protein.RotatedAtoms>
  151.1040  134.9989  159.8462 H   0  0  0  0  0  0  0  0  0  0  0  0  # atno 6907 bound_to 6896
  152.5439  134.1915  159.8686 H   0  0  0  0  0  0  0  0  0  0  0  0  # atno 6908 bound_to 6896
  151.1961  133.4594  159.2629 H   0  0  0  0  0  0  0  0  0  0  0  0  # atno 6909 bound_to 6896
  145.7351  140.8979  143.0559 H   0  0  0  0  0  0  0  0  0  0  0  0  # atno 7974 bound_to 7965
  156.1858  140.1689  156.8187 H   0  0  0  0  0  0  0  0  0  0  0  0  # atno 8008 bound_to 7997
  154.5413  140.0736  156.8546 H   0  0  0  0  0  0  0  0  0  0  0  0  # atno 8009 bound_to 7997
  155.3210  140.3373  155.4243 H   0  0  0  0  0  0  0  0  0  0  0  0  # atno 8010 bound_to 7997
  140.5590  143.2312  151.6764 H   0  0  0  0  0  0  0  0  0  0  0  0  # atno 10167 bound_to 10162
  156.0216  130.4435  150.3006 H   0  0  0  0  0  0  0  0  0  0  0  0  # atno 10718 bound_to 10713
  153.5519  135.7011  153.5587 H   0  0  0  0  0  0  0  0  0  0  0  0  # atno 10763 bound_to 10752
  153.3507  135.3996  155.1644 H   0  0  0  0  0  0  0  0  0  0  0  0  # atno 10764 bound_to 10752
  154.8660  135.3765  154.5031 H   0  0  0  0  0  0  0  0  0  0  0  0  # atno 10765 bound_to 10752
  140.8766  134.1984  157.4618 H   0  0  0  0  0  0  0  0  0  0  0  0  # atno 11005 bound_to 11000
  144.6884  139.9384  143.7474 LP  0  0  0  0  0  0  0  0  0  0  0  0  # atno 17320 bound_to 7965
  146.0501  139.3503  143.0644 LP  0  0  0  0  0  0  0  0  0  0  0  0  # atno 17321 bound_to 7965
  139.5061  144.3692  152.0486 LP  0  0  0  0  0  0  0  0  0  0  0  0  # atno 17342 bound_to 10162
  140.2817  144.3852  150.6117 LP  0  0  0  0  0  0  0  0  0  0  0  0  # atno 17343 bound_to 10162
  157.1108  131.0221  151.3048 LP  0  0  0  0  0  0  0  0  0  0  0  0  # atno 17370 bound_to 10713
  157.4706  130.7706  149.7319 LP  0  0  0  0  0  0  0  0  0  0  0  0  # atno 17371 bound_to 10713
  139.8716  134.9798  156.5052 LP  0  0  0  0  0  0  0  0  0  0  0  0  # atno 17394 bound_to 11000
  140.8511  133.8131  155.9170 LP  0  0  0  0  0  0  0  0  0  0  0  0  # atno 17395 bound_to 11000

$$$$
