AV-unprocessed.smi:169|AV-procd|sdf|1402|dock4
  -GOLD-   2262019153D 1   1.00000     0.00000
 Structure written by MMmdl.
 56 60  0  0  0  0  0  0  0  0  2 V2000
  147.0818  139.1801  152.8092 C   0  0  0  0  0  0  0  0  0  0  0  0
  146.9490  140.5342  153.5280 C   0  0  0  0  0  0  0  0  0  0  0  0
  147.8391  140.6745  154.7101 N   0  3  2  0  0  0  0  0  0  0  0  0
  147.5440  141.9163  155.5106 C   0  0  0  0  0  0  0  0  0  0  0  0
  148.0259  141.8723  157.0092 C   0  0  0  0  0  0  0  0  0  0  0  0
  149.3814  141.1608  157.1871 C   0  0  3  0  0  0  0  0  0  0  0  0
  150.8654  141.5498  157.1792 C   0  0  0  0  0  0  0  0  0  0  0  0
  151.3752  140.6709  155.9899 C   0  0  0  0  0  0  0  0  0  0  0  0
  150.1439  139.8126  155.5461 C   0  0  2  0  0  0  0  0  0  0  0  0
  149.2930  140.4299  154.3773 C   0  0  0  0  0  0  0  0  0  0  0  0
  149.3318  139.7777  156.7469 N   0  0  0  0  0  0  0  0  0  0  0  0
  149.4918  138.7690  157.6428 C   0  0  0  0  0  0  0  0  0  0  0  0
  150.6726  138.6433  158.3050 N   0  0  0  0  0  0  0  0  0  0  0  0
  150.8474  137.6639  159.1964 C   0  0  0  0  0  0  0  0  0  0  0  0
  149.9825  136.7250  159.5834 N   0  0  0  0  0  0  0  0  0  0  0  0
  148.7859  136.8602  158.9434 C   0  0  0  0  0  0  0  0  0  0  0  0
  148.4595  137.8427  157.9661 C   0  0  0  0  0  0  0  0  0  0  0  0
  147.1456  137.6700  157.5468 N   0  0  0  0  0  0  0  0  0  0  0  0
  146.7265  136.6362  158.2238 C   0  0  0  0  0  0  0  0  0  0  0  0
  147.6405  136.0984  159.1020 N   0  0  0  0  0  0  0  0  0  0  0  0
  147.4430  134.9563  159.9850 C   0  0  0  0  0  0  0  0  0  0  0  0
  146.9934  135.3092  161.4225 C   0  0  0  0  0  0  0  0  0  0  0  0
  146.3575  134.0305  161.9957 C   0  0  0  0  0  0  0  0  0  0  0  0
  145.8636  134.2037  163.3088 O   0  0  0  0  0  0  0  0  0  0  0  0
  148.0096  136.0533  162.3087 C   0  0  0  0  0  0  0  0  0  0  0  0
  147.3731  137.3245  162.0509 O   0  0  0  0  0  0  0  0  0  0  0  0
  146.2032  136.6205  161.5788 C   0  0  0  0  0  0  0  0  0  0  0  0
  146.3992  139.1311  151.9604 H   0  0  0  0  0  0  0  0  0  0  0  0
  146.8399  138.3460  153.4678 H   0  0  0  0  0  0  0  0  0  0  0  0
  148.0889  139.0235  152.4228 H   0  0  0  0  0  0  0  0  0  0  0  0
  147.1590  141.3424  152.8264 H   0  0  0  0  0  0  0  0  0  0  0  0
  145.9153  140.6801  153.8445 H   0  0  0  0  0  0  0  0  0  0  0  0
  147.9960  142.7707  155.0045 H   0  0  0  0  0  0  0  0  0  0  0  0
  146.4699  142.1065  155.5109 H   0  0  0  0  0  0  0  0  0  0  0  0
  148.0588  142.8809  157.4247 H   0  0  0  0  0  0  0  0  0  0  0  0
  147.2834  141.3333  157.5987 H   0  0  0  0  0  0  0  0  0  0  0  0
  149.5178  141.7983  156.3218 H   0  0  0  0  0  0  0  0  0  0  0  0
  151.0763  142.6175  157.0599 H   0  0  0  0  0  0  0  0  0  0  0  0
  151.3405  141.2316  158.1079 H   0  0  0  0  0  0  0  0  0  0  0  0
  151.7728  141.2713  155.1713 H   0  0  0  0  0  0  0  0  0  0  0  0
  152.1817  140.0236  156.3368 H   0  0  0  0  0  0  0  0  0  0  0  0
  150.4892  138.8239  155.2485 H   0  0  0  0  0  0  0  0  0  0  0  0
  149.3538  139.7335  153.5399 H   0  0  0  0  0  0  0  0  0  0  0  0
  149.7375  141.3569  154.0130 H   0  0  0  0  0  0  0  0  0  0  0  0
  151.8173  137.6302  159.6704 H   0  0  0  0  0  0  0  0  0  0  0  0
  145.7290  136.2405  158.1022 H   0  0  0  0  0  0  0  0  0  0  0  0
  146.7115  134.2991  159.5131 H   0  0  0  0  0  0  0  0  0  0  0  0
  148.3761  134.3916  160.0046 H   0  0  0  0  0  0  0  0  0  0  0  0
  145.5293  133.6971  161.3694 H   0  0  0  0  0  0  0  0  0  0  0  0
  147.0819  133.2155  162.0182 H   0  0  0  0  0  0  0  0  0  0  0  0
  146.0471  135.0886  163.5857 H   0  0  0  0  0  0  0  0  0  0  0  0
  147.9627  135.7917  163.3668 H   0  0  0  0  0  0  0  0  0  0  0  0
  149.0401  136.0157  161.9601 H   0  0  0  0  0  0  0  0  0  0  0  0
  145.8078  137.0255  160.6487 H   0  0  0  0  0  0  0  0  0  0  0  0
  145.4211  136.5927  162.3390 H   0  0  0  0  0  0  0  0  0  0  0  0
  147.5755  139.9043  155.3086 H   0  0  0  0  0  0  0  0  0  0  0  0
  1  2  1  0  0  0  0
  1 28  1  0  0  0  0
  1 29  1  0  0  0  0
  1 30  1  0  0  0  0
  2  3  1  0  0  0  0
  2 31  1  0  0  0  0
  2 32  1  0  0  0  0
  3 10  1  0  0  0  0
  3  4  1  0  0  0  0
  3 56  1  0  0  0  0
  4  5  1  0  0  0  0
  4 33  1  0  0  0  0
  4 34  1  0  0  0  0
  5  6  1  0  0  0  0
  5 35  1  0  0  0  0
  5 36  1  0  0  0  0
  6 11  1  0  0  0  0
  6  7  1  0  0  0  0
  6 37  1  0  0  0  0
  7  8  1  0  0  0  0
  7 38  1  0  0  0  0
  7 39  1  0  0  0  0
  8  9  1  0  0  0  0
  8 40  1  0  0  0  0
  8 41  1  0  0  0  0
  9 10  1  0  0  0  0
  9 11  1  0  0  0  0
  9 42  1  0  0  0  0
 10 43  1  0  0  0  0
 10 44  1  0  0  0  0
 11 12  1  0  0  0  0
 12 17  1  0  0  0  0
 12 13  2  0  0  0  0
 13 14  1  0  0  0  0
 14 15  2  0  0  0  0
 14 45  1  0  0  0  0
 15 16  1  0  0  0  0
 16 20  1  0  0  0  0
 16 17  2  0  0  0  0
 17 18  1  0  0  0  0
 18 19  2  0  0  0  0
 19 20  1  0  0  0  0
 19 46  1  0  0  0  0
 20 21  1  0  0  0  0
 21 22  1  0  0  0  0
 21 47  1  0  0  0  0
 21 48  1  0  0  0  0
 22 27  1  0  0  0  0
 22 23  1  0  0  0  0
 22 25  1  0  0  0  0
 23 24  1  0  0  0  0
 23 49  1  0  0  0  0
 23 50  1  0  0  0  0
 24 51  1  0  0  0  0
 25 26  1  0  0  0  0
 25 52  1  0  0  0  0
 25 53  1  0  0  0  0
 26 27  1  0  0  0  0
 27 54  1  0  0  0  0
 27 55  1  0  0  0  0
M  CHG  1   3   1
M  END
> <s_m_source_file>
AV-unprocessed.smi

> <i_m_source_file_index>
169

> <i_lp_mmshare_version>
43012

> <i_f3d_flags>
0

> <s_epik_input>
W0NASF0xMltDSDJdW0NIMl1OKFtDSDJdW0NIM10pW0NIMl1bQ0BIXShbQ0gyXVtDSDJdMSlOMmMobltjSF1uMyljKGMzNCluW2NIXW40W0NIMl1DNShbQ0gyXVtPSF0pW0NIMl1PW0NIMl01

> <s_epik_cmdline>
J2VwaWtfcHl0aG9uJywgJy1waCcsICc3LjAnLCAnLXRuJywgJzgnLCAnLW1hJywgJzIwMCcsICctbWV0YWxfYmluZGluZycsICctaW1hZScsICc8aW5maWxlLm1hZT4nLCAnLW9tYWUnLCAnPG91dGZpbGUubWFlPic=

> <r_lp_tautomer_probability>
1

> <r_epik_Ionization_Penalty>
0.00274162

> <r_epik_Ionization_Penalty_Charging>
0.00243722

> <r_epik_Ionization_Penalty_Neutral>
0.000304399

> <r_epik_State_Penalty>
-0

> <r_epik_Charging_Adjusted_Penalty>
0.00243722

> <i_epik_Tot_Q>
1

> <i_epik_Tot_abs_Q>
1

> <r_epik_Metal_State_Penalty>
-0

> <b_epik_Metal_Only>
0

> <s_lp_Force_Field>
OPLS_2005

> <r_lp_Energy>
131.144

> <b_lp_Chiralities_Consistent>
1

> <s_lp_Variant>
AV-unprocessed.smi:169-5

> <Gold.Version>
5.8.1

> <Gold.Id.Protein>
6NUR|6NUR_protein|mol2

> <Gold.PLP.Fitness>
44.7264

> <Gold.PLP.PLP>
-39.1122

> <Gold.PLP.part.hbond>
-4.0000

> <Gold.PLP.part.metal>
0.0000

> <Gold.PLP.part.buried>
-3.9306

> <Gold.PLP.part.nonpolar>
-31.1878

> <Gold.PLP.part.repulsive>
0.0488

> <Gold.PLP.ligand.clash>
0.0000

> <Gold.PLP.ligand.torsion>
0.8156

> <Gold.PLP.Chemscore.Hbond>
2.2644

> <Gold.PLP.Chemscore.CHOScore>
0.0000

> <Gold.PLP.Chemscore.Metal>
0.0000

> <Gold.Chemscore.Hbonds>
donor molecule, donor type, donor heavy atom, donor atom, acceptor molecule, acceptor atom, score
      P1  H  6896  6908       L1    15  1.00
      P1  H  6931  6943       L1    26  0.57
      P1  H  6934  6947       L1    26  0.64

> <Gold.PLP.Chemscore.Internal.Correction>
0.4522

> <Gold.Rescore>
     Score         DG    S(hbond)    S(metal)    S(lipo)     H(rot)  DE(clash)    DE(int)     intcor
     13.47     -14.69       1.77        0.00      85.40       2.62       0.47       0.74       ----

> <Gold.Chemscore.Fitness>
13.4736

> <Gold.Chemscore.DG>
-14.6897

> <Gold.Chemscore.ZeroCoef>
-5.4800

> <Gold.Chemscore.Hbond>
1.7749

> <Gold.Chemscore.Metal>
0.0000

> <Gold.Chemscore.Lipo>
85.3992

> <Gold.Chemscore.Internal_Hbond>
0.0000

> <Gold.Chemscore.DEClash>
0.4749

> <Gold.Chemscore.DEInternal>
0.7412

> <Gold.Chemscore.Rot>
2.6212

> <Gold.Chemscore.Internal.Correction>
   9.000000E+99

> <Gold.Chemscore.Hbonds>
donor molecule, donor type, donor heavy atom, donor atom, acceptor molecule, acceptor atom, score
      P1  H  6896  6908       L1    15  0.70
      P1  H  6931  6943       L1    26  0.06
      P1  H  6934  6947       L1    26  0.13

> <Gold.Chemscore.Hbond.Weighted>
-5.9282

> <Gold.Chemscore.Metal.Weighted>
-0.0000

> <Gold.Chemscore.Lipo.Weighted>
-9.9917

> <Gold.Chemscore.Internal_Hbond.Weighted>
0.0000

> <Gold.Chemscore.DEClash.Weighted>
0.4749

> <Gold.Chemscore.DEInternal.Weighted>
0.7412

> <Gold.Chemscore.Rot.Weighted>
6.7102

> <Gold.Chemscore.Internal.Correction.Weighted>
   9.000000E+99

> <Gold.Protein.RotatedTorsions>
[ 6907 6896 6895 6894 ] final -162.84 input  -60.11 | X-H torsion
[ 7974 7965 7964 7962 ] final -163.21 input  175.53 | X-H torsion
[ 8008 7997 7996 7995 ] final  -93.92 input   59.86 | X-H torsion
[ 10167 10162 10161 10158 ] final  116.60 input  -65.29 | X-H torsion
[ 10718 10713 10712 10709 ] final  -74.06 input   66.30 | X-H torsion
[ 10763 10752 10751 10750 ] final   52.24 input  -60.55 | X-H torsion
[ 11005 11000 10999 10996 ] final  159.33 input  -57.11 | X-H torsion

> <Gold.Protein.ActiveResidues>
 VAL166  LYS551  ARG553  GLY616  TRP617  ASP618  TYR619  PRO620  LYS621  CYS622 
 ASP623  PHE694  ASN695  SER759  ASP760  ASP761  ALA762  ILE779  LEU786  VAL792 
 PHE793  MET794  SER795  GLU796  ALA797  LYS798  CYS799  TRP800  GLU811  SER814 

> <Gold.Protein.RotatedAtoms>
  151.3866  133.3803  159.2715 H   0  0  0  0  0  0  0  0  0  0  0  0  # atno 6907 bound_to 6896
  150.9537  134.8935  159.7698 H   0  0  0  0  0  0  0  0  0  0  0  0  # atno 6908 bound_to 6896
  152.5122  134.3822  159.9407 H   0  0  0  0  0  0  0  0  0  0  0  0  # atno 6909 bound_to 6896
  144.7333  140.3141  143.6182 H   0  0  0  0  0  0  0  0  0  0  0  0  # atno 7974 bound_to 7965
  154.7418  140.0494  157.0818 H   0  0  0  0  0  0  0  0  0  0  0  0  # atno 8008 bound_to 7997
  155.0168  140.3142  155.4789 H   0  0  0  0  0  0  0  0  0  0  0  0  # atno 8009 bound_to 7997
  156.2866  140.2174  156.5285 H   0  0  0  0  0  0  0  0  0  0  0  0  # atno 8010 bound_to 7997
  139.6236  144.7105  151.2581 H   0  0  0  0  0  0  0  0  0  0  0  0  # atno 10167 bound_to 10162
  156.0256  130.4408  150.2836 H   0  0  0  0  0  0  0  0  0  0  0  0  # atno 10718 bound_to 10713
  152.9788  135.5819  154.4546 H   0  0  0  0  0  0  0  0  0  0  0  0  # atno 10763 bound_to 10752
  154.4130  135.2770  155.2026 H   0  0  0  0  0  0  0  0  0  0  0  0  # atno 10764 bound_to 10752
  154.3808  135.6147  153.5844 H   0  0  0  0  0  0  0  0  0  0  0  0  # atno 10765 bound_to 10752
  140.1951  134.8379  157.2956 H   0  0  0  0  0  0  0  0  0  0  0  0  # atno 11005 bound_to 11000
  145.7635  139.1833  143.2253 LP  0  0  0  0  0  0  0  0  0  0  0  0  # atno 17320 bound_to 7965
  146.0967  140.7592  142.9569 LP  0  0  0  0  0  0  0  0  0  0  0  0  # atno 17321 bound_to 7965
  140.7397  143.6610  150.8164 LP  0  0  0  0  0  0  0  0  0  0  0  0  # atno 17342 bound_to 10162
  140.0224  143.5528  152.2795 LP  0  0  0  0  0  0  0  0  0  0  0  0  # atno 17343 bound_to 10162
  157.0939  131.0177  151.3111 LP  0  0  0  0  0  0  0  0  0  0  0  0  # atno 17370 bound_to 10713
  157.4833  130.7778  149.7435 LP  0  0  0  0  0  0  0  0  0  0  0  0  # atno 17371 bound_to 10713
  140.2116  134.4132  155.7610 LP  0  0  0  0  0  0  0  0  0  0  0  0  # atno 17394 bound_to 11000
  141.2227  133.7121  156.8347 LP  0  0  0  0  0  0  0  0  0  0  0  0  # atno 17395 bound_to 11000

$$$$
