AV-unprocessed.smi:2894|AV-procd|sdf|11126|dock1
  -GOLD-   2272016 03D 1   1.00000     0.00000
 Structure written by MMmdl.
 35 36  0  0  0  0  0  0  0  0  1 V2000
  153.4326  142.0209  161.2295 C   0  0  0  0  0  0  0  0  0  0  0  0
  152.5114  142.5335  160.1622 C   0  0  0  0  0  0  0  0  0  0  0  0
  151.8138  141.7837  159.1710 C   0  0  0  0  0  0  0  0  0  0  0  0
  151.1374  142.7527  158.4814 C   0  0  0  0  0  0  0  0  0  0  0  0
  150.2999  142.6198  157.4187 N   0  0  0  0  0  0  0  0  0  0  0  0
  149.6414  141.5252  156.9993 C   0  0  0  0  0  0  0  0  0  0  0  0
  149.6899  140.4150  157.5296 O   0  0  0  0  0  0  0  0  0  0  0  0
  148.9104  141.7912  155.9072 N   0  0  0  0  0  0  0  0  0  0  0  0
  148.0520  140.8374  155.2075 C   0  0  2  0  0  0  0  0  0  0  0  0
  148.8290  140.1093  154.0942 C   0  0  0  0  0  0  0  0  0  0  0  0
  147.8748  139.2660  153.2437 C   0  0  0  0  0  0  0  0  0  0  0  0
  146.7742  140.1503  152.6349 C   0  0  0  0  0  0  0  0  0  0  0  0
  146.1816  141.0799  153.5975 N   0  0  0  0  0  0  0  0  0  0  0  0
  146.7378  141.4950  154.7494 C   0  0  0  0  0  0  0  0  0  0  0  0
  146.1979  142.3514  155.4481 O   0  0  0  0  0  0  0  0  0  0  0  0
  151.4254  143.9788  159.0387 N   0  0  0  0  0  0  0  0  0  0  0  0
  150.9507  145.2961  158.6622 C   0  0  0  0  0  0  0  0  0  0  0  0
  152.2760  143.8382  160.0781 N   0  0  0  0  0  0  0  0  0  0  0  0
  153.4575  140.9310  161.2380 H   0  0  0  0  0  0  0  0  0  0  0  0
  153.1135  142.3524  162.2178 H   0  0  0  0  0  0  0  0  0  0  0  0
  154.4515  142.3747  161.0706 H   0  0  0  0  0  0  0  0  0  0  0  0
  151.8220  140.7160  159.0122 H   0  0  0  0  0  0  0  0  0  0  0  0
  150.1612  143.4579  156.8735 H   0  0  0  0  0  0  0  0  0  0  0  0
  148.9253  142.7327  155.5427 H   0  0  0  0  0  0  0  0  0  0  0  0
  147.7346  140.0816  155.9287 H   0  0  0  0  0  0  0  0  0  0  0  0
  149.3397  140.8337  153.4580 H   0  0  0  0  0  0  0  0  0  0  0  0
  149.6029  139.4730  154.5253 H   0  0  0  0  0  0  0  0  0  0  0  0
  148.4218  138.7490  152.4548 H   0  0  0  0  0  0  0  0  0  0  0  0
  147.4221  138.4929  153.8662 H   0  0  0  0  0  0  0  0  0  0  0  0
  147.1895  140.7405  151.8171 H   0  0  0  0  0  0  0  0  0  0  0  0
  145.9872  139.5305  152.2046 H   0  0  0  0  0  0  0  0  0  0  0  0
  145.2994  141.4953  153.3346 H   0  0  0  0  0  0  0  0  0  0  0  0
  151.1247  145.4586  157.5982 H   0  0  0  0  0  0  0  0  0  0  0  0
  151.4746  146.0691  159.2263 H   0  0  0  0  0  0  0  0  0  0  0  0
  149.8820  145.3711  158.8653 H   0  0  0  0  0  0  0  0  0  0  0  0
  1  2  1  0  0  0  0
  1 19  1  0  0  0  0
  1 20  1  0  0  0  0
  1 21  1  0  0  0  0
  2 18  2  0  0  0  0
  2  3  1  0  0  0  0
  3  4  2  0  0  0  0
  3 22  1  0  0  0  0
  4  5  1  0  0  0  0
  4 16  1  0  0  0  0
  5  6  1  0  0  0  0
  5 23  1  0  0  0  0
  6  7  2  0  0  0  0
  6  8  1  0  0  0  0
  8  9  1  0  0  0  0
  8 24  1  0  0  0  0
  9 14  1  0  0  0  0
  9 10  1  0  0  0  0
  9 25  1  0  0  0  0
 10 11  1  0  0  0  0
 10 26  1  0  0  0  0
 10 27  1  0  0  0  0
 11 12  1  0  0  0  0
 11 28  1  0  0  0  0
 11 29  1  0  0  0  0
 12 13  1  0  0  0  0
 12 30  1  0  0  0  0
 12 31  1  0  0  0  0
 13 14  1  0  0  0  0
 13 32  1  0  0  0  0
 14 15  2  0  0  0  0
 16 17  1  0  0  0  0
 16 18  1  0  0  0  0
 17 33  1  0  0  0  0
 17 34  1  0  0  0  0
 17 35  1  0  0  0  0
M  END
> <s_m_source_file>
AV-unprocessed.smi

> <i_m_source_file_index>
2894

> <i_lp_mmshare_version>
43012

> <i_f3d_flags>
0

> <s_epik_input>
W0NIM11jMVtjSF1jKG4objEpW0NIM10pW05IXUMoPU8pW05IXVtDQEBIXTJbQ0gyXVtDSDJdW0NIMl1bTkhdQzI9Tw==

> <s_epik_cmdline>
J2VwaWtfcHl0aG9uJywgJy1waCcsICc3LjAnLCAnLXRuJywgJzgnLCAnLW1hJywgJzIwMCcsICctbWV0YWxfYmluZGluZycsICctaW1hZScsICc8aW5maWxlLm1hZT4nLCAnLW9tYWUnLCAnPG91dGZpbGUubWFlPic=

> <r_lp_tautomer_probability>
1

> <r_epik_Ionization_Penalty>
8.17286e-05

> <r_epik_Ionization_Penalty_Charging>
0

> <r_epik_Ionization_Penalty_Neutral>
8.17286e-05

> <r_epik_State_Penalty>
-0

> <r_epik_Charging_Adjusted_Penalty>
0

> <i_epik_Tot_Q>
0

> <i_epik_Tot_abs_Q>
0

> <r_epik_Metal_State_Penalty>
-0

> <b_epik_Metal_Only>
0

> <s_lp_Force_Field>
OPLS_2005

> <r_lp_Energy>
10.3718

> <b_lp_Chiralities_Consistent>
1

> <s_lp_Variant>
AV-unprocessed.smi:2894-1

> <Gold.Version>
5.8.1

> <Gold.Id.Protein>
6NUR|6NUR_protein|mol2

> <Gold.PLP.Fitness>
35.8447

> <Gold.PLP.PLP>
-30.5983

> <Gold.PLP.part.hbond>
-2.8587

> <Gold.PLP.part.metal>
0.0000

> <Gold.PLP.part.buried>
0.1799

> <Gold.PLP.part.nonpolar>
-28.2407

> <Gold.PLP.part.repulsive>
0.2999

> <Gold.PLP.ligand.clash>
0.0000

> <Gold.PLP.ligand.torsion>
0.4148

> <Gold.PLP.Chemscore.Hbond>
2.0112

> <Gold.PLP.Chemscore.CHOScore>
0.0000

> <Gold.PLP.Chemscore.Metal>
0.0000

> <Gold.Chemscore.Hbonds>
donor molecule, donor type, donor heavy atom, donor atom, acceptor molecule, acceptor atom, score
      L1  H     5    23       P1  8028  0.68
      L1  H     8    24       P1  8028  1.00
      L1  H    13    32       P1 10175  0.34

> <Gold.PLP.Chemscore.Internal.Correction>
0.0425

> <Gold.Rescore>
     Score         DG    S(hbond)    S(metal)    S(lipo)     H(rot)  DE(clash)    DE(int)     intcor
     16.60     -18.51       2.38        0.00      65.23       1.00       0.50       1.41       ----

> <Gold.Chemscore.Fitness>
16.5966

> <Gold.Chemscore.DG>
-18.5073

> <Gold.Chemscore.ZeroCoef>
-5.4800

> <Gold.Chemscore.Hbond>
2.3820

> <Gold.Chemscore.Metal>
0.0000

> <Gold.Chemscore.Lipo>
65.2251

> <Gold.Chemscore.Internal_Hbond>
0.0000

> <Gold.Chemscore.DEClash>
0.5041

> <Gold.Chemscore.DEInternal>
1.4066

> <Gold.Chemscore.Rot>
1.0000

> <Gold.Chemscore.Internal.Correction>
   9.000000E+99

> <Gold.Chemscore.Hbonds>
donor molecule, donor type, donor heavy atom, donor atom, acceptor molecule, acceptor atom, score
      L1  H     5    23       P1  8028  0.66
      L1  H     8    24       P1  8028  0.96
      L1  H    13    32       P1 10175  0.03

> <Gold.Chemscore.Hbond.Weighted>
-7.9560

> <Gold.Chemscore.Metal.Weighted>
-0.0000

> <Gold.Chemscore.Lipo.Weighted>
-7.6313

> <Gold.Chemscore.Internal_Hbond.Weighted>
0.0000

> <Gold.Chemscore.DEClash.Weighted>
0.5041

> <Gold.Chemscore.DEInternal.Weighted>
1.4066

> <Gold.Chemscore.Rot.Weighted>
2.5600

> <Gold.Chemscore.Internal.Correction.Weighted>
   9.000000E+99

> <Gold.Protein.RotatedTorsions>
[ 6907 6896 6895 6894 ] final  -21.70 input  -60.11 | X-H torsion
[ 7974 7965 7964 7962 ] final  113.81 input  175.53 | X-H torsion
[ 8008 7997 7996 7995 ] final -171.21 input   59.86 | X-H torsion
[ 10167 10162 10161 10158 ] final   21.87 input  -65.29 | X-H torsion
[ 10718 10713 10712 10709 ] final  109.58 input   66.30 | X-H torsion
[ 10763 10752 10751 10750 ] final   67.47 input  -60.55 | X-H torsion
[ 11005 11000 10999 10996 ] final  -34.28 input  -57.11 | X-H torsion

> <Gold.Protein.ActiveResidues>
 VAL166  LYS551  ARG553  GLY616  TRP617  ASP618  TYR619  PRO620  LYS621  CYS622 
 ASP623  PHE694  ASN695  SER759  ASP760  ASP761  ALA762  ILE779  LEU786  VAL792 
 PHE793  MET794  SER795  GLU796  ALA797  LYS798  CYS799  TRP800  GLU811  SER814 

> <Gold.Protein.RotatedAtoms>
  151.2294  135.0548  159.8981 H   0  0  0  0  0  0  0  0  0  0  0  0  # atno 6907 bound_to 6896
  152.5406  134.0554  159.8138 H   0  0  0  0  0  0  0  0  0  0  0  0  # atno 6908 bound_to 6896
  151.0731  133.5401  159.2657 H   0  0  0  0  0  0  0  0  0  0  0  0  # atno 6909 bound_to 6896
  145.2122  139.2901  143.4262 H   0  0  0  0  0  0  0  0  0  0  0  0  # atno 7974 bound_to 7965
  155.9286  140.1087  157.1150 H   0  0  0  0  0  0  0  0  0  0  0  0  # atno 8008 bound_to 7997
  154.4067  140.1242  156.4839 H   0  0  0  0  0  0  0  0  0  0  0  0  # atno 8009 bound_to 7997
  155.7108  140.3471  155.4975 H   0  0  0  0  0  0  0  0  0  0  0  0  # atno 8010 bound_to 7997
  140.5393  143.9705  150.6510 H   0  0  0  0  0  0  0  0  0  0  0  0  # atno 10167 bound_to 10162
  157.6535  131.0916  150.6474 H   0  0  0  0  0  0  0  0  0  0  0  0  # atno 10718 bound_to 10713
  153.0188  135.5283  154.6984 H   0  0  0  0  0  0  0  0  0  0  0  0  # atno 10763 bound_to 10752
  154.6099  135.2877  155.0445 H   0  0  0  0  0  0  0  0  0  0  0  0  # atno 10764 bound_to 10752
  154.1471  135.6569  153.5007 H   0  0  0  0  0  0  0  0  0  0  0  0  # atno 10765 bound_to 10752
  140.9703  133.7113  156.1513 H   0  0  0  0  0  0  0  0  0  0  0  0  # atno 11005 bound_to 11000
  146.3395  140.2401  142.8595 LP  0  0  0  0  0  0  0  0  0  0  0  0  # atno 17320 bound_to 7965
  144.9845  140.8490  143.5377 LP  0  0  0  0  0  0  0  0  0  0  0  0  # atno 17321 bound_to 7965
  140.3101  143.3204  152.0887 LP  0  0  0  0  0  0  0  0  0  0  0  0  # atno 17342 bound_to 10162
  139.4983  144.6642  151.6396 LP  0  0  0  0  0  0  0  0  0  0  0  0  # atno 17343 bound_to 10162
  156.6783  130.4559  149.5636 LP  0  0  0  0  0  0  0  0  0  0  0  0  # atno 17370 bound_to 10713
  156.1948  130.6582  151.1101 LP  0  0  0  0  0  0  0  0  0  0  0  0  # atno 17371 bound_to 10713
  140.7338  134.4225  157.5563 LP  0  0  0  0  0  0  0  0  0  0  0  0  # atno 17394 bound_to 11000
  139.8910  134.8791  156.2342 LP  0  0  0  0  0  0  0  0  0  0  0  0  # atno 17395 bound_to 11000

$$$$
