AV-unprocessed.smi:3301|AV-procd|sdf|12653|dock4
  -GOLD-   2272018583D 1   1.00000     0.00000
 Structure written by MMmdl.
 37 38  0  0  0  0  0  0  0  0  2 V2000
  148.2455  141.2308  157.1594 C   0  0  0  0  0  0  0  0  0  0  0  0
  149.4650  141.4712  156.2548 C   0  0  1  0  0  0  0  0  0  0  0  0
  149.0810  141.9372  154.8335 C   0  0  0  0  0  0  0  0  0  0  0  0
  148.1091  141.0501  154.1876 N   0  0  0  0  0  0  0  0  0  0  0  0
  148.2923  139.7354  153.8442 C   0  0  0  0  0  0  0  0  0  0  0  0
  147.1225  139.3162  153.2647 C   0  0  0  0  0  0  0  0  0  0  0  0
  146.2769  140.3931  153.2753 N   0  3  0  0  0  0  0  0  0  0  0  0
  146.8798  141.4479  153.8340 C   0  0  0  0  0  0  0  0  0  0  0  0
  150.3460  142.4500  156.8847 N   0  0  0  0  0  0  0  0  0  0  0  0
  151.1042  142.2234  157.9687 C   0  0  0  0  0  0  0  0  0  0  0  0
  151.1209  141.1459  158.5657 O   0  0  0  0  0  0  0  0  0  0  0  0
  151.9558  143.4025  158.4558 C   0  0  0  0  0  0  0  0  0  0  0  0
  152.5368  143.1789  159.7805 N   0  0  0  0  0  0  0  0  0  0  0  0
  152.1482  144.0057  160.9115 C   0  0  0  0  0  0  0  0  0  0  0  0
  153.0796  143.5837  162.0573 C   0  0  0  0  0  0  0  0  0  0  0  0
  153.7727  142.3003  161.5861 C   0  0  0  0  0  0  0  0  0  0  0  0
  153.4205  142.2287  160.1103 C   0  0  0  0  0  0  0  0  0  0  0  0
  153.9011  141.3906  159.3486 O   0  0  0  0  0  0  0  0  0  0  0  0
  147.6043  140.4421  156.7655 H   0  0  0  0  0  0  0  0  0  0  0  0
  147.6418  142.1334  157.2594 H   0  0  0  0  0  0  0  0  0  0  0  0
  148.5547  140.9249  158.1595 H   0  0  0  0  0  0  0  0  0  0  0  0
  150.0036  140.5246  156.1777 H   0  0  0  0  0  0  0  0  0  0  0  0
  148.6668  142.9465  154.8574 H   0  0  0  0  0  0  0  0  0  0  0  0
  149.9594  141.9729  154.1873 H   0  0  0  0  0  0  0  0  0  0  0  0
  149.2174  139.2102  154.0343 H   0  0  0  0  0  0  0  0  0  0  0  0
  146.8365  138.3582  152.8555 H   0  0  0  0  0  0  0  0  0  0  0  0
  146.4552  142.4259  153.9747 H   0  0  0  0  0  0  0  0  0  0  0  0
  150.3873  143.3666  156.4625 H   0  0  0  0  0  0  0  0  0  0  0  0
  152.7573  143.6007  157.7419 H   0  0  0  0  0  0  0  0  0  0  0  0
  151.3303  144.2956  158.4750 H   0  0  0  0  0  0  0  0  0  0  0  0
  152.2501  145.0671  160.6813 H   0  0  0  0  0  0  0  0  0  0  0  0
  151.1046  143.8080  161.1607 H   0  0  0  0  0  0  0  0  0  0  0  0
  153.8227  144.3606  162.2432 H   0  0  0  0  0  0  0  0  0  0  0  0
  152.5285  143.4296  162.9856 H   0  0  0  0  0  0  0  0  0  0  0  0
  154.8524  142.3369  161.7356 H   0  0  0  0  0  0  0  0  0  0  0  0
  153.3767  141.4224  162.0974 H   0  0  0  0  0  0  0  0  0  0  0  0
  145.3319  140.3940  152.9123 H   0  0  0  0  0  0  0  0  0  0  0  0
  1  2  1  0  0  0  0
  1 19  1  0  0  0  0
  1 20  1  0  0  0  0
  1 21  1  0  0  0  0
  2  3  1  0  0  0  0
  2  9  1  0  0  0  0
  2 22  1  0  0  0  0
  3  4  1  0  0  0  0
  3 23  1  0  0  0  0
  3 24  1  0  0  0  0
  4  8  1  0  0  0  0
  4  5  1  0  0  0  0
  5  6  2  0  0  0  0
  5 25  1  0  0  0  0
  6  7  1  0  0  0  0
  6 26  1  0  0  0  0
  7  8  2  0  0  0  0
  7 37  1  0  0  0  0
  8 27  1  0  0  0  0
  9 10  1  0  0  0  0
  9 28  1  0  0  0  0
 10 11  2  0  0  0  0
 10 12  1  0  0  0  0
 12 13  1  0  0  0  0
 12 29  1  0  0  0  0
 12 30  1  0  0  0  0
 13 17  1  0  0  0  0
 13 14  1  0  0  0  0
 14 15  1  0  0  0  0
 14 31  1  0  0  0  0
 14 32  1  0  0  0  0
 15 16  1  0  0  0  0
 15 33  1  0  0  0  0
 15 34  1  0  0  0  0
 16 17  1  0  0  0  0
 16 35  1  0  0  0  0
 16 36  1  0  0  0  0
 17 18  2  0  0  0  0
M  CHG  1   7   1
M  END
> <s_m_source_file>
AV-unprocessed.smi

> <i_m_source_file_index>
3301

> <i_lp_mmshare_version>
43012

> <i_f3d_flags>
0

> <s_epik_input>
W2NIXTFuW2NIXVtjSF1uMVtDSDJdW0NAQEhdKFtDSDNdKVtOSF1DKD1PKVtDSDJdTjJbQ0gyXVtDSDJdW0NIMl1DMj1P

> <s_epik_cmdline>
J2VwaWtfcHl0aG9uJywgJy1waCcsICc3LjAnLCAnLXRuJywgJzgnLCAnLW1hJywgJzIwMCcsICctbWV0YWxfYmluZGluZycsICctaW1hZScsICc8aW5maWxlLm1hZT4nLCAnLW9tYWUnLCAnPG91dGZpbGUubWFlPic=

> <r_lp_tautomer_probability>
1

> <r_epik_Ionization_Penalty>
0.254232

> <r_epik_Ionization_Penalty_Charging>
0

> <r_epik_Ionization_Penalty_Neutral>
0.254232

> <r_epik_State_Penalty>
0.245698

> <r_epik_Charging_Adjusted_Penalty>
0.245698

> <i_epik_Tot_Q>
1

> <i_epik_Tot_abs_Q>
1

> <r_epik_Metal_State_Penalty>
0.5358

> <b_epik_Metal_Only>
0

> <s_lp_Force_Field>
OPLS_2005

> <r_lp_Energy>
15.9577

> <b_lp_Chiralities_Consistent>
1

> <s_lp_Variant>
AV-unprocessed.smi:3301-2

> <Gold.Version>
5.8.1

> <Gold.Id.Protein>
6NUR|6NUR_protein|mol2

> <Gold.PLP.Fitness>
47.8995

> <Gold.PLP.PLP>
-42.5325

> <Gold.PLP.part.hbond>
-1.6150

> <Gold.PLP.part.metal>
0.0000

> <Gold.PLP.part.buried>
-4.0713

> <Gold.PLP.part.nonpolar>
-35.4030

> <Gold.PLP.part.repulsive>
0.0470

> <Gold.PLP.ligand.clash>
0.0000

> <Gold.PLP.ligand.torsion>
0.3371

> <Gold.PLP.Chemscore.Hbond>
2.0000

> <Gold.PLP.Chemscore.CHOScore>
0.0000

> <Gold.PLP.Chemscore.Metal>
0.0000

> <Gold.Chemscore.Hbonds>
donor molecule, donor type, donor heavy atom, donor atom, acceptor molecule, acceptor atom, score
      L1  H     7    37       P1 10175  2.00
      L1  H     9    28       P1  8028  0.45

> <Gold.PLP.Chemscore.Internal.Correction>
0.0412

> <Gold.Rescore>
     Score         DG    S(hbond)    S(metal)    S(lipo)     H(rot)  DE(clash)    DE(int)     intcor
     12.14     -12.62       1.31        0.00      74.94       2.35       0.19       0.29       ----

> <Gold.Chemscore.Fitness>
12.1392

> <Gold.Chemscore.DG>
-12.6175

> <Gold.Chemscore.ZeroCoef>
-5.4800

> <Gold.Chemscore.Hbond>
1.3106

> <Gold.Chemscore.Metal>
0.0000

> <Gold.Chemscore.Lipo>
74.9429

> <Gold.Chemscore.Internal_Hbond>
0.0000

> <Gold.Chemscore.DEClash>
0.1931

> <Gold.Chemscore.DEInternal>
0.2852

> <Gold.Chemscore.Rot>
2.3470

> <Gold.Chemscore.Internal.Correction>
   9.000000E+99

> <Gold.Chemscore.Hbonds>
donor molecule, donor type, donor heavy atom, donor atom, acceptor molecule, acceptor atom, score
      L1  H     7    37       P1 10175  0.93
      L1  H     9    28       P1  8028  0.44

> <Gold.Chemscore.Hbond.Weighted>
-4.3775

> <Gold.Chemscore.Metal.Weighted>
-0.0000

> <Gold.Chemscore.Lipo.Weighted>
-8.7683

> <Gold.Chemscore.Internal_Hbond.Weighted>
0.0000

> <Gold.Chemscore.DEClash.Weighted>
0.1931

> <Gold.Chemscore.DEInternal.Weighted>
0.2852

> <Gold.Chemscore.Rot.Weighted>
6.0083

> <Gold.Chemscore.Internal.Correction.Weighted>
   9.000000E+99

> <Gold.Protein.RotatedTorsions>
[ 6907 6896 6895 6894 ] final  133.41 input  -60.11 | X-H torsion
[ 7974 7965 7964 7962 ] final   38.18 input  175.53 | X-H torsion
[ 8008 7997 7996 7995 ] final  -48.58 input   59.86 | X-H torsion
[ 10167 10162 10161 10158 ] final   34.85 input  -65.29 | X-H torsion
[ 10718 10713 10712 10709 ] final -120.93 input   66.30 | X-H torsion
[ 10763 10752 10751 10750 ] final -122.79 input  -60.55 | X-H torsion
[ 11005 11000 10999 10996 ] final  153.48 input  -57.11 | X-H torsion

> <Gold.Protein.ActiveResidues>
 VAL166  LYS551  ARG553  GLY616  TRP617  ASP618  TYR619  PRO620  LYS621  CYS622 
 ASP623  PHE694  ASN695  SER759  ASP760  ASP761  ALA762  ILE779  LEU786  VAL792 
 PHE793  MET794  SER795  GLU796  ALA797  LYS798  CYS799  TRP800  GLU811  SER814 

> <Gold.Protein.RotatedAtoms>
  152.3223  133.5867  159.5752 H   0  0  0  0  0  0  0  0  0  0  0  0  # atno 6907 bound_to 6896
  150.7378  133.9993  159.3642 H   0  0  0  0  0  0  0  0  0  0  0  0  # atno 6908 bound_to 6896
  151.7876  135.0745  160.0433 H   0  0  0  0  0  0  0  0  0  0  0  0  # atno 6909 bound_to 6896
  146.1081  139.5803  142.9370 H   0  0  0  0  0  0  0  0  0  0  0  0  # atno 7974 bound_to 7965
  154.4031  140.1318  156.4362 H   0  0  0  0  0  0  0  0  0  0  0  0  # atno 8008 bound_to 7997
  155.7503  140.3488  155.5127 H   0  0  0  0  0  0  0  0  0  0  0  0  # atno 8009 bound_to 7997
  155.8956  140.1010  157.1377 H   0  0  0  0  0  0  0  0  0  0  0  0  # atno 8010 bound_to 7997
  140.4277  144.1370  150.6155 H   0  0  0  0  0  0  0  0  0  0  0  0  # atno 10167 bound_to 10162
  156.1297  130.6386  150.9601 H   0  0  0  0  0  0  0  0  0  0  0  0  # atno 10718 bound_to 10713
  154.8696  135.4120  154.2839 H   0  0  0  0  0  0  0  0  0  0  0  0  # atno 10763 bound_to 10752
  153.3727  135.7008  153.6631 H   0  0  0  0  0  0  0  0  0  0  0  0  # atno 10764 bound_to 10752
  153.5486  135.3633  155.2721 H   0  0  0  0  0  0  0  0  0  0  0  0  # atno 10765 bound_to 10752
  140.1401  134.8744  157.2320 H   0  0  0  0  0  0  0  0  0  0  0  0  # atno 11005 bound_to 11000
  145.5719  141.0393  143.2169 LP  0  0  0  0  0  0  0  0  0  0  0  0  # atno 17320 bound_to 7965
  144.7488  139.7249  143.7281 LP  0  0  0  0  0  0  0  0  0  0  0  0  # atno 17321 bound_to 7965
  140.4463  143.2505  151.9407 LP  0  0  0  0  0  0  0  0  0  0  0  0  # atno 17342 bound_to 10162
  139.4784  144.5606  151.8245 LP  0  0  0  0  0  0  0  0  0  0  0  0  # atno 17343 bound_to 10162
  157.6476  131.0902  150.8120 LP  0  0  0  0  0  0  0  0  0  0  0  0  # atno 17370 bound_to 10713
  156.8206  130.4983  149.5343 LP  0  0  0  0  0  0  0  0  0  0  0  0  # atno 17371 bound_to 10713
  140.2732  134.3436  155.7366 LP  0  0  0  0  0  0  0  0  0  0  0  0  # atno 17394 bound_to 11000
  141.2184  133.7435  156.9254 LP  0  0  0  0  0  0  0  0  0  0  0  0  # atno 17395 bound_to 11000

$$$$
