AV-unprocessed.smi:2009|AV-procd|sdf|8146|dock6
  -GOLD-   2272010383D 1   1.00000     0.00000
 Structure written by MMmdl.
 38 39  0  0  0  0  0  0  0  0  1 V2000
  150.7492  139.5316  154.4927 C   0  0  0  0  0  0  0  0  0  0  0  0
  150.4911  140.9504  155.0224 C   0  0  1  0  0  0  0  0  0  0  0  0
  149.0427  141.1684  155.5176 C   0  0  0  0  0  0  0  0  0  0  0  0
  148.2516  142.0356  154.6592 N   0  0  0  0  0  0  0  0  0  0  0  0
  148.1136  141.9911  153.2874 C   0  0  0  0  0  0  0  0  0  0  0  0
  147.2756  143.0079  152.9293 C   0  0  0  0  0  0  0  0  0  0  0  0
  146.9517  143.6305  154.1670 C   0  0  0  0  0  0  0  0  0  0  0  0
  147.5396  143.0491  155.1994 N   0  0  0  0  0  0  0  0  0  0  0  0
  151.4574  141.2471  156.0830 N   0  0  0  0  0  0  0  0  0  0  0  0
  151.8061  140.0752  157.2998 S   0  0  0  0  0  0  0  0  0  0  0  0
  150.5268  139.5905  157.8406 O   0  0  0  0  0  0  0  0  0  0  0  0
  152.8134  139.1349  156.7858 O   0  0  0  0  0  0  0  0  0  0  0  0
  152.5619  141.1034  158.4710 N   0  0  0  0  0  0  0  0  0  0  0  0
  151.9279  142.4146  158.7121 C   0  0  0  0  0  0  0  0  0  0  0  0
  152.8741  143.3690  159.4601 C   0  0  0  0  0  0  0  0  0  0  0  0
  153.3838  142.7411  160.7607 C   0  0  0  0  0  0  0  0  0  0  0  0
  154.0523  141.3998  160.4466 C   0  0  0  0  0  0  0  0  0  0  0  0
  153.0930  140.4634  159.6939 C   0  0  0  0  0  0  0  0  0  0  0  0
  150.0448  139.2765  153.7006 H   0  0  0  0  0  0  0  0  0  0  0  0
  150.6534  138.7823  155.2791 H   0  0  0  0  0  0  0  0  0  0  0  0
  151.7542  139.4462  154.0781 H   0  0  0  0  0  0  0  0  0  0  0  0
  150.6744  141.6451  154.2019 H   0  0  0  0  0  0  0  0  0  0  0  0
  148.5213  140.2177  155.6309 H   0  0  0  0  0  0  0  0  0  0  0  0
  149.0645  141.6139  156.5129 H   0  0  0  0  0  0  0  0  0  0  0  0
  148.6161  141.2462  152.6882 H   0  0  0  0  0  0  0  0  0  0  0  0
  146.9458  143.2686  151.9349 H   0  0  0  0  0  0  0  0  0  0  0  0
  146.3131  144.4833  154.3446 H   0  0  0  0  0  0  0  0  0  0  0  0
  151.3821  142.1935  156.4549 H   0  0  0  0  0  0  0  0  0  0  0  0
  151.6400  142.8641  157.7618 H   0  0  0  0  0  0  0  0  0  0  0  0
  151.0098  142.2639  159.2815 H   0  0  0  0  0  0  0  0  0  0  0  0
  153.7195  143.6199  158.8184 H   0  0  0  0  0  0  0  0  0  0  0  0
  152.3610  144.3064  159.6758 H   0  0  0  0  0  0  0  0  0  0  0  0
  154.0905  143.4097  161.2524 H   0  0  0  0  0  0  0  0  0  0  0  0
  152.5542  142.5917  161.4527 H   0  0  0  0  0  0  0  0  0  0  0  0
  154.9463  141.5670  159.8441 H   0  0  0  0  0  0  0  0  0  0  0  0
  154.3862  140.9253  161.3694 H   0  0  0  0  0  0  0  0  0  0  0  0
  152.2576  140.1812  160.3359 H   0  0  0  0  0  0  0  0  0  0  0  0
  153.6155  139.5417  159.4401 H   0  0  0  0  0  0  0  0  0  0  0  0
  1  2  1  0  0  0  0
  1 19  1  0  0  0  0
  1 20  1  0  0  0  0
  1 21  1  0  0  0  0
  2  3  1  0  0  0  0
  2  9  1  0  0  0  0
  2 22  1  0  0  0  0
  3  4  1  0  0  0  0
  3 23  1  0  0  0  0
  3 24  1  0  0  0  0
  4  8  1  0  0  0  0
  4  5  1  0  0  0  0
  5  6  2  0  0  0  0
  5 25  1  0  0  0  0
  6  7  1  0  0  0  0
  6 26  1  0  0  0  0
  7  8  2  0  0  0  0
  7 27  1  0  0  0  0
  9 10  1  0  0  0  0
  9 28  1  0  0  0  0
 10 11  2  0  0  0  0
 10 12  2  0  0  0  0
 10 13  1  0  0  0  0
 13 18  1  0  0  0  0
 13 14  1  0  0  0  0
 14 15  1  0  0  0  0
 14 29  1  0  0  0  0
 14 30  1  0  0  0  0
 15 16  1  0  0  0  0
 15 31  1  0  0  0  0
 15 32  1  0  0  0  0
 16 17  1  0  0  0  0
 16 33  1  0  0  0  0
 16 34  1  0  0  0  0
 17 18  1  0  0  0  0
 17 35  1  0  0  0  0
 17 36  1  0  0  0  0
 18 37  1  0  0  0  0
 18 38  1  0  0  0  0
M  END
> <s_m_source_file>
AV-unprocessed.smi

> <i_m_source_file_index>
2009

> <i_lp_mmshare_version>
43012

> <i_f3d_flags>
0

> <s_epik_input>
bjFbY0hdW2NIXVtjSF1uMVtDSDJdW0NAQEhdKFtDSDNdKVtOSF1TKD1PKSg9TylOMltDSDJdW0NIMl1bQ0gyXVtDSDJdW0NIMl0y

> <s_epik_cmdline>
J2VwaWtfcHl0aG9uJywgJy1waCcsICc3LjAnLCAnLXRuJywgJzgnLCAnLW1hJywgJzIwMCcsICctbWV0YWxfYmluZGluZycsICctaW1hZScsICc8aW5maWxlLm1hZT4nLCAnLW9tYWUnLCAnPG91dGZpbGUubWFlPic=

> <r_lp_tautomer_probability>
1

> <r_epik_Ionization_Penalty>
0.0313937

> <r_epik_Ionization_Penalty_Charging>
0

> <r_epik_Ionization_Penalty_Neutral>
0.0313937

> <r_epik_State_Penalty>
0.0259441

> <r_epik_Charging_Adjusted_Penalty>
0.0259441

> <i_epik_Tot_Q>
0

> <i_epik_Tot_abs_Q>
0

> <r_epik_Metal_State_Penalty>
0.365037

> <b_epik_Metal_Only>
0

> <s_lp_Force_Field>
OPLS_2005

> <r_lp_Energy>
8.11637

> <b_lp_Chiralities_Consistent>
1

> <s_lp_Variant>
AV-unprocessed.smi:2009-2

> <Gold.Version>
5.8.1

> <Gold.Id.Protein>
6NUR|6NUR_protein|mol2

> <Gold.PLP.Fitness>
39.5875

> <Gold.PLP.PLP>
-36.2236

> <Gold.PLP.part.hbond>
-1.0000

> <Gold.PLP.part.metal>
0.0000

> <Gold.PLP.part.buried>
-4.9642

> <Gold.PLP.part.nonpolar>
-29.9027

> <Gold.PLP.part.repulsive>
0.3491

> <Gold.PLP.ligand.clash>
0.0000

> <Gold.PLP.ligand.torsion>
1.7127

> <Gold.PLP.Chemscore.Hbond>
1.0000

> <Gold.PLP.Chemscore.CHOScore>
0.9997

> <Gold.PLP.Chemscore.Metal>
0.0000

> <Gold.Chemscore.Hbonds>
donor molecule, donor type, donor heavy atom, donor atom, acceptor molecule, acceptor atom, score
      P1  H  7997  8008       L1    12  1.00
      L1  C     5    25       P1  7957  1.00

> <Gold.PLP.Chemscore.Internal.Correction>
0.7903

> <Gold.Rescore>
     Score         DG    S(hbond)    S(metal)    S(lipo)     H(rot)  DE(clash)    DE(int)     intcor
     13.04     -15.01       0.98        0.00      93.29       1.82       0.27       1.70       ----

> <Gold.Chemscore.Fitness>
13.0392

> <Gold.Chemscore.DG>
-15.0081

> <Gold.Chemscore.ZeroCoef>
-5.4800

> <Gold.Chemscore.Hbond>
0.9824

> <Gold.Chemscore.Metal>
0.0000

> <Gold.Chemscore.Lipo>
93.2937

> <Gold.Chemscore.Internal_Hbond>
0.0000

> <Gold.Chemscore.DEClash>
0.2704

> <Gold.Chemscore.DEInternal>
1.6985

> <Gold.Chemscore.Rot>
1.8237

> <Gold.Chemscore.Internal.Correction>
   9.000000E+99

> <Gold.Chemscore.Hbonds>
donor molecule, donor type, donor heavy atom, donor atom, acceptor molecule, acceptor atom, score
      P1  H  7997  8008       L1    12  0.60

> <Gold.Chemscore.Hbond.Weighted>
-3.2813

> <Gold.Chemscore.Metal.Weighted>
-0.0000

> <Gold.Chemscore.Lipo.Weighted>
-10.9154

> <Gold.Chemscore.Internal_Hbond.Weighted>
0.0000

> <Gold.Chemscore.DEClash.Weighted>
0.2704

> <Gold.Chemscore.DEInternal.Weighted>
1.6985

> <Gold.Chemscore.Rot.Weighted>
4.6686

> <Gold.Chemscore.Internal.Correction.Weighted>
   9.000000E+99

> <Gold.Protein.RotatedTorsions>
[ 6907 6896 6895 6894 ] final    1.88 input  -60.11 | X-H torsion
[ 7974 7965 7964 7962 ] final  131.70 input  175.53 | X-H torsion
[ 8008 7997 7996 7995 ] final  -49.88 input   59.86 | X-H torsion
[ 10167 10162 10161 10158 ] final  151.27 input  -65.29 | X-H torsion
[ 10718 10713 10712 10709 ] final  -43.22 input   66.30 | X-H torsion
[ 10763 10752 10751 10750 ] final  101.07 input  -60.55 | X-H torsion
[ 11005 11000 10999 10996 ] final -177.92 input  -57.11 | X-H torsion

> <Gold.Protein.ActiveResidues>
 VAL166  LYS551  ARG553  GLY616  TRP617  ASP618  TYR619  PRO620  LYS621  CYS622 
 ASP623  PHE694  ASN695  SER759  ASP760  ASP761  ALA762  ILE779  LEU786  VAL792 
 PHE793  MET794  SER795  GLU796  ALA797  LYS798  CYS799  TRP800  GLU811  SER814 

> <Gold.Protein.RotatedAtoms>
  151.5998  135.1048  160.0057 H   0  0  0  0  0  0  0  0  0  0  0  0  # atno 6907 bound_to 6896
  152.4263  133.7197  159.6537 H   0  0  0  0  0  0  0  0  0  0  0  0  # atno 6908 bound_to 6896
  150.8153  133.8277  159.3186 H   0  0  0  0  0  0  0  0  0  0  0  0  # atno 6909 bound_to 6896
  145.0045  139.4279  143.5275 H   0  0  0  0  0  0  0  0  0  0  0  0  # atno 7974 bound_to 7965
  154.4052  140.1286  156.4575 H   0  0  0  0  0  0  0  0  0  0  0  0  # atno 8008 bound_to 7997
  155.7305  140.3491  155.5037 H   0  0  0  0  0  0  0  0  0  0  0  0  # atno 8009 bound_to 7997
  155.9131  140.1039  157.1254 H   0  0  0  0  0  0  0  0  0  0  0  0  # atno 8010 bound_to 7997
  139.4842  144.5455  151.7492 H   0  0  0  0  0  0  0  0  0  0  0  0  # atno 10167 bound_to 10162
  156.2513  130.4188  149.8646 H   0  0  0  0  0  0  0  0  0  0  0  0  # atno 10718 bound_to 10713
  153.3220  135.4057  155.1424 H   0  0  0  0  0  0  0  0  0  0  0  0  # atno 10763 bound_to 10752
  154.8603  135.3590  154.5584 H   0  0  0  0  0  0  0  0  0  0  0  0  # atno 10764 bound_to 10752
  153.6018  135.7071  153.5440 H   0  0  0  0  0  0  0  0  0  0  0  0  # atno 10765 bound_to 10752
  140.4355  134.6479  157.4732 H   0  0  0  0  0  0  0  0  0  0  0  0  # atno 11005 bound_to 11000
  146.3458  139.9453  142.8736 LP  0  0  0  0  0  0  0  0  0  0  0  0  # atno 17320 bound_to 7965
  145.2107  140.9894  143.4102 LP  0  0  0  0  0  0  0  0  0  0  0  0  # atno 17321 bound_to 7965
  140.5001  144.1182  150.5969 LP  0  0  0  0  0  0  0  0  0  0  0  0  # atno 17342 bound_to 10162
  140.4072  143.2674  151.9876 LP  0  0  0  0  0  0  0  0  0  0  0  0  # atno 17343 bound_to 10162
  156.6194  130.8620  151.3472 LP  0  0  0  0  0  0  0  0  0  0  0  0  # atno 17370 bound_to 10713
  157.7215  130.9565  150.1459 LP  0  0  0  0  0  0  0  0  0  0  0  0  # atno 17371 bound_to 10713
  140.0105  134.6698  155.9388 LP  0  0  0  0  0  0  0  0  0  0  0  0  # atno 17394 bound_to 11000
  141.1727  133.6538  156.4713 LP  0  0  0  0  0  0  0  0  0  0  0  0  # atno 17395 bound_to 11000

$$$$
