AV-unprocessed.smi:2892|AV-procd|sdf|11119|dock2
  -GOLD-   2272015593D 1   1.00000     0.00000
 Structure written by MMmdl.
 42 42  0  0  0  0  0  0  0  0  2 V2000
  149.8666  140.9241  154.9783 C   0  0  0  0  0  0  0  0  0  0  0  0
  149.8444  139.4204  155.2911 C   0  0  0  0  0  0  0  0  0  0  0  0
  150.9526  138.5987  154.5795 C   0  0  1  0  0  0  0  0  0  0  0  0
  152.3488  139.1346  154.9698 C   0  0  0  0  0  0  0  0  0  0  0  0
  150.8427  137.0680  154.8648 C   0  0  2  0  0  0  0  0  0  0  0  0
  149.4462  136.6508  154.7356 N   0  0  0  0  0  0  0  0  0  0  0  0
  148.9690  135.4097  154.9285 C   0  0  0  0  0  0  0  0  0  0  0  0
  149.6839  134.4361  155.1653 O   0  0  0  0  0  0  0  0  0  0  0  0
  147.4503  135.2365  154.8287 C   0  0  0  0  0  0  0  0  0  0  0  0
  147.1016  134.1479  153.8464 C   0  0  0  0  0  0  0  0  0  0  0  0
  147.9777  133.2064  153.2343 C   0  0  0  0  0  0  0  0  0  0  0  0
  147.1640  132.4918  152.4035 C   0  0  0  0  0  0  0  0  0  0  0  0
  145.8841  132.9862  152.5534 N   0  0  0  0  0  0  0  0  0  0  0  0
  144.6668  132.5970  151.8578 C   0  0  0  0  0  0  0  0  0  0  0  0
  144.9071  131.3813  150.9491 C   0  0  0  0  0  0  0  0  0  0  0  0
  144.0856  133.7897  151.0842 C   0  0  0  0  0  0  0  0  0  0  0  0
  145.8479  134.0025  153.4417 N   0  0  0  0  0  0  0  0  0  0  0  0
  151.2923  136.7466  156.3036 C   0  0  0  0  0  0  0  0  0  0  0  0
  150.6262  137.2541  157.2320 O   0  0  0  0  0  0  0  0  0  0  0  0
  152.2861  135.9991  156.4512 O   0  5  0  0  0  0  0  0  0  0  0  0
  148.9987  141.4175  155.4161 H   0  0  0  0  0  0  0  0  0  0  0  0
  149.8400  141.1033  153.9032 H   0  0  0  0  0  0  0  0  0  0  0  0
  150.7519  141.4132  155.3829 H   0  0  0  0  0  0  0  0  0  0  0  0
  149.9084  139.2703  156.3693 H   0  0  0  0  0  0  0  0  0  0  0  0
  148.8581  139.0600  155.0011 H   0  0  0  0  0  0  0  0  0  0  0  0
  150.8374  138.7514  153.5047 H   0  0  0  0  0  0  0  0  0  0  0  0
  152.5292  139.0196  156.0390 H   0  0  0  0  0  0  0  0  0  0  0  0
  152.4622  140.1896  154.7251 H   0  0  0  0  0  0  0  0  0  0  0  0
  153.1495  138.6157  154.4431 H   0  0  0  0  0  0  0  0  0  0  0  0
  151.4652  136.5201  154.1543 H   0  0  0  0  0  0  0  0  0  0  0  0
  148.7781  137.3856  154.5553 H   0  0  0  0  0  0  0  0  0  0  0  0
  147.0592  134.9978  155.8181 H   0  0  0  0  0  0  0  0  0  0  0  0
  146.9934  136.1818  154.5324 H   0  0  0  0  0  0  0  0  0  0  0  0
  149.0428  133.0914  153.3674 H   0  0  0  0  0  0  0  0  0  0  0  0
  147.3890  131.6862  151.7206 H   0  0  0  0  0  0  0  0  0  0  0  0
  143.9341  132.3010  152.6110 H   0  0  0  0  0  0  0  0  0  0  0  0
  143.9760  131.0503  150.4888 H   0  0  0  0  0  0  0  0  0  0  0  0
  145.3107  130.5416  151.5156 H   0  0  0  0  0  0  0  0  0  0  0  0
  145.6080  131.6114  150.1460 H   0  0  0  0  0  0  0  0  0  0  0  0
  143.1431  133.5247  150.6047 H   0  0  0  0  0  0  0  0  0  0  0  0
  144.7701  134.1321  150.3076 H   0  0  0  0  0  0  0  0  0  0  0  0
  143.8916  134.6313  151.7502 H   0  0  0  0  0  0  0  0  0  0  0  0
  1  2  1  0  0  0  0
  1 21  1  0  0  0  0
  1 22  1  0  0  0  0
  1 23  1  0  0  0  0
  2  3  1  0  0  0  0
  2 24  1  0  0  0  0
  2 25  1  0  0  0  0
  3  4  1  0  0  0  0
  3  5  1  0  0  0  0
  3 26  1  0  0  0  0
  4 27  1  0  0  0  0
  4 28  1  0  0  0  0
  4 29  1  0  0  0  0
  5  6  1  0  0  0  0
  5 18  1  0  0  0  0
  5 30  1  0  0  0  0
  6  7  1  0  0  0  0
  6 31  1  0  0  0  0
  7  8  2  0  0  0  0
  7  9  1  0  0  0  0
  9 10  1  0  0  0  0
  9 32  1  0  0  0  0
  9 33  1  0  0  0  0
 10 17  2  0  0  0  0
 10 11  1  0  0  0  0
 11 12  2  0  0  0  0
 11 34  1  0  0  0  0
 12 13  1  0  0  0  0
 12 35  1  0  0  0  0
 13 14  1  0  0  0  0
 13 17  1  0  0  0  0
 14 15  1  0  0  0  0
 14 16  1  0  0  0  0
 14 36  1  0  0  0  0
 15 37  1  0  0  0  0
 15 38  1  0  0  0  0
 15 39  1  0  0  0  0
 16 40  1  0  0  0  0
 16 41  1  0  0  0  0
 16 42  1  0  0  0  0
 18 19  2  0  0  0  0
 18 20  1  0  0  0  0
M  CHG  1  20  -1
M  END
> <s_m_source_file>
AV-unprocessed.smi

> <i_m_source_file_index>
2892

> <i_lp_mmshare_version>
43012

> <i_f3d_flags>
0

> <s_epik_input>
W0NIM11bQ0gyXVtDQEhdKFtDSDNdKVtDQEBIXShDKD1PKVtPSF0pW05IXUMoPU8pW0NIMl1jMVtjSF1bY0hdbihuMSlbQ0hdKFtDSDNdKVtDSDNd

> <s_epik_cmdline>
J2VwaWtfcHl0aG9uJywgJy1waCcsICc3LjAnLCAnLXRuJywgJzgnLCAnLW1hJywgJzIwMCcsICctbWV0YWxfYmluZGluZycsICctaW1hZScsICc8aW5maWxlLm1hZT4nLCAnLW9tYWUnLCAnPG91dGZpbGUubWFlPic=

> <r_lp_tautomer_probability>
1

> <r_epik_Ionization_Penalty>
0.000286846

> <r_epik_Ionization_Penalty_Charging>
0.000224481

> <r_epik_Ionization_Penalty_Neutral>
6.23655e-05

> <r_epik_State_Penalty>
-0

> <r_epik_Charging_Adjusted_Penalty>
0.000224481

> <i_epik_Tot_Q>
-1

> <i_epik_Tot_abs_Q>
1

> <r_epik_Metal_State_Penalty>
-0

> <b_epik_Metal_Only>
0

> <s_lp_Force_Field>
OPLS_2005

> <r_lp_Energy>
14.4899

> <b_lp_Chiralities_Consistent>
1

> <s_lp_Variant>
AV-unprocessed.smi:2892-2

> <Gold.Version>
5.8.1

> <Gold.Id.Protein>
6NUR|6NUR_protein|mol2

> <Gold.PLP.Fitness>
39.6193

> <Gold.PLP.PLP>
-31.0073

> <Gold.PLP.part.hbond>
-2.0000

> <Gold.PLP.part.metal>
0.0000

> <Gold.PLP.part.buried>
-1.7416

> <Gold.PLP.part.nonpolar>
-27.1712

> <Gold.PLP.part.repulsive>
0.2161

> <Gold.PLP.ligand.clash>
0.0000

> <Gold.PLP.ligand.torsion>
0.3544

> <Gold.PLP.Chemscore.Hbond>
2.0000

> <Gold.PLP.Chemscore.CHOScore>
1.0000

> <Gold.PLP.Chemscore.Metal>
0.0000

> <Gold.Chemscore.Hbonds>
donor molecule, donor type, donor heavy atom, donor atom, acceptor molecule, acceptor atom, score
      P1  H 10752 10765       L1    20  2.00
      L1  C    12    35       P1 10747  1.00

> <Gold.PLP.Chemscore.Internal.Correction>
0.3208

> <Gold.Rescore>
     Score         DG    S(hbond)    S(metal)    S(lipo)     H(rot)  DE(clash)    DE(int)     intcor
      9.44     -11.41       0.98        0.00      75.01       2.39       0.08       1.90       ----

> <Gold.Chemscore.Fitness>
9.4365

> <Gold.Chemscore.DG>
-11.4123

> <Gold.Chemscore.ZeroCoef>
-5.4800

> <Gold.Chemscore.Hbond>
0.9777

> <Gold.Chemscore.Metal>
0.0000

> <Gold.Chemscore.Lipo>
75.0102

> <Gold.Chemscore.Internal_Hbond>
0.0000

> <Gold.Chemscore.DEClash>
0.0794

> <Gold.Chemscore.DEInternal>
1.8964

> <Gold.Chemscore.Rot>
2.3865

> <Gold.Chemscore.Internal.Correction>
   9.000000E+99

> <Gold.Chemscore.Hbonds>
donor molecule, donor type, donor heavy atom, donor atom, acceptor molecule, acceptor atom, score
      P1  H 10752 10765       L1    20  0.97

> <Gold.Chemscore.Hbond.Weighted>
-3.2655

> <Gold.Chemscore.Metal.Weighted>
-0.0000

> <Gold.Chemscore.Lipo.Weighted>
-8.7762

> <Gold.Chemscore.Internal_Hbond.Weighted>
0.0000

> <Gold.Chemscore.DEClash.Weighted>
0.0794

> <Gold.Chemscore.DEInternal.Weighted>
1.8964

> <Gold.Chemscore.Rot.Weighted>
6.1093

> <Gold.Chemscore.Internal.Correction.Weighted>
   9.000000E+99

> <Gold.Protein.RotatedTorsions>
[ 6907 6896 6895 6894 ] final  -56.22 input  -60.11 | X-H torsion
[ 7974 7965 7964 7962 ] final  -22.21 input  175.53 | X-H torsion
[ 8008 7997 7996 7995 ] final  -82.32 input   59.86 | X-H torsion
[ 10167 10162 10161 10158 ] final    1.29 input  -65.29 | X-H torsion
[ 10718 10713 10712 10709 ] final -178.17 input   66.30 | X-H torsion
[ 10763 10752 10751 10750 ] final -123.12 input  -60.55 | X-H torsion
[ 11005 11000 10999 10996 ] final  -65.60 input  -57.11 | X-H torsion

> <Gold.Protein.ActiveResidues>
 VAL166  LYS551  ARG553  GLY616  TRP617  ASP618  TYR619  PRO620  LYS621  CYS622 
 ASP623  PHE694  ASN695  SER759  ASP760  ASP761  ALA762  ILE779  LEU786  VAL792 
 PHE793  MET794  SER795  GLU796  ALA797  LYS798  CYS799  TRP800  GLU811  SER814 

> <Gold.Protein.RotatedAtoms>
  150.8186  134.7381  159.6751 H   0  0  0  0  0  0  0  0  0  0  0  0  # atno 6907 bound_to 6896
  152.4303  134.5787  159.9951 H   0  0  0  0  0  0  0  0  0  0  0  0  # atno 6908 bound_to 6896
  151.5978  133.3322  159.3077 H   0  0  0  0  0  0  0  0  0  0  0  0  # atno 6909 bound_to 6896
  146.1689  140.4447  142.8540 H   0  0  0  0  0  0  0  0  0  0  0  0  # atno 7974 bound_to 7965
  154.6074  140.0635  156.9449 H   0  0  0  0  0  0  0  0  0  0  0  0  # atno 8008 bound_to 7997
  155.2030  140.3316  155.4322 H   0  0  0  0  0  0  0  0  0  0  0  0  # atno 8009 bound_to 7997
  156.2356  140.1861  156.7112 H   0  0  0  0  0  0  0  0  0  0  0  0  # atno 8010 bound_to 7997
  140.6690  143.7102  150.7884 H   0  0  0  0  0  0  0  0  0  0  0  0  # atno 10167 bound_to 10162
  156.8403  130.9684  151.3100 H   0  0  0  0  0  0  0  0  0  0  0  0  # atno 10718 bound_to 10713
  154.8702  135.4109  154.2892 H   0  0  0  0  0  0  0  0  0  0  0  0  # atno 10763 bound_to 10752
  153.3771  135.7010  153.6599 H   0  0  0  0  0  0  0  0  0  0  0  0  # atno 10764 bound_to 10752
  153.5437  135.3643  155.2701 H   0  0  0  0  0  0  0  0  0  0  0  0  # atno 10765 bound_to 10752
  141.1459  133.6684  156.6011 H   0  0  0  0  0  0  0  0  0  0  0  0  # atno 11005 bound_to 11000
  144.8133  140.6424  143.6401 LP  0  0  0  0  0  0  0  0  0  0  0  0  # atno 17320 bound_to 7965
  145.4394  139.1538  143.3979 LP  0  0  0  0  0  0  0  0  0  0  0  0  # atno 17321 bound_to 7965
  140.0784  143.4993  152.2543 LP  0  0  0  0  0  0  0  0  0  0  0  0  # atno 17342 bound_to 10162
  139.5950  144.7563  151.3309 LP  0  0  0  0  0  0  0  0  0  0  0  0  # atno 17343 bound_to 10162
  157.6359  130.8766  149.9359 LP  0  0  0  0  0  0  0  0  0  0  0  0  # atno 17370 bound_to 10713
  156.0884  130.3665  150.0442 LP  0  0  0  0  0  0  0  0  0  0  0  0  # atno 17371 bound_to 10713
  140.3688  134.7624  157.4584 LP  0  0  0  0  0  0  0  0  0  0  0  0  # atno 17394 bound_to 11000
  140.0727  134.5840  155.8624 LP  0  0  0  0  0  0  0  0  0  0  0  0  # atno 17395 bound_to 11000

$$$$
