AV-unprocessed.smi:67|AV-procd|sdf|638|dock3
  -GOLD-   2262016533D 1   1.00000     0.00000
 Structure written by MMmdl.
 48 50  0  0  0  0  0  0  0  0  2 V2000
  145.5807  139.3632  154.2636 O   0  0  0  0  0  0  0  0  0  0  0  0
  146.5760  138.7271  153.4851 C   0  0  2  0  0  0  0  0  0  0  0  0
  147.6959  138.1937  154.4181 C   0  0  0  0  0  0  0  0  0  0  0  0
  148.9246  139.0363  154.4721 N   0  3  2  0  0  0  0  0  0  0  0  0
  150.1408  138.2153  154.7147 C   0  0  0  0  0  0  0  0  0  0  0  0
  151.4248  139.0589  154.6375 C   0  0  0  0  0  0  0  0  0  0  0  0
  151.3807  140.2500  155.6135 C   0  0  2  0  0  0  0  0  0  0  0  0
  151.3517  139.8105  156.9700 O   0  0  0  0  0  0  0  0  0  0  0  0
  151.8270  140.6298  157.9736 C   0  0  0  0  0  0  0  0  0  0  0  0
  152.6333  140.0192  158.9553 C   0  0  0  0  0  0  0  0  0  0  0  0
  153.1638  140.7689  160.0211 C   0  0  0  0  0  0  0  0  0  0  0  0
  152.8899  142.1450  160.1191 C   0  0  0  0  0  0  0  0  0  0  0  0
  152.0803  142.7762  159.1507 C   0  0  0  0  0  0  0  0  0  0  0  0
  151.7780  144.2651  159.2350 C   0  0  0  0  0  0  0  0  0  0  0  0
  150.4737  144.4781  159.0590 F   0  0  0  0  0  0  0  0  0  0  0  0
  152.1291  144.7738  160.4166 F   0  0  0  0  0  0  0  0  0  0  0  0
  152.4500  144.9033  158.2777 F   0  0  0  0  0  0  0  0  0  0  0  0
  151.5568  142.0176  158.0814 C   0  0  0  0  0  0  0  0  0  0  0  0
  150.1007  141.0576  155.3596 C   0  0  0  0  0  0  0  0  0  0  0  0
  148.8419  140.1754  155.4255 C   0  0  0  0  0  0  0  0  0  0  0  0
  147.0815  139.6493  152.3568 C   0  0  0  0  0  0  0  0  0  0  0  0
  146.4875  139.0655  151.0766 C   0  0  0  0  0  0  0  0  0  0  0  0
  146.3189  137.6497  151.3542 N   0  0  0  0  0  0  0  0  0  0  0  0
  145.8688  137.5776  152.7360 C   0  0  0  0  0  0  0  0  0  0  0  0
  145.0628  139.9177  153.6997 H   0  0  0  0  0  0  0  0  0  0  0  0
  147.3177  138.0140  155.4260 H   0  0  0  0  0  0  0  0  0  0  0  0
  147.9877  137.2149  154.0338 H   0  0  0  0  0  0  0  0  0  0  0  0
  150.0657  137.7336  155.6911 H   0  0  0  0  0  0  0  0  0  0  0  0
  150.2019  137.4171  153.9739 H   0  0  0  0  0  0  0  0  0  0  0  0
  152.2902  138.4264  154.8324 H   0  0  0  0  0  0  0  0  0  0  0  0
  151.5480  139.4324  153.6200 H   0  0  0  0  0  0  0  0  0  0  0  0
  152.2245  140.9198  155.4469 H   0  0  0  0  0  0  0  0  0  0  0  0
  152.8486  138.9625  158.8901 H   0  0  0  0  0  0  0  0  0  0  0  0
  153.7821  140.2875  160.7644 H   0  0  0  0  0  0  0  0  0  0  0  0
  153.3066  142.7089  160.9403 H   0  0  0  0  0  0  0  0  0  0  0  0
  150.9501  142.5304  157.3518 H   0  0  0  0  0  0  0  0  0  0  0  0
  150.0241  141.8711  156.0821 H   0  0  0  0  0  0  0  0  0  0  0  0
  150.1587  141.5276  154.3767 H   0  0  0  0  0  0  0  0  0  0  0  0
  147.9868  140.8070  155.1953 H   0  0  0  0  0  0  0  0  0  0  0  0
  148.6947  139.7971  156.4383 H   0  0  0  0  0  0  0  0  0  0  0  0
  146.8053  140.6950  152.4994 H   0  0  0  0  0  0  0  0  0  0  0  0
  148.1685  139.6098  152.2800 H   0  0  0  0  0  0  0  0  0  0  0  0
  145.5155  139.5207  150.8809 H   0  0  0  0  0  0  0  0  0  0  0  0
  147.1181  139.2390  150.2043 H   0  0  0  0  0  0  0  0  0  0  0  0
  147.2257  137.1991  151.2861 H   0  0  0  0  0  0  0  0  0  0  0  0
  146.0704  136.5989  153.1721 H   0  0  0  0  0  0  0  0  0  0  0  0
  144.7861  137.7147  152.7579 H   0  0  0  0  0  0  0  0  0  0  0  0
  149.0341  139.4355  153.5507 H   0  0  0  0  0  0  0  0  0  0  0  0
  1  2  1  0  0  0  0
  1 25  1  0  0  0  0
  2 24  1  0  0  0  0
  2  3  1  0  0  0  0
  2 21  1  0  0  0  0
  3  4  1  0  0  0  0
  3 26  1  0  0  0  0
  3 27  1  0  0  0  0
  4 20  1  0  0  0  0
  4  5  1  0  0  0  0
  4 48  1  0  0  0  0
  5  6  1  0  0  0  0
  5 28  1  0  0  0  0
  5 29  1  0  0  0  0
  6  7  1  0  0  0  0
  6 30  1  0  0  0  0
  6 31  1  0  0  0  0
  7  8  1  0  0  0  0
  7 19  1  0  0  0  0
  7 32  1  0  0  0  0
  8  9  1  0  0  0  0
  9 18  1  0  0  0  0
  9 10  2  0  0  0  0
 10 11  1  0  0  0  0
 10 33  1  0  0  0  0
 11 12  2  0  0  0  0
 11 34  1  0  0  0  0
 12 13  1  0  0  0  0
 12 35  1  0  0  0  0
 13 14  1  0  0  0  0
 13 18  2  0  0  0  0
 14 15  1  0  0  0  0
 14 16  1  0  0  0  0
 14 17  1  0  0  0  0
 18 36  1  0  0  0  0
 19 20  1  0  0  0  0
 19 37  1  0  0  0  0
 19 38  1  0  0  0  0
 20 39  1  0  0  0  0
 20 40  1  0  0  0  0
 21 22  1  0  0  0  0
 21 41  1  0  0  0  0
 21 42  1  0  0  0  0
 22 23  1  0  0  0  0
 22 43  1  0  0  0  0
 22 44  1  0  0  0  0
 23 24  1  0  0  0  0
 23 45  1  0  0  0  0
 24 46  1  0  0  0  0
 24 47  1  0  0  0  0
M  CHG  1   4   1
M  END
> <s_m_source_file>
AV-unprocessed.smi

> <i_m_source_file_index>
67

> <i_lp_mmshare_version>
43012

> <i_f3d_flags>
0

> <s_epik_input>
W0NIMl0xW05IXVtDSDJdW0NIMl1bQ0BAXTEoW09IXSlbQ0gyXU4yW0NIMl1bQ0gyXVtDSF0oW0NIMl1bQ0gyXTIpT2MzW2NIXVtjSF1bY0hdYyhDKEYpKEYpRilbY0hdMw==

> <s_epik_cmdline>
J2VwaWtfcHl0aG9uJywgJy1waCcsICc3LjAnLCAnLXRuJywgJzgnLCAnLW1hJywgJzIwMCcsICctbWV0YWxfYmluZGluZycsICctaW1hZScsICc8aW5maWxlLm1hZT4nLCAnLW9tYWUnLCAnPG91dGZpbGUubWFlPic=

> <r_epik_Ionization_Penalty>
2.37709

> <r_epik_Ionization_Penalty_Charging>
0.0305656

> <r_epik_Ionization_Penalty_Neutral>
2.34653

> <r_epik_State_Penalty>
2.56959

> <r_epik_Charging_Adjusted_Penalty>
2.60016

> <i_epik_Tot_Q>
1

> <i_epik_Tot_abs_Q>
1

> <r_epik_Metal_State_Penalty>
2.56925

> <b_epik_Metal_Only>
0

> <s_lp_Force_Field>
OPLS_2005

> <r_lp_Energy>
52.4549

> <b_lp_Chiralities_Consistent>
1

> <s_lp_Variant>
AV-unprocessed.smi:67-10

> <Gold.Version>
5.8.1

> <Gold.Id.Protein>
6NUR|6NUR_protein|mol2

> <Gold.PLP.Fitness>
56.2826

> <Gold.PLP.PLP>
-53.6781

> <Gold.PLP.part.hbond>
-2.8592

> <Gold.PLP.part.metal>
0.0000

> <Gold.PLP.part.buried>
-0.2713

> <Gold.PLP.part.nonpolar>
-49.1132

> <Gold.PLP.part.repulsive>
0.0320

> <Gold.PLP.ligand.clash>
0.0000

> <Gold.PLP.ligand.torsion>
2.0234

> <Gold.PLP.Chemscore.Hbond>
2.0000

> <Gold.PLP.Chemscore.CHOScore>
0.0000

> <Gold.PLP.Chemscore.Metal>
0.0000

> <Gold.Chemscore.Hbonds>
donor molecule, donor type, donor heavy atom, donor atom, acceptor molecule, acceptor atom, score
      L1  H     1    25       P1 10175  1.00
      L1  H    23    45       P1  7948  1.00

> <Gold.PLP.Chemscore.Internal.Correction>
0.6513

> <Gold.Rescore>
     Score         DG    S(hbond)    S(metal)    S(lipo)     H(rot)  DE(clash)    DE(int)     intcor
     18.08     -21.01       1.98        0.00     123.66       2.17       1.16       1.77       ----

> <Gold.Chemscore.Fitness>
18.0807

> <Gold.Chemscore.DG>
-21.0061

> <Gold.Chemscore.ZeroCoef>
-5.4800

> <Gold.Chemscore.Hbond>
1.9826

> <Gold.Chemscore.Metal>
0.0000

> <Gold.Chemscore.Lipo>
123.6595

> <Gold.Chemscore.Internal_Hbond>
0.0000

> <Gold.Chemscore.DEClash>
1.1565

> <Gold.Chemscore.DEInternal>
1.7688

> <Gold.Chemscore.Rot>
2.1734

> <Gold.Chemscore.Internal.Correction>
   9.000000E+99

> <Gold.Chemscore.Hbonds>
donor molecule, donor type, donor heavy atom, donor atom, acceptor molecule, acceptor atom, score
      L1  H     1    25       P1 10175  0.99
      L1  H     4    48       P1  7957  0.01
      L1  H    23    45       P1  7948  0.94

> <Gold.Chemscore.Hbond.Weighted>
-6.6219

> <Gold.Chemscore.Metal.Weighted>
-0.0000

> <Gold.Chemscore.Lipo.Weighted>
-14.4682

> <Gold.Chemscore.Internal_Hbond.Weighted>
0.0000

> <Gold.Chemscore.DEClash.Weighted>
1.1565

> <Gold.Chemscore.DEInternal.Weighted>
1.7688

> <Gold.Chemscore.Rot.Weighted>
5.5640

> <Gold.Chemscore.Internal.Correction.Weighted>
   9.000000E+99

> <Gold.Protein.RotatedTorsions>
[ 6907 6896 6895 6894 ] final    0.44 input  -60.11 | X-H torsion
[ 7974 7965 7964 7962 ] final  -15.63 input  175.53 | X-H torsion
[ 8008 7997 7996 7995 ] final  -63.49 input   59.86 | X-H torsion
[ 10167 10162 10161 10158 ] final   71.40 input  -65.29 | X-H torsion
[ 10718 10713 10712 10709 ] final -170.55 input   66.30 | X-H torsion
[ 10763 10752 10751 10750 ] final    9.25 input  -60.55 | X-H torsion
[ 11005 11000 10999 10996 ] final  -89.09 input  -57.11 | X-H torsion

> <Gold.Protein.ActiveResidues>
 VAL166  LYS551  ARG553  GLY616  TRP617  ASP618  TYR619  PRO620  LYS621  CYS622 
 ASP623  PHE694  ASN695  SER759  ASP760  ASP761  ALA762  ILE779  LEU786  VAL792 
 PHE793  MET794  SER795  GLU796  ALA797  LYS798  CYS799  TRP800  GLU811  SER814 

> <Gold.Protein.RotatedAtoms>
  151.5764  135.1060  160.0006 H   0  0  0  0  0  0  0  0  0  0  0  0  # atno 6907 bound_to 6896
  152.4375  133.7384  159.6637 H   0  0  0  0  0  0  0  0  0  0  0  0  # atno 6908 bound_to 6896
  150.8276  133.8076  159.3135 H   0  0  0  0  0  0  0  0  0  0  0  0  # atno 6909 bound_to 6896
  146.2023  140.3520  142.8419 H   0  0  0  0  0  0  0  0  0  0  0  0  # atno 7974 bound_to 7965
  154.4557  140.0973  156.6751 H   0  0  0  0  0  0  0  0  0  0  0  0  # atno 8008 bound_to 7997
  155.5145  140.3477  155.4376 H   0  0  0  0  0  0  0  0  0  0  0  0  # atno 8009 bound_to 7997
  156.0773  140.1364  156.9744 H   0  0  0  0  0  0  0  0  0  0  0  0  # atno 8010 bound_to 7997
  140.0465  144.5347  150.7395 H   0  0  0  0  0  0  0  0  0  0  0  0  # atno 10167 bound_to 10162
  156.7278  130.9294  151.3102 H   0  0  0  0  0  0  0  0  0  0  0  0  # atno 10718 bound_to 10713
  153.2161  135.6875  153.8055 H   0  0  0  0  0  0  0  0  0  0  0  0  # atno 10763 bound_to 10752
  153.7271  135.3258  155.3279 H   0  0  0  0  0  0  0  0  0  0  0  0  # atno 10764 bound_to 10752
  154.8246  135.4627  154.0989 H   0  0  0  0  0  0  0  0  0  0  0  0  # atno 10765 bound_to 10752
  141.1591  133.7609  156.9545 H   0  0  0  0  0  0  0  0  0  0  0  0  # atno 11005 bound_to 11000
  144.8712  140.7275  143.6045 LP  0  0  0  0  0  0  0  0  0  0  0  0  # atno 17320 bound_to 7965
  145.3440  139.1724  143.4470 LP  0  0  0  0  0  0  0  0  0  0  0  0  # atno 17321 bound_to 7965
  140.7236  143.2613  151.4195 LP  0  0  0  0  0  0  0  0  0  0  0  0  # atno 17342 bound_to 10162
  139.5980  144.1355  152.2166 LP  0  0  0  0  0  0  0  0  0  0  0  0  # atno 17343 bound_to 10162
  157.6871  130.9197  150.0416 LP  0  0  0  0  0  0  0  0  0  0  0  0  # atno 17370 bound_to 10713
  156.1550  130.3643  149.9382 LP  0  0  0  0  0  0  0  0  0  0  0  0  # atno 17371 bound_to 10713
  140.1235  134.9402  157.2237 LP  0  0  0  0  0  0  0  0  0  0  0  0  # atno 17394 bound_to 11000
  140.3042  134.3097  155.7282 LP  0  0  0  0  0  0  0  0  0  0  0  0  # atno 17395 bound_to 11000

$$$$
