AV-unprocessed.smi:1702|AV-procd|sdf|6850|dock10
  -GOLD-   22720 8 33D 1   1.00000     0.00000
 Structure written by MMmdl.
 45 47  0  0  0  0  0  0  0  0  3 V2000
  151.8067  139.9458  155.5651 C   0  0  0  0  0  0  0  0  0  0  0  0
  150.2956  139.8050  155.3330 C   0  0  2  0  0  0  0  0  0  0  0  0
  149.9484  138.4801  154.6338 C   0  0  0  0  0  0  0  0  0  0  0  0
  148.4368  138.3642  154.3750 C   0  0  0  0  0  0  0  0  0  0  0  0
  147.9399  139.5144  153.5770 N   0  3  1  0  0  0  0  0  0  0  0  0
  146.5154  139.3569  153.1849 C   0  0  0  0  0  0  0  0  0  0  0  0
  146.3178  138.2999  152.0798 C   0  0  1  0  0  0  0  0  0  0  0  0
  147.3914  138.3906  151.1623 O   0  0  0  0  0  0  0  0  0  0  0  0
  146.2633  136.8709  152.6571 C   0  0  0  0  0  0  0  0  0  0  0  0
  145.8394  135.8684  151.6697 N   0  0  0  0  0  0  0  0  0  0  0  0
  145.3542  136.0319  150.4084 C   0  0  0  0  0  0  0  0  0  0  0  0
  145.1061  134.7930  149.8995 N   0  3  0  0  0  0  0  0  0  0  0  0
  145.4391  133.8235  150.8482 C   0  0  0  0  0  0  0  0  0  0  0  0
  145.3644  132.4352  150.7991 C   0  0  0  0  0  0  0  0  0  0  0  0
  145.7842  131.7355  151.9496 C   0  0  0  0  0  0  0  0  0  0  0  0
  145.7290  130.3827  151.9568 F   0  0  0  0  0  0  0  0  0  0  0  0
  146.2585  132.4170  153.0908 C   0  0  0  0  0  0  0  0  0  0  0  0
  146.6510  131.7072  154.1752 F   0  0  0  0  0  0  0  0  0  0  0  0
  146.3322  133.8253  153.1277 C   0  0  0  0  0  0  0  0  0  0  0  0
  145.9123  134.5080  151.9873 C   0  0  0  0  0  0  0  0  0  0  0  0
  148.2264  140.8075  154.2534 C   0  0  0  0  0  0  0  0  0  0  0  0
  149.7336  140.9760  154.5089 C   0  0  0  0  0  0  0  0  0  0  0  0
  152.3551  139.9485  154.6226 H   0  0  0  0  0  0  0  0  0  0  0  0
  152.1894  139.1237  156.1703 H   0  0  0  0  0  0  0  0  0  0  0  0
  152.0388  140.8744  156.0873 H   0  0  0  0  0  0  0  0  0  0  0  0
  149.8086  139.8116  156.3093 H   0  0  0  0  0  0  0  0  0  0  0  0
  150.4857  138.4082  153.6870 H   0  0  0  0  0  0  0  0  0  0  0  0
  150.2814  137.6381  155.2414 H   0  0  0  0  0  0  0  0  0  0  0  0
  148.2389  137.4323  153.8435 H   0  0  0  0  0  0  0  0  0  0  0  0
  147.8938  138.3126  155.3201 H   0  0  0  0  0  0  0  0  0  0  0  0
  145.9225  139.0619  154.0524 H   0  0  0  0  0  0  0  0  0  0  0  0
  146.1224  140.3237  152.8664 H   0  0  0  0  0  0  0  0  0  0  0  0
  145.3944  138.4906  151.5346 H   0  0  0  0  0  0  0  0  0  0  0  0
  148.1044  138.8559  151.5732 H   0  0  0  0  0  0  0  0  0  0  0  0
  147.2464  136.5719  153.0238 H   0  0  0  0  0  0  0  0  0  0  0  0
  145.5869  136.8198  153.5113 H   0  0  0  0  0  0  0  0  0  0  0  0
  145.1918  136.9733  149.9031 H   0  0  0  0  0  0  0  0  0  0  0  0
  145.0028  131.9093  149.9277 H   0  0  0  0  0  0  0  0  0  0  0  0
  146.6982  134.3360  154.0054 H   0  0  0  0  0  0  0  0  0  0  0  0
  147.8767  141.6413  153.6461 H   0  0  0  0  0  0  0  0  0  0  0  0
  147.6799  140.8553  155.1968 H   0  0  0  0  0  0  0  0  0  0  0  0
  149.9139  141.9181  155.0281 H   0  0  0  0  0  0  0  0  0  0  0  0
  150.2586  141.0442  153.5549 H   0  0  0  0  0  0  0  0  0  0  0  0
  148.4708  139.5068  152.7173 H   0  0  0  0  0  0  0  0  0  0  0  0
  144.7363  134.6249  148.9724 H   0  0  0  0  0  0  0  0  0  0  0  0
  1  2  1  0  0  0  0
  1 23  1  0  0  0  0
  1 24  1  0  0  0  0
  1 25  1  0  0  0  0
  2 22  1  0  0  0  0
  2  3  1  0  0  0  0
  2 26  1  0  0  0  0
  3  4  1  0  0  0  0
  3 27  1  0  0  0  0
  3 28  1  0  0  0  0
  4  5  1  0  0  0  0
  4 29  1  0  0  0  0
  4 30  1  0  0  0  0
  5  6  1  0  0  0  0
  5 21  1  0  0  0  0
  5 44  1  0  0  0  0
  6  7  1  0  0  0  0
  6 31  1  0  0  0  0
  6 32  1  0  0  0  0
  7  8  1  0  0  0  0
  7  9  1  0  0  0  0
  7 33  1  0  0  0  0
  8 34  1  0  0  0  0
  9 10  1  0  0  0  0
  9 35  1  0  0  0  0
  9 36  1  0  0  0  0
 10 20  1  0  0  0  0
 10 11  1  0  0  0  0
 11 12  2  0  0  0  0
 11 37  1  0  0  0  0
 12 13  1  0  0  0  0
 12 45  1  0  0  0  0
 13 20  2  0  0  0  0
 13 14  1  0  0  0  0
 14 15  2  0  0  0  0
 14 38  1  0  0  0  0
 15 16  1  0  0  0  0
 15 17  1  0  0  0  0
 17 18  1  0  0  0  0
 17 19  2  0  0  0  0
 19 20  1  0  0  0  0
 19 39  1  0  0  0  0
 21 22  1  0  0  0  0
 21 40  1  0  0  0  0
 21 41  1  0  0  0  0
 22 42  1  0  0  0  0
 22 43  1  0  0  0  0
M  CHG  1   5   1
M  CHG  1  12   1
M  END
> <s_m_source_file>
AV-unprocessed.smi

> <i_m_source_file_index>
1702

> <i_lp_mmshare_version>
43012

> <i_f3d_flags>
0

> <s_epik_input>
W0NIM11bQ0hdMVtDSDJdW0NIMl1OKFtDSDJdW0NIMl0xKVtDSDJdW0NASF0oW09IXSlbQ0gyXW4oW2NIXW4yKWMoYzIzKVtjSF1jKEYpYyhGKVtjSF0z

> <s_epik_cmdline>
J2VwaWtfcHl0aG9uJywgJy1waCcsICc3LjAnLCAnLXRuJywgJzgnLCAnLW1hJywgJzIwMCcsICctbWV0YWxfYmluZGluZycsICctaW1hZScsICc8aW5maWxlLm1hZT4nLCAnLW9tYWUnLCAnPG91dGZpbGUubWFlPic=

> <r_epik_Ionization_Penalty>
2.33291

> <r_epik_Ionization_Penalty_Charging>
2.33291

> <r_epik_Ionization_Penalty_Neutral>
6.90208e-07

> <r_epik_State_Penalty>
2.4838

> <r_epik_Charging_Adjusted_Penalty>
4.81672

> <i_epik_Tot_Q>
2

> <i_epik_Tot_abs_Q>
2

> <r_epik_Metal_State_Penalty>
6.56754

> <b_epik_Metal_Only>
0

> <s_lp_Force_Field>
OPLS_2005

> <r_lp_Energy>
29.8556

> <b_lp_Chiralities_Consistent>
1

> <s_lp_Variant>
AV-unprocessed.smi:1702-6

> <Gold.Version>
5.8.1

> <Gold.Id.Protein>
6NUR|6NUR_protein|mol2

> <Gold.PLP.Fitness>
49.1261

> <Gold.PLP.PLP>
-38.3589

> <Gold.PLP.part.hbond>
-4.8828

> <Gold.PLP.part.metal>
0.0000

> <Gold.PLP.part.buried>
3.8785

> <Gold.PLP.part.nonpolar>
-36.8168

> <Gold.PLP.part.repulsive>
0.1186

> <Gold.PLP.ligand.clash>
0.0000

> <Gold.PLP.ligand.torsion>
0.4870

> <Gold.PLP.Chemscore.Hbond>
2.9080

> <Gold.PLP.Chemscore.CHOScore>
1.0000

> <Gold.PLP.Chemscore.Metal>
0.0000

> <Gold.Chemscore.Hbonds>
donor molecule, donor type, donor heavy atom, donor atom, acceptor molecule, acceptor atom, score
      L1  H     5    44       P1  7957  1.00
      L1  H     8    34       P1  7957  0.80
      L1  H    12    45       P1  7921  0.22
      P1  H  7954  7966       L1     8  0.85
      L1  C    11    37       P1 10171  1.00

> <Gold.PLP.Chemscore.Internal.Correction>
0.0171

> <Gold.Rescore>
     Score         DG    S(hbond)    S(metal)    S(lipo)     H(rot)  DE(clash)    DE(int)     intcor
     13.83     -16.93       2.02        0.00      91.11       2.32       2.65       0.45       ----

> <Gold.Chemscore.Fitness>
13.8320

> <Gold.Chemscore.DG>
-16.9332

> <Gold.Chemscore.ZeroCoef>
-5.4800

> <Gold.Chemscore.Hbond>
2.0164

> <Gold.Chemscore.Metal>
0.0000

> <Gold.Chemscore.Lipo>
91.1132

> <Gold.Chemscore.Internal_Hbond>
0.0000

> <Gold.Chemscore.DEClash>
2.6531

> <Gold.Chemscore.DEInternal>
0.4481

> <Gold.Chemscore.Rot>
2.3210

> <Gold.Chemscore.Internal.Correction>
   9.000000E+99

> <Gold.Chemscore.Hbonds>
donor molecule, donor type, donor heavy atom, donor atom, acceptor molecule, acceptor atom, score
      L1  H     5    44       P1  7957  0.97
      L1  H     8    34       P1  7957  0.59
      L1  H    12    45       P1  7921  0.22
      P1  H  7954  7966       L1     8  0.14

> <Gold.Chemscore.Hbond.Weighted>
-6.7346

> <Gold.Chemscore.Metal.Weighted>
-0.0000

> <Gold.Chemscore.Lipo.Weighted>
-10.6602

> <Gold.Chemscore.Internal_Hbond.Weighted>
0.0000

> <Gold.Chemscore.DEClash.Weighted>
2.6531

> <Gold.Chemscore.DEInternal.Weighted>
0.4481

> <Gold.Chemscore.Rot.Weighted>
5.9416

> <Gold.Chemscore.Internal.Correction.Weighted>
   9.000000E+99

> <Gold.Protein.RotatedTorsions>
[ 6907 6896 6895 6894 ] final   27.13 input  -60.11 | X-H torsion
[ 7974 7965 7964 7962 ] final   95.98 input  175.53 | X-H torsion
[ 8008 7997 7996 7995 ] final   50.94 input   59.86 | X-H torsion
[ 10167 10162 10161 10158 ] final  126.07 input  -65.29 | X-H torsion
[ 10718 10713 10712 10709 ] final   73.73 input   66.30 | X-H torsion
[ 10763 10752 10751 10750 ] final -101.78 input  -60.55 | X-H torsion
[ 11005 11000 10999 10996 ] final   10.53 input  -57.11 | X-H torsion

> <Gold.Protein.ActiveResidues>
 VAL166  LYS551  ARG553  GLY616  TRP617  ASP618  TYR619  PRO620  LYS621  CYS622 
 ASP623  PHE694  ASN695  SER759  ASP760  ASP761  ALA762  ILE779  LEU786  VAL792 
 PHE793  MET794  SER795  GLU796  ALA797  LYS798  CYS799  TRP800  GLU811  SER814 

> <Gold.Protein.RotatedAtoms>
  151.9978  134.9945  160.0563 H   0  0  0  0  0  0  0  0  0  0  0  0  # atno 6907 bound_to 6896
  152.1548  133.4540  159.4840 H   0  0  0  0  0  0  0  0  0  0  0  0  # atno 6908 bound_to 6896
  150.6880  134.2062  159.4384 H   0  0  0  0  0  0  0  0  0  0  0  0  # atno 6909 bound_to 6896
  145.4449  139.2298  143.3071 H   0  0  0  0  0  0  0  0  0  0  0  0  # atno 7974 bound_to 7965
  155.4271  140.3449  155.4276 H   0  0  0  0  0  0  0  0  0  0  0  0  # atno 8008 bound_to 7997
  156.1359  140.1527  156.9026 H   0  0  0  0  0  0  0  0  0  0  0  0  # atno 8009 bound_to 7997
  154.4931  140.0835  156.7618 H   0  0  0  0  0  0  0  0  0  0  0  0  # atno 8010 bound_to 7997
  139.5651  144.6906  151.3933 H   0  0  0  0  0  0  0  0  0  0  0  0  # atno 10167 bound_to 10162
  157.6561  130.9643  150.1111 H   0  0  0  0  0  0  0  0  0  0  0  0  # atno 10718 bound_to 10713
  154.7684  135.4885  153.9600 H   0  0  0  0  0  0  0  0  0  0  0  0  # atno 10763 bound_to 10752
  153.1337  135.6758  153.9145 H   0  0  0  0  0  0  0  0  0  0  0  0  # atno 10764 bound_to 10752
  153.8841  135.3128  155.3424 H   0  0  0  0  0  0  0  0  0  0  0  0  # atno 10765 bound_to 10752
  140.5135  134.0629  155.7824 H   0  0  0  0  0  0  0  0  0  0  0  0  # atno 11005 bound_to 11000
  146.2536  140.5202  142.8883 LP  0  0  0  0  0  0  0  0  0  0  0  0  # atno 17320 bound_to 7965
  144.8098  140.6365  143.6423 LP  0  0  0  0  0  0  0  0  0  0  0  0  # atno 17321 bound_to 7965
  140.6934  143.7807  150.7289 LP  0  0  0  0  0  0  0  0  0  0  0  0  # atno 17342 bound_to 10162
  140.1296  143.4537  152.2262 LP  0  0  0  0  0  0  0  0  0  0  0  0  # atno 17343 bound_to 10162
  156.2008  130.3660  149.8791 LP  0  0  0  0  0  0  0  0  0  0  0  0  # atno 17370 bound_to 10713
  156.6695  130.8815  151.3560 LP  0  0  0  0  0  0  0  0  0  0  0  0  # atno 17371 bound_to 10713
  141.1373  133.9200  157.2406 LP  0  0  0  0  0  0  0  0  0  0  0  0  # atno 17394 bound_to 11000
  139.9645  135.0145  156.9351 LP  0  0  0  0  0  0  0  0  0  0  0  0  # atno 17395 bound_to 11000

$$$$
