AV-unprocessed.smi:3195|AV-procd|sdf|12215|dock3
  -GOLD-   2272018 53D 1   1.00000     0.00000
 Structure written by MMmdl.
 30 31  0  0  0  0  0  0  0  0  3 V2000
  148.3126  140.6060  154.0760 C   0  0  0  0  0  0  0  0  0  0  0  0
  149.3800  139.9567  154.9737 C   0  0  1  0  0  0  0  0  0  0  0  0
  149.6278  140.8241  156.2264 C   0  0  0  0  0  0  0  0  0  0  0  0
  148.7220  140.9581  157.0511 O   0  0  0  0  0  0  0  0  0  0  0  0
  150.8417  141.3985  156.3374 N   0  0  0  0  0  0  0  0  0  0  0  0
  151.3460  142.2301  157.3756 C   0  0  0  0  0  0  0  0  0  0  0  0
  150.9247  143.5084  157.5456 N   0  3  0  0  0  0  0  0  0  0  0  0
  151.3820  144.3228  158.5209 C   0  0  0  0  0  0  0  0  0  0  0  0
  152.3494  143.8526  159.4291 C   0  0  0  0  0  0  0  0  0  0  0  0
  152.8231  142.5322  159.2983 C   0  0  0  0  0  0  0  0  0  0  0  0
  152.3192  141.7134  158.2652 C   0  0  0  0  0  0  0  0  0  0  0  0
  152.7787  140.4322  158.1399 O   0  5  0  0  0  0  0  0  0  0  0  0
  149.0165  138.4999  155.3465 C   0  0  0  0  0  0  0  0  0  0  0  0
  150.0602  137.6546  154.6387 C   0  0  0  0  0  0  0  0  0  0  0  0
  151.2281  138.6173  154.5020 C   0  0  0  0  0  0  0  0  0  0  0  0
  150.5831  139.8471  154.2054 O   0  0  0  0  0  0  0  0  0  0  0  0
  147.3497  140.6737  154.5837 H   0  0  0  0  0  0  0  0  0  0  0  0
  148.1640  140.0262  153.1646 H   0  0  0  0  0  0  0  0  0  0  0  0
  148.6039  141.6140  153.7783 H   0  0  0  0  0  0  0  0  0  0  0  0
  151.4929  141.2109  155.5879 H   0  0  0  0  0  0  0  0  0  0  0  0
  150.9617  145.3175  158.5446 H   0  0  0  0  0  0  0  0  0  0  0  0
  152.7229  144.4932  160.2142 H   0  0  0  0  0  0  0  0  0  0  0  0
  153.5654  142.1522  159.9850 H   0  0  0  0  0  0  0  0  0  0  0  0
  150.2231  143.8723  156.8999 H   0  0  0  0  0  0  0  0  0  0  0  0
  149.0817  138.3266  156.4222 H   0  0  0  0  0  0  0  0  0  0  0  0
  148.0066  138.2227  155.0411 H   0  0  0  0  0  0  0  0  0  0  0  0
  150.3179  136.7459  155.1832 H   0  0  0  0  0  0  0  0  0  0  0  0
  149.6996  137.3695  153.6495 H   0  0  0  0  0  0  0  0  0  0  0  0
  151.7776  138.7026  155.4408 H   0  0  0  0  0  0  0  0  0  0  0  0
  151.9263  138.3281  153.7163 H   0  0  0  0  0  0  0  0  0  0  0  0
  1  2  1  0  0  0  0
  1 17  1  0  0  0  0
  1 18  1  0  0  0  0
  1 19  1  0  0  0  0
  2 16  1  0  0  0  0
  2  3  1  0  0  0  0
  2 13  1  0  0  0  0
  3  4  2  0  0  0  0
  3  5  1  0  0  0  0
  5 20  1  0  0  0  0
  5  6  1  0  0  0  0
  6 11  2  0  0  0  0
  6  7  1  0  0  0  0
  7 24  1  0  0  0  0
  7  8  2  0  0  0  0
  8 21  1  0  0  0  0
  8  9  1  0  0  0  0
  9 22  1  0  0  0  0
  9 10  2  0  0  0  0
 10 11  1  0  0  0  0
 10 23  1  0  0  0  0
 11 12  1  0  0  0  0
 13 14  1  0  0  0  0
 13 25  1  0  0  0  0
 13 26  1  0  0  0  0
 14 15  1  0  0  0  0
 14 27  1  0  0  0  0
 14 28  1  0  0  0  0
 15 16  1  0  0  0  0
 15 29  1  0  0  0  0
 15 30  1  0  0  0  0
M  CHG  1   7   1
M  CHG  1  12  -1
M  END
> <s_m_source_file>
AV-unprocessed.smi

> <i_m_source_file_index>
3195

> <i_lp_mmshare_version>
43012

> <i_f3d_flags>
0

> <s_epik_input>
TzFbQ0gyXVtDSDJdW0NIMl1bQ0BAXTEoW0NIM10pQyg9TylbTkhdYzJuW2NIXVtjSF1bY0hdYzJbT0hd

> <s_epik_cmdline>
J2VwaWtfcHl0aG9uJywgJy1waCcsICc3LjAnLCAnLXRuJywgJzgnLCAnLW1hJywgJzIwMCcsICctbWV0YWxfYmluZGluZycsICctaW1hZScsICc8aW5maWxlLm1hZT4nLCAnLW9tYWUnLCAnPG91dGZpbGUubWFlPic=

> <r_lp_tautomer_probability>
0.56342

> <r_epik_Ionization_Penalty>
0.213843

> <r_epik_Ionization_Penalty_Charging>
0.0241245

> <r_epik_Ionization_Penalty_Neutral>
0.189718

> <r_epik_State_Penalty>
0.53074

> <r_epik_Charging_Adjusted_Penalty>
0.554865

> <i_epik_Tot_Q>
0

> <i_epik_Tot_abs_Q>
2

> <r_epik_Metal_State_Penalty>
2.53391

> <b_epik_Metal_Only>
0

> <s_lp_Force_Field>
OPLS_2005

> <r_lp_Energy>
20.8305

> <b_lp_Chiralities_Consistent>
1

> <s_lp_Variant>
AV-unprocessed.smi:3195-3

> <Gold.Version>
5.8.1

> <Gold.Id.Protein>
6NUR|6NUR_protein|mol2

> <Gold.PLP.Fitness>
41.5384

> <Gold.PLP.PLP>
-28.4623

> <Gold.PLP.part.hbond>
-2.9553

> <Gold.PLP.part.metal>
0.0000

> <Gold.PLP.part.buried>
-3.2874

> <Gold.PLP.part.nonpolar>
-21.3629

> <Gold.PLP.part.repulsive>
0.3016

> <Gold.PLP.ligand.clash>
0.0000

> <Gold.PLP.ligand.torsion>
0.7388

> <Gold.PLP.Chemscore.Hbond>
4.6812

> <Gold.PLP.Chemscore.CHOScore>
0.0000

> <Gold.PLP.Chemscore.Metal>
0.0000

> <Gold.Chemscore.Hbonds>
donor molecule, donor type, donor heavy atom, donor atom, acceptor molecule, acceptor atom, score
      L1  H     7    24       P1  8028  2.00
      P1  H  7989  7998       L1    16  1.00
      P1  H  7997  8009       L1    12  1.26

> <Gold.PLP.Chemscore.Internal.Correction>
0.5102

> <Gold.Rescore>
     Score         DG    S(hbond)    S(metal)    S(lipo)     H(rot)  DE(clash)    DE(int)     intcor
     19.54     -20.41       2.67        0.00      73.29       1.00       0.06       0.81       ----

> <Gold.Chemscore.Fitness>
19.5378

> <Gold.Chemscore.DG>
-20.4109

> <Gold.Chemscore.ZeroCoef>
-5.4800

> <Gold.Chemscore.Hbond>
2.6694

> <Gold.Chemscore.Metal>
0.0000

> <Gold.Chemscore.Lipo>
73.2930

> <Gold.Chemscore.Internal_Hbond>
0.0000

> <Gold.Chemscore.DEClash>
0.0620

> <Gold.Chemscore.DEInternal>
0.8111

> <Gold.Chemscore.Rot>
1.0000

> <Gold.Chemscore.Internal.Correction>
   9.000000E+99

> <Gold.Chemscore.Hbonds>
donor molecule, donor type, donor heavy atom, donor atom, acceptor molecule, acceptor atom, score
      L1  H     7    24       P1  8028  0.96
      P1  H  7989  7998       L1    16  0.74
      P1  H  7997  8009       L1    12  0.61

> <Gold.Chemscore.Hbond.Weighted>
-8.9157

> <Gold.Chemscore.Metal.Weighted>
-0.0000

> <Gold.Chemscore.Lipo.Weighted>
-8.5753

> <Gold.Chemscore.Internal_Hbond.Weighted>
0.0000

> <Gold.Chemscore.DEClash.Weighted>
0.0620

> <Gold.Chemscore.DEInternal.Weighted>
0.8111

> <Gold.Chemscore.Rot.Weighted>
2.5600

> <Gold.Chemscore.Internal.Correction.Weighted>
   9.000000E+99

> <Gold.Protein.RotatedTorsions>
[ 6907 6896 6895 6894 ] final   73.25 input  -60.11 | X-H torsion
[ 7974 7965 7964 7962 ] final -136.55 input  175.53 | X-H torsion
[ 8008 7997 7996 7995 ] final  161.80 input   59.86 | X-H torsion
[ 10167 10162 10161 10158 ] final  -58.60 input  -65.29 | X-H torsion
[ 10718 10713 10712 10709 ] final  -75.24 input   66.30 | X-H torsion
[ 10763 10752 10751 10750 ] final  112.09 input  -60.55 | X-H torsion
[ 11005 11000 10999 10996 ] final   51.86 input  -57.11 | X-H torsion

> <Gold.Protein.ActiveResidues>
 VAL166  LYS551  ARG553  GLY616  TRP617  ASP618  TYR619  PRO620  LYS621  CYS622 
 ASP623  PHE694  ASN695  SER759  ASP760  ASP761  ALA762  ILE779  LEU786  VAL792 
 PHE793  MET794  SER795  GLU796  ALA797  LYS798  CYS799  TRP800  GLU811  SER814 

> <Gold.Protein.RotatedAtoms>
  152.4913  134.4450  159.9555 H   0  0  0  0  0  0  0  0  0  0  0  0  # atno 6907 bound_to 6896
  151.4437  133.3630  159.2793 H   0  0  0  0  0  0  0  0  0  0  0  0  # atno 6908 bound_to 6896
  150.9070  134.8509  159.7459 H   0  0  0  0  0  0  0  0  0  0  0  0  # atno 6909 bound_to 6896
  144.8918  140.6652  143.5141 H   0  0  0  0  0  0  0  0  0  0  0  0  # atno 7974 bound_to 7965
  156.2077  140.1767  156.7763 H   0  0  0  0  0  0  0  0  0  0  0  0  # atno 8008 bound_to 7997
  154.5678  140.0688  156.8949 H   0  0  0  0  0  0  0  0  0  0  0  0  # atno 8009 bound_to 7997
  155.2728  140.3343  155.4266 H   0  0  0  0  0  0  0  0  0  0  0  0  # atno 8010 bound_to 7997
  140.6187  143.2411  151.5534 H   0  0  0  0  0  0  0  0  0  0  0  0  # atno 10167 bound_to 10162
  156.0214  130.4436  150.3013 H   0  0  0  0  0  0  0  0  0  0  0  0  # atno 10718 bound_to 10713
  153.4727  135.3697  155.2400 H   0  0  0  0  0  0  0  0  0  0  0  0  # atno 10763 bound_to 10752
  154.8756  135.3935  154.3792 H   0  0  0  0  0  0  0  0  0  0  0  0  # atno 10764 bound_to 10752
  153.4383  135.7083  153.6250 H   0  0  0  0  0  0  0  0  0  0  0  0  # atno 10765 bound_to 10752
  140.0897  134.5225  155.8864 H   0  0  0  0  0  0  0  0  0  0  0  0  # atno 11005 bound_to 11000
  145.3770  139.1645  143.4301 LP  0  0  0  0  0  0  0  0  0  0  0  0  # atno 17320 bound_to 7965
  146.3058  140.3848  142.8688 LP  0  0  0  0  0  0  0  0  0  0  0  0  # atno 17321 bound_to 7965
  139.5420  144.2622  152.1369 LP  0  0  0  0  0  0  0  0  0  0  0  0  # atno 17342 bound_to 10162
  140.1837  144.4820  150.6515 LP  0  0  0  0  0  0  0  0  0  0  0  0  # atno 17343 bound_to 10162
  157.1116  131.0223  151.3046 LP  0  0  0  0  0  0  0  0  0  0  0  0  # atno 17370 bound_to 10713
  157.4700  130.7703  149.7315 LP  0  0  0  0  0  0  0  0  0  0  0  0  # atno 17371 bound_to 10713
  141.2074  133.6664  156.6303 LP  0  0  0  0  0  0  0  0  0  0  0  0  # atno 17394 bound_to 11000
  140.3369  134.7882  157.4368 LP  0  0  0  0  0  0  0  0  0  0  0  0  # atno 17395 bound_to 11000

$$$$
