AV-unprocessed.smi:66|AV-procd|sdf|623|dock10
  -GOLD-   2262016513D 1   1.00000     0.00000
 Structure written by MMmdl.
 28 30  0  0  0  0  0  0  0  0  2 V2000
  153.0874  139.4972  154.7685 O   0  0  0  0  0  0  0  0  0  0  0  0
  152.2775  138.6469  155.1979 C   0  0  0  0  0  0  0  0  0  0  0  0
  152.2462  137.4422  154.8608 O   0  5  0  0  0  0  0  0  0  0  0  0
  151.2375  139.1347  156.2176 C   0  0  2  0  0  0  0  0  0  0  0  0
  149.7961  138.7341  155.8307 C   0  0  0  0  0  0  0  0  0  0  0  0
  148.9857  140.0191  156.0012 C   0  0  2  0  0  0  0  0  0  0  0  0
  147.8857  140.0858  155.1187 O   0  0  0  0  0  0  0  0  0  0  0  0
  150.0183  141.1065  155.7275 C   0  0  0  0  0  0  0  0  0  0  0  0
  151.2478  140.5970  156.3275 N   0  0  0  0  0  0  0  0  0  0  0  0
  151.7446  141.1482  157.5312 C   0  0  0  0  0  0  0  0  0  0  0  0
  152.2995  140.3415  158.4684 N   0  0  0  0  0  0  0  0  0  0  0  0
  152.7617  140.8963  159.5966 C   0  0  0  0  0  0  0  0  0  0  0  0
  152.7619  142.1858  159.9676 N   0  0  0  0  0  0  0  0  0  0  0  0
  152.2133  143.0004  159.0569 C   0  0  0  0  0  0  0  0  0  0  0  0
  152.0739  144.3770  159.1722 N   0  0  0  0  0  0  0  0  0  0  0  0
  151.4767  144.6903  158.0233 C   0  0  0  0  0  0  0  0  0  0  0  0
  151.2177  143.6714  157.1884 N   0  0  0  0  0  0  0  0  0  0  0  0
  151.6872  142.5295  157.8167 C   0  0  0  0  0  0  0  0  0  0  0  0
  150.7783  143.7492  156.2802 H   0  0  0  0  0  0  0  0  0  0  0  0
  151.4616  138.6928  157.1899 H   0  0  0  0  0  0  0  0  0  0  0  0
  149.7431  138.3930  154.7948 H   0  0  0  0  0  0  0  0  0  0  0  0
  149.4116  137.9273  156.4553 H   0  0  0  0  0  0  0  0  0  0  0  0
  148.6325  140.0995  157.0304 H   0  0  0  0  0  0  0  0  0  0  0  0
  148.1685  139.7818  154.2694 H   0  0  0  0  0  0  0  0  0  0  0  0
  150.1936  141.2072  154.6551 H   0  0  0  0  0  0  0  0  0  0  0  0
  149.6881  142.0834  156.0805 H   0  0  0  0  0  0  0  0  0  0  0  0
  153.1955  140.2089  160.3074 H   0  0  0  0  0  0  0  0  0  0  0  0
  151.2155  145.7087  157.7760 H   0  0  0  0  0  0  0  0  0  0  0  0
  1  2  2  0  0  0  0
  2  3  1  0  0  0  0
  2  4  1  0  0  0  0
  4  9  1  0  0  0  0
  4  5  1  0  0  0  0
  4 20  1  0  0  0  0
  5  6  1  0  0  0  0
  5 21  1  0  0  0  0
  5 22  1  0  0  0  0
  6  7  1  0  0  0  0
  6  8  1  0  0  0  0
  6 23  1  0  0  0  0
  7 24  1  0  0  0  0
  8  9  1  0  0  0  0
  8 25  1  0  0  0  0
  8 26  1  0  0  0  0
  9 10  1  0  0  0  0
 10 18  1  0  0  0  0
 10 11  2  0  0  0  0
 11 12  1  0  0  0  0
 12 13  2  0  0  0  0
 12 27  1  0  0  0  0
 13 14  1  0  0  0  0
 14 18  2  0  0  0  0
 14 15  1  0  0  0  0
 15 16  2  0  0  0  0
 16 17  1  0  0  0  0
 16 28  1  0  0  0  0
 17 19  1  0  0  0  0
 17 18  1  0  0  0  0
M  CHG  1   3  -1
M  END
> <s_m_source_file>
AV-unprocessed.smi

> <i_m_source_file_index>
66

> <i_lp_mmshare_version>
43012

> <i_f3d_flags>
0

> <s_epik_input>
Tz1DKFtPSF0pW0NAQEhdMVtDSDJdW0NAQEhdKFtPSF0pW0NIMl1OMWMobltjSF1uMiljKGMyMylbbkhdW2NIXW4z

> <s_epik_cmdline>
J2VwaWtfcHl0aG9uJywgJy1waCcsICc3LjAnLCAnLXRuJywgJzgnLCAnLW1hJywgJzIwMCcsICctbWV0YWxfYmluZGluZycsICctaW1hZScsICc8aW5maWxlLm1hZT4nLCAnLW9tYWUnLCAnPG91dGZpbGUubWFlPic=

> <r_lp_tautomer_probability>
0.0419193

> <r_epik_Ionization_Penalty>
0.0157405

> <r_epik_Ionization_Penalty_Charging>
0.000248217

> <r_epik_Ionization_Penalty_Neutral>
0.0154923

> <r_epik_State_Penalty>
1.99742

> <r_epik_Charging_Adjusted_Penalty>
1.99767

> <i_epik_Tot_Q>
-1

> <i_epik_Tot_abs_Q>
1

> <r_epik_Metal_State_Penalty>
2.31035

> <b_epik_Metal_Only>
0

> <s_lp_Force_Field>
OPLS_2005

> <r_lp_Energy>
22.103

> <b_lp_Chiralities_Consistent>
1

> <s_lp_Variant>
AV-unprocessed.smi:66-7

> <Gold.Version>
5.8.1

> <Gold.Id.Protein>
6NUR|6NUR_protein|mol2

> <Gold.PLP.Fitness>
40.4757

> <Gold.PLP.PLP>
-28.5613

> <Gold.PLP.part.hbond>
-4.0000

> <Gold.PLP.part.metal>
0.0000

> <Gold.PLP.part.buried>
-7.8522

> <Gold.PLP.part.nonpolar>
-17.7956

> <Gold.PLP.part.repulsive>
0.1514

> <Gold.PLP.ligand.clash>
0.0000

> <Gold.PLP.ligand.torsion>
0.5224

> <Gold.PLP.Chemscore.Hbond>
4.2449

> <Gold.PLP.Chemscore.CHOScore>
0.0000

> <Gold.PLP.Chemscore.Metal>
0.0000

> <Gold.Chemscore.Hbonds>
donor molecule, donor type, donor heavy atom, donor atom, acceptor molecule, acceptor atom, score
      L1  H    17    19       P1  8028  0.37
      P1  H  7989  7998       L1     1  0.10
      P1  H  7997  8010       L1     1  2.00
      P1  H 10752 10764       L1     3  1.44

> <Gold.PLP.Chemscore.Internal.Correction>
0.2244

> <Gold.Rescore>
     Score         DG    S(hbond)    S(metal)    S(lipo)     H(rot)  DE(clash)    DE(int)     intcor
     10.04     -10.70       2.58        0.00      25.08       2.48       0.00       0.66       ----

> <Gold.Chemscore.Fitness>
10.0364

> <Gold.Chemscore.DG>
-10.6980

> <Gold.Chemscore.ZeroCoef>
-5.4800

> <Gold.Chemscore.Hbond>
2.5817

> <Gold.Chemscore.Metal>
0.0000

> <Gold.Chemscore.Lipo>
25.0775

> <Gold.Chemscore.Internal_Hbond>
0.0000

> <Gold.Chemscore.DEClash>
0.0000

> <Gold.Chemscore.DEInternal>
0.6616

> <Gold.Chemscore.Rot>
2.4762

> <Gold.Chemscore.Internal.Correction>
   9.000000E+99

> <Gold.Chemscore.Hbonds>
donor molecule, donor type, donor heavy atom, donor atom, acceptor molecule, acceptor atom, score
      L1  H    17    19       P1  8028  0.36
      P1  H  7989  7998       L1     1  0.03
      P1  H  7997  8010       L1     1  0.90
      P1  H 10752 10764       L1     3  0.70

> <Gold.Chemscore.Hbond.Weighted>
-8.6230

> <Gold.Chemscore.Metal.Weighted>
-0.0000

> <Gold.Chemscore.Lipo.Weighted>
-2.9341

> <Gold.Chemscore.Internal_Hbond.Weighted>
0.0000

> <Gold.Chemscore.DEClash.Weighted>
0.0000

> <Gold.Chemscore.DEInternal.Weighted>
0.6616

> <Gold.Chemscore.Rot.Weighted>
6.3391

> <Gold.Chemscore.Internal.Correction.Weighted>
   9.000000E+99

> <Gold.Protein.RotatedTorsions>
[ 6907 6896 6895 6894 ] final   60.85 input  -60.11 | X-H torsion
[ 7974 7965 7964 7962 ] final  142.59 input  175.53 | X-H torsion
[ 8008 7997 7996 7995 ] final   91.96 input   59.86 | X-H torsion
[ 10167 10162 10161 10158 ] final -152.85 input  -65.29 | X-H torsion
[ 10718 10713 10712 10709 ] final -143.16 input   66.30 | X-H torsion
[ 10763 10752 10751 10750 ] final  -59.54 input  -60.55 | X-H torsion
[ 11005 11000 10999 10996 ] final  160.39 input  -57.11 | X-H torsion

> <Gold.Protein.ActiveResidues>
 VAL166  LYS551  ARG553  GLY616  TRP617  ASP618  TYR619  PRO620  LYS621  CYS622 
 ASP623  PHE694  ASN695  SER759  ASP760  ASP761  ALA762  ILE779  LEU786  VAL792 
 PHE793  MET794  SER795  GLU796  ALA797  LYS798  CYS799  TRP800  GLU811  SER814 

> <Gold.Protein.RotatedAtoms>
  152.4039  134.6241  160.0058 H   0  0  0  0  0  0  0  0  0  0  0  0  # atno 6907 bound_to 6896
  151.6438  133.3319  159.3144 H   0  0  0  0  0  0  0  0  0  0  0  0  # atno 6908 bound_to 6896
  150.7936  134.7020  159.6600 H   0  0  0  0  0  0  0  0  0  0  0  0  # atno 6909 bound_to 6896
  144.8994  139.5444  143.5761 H   0  0  0  0  0  0  0  0  0  0  0  0  # atno 7974 bound_to 7965
  156.0298  140.3331  155.7128 H   0  0  0  0  0  0  0  0  0  0  0  0  # atno 8008 bound_to 7997
  155.5901  140.0645  157.2778 H   0  0  0  0  0  0  0  0  0  0  0  0  # atno 8009 bound_to 7997
  154.4349  140.1828  156.1054 H   0  0  0  0  0  0  0  0  0  0  0  0  # atno 8010 bound_to 7997
  139.7147  143.9053  152.2481 H   0  0  0  0  0  0  0  0  0  0  0  0  # atno 10167 bound_to 10162
  156.3546  130.7706  151.1864 H   0  0  0  0  0  0  0  0  0  0  0  0  # atno 10718 bound_to 10713
  154.2553  135.6318  153.5255 H   0  0  0  0  0  0  0  0  0  0  0  0  # atno 10763 bound_to 10752
  152.9905  135.5574  154.5763 H   0  0  0  0  0  0  0  0  0  0  0  0  # atno 10764 bound_to 10752
  154.5300  135.2888  155.1164 H   0  0  0  0  0  0  0  0  0  0  0  0  # atno 10765 bound_to 10752
  140.2055  134.8306  157.3064 H   0  0  0  0  0  0  0  0  0  0  0  0  # atno 11005 bound_to 11000
  146.3100  139.7712  142.9027 LP  0  0  0  0  0  0  0  0  0  0  0  0  # atno 17320 bound_to 7965
  145.3643  141.0331  143.3267 LP  0  0  0  0  0  0  0  0  0  0  0  0  # atno 17321 bound_to 7965
  139.8932  144.6954  150.8747 LP  0  0  0  0  0  0  0  0  0  0  0  0  # atno 17342 bound_to 10162
  140.7741  143.3570  151.1901 LP  0  0  0  0  0  0  0  0  0  0  0  0  # atno 17343 bound_to 10162
  157.7466  131.0417  150.4661 LP  0  0  0  0  0  0  0  0  0  0  0  0  # atno 17370 bound_to 10713
  156.4862  130.4085  149.6433 LP  0  0  0  0  0  0  0  0  0  0  0  0  # atno 17371 bound_to 10713
  140.2007  134.4258  155.7664 LP  0  0  0  0  0  0  0  0  0  0  0  0  # atno 17394 bound_to 11000
  141.2227  133.7071  156.8179 LP  0  0  0  0  0  0  0  0  0  0  0  0  # atno 17395 bound_to 11000

$$$$
