AV-unprocessed.smi:1856|AV-procd|sdf|7533|dock3
  -GOLD-   22720 9243D 1   1.00000     0.00000
 Structure written by MMmdl.
 44 45  0  0  0  0  0  0  0  0  1 V2000
  147.1017  134.7826  162.3270 C   0  0  0  0  0  0  0  0  0  0  0  0
  147.5809  135.1508  160.9136 C   0  0  0  0  0  0  0  0  0  0  0  0
  148.1687  136.5713  160.8022 C   0  0  0  0  0  0  0  0  0  0  0  0
  148.6309  136.9160  159.3842 C   0  0  0  0  0  0  0  0  0  0  0  0
  147.8501  136.8139  158.4380 O   0  0  0  0  0  0  0  0  0  0  0  0
  149.8955  137.3472  159.2568 N   0  0  0  0  0  0  0  0  0  0  0  0
  150.4898  137.8577  158.0243 C   0  0  2  0  0  0  0  0  0  0  0  0
  151.5184  136.8586  157.4752 C   0  0  0  0  0  0  0  0  0  0  0  0
  151.1007  139.2037  158.3318 C   0  0  0  0  0  0  0  0  0  0  0  0
  152.0844  139.3299  159.2278 N   0  0  0  0  0  0  0  0  0  0  0  0
  152.3262  140.6879  159.2342 C   0  0  0  0  0  0  0  0  0  0  0  0
  153.2586  141.4507  159.9729 C   0  0  0  0  0  0  0  0  0  0  0  0
  153.3222  142.8503  159.8119 C   0  0  0  0  0  0  0  0  0  0  0  0
  152.4563  143.5047  158.9122 C   0  0  0  0  0  0  0  0  0  0  0  0
  151.5199  142.7624  158.1674 C   0  0  0  0  0  0  0  0  0  0  0  0
  151.4601  141.3653  158.3320 C   0  0  0  0  0  0  0  0  0  0  0  0
  150.6699  140.3664  157.7712 N   0  0  0  0  0  0  0  0  0  0  0  0
  149.6094  140.5876  156.7950 C   0  0  0  0  0  0  0  0  0  0  0  0
  150.1440  141.0871  155.4398 C   0  0  2  0  0  0  0  0  0  0  0  0
  149.0113  141.4018  154.4550 C   0  0  0  0  0  0  0  0  0  0  0  0
  150.9907  140.1192  154.8540 O   0  0  0  0  0  0  0  0  0  0  0  0
  146.7528  133.7505  162.3599 H   0  0  0  0  0  0  0  0  0  0  0  0
  146.2761  135.4171  162.6517 H   0  0  0  0  0  0  0  0  0  0  0  0
  147.9075  134.8841  163.0544 H   0  0  0  0  0  0  0  0  0  0  0  0
  148.3415  134.4336  160.6038 H   0  0  0  0  0  0  0  0  0  0  0  0
  146.7565  135.0321  160.2091 H   0  0  0  0  0  0  0  0  0  0  0  0
  147.4341  137.3015  161.1453 H   0  0  0  0  0  0  0  0  0  0  0  0
  149.0272  136.6633  161.4682 H   0  0  0  0  0  0  0  0  0  0  0  0
  150.4645  137.3992  160.0891 H   0  0  0  0  0  0  0  0  0  0  0  0
  149.7106  137.9493  157.2703 H   0  0  0  0  0  0  0  0  0  0  0  0
  151.9732  137.2313  156.5570 H   0  0  0  0  0  0  0  0  0  0  0  0
  151.0494  135.9013  157.2460 H   0  0  0  0  0  0  0  0  0  0  0  0
  152.3201  136.6726  158.1907 H   0  0  0  0  0  0  0  0  0  0  0  0
  153.9253  140.9581  160.6649 H   0  0  0  0  0  0  0  0  0  0  0  0
  154.0380  143.4244  160.3819 H   0  0  0  0  0  0  0  0  0  0  0  0
  152.5105  144.5772  158.7951 H   0  0  0  0  0  0  0  0  0  0  0  0
  150.8550  143.2613  157.4782 H   0  0  0  0  0  0  0  0  0  0  0  0
  149.0115  139.6856  156.6768 H   0  0  0  0  0  0  0  0  0  0  0  0
  148.9249  141.3288  157.2087 H   0  0  0  0  0  0  0  0  0  0  0  0
  150.7336  141.9908  155.5985 H   0  0  0  0  0  0  0  0  0  0  0  0
  148.3503  142.1715  154.8539 H   0  0  0  0  0  0  0  0  0  0  0  0
  148.4063  140.5175  154.2501 H   0  0  0  0  0  0  0  0  0  0  0  0
  149.4039  141.7655  153.5048 H   0  0  0  0  0  0  0  0  0  0  0  0
  150.6960  139.2620  155.1213 H   0  0  0  0  0  0  0  0  0  0  0  0
  1  2  1  0  0  0  0
  1 22  1  0  0  0  0
  1 23  1  0  0  0  0
  1 24  1  0  0  0  0
  2  3  1  0  0  0  0
  2 25  1  0  0  0  0
  2 26  1  0  0  0  0
  3  4  1  0  0  0  0
  3 27  1  0  0  0  0
  3 28  1  0  0  0  0
  4  5  2  0  0  0  0
  4  6  1  0  0  0  0
  6  7  1  0  0  0  0
  6 29  1  0  0  0  0
  7  8  1  0  0  0  0
  7  9  1  0  0  0  0
  7 30  1  0  0  0  0
  8 31  1  0  0  0  0
  8 32  1  0  0  0  0
  8 33  1  0  0  0  0
  9 17  1  0  0  0  0
  9 10  2  0  0  0  0
 10 11  1  0  0  0  0
 11 16  2  0  0  0  0
 11 12  1  0  0  0  0
 12 13  2  0  0  0  0
 12 34  1  0  0  0  0
 13 14  1  0  0  0  0
 13 35  1  0  0  0  0
 14 15  2  0  0  0  0
 14 36  1  0  0  0  0
 15 16  1  0  0  0  0
 15 37  1  0  0  0  0
 16 17  1  0  0  0  0
 17 18  1  0  0  0  0
 18 19  1  0  0  0  0
 18 38  1  0  0  0  0
 18 39  1  0  0  0  0
 19 20  1  0  0  0  0
 19 21  1  0  0  0  0
 19 40  1  0  0  0  0
 20 41  1  0  0  0  0
 20 42  1  0  0  0  0
 20 43  1  0  0  0  0
 21 44  1  0  0  0  0
M  END
> <s_m_source_file>
AV-unprocessed.smi

> <i_m_source_file_index>
1856

> <i_lp_mmshare_version>
43012

> <i_f3d_flags>
0

> <s_epik_input>
W0NIM11bQ0gyXVtDSDJdQyg9TylbTkhdW0NASF0oW0NIM10pYyhuMSluKFtDSDJdW0NASF0oW0NIM10pW09IXSljKGMxMilbY0hdW2NIXVtjSF1bY0hdMg==

> <s_epik_cmdline>
J2VwaWtfcHl0aG9uJywgJy1waCcsICc3LjAnLCAnLXRuJywgJzgnLCAnLW1hJywgJzIwMCcsICctbWV0YWxfYmluZGluZycsICctaW1hZScsICc8aW5maWxlLm1hZT4nLCAnLW9tYWUnLCAnPG91dGZpbGUubWFlPic=

> <r_epik_Ionization_Penalty>
0.134222

> <r_epik_Ionization_Penalty_Charging>
0

> <r_epik_Ionization_Penalty_Neutral>
0.134222

> <r_epik_State_Penalty>
0.123585

> <r_epik_Charging_Adjusted_Penalty>
0.123585

> <i_epik_Tot_Q>
0

> <i_epik_Tot_abs_Q>
0

> <r_epik_Metal_State_Penalty>
0.100548

> <b_epik_Metal_Only>
0

> <s_lp_Force_Field>
OPLS_2005

> <r_lp_Energy>
0.748352

> <b_lp_Chiralities_Consistent>
1

> <s_lp_Variant>
AV-unprocessed.smi:1856-1

> <Gold.Version>
5.8.1

> <Gold.Id.Protein>
6NUR|6NUR_protein|mol2

> <Gold.PLP.Fitness>
43.8082

> <Gold.PLP.PLP>
-41.0225

> <Gold.PLP.part.hbond>
-1.0000

> <Gold.PLP.part.metal>
0.0000

> <Gold.PLP.part.buried>
-4.9672

> <Gold.PLP.part.nonpolar>
-35.2428

> <Gold.PLP.part.repulsive>
0.2119

> <Gold.PLP.ligand.clash>
0.0000

> <Gold.PLP.ligand.torsion>
0.1701

> <Gold.PLP.Chemscore.Hbond>
1.0000

> <Gold.PLP.Chemscore.CHOScore>
0.0000

> <Gold.PLP.Chemscore.Metal>
0.0000

> <Gold.Chemscore.Hbonds>
donor molecule, donor type, donor heavy atom, donor atom, acceptor molecule, acceptor atom, score
      P1  H  7989  7998       L1    21  1.00

> <Gold.PLP.Chemscore.Internal.Correction>
0.1260

> <Gold.Rescore>
     Score         DG    S(hbond)    S(metal)    S(lipo)     H(rot)  DE(clash)    DE(int)     intcor
     14.76     -14.84       0.97        0.00     105.86       2.45       0.01       0.07       ----

> <Gold.Chemscore.Fitness>
14.7593

> <Gold.Chemscore.DG>
-14.8392

> <Gold.Chemscore.ZeroCoef>
-5.4800

> <Gold.Chemscore.Hbond>
0.9684

> <Gold.Chemscore.Metal>
0.0000

> <Gold.Chemscore.Lipo>
105.8644

> <Gold.Chemscore.Internal_Hbond>
0.0000

> <Gold.Chemscore.DEClash>
0.0089

> <Gold.Chemscore.DEInternal>
0.0710

> <Gold.Chemscore.Rot>
2.4459

> <Gold.Chemscore.Internal.Correction>
   9.000000E+99

> <Gold.Chemscore.Hbonds>
donor molecule, donor type, donor heavy atom, donor atom, acceptor molecule, acceptor atom, score
      P1  H  7989  7998       L1    21  0.50

> <Gold.Chemscore.Hbond.Weighted>
-3.2345

> <Gold.Chemscore.Metal.Weighted>
-0.0000

> <Gold.Chemscore.Lipo.Weighted>
-12.3861

> <Gold.Chemscore.Internal_Hbond.Weighted>
0.0000

> <Gold.Chemscore.DEClash.Weighted>
0.0089

> <Gold.Chemscore.DEInternal.Weighted>
0.0710

> <Gold.Chemscore.Rot.Weighted>
6.2614

> <Gold.Chemscore.Internal.Correction.Weighted>
   9.000000E+99

> <Gold.Protein.RotatedTorsions>
[ 6907 6896 6895 6894 ] final   53.29 input  -60.11 | X-H torsion
[ 7974 7965 7964 7962 ] final  158.96 input  175.53 | X-H torsion
[ 8008 7997 7996 7995 ] final   19.39 input   59.86 | X-H torsion
[ 10167 10162 10161 10158 ] final  -78.12 input  -65.29 | X-H torsion
[ 10718 10713 10712 10709 ] final  -88.14 input   66.30 | X-H torsion
[ 10763 10752 10751 10750 ] final   76.30 input  -60.55 | X-H torsion
[ 11005 11000 10999 10996 ] final  -93.87 input  -57.11 | X-H torsion

> <Gold.Protein.ActiveResidues>
 VAL166  LYS551  ARG553  GLY616  TRP617  ASP618  TYR619  PRO620  LYS621  CYS622 
 ASP623  PHE694  ASN695  SER759  ASP760  ASP761  ALA762  ILE779  LEU786  VAL792 
 PHE793  MET794  SER795  GLU796  ALA797  LYS798  CYS799  TRP800  GLU811  SER814 

> <Gold.Protein.RotatedAtoms>
  152.3321  134.7245  160.0286 H   0  0  0  0  0  0  0  0  0  0  0  0  # atno 6907 bound_to 6896
  151.7659  133.3332  159.3439 H   0  0  0  0  0  0  0  0  0  0  0  0  # atno 6908 bound_to 6896
  150.7429  134.5995  159.6074 H   0  0  0  0  0  0  0  0  0  0  0  0  # atno 6909 bound_to 6896
  144.7817  139.7550  143.6257 H   0  0  0  0  0  0  0  0  0  0  0  0  # atno 7974 bound_to 7965
  154.9201  140.3026  155.5221 H   0  0  0  0  0  0  0  0  0  0  0  0  # atno 8008 bound_to 7997
  156.3010  140.2373  156.4186 H   0  0  0  0  0  0  0  0  0  0  0  0  # atno 8009 bound_to 7997
  154.8339  140.0417  157.1485 H   0  0  0  0  0  0  0  0  0  0  0  0  # atno 8010 bound_to 7997
  140.4710  143.2427  151.8205 H   0  0  0  0  0  0  0  0  0  0  0  0  # atno 10167 bound_to 10162
  155.9984  130.4825  150.4973 H   0  0  0  0  0  0  0  0  0  0  0  0  # atno 10718 bound_to 10713
  153.0716  135.4956  154.8316 H   0  0  0  0  0  0  0  0  0  0  0  0  # atno 10763 bound_to 10752
  154.7030  135.3005  154.9315 H   0  0  0  0  0  0  0  0  0  0  0  0  # atno 10764 bound_to 10752
  154.0033  135.6763  153.4813 H   0  0  0  0  0  0  0  0  0  0  0  0  # atno 10765 bound_to 10752
  141.1486  133.7917  157.0219 H   0  0  0  0  0  0  0  0  0  0  0  0  # atno 11005 bound_to 11000
  146.2028  139.5333  142.9732 LP  0  0  0  0  0  0  0  0  0  0  0  0  # atno 17320 bound_to 7965
  145.6033  141.0351  143.2006 LP  0  0  0  0  0  0  0  0  0  0  0  0  # atno 17321 bound_to 7965
  139.4818  144.4892  151.9207 LP  0  0  0  0  0  0  0  0  0  0  0  0  # atno 17342 bound_to 10162
  140.3977  144.2534  150.5895 LP  0  0  0  0  0  0  0  0  0  0  0  0  # atno 17343 bound_to 10162
  157.2962  131.0636  151.2100 LP  0  0  0  0  0  0  0  0  0  0  0  0  # atno 17370 bound_to 10713
  157.3095  130.6883  149.6208 LP  0  0  0  0  0  0  0  0  0  0  0  0  # atno 17371 bound_to 10713
  140.0810  134.9648  157.1624 LP  0  0  0  0  0  0  0  0  0  0  0  0  # atno 17394 bound_to 11000
  140.3577  134.2529  155.7191 LP  0  0  0  0  0  0  0  0  0  0  0  0  # atno 17395 bound_to 11000

$$$$
