AV-unprocessed.smi:2356|AV-procd|sdf|9398|dock4
  -GOLD-   2272013 33D 1   1.00000     0.00000
 Structure written by MMmdl.
 54 57  0  0  0  0  0  0  0  0  2 V2000
  148.8675  141.2147  154.1424 C   0  0  0  0  0  0  0  0  0  0  0  0
  149.5563  140.9235  155.4659 C   0  0  0  0  0  0  0  0  0  0  0  0
  149.9828  141.9983  156.1664 N   0  3  0  0  0  0  0  0  0  0  0  0
  150.6091  141.9174  157.3593 C   0  0  0  0  0  0  0  0  0  0  0  0
  150.9913  143.1241  157.9616 N   0  0  0  0  0  0  0  0  0  0  0  0
  151.8574  143.9661  157.1533 C   0  0  0  0  0  0  0  0  0  0  0  0
  152.4750  144.9745  158.1259 C   0  0  0  0  0  0  0  0  0  0  0  0
  152.3358  144.3262  159.5084 C   0  0  0  0  0  0  0  0  0  0  0  0
  151.6590  142.9788  159.2441 C   0  0  0  0  0  0  0  0  0  0  0  0
  150.8337  140.6456  157.9312 C   0  0  0  0  0  0  0  0  0  0  0  0
  150.4089  139.4930  157.2414 C   0  0  0  0  0  0  0  0  0  0  0  0
  149.7727  139.6192  155.9801 C   0  0  0  0  0  0  0  0  0  0  0  0
  149.3068  138.4986  155.2376 N   0  0  0  0  0  0  0  0  0  0  0  0
  148.7864  137.3403  155.6891 C   0  0  0  0  0  0  0  0  0  0  0  0
  148.6441  137.0538  156.8756 O   0  0  0  0  0  0  0  0  0  0  0  0
  148.4306  136.4793  154.7185 N   0  0  0  0  0  0  0  0  0  0  0  0
  147.8405  135.1456  154.8546 C   0  0  1  0  0  0  0  0  0  0  0  0
  146.4263  135.2655  155.4422 C   0  0  0  0  0  0  0  0  0  0  0  0
  145.7273  133.8967  155.4662 C   0  0  0  0  0  0  0  0  0  0  0  0
  145.7018  133.3405  154.1559 O   0  0  0  0  0  0  0  0  0  0  0  0
  147.0009  133.0951  153.6261 C   0  0  1  0  0  0  0  0  0  0  0  0
  146.8438  132.4028  152.2870 C   0  0  0  0  0  0  0  0  0  0  0  0
  145.6356  132.6633  151.4183 C   0  0  0  0  0  0  0  0  0  0  0  0
  145.8029  131.3242  152.0951 C   0  0  0  0  0  0  0  0  0  0  0  0
  147.7607  134.4279  153.4952 C   0  0  0  0  0  0  0  0  0  0  0  0
  148.5065  140.3182  153.6395 H   0  0  0  0  0  0  0  0  0  0  0  0
  149.5576  141.7210  153.4671 H   0  0  0  0  0  0  0  0  0  0  0  0
  148.0115  141.8704  154.3036 H   0  0  0  0  0  0  0  0  0  0  0  0
  152.6416  143.3728  156.6816 H   0  0  0  0  0  0  0  0  0  0  0  0
  151.2937  144.4646  156.3642 H   0  0  0  0  0  0  0  0  0  0  0  0
  153.5132  145.1910  157.8716 H   0  0  0  0  0  0  0  0  0  0  0  0
  151.9238  145.9154  158.0994 H   0  0  0  0  0  0  0  0  0  0  0  0
  153.2966  144.2016  160.0083 H   0  0  0  0  0  0  0  0  0  0  0  0
  151.7068  144.9473  160.1472 H   0  0  0  0  0  0  0  0  0  0  0  0
  150.9471  142.7266  160.0307 H   0  0  0  0  0  0  0  0  0  0  0  0
  152.4067  142.1859  159.2000 H   0  0  0  0  0  0  0  0  0  0  0  0
  151.3205  140.5463  158.8904 H   0  0  0  0  0  0  0  0  0  0  0  0
  150.5681  138.5321  157.7049 H   0  0  0  0  0  0  0  0  0  0  0  0
  149.4409  138.5569  154.2386 H   0  0  0  0  0  0  0  0  0  0  0  0
  148.5695  136.7969  153.7699 H   0  0  0  0  0  0  0  0  0  0  0  0
  148.4406  134.5486  155.5438 H   0  0  0  0  0  0  0  0  0  0  0  0
  146.4678  135.6807  156.4498 H   0  0  0  0  0  0  0  0  0  0  0  0
  145.8325  135.9576  154.8430 H   0  0  0  0  0  0  0  0  0  0  0  0
  146.2300  133.2145  156.1534 H   0  0  0  0  0  0  0  0  0  0  0  0
  144.7024  134.0063  155.8214 H   0  0  0  0  0  0  0  0  0  0  0  0
  147.5427  132.4281  154.2995 H   0  0  0  0  0  0  0  0  0  0  0  0
  147.7836  132.2517  151.7589 H   0  0  0  0  0  0  0  0  0  0  0  0
  144.8670  133.3295  151.8052 H   0  0  0  0  0  0  0  0  0  0  0  0
  145.7927  132.7078  150.3426 H   0  0  0  0  0  0  0  0  0  0  0  0
  146.0703  130.4740  151.4710 H   0  0  0  0  0  0  0  0  0  0  0  0
  145.1450  131.0995  152.9325 H   0  0  0  0  0  0  0  0  0  0  0  0
  147.2526  135.0663  152.7706 H   0  0  0  0  0  0  0  0  0  0  0  0
  148.7601  134.2439  153.1000 H   0  0  0  0  0  0  0  0  0  0  0  0
  149.8217  142.9248  155.7708 H   0  0  0  0  0  0  0  0  0  0  0  0
  1  2  1  0  0  0  0
  1 26  1  0  0  0  0
  1 27  1  0  0  0  0
  1 28  1  0  0  0  0
  2 12  1  0  0  0  0
  2  3  2  0  0  0  0
  3  4  1  0  0  0  0
  3 54  1  0  0  0  0
  4  5  1  0  0  0  0
  4 10  2  0  0  0  0
  5  9  1  0  0  0  0
  5  6  1  0  0  0  0
  6  7  1  0  0  0  0
  6 29  1  0  0  0  0
  6 30  1  0  0  0  0
  7  8  1  0  0  0  0
  7 31  1  0  0  0  0
  7 32  1  0  0  0  0
  8  9  1  0  0  0  0
  8 33  1  0  0  0  0
  8 34  1  0  0  0  0
  9 35  1  0  0  0  0
  9 36  1  0  0  0  0
 10 11  1  0  0  0  0
 10 37  1  0  0  0  0
 11 12  2  0  0  0  0
 11 38  1  0  0  0  0
 12 13  1  0  0  0  0
 13 14  1  0  0  0  0
 13 39  1  0  0  0  0
 14 15  2  0  0  0  0
 14 16  1  0  0  0  0
 16 17  1  0  0  0  0
 16 40  1  0  0  0  0
 17 25  1  0  0  0  0
 17 18  1  0  0  0  0
 17 41  1  0  0  0  0
 18 19  1  0  0  0  0
 18 42  1  0  0  0  0
 18 43  1  0  0  0  0
 19 20  1  0  0  0  0
 19 44  1  0  0  0  0
 19 45  1  0  0  0  0
 20 21  1  0  0  0  0
 21 22  1  0  0  0  0
 21 25  1  0  0  0  0
 21 46  1  0  0  0  0
 22 24  1  0  0  0  0
 22 23  1  0  0  0  0
 22 47  1  0  0  0  0
 23 24  1  0  0  0  0
 23 48  1  0  0  0  0
 23 49  1  0  0  0  0
 24 50  1  0  0  0  0
 24 51  1  0  0  0  0
 25 52  1  0  0  0  0
 25 53  1  0  0  0  0
M  CHG  1   3   1
M  END
> <s_m_source_file>
AV-unprocessed.smi

> <i_m_source_file_index>
2356

> <i_lp_mmshare_version>
43012

> <i_f3d_flags>
0

> <s_epik_input>
W0NIMl0xW0NIMl1bQ0gyXVtDSDJdTjFjKG5jMltDSDNdKVtjSF1bY0hdYzJbTkhdQyg9TylbTkhdW0NAQEhdM1tDSDJdW0NIMl1PW0NASF0oW0NIMl0zKVtDSF00W0NIMl1bQ0gyXTQ=

> <s_epik_cmdline>
J2VwaWtfcHl0aG9uJywgJy1waCcsICc3LjAnLCAnLXRuJywgJzgnLCAnLW1hJywgJzIwMCcsICctbWV0YWxfYmluZGluZycsICctaW1hZScsICc8aW5maWxlLm1hZT4nLCAnLW9tYWUnLCAnPG91dGZpbGUubWFlPic=

> <r_lp_tautomer_probability>
0.999994

> <r_epik_Ionization_Penalty>
0.534681

> <r_epik_Ionization_Penalty_Charging>
0.534661

> <r_epik_Ionization_Penalty_Neutral>
1.99132e-05

> <r_epik_State_Penalty>
0.543738

> <r_epik_Charging_Adjusted_Penalty>
1.0784

> <i_epik_Tot_Q>
1

> <i_epik_Tot_abs_Q>
1

> <r_epik_Metal_State_Penalty>
0.74699

> <b_epik_Metal_Only>
0

> <s_lp_Force_Field>
OPLS_2005

> <r_lp_Energy>
63.5996

> <b_lp_Chiralities_Consistent>
1

> <s_lp_Variant>
AV-unprocessed.smi:2356-6

> <Gold.Version>
5.8.1

> <Gold.Id.Protein>
6NUR|6NUR_protein|mol2

> <Gold.PLP.Fitness>
41.9534

> <Gold.PLP.PLP>
-33.8415

> <Gold.PLP.part.hbond>
-2.0000

> <Gold.PLP.part.metal>
0.0000

> <Gold.PLP.part.buried>
-1.8596

> <Gold.PLP.part.nonpolar>
-30.1158

> <Gold.PLP.part.repulsive>
0.3298

> <Gold.PLP.ligand.clash>
0.0000

> <Gold.PLP.ligand.torsion>
0.8565

> <Gold.PLP.Chemscore.Hbond>
2.9120

> <Gold.PLP.Chemscore.CHOScore>
0.0000

> <Gold.PLP.Chemscore.Metal>
0.0000

> <Gold.Chemscore.Hbonds>
donor molecule, donor type, donor heavy atom, donor atom, acceptor molecule, acceptor atom, score
      L1  H     3    54       P1  8028  2.00
      L1  H    16    40       P1  7948  0.91

> <Gold.PLP.Chemscore.Internal.Correction>
1.0890

> <Gold.Rescore>
     Score         DG    S(hbond)    S(metal)    S(lipo)     H(rot)  DE(clash)    DE(int)     intcor
     17.61     -21.00       1.75        0.00     111.15       1.31       1.65       1.73       ----

> <Gold.Chemscore.Fitness>
17.6093

> <Gold.Chemscore.DG>
-20.9958

> <Gold.Chemscore.ZeroCoef>
-5.4800

> <Gold.Chemscore.Hbond>
1.7530

> <Gold.Chemscore.Metal>
0.0000

> <Gold.Chemscore.Lipo>
111.1456

> <Gold.Chemscore.Internal_Hbond>
0.0000

> <Gold.Chemscore.DEClash>
1.6531

> <Gold.Chemscore.DEInternal>
1.7334

> <Gold.Chemscore.Rot>
1.3060

> <Gold.Chemscore.Internal.Correction>
   9.000000E+99

> <Gold.Chemscore.Hbonds>
donor molecule, donor type, donor heavy atom, donor atom, acceptor molecule, acceptor atom, score
      L1  H     3    54       P1  8028  0.91
      L1  H    16    40       P1  7948  0.83

> <Gold.Chemscore.Hbond.Weighted>
-5.8551

> <Gold.Chemscore.Metal.Weighted>
-0.0000

> <Gold.Chemscore.Lipo.Weighted>
-13.0040

> <Gold.Chemscore.Internal_Hbond.Weighted>
0.0000

> <Gold.Chemscore.DEClash.Weighted>
1.6531

> <Gold.Chemscore.DEInternal.Weighted>
1.7334

> <Gold.Chemscore.Rot.Weighted>
3.3433

> <Gold.Chemscore.Internal.Correction.Weighted>
   9.000000E+99

> <Gold.Protein.RotatedTorsions>
[ 6907 6896 6895 6894 ] final  124.23 input  -60.11 | X-H torsion
[ 7974 7965 7964 7962 ] final  -30.41 input  175.53 | X-H torsion
[ 8008 7997 7996 7995 ] final -120.94 input   59.86 | X-H torsion
[ 10167 10162 10161 10158 ] final  -66.11 input  -65.29 | X-H torsion
[ 10718 10713 10712 10709 ] final -107.39 input   66.30 | X-H torsion
[ 10763 10752 10751 10750 ] final  158.31 input  -60.55 | X-H torsion
[ 11005 11000 10999 10996 ] final  -73.36 input  -57.11 | X-H torsion

> <Gold.Protein.ActiveResidues>
 VAL166  LYS551  ARG553  GLY616  TRP617  ASP618  TYR619  PRO620  LYS621  CYS622 
 ASP623  PHE694  ASN695  SER759  ASP760  ASP761  ALA762  ILE779  LEU786  VAL792 
 PHE793  MET794  SER795  GLU796  ALA797  LYS798  CYS799  TRP800  GLU811  SER814 

> <Gold.Protein.RotatedAtoms>
  152.4096  133.6942  159.6385 H   0  0  0  0  0  0  0  0  0  0  0  0  # atno 6907 bound_to 6896
  150.7977  133.8648  159.3251 H   0  0  0  0  0  0  0  0  0  0  0  0  # atno 6908 bound_to 6896
  151.6394  135.1016  160.0189 H   0  0  0  0  0  0  0  0  0  0  0  0  # atno 6909 bound_to 6896
  146.1145  140.5537  142.8763 H   0  0  0  0  0  0  0  0  0  0  0  0  # atno 7974 bound_to 7965
  155.1399  140.0401  157.2796 H   0  0  0  0  0  0  0  0  0  0  0  0  # atno 8008 bound_to 7997
  154.6481  140.2562  155.7219 H   0  0  0  0  0  0  0  0  0  0  0  0  # atno 8009 bound_to 7997
  156.2564  140.2842  156.0903 H   0  0  0  0  0  0  0  0  0  0  0  0  # atno 8010 bound_to 7997
  140.5681  143.2316  151.6594 H   0  0  0  0  0  0  0  0  0  0  0  0  # atno 10167 bound_to 10162
  156.0434  130.5660  150.7814 H   0  0  0  0  0  0  0  0  0  0  0  0  # atno 10718 bound_to 10713
  154.2141  135.2785  155.2948 H   0  0  0  0  0  0  0  0  0  0  0  0  # atno 10763 bound_to 10752
  154.5755  135.5605  153.7139 H   0  0  0  0  0  0  0  0  0  0  0  0  # atno 10764 bound_to 10752
  153.0057  135.6332  154.2280 H   0  0  0  0  0  0  0  0  0  0  0  0  # atno 10765 bound_to 10752
  141.1621  133.6876  156.7200 H   0  0  0  0  0  0  0  0  0  0  0  0  # atno 11005 bound_to 11000
  144.7540  140.5262  143.6782 LP  0  0  0  0  0  0  0  0  0  0  0  0  # atno 17320 bound_to 7965
  145.5596  139.1479  143.3349 LP  0  0  0  0  0  0  0  0  0  0  0  0  # atno 17321 bound_to 7965
  139.5103  144.3546  152.0619 LP  0  0  0  0  0  0  0  0  0  0  0  0  # atno 17342 bound_to 10162
  140.2681  144.3994  150.6161 LP  0  0  0  0  0  0  0  0  0  0  0  0  # atno 17343 bound_to 10162
  157.5281  131.0935  150.9992 LP  0  0  0  0  0  0  0  0  0  0  0  0  # atno 17370 bound_to 10713
  157.0305  130.5709  149.5342 LP  0  0  0  0  0  0  0  0  0  0  0  0  # atno 17371 bound_to 10713
  140.2823  134.8307  157.3944 LP  0  0  0  0  0  0  0  0  0  0  0  0  # atno 17394 bound_to 11000
  140.1422  134.4957  155.8023 LP  0  0  0  0  0  0  0  0  0  0  0  0  # atno 17395 bound_to 11000

$$$$
