AV-unprocessed.smi:2949|AV-procd|sdf|11285|dock9
  -GOLD-   2272016173D 1   1.00000     0.00000
 Structure written by MMmdl.
 35 36  0  0  0  0  0  0  0  0  2 V2000
  147.7192  133.4283  152.4875 N   0  0  0  0  0  0  0  0  0  0  0  0
  146.6836  132.7439  151.9955 C   0  0  0  0  0  0  0  0  0  0  0  0
  146.3510  131.0732  152.3408 S   0  0  0  0  0  0  0  0  0  0  0  0
  144.9351  131.1374  151.3353 C   0  0  0  0  0  0  0  0  0  0  0  0
  144.7641  132.3819  150.7889 C   0  0  0  0  0  0  0  0  0  0  0  0
  145.7603  133.2792  151.1693 N   0  3  0  0  0  0  0  0  0  0  0  0
  145.7866  134.6851  150.7171 C   0  0  0  0  0  0  0  0  0  0  0  0
  145.2767  135.6729  151.7763 C   0  0  0  0  0  0  0  0  0  0  0  0
  144.0881  135.6623  152.1078 O   0  0  0  0  0  0  0  0  0  0  0  0
  146.2253  136.4994  152.2732 N   0  0  0  0  0  0  0  0  0  0  0  0
  146.1512  137.4864  153.1982 C   0  0  0  0  0  0  0  0  0  0  0  0
  145.1293  137.6434  153.8641 O   0  0  0  0  0  0  0  0  0  0  0  0
  147.2348  138.2713  153.3476 N   0  0  0  0  0  0  0  0  0  0  0  0
  147.3518  139.3830  154.2866 C   0  0  0  0  0  0  0  0  0  0  0  0
  147.5146  140.7339  153.5584 C   0  0  0  0  0  0  0  0  0  0  0  0
  148.7316  141.4132  154.1894 C   0  0  0  0  0  0  0  0  0  0  0  0
  149.6076  140.2569  154.6603 C   0  0  0  0  0  0  0  0  0  0  0  0
  148.6073  139.2153  155.1611 C   0  0  0  0  0  0  0  0  0  0  0  0
  147.8777  134.4013  152.2690 H   0  0  0  0  0  0  0  0  0  0  0  0
  144.3164  130.2607  151.2107 H   0  0  0  0  0  0  0  0  0  0  0  0
  143.9788  132.7280  150.1320 H   0  0  0  0  0  0  0  0  0  0  0  0
  146.8019  134.9446  150.4140 H   0  0  0  0  0  0  0  0  0  0  0  0
  145.1640  134.7638  149.8248 H   0  0  0  0  0  0  0  0  0  0  0  0
  147.1488  136.3615  151.8889 H   0  0  0  0  0  0  0  0  0  0  0  0
  148.0417  138.0761  152.7719 H   0  0  0  0  0  0  0  0  0  0  0  0
  146.4720  139.4037  154.9325 H   0  0  0  0  0  0  0  0  0  0  0  0
  147.7064  140.5792  152.4953 H   0  0  0  0  0  0  0  0  0  0  0  0
  146.6194  141.3518  153.6361 H   0  0  0  0  0  0  0  0  0  0  0  0
  149.2482  142.0780  153.4965 H   0  0  0  0  0  0  0  0  0  0  0  0
  148.4167  142.0069  155.0487 H   0  0  0  0  0  0  0  0  0  0  0  0
  150.1684  139.8531  153.8163 H   0  0  0  0  0  0  0  0  0  0  0  0
  150.3239  140.5550  155.4263 H   0  0  0  0  0  0  0  0  0  0  0  0
  148.3529  139.4352  156.1989 H   0  0  0  0  0  0  0  0  0  0  0  0
  149.0200  138.2054  155.1406 H   0  0  0  0  0  0  0  0  0  0  0  0
  148.3863  133.0156  153.1238 H   0  0  0  0  0  0  0  0  0  0  0  0
  1  2  1  0  0  0  0
  1 19  1  0  0  0  0
  1 35  1  0  0  0  0
  2  6  2  0  0  0  0
  2  3  1  0  0  0  0
  3  4  1  0  0  0  0
  4  5  2  0  0  0  0
  4 20  1  0  0  0  0
  5  6  1  0  0  0  0
  5 21  1  0  0  0  0
  6  7  1  0  0  0  0
  7  8  1  0  0  0  0
  7 22  1  0  0  0  0
  7 23  1  0  0  0  0
  8  9  2  0  0  0  0
  8 10  1  0  0  0  0
 10 11  1  0  0  0  0
 10 24  1  0  0  0  0
 11 12  2  0  0  0  0
 11 13  1  0  0  0  0
 13 14  1  0  0  0  0
 13 25  1  0  0  0  0
 14 18  1  0  0  0  0
 14 15  1  0  0  0  0
 14 26  1  0  0  0  0
 15 16  1  0  0  0  0
 15 27  1  0  0  0  0
 15 28  1  0  0  0  0
 16 17  1  0  0  0  0
 16 29  1  0  0  0  0
 16 30  1  0  0  0  0
 17 18  1  0  0  0  0
 17 31  1  0  0  0  0
 17 32  1  0  0  0  0
 18 33  1  0  0  0  0
 18 34  1  0  0  0  0
M  CHG  1   6   1
M  END
> <s_m_source_file>
AV-unprocessed.smi

> <i_m_source_file_index>
2949

> <i_lp_mmshare_version>
43012

> <i_f3d_flags>
0

> <s_epik_input>
W0hdL049YzFcc1tjSF1bY0hdbjFbQ0gyXUMoPU8pW05IXUMoPU8pW05IXVtDSF0yW0NIMl1bQ0gyXVtDSDJdW0NIMl0y

> <s_epik_cmdline>
J2VwaWtfcHl0aG9uJywgJy1waCcsICc3LjAnLCAnLXRuJywgJzgnLCAnLW1hJywgJzIwMCcsICctbWV0YWxfYmluZGluZycsICctaW1hZScsICc8aW5maWxlLm1hZT4nLCAnLW9tYWUnLCAnPG91dGZpbGUubWFlPic=

> <r_lp_tautomer_probability>
1

> <r_epik_Ionization_Penalty>
0.019454

> <r_epik_Ionization_Penalty_Charging>
0

> <r_epik_Ionization_Penalty_Neutral>
0.019454

> <r_epik_State_Penalty>
0.0306361

> <r_epik_Charging_Adjusted_Penalty>
0.0306361

> <i_epik_Tot_Q>
1

> <i_epik_Tot_abs_Q>
1

> <r_epik_Metal_State_Penalty>
0.0306361

> <b_epik_Metal_Only>
0

> <s_lp_Force_Field>
OPLS_2005

> <r_lp_Energy>
26.5716

> <b_lp_Chiralities_Consistent>
1

> <s_lp_Variant>
AV-unprocessed.smi:2949-1

> <Gold.Version>
5.8.1

> <Gold.Id.Protein>
6NUR|6NUR_protein|mol2

> <Gold.PLP.Fitness>
38.9971

> <Gold.PLP.PLP>
-29.9338

> <Gold.PLP.part.hbond>
-2.8152

> <Gold.PLP.part.metal>
0.0000

> <Gold.PLP.part.buried>
-2.9104

> <Gold.PLP.part.nonpolar>
-23.9866

> <Gold.PLP.part.repulsive>
0.3207

> <Gold.PLP.ligand.clash>
0.0000

> <Gold.PLP.ligand.torsion>
0.3558

> <Gold.PLP.Chemscore.Hbond>
3.2517

> <Gold.PLP.Chemscore.CHOScore>
0.0000

> <Gold.PLP.Chemscore.Metal>
0.0000

> <Gold.Chemscore.Hbonds>
donor molecule, donor type, donor heavy atom, donor atom, acceptor molecule, acceptor atom, score
      L1  H     1    19       P1  7948  1.59
      L1  H    10    24       P1  7948  1.00
      L1  H    13    25       P1  7948  0.37

> <Gold.PLP.Chemscore.Internal.Correction>
0.0197

> <Gold.Rescore>
     Score         DG    S(hbond)    S(metal)    S(lipo)     H(rot)  DE(clash)    DE(int)     intcor
     13.47     -15.16       2.10        0.00      60.53       1.73       0.15       1.55       ----

> <Gold.Chemscore.Fitness>
13.4682

> <Gold.Chemscore.DG>
-15.1599

> <Gold.Chemscore.ZeroCoef>
-5.4800

> <Gold.Chemscore.Hbond>
2.1032

> <Gold.Chemscore.Metal>
0.0000

> <Gold.Chemscore.Lipo>
60.5261

> <Gold.Chemscore.Internal_Hbond>
0.0000

> <Gold.Chemscore.DEClash>
0.1463

> <Gold.Chemscore.DEInternal>
1.5453

> <Gold.Chemscore.Rot>
1.7291

> <Gold.Chemscore.Internal.Correction>
   9.000000E+99

> <Gold.Chemscore.Hbonds>
donor molecule, donor type, donor heavy atom, donor atom, acceptor molecule, acceptor atom, score
      L1  H     1    19       P1  7948  0.27
      L1  H    10    24       P1  7948  1.00
      L1  H    13    25       P1  7948  0.37

> <Gold.Chemscore.Hbond.Weighted>
-7.0249

> <Gold.Chemscore.Metal.Weighted>
-0.0000

> <Gold.Chemscore.Lipo.Weighted>
-7.0816

> <Gold.Chemscore.Internal_Hbond.Weighted>
0.0000

> <Gold.Chemscore.DEClash.Weighted>
0.1463

> <Gold.Chemscore.DEInternal.Weighted>
1.5453

> <Gold.Chemscore.Rot.Weighted>
4.4265

> <Gold.Chemscore.Internal.Correction.Weighted>
   9.000000E+99

> <Gold.Protein.RotatedTorsions>
[ 6907 6896 6895 6894 ] final -128.43 input  -60.11 | X-H torsion
[ 7974 7965 7964 7962 ] final  143.99 input  175.53 | X-H torsion
[ 8008 7997 7996 7995 ] final   85.31 input   59.86 | X-H torsion
[ 10167 10162 10161 10158 ] final -129.60 input  -65.29 | X-H torsion
[ 10718 10713 10712 10709 ] final   56.18 input   66.30 | X-H torsion
[ 10763 10752 10751 10750 ] final  108.82 input  -60.55 | X-H torsion
[ 11005 11000 10999 10996 ] final -140.46 input  -57.11 | X-H torsion

> <Gold.Protein.ActiveResidues>
 VAL166  LYS551  ARG553  GLY616  TRP617  ASP618  TYR619  PRO620  LYS621  CYS622 
 ASP623  PHE694  ASN695  SER759  ASP760  ASP761  ALA762  ILE779  LEU786  VAL792 
 PHE793  MET794  SER795  GLU796  ALA797  LYS798  CYS799  TRP800  GLU811  SER814 

> <Gold.Protein.RotatedAtoms>
  150.9178  133.6917  159.2838 H   0  0  0  0  0  0  0  0  0  0  0  0  # atno 6907 bound_to 6896
  151.4382  135.1016  159.9672 H   0  0  0  0  0  0  0  0  0  0  0  0  # atno 6908 bound_to 6896
  152.4964  133.8593  159.7297 H   0  0  0  0  0  0  0  0  0  0  0  0  # atno 6909 bound_to 6896
  144.8874  139.5609  143.5814 H   0  0  0  0  0  0  0  0  0  0  0  0  # atno 7974 bound_to 7965
  155.9484  140.3403  155.6387 H   0  0  0  0  0  0  0  0  0  0  0  0  # atno 8008 bound_to 7997
  155.6951  140.0753  157.2451 H   0  0  0  0  0  0  0  0  0  0  0  0  # atno 8009 bound_to 7997
  154.4117  140.1650  156.2117 H   0  0  0  0  0  0  0  0  0  0  0  0  # atno 8010 bound_to 7997
  139.9381  143.6194  152.2511 H   0  0  0  0  0  0  0  0  0  0  0  0  # atno 10167 bound_to 10162
  157.5408  130.8696  149.8820 H   0  0  0  0  0  0  0  0  0  0  0  0  # atno 10718 bound_to 10713
  153.4261  135.3800  155.2141 H   0  0  0  0  0  0  0  0  0  0  0  0  # atno 10763 bound_to 10752
  154.8747  135.3828  154.4325 H   0  0  0  0  0  0  0  0  0  0  0  0  # atno 10764 bound_to 10752
  153.4852  135.7088  153.5978 H   0  0  0  0  0  0  0  0  0  0  0  0  # atno 10765 bound_to 10752
  140.8420  134.2390  157.4805 H   0  0  0  0  0  0  0  0  0  0  0  0  # atno 11005 bound_to 11000
  146.3033  139.7496  142.9075 LP  0  0  0  0  0  0  0  0  0  0  0  0  # atno 17320 bound_to 7965
  145.3844  141.0363  143.3159 LP  0  0  0  0  0  0  0  0  0  0  0  0  # atno 17321 bound_to 7965
  139.6727  144.7660  151.1754 LP  0  0  0  0  0  0  0  0  0  0  0  0  # atno 17342 bound_to 10162
  140.7618  143.5841  150.8864 LP  0  0  0  0  0  0  0  0  0  0  0  0  # atno 17343 bound_to 10162
  156.0495  130.3720  150.1234 LP  0  0  0  0  0  0  0  0  0  0  0  0  # atno 17370 bound_to 10713
  156.9414  130.9745  151.3515 LP  0  0  0  0  0  0  0  0  0  0  0  0  # atno 17371 bound_to 10713
  139.8703  134.9640  156.4481 LP  0  0  0  0  0  0  0  0  0  0  0  0  # atno 17394 bound_to 11000
  140.8885  133.7865  155.9545 LP  0  0  0  0  0  0  0  0  0  0  0  0  # atno 17395 bound_to 11000

$$$$
