AV-unprocessed.smi:14|AV-procd|sdf|78|dock10
  -GOLD-   2262015203D 1   1.00000     0.00000
 Structure written by MMmdl.
 57 60  0  0  0  0  0  0  0  0  1 V2000
  148.7643  136.5122  160.7622 N   0  0  0  0  0  0  0  0  0  0  0  0
  148.5435  136.2658  159.6534 C   0  0  0  0  0  0  0  0  0  0  0  0
  148.2634  135.9521  158.2447 C   0  0  0  0  0  0  0  0  0  0  0  0
  149.4401  135.2376  157.5622 C   0  0  0  0  0  0  0  0  0  0  0  0
  149.6165  135.6372  156.1641 N   0  0  0  0  0  0  0  0  0  0  0  0
  150.8688  136.3153  155.8217 C   0  0  0  0  0  0  0  0  0  0  0  0
  150.7711  137.8556  155.8280 C   0  0  1  0  0  0  0  0  0  0  0  0
  152.0476  138.5844  156.2079 C   0  0  0  0  0  0  0  0  0  0  0  0
  151.8152  139.9758  155.6269 C   0  0  0  0  0  0  0  0  0  0  0  0
  150.9559  139.7954  154.5053 O   0  0  0  0  0  0  0  0  0  0  0  0
  150.5230  138.4412  154.4385 C   0  0  0  0  0  0  0  0  0  0  0  0
  149.0737  134.8575  155.1898 C   0  0  0  0  0  0  0  0  0  0  0  0
  149.8675  133.9898  154.5054 N   0  0  0  0  0  0  0  0  0  0  0  0
  149.3647  133.2417  153.5204 C   0  0  0  0  0  0  0  0  0  0  0  0
  148.1138  133.2008  153.0614 N   0  0  0  0  0  0  0  0  0  0  0  0
  147.3051  134.0550  153.7498 C   0  0  0  0  0  0  0  0  0  0  0  0
  147.6993  134.9134  154.8163 C   0  0  0  0  0  0  0  0  0  0  0  0
  146.6002  135.6352  155.2666 N   0  0  0  0  0  0  0  0  0  0  0  0
  145.6209  135.2419  154.5000 C   0  0  0  0  0  0  0  0  0  0  0  0
  145.9501  134.2798  153.5719 N   0  0  0  0  0  0  0  0  0  0  0  0
  145.0559  133.6731  152.5944 C   0  0  0  0  0  0  0  0  0  0  0  0
  145.1982  134.2086  151.1338 C   0  0  0  0  0  0  0  0  0  0  0  0
  145.4582  135.7407  151.1839 C   0  0  0  0  0  0  0  0  0  0  0  0
  145.2782  136.3853  149.9383 O   0  0  0  0  0  0  0  0  0  0  0  0
  146.3894  133.4879  150.4497 C   0  0  0  0  0  0  0  0  0  0  0  0
  146.0859  132.0132  150.1260 C   0  0  0  0  0  0  0  0  0  0  0  0
  144.9159  131.9233  149.3226 O   0  0  0  0  0  0  0  0  0  0  0  0
  143.7562  132.4212  149.9780 C   0  0  0  0  0  0  0  0  0  0  0  0
  143.9305  133.9197  150.2883 C   0  0  0  0  0  0  0  0  0  0  0  0
  147.3568  135.3487  158.2198 H   0  0  0  0  0  0  0  0  0  0  0  0
  148.0418  136.8893  157.7335 H   0  0  0  0  0  0  0  0  0  0  0  0
  150.3543  135.4628  158.1123 H   0  0  0  0  0  0  0  0  0  0  0  0
  149.3108  134.1562  157.6243 H   0  0  0  0  0  0  0  0  0  0  0  0
  151.6858  135.9915  156.4637 H   0  0  0  0  0  0  0  0  0  0  0  0
  151.1505  135.9871  154.8206 H   0  0  0  0  0  0  0  0  0  0  0  0
  149.9632  138.1806  156.4853 H   0  0  0  0  0  0  0  0  0  0  0  0
  152.2286  138.6109  157.2822 H   0  0  0  0  0  0  0  0  0  0  0  0
  152.9096  138.1171  155.7290 H   0  0  0  0  0  0  0  0  0  0  0  0
  151.3068  140.6115  156.3527 H   0  0  0  0  0  0  0  0  0  0  0  0
  152.7464  140.4655  155.3407 H   0  0  0  0  0  0  0  0  0  0  0  0
  151.1250  137.9249  153.6890 H   0  0  0  0  0  0  0  0  0  0  0  0
  149.4777  138.3732  154.1360 H   0  0  0  0  0  0  0  0  0  0  0  0
  150.0655  132.5847  153.0267 H   0  0  0  0  0  0  0  0  0  0  0  0
  144.6211  135.6397  154.5967 H   0  0  0  0  0  0  0  0  0  0  0  0
  145.2442  132.5986  152.6074 H   0  0  0  0  0  0  0  0  0  0  0  0
  144.0390  133.7892  152.9659 H   0  0  0  0  0  0  0  0  0  0  0  0
  144.7867  136.2260  151.8919 H   0  0  0  0  0  0  0  0  0  0  0  0
  146.4755  135.9416  151.5217 H   0  0  0  0  0  0  0  0  0  0  0  0
  145.4144  135.7523  149.2497 H   0  0  0  0  0  0  0  0  0  0  0  0
  146.6408  133.9788  149.5093 H   0  0  0  0  0  0  0  0  0  0  0  0
  147.2842  133.5567  151.0695 H   0  0  0  0  0  0  0  0  0  0  0  0
  146.9189  131.5787  149.5733 H   0  0  0  0  0  0  0  0  0  0  0  0
  145.9708  131.4149  151.0300 H   0  0  0  0  0  0  0  0  0  0  0  0
  142.8984  132.2774  149.3212 H   0  0  0  0  0  0  0  0  0  0  0  0
  143.5574  131.8404  150.8784 H   0  0  0  0  0  0  0  0  0  0  0  0
  143.0377  134.3123  150.7737 H   0  0  0  0  0  0  0  0  0  0  0  0
  143.9963  134.4417  149.3335 H   0  0  0  0  0  0  0  0  0  0  0  0
  1  2  3  0  0  0  0
  2  3  1  0  0  0  0
  3  4  1  0  0  0  0
  3 30  1  0  0  0  0
  3 31  1  0  0  0  0
  4  5  1  0  0  0  0
  4 32  1  0  0  0  0
  4 33  1  0  0  0  0
  5  6  1  0  0  0  0
  5 12  1  0  0  0  0
  6  7  1  0  0  0  0
  6 34  1  0  0  0  0
  6 35  1  0  0  0  0
  7 11  1  0  0  0  0
  7  8  1  0  0  0  0
  7 36  1  0  0  0  0
  8  9  1  0  0  0  0
  8 37  1  0  0  0  0
  8 38  1  0  0  0  0
  9 10  1  0  0  0  0
  9 39  1  0  0  0  0
  9 40  1  0  0  0  0
 10 11  1  0  0  0  0
 11 41  1  0  0  0  0
 11 42  1  0  0  0  0
 12 17  1  0  0  0  0
 12 13  2  0  0  0  0
 13 14  1  0  0  0  0
 14 15  2  0  0  0  0
 14 43  1  0  0  0  0
 15 16  1  0  0  0  0
 16 20  1  0  0  0  0
 16 17  2  0  0  0  0
 17 18  1  0  0  0  0
 18 19  2  0  0  0  0
 19 20  1  0  0  0  0
 19 44  1  0  0  0  0
 20 21  1  0  0  0  0
 21 22  1  0  0  0  0
 21 45  1  0  0  0  0
 21 46  1  0  0  0  0
 22 29  1  0  0  0  0
 22 23  1  0  0  0  0
 22 25  1  0  0  0  0
 23 24  1  0  0  0  0
 23 47  1  0  0  0  0
 23 48  1  0  0  0  0
 24 49  1  0  0  0  0
 25 26  1  0  0  0  0
 25 50  1  0  0  0  0
 25 51  1  0  0  0  0
 26 27  1  0  0  0  0
 26 52  1  0  0  0  0
 26 53  1  0  0  0  0
 27 28  1  0  0  0  0
 28 29  1  0  0  0  0
 28 54  1  0  0  0  0
 28 55  1  0  0  0  0
 29 56  1  0  0  0  0
 29 57  1  0  0  0  0
M  END
> <s_m_source_file>
AV-unprocessed.smi

> <i_m_source_file_index>
14

> <i_lp_mmshare_version>
43012

> <i_f3d_flags>
0

> <s_epik_input>
W0NIMl0xT1tDSDJdW0NIMl1bQ0BIXTFbQ0gyXU4oW0NIMl1bQ0gyXUMjTiljKG5bY0hdbjIpYyhjMjMpbltjSF1uM1tDSDJdQzQoW0NIMl1bT0hdKVtDSDJdW0NIMl1PW0NIMl1bQ0gyXTQ=

> <s_epik_cmdline>
J2VwaWtfcHl0aG9uJywgJy1waCcsICc3LjAnLCAnLXRuJywgJzgnLCAnLW1hJywgJzIwMCcsICctbWV0YWxfYmluZGluZycsICctaW1hZScsICc8aW5maWxlLm1hZT4nLCAnLW9tYWUnLCAnPG91dGZpbGUubWFlPic=

> <r_lp_tautomer_probability>
1

> <r_epik_Ionization_Penalty>
0.000542547

> <r_epik_Ionization_Penalty_Charging>
0

> <r_epik_Ionization_Penalty_Neutral>
0.000542547

> <r_epik_State_Penalty>
0.000265709

> <r_epik_Charging_Adjusted_Penalty>
0.000265709

> <i_epik_Tot_Q>
0

> <i_epik_Tot_abs_Q>
0

> <r_epik_Metal_State_Penalty>
-0

> <b_epik_Metal_Only>
0

> <s_lp_Force_Field>
OPLS_2005

> <r_lp_Energy>
43.0361

> <b_lp_Chiralities_Consistent>
1

> <s_lp_Variant>
AV-unprocessed.smi:14-2

> <Gold.Version>
5.8.1

> <Gold.Id.Protein>
6NUR|6NUR_protein|mol2

> <Gold.PLP.Fitness>
46.6431

> <Gold.PLP.PLP>
-42.3647

> <Gold.PLP.part.hbond>
-4.8814

> <Gold.PLP.part.metal>
0.0000

> <Gold.PLP.part.buried>
-5.7707

> <Gold.PLP.part.nonpolar>
-32.8159

> <Gold.PLP.part.repulsive>
0.6071

> <Gold.PLP.ligand.clash>
0.0000

> <Gold.PLP.ligand.torsion>
2.8904

> <Gold.PLP.Chemscore.Hbond>
2.9920

> <Gold.PLP.Chemscore.CHOScore>
0.0000

> <Gold.PLP.Chemscore.Metal>
0.0000

> <Gold.Chemscore.Hbonds>
donor molecule, donor type, donor heavy atom, donor atom, acceptor molecule, acceptor atom, score
      L1  H    24    49       P1  7921  1.00
      P1  H  6931  6943       L1     1  0.86
      P1  H  7989  7998       L1    10  0.95

> <Gold.PLP.Chemscore.Internal.Correction>
1.0831

> <Gold.Rescore>
     Score         DG    S(hbond)    S(metal)    S(lipo)     H(rot)  DE(clash)    DE(int)     intcor
     13.93     -17.01       2.96        0.00      85.30       3.26       0.08       3.00       ----

> <Gold.Chemscore.Fitness>
13.9291

> <Gold.Chemscore.DG>
-17.0132

> <Gold.Chemscore.ZeroCoef>
-5.4800

> <Gold.Chemscore.Hbond>
2.9601

> <Gold.Chemscore.Metal>
0.0000

> <Gold.Chemscore.Lipo>
85.3002

> <Gold.Chemscore.Internal_Hbond>
0.0000

> <Gold.Chemscore.DEClash>
0.0803

> <Gold.Chemscore.DEInternal>
3.0038

> <Gold.Chemscore.Rot>
3.2553

> <Gold.Chemscore.Internal.Correction>
   9.000000E+99

> <Gold.Chemscore.Hbonds>
donor molecule, donor type, donor heavy atom, donor atom, acceptor molecule, acceptor atom, score
      L1  H    24    49       P1  7921  0.97
      P1  H  6931  6943       L1     1  0.79
      P1  H  7989  7998       L1    10  0.21

> <Gold.Chemscore.Hbond.Weighted>
-9.8867

> <Gold.Chemscore.Metal.Weighted>
-0.0000

> <Gold.Chemscore.Lipo.Weighted>
-9.9801

> <Gold.Chemscore.Internal_Hbond.Weighted>
0.0000

> <Gold.Chemscore.DEClash.Weighted>
0.0803

> <Gold.Chemscore.DEInternal.Weighted>
3.0038

> <Gold.Chemscore.Rot.Weighted>
8.3336

> <Gold.Chemscore.Internal.Correction.Weighted>
   9.000000E+99

> <Gold.Protein.RotatedTorsions>
[ 6907 6896 6895 6894 ] final -164.90 input  -60.11 | X-H torsion
[ 7974 7965 7964 7962 ] final -107.48 input  175.53 | X-H torsion
[ 8008 7997 7996 7995 ] final -115.64 input   59.86 | X-H torsion
[ 10167 10162 10161 10158 ] final  -36.45 input  -65.29 | X-H torsion
[ 10718 10713 10712 10709 ] final  -92.36 input   66.30 | X-H torsion
[ 10763 10752 10751 10750 ] final   61.51 input  -60.55 | X-H torsion
[ 11005 11000 10999 10996 ] final  105.22 input  -57.11 | X-H torsion

> <Gold.Protein.ActiveResidues>
 VAL166  LYS551  ARG553  GLY616  TRP617  ASP618  TYR619  PRO620  LYS621  CYS622 
 ASP623  PHE694  ASN695  SER759  ASP760  ASP761  ALA762  ILE779  LEU786  VAL792 
 PHE793  MET794  SER795  GLU796  ALA797  LYS798  CYS799  TRP800  GLU811  SER814 

> <Gold.Protein.RotatedAtoms>
  151.4191  133.3704  159.2753 H   0  0  0  0  0  0  0  0  0  0  0  0  # atno 6907 bound_to 6896
  150.9307  134.8723  159.7560 H   0  0  0  0  0  0  0  0  0  0  0  0  # atno 6908 bound_to 6896
  152.5026  134.4135  159.9509 H   0  0  0  0  0  0  0  0  0  0  0  0  # atno 6909 bound_to 6896
  145.2048  140.9071  143.3348 H   0  0  0  0  0  0  0  0  0  0  0  0  # atno 7974 bound_to 7965
  155.0553  140.0393  157.2558 H   0  0  0  0  0  0  0  0  0  0  0  0  # atno 8008 bound_to 7997
  154.7104  140.2691  155.6611 H   0  0  0  0  0  0  0  0  0  0  0  0  # atno 8009 bound_to 7997
  156.2788  140.2723  156.1743 H   0  0  0  0  0  0  0  0  0  0  0  0  # atno 8010 bound_to 7997
  140.7142  143.3408  151.2362 H   0  0  0  0  0  0  0  0  0  0  0  0  # atno 10167 bound_to 10162
  156.0001  130.4984  150.5614 H   0  0  0  0  0  0  0  0  0  0  0  0  # atno 10718 bound_to 10713
  152.9953  135.5498  154.6045 H   0  0  0  0  0  0  0  0  0  0  0  0  # atno 10763 bound_to 10752
  154.5380  135.2818  155.1123 H   0  0  0  0  0  0  0  0  0  0  0  0  # atno 10764 bound_to 10752
  154.2412  135.6416  153.5260 H   0  0  0  0  0  0  0  0  0  0  0  0  # atno 10765 bound_to 10752
  139.8800  134.9328  156.5480 H   0  0  0  0  0  0  0  0  0  0  0  0  # atno 11005 bound_to 11000
  144.9913  139.3687  143.6213 LP  0  0  0  0  0  0  0  0  0  0  0  0  # atno 17320 bound_to 7965
  146.3410  139.9096  142.8782 LP  0  0  0  0  0  0  0  0  0  0  0  0  # atno 17321 bound_to 7965
  139.6915  143.9684  152.2861 LP  0  0  0  0  0  0  0  0  0  0  0  0  # atno 17342 bound_to 10162
  139.9347  144.6719  150.8327 LP  0  0  0  0  0  0  0  0  0  0  0  0  # atno 17343 bound_to 10162
  157.3523  131.0735  151.1703 LP  0  0  0  0  0  0  0  0  0  0  0  0  # atno 17370 bound_to 10713
  157.2516  130.6616  149.5934 LP  0  0  0  0  0  0  0  0  0  0  0  0  # atno 17371 bound_to 10713
  140.8261  133.8315  155.8940 LP  0  0  0  0  0  0  0  0  0  0  0  0  # atno 17394 bound_to 11000
  140.9373  134.1946  157.4823 LP  0  0  0  0  0  0  0  0  0  0  0  0  # atno 17395 bound_to 11000

$$$$
