AV-unprocessed.smi:3293|AV-procd|sdf|12630|dock3
  -GOLD-   2272018563D 1   1.00000     0.00000
 Structure written by MMmdl.
 44 45  0  0  0  0  0  0  0  0  2 V2000
  151.9166  145.8139  159.9472 C   0  0  0  0  0  0  0  0  0  0  0  0
  152.1417  144.3445  160.2639 C   0  0  0  0  0  0  0  0  0  0  0  0
  152.6093  143.9867  161.4753 C   0  0  0  0  0  0  0  0  0  0  0  0
  152.9415  142.5679  161.8761 C   0  0  0  0  0  0  0  0  0  0  0  0
  153.1675  141.6882  160.6446 C   0  0  0  0  0  0  0  0  0  0  0  0
  152.0235  141.8398  159.6286 C   0  0  2  0  0  0  0  0  0  0  0  0
  152.2498  140.8663  158.4556 C   0  0  0  0  0  0  0  0  0  0  0  0
  151.8420  143.3152  159.1544 C   0  0  1  0  0  0  0  0  0  0  0  0
  150.4362  143.5025  158.5244 C   0  0  0  0  0  0  0  0  0  0  0  0
  150.3419  142.9600  157.1532 N   0  3  0  0  0  0  0  0  0  0  0  0
  149.6532  141.6582  157.0663 C   0  0  0  0  0  0  0  0  0  0  0  0
  149.4368  141.2454  155.6047 C   0  0  0  0  0  0  0  0  0  0  0  0
  148.0425  141.5652  155.1442 C   0  0  0  0  0  0  0  0  0  0  0  0
  147.4597  141.2998  153.8721 C   0  0  0  0  0  0  0  0  0  0  0  0
  146.2066  141.7140  153.7840 N   0  0  0  0  0  0  0  0  0  0  0  0
  145.9445  142.2532  154.9921 N   0  0  0  0  0  0  0  0  0  0  0  0
  144.6363  142.8141  155.2543 C   0  0  0  0  0  0  0  0  0  0  0  0
  147.0334  142.1774  155.8337 C   0  0  0  0  0  0  0  0  0  0  0  0
  152.4093  146.0839  159.0128 H   0  0  0  0  0  0  0  0  0  0  0  0
  152.3236  146.4545  160.7304 H   0  0  0  0  0  0  0  0  0  0  0  0
  150.8528  146.0369  159.8672 H   0  0  0  0  0  0  0  0  0  0  0  0
  152.7840  144.7399  162.2300 H   0  0  0  0  0  0  0  0  0  0  0  0
  153.8387  142.5718  162.4957 H   0  0  0  0  0  0  0  0  0  0  0  0
  152.1288  142.1777  162.4896 H   0  0  0  0  0  0  0  0  0  0  0  0
  154.1131  141.9588  160.1723 H   0  0  0  0  0  0  0  0  0  0  0  0
  153.2662  140.6480  160.9576 H   0  0  0  0  0  0  0  0  0  0  0  0
  151.1085  141.5344  160.1389 H   0  0  0  0  0  0  0  0  0  0  0  0
  153.1481  141.1256  157.8945 H   0  0  0  0  0  0  0  0  0  0  0  0
  151.4156  140.8534  157.7561 H   0  0  0  0  0  0  0  0  0  0  0  0
  152.3734  139.8447  158.8163 H   0  0  0  0  0  0  0  0  0  0  0  0
  152.5898  143.4982  158.3811 H   0  0  0  0  0  0  0  0  0  0  0  0
  149.6722  143.0003  159.1157 H   0  0  0  0  0  0  0  0  0  0  0  0
  150.1715  144.5610  158.5197 H   0  0  0  0  0  0  0  0  0  0  0  0
  149.8417  143.6260  156.5816 H   0  0  0  0  0  0  0  0  0  0  0  0
  150.2469  140.9032  157.5835 H   0  0  0  0  0  0  0  0  0  0  0  0
  148.6941  141.7254  157.5818 H   0  0  0  0  0  0  0  0  0  0  0  0
  150.1701  141.7504  154.9747 H   0  0  0  0  0  0  0  0  0  0  0  0
  149.6376  140.1788  155.4972 H   0  0  0  0  0  0  0  0  0  0  0  0
  147.9090  140.8227  153.0134 H   0  0  0  0  0  0  0  0  0  0  0  0
  144.6038  143.2350  156.2595 H   0  0  0  0  0  0  0  0  0  0  0  0
  143.8777  142.0352  155.1714 H   0  0  0  0  0  0  0  0  0  0  0  0
  144.4205  143.6028  154.5332 H   0  0  0  0  0  0  0  0  0  0  0  0
  147.0010  142.5618  156.8427 H   0  0  0  0  0  0  0  0  0  0  0  0
  151.2764  142.8555  156.7842 H   0  0  0  0  0  0  0  0  0  0  0  0
  1  2  1  0  0  0  0
  1 19  1  0  0  0  0
  1 20  1  0  0  0  0
  1 21  1  0  0  0  0
  2  8  1  0  0  0  0
  2  3  2  0  0  0  0
  3  4  1  0  0  0  0
  3 22  1  0  0  0  0
  4  5  1  0  0  0  0
  4 23  1  0  0  0  0
  4 24  1  0  0  0  0
  5  6  1  0  0  0  0
  5 25  1  0  0  0  0
  5 26  1  0  0  0  0
  6  7  1  0  0  0  0
  6  8  1  0  0  0  0
  6 27  1  0  0  0  0
  7 28  1  0  0  0  0
  7 29  1  0  0  0  0
  7 30  1  0  0  0  0
  8  9  1  0  0  0  0
  8 31  1  0  0  0  0
  9 10  1  0  0  0  0
  9 32  1  0  0  0  0
  9 33  1  0  0  0  0
 10 11  1  0  0  0  0
 10 34  1  0  0  0  0
 10 44  1  0  0  0  0
 11 12  1  0  0  0  0
 11 35  1  0  0  0  0
 11 36  1  0  0  0  0
 12 13  1  0  0  0  0
 12 37  1  0  0  0  0
 12 38  1  0  0  0  0
 13 18  2  0  0  0  0
 13 14  1  0  0  0  0
 14 15  2  0  0  0  0
 14 39  1  0  0  0  0
 15 16  1  0  0  0  0
 16 17  1  0  0  0  0
 16 18  1  0  0  0  0
 17 40  1  0  0  0  0
 17 41  1  0  0  0  0
 17 42  1  0  0  0  0
 18 43  1  0  0  0  0
M  CHG  1  10   1
M  END
> <s_m_source_file>
AV-unprocessed.smi

> <i_m_source_file_index>
3293

> <i_lp_mmshare_version>
43012

> <i_f3d_flags>
0

> <s_epik_input>
W0NIM11DMT1bQ0hdW0NIMl1bQ0gyXVtDQEBIXShbQ0gzXSlbQ0BIXTFbQ0gyXVtOSF1bQ0gyXVtDSDJdYzJbY0hdbm4oW0NIM10pW2NIXTI=

> <s_epik_cmdline>
J2VwaWtfcHl0aG9uJywgJy1waCcsICc3LjAnLCAnLXRuJywgJzgnLCAnLW1hJywgJzIwMCcsICctbWV0YWxfYmluZGluZycsICctaW1hZScsICc8aW5maWxlLm1hZT4nLCAnLW9tYWUnLCAnPG91dGZpbGUubWFlPic=

> <r_lp_tautomer_probability>
1

> <r_epik_Ionization_Penalty>
0.000598621

> <r_epik_Ionization_Penalty_Charging>
0.000582095

> <r_epik_Ionization_Penalty_Neutral>
1.65262e-05

> <r_epik_State_Penalty>
-0

> <r_epik_Charging_Adjusted_Penalty>
0.000582095

> <i_epik_Tot_Q>
1

> <i_epik_Tot_abs_Q>
1

> <r_epik_Metal_State_Penalty>
-0

> <b_epik_Metal_Only>
0

> <s_lp_Force_Field>
OPLS_2005

> <r_lp_Energy>
11.6167

> <b_lp_Chiralities_Consistent>
1

> <s_lp_Variant>
AV-unprocessed.smi:3293-2

> <Gold.Version>
5.8.1

> <Gold.Id.Protein>
6NUR|6NUR_protein|mol2

> <Gold.PLP.Fitness>
52.5632

> <Gold.PLP.PLP>
-45.0601

> <Gold.PLP.part.hbond>
-1.0000

> <Gold.PLP.part.metal>
0.0000

> <Gold.PLP.part.buried>
-4.3649

> <Gold.PLP.part.nonpolar>
-39.4426

> <Gold.PLP.part.repulsive>
0.2252

> <Gold.PLP.ligand.clash>
0.0000

> <Gold.PLP.ligand.torsion>
0.7921

> <Gold.PLP.Chemscore.Hbond>
2.0000

> <Gold.PLP.Chemscore.CHOScore>
1.0000

> <Gold.PLP.Chemscore.Metal>
0.0000

> <Gold.Chemscore.Hbonds>
donor molecule, donor type, donor heavy atom, donor atom, acceptor molecule, acceptor atom, score
      L1  H    10    34       P1  8028  2.00
      L1  C    14    39       P1  7957  0.77

> <Gold.PLP.Chemscore.Internal.Correction>
0.0873

> <Gold.Rescore>
     Score         DG    S(hbond)    S(metal)    S(lipo)     H(rot)  DE(clash)    DE(int)     intcor
     18.91     -19.95       0.99        0.00     127.82       1.48       0.12       0.93       ----

> <Gold.Chemscore.Fitness>
18.9053

> <Gold.Chemscore.DG>
-19.9481

> <Gold.Chemscore.ZeroCoef>
-5.4800

> <Gold.Chemscore.Hbond>
0.9923

> <Gold.Chemscore.Metal>
0.0000

> <Gold.Chemscore.Lipo>
127.8167

> <Gold.Chemscore.Internal_Hbond>
0.0000

> <Gold.Chemscore.DEClash>
0.1168

> <Gold.Chemscore.DEInternal>
0.9260

> <Gold.Chemscore.Rot>
1.4847

> <Gold.Chemscore.Internal.Correction>
   9.000000E+99

> <Gold.Chemscore.Hbonds>
donor molecule, donor type, donor heavy atom, donor atom, acceptor molecule, acceptor atom, score
      L1  H    10    34       P1  8028  1.00

> <Gold.Chemscore.Hbond.Weighted>
-3.3143

> <Gold.Chemscore.Metal.Weighted>
-0.0000

> <Gold.Chemscore.Lipo.Weighted>
-14.9546

> <Gold.Chemscore.Internal_Hbond.Weighted>
0.0000

> <Gold.Chemscore.DEClash.Weighted>
0.1168

> <Gold.Chemscore.DEInternal.Weighted>
0.9260

> <Gold.Chemscore.Rot.Weighted>
3.8008

> <Gold.Chemscore.Internal.Correction.Weighted>
   9.000000E+99

> <Gold.Protein.RotatedTorsions>
[ 6907 6896 6895 6894 ] final -102.55 input  -60.11 | X-H torsion
[ 7974 7965 7964 7962 ] final  171.96 input  175.53 | X-H torsion
[ 8008 7997 7996 7995 ] final -175.87 input   59.86 | X-H torsion
[ 10167 10162 10161 10158 ] final -138.86 input  -65.29 | X-H torsion
[ 10718 10713 10712 10709 ] final -166.38 input   66.30 | X-H torsion
[ 10763 10752 10751 10750 ] final  176.32 input  -60.55 | X-H torsion
[ 11005 11000 10999 10996 ] final  -29.43 input  -57.11 | X-H torsion

> <Gold.Protein.ActiveResidues>
 VAL166  LYS551  ARG553  GLY616  TRP617  ASP618  TYR619  PRO620  LYS621  CYS622 
 ASP623  PHE694  ASN695  SER759  ASP760  ASP761  ALA762  ILE779  LEU786  VAL792 
 PHE793  MET794  SER795  GLU796  ALA797  LYS798  CYS799  TRP800  GLU811  SER814 

> <Gold.Protein.RotatedAtoms>
  150.7201  134.0564  159.3815 H   0  0  0  0  0  0  0  0  0  0  0  0  # atno 6907 bound_to 6896
  151.8543  135.0544  160.0471 H   0  0  0  0  0  0  0  0  0  0  0  0  # atno 6908 bound_to 6896
  152.2766  133.5396  159.5508 H   0  0  0  0  0  0  0  0  0  0  0  0  # atno 6909 bound_to 6896
  144.7280  139.9428  143.6429 H   0  0  0  0  0  0  0  0  0  0  0  0  # atno 7974 bound_to 7965
  155.9879  140.1195  157.0666 H   0  0  0  0  0  0  0  0  0  0  0  0  # atno 8008 bound_to 7997
  154.4202  140.1131  156.5593 H   0  0  0  0  0  0  0  0  0  0  0  0  # atno 8009 bound_to 7997
  155.6383  140.3473  155.4708 H   0  0  0  0  0  0  0  0  0  0  0  0  # atno 8010 bound_to 7997
  139.8436  143.7290  152.2662 H   0  0  0  0  0  0  0  0  0  0  0  0  # atno 10167 bound_to 10162
  156.6670  130.9069  151.3038 H   0  0  0  0  0  0  0  0  0  0  0  0  # atno 10718 bound_to 10713
  154.4795  135.2774  155.1581 H   0  0  0  0  0  0  0  0  0  0  0  0  # atno 10763 bound_to 10752
  154.3297  135.6192  153.5549 H   0  0  0  0  0  0  0  0  0  0  0  0  # atno 10764 bound_to 10752
  152.9873  135.5762  154.5193 H   0  0  0  0  0  0  0  0  0  0  0  0  # atno 10765 bound_to 10752
  140.9296  133.7347  156.0917 H   0  0  0  0  0  0  0  0  0  0  0  0  # atno 11005 bound_to 11000
  146.0771  139.3759  143.0487 LP  0  0  0  0  0  0  0  0  0  0  0  0  # atno 17320 bound_to 7965
  145.7890  140.9823  143.1059 LP  0  0  0  0  0  0  0  0  0  0  0  0  # atno 17321 bound_to 7965
  139.7534  144.7527  151.0471 LP  0  0  0  0  0  0  0  0  0  0  0  0  # atno 17342 bound_to 10162
  140.7795  143.4833  150.9989 LP  0  0  0  0  0  0  0  0  0  0  0  0  # atno 17343 bound_to 10162
  157.7090  130.9418  150.1026 LP  0  0  0  0  0  0  0  0  0  0  0  0  # atno 17370 bound_to 10713
  156.1967  130.3658  149.8840 LP  0  0  0  0  0  0  0  0  0  0  0  0  # atno 17371 bound_to 10713
  140.7880  134.3649  157.5471 LP  0  0  0  0  0  0  0  0  0  0  0  0  # atno 17394 bound_to 11000
  139.8793  134.9123  156.3056 LP  0  0  0  0  0  0  0  0  0  0  0  0  # atno 17395 bound_to 11000

$$$$
