AV-unprocessed.smi:2050|AV-procd|sdf|8325|dock9
  -GOLD-   2272010593D 1   1.00000     0.00000
 Structure written by MMmdl.
 33 34  0  0  0  0  0  0  0  0  1 V2000
  144.7235  131.3357  150.8004 C   0  0  0  0  0  0  0  0  0  0  0  0
  144.9041  132.7787  151.1261 C   0  0  0  0  0  0  0  0  0  0  0  0
  145.9912  133.5213  151.4929 C   0  0  0  0  0  0  0  0  0  0  0  0
  145.4500  134.8254  151.6481 C   0  0  0  0  0  0  0  0  0  0  0  0
  146.2736  135.9136  152.0336 N   0  0  0  0  0  0  0  0  0  0  0  0
  145.8826  137.1340  152.4388 C   0  0  0  0  0  0  0  0  0  0  0  0
  144.7135  137.5073  152.5385 O   0  0  0  0  0  0  0  0  0  0  0  0
  146.9370  137.9100  152.7297 N   0  0  0  0  0  0  0  0  0  0  0  0
  146.8713  139.2924  153.1948 C   0  0  0  0  0  0  0  0  0  0  0  0
  148.2533  139.8223  153.6221 C   0  0  1  0  0  0  0  0  0  0  0  0
  148.1592  141.1743  154.3561 C   0  0  0  0  0  0  0  0  0  0  0  0
  149.5284  141.4989  154.9610 C   0  0  0  0  0  0  0  0  0  0  0  0
  150.2440  139.8859  155.4498 S   0  0  0  0  0  0  0  0  0  0  0  0
  151.5764  139.7501  154.8422 O   0  0  0  0  0  0  0  0  0  0  0  0
  150.0443  139.6771  156.8918 O   0  0  0  0  0  0  0  0  0  0  0  0
  149.0396  138.8574  154.5268 C   0  0  0  0  0  0  0  0  0  0  0  0
  144.1507  134.8748  151.3980 N   0  0  0  0  0  0  0  0  0  0  0  0
  143.7941  133.5633  151.0623 O   0  0  0  0  0  0  0  0  0  0  0  0
  145.6598  130.7895  150.9163 H   0  0  0  0  0  0  0  0  0  0  0  0
  144.3843  131.2110  149.7720 H   0  0  0  0  0  0  0  0  0  0  0  0
  143.9831  130.8809  151.4587 H   0  0  0  0  0  0  0  0  0  0  0  0
  147.0076  133.1822  151.6277 H   0  0  0  0  0  0  0  0  0  0  0  0
  147.2678  135.7436  151.9980 H   0  0  0  0  0  0  0  0  0  0  0  0
  147.8594  137.5149  152.6196 H   0  0  0  0  0  0  0  0  0  0  0  0
  146.4888  139.8960  152.3713 H   0  0  0  0  0  0  0  0  0  0  0  0
  146.1511  139.3993  154.0081 H   0  0  0  0  0  0  0  0  0  0  0  0
  148.8504  139.9884  152.7239 H   0  0  0  0  0  0  0  0  0  0  0  0
  147.8189  141.9712  153.6943 H   0  0  0  0  0  0  0  0  0  0  0  0
  147.4281  141.0952  155.1620 H   0  0  0  0  0  0  0  0  0  0  0  0
  150.1844  141.9471  154.2143 H   0  0  0  0  0  0  0  0  0  0  0  0
  149.4703  142.1649  155.8217 H   0  0  0  0  0  0  0  0  0  0  0  0
  148.3835  138.3816  155.2565 H   0  0  0  0  0  0  0  0  0  0  0  0
  149.5602  138.0779  153.9703 H   0  0  0  0  0  0  0  0  0  0  0  0
  1  2  1  0  0  0  0
  1 19  1  0  0  0  0
  1 20  1  0  0  0  0
  1 21  1  0  0  0  0
  2 18  1  0  0  0  0
  2  3  2  0  0  0  0
  3  4  1  0  0  0  0
  3 22  1  0  0  0  0
  4  5  1  0  0  0  0
  4 17  2  0  0  0  0
  5  6  1  0  0  0  0
  5 23  1  0  0  0  0
  6  7  2  0  0  0  0
  6  8  1  0  0  0  0
  8  9  1  0  0  0  0
  8 24  1  0  0  0  0
  9 10  1  0  0  0  0
  9 25  1  0  0  0  0
  9 26  1  0  0  0  0
 10 16  1  0  0  0  0
 10 11  1  0  0  0  0
 10 27  1  0  0  0  0
 11 12  1  0  0  0  0
 11 28  1  0  0  0  0
 11 29  1  0  0  0  0
 12 13  1  0  0  0  0
 12 30  1  0  0  0  0
 12 31  1  0  0  0  0
 13 14  2  0  0  0  0
 13 15  2  0  0  0  0
 13 16  1  0  0  0  0
 16 32  1  0  0  0  0
 16 33  1  0  0  0  0
 17 18  1  0  0  0  0
M  END
> <s_m_source_file>
AV-unprocessed.smi

> <i_m_source_file_index>
2050

> <i_lp_mmshare_version>
43012

> <i_f3d_flags>
0

> <s_epik_input>
W0NIM11jMVtjSF1jKG5vMSlbTkhdQyg9TylbTkhdW0NIMl1bQ0BASF0oW0NIMl0yKVtDSDJdW0NIMl1TMig9Tyk9Tw==

> <s_epik_cmdline>
J2VwaWtfcHl0aG9uJywgJy1waCcsICc3LjAnLCAnLXRuJywgJzgnLCAnLW1hJywgJzIwMCcsICctbWV0YWxfYmluZGluZycsICctaW1hZScsICc8aW5maWxlLm1hZT4nLCAnLW9tYWUnLCAnPG91dGZpbGUubWFlPic=

> <r_lp_tautomer_probability>
1

> <r_epik_Ionization_Penalty>
2.22143e-05

> <r_epik_Ionization_Penalty_Charging>
0

> <r_epik_Ionization_Penalty_Neutral>
2.22143e-05

> <r_epik_State_Penalty>
-0

> <r_epik_Charging_Adjusted_Penalty>
0

> <i_epik_Tot_Q>
0

> <i_epik_Tot_abs_Q>
0

> <r_epik_Metal_State_Penalty>
-0

> <b_epik_Metal_Only>
0

> <s_lp_Force_Field>
OPLS_2005

> <r_lp_Energy>
0.896814

> <b_lp_Chiralities_Consistent>
1

> <s_lp_Variant>
AV-unprocessed.smi:2050-2

> <Gold.Version>
5.8.1

> <Gold.Id.Protein>
6NUR|6NUR_protein|mol2

> <Gold.PLP.Fitness>
36.8301

> <Gold.PLP.PLP>
-28.1022

> <Gold.PLP.part.hbond>
-3.0000

> <Gold.PLP.part.metal>
0.0000

> <Gold.PLP.part.buried>
-3.4933

> <Gold.PLP.part.nonpolar>
-23.2746

> <Gold.PLP.part.repulsive>
0.9327

> <Gold.PLP.ligand.clash>
0.0000

> <Gold.PLP.ligand.torsion>
0.1372

> <Gold.PLP.Chemscore.Hbond>
3.0000

> <Gold.PLP.Chemscore.CHOScore>
0.0000

> <Gold.PLP.Chemscore.Metal>
0.0000

> <Gold.Chemscore.Hbonds>
donor molecule, donor type, donor heavy atom, donor atom, acceptor molecule, acceptor atom, score
      L1  H     5    23       P1  7948  1.00
      L1  H     8    24       P1  7948  0.98
      P1  H  7989  7998       L1    14  1.00

> <Gold.PLP.Chemscore.Internal.Correction>
0.0023

> <Gold.Rescore>
     Score         DG    S(hbond)    S(metal)    S(lipo)     H(rot)  DE(clash)    DE(int)     intcor
     16.58     -18.22       2.93        0.00      55.02       1.36       0.19       1.45       ----

> <Gold.Chemscore.Fitness>
16.5780

> <Gold.Chemscore.DG>
-18.2189

> <Gold.Chemscore.ZeroCoef>
-5.4800

> <Gold.Chemscore.Hbond>
2.9265

> <Gold.Chemscore.Metal>
0.0000

> <Gold.Chemscore.Lipo>
55.0238

> <Gold.Chemscore.Internal_Hbond>
0.0000

> <Gold.Chemscore.DEClash>
0.1872

> <Gold.Chemscore.DEInternal>
1.4538

> <Gold.Chemscore.Rot>
1.3567

> <Gold.Chemscore.Internal.Correction>
   9.000000E+99

> <Gold.Chemscore.Hbonds>
donor molecule, donor type, donor heavy atom, donor atom, acceptor molecule, acceptor atom, score
      L1  H     5    23       P1  7948  0.98
      L1  H     8    24       P1  7948  0.93
      P1  H  7989  7998       L1    14  0.65

> <Gold.Chemscore.Hbond.Weighted>
-9.7744

> <Gold.Chemscore.Metal.Weighted>
-0.0000

> <Gold.Chemscore.Lipo.Weighted>
-6.4378

> <Gold.Chemscore.Internal_Hbond.Weighted>
0.0000

> <Gold.Chemscore.DEClash.Weighted>
0.1872

> <Gold.Chemscore.DEInternal.Weighted>
1.4538

> <Gold.Chemscore.Rot.Weighted>
3.4732

> <Gold.Chemscore.Internal.Correction.Weighted>
   9.000000E+99

> <Gold.Protein.RotatedTorsions>
[ 6907 6896 6895 6894 ] final  148.57 input  -60.11 | X-H torsion
[ 7974 7965 7964 7962 ] final   80.24 input  175.53 | X-H torsion
[ 8008 7997 7996 7995 ] final -133.80 input   59.86 | X-H torsion
[ 10167 10162 10161 10158 ] final -141.66 input  -65.29 | X-H torsion
[ 10718 10713 10712 10709 ] final  -44.54 input   66.30 | X-H torsion
[ 10763 10752 10751 10750 ] final -133.84 input  -60.55 | X-H torsion
[ 11005 11000 10999 10996 ] final  129.79 input  -57.11 | X-H torsion

> <Gold.Protein.ActiveResidues>
 VAL166  LYS551  ARG553  GLY616  TRP617  ASP618  TYR619  PRO620  LYS621  CYS622 
 ASP623  PHE694  ASN695  SER759  ASP760  ASP761  ALA762  ILE779  LEU786  VAL792 
 PHE793  MET794  SER795  GLU796  ALA797  LYS798  CYS799  TRP800  GLU811  SER814 

> <Gold.Protein.RotatedAtoms>
  152.1397  133.4457  159.4760 H   0  0  0  0  0  0  0  0  0  0  0  0  # atno 6907 bound_to 6896
  150.6885  134.2320  159.4447 H   0  0  0  0  0  0  0  0  0  0  0  0  # atno 6908 bound_to 6896
  152.0210  134.9822  160.0621 H   0  0  0  0  0  0  0  0  0  0  0  0  # atno 6909 bound_to 6896
  145.6538  139.2454  143.1962 H   0  0  0  0  0  0  0  0  0  0  0  0  # atno 7974 bound_to 7965
  155.3516  140.0477  157.3046 H   0  0  0  0  0  0  0  0  0  0  0  0  # atno 8008 bound_to 7997
  154.5224  140.2229  155.8915 H   0  0  0  0  0  0  0  0  0  0  0  0  # atno 8009 bound_to 7997
  156.1704  140.3097  155.8969 H   0  0  0  0  0  0  0  0  0  0  0  0  # atno 8010 bound_to 7997
  139.8163  143.7634  152.2665 H   0  0  0  0  0  0  0  0  0  0  0  0  # atno 10167 bound_to 10162
  156.2375  130.4177  149.8800 H   0  0  0  0  0  0  0  0  0  0  0  0  # atno 10718 bound_to 10713
  154.8727  135.3753  154.4638 H   0  0  0  0  0  0  0  0  0  0  0  0  # atno 10763 bound_to 10752
  153.5304  135.7028  153.5691 H   0  0  0  0  0  0  0  0  0  0  0  0  # atno 10764 bound_to 10752
  153.3898  135.3975  155.1880 H   0  0  0  0  0  0  0  0  0  0  0  0  # atno 10765 bound_to 10752
  139.9635  134.9596  156.9200 H   0  0  0  0  0  0  0  0  0  0  0  0  # atno 11005 bound_to 11000
  146.1182  140.7342  142.9470 LP  0  0  0  0  0  0  0  0  0  0  0  0  # atno 17320 bound_to 7965
  144.7113  140.4049  143.7078 LP  0  0  0  0  0  0  0  0  0  0  0  0  # atno 17321 bound_to 7965
  139.7799  144.7448  151.0103 LP  0  0  0  0  0  0  0  0  0  0  0  0  # atno 17342 bound_to 10162
  140.7815  143.4554  151.0354 LP  0  0  0  0  0  0  0  0  0  0  0  0  # atno 17343 bound_to 10162
  156.6394  130.8698  151.3511 LP  0  0  0  0  0  0  0  0  0  0  0  0  # atno 17370 bound_to 10713
  157.7161  130.9498  150.1259 LP  0  0  0  0  0  0  0  0  0  0  0  0  # atno 17371 bound_to 10713
  140.5447  134.0685  155.7351 LP  0  0  0  0  0  0  0  0  0  0  0  0  # atno 17394 bound_to 11000
  141.1314  133.9296  157.2527 LP  0  0  0  0  0  0  0  0  0  0  0  0  # atno 17395 bound_to 11000

$$$$
