AV-unprocessed.smi:35|AV-procd|sdf|269|dock2
  -GOLD-   2262016 33D 1   1.00000     0.00000
 Structure written by MMmdl.
 28 29  0  0  0  0  0  0  0  0  2 V2000
  152.7356  141.3202  158.8837 O   0  0  0  0  0  0  0  0  0  0  0  0
  152.0735  141.1962  157.8550 C   0  0  0  0  0  0  0  0  0  0  0  0
  152.4037  140.3220  156.8617 N   0  5  0  0  0  0  0  0  0  0  0  0
  151.6536  140.1729  155.7305 C   0  0  0  0  0  0  0  0  0  0  0  0
  151.9803  139.4259  154.8086 O   0  0  0  0  0  0  0  0  0  0  0  0
  150.4461  140.9167  155.5962 N   0  0  0  0  0  0  0  0  0  0  0  0
  149.6163  140.7695  154.3293 C   0  0  2  0  0  0  0  0  0  0  0  0
  148.6236  141.7597  154.3036 O   0  0  0  0  0  0  0  0  0  0  0  0
  147.3328  141.2227  154.5924 C   0  0  2  0  0  0  0  0  0  0  0  0
  147.0523  141.2389  156.1135 C   0  0  0  0  0  0  0  0  0  0  0  0
  146.9426  142.5702  156.5702 O   0  0  0  0  0  0  0  0  0  0  0  0
  147.4405  139.8278  153.9670 C   0  0  2  0  0  0  0  0  0  0  0  0
  146.5098  138.9033  154.4955 O   0  0  0  0  0  0  0  0  0  0  0  0
  148.8763  139.4128  154.2589 C   0  0  1  0  0  0  0  0  0  0  0  0
  149.3531  138.6061  153.2009 O   0  0  0  0  0  0  0  0  0  0  0  0
  150.1276  141.8626  156.5598 C   0  0  0  0  0  0  0  0  0  0  0  0
  150.8820  142.0173  157.6661 C   0  0  0  0  0  0  0  0  0  0  0  0
  150.2881  143.3933  158.9621 Br  0  0  0  0  0  0  0  0  0  0  0  0
  150.3250  140.9378  153.5165 H   0  0  0  0  0  0  0  0  0  0  0  0
  146.5648  141.8017  154.0779 H   0  0  0  0  0  0  0  0  0  0  0  0
  146.0963  140.7636  156.3312 H   0  0  0  0  0  0  0  0  0  0  0  0
  147.8040  140.6967  156.6846 H   0  0  0  0  0  0  0  0  0  0  0  0
  147.6918  143.0559  156.2604 H   0  0  0  0  0  0  0  0  0  0  0  0
  147.2845  139.9176  152.8904 H   0  0  0  0  0  0  0  0  0  0  0  0
  145.7718  138.8583  153.9067 H   0  0  0  0  0  0  0  0  0  0  0  0
  148.9461  138.8937  155.2165 H   0  0  0  0  0  0  0  0  0  0  0  0
  149.3454  139.1274  152.4112 H   0  0  0  0  0  0  0  0  0  0  0  0
  149.2633  142.4976  156.4422 H   0  0  0  0  0  0  0  0  0  0  0  0
  1  2  2  0  0  0  0
  2 17  1  0  0  0  0
  2  3  1  0  0  0  0
  3  4  1  0  0  0  0
  4  5  2  0  0  0  0
  4  6  1  0  0  0  0
  6  7  1  0  0  0  0
  6 16  1  0  0  0  0
  7 14  1  0  0  0  0
  7  8  1  0  0  0  0
  7 19  1  0  0  0  0
  8  9  1  0  0  0  0
  9 10  1  0  0  0  0
  9 12  1  0  0  0  0
  9 20  1  0  0  0  0
 10 11  1  0  0  0  0
 10 21  1  0  0  0  0
 10 22  1  0  0  0  0
 11 23  1  0  0  0  0
 12 13  1  0  0  0  0
 12 14  1  0  0  0  0
 12 24  1  0  0  0  0
 13 25  1  0  0  0  0
 14 15  1  0  0  0  0
 14 26  1  0  0  0  0
 15 27  1  0  0  0  0
 16 17  2  0  0  0  0
 16 28  1  0  0  0  0
 17 18  1  0  0  0  0
M  CHG  1   3  -1
M  END
> <s_m_source_file>
AV-unprocessed.smi

> <i_m_source_file_index>
35

> <i_lp_mmshare_version>
43012

> <i_f3d_flags>
0

> <s_epik_input>
Tz1jMVtuSF1jKD1PKW4oW2NIXWMxQnIpW0NAQEhdMk9bQ0BASF0oW0NIMl1bT0hdKVtDQEBIXShbT0hdKVtDQEhdMltPSF0=

> <s_epik_cmdline>
J2VwaWtfcHl0aG9uJywgJy1waCcsICc3LjAnLCAnLXRuJywgJzgnLCAnLW1hJywgJzIwMCcsICctbWV0YWxfYmluZGluZycsICctaW1hZScsICc8aW5maWxlLm1hZT4nLCAnLW9tYWUnLCAnPG91dGZpbGUubWFlPic=

> <r_epik_Ionization_Penalty>
1.06112

> <r_epik_Ionization_Penalty_Charging>
2.1796e-09

> <r_epik_Ionization_Penalty_Neutral>
1.06112

> <r_epik_State_Penalty>
1.11484

> <r_epik_Charging_Adjusted_Penalty>
1.11484

> <i_epik_Tot_Q>
-1

> <i_epik_Tot_abs_Q>
1

> <r_epik_Metal_State_Penalty>
0.0032876

> <b_epik_Metal_Only>
0

> <s_epik_Chemistry_Notes>
This compound contains an acetal/aminal-like group ( X-CH(R)-Y where X, Y are N, S, or O) that may be acid/base labile, releasing an aldehyde.

> <s_lp_Force_Field>
OPLS_2005

> <r_lp_Energy>
39.1741

> <b_lp_Chiralities_Consistent>
1

> <s_lp_Variant>
AV-unprocessed.smi:35-23

> <Gold.Version>
5.8.1

> <Gold.Id.Protein>
6NUR|6NUR_protein|mol2

> <Gold.PLP.Fitness>
43.3601

> <Gold.PLP.PLP>
-27.4153

> <Gold.PLP.part.hbond>
-5.9453

> <Gold.PLP.part.metal>
0.0000

> <Gold.PLP.part.buried>
0.7187

> <Gold.PLP.part.nonpolar>
-20.5045

> <Gold.PLP.part.repulsive>
0.2167

> <Gold.PLP.ligand.clash>
0.0000

> <Gold.PLP.ligand.torsion>
0.1680

> <Gold.PLP.Chemscore.Hbond>
4.4065

> <Gold.PLP.Chemscore.CHOScore>
1.0000

> <Gold.PLP.Chemscore.Metal>
0.0000

> <Gold.Chemscore.Hbonds>
donor molecule, donor type, donor heavy atom, donor atom, acceptor molecule, acceptor atom, score
      L1  H    11    23       P1  8028  0.69
      L1  H    15    27       P1  7957  1.00
      P1  H  7989  7998       L1     5  0.52
      P1  H  7997  8009       L1     3  1.95
      P1  H  8011  8017       L1     8  0.01
      L1  C    16    28       P1  8028  1.00

> <Gold.PLP.Chemscore.Internal.Correction>
0.0613

> <Gold.Rescore>
     Score         DG    S(hbond)    S(metal)    S(lipo)     H(rot)  DE(clash)    DE(int)     intcor
      6.96      -7.72       2.04        0.00      40.21       3.63       0.62       0.15       ----

> <Gold.Chemscore.Fitness>
6.9573

> <Gold.Chemscore.DG>
-7.7239

> <Gold.Chemscore.ZeroCoef>
-5.4800

> <Gold.Chemscore.Hbond>
2.0424

> <Gold.Chemscore.Metal>
0.0000

> <Gold.Chemscore.Lipo>
40.2137

> <Gold.Chemscore.Internal_Hbond>
0.0000

> <Gold.Chemscore.DEClash>
0.6189

> <Gold.Chemscore.DEInternal>
0.1477

> <Gold.Chemscore.Rot>
3.6261

> <Gold.Chemscore.Internal.Correction>
   9.000000E+99

> <Gold.Chemscore.Hbonds>
donor molecule, donor type, donor heavy atom, donor atom, acceptor molecule, acceptor atom, score
      L1  H    11    23       P1  8028  0.12
      L1  H    15    27       P1  7957  0.94
      P1  H  7989  7998       L1     5  0.03
      P1  H  7997  8009       L1     3  0.64

> <Gold.Chemscore.Hbond.Weighted>
-6.8217

> <Gold.Chemscore.Metal.Weighted>
-0.0000

> <Gold.Chemscore.Lipo.Weighted>
-4.7050

> <Gold.Chemscore.Internal_Hbond.Weighted>
0.0000

> <Gold.Chemscore.DEClash.Weighted>
0.6189

> <Gold.Chemscore.DEInternal.Weighted>
0.1477

> <Gold.Chemscore.Rot.Weighted>
9.2828

> <Gold.Chemscore.Internal.Correction.Weighted>
   9.000000E+99

> <Gold.Protein.RotatedTorsions>
[ 6907 6896 6895 6894 ] final  122.47 input  -60.11 | X-H torsion
[ 7974 7965 7964 7962 ] final   67.78 input  175.53 | X-H torsion
[ 8008 7997 7996 7995 ] final -165.66 input   59.86 | X-H torsion
[ 10167 10162 10161 10158 ] final -102.60 input  -65.29 | X-H torsion
[ 10718 10713 10712 10709 ] final   31.29 input   66.30 | X-H torsion
[ 10763 10752 10751 10750 ] final   61.97 input  -60.55 | X-H torsion
[ 11005 11000 10999 10996 ] final  155.41 input  -57.11 | X-H torsion

> <Gold.Protein.ActiveResidues>
 VAL166  LYS551  ARG553  GLY616  TRP617  ASP618  TYR619  PRO620  LYS621  CYS622 
 ASP623  PHE694  ASN695  SER759  ASP760  ASP761  ALA762  ILE779  LEU786  VAL792 
 PHE793  MET794  SER795  GLU796  ALA797  LYS798  CYS799  TRP800  GLU811  SER814 

> <Gold.Protein.RotatedAtoms>
  152.4240  133.7164  159.6507 H   0  0  0  0  0  0  0  0  0  0  0  0  # atno 6907 bound_to 6896
  150.8116  133.8401  159.3185 H   0  0  0  0  0  0  0  0  0  0  0  0  # atno 6908 bound_to 6896
  151.6109  135.1042  160.0132 H   0  0  0  0  0  0  0  0  0  0  0  0  # atno 6909 bound_to 6896
  145.8105  139.3030  143.1102 H   0  0  0  0  0  0  0  0  0  0  0  0  # atno 7974 bound_to 7965
  155.8529  140.0966  157.1663 H   0  0  0  0  0  0  0  0  0  0  0  0  # atno 8008 bound_to 7997
  154.3986  140.1380  156.3928 H   0  0  0  0  0  0  0  0  0  0  0  0  # atno 8009 bound_to 7997
  155.7942  140.3455  155.5368 H   0  0  0  0  0  0  0  0  0  0  0  0  # atno 8010 bound_to 7997
  140.2289  143.3621  152.0904 H   0  0  0  0  0  0  0  0  0  0  0  0  # atno 10167 bound_to 10162
  157.2706  130.7206  149.6502 H   0  0  0  0  0  0  0  0  0  0  0  0  # atno 10718 bound_to 10713
  152.9967  135.5481  154.6119 H   0  0  0  0  0  0  0  0  0  0  0  0  # atno 10763 bound_to 10752
  154.5438  135.2821  155.1074 H   0  0  0  0  0  0  0  0  0  0  0  0  # atno 10764 bound_to 10752
  154.2341  135.6428  153.5237 H   0  0  0  0  0  0  0  0  0  0  0  0  # atno 10765 bound_to 10752
  140.1579  134.8630  157.2537 H   0  0  0  0  0  0  0  0  0  0  0  0  # atno 11005 bound_to 11000
  145.9782  140.8704  143.0128 LP  0  0  0  0  0  0  0  0  0  0  0  0  # atno 17320 bound_to 7965
  144.6758  140.2043  143.7384 LP  0  0  0  0  0  0  0  0  0  0  0  0  # atno 17321 bound_to 7965
  139.5117  144.6905  151.5773 LP  0  0  0  0  0  0  0  0  0  0  0  0  # atno 17342 bound_to 10162
  140.6200  143.9277  150.6518 LP  0  0  0  0  0  0  0  0  0  0  0  0  # atno 17343 bound_to 10162
  155.9663  130.4369  150.5152 LP  0  0  0  0  0  0  0  0  0  0  0  0  # atno 17370 bound_to 10713
  157.3076  131.0657  151.2024 LP  0  0  0  0  0  0  0  0  0  0  0  0  # atno 17371 bound_to 10713
  140.2525  134.3666  155.7436 LP  0  0  0  0  0  0  0  0  0  0  0  0  # atno 17394 bound_to 11000
  141.2206  133.7325  156.8958 LP  0  0  0  0  0  0  0  0  0  0  0  0  # atno 17395 bound_to 11000

$$$$
