AV-unprocessed.smi:47|AV-procd|sdf|423|dock3
  -GOLD-   2262016303D 1   1.00000     0.00000
 Structure written by MMmdl.
 32 34  0  0  0  0  0  0  0  0  2 V2000
  149.7942  135.6586  154.4996 O   0  0  0  0  0  0  0  0  0  0  0  0
  150.3630  136.6855  155.2836 C   0  0  1  0  0  0  0  0  0  0  0  0
  151.2917  136.1387  156.3659 C   0  0  0  0  0  0  0  0  0  0  0  0
  152.2175  137.2435  156.6742 N   0  3  0  0  0  0  0  0  0  0  0  0
  152.2536  138.1678  155.5186 C   0  0  2  0  0  0  0  0  0  0  0  0
  151.8746  139.5577  155.9305 C   0  0  0  0  0  0  0  0  0  0  0  0
  150.9647  140.2467  155.2503 N   0  0  0  0  0  0  0  0  0  0  0  0
  150.8899  141.3884  155.9648 N   0  0  0  0  0  0  0  0  0  0  0  0
  151.7163  141.3344  157.0171 C   0  0  0  0  0  0  0  0  0  0  0  0
  151.8807  142.4016  158.0066 C   0  0  0  0  0  0  0  0  0  0  0  0
  152.4364  142.1218  159.2766 C   0  0  0  0  0  0  0  0  0  0  0  0
  152.5952  143.1476  160.2287 C   0  0  0  0  0  0  0  0  0  0  0  0
  152.2004  144.4630  159.9212 C   0  0  0  0  0  0  0  0  0  0  0  0
  151.6463  144.7520  158.6604 C   0  0  0  0  0  0  0  0  0  0  0  0
  151.4872  143.7270  157.7074 C   0  0  0  0  0  0  0  0  0  0  0  0
  152.3705  140.1727  157.0468 N   0  0  0  0  0  0  0  0  0  0  0  0
  151.2910  137.5849  154.4712 C   0  0  0  0  0  0  0  0  0  0  0  0
  149.5710  137.2820  155.7387 H   0  0  0  0  0  0  0  0  0  0  0  0
  153.2683  138.1852  155.1179 H   0  0  0  0  0  0  0  0  0  0  0  0
  150.2771  142.1516  155.7144 H   0  0  0  0  0  0  0  0  0  0  0  0
  149.5060  136.0276  153.6782 H   0  0  0  0  0  0  0  0  0  0  0  0
  150.7569  135.7983  157.2528 H   0  0  0  0  0  0  0  0  0  0  0  0
  151.8780  135.3029  155.9808 H   0  0  0  0  0  0  0  0  0  0  0  0
  151.8564  137.7571  157.4661 H   0  0  0  0  0  0  0  0  0  0  0  0
  152.7461  141.1200  159.5350 H   0  0  0  0  0  0  0  0  0  0  0  0
  153.0198  142.9247  161.1965 H   0  0  0  0  0  0  0  0  0  0  0  0
  152.3221  145.2494  160.6517 H   0  0  0  0  0  0  0  0  0  0  0  0
  151.3421  145.7610  158.4234 H   0  0  0  0  0  0  0  0  0  0  0  0
  151.0595  143.9715  156.7462 H   0  0  0  0  0  0  0  0  0  0  0  0
  151.8626  136.9729  153.7713 H   0  0  0  0  0  0  0  0  0  0  0  0
  150.7645  138.3416  153.8875 H   0  0  0  0  0  0  0  0  0  0  0  0
  153.1393  136.8914  156.8888 H   0  0  0  0  0  0  0  0  0  0  0  0
  1  2  1  0  0  0  0
  1 21  1  0  0  0  0
  2 18  1  0  0  0  0
  2 17  1  0  0  0  0
  2  3  1  0  0  0  0
  3  4  1  0  0  0  0
  3 22  1  0  0  0  0
  3 23  1  0  0  0  0
  4  5  1  0  0  0  0
  4 24  1  0  0  0  0
  4 32  1  0  0  0  0
  5 19  1  0  0  0  0
  5  6  1  0  0  0  0
  5 17  1  0  0  0  0
  6 16  1  0  0  0  0
  6  7  2  0  0  0  0
  7  8  1  0  0  0  0
  8 20  1  0  0  0  0
  8  9  1  0  0  0  0
  9 10  1  0  0  0  0
  9 16  2  0  0  0  0
 10 15  1  0  0  0  0
 10 11  2  0  0  0  0
 11 12  1  0  0  0  0
 11 25  1  0  0  0  0
 12 13  2  0  0  0  0
 12 26  1  0  0  0  0
 13 14  1  0  0  0  0
 13 27  1  0  0  0  0
 14 15  2  0  0  0  0
 14 28  1  0  0  0  0
 15 29  1  0  0  0  0
 17 30  1  0  0  0  0
 17 31  1  0  0  0  0
M  CHG  1   4   1
M  END
> <s_m_source_file>
AV-unprocessed.smi

> <i_m_source_file_index>
47

> <i_lp_mmshare_version>
43012

> <i_f3d_flags>
0

> <s_epik_input>
W09IXVtDQEhdMVtDSDJdW05IXVtDQEBIXShbQ0gyXTEpYzJuW25IXWMobjIpLWMzW2NIXVtjSF1bY0hdW2NIXVtjSF0z

> <s_epik_cmdline>
J2VwaWtfcHl0aG9uJywgJy1waCcsICc3LjAnLCAnLXRuJywgJzgnLCAnLW1hJywgJzIwMCcsICctbWV0YWxfYmluZGluZycsICctaW1hZScsICc8aW5maWxlLm1hZT4nLCAnLW9tYWUnLCAnPG91dGZpbGUubWFlPic=

> <r_lp_tautomer_probability>
0.948284

> <r_epik_Ionization_Penalty>
0.163822

> <r_epik_Ionization_Penalty_Charging>
0.0371552

> <r_epik_Ionization_Penalty_Neutral>
0.126667

> <r_epik_State_Penalty>
0.318338

> <r_epik_Charging_Adjusted_Penalty>
0.355493

> <i_epik_Tot_Q>
1

> <i_epik_Tot_abs_Q>
1

> <r_epik_Metal_State_Penalty>
0.81572

> <b_epik_Metal_Only>
0

> <s_lp_Force_Field>
OPLS_2005

> <r_lp_Energy>
24.5404

> <b_lp_Chiralities_Consistent>
1

> <s_lp_Variant>
AV-unprocessed.smi:47-1

> <Gold.Version>
5.8.1

> <Gold.Id.Protein>
6NUR|6NUR_protein|mol2

> <Gold.PLP.Fitness>
43.8609

> <Gold.PLP.PLP>
-35.7825

> <Gold.PLP.part.hbond>
-3.4114

> <Gold.PLP.part.metal>
0.0000

> <Gold.PLP.part.buried>
-4.1020

> <Gold.PLP.part.nonpolar>
-28.0638

> <Gold.PLP.part.repulsive>
0.3133

> <Gold.PLP.ligand.clash>
0.0000

> <Gold.PLP.ligand.torsion>
0.4683

> <Gold.PLP.Chemscore.Hbond>
3.0000

> <Gold.PLP.Chemscore.CHOScore>
0.0000

> <Gold.PLP.Chemscore.Metal>
0.0000

> <Gold.Chemscore.Hbonds>
donor molecule, donor type, donor heavy atom, donor atom, acceptor molecule, acceptor atom, score
      L1  H     1    21       P1  7948  1.00
      P1  H  7989  7998       L1     7  1.00
      P1  H  7997  8010       L1    16  0.98

> <Gold.PLP.Chemscore.Internal.Correction>
0.0150

> <Gold.Rescore>
     Score         DG    S(hbond)    S(metal)    S(lipo)     H(rot)  DE(clash)    DE(int)     intcor
     17.58     -18.40       1.79        0.00      92.14       1.50       0.35       0.47       ----

> <Gold.Chemscore.Fitness>
17.5763

> <Gold.Chemscore.DG>
-18.3968

> <Gold.Chemscore.ZeroCoef>
-5.4800

> <Gold.Chemscore.Hbond>
1.7865

> <Gold.Chemscore.Metal>
0.0000

> <Gold.Chemscore.Lipo>
92.1446

> <Gold.Chemscore.Internal_Hbond>
0.0000

> <Gold.Chemscore.DEClash>
0.3473

> <Gold.Chemscore.DEInternal>
0.4732

> <Gold.Chemscore.Rot>
1.4966

> <Gold.Chemscore.Internal.Correction>
   9.000000E+99

> <Gold.Chemscore.Hbonds>
donor molecule, donor type, donor heavy atom, donor atom, acceptor molecule, acceptor atom, score
      L1  H     1    21       P1  7948  0.50
      P1  H  7989  7998       L1     7  0.28
      P1  H  7997  8010       L1    16  0.22

> <Gold.Chemscore.Hbond.Weighted>
-5.9671

> <Gold.Chemscore.Metal.Weighted>
-0.0000

> <Gold.Chemscore.Lipo.Weighted>
-10.7809

> <Gold.Chemscore.Internal_Hbond.Weighted>
0.0000

> <Gold.Chemscore.DEClash.Weighted>
0.3473

> <Gold.Chemscore.DEInternal.Weighted>
0.4732

> <Gold.Chemscore.Rot.Weighted>
3.8312

> <Gold.Chemscore.Internal.Correction.Weighted>
   9.000000E+99

> <Gold.Protein.RotatedTorsions>
[ 6907 6896 6895 6894 ] final  118.17 input  -60.11 | X-H torsion
[ 7974 7965 7964 7962 ] final -162.51 input  175.53 | X-H torsion
[ 8008 7997 7996 7995 ] final   60.75 input   59.86 | X-H torsion
[ 10167 10162 10161 10158 ] final  -56.57 input  -65.29 | X-H torsion
[ 10718 10713 10712 10709 ] final  -29.35 input   66.30 | X-H torsion
[ 10763 10752 10751 10750 ] final    0.13 input  -60.55 | X-H torsion
[ 11005 11000 10999 10996 ] final   14.97 input  -57.11 | X-H torsion

> <Gold.Protein.ActiveResidues>
 VAL166  LYS551  ARG553  GLY616  TRP617  ASP618  TYR619  PRO620  LYS621  CYS622 
 ASP623  PHE694  ASN695  SER759  ASP760  ASP761  ALA762  ILE779  LEU786  VAL792 
 PHE793  MET794  SER795  GLU796  ALA797  LYS798  CYS799  TRP800  GLU811  SER814 

> <Gold.Protein.RotatedAtoms>
  152.4562  133.7727  159.6807 H   0  0  0  0  0  0  0  0  0  0  0  0  # atno 6907 bound_to 6896
  150.8489  133.7808  159.3039 H   0  0  0  0  0  0  0  0  0  0  0  0  # atno 6908 bound_to 6896
  151.5410  135.1071  159.9978 H   0  0  0  0  0  0  0  0  0  0  0  0  # atno 6909 bound_to 6896
  144.7355  140.3242  143.6165 H   0  0  0  0  0  0  0  0  0  0  0  0  # atno 7974 bound_to 7965
  155.5873  140.3492  155.4557 H   0  0  0  0  0  0  0  0  0  0  0  0  # atno 8008 bound_to 7997
  156.0328  140.1278  157.0265 H   0  0  0  0  0  0  0  0  0  0  0  0  # atno 8009 bound_to 7997
  154.4359  140.1040  156.6109 H   0  0  0  0  0  0  0  0  0  0  0  0  # atno 8010 bound_to 7997
  140.6309  143.2459  151.5243 H   0  0  0  0  0  0  0  0  0  0  0  0  # atno 10167 bound_to 10162
  156.4136  130.4413  149.7234 H   0  0  0  0  0  0  0  0  0  0  0  0  # atno 10718 bound_to 10713
  153.3246  135.6971  153.7000 H   0  0  0  0  0  0  0  0  0  0  0  0  # atno 10763 bound_to 10752
  153.5826  135.3495  155.2881 H   0  0  0  0  0  0  0  0  0  0  0  0  # atno 10764 bound_to 10752
  154.8605  135.4299  154.2420 H   0  0  0  0  0  0  0  0  0  0  0  0  # atno 10765 bound_to 10752
  140.4636  134.1103  155.7720 H   0  0  0  0  0  0  0  0  0  0  0  0  # atno 11005 bound_to 11000
  145.7538  139.1802  143.2306 LP  0  0  0  0  0  0  0  0  0  0  0  0  # atno 17320 bound_to 7965
  146.1040  140.7509  142.9535 LP  0  0  0  0  0  0  0  0  0  0  0  0  # atno 17321 bound_to 7965
  139.5523  144.2363  152.1553 LP  0  0  0  0  0  0  0  0  0  0  0  0  # atno 17342 bound_to 10162
  140.1606  144.5029  150.6635 LP  0  0  0  0  0  0  0  0  0  0  0  0  # atno 17343 bound_to 10162
  156.4203  130.7765  151.2782 LP  0  0  0  0  0  0  0  0  0  0  0  0  # atno 17370 bound_to 10713
  157.7507  131.0185  150.3627 LP  0  0  0  0  0  0  0  0  0  0  0  0  # atno 17371 bound_to 10713
  141.1610  133.8793  157.1848 LP  0  0  0  0  0  0  0  0  0  0  0  0  # atno 17394 bound_to 11000
  139.9930  135.0057  157.0018 LP  0  0  0  0  0  0  0  0  0  0  0  0  # atno 17395 bound_to 11000

$$$$
