AV-unprocessed.smi:1626|AV-procd|sdf|6508|dock6
  -GOLD-   22720 7173D 1   1.00000     0.00000
 Structure written by MMmdl.
 48 50  0  0  0  0  0  0  0  0  2 V2000
  152.9772  143.0357  161.3489 C   0  0  0  0  0  0  0  0  0  0  0  0
  152.4081  142.7334  159.9739 C   0  0  0  0  0  0  0  0  0  0  0  0
  152.8095  141.5531  159.3090 C   0  0  0  0  0  0  0  0  0  0  0  0
  152.3062  141.2362  158.0285 C   0  0  0  0  0  0  0  0  0  0  0  0
  152.5612  140.1527  157.2060 N   0  0  0  0  0  0  0  0  0  0  0  0
  151.7968  140.4285  156.1539 C   0  0  0  0  0  0  0  0  0  0  0  0
  151.0856  141.5720  156.1908 N   0  0  0  0  0  0  0  0  0  0  0  0
  150.1975  142.0833  155.1616 C   0  0  0  0  0  0  0  0  0  0  0  0
  149.1555  141.0426  154.7038 C   0  0  2  0  0  0  0  0  0  0  0  0
  149.8357  140.0621  153.9461 O   0  0  0  0  0  0  0  0  0  0  0  0
  148.0171  141.6435  153.8479 C   0  0  0  0  0  0  0  0  0  0  0  0
  147.0622  142.4456  154.6543 N   0  3  2  0  0  0  0  0  0  0  0  0
  146.3640  141.6281  155.6794 C   0  0  0  0  0  0  0  0  0  0  0  0
  145.4968  142.5080  156.5982 C   0  0  0  0  0  0  0  0  0  0  0  0
  144.4973  143.3624  155.8013 C   0  0  2  0  0  0  0  0  0  0  0  0
  143.4905  142.5396  155.2466 O   0  0  0  0  0  0  0  0  0  0  0  0
  145.2235  144.1370  154.6889 C   0  0  0  0  0  0  0  0  0  0  0  0
  146.0970  143.2126  153.8214 C   0  0  0  0  0  0  0  0  0  0  0  0
  151.3824  142.1396  157.4259 C   0  0  0  0  0  0  0  0  0  0  0  0
  150.9707  143.3141  158.0805 C   0  0  0  0  0  0  0  0  0  0  0  0
  151.4868  143.6177  159.3576 C   0  0  0  0  0  0  0  0  0  0  0  0
  151.0430  144.8931  160.0520 C   0  0  0  0  0  0  0  0  0  0  0  0
  153.6039  142.2191  161.7087 H   0  0  0  0  0  0  0  0  0  0  0  0
  152.1760  143.1840  162.0732 H   0  0  0  0  0  0  0  0  0  0  0  0
  153.5875  143.9386  161.3171 H   0  0  0  0  0  0  0  0  0  0  0  0
  153.5108  140.8791  159.7787 H   0  0  0  0  0  0  0  0  0  0  0  0
  151.7602  139.7653  155.3018 H   0  0  0  0  0  0  0  0  0  0  0  0
  149.6983  142.9744  155.5458 H   0  0  0  0  0  0  0  0  0  0  0  0
  150.8080  142.4062  154.3171 H   0  0  0  0  0  0  0  0  0  0  0  0
  148.7516  140.5520  155.5877 H   0  0  0  0  0  0  0  0  0  0  0  0
  149.4384  140.0019  153.0911 H   0  0  0  0  0  0  0  0  0  0  0  0
  148.4090  142.2801  153.0539 H   0  0  0  0  0  0  0  0  0  0  0  0
  147.4968  140.8271  153.3444 H   0  0  0  0  0  0  0  0  0  0  0  0
  145.7511  140.8707  155.1881 H   0  0  0  0  0  0  0  0  0  0  0  0
  147.0963  141.0962  156.2879 H   0  0  0  0  0  0  0  0  0  0  0  0
  144.9707  141.8885  157.3257 H   0  0  0  0  0  0  0  0  0  0  0  0
  146.1476  143.1665  157.1751 H   0  0  0  0  0  0  0  0  0  0  0  0
  144.0051  144.0655  156.4743 H   0  0  0  0  0  0  0  0  0  0  0  0
  143.3958  142.7523  154.3301 H   0  0  0  0  0  0  0  0  0  0  0  0
  144.5041  144.6694  154.0654 H   0  0  0  0  0  0  0  0  0  0  0  0
  145.8569  144.9015  155.1409 H   0  0  0  0  0  0  0  0  0  0  0  0
  146.6240  143.8166  153.0838 H   0  0  0  0  0  0  0  0  0  0  0  0
  145.4683  142.5194  153.2604 H   0  0  0  0  0  0  0  0  0  0  0  0
  150.2637  143.9773  157.6050 H   0  0  0  0  0  0  0  0  0  0  0  0
  150.3869  145.4860  159.4141 H   0  0  0  0  0  0  0  0  0  0  0  0
  151.9046  145.5097  160.3086 H   0  0  0  0  0  0  0  0  0  0  0  0
  150.4988  144.6593  160.9674 H   0  0  0  0  0  0  0  0  0  0  0  0
  147.6161  143.1180  155.1647 H   0  0  0  0  0  0  0  0  0  0  0  0
  1  2  1  0  0  0  0
  1 23  1  0  0  0  0
  1 24  1  0  0  0  0
  1 25  1  0  0  0  0
  2 21  1  0  0  0  0
  2  3  2  0  0  0  0
  3  4  1  0  0  0  0
  3 26  1  0  0  0  0
  4 19  2  0  0  0  0
  4  5  1  0  0  0  0
  5  6  2  0  0  0  0
  6  7  1  0  0  0  0
  6 27  1  0  0  0  0
  7  8  1  0  0  0  0
  7 19  1  0  0  0  0
  8  9  1  0  0  0  0
  8 28  1  0  0  0  0
  8 29  1  0  0  0  0
  9 10  1  0  0  0  0
  9 11  1  0  0  0  0
  9 30  1  0  0  0  0
 10 31  1  0  0  0  0
 11 12  1  0  0  0  0
 11 32  1  0  0  0  0
 11 33  1  0  0  0  0
 12 18  1  0  0  0  0
 12 13  1  0  0  0  0
 12 48  1  0  0  0  0
 13 14  1  0  0  0  0
 13 34  1  0  0  0  0
 13 35  1  0  0  0  0
 14 15  1  0  0  0  0
 14 36  1  0  0  0  0
 14 37  1  0  0  0  0
 15 16  1  0  0  0  0
 15 17  1  0  0  0  0
 15 38  1  0  0  0  0
 16 39  1  0  0  0  0
 17 18  1  0  0  0  0
 17 40  1  0  0  0  0
 17 41  1  0  0  0  0
 18 42  1  0  0  0  0
 18 43  1  0  0  0  0
 19 20  1  0  0  0  0
 20 21  2  0  0  0  0
 20 44  1  0  0  0  0
 21 22  1  0  0  0  0
 22 45  1  0  0  0  0
 22 46  1  0  0  0  0
 22 47  1  0  0  0  0
M  CHG  1  12   1
M  END
> <s_m_source_file>
AV-unprocessed.smi

> <i_m_source_file_index>
1626

> <i_lp_mmshare_version>
43012

> <i_f3d_flags>
0

> <s_epik_input>
W0NIM11jKFtjSF0xKWMoW0NIM10pW2NIXWMoYzEyKW4oW2NIXW4yKVtDSDJdW0NASF0oW09IXSlbQ0gyXU4zW0NIMl1bQ0gyXVtDSF0oW09IXSlbQ0gyXVtDSDJdMw==

> <s_epik_cmdline>
J2VwaWtfcHl0aG9uJywgJy1waCcsICc3LjAnLCAnLXRuJywgJzgnLCAnLW1hJywgJzIwMCcsICctbWV0YWxfYmluZGluZycsICctaW1hZScsICc8aW5maWxlLm1hZT4nLCAnLW9tYWUnLCAnPG91dGZpbGUubWFlPic=

> <r_epik_Ionization_Penalty>
0.106584

> <r_epik_Ionization_Penalty_Charging>
0.0185694

> <r_epik_Ionization_Penalty_Neutral>
0.0880147

> <r_epik_State_Penalty>
0.0908428

> <r_epik_Charging_Adjusted_Penalty>
0.109412

> <i_epik_Tot_Q>
1

> <i_epik_Tot_abs_Q>
1

> <r_epik_Metal_State_Penalty>
0.0153739

> <b_epik_Metal_Only>
0

> <s_lp_Force_Field>
OPLS_2005

> <r_lp_Energy>
24.9536

> <b_lp_Chiralities_Consistent>
1

> <s_lp_Variant>
AV-unprocessed.smi:1626-3

> <Gold.Version>
5.8.1

> <Gold.Id.Protein>
6NUR|6NUR_protein|mol2

> <Gold.PLP.Fitness>
60.7436

> <Gold.PLP.PLP>
-45.9133

> <Gold.PLP.part.hbond>
-5.1961

> <Gold.PLP.part.metal>
0.0000

> <Gold.PLP.part.buried>
-3.6751

> <Gold.PLP.part.nonpolar>
-33.5123

> <Gold.PLP.part.repulsive>
0.1252

> <Gold.PLP.ligand.clash>
0.8083

> <Gold.PLP.ligand.torsion>
0.2472

> <Gold.PLP.Chemscore.Hbond>
5.3689

> <Gold.PLP.Chemscore.CHOScore>
0.0000

> <Gold.PLP.Chemscore.Metal>
0.0000

> <Gold.Chemscore.Hbonds>
donor molecule, donor type, donor heavy atom, donor atom, acceptor molecule, acceptor atom, score
      L1  H    10    31       P1  7957  0.99
      L1  H    12    48       P1  8028  1.82
      L1  H    16    39       P1 10174  0.26
      P1  H  7989  7998       L1    10  0.82
      P1  H  7997  8010       L1     5  1.00

> <Gold.PLP.Chemscore.Internal.Correction>
0.0264

> <Gold.Rescore>
     Score         DG    S(hbond)    S(metal)    S(lipo)     H(rot)  DE(clash)    DE(int)     intcor
     17.63     -19.80       2.09        0.00     121.18       2.67       0.77       1.40       ----

> <Gold.Chemscore.Fitness>
17.6319

> <Gold.Chemscore.DG>
-19.8033

> <Gold.Chemscore.ZeroCoef>
-5.4800

> <Gold.Chemscore.Hbond>
2.0909

> <Gold.Chemscore.Metal>
0.0000

> <Gold.Chemscore.Lipo>
121.1784

> <Gold.Chemscore.Internal_Hbond>
0.0000

> <Gold.Chemscore.DEClash>
0.7730

> <Gold.Chemscore.DEInternal>
1.3984

> <Gold.Chemscore.Rot>
2.6712

> <Gold.Chemscore.Internal.Correction>
   9.000000E+99

> <Gold.Chemscore.Hbonds>
donor molecule, donor type, donor heavy atom, donor atom, acceptor molecule, acceptor atom, score
      L1  H    10    31       P1  7957  0.93
      L1  H    12    48       P1  8028  0.39
      L1  H    16    39       P1 10174  0.08
      P1  H  7989  7998       L1    10  0.11
      P1  H  7997  8010       L1     5  0.45

> <Gold.Chemscore.Hbond.Weighted>
-6.9838

> <Gold.Chemscore.Metal.Weighted>
-0.0000

> <Gold.Chemscore.Lipo.Weighted>
-14.1779

> <Gold.Chemscore.Internal_Hbond.Weighted>
0.0000

> <Gold.Chemscore.DEClash.Weighted>
0.7730

> <Gold.Chemscore.DEInternal.Weighted>
1.3984

> <Gold.Chemscore.Rot.Weighted>
6.8383

> <Gold.Chemscore.Internal.Correction.Weighted>
   9.000000E+99

> <Gold.Protein.RotatedTorsions>
[ 6907 6896 6895 6894 ] final  -53.44 input  -60.11 | X-H torsion
[ 7974 7965 7964 7962 ] final -165.70 input  175.53 | X-H torsion
[ 8008 7997 7996 7995 ] final   64.59 input   59.86 | X-H torsion
[ 10167 10162 10161 10158 ] final   38.85 input  -65.29 | X-H torsion
[ 10718 10713 10712 10709 ] final -136.41 input   66.30 | X-H torsion
[ 10763 10752 10751 10750 ] final  -84.16 input  -60.55 | X-H torsion
[ 11005 11000 10999 10996 ] final   12.98 input  -57.11 | X-H torsion

> <Gold.Protein.ActiveResidues>
 VAL166  LYS551  ARG553  GLY616  TRP617  ASP618  TYR619  PRO620  LYS621  CYS622 
 ASP623  PHE694  ASN695  SER759  ASP760  ASP761  ALA762  ILE779  LEU786  VAL792 
 PHE793  MET794  SER795  GLU796  ALA797  LYS798  CYS799  TRP800  GLU811  SER814 

> <Gold.Protein.RotatedAtoms>
  150.8427  134.7725  159.6945 H   0  0  0  0  0  0  0  0  0  0  0  0  # atno 6907 bound_to 6896
  152.4511  134.5389  159.9843 H   0  0  0  0  0  0  0  0  0  0  0  0  # atno 6908 bound_to 6896
  151.5525  133.3377  159.2991 H   0  0  0  0  0  0  0  0  0  0  0  0  # atno 6909 bound_to 6896
  144.7263  140.2775  143.6241 H   0  0  0  0  0  0  0  0  0  0  0  0  # atno 7974 bound_to 7965
  155.6485  140.3497  155.4740 H   0  0  0  0  0  0  0  0  0  0  0  0  # atno 8008 bound_to 7997
  155.9867  140.1185  157.0699 H   0  0  0  0  0  0  0  0  0  0  0  0  # atno 8009 bound_to 7997
  154.4207  140.1127  156.5496 H   0  0  0  0  0  0  0  0  0  0  0  0  # atno 8010 bound_to 7997
  140.3897  144.1869  150.6131 H   0  0  0  0  0  0  0  0  0  0  0  0  # atno 10167 bound_to 10162
  156.2767  130.7297  151.1282 H   0  0  0  0  0  0  0  0  0  0  0  0  # atno 10718 bound_to 10713
  154.5962  135.5530  153.7328 H   0  0  0  0  0  0  0  0  0  0  0  0  # atno 10763 bound_to 10752
  153.0136  135.6355  154.1779 H   0  0  0  0  0  0  0  0  0  0  0  0  # atno 10764 bound_to 10752
  154.1719  135.2891  155.3058 H   0  0  0  0  0  0  0  0  0  0  0  0  # atno 10765 bound_to 10752
  140.4859  134.0889  155.7760 H   0  0  0  0  0  0  0  0  0  0  0  0  # atno 11005 bound_to 11000
  145.7982  139.1954  143.2063 LP  0  0  0  0  0  0  0  0  0  0  0  0  # atno 17320 bound_to 7965
  146.0699  140.7881  142.9693 LP  0  0  0  0  0  0  0  0  0  0  0  0  # atno 17321 bound_to 7965
  140.4852  143.2365  151.8897 LP  0  0  0  0  0  0  0  0  0  0  0  0  # atno 17342 bound_to 10162
  139.4790  144.5226  151.8780 LP  0  0  0  0  0  0  0  0  0  0  0  0  # atno 17343 bound_to 10162
  157.7301  131.0618  150.5740 LP  0  0  0  0  0  0  0  0  0  0  0  0  # atno 17370 bound_to 10713
  156.5841  130.4312  149.5964 LP  0  0  0  0  0  0  0  0  0  0  0  0  # atno 17371 bound_to 10713
  141.1508  133.8972  157.2102 LP  0  0  0  0  0  0  0  0  0  0  0  0  # atno 17394 bound_to 11000
  139.9798  135.0102  156.9722 LP  0  0  0  0  0  0  0  0  0  0  0  0  # atno 17395 bound_to 11000

$$$$
