AV-unprocessed.smi:54|AV-procd|sdf|539|dock6
  -GOLD-   2262016423D 1   1.00000     0.00000
 Structure written by MMmdl.
 44 46  0  0  0  0  0  0  0  0  1 V2000
  152.0902  145.0564  159.5464 C   0  0  0  0  0  0  0  0  0  0  0  0
  151.7696  143.8439  160.4356 C   0  0  0  0  0  0  0  0  0  0  0  0
  152.5387  143.9079  161.7650 C   0  0  0  0  0  0  0  0  0  0  0  0
  152.0773  142.5356  159.6980 C   0  0  0  0  0  0  0  0  0  0  0  0
  153.0386  141.8273  159.9998 O   0  0  0  0  0  0  0  0  0  0  0  0
  151.1562  142.1933  158.6288 N   0  0  0  0  0  0  0  0  0  0  0  0
  151.1935  141.1042  157.8261 C   0  0  0  0  0  0  0  0  0  0  0  0
  150.1805  140.7341  157.0559 N   0  0  0  0  0  0  0  0  0  0  0  0
  150.4099  139.6065  156.3181 C   0  0  0  0  0  0  0  0  0  0  0  0
  151.5599  138.8463  156.3116 C   0  0  0  0  0  0  0  0  0  0  0  0
  151.4206  137.7752  155.4360 N   0  0  0  0  0  0  0  0  0  0  0  0
  150.2200  137.9191  154.9476 C   0  0  0  0  0  0  0  0  0  0  0  0
  149.5418  139.0169  155.4255 N   0  0  0  0  0  0  0  0  0  0  0  0
  148.1632  139.5098  155.1021 C   0  0  2  0  0  0  0  0  0  0  0  0
  147.5213  138.5424  154.3262 O   0  0  0  0  0  0  0  0  0  0  0  0
  147.5153  138.9497  152.9645 C   0  0  1  0  0  0  0  0  0  0  0  0
  146.4588  138.1747  152.1590 C   0  0  0  0  0  0  0  0  0  0  0  0
  146.7364  138.2636  150.7780 O   0  0  0  0  0  0  0  0  0  0  0  0
  147.3451  140.4714  153.0586 C   0  0  1  0  0  0  0  0  0  0  0  0
  145.9897  140.8239  153.2639 O   0  0  0  0  0  0  0  0  0  0  0  0
  148.1796  140.8265  154.2836 C   0  0  2  0  0  0  0  0  0  0  0  0
  149.4736  141.2418  153.8778 O   0  0  0  0  0  0  0  0  0  0  0  0
  152.6630  139.2297  157.1442 C   0  0  0  0  0  0  0  0  0  0  0  0
  153.7537  138.6764  157.2662 O   0  0  0  0  0  0  0  0  0  0  0  0
  152.3907  140.3900  157.8809 N   0  0  0  0  0  0  0  0  0  0  0  0
  147.6698  139.6022  156.0705 H   0  0  0  0  0  0  0  0  0  0  0  0
  148.5027  138.7346  152.5522 H   0  0  0  0  0  0  0  0  0  0  0  0
  147.6889  140.9752  152.1540 H   0  0  0  0  0  0  0  0  0  0  0  0
  147.7306  141.6294  154.8702 H   0  0  0  0  0  0  0  0  0  0  0  0
  151.5510  145.0082  158.5993 H   0  0  0  0  0  0  0  0  0  0  0  0
  153.1555  145.1191  159.3208 H   0  0  0  0  0  0  0  0  0  0  0  0
  151.8025  145.9858  160.0385 H   0  0  0  0  0  0  0  0  0  0  0  0
  150.7025  143.8649  160.6616 H   0  0  0  0  0  0  0  0  0  0  0  0
  152.3108  143.0485  162.3969 H   0  0  0  0  0  0  0  0  0  0  0  0
  152.2736  144.8047  162.3256 H   0  0  0  0  0  0  0  0  0  0  0  0
  153.6174  143.9266  161.6043 H   0  0  0  0  0  0  0  0  0  0  0  0
  150.3945  142.8385  158.4806 H   0  0  0  0  0  0  0  0  0  0  0  0
  149.8059  137.2284  154.2280 H   0  0  0  0  0  0  0  0  0  0  0  0
  146.4750  137.1228  152.4449 H   0  0  0  0  0  0  0  0  0  0  0  0
  145.4511  138.5405  152.3571 H   0  0  0  0  0  0  0  0  0  0  0  0
  145.9203  138.3758  150.3144 H   0  0  0  0  0  0  0  0  0  0  0  0
  145.4498  140.2441  152.7483 H   0  0  0  0  0  0  0  0  0  0  0  0
  149.6264  140.9286  152.9995 H   0  0  0  0  0  0  0  0  0  0  0  0
  153.1256  140.7204  158.4885 H   0  0  0  0  0  0  0  0  0  0  0  0
  1  2  1  0  0  0  0
  1 30  1  0  0  0  0
  1 31  1  0  0  0  0
  1 32  1  0  0  0  0
  2  3  1  0  0  0  0
  2  4  1  0  0  0  0
  2 33  1  0  0  0  0
  3 34  1  0  0  0  0
  3 35  1  0  0  0  0
  3 36  1  0  0  0  0
  4  5  2  0  0  0  0
  4  6  1  0  0  0  0
  6 37  1  0  0  0  0
  6  7  1  0  0  0  0
  7 25  1  0  0  0  0
  7  8  2  0  0  0  0
  8  9  1  0  0  0  0
  9 13  1  0  0  0  0
  9 10  2  0  0  0  0
 10 11  1  0  0  0  0
 10 23  1  0  0  0  0
 11 12  2  0  0  0  0
 12 13  1  0  0  0  0
 12 38  1  0  0  0  0
 13 14  1  0  0  0  0
 14 26  1  0  0  0  0
 14 21  1  0  0  0  0
 14 15  1  0  0  0  0
 15 16  1  0  0  0  0
 16 27  1  0  0  0  0
 16 17  1  0  0  0  0
 16 19  1  0  0  0  0
 17 18  1  0  0  0  0
 17 39  1  0  0  0  0
 17 40  1  0  0  0  0
 18 41  1  0  0  0  0
 19 28  1  0  0  0  0
 19 20  1  0  0  0  0
 19 21  1  0  0  0  0
 20 42  1  0  0  0  0
 21 29  1  0  0  0  0
 21 22  1  0  0  0  0
 22 43  1  0  0  0  0
 23 24  2  0  0  0  0
 23 25  1  0  0  0  0
 25 44  1  0  0  0  0
M  END
> <s_m_source_file>
AV-unprocessed.smi

> <i_m_source_file_index>
54

> <i_lp_mmshare_version>
43012

> <i_f3d_flags>
0

> <s_epik_input>
W0NIM11bQ0hdKFtDSDNdKUMoPU8pW05IXWMobjEpW25IXWMoPU8pYyhjMTIpbltjSF1uMltDQEBIXTNPW0NASF0oW0NIMl1bT0hdKVtDQEBIXShbT0hdKVtDQEhdM1tPSF0=

> <s_epik_cmdline>
J2VwaWtfcHl0aG9uJywgJy1waCcsICc3LjAnLCAnLXRuJywgJzgnLCAnLW1hJywgJzIwMCcsICctbWV0YWxfYmluZGluZycsICctaW1hZScsICc8aW5maWxlLm1hZT4nLCAnLW9tYWUnLCAnPG91dGZpbGUubWFlPic=

> <r_lp_tautomer_probability>
0.85571

> <r_epik_Ionization_Penalty>
0.0316551

> <r_epik_Ionization_Penalty_Charging>
0.0316043

> <r_epik_Ionization_Penalty_Neutral>
5.07097e-05

> <r_epik_State_Penalty>
3.15494e-07

> <r_epik_Charging_Adjusted_Penalty>
0.0316047

> <i_epik_Tot_Q>
0

> <i_epik_Tot_abs_Q>
0

> <r_epik_Metal_State_Penalty>
0.421206

> <b_epik_Metal_Only>
0

> <s_epik_Chemistry_Notes>
This compound contains an acetal/aminal-like group ( X-CH(R)-Y where X, Y are N, S, or O) that may be acid/base labile, releasing an aldehyde.

> <s_lp_Force_Field>
OPLS_2005

> <r_lp_Energy>
38.2372

> <b_lp_Chiralities_Consistent>
1

> <s_lp_Variant>
AV-unprocessed.smi:54-11

> <Gold.Version>
5.8.1

> <Gold.Id.Protein>
6NUR|6NUR_protein|mol2

> <Gold.PLP.Fitness>
52.1242

> <Gold.PLP.PLP>
-37.8430

> <Gold.PLP.part.hbond>
-6.4372

> <Gold.PLP.part.metal>
0.0000

> <Gold.PLP.part.buried>
-0.8240

> <Gold.PLP.part.nonpolar>
-31.3353

> <Gold.PLP.part.repulsive>
0.4186

> <Gold.PLP.ligand.clash>
0.0000

> <Gold.PLP.ligand.torsion>
0.7252

> <Gold.PLP.Chemscore.Hbond>
4.2288

> <Gold.PLP.Chemscore.CHOScore>
0.9975

> <Gold.PLP.Chemscore.Metal>
0.0000

> <Gold.Chemscore.Hbonds>
donor molecule, donor type, donor heavy atom, donor atom, acceptor molecule, acceptor atom, score
      L1  H    18    41       P1 10171  0.83
      L1  H    20    42       P1 10175  0.48
      L1  H    22    43       P1  7957  0.99
      P1  H  7954  7966       L1    18  1.00
      P1  H  7997  8010       L1    24  0.67
      L1  C    12    38       P1  7948  0.64

> <Gold.PLP.Chemscore.Internal.Correction>
0.0529

> <Gold.Rescore>
     Score         DG    S(hbond)    S(metal)    S(lipo)     H(rot)  DE(clash)    DE(int)     intcor
     14.53     -16.35       3.94        0.00      69.00       4.05       1.23       0.59       ----

> <Gold.Chemscore.Fitness>
14.5326

> <Gold.Chemscore.DG>
-16.3488

> <Gold.Chemscore.ZeroCoef>
-5.4800

> <Gold.Chemscore.Hbond>
3.9406

> <Gold.Chemscore.Metal>
0.0000

> <Gold.Chemscore.Lipo>
69.0042

> <Gold.Chemscore.Internal_Hbond>
0.0000

> <Gold.Chemscore.DEClash>
1.2261

> <Gold.Chemscore.DEInternal>
0.5902

> <Gold.Chemscore.Rot>
4.0493

> <Gold.Chemscore.Internal.Correction>
   9.000000E+99

> <Gold.Chemscore.Hbonds>
donor molecule, donor type, donor heavy atom, donor atom, acceptor molecule, acceptor atom, score
      L1  H    18    41       P1 10171  0.82
      L1  H    20    42       P1 10175  0.44
      L1  H    22    43       P1  7957  0.92
      P1  H  7954  7966       L1    18  0.93
      P1  H  7997  8010       L1    24  0.07

> <Gold.Chemscore.Hbond.Weighted>
-13.1615

> <Gold.Chemscore.Metal.Weighted>
-0.0000

> <Gold.Chemscore.Lipo.Weighted>
-8.0735

> <Gold.Chemscore.Internal_Hbond.Weighted>
0.0000

> <Gold.Chemscore.DEClash.Weighted>
1.2261

> <Gold.Chemscore.DEInternal.Weighted>
0.5902

> <Gold.Chemscore.Rot.Weighted>
10.3662

> <Gold.Chemscore.Internal.Correction.Weighted>
   9.000000E+99

> <Gold.Protein.RotatedTorsions>
[ 6907 6896 6895 6894 ] final   19.52 input  -60.11 | X-H torsion
[ 7974 7965 7964 7962 ] final   63.28 input  175.53 | X-H torsion
[ 8008 7997 7996 7995 ] final   36.25 input   59.86 | X-H torsion
[ 10167 10162 10161 10158 ] final  -84.61 input  -65.29 | X-H torsion
[ 10718 10713 10712 10709 ] final  -63.75 input   66.30 | X-H torsion
[ 10763 10752 10751 10750 ] final -131.22 input  -60.55 | X-H torsion
[ 11005 11000 10999 10996 ] final  -45.44 input  -57.11 | X-H torsion

> <Gold.Protein.ActiveResidues>
 VAL166  LYS551  ARG553  GLY616  TRP617  ASP618  TYR619  PRO620  LYS621  CYS622 
 ASP623  PHE694  ASN695  SER759  ASP760  ASP761  ALA762  ILE779  LEU786  VAL792 
 PHE793  MET794  SER795  GLU796  ALA797  LYS798  CYS799  TRP800  GLU811  SER814 

> <Gold.Protein.RotatedAtoms>
  151.8822  135.0449  160.0489 H   0  0  0  0  0  0  0  0  0  0  0  0  # atno 6907 bound_to 6896
  152.2504  133.5205  159.5330 H   0  0  0  0  0  0  0  0  0  0  0  0  # atno 6908 bound_to 6896
  150.7082  134.0885  159.3965 H   0  0  0  0  0  0  0  0  0  0  0  0  # atno 6909 bound_to 6896
  145.8637  139.3332  143.0804 H   0  0  0  0  0  0  0  0  0  0  0  0  # atno 7974 bound_to 7965
  155.1843  140.3302  155.4369 H   0  0  0  0  0  0  0  0  0  0  0  0  # atno 8008 bound_to 7997
  156.2465  140.1921  156.6890 H   0  0  0  0  0  0  0  0  0  0  0  0  # atno 8009 bound_to 7997
  154.6249  140.0590  156.9647 H   0  0  0  0  0  0  0  0  0  0  0  0  # atno 8010 bound_to 7997
  140.4116  143.2620  151.9009 H   0  0  0  0  0  0  0  0  0  0  0  0  # atno 10167 bound_to 10162
  156.0772  130.4224  150.1321 H   0  0  0  0  0  0  0  0  0  0  0  0  # atno 10718 bound_to 10713
  154.8752  135.3837  154.4211 H   0  0  0  0  0  0  0  0  0  0  0  0  # atno 10763 bound_to 10752
  153.4915  135.7030  153.5887 H   0  0  0  0  0  0  0  0  0  0  0  0  # atno 10764 bound_to 10752
  153.4258  135.3890  155.2107 H   0  0  0  0  0  0  0  0  0  0  0  0  # atno 10765 bound_to 10752
  141.0515  133.6741  156.3013 H   0  0  0  0  0  0  0  0  0  0  0  0  # atno 11005 bound_to 11000
  145.9218  140.9110  143.0401 LP  0  0  0  0  0  0  0  0  0  0  0  0  # atno 17320 bound_to 7965
  144.6726  140.1299  143.7444 LP  0  0  0  0  0  0  0  0  0  0  0  0  # atno 17321 bound_to 7965
  139.4782  144.5530  151.8356 LP  0  0  0  0  0  0  0  0  0  0  0  0  # atno 17342 bound_to 10162
  140.4631  144.1693  150.5908 LP  0  0  0  0  0  0  0  0  0  0  0  0  # atno 17343 bound_to 10162
  156.9360  130.9729  151.3524 LP  0  0  0  0  0  0  0  0  0  0  0  0  # atno 17370 bound_to 10713
  157.5872  130.8418  149.8607 LP  0  0  0  0  0  0  0  0  0  0  0  0  # atno 17371 bound_to 10713
  140.6045  134.5521  157.5523 LP  0  0  0  0  0  0  0  0  0  0  0  0  # atno 17394 bound_to 11000
  139.9355  134.7884  156.0816 LP  0  0  0  0  0  0  0  0  0  0  0  0  # atno 17395 bound_to 11000

$$$$
