AV-unprocessed.smi:2303|AV-procd|sdf|9242|dock1
  -GOLD-   2272012463D 1   1.00000     0.00000
 Structure written by MMmdl.
 33 34  0  0  0  0  0  0  0  0  1 V2000
  147.1720  141.5350  153.9102 C   0  0  0  0  0  0  0  0  0  0  0  0
  148.4219  140.6368  153.8945 C   0  0  0  0  0  0  0  0  0  0  0  0
  148.0222  139.1551  153.7783 C   0  0  0  0  0  0  0  0  0  0  0  0
  149.3669  140.8770  155.0726 C   0  0  0  0  0  0  0  0  0  0  0  0
  149.1444  141.6874  156.1273 C   0  0  0  0  0  0  0  0  0  0  0  0
  150.1579  141.8004  157.1620 C   0  0  0  0  0  0  0  0  0  0  0  0
  149.8633  142.6319  158.3300 C   0  0  0  0  0  0  0  0  0  0  0  0
  148.7315  142.7465  158.8011 O   0  0  0  0  0  0  0  0  0  0  0  0
  150.9103  143.2870  158.8810 N   0  0  0  0  0  0  0  0  0  0  0  0
  150.8829  144.2253  159.9952 C   0  0  0  0  0  0  0  0  0  0  0  0
  152.2041  144.9642  159.8825 C   0  0  0  0  0  0  0  0  0  0  0  0
  152.5233  144.8378  158.4014 C   0  0  0  0  0  0  0  0  0  0  0  0
  152.0469  143.5410  158.0858 O   0  0  0  0  0  0  0  0  0  0  0  0
  151.2981  141.0717  157.0702 C   0  0  0  0  0  0  0  0  0  0  0  0
  151.5575  140.2021  155.9206 C   0  0  0  0  0  0  0  0  0  0  0  0
  152.5854  139.5435  155.7816 O   0  0  0  0  0  0  0  0  0  0  0  0
  150.5716  140.1619  154.9948 N   0  0  0  0  0  0  0  0  0  0  0  0
  147.4417  142.5913  153.9272 H   0  0  0  0  0  0  0  0  0  0  0  0
  146.5431  141.3311  154.7777 H   0  0  0  0  0  0  0  0  0  0  0  0
  146.5644  141.3719  153.0197 H   0  0  0  0  0  0  0  0  0  0  0  0
  148.9851  140.8942  152.9962 H   0  0  0  0  0  0  0  0  0  0  0  0
  148.8899  138.5089  153.6436 H   0  0  0  0  0  0  0  0  0  0  0  0
  147.3655  138.9926  152.9232 H   0  0  0  0  0  0  0  0  0  0  0  0
  147.4924  138.8194  154.6704 H   0  0  0  0  0  0  0  0  0  0  0  0
  148.2267  142.2507  156.2117 H   0  0  0  0  0  0  0  0  0  0  0  0
  150.0445  144.9145  159.8806 H   0  0  0  0  0  0  0  0  0  0  0  0
  150.7804  143.7111  160.9514 H   0  0  0  0  0  0  0  0  0  0  0  0
  152.1483  145.9989  160.2218 H   0  0  0  0  0  0  0  0  0  0  0  0
  152.9674  144.4522  160.4700 H   0  0  0  0  0  0  0  0  0  0  0  0
  151.9697  145.5774  157.8209 H   0  0  0  0  0  0  0  0  0  0  0  0
  153.5855  144.9458  158.1811 H   0  0  0  0  0  0  0  0  0  0  0  0
  152.0390  141.1083  157.8561 H   0  0  0  0  0  0  0  0  0  0  0  0
  150.6984  139.5741  154.1837 H   0  0  0  0  0  0  0  0  0  0  0  0
  1  2  1  0  0  0  0
  1 18  1  0  0  0  0
  1 19  1  0  0  0  0
  1 20  1  0  0  0  0
  2  3  1  0  0  0  0
  2 21  1  0  0  0  0
  2  4  1  0  0  0  0
  3 22  1  0  0  0  0
  3 23  1  0  0  0  0
  3 24  1  0  0  0  0
  4 17  1  0  0  0  0
  4  5  2  0  0  0  0
  5 25  1  0  0  0  0
  5  6  1  0  0  0  0
  6  7  1  0  0  0  0
  6 14  2  0  0  0  0
  7  8  2  0  0  0  0
  7  9  1  0  0  0  0
  9 13  1  0  0  0  0
  9 10  1  0  0  0  0
 10 11  1  0  0  0  0
 10 26  1  0  0  0  0
 10 27  1  0  0  0  0
 11 12  1  0  0  0  0
 11 28  1  0  0  0  0
 11 29  1  0  0  0  0
 12 13  1  0  0  0  0
 12 30  1  0  0  0  0
 12 31  1  0  0  0  0
 14 15  1  0  0  0  0
 14 32  1  0  0  0  0
 15 16  2  0  0  0  0
 15 17  1  0  0  0  0
 17 33  1  0  0  0  0
M  END
> <s_m_source_file>
AV-unprocessed.smi

> <i_m_source_file_index>
2303

> <i_lp_mmshare_version>
43012

> <i_f3d_flags>
0

> <s_epik_input>
W0NIM11bQ0hdKFtDSDNdKWMxW2NIXWMoW2NIXWMobjEpW09IXSlDKD1PKU4yW0NIMl1bQ0gyXVtDSDJdTzI=

> <s_epik_cmdline>
J2VwaWtfcHl0aG9uJywgJy1waCcsICc3LjAnLCAnLXRuJywgJzgnLCAnLW1hJywgJzIwMCcsICctbWV0YWxfYmluZGluZycsICctaW1hZScsICc8aW5maWxlLm1hZT4nLCAnLW9tYWUnLCAnPG91dGZpbGUubWFlPic=

> <r_lp_tautomer_probability>
1

> <r_epik_Ionization_Penalty>
8.70942e-05

> <r_epik_Ionization_Penalty_Charging>
8.7046e-05

> <r_epik_Ionization_Penalty_Neutral>
4.82304e-08

> <r_epik_State_Penalty>
-0

> <r_epik_Charging_Adjusted_Penalty>
8.7046e-05

> <i_epik_Tot_Q>
0

> <i_epik_Tot_abs_Q>
0

> <r_epik_Metal_State_Penalty>
0.0811253

> <b_epik_Metal_Only>
0

> <s_epik_Chemistry_Notes>
This compound has a N-S or N-O group and may undergo hydrolysis at high or low pH.

> <s_lp_Force_Field>
OPLS_2005

> <r_lp_Energy>
27.1372

> <b_lp_Chiralities_Consistent>
1

> <s_lp_Variant>
AV-unprocessed.smi:2303-1

> <Gold.Version>
5.8.1

> <Gold.Id.Protein>
6NUR|6NUR_protein|mol2

> <Gold.PLP.Fitness>
37.2113

> <Gold.PLP.PLP>
-34.3201

> <Gold.PLP.part.hbond>
-1.3846

> <Gold.PLP.part.metal>
0.0000

> <Gold.PLP.part.buried>
-3.5113

> <Gold.PLP.part.nonpolar>
-29.5261

> <Gold.PLP.part.repulsive>
1.5631

> <Gold.PLP.ligand.clash>
0.0000

> <Gold.PLP.ligand.torsion>
0.6635

> <Gold.PLP.Chemscore.Hbond>
1.0000

> <Gold.PLP.Chemscore.CHOScore>
0.0000

> <Gold.PLP.Chemscore.Metal>
0.0000

> <Gold.Chemscore.Hbonds>
donor molecule, donor type, donor heavy atom, donor atom, acceptor molecule, acceptor atom, score
      P1  H  7997  8008       L1    16  1.00

> <Gold.PLP.Chemscore.Internal.Correction>
1.2181

> <Gold.Rescore>
     Score         DG    S(hbond)    S(metal)    S(lipo)     H(rot)  DE(clash)    DE(int)     intcor
     13.34     -15.49       1.17        0.00      74.03       1.00       0.04       2.11       ----

> <Gold.Chemscore.Fitness>
13.3359

> <Gold.Chemscore.DG>
-15.4904

> <Gold.Chemscore.ZeroCoef>
-5.4800

> <Gold.Chemscore.Hbond>
1.1704

> <Gold.Chemscore.Metal>
0.0000

> <Gold.Chemscore.Lipo>
74.0295

> <Gold.Chemscore.Internal_Hbond>
0.0000

> <Gold.Chemscore.DEClash>
0.0446

> <Gold.Chemscore.DEInternal>
2.1099

> <Gold.Chemscore.Rot>
1.0000

> <Gold.Chemscore.Internal.Correction>
   9.000000E+99

> <Gold.Chemscore.Hbonds>
donor molecule, donor type, donor heavy atom, donor atom, acceptor molecule, acceptor atom, score
      P1  H  7997  8008       L1    16  0.99

> <Gold.Chemscore.Hbond.Weighted>
-3.9090

> <Gold.Chemscore.Metal.Weighted>
-0.0000

> <Gold.Chemscore.Lipo.Weighted>
-8.6615

> <Gold.Chemscore.Internal_Hbond.Weighted>
0.0000

> <Gold.Chemscore.DEClash.Weighted>
0.0446

> <Gold.Chemscore.DEInternal.Weighted>
2.1099

> <Gold.Chemscore.Rot.Weighted>
2.5600

> <Gold.Chemscore.Internal.Correction.Weighted>
   9.000000E+99

> <Gold.Protein.RotatedTorsions>
[ 6907 6896 6895 6894 ] final   80.06 input  -60.11 | X-H torsion
[ 7974 7965 7964 7962 ] final  -68.38 input  175.53 | X-H torsion
[ 8008 7997 7996 7995 ] final  -34.91 input   59.86 | X-H torsion
[ 10167 10162 10161 10158 ] final -112.05 input  -65.29 | X-H torsion
[ 10718 10713 10712 10709 ] final   -0.94 input   66.30 | X-H torsion
[ 10763 10752 10751 10750 ] final  156.13 input  -60.55 | X-H torsion
[ 11005 11000 10999 10996 ] final -172.26 input  -57.11 | X-H torsion

> <Gold.Protein.ActiveResidues>
 VAL166  LYS551  ARG553  GLY616  TRP617  ASP618  TYR619  PRO620  LYS621  CYS622 
 ASP623  PHE694  ASN695  SER759  ASP760  ASP761  ALA762  ILE779  LEU786  VAL792 
 PHE793  MET794  SER795  GLU796  ALA797  LYS798  CYS799  TRP800  GLU811  SER814 

> <Gold.Protein.RotatedAtoms>
  152.5221  134.3415  159.9218 H   0  0  0  0  0  0  0  0  0  0  0  0  # atno 6907 bound_to 6896
  151.3365  133.3973  159.2675 H   0  0  0  0  0  0  0  0  0  0  0  0  # atno 6908 bound_to 6896
  150.9838  134.9205  159.7917 H   0  0  0  0  0  0  0  0  0  0  0  0  # atno 6909 bound_to 6896
  145.7172  140.9054  143.0649 H   0  0  0  0  0  0  0  0  0  0  0  0  # atno 7974 bound_to 7965
  154.4108  140.1671  156.2126 H   0  0  0  0  0  0  0  0  0  0  0  0  # atno 8008 bound_to 7997
  155.9431  140.3406  155.6321 H   0  0  0  0  0  0  0  0  0  0  0  0  # atno 8009 bound_to 7997
  155.6964  140.0740  157.2418 H   0  0  0  0  0  0  0  0  0  0  0  0  # atno 8010 bound_to 7997
  140.1270  143.4394  152.1653 H   0  0  0  0  0  0  0  0  0  0  0  0  # atno 10167 bound_to 10162
  156.8131  130.5431  149.5706 H   0  0  0  0  0  0  0  0  0  0  0  0  # atno 10718 bound_to 10713
  154.1795  135.2800  155.3056 H   0  0  0  0  0  0  0  0  0  0  0  0  # atno 10763 bound_to 10752
  154.6013  135.5528  153.7381 H   0  0  0  0  0  0  0  0  0  0  0  0  # atno 10764 bound_to 10752
  153.0142  135.6392  154.1934 H   0  0  0  0  0  0  0  0  0  0  0  0  # atno 10765 bound_to 10752
  140.4989  134.5912  157.4981 H   0  0  0  0  0  0  0  0  0  0  0  0  # atno 11005 bound_to 11000
  144.6926  139.9153  143.7465 LP  0  0  0  0  0  0  0  0  0  0  0  0  # atno 17320 bound_to 7965
  146.0659  139.3650  143.0553 LP  0  0  0  0  0  0  0  0  0  0  0  0  # atno 17321 bound_to 7965
  139.5539  144.7358  151.4352 LP  0  0  0  0  0  0  0  0  0  0  0  0  # atno 17342 bound_to 10162
  140.6839  143.8018  150.7159 LP  0  0  0  0  0  0  0  0  0  0  0  0  # atno 17343 bound_to 10162
  156.1033  130.5985  150.9929 LP  0  0  0  0  0  0  0  0  0  0  0  0  # atno 17370 bound_to 10713
  157.6496  131.0899  150.8080 LP  0  0  0  0  0  0  0  0  0  0  0  0  # atno 17371 bound_to 10713
  139.9725  134.7270  156.0014 LP  0  0  0  0  0  0  0  0  0  0  0  0  # atno 17394 bound_to 11000
  141.1445  133.6558  156.3828 LP  0  0  0  0  0  0  0  0  0  0  0  0  # atno 17395 bound_to 11000

$$$$
