AV-unprocessed.smi:1033|AV-procd|sdf|4511|dock5
  -GOLD-   22720 2513D 1   1.00000     0.00000
 Structure written by MMmdl.
 57 59  0  0  0  0  0  0  0  0  3 V2000
  153.0880  143.2857  159.5919 C   0  0  0  0  0  0  0  0  0  0  0  0
  152.2783  142.5300  158.5526 C   0  0  0  0  0  0  0  0  0  0  0  0
  151.7983  141.2376  158.8623 C   0  0  0  0  0  0  0  0  0  0  0  0
  151.0409  140.5023  157.9248 C   0  0  0  0  0  0  0  0  0  0  0  0
  150.4833  139.2383  158.0123 N   0  0  0  0  0  0  0  0  0  0  0  0
  149.9082  139.1147  156.8202 C   0  0  0  0  0  0  0  0  0  0  0  0
  150.0371  140.1464  155.9639 N   0  0  0  0  0  0  0  0  0  0  0  0
  149.5123  140.2277  154.6133 C   0  0  0  0  0  0  0  0  0  0  0  0
  148.5050  141.3817  154.4410 C   0  0  1  0  0  0  0  0  0  0  0  0
  149.1645  142.4328  153.7648 O   0  0  0  0  0  0  0  0  0  0  0  0
  147.2439  140.9876  153.6396 C   0  0  0  0  0  0  0  0  0  0  0  0
  146.1036  141.9108  153.8736 N   0  3  2  0  0  0  0  0  0  0  0  0
  146.3188  143.2725  153.3179 C   0  0  0  0  0  0  0  0  0  0  0  0
  145.0847  144.1724  153.5366 C   0  0  0  0  0  0  0  0  0  0  0  0
  144.6627  144.2171  154.9617 N   0  3  2  0  0  0  0  0  0  0  0  0
  145.4999  145.0857  155.8333 C   0  0  0  0  0  0  0  0  0  0  0  0
  144.9533  146.5236  155.9269 C   0  0  2  0  0  0  0  0  0  0  0  0
  144.5819  147.0914  154.5510 C   0  0  0  0  0  0  0  0  0  0  0  0
  145.9418  147.3572  156.4968 O   0  0  0  0  0  0  0  0  0  0  0  0
  144.4638  142.8490  155.5016 C   0  0  0  0  0  0  0  0  0  0  0  0
  145.7125  141.9694  155.3039 C   0  0  0  0  0  0  0  0  0  0  0  0
  150.7766  141.0993  156.6574 C   0  0  0  0  0  0  0  0  0  0  0  0
  151.2483  142.3849  156.3373 C   0  0  0  0  0  0  0  0  0  0  0  0
  152.0020  143.1064  157.2866 C   0  0  0  0  0  0  0  0  0  0  0  0
  152.5034  144.4958  156.9342 C   0  0  0  0  0  0  0  0  0  0  0  0
  153.1948  142.7081  160.5108 H   0  0  0  0  0  0  0  0  0  0  0  0
  152.6021  144.2284  159.8444 H   0  0  0  0  0  0  0  0  0  0  0  0
  154.0879  143.5012  159.2148 H   0  0  0  0  0  0  0  0  0  0  0  0
  152.0082  140.7987  159.8270 H   0  0  0  0  0  0  0  0  0  0  0  0
  149.3680  138.2191  156.5495 H   0  0  0  0  0  0  0  0  0  0  0  0
  150.3531  140.3536  153.9293 H   0  0  0  0  0  0  0  0  0  0  0  0
  149.0489  139.2726  154.3622 H   0  0  0  0  0  0  0  0  0  0  0  0
  148.2273  141.7431  155.4307 H   0  0  0  0  0  0  0  0  0  0  0  0
  148.9599  143.2485  154.1972 H   0  0  0  0  0  0  0  0  0  0  0  0
  147.5009  140.9794  152.5791 H   0  0  0  0  0  0  0  0  0  0  0  0
  146.9240  139.9735  153.8809 H   0  0  0  0  0  0  0  0  0  0  0  0
  147.2024  143.7188  153.7760 H   0  0  0  0  0  0  0  0  0  0  0  0
  146.5234  143.2156  152.2496 H   0  0  0  0  0  0  0  0  0  0  0  0
  145.2740  145.1741  153.1527 H   0  0  0  0  0  0  0  0  0  0  0  0
  144.2508  143.7814  152.9518 H   0  0  0  0  0  0  0  0  0  0  0  0
  145.5390  144.6679  156.8407 H   0  0  0  0  0  0  0  0  0  0  0  0
  146.5291  145.0940  155.4743 H   0  0  0  0  0  0  0  0  0  0  0  0
  144.0694  146.5594  156.5628 H   0  0  0  0  0  0  0  0  0  0  0  0
  143.8023  146.4930  154.0786 H   0  0  0  0  0  0  0  0  0  0  0  0
  145.4410  147.1070  153.8794 H   0  0  0  0  0  0  0  0  0  0  0  0
  144.2061  148.1118  154.6345 H   0  0  0  0  0  0  0  0  0  0  0  0
  146.7946  147.0078  156.2861 H   0  0  0  0  0  0  0  0  0  0  0  0
  144.1835  142.8906  156.5548 H   0  0  0  0  0  0  0  0  0  0  0  0
  143.6175  142.3966  154.9829 H   0  0  0  0  0  0  0  0  0  0  0  0
  145.5003  140.9631  155.6672 H   0  0  0  0  0  0  0  0  0  0  0  0
  146.5459  142.3494  155.8970 H   0  0  0  0  0  0  0  0  0  0  0  0
  151.0309  142.8140  155.3706 H   0  0  0  0  0  0  0  0  0  0  0  0
  152.2292  144.7720  155.9156 H   0  0  0  0  0  0  0  0  0  0  0  0
  153.5897  144.5430  157.0125 H   0  0  0  0  0  0  0  0  0  0  0  0
  152.0747  145.2375  157.6085 H   0  0  0  0  0  0  0  0  0  0  0  0
  143.7493  144.6507  154.9767 H   0  0  0  0  0  0  0  0  0  0  0  0
  145.3163  141.5110  153.3819 H   0  0  0  0  0  0  0  0  0  0  0  0
  1  2  1  0  0  0  0
  1 26  1  0  0  0  0
  1 27  1  0  0  0  0
  1 28  1  0  0  0  0
  2 24  1  0  0  0  0
  2  3  2  0  0  0  0
  3  4  1  0  0  0  0
  3 29  1  0  0  0  0
  4 22  2  0  0  0  0
  4  5  1  0  0  0  0
  5  6  2  0  0  0  0
  6  7  1  0  0  0  0
  6 30  1  0  0  0  0
  7  8  1  0  0  0  0
  7 22  1  0  0  0  0
  8  9  1  0  0  0  0
  8 31  1  0  0  0  0
  8 32  1  0  0  0  0
  9 10  1  0  0  0  0
  9 11  1  0  0  0  0
  9 33  1  0  0  0  0
 10 34  1  0  0  0  0
 11 12  1  0  0  0  0
 11 35  1  0  0  0  0
 11 36  1  0  0  0  0
 12 21  1  0  0  0  0
 12 13  1  0  0  0  0
 12 57  1  0  0  0  0
 13 14  1  0  0  0  0
 13 37  1  0  0  0  0
 13 38  1  0  0  0  0
 14 15  1  0  0  0  0
 14 39  1  0  0  0  0
 14 40  1  0  0  0  0
 15 16  1  0  0  0  0
 15 20  1  0  0  0  0
 15 56  1  0  0  0  0
 16 17  1  0  0  0  0
 16 41  1  0  0  0  0
 16 42  1  0  0  0  0
 17 18  1  0  0  0  0
 17 19  1  0  0  0  0
 17 43  1  0  0  0  0
 18 44  1  0  0  0  0
 18 45  1  0  0  0  0
 18 46  1  0  0  0  0
 19 47  1  0  0  0  0
 20 21  1  0  0  0  0
 20 48  1  0  0  0  0
 20 49  1  0  0  0  0
 21 50  1  0  0  0  0
 21 51  1  0  0  0  0
 22 23  1  0  0  0  0
 23 24  2  0  0  0  0
 23 52  1  0  0  0  0
 24 25  1  0  0  0  0
 25 53  1  0  0  0  0
 25 54  1  0  0  0  0
 25 55  1  0  0  0  0
M  CHG  1  12   1
M  CHG  1  15   1
M  END
> <s_m_source_file>
AV-unprocessed.smi

> <i_m_source_file_index>
1033

> <i_lp_mmshare_version>
43012

> <i_f3d_flags>
0

> <s_epik_input>
W0NIM11jKFtjSF0xKWMoW0NIM10pW2NIXWMoYzEyKW4oW2NIXW4yKVtDSDJdW0NASF0oW09IXSlbQ0gyXU4zW0NIMl1bQ0gyXU4oW0NIMl1bQ0gyXTMpW0NIMl1bQ0BIXShbQ0gzXSlbT0hd

> <s_epik_cmdline>
J2VwaWtfcHl0aG9uJywgJy1waCcsICc3LjAnLCAnLXRuJywgJzgnLCAnLW1hJywgJzIwMCcsICctbWV0YWxfYmluZGluZycsICctaW1hZScsICc8aW5maWxlLm1hZT4nLCAnLW9tYWUnLCAnPG91dGZpbGUubWFlPic=

> <r_epik_Ionization_Penalty>
3.16016

> <r_epik_Ionization_Penalty_Charging>
3.07679

> <r_epik_Ionization_Penalty_Neutral>
0.083365

> <r_epik_State_Penalty>
2.09701

> <r_epik_Charging_Adjusted_Penalty>
5.1738

> <i_epik_Tot_Q>
2

> <i_epik_Tot_abs_Q>
2

> <r_epik_Metal_State_Penalty>
2.02534

> <b_epik_Metal_Only>
0

> <s_lp_Force_Field>
OPLS_2005

> <r_lp_Energy>
29.7714

> <b_lp_Chiralities_Consistent>
1

> <s_lp_Variant>
AV-unprocessed.smi:1033-22

> <Gold.Version>
5.8.1

> <Gold.Id.Protein>
6NUR|6NUR_protein|mol2

> <Gold.PLP.Fitness>
57.6691

> <Gold.PLP.PLP>
-48.1395

> <Gold.PLP.part.hbond>
-4.2904

> <Gold.PLP.part.metal>
0.0000

> <Gold.PLP.part.buried>
-5.7886

> <Gold.PLP.part.nonpolar>
-38.7211

> <Gold.PLP.part.repulsive>
0.0174

> <Gold.PLP.ligand.clash>
0.0000

> <Gold.PLP.ligand.torsion>
1.4098

> <Gold.PLP.Chemscore.Hbond>
4.0614

> <Gold.PLP.Chemscore.CHOScore>
0.0000

> <Gold.PLP.Chemscore.Metal>
0.0000

> <Gold.Chemscore.Hbonds>
donor molecule, donor type, donor heavy atom, donor atom, acceptor molecule, acceptor atom, score
      L1  H    10    34       P1  8028  0.98
      L1  H    12    57       P1 10175  1.11
      P1  H  8011  8017       L1    10  0.16

> <Gold.PLP.Chemscore.Internal.Correction>
0.1651

> <Gold.Rescore>
     Score         DG    S(hbond)    S(metal)    S(lipo)     H(rot)  DE(clash)    DE(int)     intcor
     16.76     -20.26       2.61        0.00     120.47       3.14       1.10       2.40       ----

> <Gold.Chemscore.Fitness>
16.7635

> <Gold.Chemscore.DG>
-20.2621

> <Gold.Chemscore.ZeroCoef>
-5.4800

> <Gold.Chemscore.Hbond>
2.6109

> <Gold.Chemscore.Metal>
0.0000

> <Gold.Chemscore.Lipo>
120.4676

> <Gold.Chemscore.Internal_Hbond>
0.0000

> <Gold.Chemscore.DEClash>
1.0971

> <Gold.Chemscore.DEInternal>
2.4015

> <Gold.Chemscore.Rot>
3.1380

> <Gold.Chemscore.Internal.Correction>
   9.000000E+99

> <Gold.Chemscore.Hbonds>
donor molecule, donor type, donor heavy atom, donor atom, acceptor molecule, acceptor atom, score
      L1  H    10    34       P1  8028  0.91
      L1  H    12    57       P1 10175  0.06
      P1  H  8011  8017       L1    10  0.16

> <Gold.Chemscore.Hbond.Weighted>
-8.7206

> <Gold.Chemscore.Metal.Weighted>
-0.0000

> <Gold.Chemscore.Lipo.Weighted>
-14.0947

> <Gold.Chemscore.Internal_Hbond.Weighted>
0.0000

> <Gold.Chemscore.DEClash.Weighted>
1.0971

> <Gold.Chemscore.DEInternal.Weighted>
2.4015

> <Gold.Chemscore.Rot.Weighted>
8.0332

> <Gold.Chemscore.Internal.Correction.Weighted>
   9.000000E+99

> <Gold.Protein.RotatedTorsions>
[ 6907 6896 6895 6894 ] final   80.60 input  -60.11 | X-H torsion
[ 7974 7965 7964 7962 ] final -154.93 input  175.53 | X-H torsion
[ 8008 7997 7996 7995 ] final   71.59 input   59.86 | X-H torsion
[ 10167 10162 10161 10158 ] final  -89.14 input  -65.29 | X-H torsion
[ 10718 10713 10712 10709 ] final  161.54 input   66.30 | X-H torsion
[ 10763 10752 10751 10750 ] final  -56.29 input  -60.55 | X-H torsion
[ 11005 11000 10999 10996 ] final -136.27 input  -57.11 | X-H torsion

> <Gold.Protein.ActiveResidues>
 VAL166  LYS551  ARG553  GLY616  TRP617  ASP618  TYR619  PRO620  LYS621  CYS622 
 ASP623  PHE694  ASN695  SER759  ASP760  ASP761  ALA762  ILE779  LEU786  VAL792 
 PHE793  MET794  SER795  GLU796  ALA797  LYS798  CYS799  TRP800  GLU811  SER814 

> <Gold.Protein.RotatedAtoms>
  152.5240  134.3333  159.9190 H   0  0  0  0  0  0  0  0  0  0  0  0  # atno 6907 bound_to 6896
  151.3282  133.4005  159.2668 H   0  0  0  0  0  0  0  0  0  0  0  0  # atno 6908 bound_to 6896
  150.9902  134.9256  159.7953 H   0  0  0  0  0  0  0  0  0  0  0  0  # atno 6909 bound_to 6896
  144.7665  140.4320  143.5938 H   0  0  0  0  0  0  0  0  0  0  0  0  # atno 7974 bound_to 7965
  155.7562  140.3487  155.5175 H   0  0  0  0  0  0  0  0  0  0  0  0  # atno 8008 bound_to 7997
  155.8958  140.1025  157.1407 H   0  0  0  0  0  0  0  0  0  0  0  0  # atno 8009 bound_to 7997
  154.4038  140.1295  156.4360 H   0  0  0  0  0  0  0  0  0  0  0  0  # atno 8010 bound_to 7997
  140.3678  143.2809  151.9537 H   0  0  0  0  0  0  0  0  0  0  0  0  # atno 10167 bound_to 10162
  157.1351  131.0526  151.2353 H   0  0  0  0  0  0  0  0  0  0  0  0  # atno 10718 bound_to 10713
  154.2043  135.6405  153.5096 H   0  0  0  0  0  0  0  0  0  0  0  0  # atno 10763 bound_to 10752
  153.0004  135.5459  154.6282 H   0  0  0  0  0  0  0  0  0  0  0  0  # atno 10764 bound_to 10752
  154.5703  135.2916  155.0807 H   0  0  0  0  0  0  0  0  0  0  0  0  # atno 10765 bound_to 10752
  140.8820  134.1919  157.4585 H   0  0  0  0  0  0  0  0  0  0  0  0  # atno 11005 bound_to 11000
  145.6454  139.1556  143.2892 LP  0  0  0  0  0  0  0  0  0  0  0  0  # atno 17320 bound_to 7965
  146.1777  140.6547  142.9204 LP  0  0  0  0  0  0  0  0  0  0  0  0  # atno 17321 bound_to 7965
  139.4807  144.5935  151.7731 LP  0  0  0  0  0  0  0  0  0  0  0  0  # atno 17342 bound_to 10162
  140.5063  144.1092  150.5983 LP  0  0  0  0  0  0  0  0  0  0  0  0  # atno 17343 bound_to 10162
  157.4357  130.7516  149.7027 LP  0  0  0  0  0  0  0  0  0  0  0  0  # atno 17370 bound_to 10713
  155.9800  130.4034  150.3555 LP  0  0  0  0  0  0  0  0  0  0  0  0  # atno 17371 bound_to 10713
  139.8720  134.9821  156.5144 LP  0  0  0  0  0  0  0  0  0  0  0  0  # atno 17394 bound_to 11000
  140.8450  133.8176  155.9112 LP  0  0  0  0  0  0  0  0  0  0  0  0  # atno 17395 bound_to 11000

$$$$
