AV-unprocessed.smi:1817|AV-procd|sdf|7379|dock4
  -GOLD-   22720 9 43D 1   1.00000     0.00000
 Structure written by MMmdl.
 41 42  0  0  0  0  0  0  0  0  2 V2000
  152.0145  145.2754  159.0000 C   0  0  0  0  0  0  0  0  0  0  0  0
  152.4741  144.0539  159.8085 C   0  0  0  0  0  0  0  0  0  0  0  0
  152.4130  142.7823  159.0907 N   0  0  0  0  0  0  0  0  0  0  0  0
  151.0652  142.4682  158.6189 C   0  0  0  0  0  0  0  0  0  0  0  0
  151.0230  141.1231  157.8693 C   0  0  0  0  0  0  0  0  0  0  0  0
  151.4769  139.9976  158.7014 N   0  0  0  0  0  0  0  0  0  0  0  0
  151.4429  138.7014  157.9820 C   0  0  1  0  0  0  0  0  0  0  0  0
  152.1036  137.5537  158.7876 C   0  0  0  0  0  0  0  0  0  0  0  0
  150.0068  138.2721  157.5655 C   0  0  0  0  0  0  0  0  0  0  0  0
  149.0941  138.1279  158.6993 N   0  0  0  0  0  0  0  0  0  0  0  0
  148.8833  137.0153  159.4186 C   0  0  0  0  0  0  0  0  0  0  0  0
  149.4760  135.9724  159.1331 O   0  0  0  0  0  0  0  0  0  0  0  0
  147.9903  137.1778  160.4217 N   0  5  0  0  0  0  0  0  0  0  0  0
  147.6049  136.1196  161.1538 C   0  0  0  0  0  0  0  0  0  0  0  0
  147.2957  134.9361  160.5999 N   0  0  0  0  0  0  0  0  0  0  0  0
  146.9249  133.9768  161.5326 N   0  0  0  0  0  0  0  0  0  0  0  0
  146.9738  134.4612  162.7732 C   0  0  0  0  0  0  0  0  0  0  0  0
  147.4773  136.1324  162.9152 S   0  0  0  0  0  0  0  0  0  0  0  0
  152.8209  140.3355  159.1949 C   0  0  0  0  0  0  0  0  0  0  0  0
  152.8523  141.6810  159.9419 C   0  0  0  0  0  0  0  0  0  0  0  0
  152.1982  146.1939  159.5575 H   0  0  0  0  0  0  0  0  0  0  0  0
  150.9483  145.2395  158.7785 H   0  0  0  0  0  0  0  0  0  0  0  0
  152.5546  145.3477  158.0558 H   0  0  0  0  0  0  0  0  0  0  0  0
  153.5055  144.2347  160.1141 H   0  0  0  0  0  0  0  0  0  0  0  0
  151.8954  143.9887  160.7310 H   0  0  0  0  0  0  0  0  0  0  0  0
  150.3697  142.4415  159.4594 H   0  0  0  0  0  0  0  0  0  0  0  0
  150.7113  143.2487  157.9461 H   0  0  0  0  0  0  0  0  0  0  0  0
  149.9923  140.9765  157.5533 H   0  0  0  0  0  0  0  0  0  0  0  0
  151.6273  141.1869  156.9631 H   0  0  0  0  0  0  0  0  0  0  0  0
  152.0192  138.8133  157.0622 H   0  0  0  0  0  0  0  0  0  0  0  0
  152.0598  136.6008  158.2625 H   0  0  0  0  0  0  0  0  0  0  0  0
  151.6158  137.4186  159.7536 H   0  0  0  0  0  0  0  0  0  0  0  0
  153.1643  137.7233  158.9641 H   0  0  0  0  0  0  0  0  0  0  0  0
  149.6116  138.9601  156.8164 H   0  0  0  0  0  0  0  0  0  0  0  0
  150.0110  137.2884  157.1006 H   0  0  0  0  0  0  0  0  0  0  0  0
  148.5789  138.9522  158.9712 H   0  0  0  0  0  0  0  0  0  0  0  0
  146.7134  133.8302  163.6098 H   0  0  0  0  0  0  0  0  0  0  0  0
  153.1727  139.5814  159.8962 H   0  0  0  0  0  0  0  0  0  0  0  0
  153.5309  140.3553  158.3666 H   0  0  0  0  0  0  0  0  0  0  0  0
  153.8676  141.8696  160.2928 H   0  0  0  0  0  0  0  0  0  0  0  0
  152.2226  141.6198  160.8312 H   0  0  0  0  0  0  0  0  0  0  0  0
  1  2  1  0  0  0  0
  1 21  1  0  0  0  0
  1 22  1  0  0  0  0
  1 23  1  0  0  0  0
  2  3  1  0  0  0  0
  2 24  1  0  0  0  0
  2 25  1  0  0  0  0
  3 20  1  0  0  0  0
  3  4  1  0  0  0  0
  4  5  1  0  0  0  0
  4 26  1  0  0  0  0
  4 27  1  0  0  0  0
  5  6  1  0  0  0  0
  5 28  1  0  0  0  0
  5 29  1  0  0  0  0
  6  7  1  0  0  0  0
  6 19  1  0  0  0  0
  7  8  1  0  0  0  0
  7  9  1  0  0  0  0
  7 30  1  0  0  0  0
  8 31  1  0  0  0  0
  8 32  1  0  0  0  0
  8 33  1  0  0  0  0
  9 10  1  0  0  0  0
  9 34  1  0  0  0  0
  9 35  1  0  0  0  0
 10 11  1  0  0  0  0
 10 36  1  0  0  0  0
 11 12  2  0  0  0  0
 11 13  1  0  0  0  0
 13 14  1  0  0  0  0
 14 18  1  0  0  0  0
 14 15  2  0  0  0  0
 15 16  1  0  0  0  0
 16 17  2  0  0  0  0
 17 18  1  0  0  0  0
 17 37  1  0  0  0  0
 19 20  1  0  0  0  0
 19 38  1  0  0  0  0
 19 39  1  0  0  0  0
 20 40  1  0  0  0  0
 20 41  1  0  0  0  0
M  CHG  1  13  -1
M  END
> <s_m_source_file>
AV-unprocessed.smi

> <i_m_source_file_index>
1817

> <i_lp_mmshare_version>
43012

> <i_f3d_flags>
0

> <s_epik_input>
W0NIM11bQ0gyXU4xW0NIMl1bQ0gyXU4oW0NIMl1bQ0gyXTEpW0NASF0oW0NIM10pW0NIMl1bTkhdQyg9TylbTkhdYzJubltjSF1zMg==

> <s_epik_cmdline>
J2VwaWtfcHl0aG9uJywgJy1waCcsICc3LjAnLCAnLXRuJywgJzgnLCAnLW1hJywgJzIwMCcsICctbWV0YWxfYmluZGluZycsICctaW1hZScsICc8aW5maWxlLm1hZT4nLCAnLW9tYWUnLCAnPG91dGZpbGUubWFlPic=

> <r_lp_tautomer_probability>
1

> <r_epik_Ionization_Penalty>
6.0391

> <r_epik_Ionization_Penalty_Charging>
3.54798

> <r_epik_Ionization_Penalty_Neutral>
2.49112

> <r_epik_State_Penalty>
5.3147

> <r_epik_Charging_Adjusted_Penalty>
8.86267

> <i_epik_Tot_Q>
-1

> <i_epik_Tot_abs_Q>
1

> <r_epik_Metal_State_Penalty>
2.29997

> <b_epik_Metal_Only>
1

> <s_lp_Force_Field>
OPLS_2005

> <r_lp_Energy>
40.1381

> <b_lp_Chiralities_Consistent>
1

> <s_lp_Variant>
AV-unprocessed.smi:1817-12

> <Gold.Version>
5.8.1

> <Gold.Id.Protein>
6NUR|6NUR_protein|mol2

> <Gold.PLP.Fitness>
50.3317

> <Gold.PLP.PLP>
-39.6400

> <Gold.PLP.part.hbond>
-3.0000

> <Gold.PLP.part.metal>
0.0000

> <Gold.PLP.part.buried>
-7.0967

> <Gold.PLP.part.nonpolar>
-31.3318

> <Gold.PLP.part.repulsive>
0.2048

> <Gold.PLP.ligand.clash>
0.0000

> <Gold.PLP.ligand.torsion>
0.6222

> <Gold.PLP.Chemscore.Hbond>
3.9460

> <Gold.PLP.Chemscore.CHOScore>
0.0000

> <Gold.PLP.Chemscore.Metal>
0.0000

> <Gold.Chemscore.Hbonds>
donor molecule, donor type, donor heavy atom, donor atom, acceptor molecule, acceptor atom, score
      P1  H  6896  6907       L1    12  1.00
      P1  H  6931  6943       L1    13  1.22
      P1  H  6934  6947       L1    13  1.37

> <Gold.PLP.Chemscore.Internal.Correction>
0.0982

> <Gold.Rescore>
     Score         DG    S(hbond)    S(metal)    S(lipo)     H(rot)  DE(clash)    DE(int)     intcor
     17.24     -18.17       2.12        0.00      87.98       1.84       0.02       0.90       ----

> <Gold.Chemscore.Fitness>
17.2440

> <Gold.Chemscore.DG>
-18.1691

> <Gold.Chemscore.ZeroCoef>
-5.4800

> <Gold.Chemscore.Hbond>
2.1244

> <Gold.Chemscore.Metal>
0.0000

> <Gold.Chemscore.Lipo>
87.9768

> <Gold.Chemscore.Internal_Hbond>
0.0000

> <Gold.Chemscore.DEClash>
0.0204

> <Gold.Chemscore.DEInternal>
0.9047

> <Gold.Chemscore.Rot>
1.8358

> <Gold.Chemscore.Internal.Correction>
   9.000000E+99

> <Gold.Chemscore.Hbonds>
donor molecule, donor type, donor heavy atom, donor atom, acceptor molecule, acceptor atom, score
      P1  H  6896  6907       L1    12  1.00
      P1  H  6931  6943       L1    13  0.07
      P1  H  6934  6947       L1    13  0.63

> <Gold.Chemscore.Hbond.Weighted>
-7.0954

> <Gold.Chemscore.Metal.Weighted>
-0.0000

> <Gold.Chemscore.Lipo.Weighted>
-10.2933

> <Gold.Chemscore.Internal_Hbond.Weighted>
0.0000

> <Gold.Chemscore.DEClash.Weighted>
0.0204

> <Gold.Chemscore.DEInternal.Weighted>
0.9047

> <Gold.Chemscore.Rot.Weighted>
4.6996

> <Gold.Chemscore.Internal.Correction.Weighted>
   9.000000E+99

> <Gold.Protein.RotatedTorsions>
[ 6907 6896 6895 6894 ] final  -54.22 input  -60.11 | X-H torsion
[ 7974 7965 7964 7962 ] final -110.15 input  175.53 | X-H torsion
[ 8008 7997 7996 7995 ] final  -29.50 input   59.86 | X-H torsion
[ 10167 10162 10161 10158 ] final  115.27 input  -65.29 | X-H torsion
[ 10718 10713 10712 10709 ] final   61.61 input   66.30 | X-H torsion
[ 10763 10752 10751 10750 ] final   94.95 input  -60.55 | X-H torsion
[ 11005 11000 10999 10996 ] final  150.30 input  -57.11 | X-H torsion

> <Gold.Protein.ActiveResidues>
 VAL166  LYS551  ARG553  GLY616  TRP617  ASP618  TYR619  PRO620  LYS621  CYS622 
 ASP623  PHE694  ASN695  SER759  ASP760  ASP761  ALA762  ILE779  LEU786  VAL792 
 PHE793  MET794  SER795  GLU796  ALA797  LYS798  CYS799  TRP800  GLU811  SER814 

> <Gold.Protein.RotatedAtoms>
  150.8357  134.7629  159.6890 H   0  0  0  0  0  0  0  0  0  0  0  0  # atno 6907 bound_to 6896
  152.4454  134.5502  159.9874 H   0  0  0  0  0  0  0  0  0  0  0  0  # atno 6908 bound_to 6896
  151.5653  133.3360  159.3015 H   0  0  0  0  0  0  0  0  0  0  0  0  # atno 6909 bound_to 6896
  145.1717  140.8929  143.3531 H   0  0  0  0  0  0  0  0  0  0  0  0  # atno 7974 bound_to 7965
  154.4287  140.1816  156.1258 H   0  0  0  0  0  0  0  0  0  0  0  0  # atno 8008 bound_to 7997
  156.0106  140.3351  155.6912 H   0  0  0  0  0  0  0  0  0  0  0  0  # atno 8009 bound_to 7997
  155.6115  140.0650  157.2695 H   0  0  0  0  0  0  0  0  0  0  0  0  # atno 8010 bound_to 7997
  139.6329  144.7117  151.2395 H   0  0  0  0  0  0  0  0  0  0  0  0  # atno 10167 bound_to 10162
  157.5841  130.9004  149.9483 H   0  0  0  0  0  0  0  0  0  0  0  0  # atno 10718 bound_to 10713
  153.2475  135.4271  155.0763 H   0  0  0  0  0  0  0  0  0  0  0  0  # atno 10763 bound_to 10752
  154.8367  135.3418  154.6560 H   0  0  0  0  0  0  0  0  0  0  0  0  # atno 10764 bound_to 10752
  153.6982  135.7030  153.5127 H   0  0  0  0  0  0  0  0  0  0  0  0  # atno 10765 bound_to 10752
  140.1119  134.8919  157.1948 H   0  0  0  0  0  0  0  0  0  0  0  0  # atno 11005 bound_to 11000
  145.0226  139.3411  143.6065 LP  0  0  0  0  0  0  0  0  0  0  0  0  # atno 17320 bound_to 7965
  146.3467  139.9532  142.8726 LP  0  0  0  0  0  0  0  0  0  0  0  0  # atno 17321 bound_to 7965
  140.7449  143.6448  150.8302 LP  0  0  0  0  0  0  0  0  0  0  0  0  # atno 17342 bound_to 10162
  140.0075  143.5678  152.2852 LP  0  0  0  0  0  0  0  0  0  0  0  0  # atno 17343 bound_to 10162
  156.0889  130.3665  150.0434 LP  0  0  0  0  0  0  0  0  0  0  0  0  # atno 17370 bound_to 10713
  156.8568  130.9478  151.3621 LP  0  0  0  0  0  0  0  0  0  0  0  0  # atno 17371 bound_to 10713
  140.3080  134.3056  155.7273 LP  0  0  0  0  0  0  0  0  0  0  0  0  # atno 17394 bound_to 11000
  141.2132  133.7632  156.9736 LP  0  0  0  0  0  0  0  0  0  0  0  0  # atno 17395 bound_to 11000

$$$$
