AV-unprocessed.smi:1238|AV-procd|sdf|5184|dock2
  -GOLD-   22720 4263D 1   1.00000     0.00000
 Structure written by MMmdl.
 42 43  0  0  0  0  0  0  0  0  2 V2000
  154.2445  137.5895  165.1007 C   0  0  0  0  0  0  0  0  0  0  0  0
  153.5608  136.4319  164.6536 O   0  0  0  0  0  0  0  0  0  0  0  0
  153.4119  136.4018  163.2442 C   0  0  0  0  0  0  0  0  0  0  0  0
  154.8005  136.2601  162.5980 C   0  0  0  0  0  0  0  0  0  0  0  0
  154.7063  136.0966  161.1283 N   0  0  0  0  0  0  0  0  0  0  0  0
  154.2015  137.1563  160.3141 C   0  0  0  0  0  0  0  0  0  0  0  0
  153.6090  138.6342  161.2242 S   0  0  0  0  0  0  0  0  0  0  0  0
  153.2195  139.7710  159.8633 C   0  0  0  0  0  0  0  0  0  0  0  0
  153.2140  141.2294  160.3108 C   0  0  0  0  0  0  0  0  0  0  0  0
  153.5494  141.5252  161.4576 O   0  0  0  0  0  0  0  0  0  0  0  0
  152.8309  142.1333  159.3959 N   0  0  0  0  0  0  0  0  0  0  0  0
  152.7443  143.5725  159.6255 C   0  0  0  0  0  0  0  0  0  0  0  0
  151.6250  143.9248  160.6273 C   0  0  0  0  0  0  0  0  0  0  0  0
  150.8142  145.0483  159.9794 C   0  0  0  0  0  0  0  0  0  0  0  0
  150.9564  144.7986  158.4815 C   0  0  0  0  0  0  0  0  0  0  0  0
  152.3964  144.3102  158.3195 C   0  0  0  0  0  0  0  0  0  0  0  0
  154.1632  137.0390  159.0230 N   0  0  0  0  0  0  0  0  0  0  0  0
  154.5886  135.8866  158.3637 C   0  0  0  0  0  0  0  0  0  0  0  0
  154.4901  135.9736  157.1203 O   0  5  0  0  0  0  0  0  0  0  0  0
  155.0401  134.8284  159.1349 C   0  0  0  0  0  0  0  0  0  0  0  0
  155.0949  134.9002  160.5895 C   0  0  0  0  0  0  0  0  0  0  0  0
  155.4716  133.9462  161.2724 O   0  0  0  0  0  0  0  0  0  0  0  0
  154.3339  137.5661  166.1865 H   0  0  0  0  0  0  0  0  0  0  0  0
  153.7038  138.4965  164.8274 H   0  0  0  0  0  0  0  0  0  0  0  0
  155.2496  137.6413  164.6806 H   0  0  0  0  0  0  0  0  0  0  0  0
  152.7768  135.5626  162.9565 H   0  0  0  0  0  0  0  0  0  0  0  0
  152.9207  137.3145  162.9044 H   0  0  0  0  0  0  0  0  0  0  0  0
  155.4515  137.0826  162.8902 H   0  0  0  0  0  0  0  0  0  0  0  0
  155.3038  135.4021  163.0470 H   0  0  0  0  0  0  0  0  0  0  0  0
  152.2427  139.5186  159.4489 H   0  0  0  0  0  0  0  0  0  0  0  0
  153.9514  139.6382  159.0655 H   0  0  0  0  0  0  0  0  0  0  0  0
  152.5707  141.7987  158.4793 H   0  0  0  0  0  0  0  0  0  0  0  0
  153.7057  143.9386  159.9907 H   0  0  0  0  0  0  0  0  0  0  0  0
  150.9712  143.0663  160.7913 H   0  0  0  0  0  0  0  0  0  0  0  0
  152.0216  144.2166  161.6001 H   0  0  0  0  0  0  0  0  0  0  0  0
  149.7747  145.0588  160.3082 H   0  0  0  0  0  0  0  0  0  0  0  0
  151.2541  146.0137  160.2333 H   0  0  0  0  0  0  0  0  0  0  0  0
  150.2643  144.0141  158.1727 H   0  0  0  0  0  0  0  0  0  0  0  0
  150.7441  145.6860  157.8847 H   0  0  0  0  0  0  0  0  0  0  0  0
  153.0558  145.1721  158.2086 H   0  0  0  0  0  0  0  0  0  0  0  0
  152.5217  143.6959  157.4268 H   0  0  0  0  0  0  0  0  0  0  0  0
  155.3702  133.9208  158.6509 H   0  0  0  0  0  0  0  0  0  0  0  0
  1  2  1  0  0  0  0
  1 23  1  0  0  0  0
  1 24  1  0  0  0  0
  1 25  1  0  0  0  0
  2  3  1  0  0  0  0
  3  4  1  0  0  0  0
  3 26  1  0  0  0  0
  3 27  1  0  0  0  0
  4 28  1  0  0  0  0
  4 29  1  0  0  0  0
  4  5  1  0  0  0  0
  5  6  1  0  0  0  0
  5 21  1  0  0  0  0
  6 17  2  0  0  0  0
  6  7  1  0  0  0  0
  7  8  1  0  0  0  0
  8  9  1  0  0  0  0
  8 30  1  0  0  0  0
  8 31  1  0  0  0  0
  9 10  2  0  0  0  0
  9 11  1  0  0  0  0
 11 12  1  0  0  0  0
 11 32  1  0  0  0  0
 12 16  1  0  0  0  0
 12 13  1  0  0  0  0
 12 33  1  0  0  0  0
 13 14  1  0  0  0  0
 13 34  1  0  0  0  0
 13 35  1  0  0  0  0
 14 15  1  0  0  0  0
 14 36  1  0  0  0  0
 14 37  1  0  0  0  0
 15 16  1  0  0  0  0
 15 38  1  0  0  0  0
 15 39  1  0  0  0  0
 16 40  1  0  0  0  0
 16 41  1  0  0  0  0
 17 18  1  0  0  0  0
 18 20  2  0  0  0  0
 18 19  1  0  0  0  0
 20 21  1  0  0  0  0
 20 42  1  0  0  0  0
 21 22  2  0  0  0  0
M  CHG  1  19  -1
M  END
> <s_m_source_file>
AV-unprocessed.smi

> <i_m_source_file_index>
1238

> <i_lp_mmshare_version>
43012

> <i_f3d_flags>
0

> <s_epik_input>
W0NIM11PW0NIMl1bQ0gyXW4xYyhuYyhbT0hdKVtjSF1jMT1PKVNbQ0gyXUMoPU8pW05IXVtDSF0yW0NIMl1bQ0gyXVtDSDJdW0NIMl0y

> <s_epik_cmdline>
J2VwaWtfcHl0aG9uJywgJy1waCcsICc3LjAnLCAnLXRuJywgJzgnLCAnLW1hJywgJzIwMCcsICctbWV0YWxfYmluZGluZycsICctaW1hZScsICc8aW5maWxlLm1hZT4nLCAnLW9tYWUnLCAnPG91dGZpbGUubWFlPic=

> <r_lp_tautomer_probability>
1

> <r_epik_Ionization_Penalty>
0.0116372

> <r_epik_Ionization_Penalty_Charging>
3.186e-07

> <r_epik_Ionization_Penalty_Neutral>
0.0116369

> <r_epik_State_Penalty>
0.000414464

> <r_epik_Charging_Adjusted_Penalty>
0.000414782

> <i_epik_Tot_Q>
-1

> <i_epik_Tot_abs_Q>
1

> <r_epik_Metal_State_Penalty>
-0

> <b_epik_Metal_Only>
0

> <s_lp_Force_Field>
OPLS_2005

> <r_lp_Energy>
27.578

> <b_lp_Chiralities_Consistent>
1

> <s_lp_Variant>
AV-unprocessed.smi:1238-1

> <Gold.Version>
5.8.1

> <Gold.Id.Protein>
6NUR|6NUR_protein|mol2

> <Gold.PLP.Fitness>
49.0460

> <Gold.PLP.PLP>
-43.4004

> <Gold.PLP.part.hbond>
-1.6533

> <Gold.PLP.part.metal>
0.0000

> <Gold.PLP.part.buried>
-7.0023

> <Gold.PLP.part.nonpolar>
-33.9453

> <Gold.PLP.part.repulsive>
0.1585

> <Gold.PLP.ligand.clash>
0.0000

> <Gold.PLP.ligand.torsion>
0.2627

> <Gold.PLP.Chemscore.Hbond>
2.0000

> <Gold.PLP.Chemscore.CHOScore>
0.0000

> <Gold.PLP.Chemscore.Metal>
0.0000

> <Gold.Chemscore.Hbonds>
donor molecule, donor type, donor heavy atom, donor atom, acceptor molecule, acceptor atom, score
      P1  H 10752 10765       L1    19  2.00

> <Gold.PLP.Chemscore.Internal.Correction>
0.1708

> <Gold.Rescore>
     Score         DG    S(hbond)    S(metal)    S(lipo)     H(rot)  DE(clash)    DE(int)     intcor
     14.20     -14.49       1.00        0.00     103.41       2.51       0.04       0.25       ----

> <Gold.Chemscore.Fitness>
14.1963

> <Gold.Chemscore.DG>
-14.4877

> <Gold.Chemscore.ZeroCoef>
-5.4800

> <Gold.Chemscore.Hbond>
1.0000

> <Gold.Chemscore.Metal>
0.0000

> <Gold.Chemscore.Lipo>
103.4140

> <Gold.Chemscore.Internal_Hbond>
0.0000

> <Gold.Chemscore.DEClash>
0.0401

> <Gold.Chemscore.DEInternal>
0.2513

> <Gold.Chemscore.Rot>
2.5124

> <Gold.Chemscore.Internal.Correction>
   9.000000E+99

> <Gold.Chemscore.Hbonds>
donor molecule, donor type, donor heavy atom, donor atom, acceptor molecule, acceptor atom, score
      P1  H 10752 10765       L1    19  1.00

> <Gold.Chemscore.Hbond.Weighted>
-3.3400

> <Gold.Chemscore.Metal.Weighted>
-0.0000

> <Gold.Chemscore.Lipo.Weighted>
-12.0994

> <Gold.Chemscore.Internal_Hbond.Weighted>
0.0000

> <Gold.Chemscore.DEClash.Weighted>
0.0401

> <Gold.Chemscore.DEInternal.Weighted>
0.2513

> <Gold.Chemscore.Rot.Weighted>
6.4318

> <Gold.Chemscore.Internal.Correction.Weighted>
   9.000000E+99

> <Gold.Protein.RotatedTorsions>
[ 6907 6896 6895 6894 ] final  -65.51 input  -60.11 | X-H torsion
[ 7974 7965 7964 7962 ] final  -64.88 input  175.53 | X-H torsion
[ 8008 7997 7996 7995 ] final  141.76 input   59.86 | X-H torsion
[ 10167 10162 10161 10158 ] final -108.98 input  -65.29 | X-H torsion
[ 10718 10713 10712 10709 ] final   66.23 input   66.30 | X-H torsion
[ 10763 10752 10751 10750 ] final  -97.61 input  -60.55 | X-H torsion
[ 11005 11000 10999 10996 ] final  -16.63 input  -57.11 | X-H torsion

> <Gold.Protein.ActiveResidues>
 VAL166  LYS551  ARG553  GLY616  TRP617  ASP618  TYR619  PRO620  LYS621  CYS622 
 ASP623  PHE694  ASN695  SER759  ASP760  ASP761  ALA762  ILE779  LEU786  VAL792 
 PHE793  MET794  SER795  GLU796  ALA797  LYS798  CYS799  TRP800  GLU811  SER814 

> <Gold.Protein.RotatedAtoms>
  150.7520  134.6151  159.6105 H   0  0  0  0  0  0  0  0  0  0  0  0  # atno 6907 bound_to 6896
  152.3473  134.7050  160.0255 H   0  0  0  0  0  0  0  0  0  0  0  0  # atno 6908 bound_to 6896
  151.7482  133.3290  159.3421 H   0  0  0  0  0  0  0  0  0  0  0  0  # atno 6909 bound_to 6896
  145.7612  140.8860  143.0429 H   0  0  0  0  0  0  0  0  0  0  0  0  # atno 7974 bound_to 7965
  156.2960  140.2306  156.4618 H   0  0  0  0  0  0  0  0  0  0  0  0  # atno 8008 bound_to 7997
  154.8012  140.0448  157.1295 H   0  0  0  0  0  0  0  0  0  0  0  0  # atno 8009 bound_to 7997
  154.9531  140.3044  155.5069 H   0  0  0  0  0  0  0  0  0  0  0  0  # atno 8010 bound_to 7997
  140.1602  143.4126  152.1431 H   0  0  0  0  0  0  0  0  0  0  0  0  # atno 10167 bound_to 10162
  157.6156  130.9257  150.0082 H   0  0  0  0  0  0  0  0  0  0  0  0  # atno 10718 bound_to 10713
  154.7343  135.5040  153.9015 H   0  0  0  0  0  0  0  0  0  0  0  0  # atno 10763 bound_to 10752
  153.0980  135.6677  153.9735 H   0  0  0  0  0  0  0  0  0  0  0  0  # atno 10764 bound_to 10752
  153.9529  135.3056  155.3417 H   0  0  0  0  0  0  0  0  0  0  0  0  # atno 10765 bound_to 10752
  140.8088  133.8157  155.9542 H   0  0  0  0  0  0  0  0  0  0  0  0  # atno 11005 bound_to 11000
  144.6830  139.9725  143.7482 LP  0  0  0  0  0  0  0  0  0  0  0  0  # atno 17320 bound_to 7965
  146.0262  139.3294  143.0783 LP  0  0  0  0  0  0  0  0  0  0  0  0  # atno 17321 bound_to 7965
  139.5384  144.7233  151.4814 LP  0  0  0  0  0  0  0  0  0  0  0  0  # atno 17342 bound_to 10162
  140.6647  143.8422  150.6928 LP  0  0  0  0  0  0  0  0  0  0  0  0  # atno 17343 bound_to 10162
  156.1277  130.3644  149.9783 LP  0  0  0  0  0  0  0  0  0  0  0  0  # atno 17370 bound_to 10713
  156.7850  130.9235  151.3646 LP  0  0  0  0  0  0  0  0  0  0  0  0  # atno 17371 bound_to 10713
  140.9220  134.2130  157.4920 LP  0  0  0  0  0  0  0  0  0  0  0  0  # atno 17394 bound_to 11000
  139.8715  134.9796  156.5043 LP  0  0  0  0  0  0  0  0  0  0  0  0  # atno 17395 bound_to 11000

$$$$
