AV-unprocessed.smi:34|AV-procd|sdf|235|dock4
  -GOLD-   2262015573D 1   1.00000     0.00000
 Structure written by MMmdl.
 54 58  0  0  0  0  0  0  0  0  2 V2000
  155.1109  139.8945  161.5860 O   0  0  0  0  0  0  0  0  0  0  0  0
  154.4801  140.2592  160.5913 C   0  0  0  0  0  0  0  0  0  0  0  0
  154.4749  139.6984  159.3552 N   0  5  0  0  0  0  0  0  0  0  0  0
  154.0236  138.4450  159.1954 C   0  0  0  0  0  0  0  0  0  0  0  0
  154.5401  137.4292  159.9340 N   0  0  0  0  0  0  0  0  0  0  0  0
  154.0847  136.1805  159.7794 C   0  0  0  0  0  0  0  0  0  0  0  0
  153.1350  135.7280  158.9545 N   0  0  0  0  0  0  0  0  0  0  0  0
  152.6175  136.7388  158.1971 C   0  0  0  0  0  0  0  0  0  0  0  0
  153.0111  138.1074  158.2559 C   0  0  0  0  0  0  0  0  0  0  0  0
  152.2895  138.8659  157.3453 N   0  0  0  0  0  0  0  0  0  0  0  0
  151.5050  137.9445  156.7898 C   0  0  0  0  0  0  0  0  0  0  0  0
  151.6228  136.6777  157.2373 N   0  0  0  0  0  0  0  0  0  0  0  0
  150.8699  135.4661  156.8000 C   0  0  2  0  0  0  0  0  0  0  0  0
  150.8634  135.4639  155.4043 O   0  0  0  0  0  0  0  0  0  0  0  0
  149.5859  135.0661  154.9222 C   0  0  1  0  0  0  0  0  0  0  0  0
  149.5335  133.5326  154.8210 C   0  0  0  0  0  0  0  0  0  0  0  0
  148.4978  133.1536  153.9295 O   0  0  0  0  0  0  0  0  0  0  0  0
  148.0114  131.8965  153.9588 C   0  0  0  0  0  0  0  0  0  0  0  0
  148.3827  131.0403  154.7645 O   0  0  0  0  0  0  0  0  0  0  0  0
  146.9809  131.6468  152.9100 C   0  0  0  0  0  0  0  0  0  0  0  0
  146.6849  132.6649  151.9737 C   0  0  0  0  0  0  0  0  0  0  0  0
  145.7143  132.4598  150.9739 C   0  0  0  0  0  0  0  0  0  0  0  0
  145.0290  131.2334  150.8971 C   0  0  0  0  0  0  0  0  0  0  0  0
  145.3155  130.2120  151.8216 C   0  0  0  0  0  0  0  0  0  0  0  0
  146.2849  130.4157  152.8230 C   0  0  0  0  0  0  0  0  0  0  0  0
  148.6279  135.6270  155.9736 C   0  0  2  0  0  0  0  0  0  0  0  0
  148.3692  136.9056  155.6952 F   0  0  0  0  0  0  0  0  0  0  0  0
  149.4091  135.5389  157.2782 C   0  0  1  0  0  0  0  0  0  0  0  0
  149.0303  134.3855  158.0025 O   0  0  0  0  0  0  0  0  0  0  0  0
  153.6487  141.5104  160.6806 C   0  0  0  0  0  0  0  0  0  0  0  0
  153.0823  142.0595  159.5077 C   0  0  0  0  0  0  0  0  0  0  0  0
  152.3234  143.2447  159.5655 C   0  0  0  0  0  0  0  0  0  0  0  0
  152.1319  143.8997  160.7965 C   0  0  0  0  0  0  0  0  0  0  0  0
  152.7023  143.3698  161.9690 C   0  0  0  0  0  0  0  0  0  0  0  0
  153.4600  142.1837  161.9122 C   0  0  0  0  0  0  0  0  0  0  0  0
  154.5481  135.4357  160.4093 H   0  0  0  0  0  0  0  0  0  0  0  0
  150.7997  138.2060  156.0150 H   0  0  0  0  0  0  0  0  0  0  0  0
  151.4241  134.6125  157.1925 H   0  0  0  0  0  0  0  0  0  0  0  0
  149.3908  135.5052  153.9427 H   0  0  0  0  0  0  0  0  0  0  0  0
  150.4929  133.1357  154.4862 H   0  0  0  0  0  0  0  0  0  0  0  0
  149.3247  133.1004  155.8004 H   0  0  0  0  0  0  0  0  0  0  0  0
  147.1976  133.6152  152.0133 H   0  0  0  0  0  0  0  0  0  0  0  0
  145.4959  133.2453  150.2653 H   0  0  0  0  0  0  0  0  0  0  0  0
  144.2848  131.0764  150.1303 H   0  0  0  0  0  0  0  0  0  0  0  0
  144.7909  129.2698  151.7630 H   0  0  0  0  0  0  0  0  0  0  0  0
  146.4808  129.6111  153.5167 H   0  0  0  0  0  0  0  0  0  0  0  0
  147.6645  135.1160  156.0004 H   0  0  0  0  0  0  0  0  0  0  0  0
  149.2387  136.4114  157.9112 H   0  0  0  0  0  0  0  0  0  0  0  0
  148.4172  133.8898  157.4819 H   0  0  0  0  0  0  0  0  0  0  0  0
  153.2227  141.5700  158.5548 H   0  0  0  0  0  0  0  0  0  0  0  0
  151.8903  143.6518  158.6641 H   0  0  0  0  0  0  0  0  0  0  0  0
  151.5520  144.8096  160.8405 H   0  0  0  0  0  0  0  0  0  0  0  0
  152.5621  143.8751  162.9131 H   0  0  0  0  0  0  0  0  0  0  0  0
  153.8986  141.7992  162.8219 H   0  0  0  0  0  0  0  0  0  0  0  0
  1  2  2  0  0  0  0
  2  3  1  0  0  0  0
  2 30  1  0  0  0  0
  3  4  1  0  0  0  0
  4  9  1  0  0  0  0
  4  5  2  0  0  0  0
  5  6  1  0  0  0  0
  6  7  2  0  0  0  0
  6 36  1  0  0  0  0
  7  8  1  0  0  0  0
  8 12  1  0  0  0  0
  8  9  2  0  0  0  0
  9 10  1  0  0  0  0
 10 11  2  0  0  0  0
 11 12  1  0  0  0  0
 11 37  1  0  0  0  0
 12 13  1  0  0  0  0
 13 28  1  0  0  0  0
 13 14  1  0  0  0  0
 13 38  1  0  0  0  0
 14 15  1  0  0  0  0
 15 16  1  0  0  0  0
 15 26  1  0  0  0  0
 15 39  1  0  0  0  0
 16 17  1  0  0  0  0
 16 40  1  0  0  0  0
 16 41  1  0  0  0  0
 17 18  1  0  0  0  0
 18 19  2  0  0  0  0
 18 20  1  0  0  0  0
 20 25  1  0  0  0  0
 20 21  2  0  0  0  0
 21 22  1  0  0  0  0
 21 42  1  0  0  0  0
 22 23  2  0  0  0  0
 22 43  1  0  0  0  0
 23 24  1  0  0  0  0
 23 44  1  0  0  0  0
 24 25  2  0  0  0  0
 24 45  1  0  0  0  0
 25 46  1  0  0  0  0
 26 27  1  0  0  0  0
 26 28  1  0  0  0  0
 26 47  1  0  0  0  0
 28 29  1  0  0  0  0
 28 48  1  0  0  0  0
 29 49  1  0  0  0  0
 30 35  1  0  0  0  0
 30 31  2  0  0  0  0
 31 32  1  0  0  0  0
 31 50  1  0  0  0  0
 32 33  2  0  0  0  0
 32 51  1  0  0  0  0
 33 34  1  0  0  0  0
 33 52  1  0  0  0  0
 34 35  2  0  0  0  0
 34 53  1  0  0  0  0
 35 54  1  0  0  0  0
M  CHG  1   3  -1
M  END
> <s_m_source_file>
AV-unprocessed.smi

> <i_m_source_file_index>
34

> <i_lp_mmshare_version>
43012

> <i_f3d_flags>
0

> <s_epik_input>
W2NIXTFbY0hdW2NIXVtjSF1bY0hdYzFDKD1PKVtOSF1jKG5bY0hdbjIpYyhjMjMpbltjSF1uM1tDQEBIXTRPW0NASF0oW0NAQEhdKEYpW0NASF00W09IXSlbQ0gyXU9DKD1PKWM1W2NIXVtjSF1bY0hdW2NIXVtjSF01

> <s_epik_cmdline>
J2VwaWtfcHl0aG9uJywgJy1waCcsICc3LjAnLCAnLXRuJywgJzgnLCAnLW1hJywgJzIwMCcsICctbWV0YWxfYmluZGluZycsICctaW1hZScsICc8aW5maWxlLm1hZT4nLCAnLW9tYWUnLCAnPG91dGZpbGUubWFlPic=

> <r_lp_tautomer_probability>
1

> <r_epik_Ionization_Penalty>
4.33227

> <r_epik_Ionization_Penalty_Charging>
3.41027

> <r_epik_Ionization_Penalty_Neutral>
0.922001

> <r_epik_State_Penalty>
3.41358

> <r_epik_Charging_Adjusted_Penalty>
6.82385

> <i_epik_Tot_Q>
-1

> <i_epik_Tot_abs_Q>
1

> <r_epik_Metal_State_Penalty>
0.496292

> <b_epik_Metal_Only>
1

> <s_epik_Chemistry_Notes>
This compound has an ester and may undergo hydrolysis at high or low pH. This compound contains an acetal/aminal-like group ( X-CH(R)-Y where X, Y are N, S, or O) that may be acid/base labile, releasing an aldehyde.

> <s_lp_Force_Field>
OPLS_2005

> <r_lp_Energy>
42.8672

> <b_lp_Chiralities_Consistent>
1

> <s_lp_Variant>
AV-unprocessed.smi:34-21

> <Gold.Version>
5.8.1

> <Gold.Id.Protein>
6NUR|6NUR_protein|mol2

> <Gold.PLP.Fitness>
67.0537

> <Gold.PLP.PLP>
-58.0272

> <Gold.PLP.part.hbond>
-4.0000

> <Gold.PLP.part.metal>
0.0000

> <Gold.PLP.part.buried>
-7.8392

> <Gold.PLP.part.nonpolar>
-47.0811

> <Gold.PLP.part.repulsive>
0.3024

> <Gold.PLP.ligand.clash>
0.1667

> <Gold.PLP.ligand.torsion>
1.6834

> <Gold.PLP.Chemscore.Hbond>
4.0781

> <Gold.PLP.Chemscore.CHOScore>
0.0000

> <Gold.PLP.Chemscore.Metal>
0.0000

> <Gold.Chemscore.Hbonds>
donor molecule, donor type, donor heavy atom, donor atom, acceptor molecule, acceptor atom, score
      P1  H  6896  6907       L1    29  0.65
      P1  H  6896  6908       L1     7  0.64
      P1  H  7997  8010       L1     3  1.33
      P1  H 10752 10763       L1    14  0.44

> <Gold.PLP.Chemscore.Internal.Correction>
0.3258

> <Gold.Rescore>
     Score         DG    S(hbond)    S(metal)    S(lipo)     H(rot)  DE(clash)    DE(int)     intcor
     19.39     -22.21       2.18        0.00     139.67       2.69       0.17       2.65       ----

> <Gold.Chemscore.Fitness>
19.3921

> <Gold.Chemscore.DG>
-22.2122

> <Gold.Chemscore.ZeroCoef>
-5.4800

> <Gold.Chemscore.Hbond>
2.1822

> <Gold.Chemscore.Metal>
0.0000

> <Gold.Chemscore.Lipo>
139.6676

> <Gold.Chemscore.Internal_Hbond>
0.0000

> <Gold.Chemscore.DEClash>
0.1655

> <Gold.Chemscore.DEInternal>
2.6547

> <Gold.Chemscore.Rot>
2.6944

> <Gold.Chemscore.Internal.Correction>
   9.000000E+99

> <Gold.Chemscore.Hbonds>
donor molecule, donor type, donor heavy atom, donor atom, acceptor molecule, acceptor atom, score
      P1  H  6896  6907       L1    29  0.15
      P1  H  6896  6908       L1     7  0.16
      P1  H  7997  8010       L1     3  0.15
      P1  H 10752 10763       L1    14  0.36

> <Gold.Chemscore.Hbond.Weighted>
-7.2887

> <Gold.Chemscore.Metal.Weighted>
-0.0000

> <Gold.Chemscore.Lipo.Weighted>
-16.3411

> <Gold.Chemscore.Internal_Hbond.Weighted>
0.0000

> <Gold.Chemscore.DEClash.Weighted>
0.1655

> <Gold.Chemscore.DEInternal.Weighted>
2.6547

> <Gold.Chemscore.Rot.Weighted>
6.8975

> <Gold.Chemscore.Internal.Correction.Weighted>
   9.000000E+99

> <Gold.Protein.RotatedTorsions>
[ 6907 6896 6895 6894 ] final  -83.65 input  -60.11 | X-H torsion
[ 7974 7965 7964 7962 ] final   11.71 input  175.53 | X-H torsion
[ 8008 7997 7996 7995 ] final   -6.31 input   59.86 | X-H torsion
[ 10167 10162 10161 10158 ] final  -51.44 input  -65.29 | X-H torsion
[ 10718 10713 10712 10709 ] final   83.09 input   66.30 | X-H torsion
[ 10763 10752 10751 10750 ] final   53.29 input  -60.55 | X-H torsion
[ 11005 11000 10999 10996 ] final -140.14 input  -57.11 | X-H torsion

> <Gold.Protein.ActiveResidues>
 VAL166  LYS551  ARG553  GLY616  TRP617  ASP618  TYR619  PRO620  LYS621  CYS622 
 ASP623  PHE694  ASN695  SER759  ASP760  ASP761  ALA762  ILE779  LEU786  VAL792 
 PHE793  MET794  SER795  GLU796  ALA797  LYS798  CYS799  TRP800  GLU811  SER814 

> <Gold.Protein.RotatedAtoms>
  150.6883  134.3479  159.4896 H   0  0  0  0  0  0  0  0  0  0  0  0  # atno 6907 bound_to 6896
  152.1324  134.9122  160.0567 H   0  0  0  0  0  0  0  0  0  0  0  0  # atno 6908 bound_to 6896
  152.0287  133.3893  159.4325 H   0  0  0  0  0  0  0  0  0  0  0  0  # atno 6909 bound_to 6896
  146.2366  139.9445  142.8479 H   0  0  0  0  0  0  0  0  0  0  0  0  # atno 7974 bound_to 7965
  154.5950  140.2436  155.7868 H   0  0  0  0  0  0  0  0  0  0  0  0  # atno 8008 bound_to 7997
  156.2273  140.2978  156.0053 H   0  0  0  0  0  0  0  0  0  0  0  0  # atno 8009 bound_to 7997
  155.2308  140.0403  157.2952 H   0  0  0  0  0  0  0  0  0  0  0  0  # atno 8010 bound_to 7997
  140.6588  143.2619  151.4504 H   0  0  0  0  0  0  0  0  0  0  0  0  # atno 10167 bound_to 10162
  157.6871  131.0076  150.2471 H   0  0  0  0  0  0  0  0  0  0  0  0  # atno 10718 bound_to 10713
  152.9794  135.5784  154.4717 H   0  0  0  0  0  0  0  0  0  0  0  0  # atno 10763 bound_to 10752
  154.4279  135.2773  155.1934 H   0  0  0  0  0  0  0  0  0  0  0  0  # atno 10764 bound_to 10752
  154.3655  135.6179  153.5766 H   0  0  0  0  0  0  0  0  0  0  0  0  # atno 10765 bound_to 10752
  140.8451  134.2354  157.4790 H   0  0  0  0  0  0  0  0  0  0  0  0  # atno 11005 bound_to 11000
  145.1921  140.9816  143.4205 LP  0  0  0  0  0  0  0  0  0  0  0  0  # atno 17320 bound_to 7965
  144.9848  139.3747  143.6244 LP  0  0  0  0  0  0  0  0  0  0  0  0  # atno 17321 bound_to 7965
  139.5817  144.1696  152.1976 LP  0  0  0  0  0  0  0  0  0  0  0  0  # atno 17342 bound_to 10162
  140.1023  144.5529  150.6981 LP  0  0  0  0  0  0  0  0  0  0  0  0  # atno 17343 bound_to 10162
  156.3074  130.3767  149.7693 LP  0  0  0  0  0  0  0  0  0  0  0  0  # atno 17370 bound_to 10713
  156.5304  130.8255  151.3235 LP  0  0  0  0  0  0  0  0  0  0  0  0  # atno 17371 bound_to 10713
  139.8703  134.9655  156.4532 LP  0  0  0  0  0  0  0  0  0  0  0  0  # atno 17394 bound_to 11000
  140.8852  133.7888  155.9510 LP  0  0  0  0  0  0  0  0  0  0  0  0  # atno 17395 bound_to 11000

$$$$
