AV-unprocessed.smi:297|AV-procd|sdf|2260|dock10
  -GOLD-   2262022143D 1   1.00000     0.00000
 Structure written by MMmdl.
 29 30  0  0  0  0  0  0  0  0  1 V2000
  151.7079  146.0446  159.8369 N   0  0  0  0  0  0  0  0  0  0  0  0
  151.9082  144.9200  159.6507 C   0  0  0  0  0  0  0  0  0  0  0  0
  152.1601  143.5061  159.4164 C   0  0  0  0  0  0  0  0  0  0  0  0
  151.7199  142.9981  158.2440 N   0  0  0  0  0  0  0  0  0  0  0  0
  151.9252  141.6881  157.9611 C   0  0  0  0  0  0  0  0  0  0  0  0
  151.4558  141.1880  156.7271 N   0  0  0  0  0  0  0  0  0  0  0  0
  150.0660  141.4981  156.4045 C   0  0  0  0  0  0  0  0  0  0  0  0
  149.7817  141.1890  154.9261 C   0  0  0  0  0  0  0  0  0  0  0  0
  150.1219  139.8360  154.6454 O   0  0  0  0  0  0  0  0  0  0  0  0
  151.5094  139.5709  154.8543 C   0  0  2  0  0  0  0  0  0  0  0  0
  151.8075  138.1237  154.4354 C   0  0  0  0  0  0  0  0  0  0  0  0
  150.7963  137.4116  153.9298 N   0  0  0  0  0  0  0  0  0  0  0  0
  152.9383  137.6532  154.5464 O   0  0  0  0  0  0  0  0  0  0  0  0
  151.8576  139.8374  156.3362 C   0  0  0  0  0  0  0  0  0  0  0  0
  152.5846  140.8311  158.8726 C   0  0  0  0  0  0  0  0  0  0  0  0
  153.0445  141.3553  160.0947 C   0  0  0  0  0  0  0  0  0  0  0  0
  152.8343  142.7175  160.3792 C   0  0  0  0  0  0  0  0  0  0  0  0
  153.3974  143.3681  161.8809 Cl  0  0  0  0  0  0  0  0  0  0  0  0
  149.4147  140.8992  157.0426 H   0  0  0  0  0  0  0  0  0  0  0  0
  149.8272  142.5425  156.5998 H   0  0  0  0  0  0  0  0  0  0  0  0
  148.7246  141.3407  154.7082 H   0  0  0  0  0  0  0  0  0  0  0  0
  150.3413  141.8605  154.2728 H   0  0  0  0  0  0  0  0  0  0  0  0
  152.1001  140.2267  154.2123 H   0  0  0  0  0  0  0  0  0  0  0  0
  150.9527  136.4583  153.6356 H   0  0  0  0  0  0  0  0  0  0  0  0
  149.8826  137.8311  153.8372 H   0  0  0  0  0  0  0  0  0  0  0  0
  152.9319  139.7169  156.4844 H   0  0  0  0  0  0  0  0  0  0  0  0
  151.3556  139.1136  156.9805 H   0  0  0  0  0  0  0  0  0  0  0  0
  152.7292  139.7829  158.6577 H   0  0  0  0  0  0  0  0  0  0  0  0
  153.5494  140.7178  160.8054 H   0  0  0  0  0  0  0  0  0  0  0  0
  1  2  3  0  0  0  0
  2  3  1  0  0  0  0
  3 17  1  0  0  0  0
  3  4  2  0  0  0  0
  4  5  1  0  0  0  0
  5  6  1  0  0  0  0
  5 15  2  0  0  0  0
  6 14  1  0  0  0  0
  6  7  1  0  0  0  0
  7  8  1  0  0  0  0
  7 19  1  0  0  0  0
  7 20  1  0  0  0  0
  8  9  1  0  0  0  0
  8 21  1  0  0  0  0
  8 22  1  0  0  0  0
  9 10  1  0  0  0  0
 10 11  1  0  0  0  0
 10 14  1  0  0  0  0
 10 23  1  0  0  0  0
 11 12  1  0  0  0  0
 11 13  2  0  0  0  0
 12 24  1  0  0  0  0
 12 25  1  0  0  0  0
 14 26  1  0  0  0  0
 14 27  1  0  0  0  0
 15 16  1  0  0  0  0
 15 28  1  0  0  0  0
 16 17  2  0  0  0  0
 16 29  1  0  0  0  0
 17 18  1  0  0  0  0
M  END
> <s_m_source_file>
AV-unprocessed.smi

> <i_m_source_file_index>
297

> <i_lp_mmshare_version>
43012

> <i_f3d_flags>
0

> <s_epik_input>
TiNDYzFuYyhbY0hdW2NIXWMxQ2wpTjJbQ0gyXVtDSDJdT1tDQEhdKFtDSDJdMilDKD1PKVtOSDJd

> <s_epik_cmdline>
J2VwaWtfcHl0aG9uJywgJy1waCcsICc3LjAnLCAnLXRuJywgJzgnLCAnLW1hJywgJzIwMCcsICctbWV0YWxfYmluZGluZycsICctaW1hZScsICc8aW5maWxlLm1hZT4nLCAnLW9tYWUnLCAnPG91dGZpbGUubWFlPic=

> <r_lp_tautomer_probability>
1

> <r_epik_Ionization_Penalty>
8.82403e-08

> <r_epik_Ionization_Penalty_Charging>
0

> <r_epik_Ionization_Penalty_Neutral>
8.82403e-08

> <r_epik_State_Penalty>
-0

> <r_epik_Charging_Adjusted_Penalty>
0

> <i_epik_Tot_Q>
0

> <i_epik_Tot_abs_Q>
0

> <r_epik_Metal_State_Penalty>
-0

> <b_epik_Metal_Only>
0

> <s_lp_Force_Field>
OPLS_2005

> <r_lp_Energy>
18.7144

> <b_lp_Chiralities_Consistent>
1

> <s_lp_Variant>
AV-unprocessed.smi:297-2

> <Gold.Version>
5.8.1

> <Gold.Id.Protein>
6NUR|6NUR_protein|mol2

> <Gold.PLP.Fitness>
42.9625

> <Gold.PLP.PLP>
-40.6732

> <Gold.PLP.part.hbond>
-5.5520

> <Gold.PLP.part.metal>
0.0000

> <Gold.PLP.part.buried>
-3.3978

> <Gold.PLP.part.nonpolar>
-32.2222

> <Gold.PLP.part.repulsive>
0.5569

> <Gold.PLP.ligand.clash>
0.0000

> <Gold.PLP.ligand.torsion>
0.1863

> <Gold.PLP.Chemscore.Hbond>
0.7699

> <Gold.PLP.Chemscore.CHOScore>
0.0000

> <Gold.PLP.Chemscore.Metal>
0.0000

> <Gold.Chemscore.Hbonds>
donor molecule, donor type, donor heavy atom, donor atom, acceptor molecule, acceptor atom, score
      L1  H    12    24       P1  7949  0.22
      P1  H 10752 10765       L1    13  0.35

> <Gold.PLP.Chemscore.Internal.Correction>
0.3522

> <Gold.Rescore>
     Score         DG    S(hbond)    S(metal)    S(lipo)     H(rot)  DE(clash)    DE(int)     intcor
     13.73     -14.10       1.12        0.00      74.61       1.50       0.08       0.28       ----

> <Gold.Chemscore.Fitness>
13.7347

> <Gold.Chemscore.DG>
-14.1021

> <Gold.Chemscore.ZeroCoef>
-5.4800

> <Gold.Chemscore.Hbond>
1.1180

> <Gold.Chemscore.Metal>
0.0000

> <Gold.Chemscore.Lipo>
74.6130

> <Gold.Chemscore.Internal_Hbond>
0.0000

> <Gold.Chemscore.DEClash>
0.0843

> <Gold.Chemscore.DEInternal>
0.2831

> <Gold.Chemscore.Rot>
1.5006

> <Gold.Chemscore.Internal.Correction>
   9.000000E+99

> <Gold.Chemscore.Hbonds>
donor molecule, donor type, donor heavy atom, donor atom, acceptor molecule, acceptor atom, score
      L1  H    12    24       P1  7949  0.05
      P1  H 10752 10765       L1    13  0.29

> <Gold.Chemscore.Hbond.Weighted>
-3.7340

> <Gold.Chemscore.Metal.Weighted>
-0.0000

> <Gold.Chemscore.Lipo.Weighted>
-8.7297

> <Gold.Chemscore.Internal_Hbond.Weighted>
0.0000

> <Gold.Chemscore.DEClash.Weighted>
0.0843

> <Gold.Chemscore.DEInternal.Weighted>
0.2831

> <Gold.Chemscore.Rot.Weighted>
3.8416

> <Gold.Chemscore.Internal.Correction.Weighted>
   9.000000E+99

> <Gold.Protein.RotatedTorsions>
[ 6907 6896 6895 6894 ] final -109.34 input  -60.11 | X-H torsion
[ 7974 7965 7964 7962 ] final  -53.70 input  175.53 | X-H torsion
[ 8008 7997 7996 7995 ] final  160.61 input   59.86 | X-H torsion
[ 10167 10162 10161 10158 ] final  -99.79 input  -65.29 | X-H torsion
[ 10718 10713 10712 10709 ] final  174.02 input   66.30 | X-H torsion
[ 10763 10752 10751 10750 ] final  147.27 input  -60.55 | X-H torsion
[ 11005 11000 10999 10996 ] final   48.36 input  -57.11 | X-H torsion

> <Gold.Protein.ActiveResidues>
 VAL166  LYS551  ARG553  GLY616  TRP617  ASP618  TYR619  PRO620  LYS621  CYS622 
 ASP623  PHE694  ASN695  SER759  ASP760  ASP761  ALA762  ILE779  LEU786  VAL792 
 PHE793  MET794  SER795  GLU796  ALA797  LYS798  CYS799  TRP800  GLU811  SER814 

> <Gold.Protein.RotatedAtoms>
  150.7556  133.9543  159.3495 H   0  0  0  0  0  0  0  0  0  0  0  0  # atno 6907 bound_to 6896
  151.7463  135.0841  160.0333 H   0  0  0  0  0  0  0  0  0  0  0  0  # atno 6908 bound_to 6896
  152.3495  133.6125  159.5970 H   0  0  0  0  0  0  0  0  0  0  0  0  # atno 6909 bound_to 6896
  145.8939  140.8049  142.9777 H   0  0  0  0  0  0  0  0  0  0  0  0  # atno 7974 bound_to 7965
  156.2160  140.1799  156.7587 H   0  0  0  0  0  0  0  0  0  0  0  0  # atno 8008 bound_to 7997
  154.5792  140.0669  156.9109 H   0  0  0  0  0  0  0  0  0  0  0  0  # atno 8009 bound_to 7997
  155.2532  140.3330  155.4282 H   0  0  0  0  0  0  0  0  0  0  0  0  # atno 8010 bound_to 7997
  140.2588  143.3422  152.0646 H   0  0  0  0  0  0  0  0  0  0  0  0  # atno 10167 bound_to 10162
  156.9558  131.0045  151.2938 H   0  0  0  0  0  0  0  0  0  0  0  0  # atno 10718 bound_to 10713
  154.0357  135.2894  155.3362 H   0  0  0  0  0  0  0  0  0  0  0  0  # atno 10763 bound_to 10752
  154.6961  135.5207  153.8463 H   0  0  0  0  0  0  0  0  0  0  0  0  # atno 10764 bound_to 10752
  153.0621  135.6617  154.0565 H   0  0  0  0  0  0  0  0  0  0  0  0  # atno 10765 bound_to 10752
  140.1198  134.4845  155.8607 H   0  0  0  0  0  0  0  0  0  0  0  0  # atno 11005 bound_to 11000
  144.6732  140.1572  143.7425 LP  0  0  0  0  0  0  0  0  0  0  0  0  # atno 17320 bound_to 7965
  145.8875  139.2357  143.1569 LP  0  0  0  0  0  0  0  0  0  0  0  0  # atno 17321 bound_to 7965
  139.5023  144.6732  151.6192 LP  0  0  0  0  0  0  0  0  0  0  0  0  # atno 17342 bound_to 10162
  140.5983  143.9657  150.6369 LP  0  0  0  0  0  0  0  0  0  0  0  0  # atno 17343 bound_to 10162
  157.5691  130.8298  149.8368 LP  0  0  0  0  0  0  0  0  0  0  0  0  # atno 17370 bound_to 10713
  156.0343  130.3755  150.1602 LP  0  0  0  0  0  0  0  0  0  0  0  0  # atno 17371 bound_to 10713
  141.2149  133.6756  156.6866 LP  0  0  0  0  0  0  0  0  0  0  0  0  # atno 17394 bound_to 11000
  140.2980  134.8186  157.4074 LP  0  0  0  0  0  0  0  0  0  0  0  0  # atno 17395 bound_to 11000

$$$$
