AV-unprocessed.smi:1780|AV-procd|sdf|7186|dock7
  -GOLD-   22720 8423D 1   1.00000     0.00000
 Structure written by MMmdl.
 44 45  0  0  0  0  0  0  0  0  2 V2000
  151.2083  141.2081  157.9551 C   0  0  0  0  0  0  0  0  0  0  0  0
  151.5798  141.4232  156.4830 C   0  0  0  0  0  0  0  0  0  0  0  0
  151.5994  140.1758  155.7438 N   0  0  0  0  0  0  0  0  0  0  0  0
  150.5599  139.2912  155.5340 C   0  0  0  0  0  0  0  0  0  0  0  0
  151.0829  138.2791  154.7795 C   0  0  0  0  0  0  0  0  0  0  0  0
  150.4534  137.1107  154.2806 N   0  0  0  0  0  0  0  0  0  0  0  0
  150.3582  135.9155  154.8852 C   0  0  0  0  0  0  0  0  0  0  0  0
  150.8162  135.6428  155.9951 O   0  0  0  0  0  0  0  0  0  0  0  0
  149.6851  135.0370  154.1289 N   0  0  0  0  0  0  0  0  0  0  0  0
  149.3951  133.6582  154.5118 C   0  0  0  0  0  0  0  0  0  0  0  0
  148.7094  132.8423  153.3827 C   0  0  1  0  0  0  0  0  0  0  0  0
  148.2018  131.4884  153.9366 C   0  0  0  0  0  0  0  0  0  0  0  0
  147.6358  133.6604  152.7286 N   0  3  0  0  0  0  0  0  0  0  0  0
  146.9854  132.9480  151.5947 C   0  0  0  0  0  0  0  0  0  0  0  0
  145.9616  133.8518  150.8893 C   0  0  0  0  0  0  0  0  0  0  0  0
  144.9822  134.2750  151.8260 O   0  0  0  0  0  0  0  0  0  0  0  0
  145.5593  135.0427  152.8716 C   0  0  0  0  0  0  0  0  0  0  0  0
  146.5879  134.1960  153.6418 C   0  0  0  0  0  0  0  0  0  0  0  0
  152.4461  138.6149  154.5725 C   0  0  0  0  0  0  0  0  0  0  0  0
  152.7503  139.7642  155.1558 N   0  0  0  0  0  0  0  0  0  0  0  0
  151.1896  142.1564  158.4923 H   0  0  0  0  0  0  0  0  0  0  0  0
  151.9282  140.5585  158.4540 H   0  0  0  0  0  0  0  0  0  0  0  0
  150.2225  140.7520  158.0495 H   0  0  0  0  0  0  0  0  0  0  0  0
  150.8651  142.0981  156.0105 H   0  0  0  0  0  0  0  0  0  0  0  0
  152.5605  141.8942  156.4031 H   0  0  0  0  0  0  0  0  0  0  0  0
  149.5712  139.4630  155.9333 H   0  0  0  0  0  0  0  0  0  0  0  0
  150.0230  137.1987  153.3717 H   0  0  0  0  0  0  0  0  0  0  0  0
  149.3459  135.3437  153.2285 H   0  0  0  0  0  0  0  0  0  0  0  0
  150.3375  133.1837  154.7871 H   0  0  0  0  0  0  0  0  0  0  0  0
  148.7959  133.6833  155.4210 H   0  0  0  0  0  0  0  0  0  0  0  0
  149.4506  132.6076  152.6171 H   0  0  0  0  0  0  0  0  0  0  0  0
  148.9969  130.9288  154.4289 H   0  0  0  0  0  0  0  0  0  0  0  0
  147.8328  130.8352  153.1457 H   0  0  0  0  0  0  0  0  0  0  0  0
  147.4033  131.6296  154.6658 H   0  0  0  0  0  0  0  0  0  0  0  0
  147.7183  132.6197  150.8605 H   0  0  0  0  0  0  0  0  0  0  0  0
  146.4884  132.0499  151.9648 H   0  0  0  0  0  0  0  0  0  0  0  0
  146.4492  134.7149  150.4330 H   0  0  0  0  0  0  0  0  0  0  0  0
  145.4674  133.3039  150.0870 H   0  0  0  0  0  0  0  0  0  0  0  0
  146.0227  135.9429  152.4644 H   0  0  0  0  0  0  0  0  0  0  0  0
  144.7669  135.3715  153.5443 H   0  0  0  0  0  0  0  0  0  0  0  0
  146.0880  133.3699  154.1501 H   0  0  0  0  0  0  0  0  0  0  0  0
  147.0270  134.8359  154.4065 H   0  0  0  0  0  0  0  0  0  0  0  0
  153.2084  138.0767  154.0289 H   0  0  0  0  0  0  0  0  0  0  0  0
  148.0976  134.4702  152.3400 H   0  0  0  0  0  0  0  0  0  0  0  0
  1  2  1  0  0  0  0
  1 21  1  0  0  0  0
  1 22  1  0  0  0  0
  1 23  1  0  0  0  0
  2  3  1  0  0  0  0
  2 24  1  0  0  0  0
  2 25  1  0  0  0  0
  3 20  1  0  0  0  0
  3  4  1  0  0  0  0
  4  5  2  0  0  0  0
  4 26  1  0  0  0  0
  5  6  1  0  0  0  0
  5 19  1  0  0  0  0
  6  7  1  0  0  0  0
  6 27  1  0  0  0  0
  7  8  2  0  0  0  0
  7  9  1  0  0  0  0
  9 10  1  0  0  0  0
  9 28  1  0  0  0  0
 10 11  1  0  0  0  0
 10 29  1  0  0  0  0
 10 30  1  0  0  0  0
 11 12  1  0  0  0  0
 11 13  1  0  0  0  0
 11 31  1  0  0  0  0
 12 32  1  0  0  0  0
 12 33  1  0  0  0  0
 12 34  1  0  0  0  0
 13 18  1  0  0  0  0
 13 14  1  0  0  0  0
 13 44  1  0  0  0  0
 14 15  1  0  0  0  0
 14 35  1  0  0  0  0
 14 36  1  0  0  0  0
 15 16  1  0  0  0  0
 15 37  1  0  0  0  0
 15 38  1  0  0  0  0
 16 17  1  0  0  0  0
 17 18  1  0  0  0  0
 17 39  1  0  0  0  0
 17 40  1  0  0  0  0
 18 41  1  0  0  0  0
 18 42  1  0  0  0  0
 19 20  2  0  0  0  0
 19 43  1  0  0  0  0
M  CHG  1  13   1
M  END
> <s_m_source_file>
AV-unprocessed.smi

> <i_m_source_file_index>
1780

> <i_lp_mmshare_version>
43012

> <i_f3d_flags>
0

> <s_epik_input>
W0NIM11bQ0gyXW4xW2NIXWMoW2NIXW4xKVtOSF1DKD1PKVtOSF1bQ0gyXVtDQEhdKFtDSDNdKU4yW0NIMl1bQ0gyXU9bQ0gyXVtDSDJdMg==

> <s_epik_cmdline>
J2VwaWtfcHl0aG9uJywgJy1waCcsICc3LjAnLCAnLXRuJywgJzgnLCAnLW1hJywgJzIwMCcsICctbWV0YWxfYmluZGluZycsICctaW1hZScsICc8aW5maWxlLm1hZT4nLCAnLW9tYWUnLCAnPG91dGZpbGUubWFlPic=

> <r_lp_tautomer_probability>
1

> <r_epik_Ionization_Penalty>
0.64612

> <r_epik_Ionization_Penalty_Charging>
0.645968

> <r_epik_Ionization_Penalty_Neutral>
0.000152026

> <r_epik_State_Penalty>
0.664063

> <r_epik_Charging_Adjusted_Penalty>
1.31003

> <i_epik_Tot_Q>
1

> <i_epik_Tot_abs_Q>
1

> <r_epik_Metal_State_Penalty>
0.664075

> <b_epik_Metal_Only>
0

> <s_lp_Force_Field>
OPLS_2005

> <r_lp_Energy>
24.1412

> <b_lp_Chiralities_Consistent>
1

> <s_lp_Variant>
AV-unprocessed.smi:1780-4

> <Gold.Version>
5.8.1

> <Gold.Id.Protein>
6NUR|6NUR_protein|mol2

> <Gold.PLP.Fitness>
47.1548

> <Gold.PLP.PLP>
-34.0393

> <Gold.PLP.part.hbond>
-5.4085

> <Gold.PLP.part.metal>
0.0000

> <Gold.PLP.part.buried>
-2.9434

> <Gold.PLP.part.nonpolar>
-26.4259

> <Gold.PLP.part.repulsive>
0.2420

> <Gold.PLP.ligand.clash>
0.0000

> <Gold.PLP.ligand.torsion>
0.8779

> <Gold.PLP.Chemscore.Hbond>
4.9270

> <Gold.PLP.Chemscore.CHOScore>
0.0000

> <Gold.PLP.Chemscore.Metal>
0.0000

> <Gold.Chemscore.Hbonds>
donor molecule, donor type, donor heavy atom, donor atom, acceptor molecule, acceptor atom, score
      L1  H     6    27       P1  7948  0.90
      L1  H     9    28       P1  7948  0.75
      L1  H    13    44       P1  7948  1.90
      P1  H  7997  8010       L1    20  1.00

> <Gold.PLP.Chemscore.Internal.Correction>
0.0903

> <Gold.Rescore>
     Score         DG    S(hbond)    S(metal)    S(lipo)     H(rot)  DE(clash)    DE(int)     intcor
     17.87     -18.89       3.08        0.00      63.20       1.67       0.15       0.87       ----

> <Gold.Chemscore.Fitness>
17.8714

> <Gold.Chemscore.DG>
-18.8936

> <Gold.Chemscore.ZeroCoef>
-5.4800

> <Gold.Chemscore.Hbond>
3.0830

> <Gold.Chemscore.Metal>
0.0000

> <Gold.Chemscore.Lipo>
63.1952

> <Gold.Chemscore.Internal_Hbond>
0.0000

> <Gold.Chemscore.DEClash>
0.1505

> <Gold.Chemscore.DEInternal>
0.8718

> <Gold.Chemscore.Rot>
1.6708

> <Gold.Chemscore.Internal.Correction>
   9.000000E+99

> <Gold.Chemscore.Hbonds>
donor molecule, donor type, donor heavy atom, donor atom, acceptor molecule, acceptor atom, score
      L1  H     6    27       P1  7948  0.21
      L1  H     9    28       P1  7948  0.09
      L1  H    13    44       P1  7948  0.21
      P1  H  7997  8010       L1    20  0.95

> <Gold.Chemscore.Hbond.Weighted>
-10.2971

> <Gold.Chemscore.Metal.Weighted>
-0.0000

> <Gold.Chemscore.Lipo.Weighted>
-7.3938

> <Gold.Chemscore.Internal_Hbond.Weighted>
0.0000

> <Gold.Chemscore.DEClash.Weighted>
0.1505

> <Gold.Chemscore.DEInternal.Weighted>
0.8718

> <Gold.Chemscore.Rot.Weighted>
4.2773

> <Gold.Chemscore.Internal.Correction.Weighted>
   9.000000E+99

> <Gold.Protein.RotatedTorsions>
[ 6907 6896 6895 6894 ] final   46.94 input  -60.11 | X-H torsion
[ 7974 7965 7964 7962 ] final  -12.34 input  175.53 | X-H torsion
[ 8008 7997 7996 7995 ] final   95.85 input   59.86 | X-H torsion
[ 10167 10162 10161 10158 ] final   -1.55 input  -65.29 | X-H torsion
[ 10718 10713 10712 10709 ] final  -87.85 input   66.30 | X-H torsion
[ 10763 10752 10751 10750 ] final  167.24 input  -60.55 | X-H torsion
[ 11005 11000 10999 10996 ] final  123.51 input  -57.11 | X-H torsion

> <Gold.Protein.ActiveResidues>
 VAL166  LYS551  ARG553  GLY616  TRP617  ASP618  TYR619  PRO620  LYS621  CYS622 
 ASP623  PHE694  ASN695  SER759  ASP760  ASP761  ALA762  ILE779  LEU786  VAL792 
 PHE793  MET794  SER795  GLU796  ALA797  LYS798  CYS799  TRP800  GLU811  SER814 

> <Gold.Protein.RotatedAtoms>
  152.2623  134.8021  160.0428 H   0  0  0  0  0  0  0  0  0  0  0  0  # atno 6907 bound_to 6896
  151.8663  133.3462  159.3728 H   0  0  0  0  0  0  0  0  0  0  0  0  # atno 6908 bound_to 6896
  150.7121  134.5084  159.5639 H   0  0  0  0  0  0  0  0  0  0  0  0  # atno 6909 bound_to 6896
  146.2155  140.3043  142.8377 H   0  0  0  0  0  0  0  0  0  0  0  0  # atno 7974 bound_to 7965
  156.0733  140.3281  155.7603 H   0  0  0  0  0  0  0  0  0  0  0  0  # atno 8008 bound_to 7997
  155.5270  140.0590  157.2913 H   0  0  0  0  0  0  0  0  0  0  0  0  # atno 8009 bound_to 7997
  154.4542  140.1934  156.0447 H   0  0  0  0  0  0  0  0  0  0  0  0  # atno 8010 bound_to 7997
  140.6815  143.6762  150.8144 H   0  0  0  0  0  0  0  0  0  0  0  0  # atno 10167 bound_to 10162
  155.9984  130.4814  150.4930 H   0  0  0  0  0  0  0  0  0  0  0  0  # atno 10718 bound_to 10713
  154.3509  135.2753  155.2372 H   0  0  0  0  0  0  0  0  0  0  0  0  # atno 10763 bound_to 10752
  154.4602  135.5909  153.6254 H   0  0  0  0  0  0  0  0  0  0  0  0  # atno 10764 bound_to 10752
  152.9850  135.6063  154.3719 H   0  0  0  0  0  0  0  0  0  0  0  0  # atno 10765 bound_to 10752
  139.9316  134.9641  156.8271 H   0  0  0  0  0  0  0  0  0  0  0  0  # atno 11005 bound_to 11000
  144.9034  140.7671  143.5852 LP  0  0  0  0  0  0  0  0  0  0  0  0  # atno 17320 bound_to 7965
  145.2970  139.1863  143.4710 LP  0  0  0  0  0  0  0  0  0  0  0  0  # atno 17321 bound_to 7965
  140.0463  143.5295  152.2695 LP  0  0  0  0  0  0  0  0  0  0  0  0  # atno 17342 bound_to 10162
  139.6140  144.7615  151.2887 LP  0  0  0  0  0  0  0  0  0  0  0  0  # atno 17343 bound_to 10162
  157.2923  131.0628  151.2125 LP  0  0  0  0  0  0  0  0  0  0  0  0  # atno 17370 bound_to 10713
  157.3134  130.6901  149.6228 LP  0  0  0  0  0  0  0  0  0  0  0  0  # atno 17371 bound_to 10713
  140.6187  134.0014  155.7608 LP  0  0  0  0  0  0  0  0  0  0  0  0  # atno 17394 bound_to 11000
  141.0908  133.9920  157.3241 LP  0  0  0  0  0  0  0  0  0  0  0  0  # atno 17395 bound_to 11000

$$$$
