AV-unprocessed.smi:467|AV-procd|sdf|2645|dock1
  -GOLD-   2262023 53D 1   1.00000     0.00000
 Structure written by MMmdl.
 45 47  0  0  0  0  0  0  0  0  2 V2000
  152.7870  142.4259  161.7763 C   0  0  0  0  0  0  0  0  0  0  0  0
  152.2437  142.2080  160.3750 C   0  0  0  0  0  0  0  0  0  0  0  0
  152.7352  141.1273  159.6088 C   0  0  0  0  0  0  0  0  0  0  0  0
  152.2587  140.8909  158.3009 C   0  0  0  0  0  0  0  0  0  0  0  0
  152.5916  139.9057  157.3871 N   0  0  0  0  0  0  0  0  0  0  0  0
  151.8116  140.2198  156.3573 C   0  0  0  0  0  0  0  0  0  0  0  0
  151.0055  141.2897  156.4982 N   0  0  0  0  0  0  0  0  0  0  0  0
  150.0716  141.8113  155.5171 C   0  0  0  0  0  0  0  0  0  0  0  0
  149.3026  140.6960  154.7826 C   0  0  2  0  0  0  0  0  0  0  0  0
  150.1610  140.1769  153.7865 O   0  0  0  0  0  0  0  0  0  0  0  0
  147.9964  141.1889  154.1191 C   0  0  0  0  0  0  0  0  0  0  0  0
  147.1109  141.9208  155.0600 N   0  3  0  0  0  0  0  0  0  0  0  0
  145.8066  142.3092  154.4673 C   0  0  0  0  0  0  0  0  0  0  0  0
  144.9638  143.0921  155.4885 C   0  0  0  0  0  0  0  0  0  0  0  0
  144.7854  142.3098  156.6625 O   0  0  0  0  0  0  0  0  0  0  0  0
  146.0236  142.0022  157.2901 C   0  0  0  0  0  0  0  0  0  0  0  0
  146.9003  141.1826  156.3280 C   0  0  0  0  0  0  0  0  0  0  0  0
  151.2694  141.7731  157.7755 C   0  0  0  0  0  0  0  0  0  0  0  0
  150.7708  142.8503  158.5290 C   0  0  0  0  0  0  0  0  0  0  0  0
  151.2561  143.0707  159.8351 C   0  0  0  0  0  0  0  0  0  0  0  0
  150.7100  144.2360  160.6409 C   0  0  0  0  0  0  0  0  0  0  0  0
  153.6050  141.7396  161.9973 H   0  0  0  0  0  0  0  0  0  0  0  0
  152.0036  142.2645  162.5168 H   0  0  0  0  0  0  0  0  0  0  0  0
  153.1664  143.4418  161.8890 H   0  0  0  0  0  0  0  0  0  0  0  0
  153.4855  140.4686  160.0210 H   0  0  0  0  0  0  0  0  0  0  0  0
  151.8227  139.6358  155.4483 H   0  0  0  0  0  0  0  0  0  0  0  0
  149.3789  142.4889  156.0181 H   0  0  0  0  0  0  0  0  0  0  0  0
  150.6343  142.4152  154.8035 H   0  0  0  0  0  0  0  0  0  0  0  0
  149.0947  139.8991  155.4961 H   0  0  0  0  0  0  0  0  0  0  0  0
  149.7484  140.2758  152.9427 H   0  0  0  0  0  0  0  0  0  0  0  0
  148.2071  141.8402  153.2702 H   0  0  0  0  0  0  0  0  0  0  0  0
  147.4693  140.3247  153.7112 H   0  0  0  0  0  0  0  0  0  0  0  0
  145.9549  142.9221  153.5790 H   0  0  0  0  0  0  0  0  0  0  0  0
  145.2669  141.4151  154.1504 H   0  0  0  0  0  0  0  0  0  0  0  0
  145.4378  144.0427  155.7381 H   0  0  0  0  0  0  0  0  0  0  0  0
  143.9853  143.3249  155.0680 H   0  0  0  0  0  0  0  0  0  0  0  0
  146.5299  142.9198  157.5942 H   0  0  0  0  0  0  0  0  0  0  0  0
  145.8273  141.4315  158.1978 H   0  0  0  0  0  0  0  0  0  0  0  0
  146.4278  140.2214  156.1182 H   0  0  0  0  0  0  0  0  0  0  0  0
  147.8615  140.9726  156.7990 H   0  0  0  0  0  0  0  0  0  0  0  0
  150.0208  143.5020  158.1060 H   0  0  0  0  0  0  0  0  0  0  0  0
  149.9009  144.7406  160.1121 H   0  0  0  0  0  0  0  0  0  0  0  0
  151.4952  144.9681  160.8302 H   0  0  0  0  0  0  0  0  0  0  0  0
  150.3187  143.8916  161.5984 H   0  0  0  0  0  0  0  0  0  0  0  0
  147.5931  142.7728  155.3078 H   0  0  0  0  0  0  0  0  0  0  0  0
  1  2  1  0  0  0  0
  1 22  1  0  0  0  0
  1 23  1  0  0  0  0
  1 24  1  0  0  0  0
  2 20  1  0  0  0  0
  2  3  2  0  0  0  0
  3  4  1  0  0  0  0
  3 25  1  0  0  0  0
  4 18  2  0  0  0  0
  4  5  1  0  0  0  0
  5  6  2  0  0  0  0
  6  7  1  0  0  0  0
  6 26  1  0  0  0  0
  7  8  1  0  0  0  0
  7 18  1  0  0  0  0
  8  9  1  0  0  0  0
  8 27  1  0  0  0  0
  8 28  1  0  0  0  0
  9 10  1  0  0  0  0
  9 11  1  0  0  0  0
  9 29  1  0  0  0  0
 10 30  1  0  0  0  0
 11 12  1  0  0  0  0
 11 31  1  0  0  0  0
 11 32  1  0  0  0  0
 12 17  1  0  0  0  0
 12 13  1  0  0  0  0
 12 45  1  0  0  0  0
 13 14  1  0  0  0  0
 13 33  1  0  0  0  0
 13 34  1  0  0  0  0
 14 15  1  0  0  0  0
 14 35  1  0  0  0  0
 14 36  1  0  0  0  0
 15 16  1  0  0  0  0
 16 17  1  0  0  0  0
 16 37  1  0  0  0  0
 16 38  1  0  0  0  0
 17 39  1  0  0  0  0
 17 40  1  0  0  0  0
 18 19  1  0  0  0  0
 19 20  2  0  0  0  0
 19 41  1  0  0  0  0
 20 21  1  0  0  0  0
 21 42  1  0  0  0  0
 21 43  1  0  0  0  0
 21 44  1  0  0  0  0
M  CHG  1  12   1
M  END
> <s_m_source_file>
AV-unprocessed.smi

> <i_m_source_file_index>
467

> <i_lp_mmshare_version>
43012

> <i_f3d_flags>
0

> <s_epik_input>
W0NIM11jKFtjSF0xKWMoW0NIM10pW2NIXWMoYzEyKW4oW2NIXW4yKVtDSDJdW0NASF0oW09IXSlbQ0gyXU4zW0NIMl1bQ0gyXU9bQ0gyXVtDSDJdMw==

> <s_epik_cmdline>
J2VwaWtfcHl0aG9uJywgJy1waCcsICc3LjAnLCAnLXRuJywgJzgnLCAnLW1hJywgJzIwMCcsICctbWV0YWxfYmluZGluZycsICctaW1hZScsICc8aW5maWxlLm1hZT4nLCAnLW9tYWUnLCAnPG91dGZpbGUubWFlPic=

> <r_epik_Ionization_Penalty>
0.695168

> <r_epik_Ionization_Penalty_Charging>
0.608065

> <r_epik_Ionization_Penalty_Neutral>
0.0871028

> <r_epik_State_Penalty>
0.731876

> <r_epik_Charging_Adjusted_Penalty>
1.33994

> <i_epik_Tot_Q>
1

> <i_epik_Tot_abs_Q>
1

> <r_epik_Metal_State_Penalty>
0.652189

> <b_epik_Metal_Only>
0

> <s_lp_Force_Field>
OPLS_2005

> <r_lp_Energy>
23.0141

> <b_lp_Chiralities_Consistent>
1

> <s_lp_Variant>
AV-unprocessed.smi:467-3

> <Gold.Version>
5.8.1

> <Gold.Id.Protein>
6NUR|6NUR_protein|mol2

> <Gold.PLP.Fitness>
59.2645

> <Gold.PLP.PLP>
-45.7262

> <Gold.PLP.part.hbond>
-4.0000

> <Gold.PLP.part.metal>
0.0000

> <Gold.PLP.part.buried>
-5.8165

> <Gold.PLP.part.nonpolar>
-35.5041

> <Gold.PLP.part.repulsive>
0.1882

> <Gold.PLP.ligand.clash>
0.0000

> <Gold.PLP.ligand.torsion>
0.5036

> <Gold.PLP.Chemscore.Hbond>
4.8160

> <Gold.PLP.Chemscore.CHOScore>
0.0000

> <Gold.PLP.Chemscore.Metal>
0.0000

> <Gold.Chemscore.Hbonds>
donor molecule, donor type, donor heavy atom, donor atom, acceptor molecule, acceptor atom, score
      L1  H    10    30       P1  7957  1.00
      L1  H    12    45       P1  8028  0.49
      P1  H  7989  7998       L1    10  0.76
      P1  H  7997  8008       L1     5  1.00

> <Gold.PLP.Chemscore.Internal.Correction>
0.0974

> <Gold.Rescore>
     Score         DG    S(hbond)    S(metal)    S(lipo)     H(rot)  DE(clash)    DE(int)     intcor
     20.25     -20.76       2.43        0.00     107.33       2.10       0.15       0.36       ----

> <Gold.Chemscore.Fitness>
20.2526

> <Gold.Chemscore.DG>
-20.7600

> <Gold.Chemscore.ZeroCoef>
-5.4800

> <Gold.Chemscore.Hbond>
2.4256

> <Gold.Chemscore.Metal>
0.0000

> <Gold.Chemscore.Lipo>
107.3276

> <Gold.Chemscore.Internal_Hbond>
0.0000

> <Gold.Chemscore.DEClash>
0.1487

> <Gold.Chemscore.DEInternal>
0.3587

> <Gold.Chemscore.Rot>
2.1011

> <Gold.Chemscore.Internal.Correction>
   9.000000E+99

> <Gold.Chemscore.Hbonds>
donor molecule, donor type, donor heavy atom, donor atom, acceptor molecule, acceptor atom, score
      L1  H    10    30       P1  7957  0.98
      L1  H    12    45       P1  8028  0.15
      P1  H  7989  7998       L1    10  0.17
      P1  H  7997  8008       L1     5  0.53

> <Gold.Chemscore.Hbond.Weighted>
-8.1016

> <Gold.Chemscore.Metal.Weighted>
-0.0000

> <Gold.Chemscore.Lipo.Weighted>
-12.5573

> <Gold.Chemscore.Internal_Hbond.Weighted>
0.0000

> <Gold.Chemscore.DEClash.Weighted>
0.1487

> <Gold.Chemscore.DEInternal.Weighted>
0.3587

> <Gold.Chemscore.Rot.Weighted>
5.3789

> <Gold.Chemscore.Internal.Correction.Weighted>
   9.000000E+99

> <Gold.Protein.RotatedTorsions>
[ 6907 6896 6895 6894 ] final -129.47 input  -60.11 | X-H torsion
[ 7974 7965 7964 7962 ] final   91.58 input  175.53 | X-H torsion
[ 8008 7997 7996 7995 ] final  -76.70 input   59.86 | X-H torsion
[ 10167 10162 10161 10158 ] final -136.23 input  -65.29 | X-H torsion
[ 10718 10713 10712 10709 ] final   82.55 input   66.30 | X-H torsion
[ 10763 10752 10751 10750 ] final -142.86 input  -60.55 | X-H torsion
[ 11005 11000 10999 10996 ] final   28.12 input  -57.11 | X-H torsion

> <Gold.Protein.ActiveResidues>
 VAL166  LYS551  ARG553  GLY616  TRP617  ASP618  TYR619  PRO620  LYS621  CYS622 
 ASP623  PHE694  ASN695  SER759  ASP760  ASP761  ALA762  ILE779  LEU786  VAL792 
 PHE793  MET794  SER795  GLU796  ALA797  LYS798  CYS799  TRP800  GLU811  SER814 

> <Gold.Protein.RotatedAtoms>
  150.9290  133.6789  159.2814 H   0  0  0  0  0  0  0  0  0  0  0  0  # atno 6907 bound_to 6896
  151.4217  135.0997  159.9625 H   0  0  0  0  0  0  0  0  0  0  0  0  # atno 6908 bound_to 6896
  152.5017  133.8741  159.7368 H   0  0  0  0  0  0  0  0  0  0  0  0  # atno 6909 bound_to 6896
  145.5038  139.2276  143.2762 H   0  0  0  0  0  0  0  0  0  0  0  0  # atno 7974 bound_to 7965
  154.5529  140.0723  156.8696 H   0  0  0  0  0  0  0  0  0  0  0  0  # atno 8008 bound_to 7997
  155.2959  140.3381  155.4232 H   0  0  0  0  0  0  0  0  0  0  0  0  # atno 8009 bound_to 7997
  156.1977  140.1709  156.7951 H   0  0  0  0  0  0  0  0  0  0  0  0  # atno 8010 bound_to 7997
  139.8699  143.6970  152.2641 H   0  0  0  0  0  0  0  0  0  0  0  0  # atno 10167 bound_to 10162
  157.6860  131.0053  150.2392 H   0  0  0  0  0  0  0  0  0  0  0  0  # atno 10718 bound_to 10713
  154.8493  135.3484  154.6095 H   0  0  0  0  0  0  0  0  0  0  0  0  # atno 10763 bound_to 10752
  153.6704  135.6985  153.5153 H   0  0  0  0  0  0  0  0  0  0  0  0  # atno 10764 bound_to 10752
  153.2747  135.4282  155.0978 H   0  0  0  0  0  0  0  0  0  0  0  0  # atno 10765 bound_to 10752
  140.3190  134.2565  155.7720 H   0  0  0  0  0  0  0  0  0  0  0  0  # atno 11005 bound_to 11000
  146.2209  140.5840  142.9017 LP  0  0  0  0  0  0  0  0  0  0  0  0  # atno 17320 bound_to 7965
  144.7765  140.5750  143.6634 LP  0  0  0  0  0  0  0  0  0  0  0  0  # atno 17321 bound_to 7965
  139.7294  144.7586  151.0827 LP  0  0  0  0  0  0  0  0  0  0  0  0  # atno 17342 bound_to 10162
  140.7762  143.5107  150.9656 LP  0  0  0  0  0  0  0  0  0  0  0  0  # atno 17343 bound_to 10162
  156.3009  130.3758  149.7751 LP  0  0  0  0  0  0  0  0  0  0  0  0  # atno 17370 bound_to 10713
  156.5381  130.8287  151.3260 LP  0  0  0  0  0  0  0  0  0  0  0  0  # atno 17371 bound_to 10713
  141.2091  133.7759  157.0018 LP  0  0  0  0  0  0  0  0  0  0  0  0  # atno 17394 bound_to 11000
  140.0958  134.9565  157.1848 LP  0  0  0  0  0  0  0  0  0  0  0  0  # atno 17395 bound_to 11000

$$$$
