AV-unprocessed.smi:2083|AV-procd|sdf|8494|dock5
  -GOLD-   2272011203D 1   1.00000     0.00000
 Structure written by MMmdl.
 45 46  0  0  0  0  0  0  0  0  2 V2000
  150.4095  141.9046  156.2042 C   0  0  0  0  0  0  0  0  0  0  0  0
  150.0839  140.7046  155.3825 C   0  0  0  0  0  0  0  0  0  0  0  0
  148.9051  140.1660  154.9486 C   0  0  0  0  0  0  0  0  0  0  0  0
  149.3260  139.0273  154.2118 C   0  0  0  0  0  0  0  0  0  0  0  0
  148.3821  138.1798  153.5768 N   0  0  0  0  0  0  0  0  0  0  0  0
  147.0619  138.1040  153.8166 C   0  0  0  0  0  0  0  0  0  0  0  0
  146.4469  138.7926  154.6316 O   0  0  0  0  0  0  0  0  0  0  0  0
  146.4758  137.1691  153.0546 N   0  0  0  0  0  0  0  0  0  0  0  0
  145.0529  136.8447  153.0954 C   0  0  0  0  0  0  0  0  0  0  0  0
  144.7553  135.5193  153.8438 C   0  0  2  0  0  0  0  0  0  0  0  0
  145.7469  135.3352  155.0179 C   0  0  0  0  0  0  0  0  0  0  0  0
  144.7374  134.3827  152.8661 N   0  3  1  0  0  0  0  0  0  0  0  0
  143.5775  134.3353  151.9293 C   0  0  0  0  0  0  0  0  0  0  0  0
  143.5886  133.0507  151.0838 C   0  0  0  0  0  0  0  0  0  0  0  0
  144.9106  132.8886  150.3241 C   0  0  0  0  0  0  0  0  0  0  0  0
  146.1114  132.9884  151.2792 C   0  0  2  0  0  0  0  0  0  0  0  0
  146.2880  131.7357  152.1550 C   0  0  0  0  0  0  0  0  0  0  0  0
  146.0235  134.2794  152.1167 C   0  0  0  0  0  0  0  0  0  0  0  0
  150.6424  138.8821  154.1992 N   0  0  0  0  0  0  0  0  0  0  0  0
  151.1348  139.9561  154.9499 O   0  0  0  0  0  0  0  0  0  0  0  0
  149.5464  142.5652  156.2876 H   0  0  0  0  0  0  0  0  0  0  0  0
  151.2258  142.4718  155.7563 H   0  0  0  0  0  0  0  0  0  0  0  0
  150.7110  141.6127  157.2103 H   0  0  0  0  0  0  0  0  0  0  0  0
  147.9052  140.5320  155.1296 H   0  0  0  0  0  0  0  0  0  0  0  0
  148.7551  137.5586  152.8741 H   0  0  0  0  0  0  0  0  0  0  0  0
  147.0486  136.6467  152.4075 H   0  0  0  0  0  0  0  0  0  0  0  0
  144.5206  137.6882  153.5347 H   0  0  0  0  0  0  0  0  0  0  0  0
  144.6967  136.7727  152.0673 H   0  0  0  0  0  0  0  0  0  0  0  0
  143.7614  135.5784  154.2908 H   0  0  0  0  0  0  0  0  0  0  0  0
  145.7268  136.1886  155.6955 H   0  0  0  0  0  0  0  0  0  0  0  0
  146.7725  135.2274  154.6638 H   0  0  0  0  0  0  0  0  0  0  0  0
  145.4998  134.4668  155.6289 H   0  0  0  0  0  0  0  0  0  0  0  0
  142.6343  134.3454  152.4741 H   0  0  0  0  0  0  0  0  0  0  0  0
  143.5904  135.2151  151.2840 H   0  0  0  0  0  0  0  0  0  0  0  0
  143.4225  132.1865  151.7278 H   0  0  0  0  0  0  0  0  0  0  0  0
  142.7578  133.0658  150.3778 H   0  0  0  0  0  0  0  0  0  0  0  0
  144.9258  131.9405  149.7853 H   0  0  0  0  0  0  0  0  0  0  0  0
  144.9859  133.6711  149.5677 H   0  0  0  0  0  0  0  0  0  0  0  0
  147.0087  133.0601  150.6629 H   0  0  0  0  0  0  0  0  0  0  0  0
  145.4456  131.5868  152.8304 H   0  0  0  0  0  0  0  0  0  0  0  0
  147.1886  131.8102  152.7651 H   0  0  0  0  0  0  0  0  0  0  0  0
  146.3833  130.8400  151.5406 H   0  0  0  0  0  0  0  0  0  0  0  0
  146.1173  135.1459  151.4596 H   0  0  0  0  0  0  0  0  0  0  0  0
  146.8768  134.3220  152.7923 H   0  0  0  0  0  0  0  0  0  0  0  0
  144.6615  133.5454  153.4258 H   0  0  0  0  0  0  0  0  0  0  0  0
  1  2  1  0  0  0  0
  1 21  1  0  0  0  0
  1 22  1  0  0  0  0
  1 23  1  0  0  0  0
  2 20  1  0  0  0  0
  2  3  2  0  0  0  0
  3  4  1  0  0  0  0
  3 24  1  0  0  0  0
  4  5  1  0  0  0  0
  4 19  2  0  0  0  0
  5  6  1  0  0  0  0
  5 25  1  0  0  0  0
  6  7  2  0  0  0  0
  6  8  1  0  0  0  0
  8  9  1  0  0  0  0
  8 26  1  0  0  0  0
  9 10  1  0  0  0  0
  9 27  1  0  0  0  0
  9 28  1  0  0  0  0
 10 11  1  0  0  0  0
 10 12  1  0  0  0  0
 10 29  1  0  0  0  0
 11 30  1  0  0  0  0
 11 31  1  0  0  0  0
 11 32  1  0  0  0  0
 12 18  1  0  0  0  0
 12 13  1  0  0  0  0
 12 45  1  0  0  0  0
 13 14  1  0  0  0  0
 13 33  1  0  0  0  0
 13 34  1  0  0  0  0
 14 15  1  0  0  0  0
 14 35  1  0  0  0  0
 14 36  1  0  0  0  0
 15 16  1  0  0  0  0
 15 37  1  0  0  0  0
 15 38  1  0  0  0  0
 16 17  1  0  0  0  0
 16 18  1  0  0  0  0
 16 39  1  0  0  0  0
 17 40  1  0  0  0  0
 17 41  1  0  0  0  0
 17 42  1  0  0  0  0
 18 43  1  0  0  0  0
 18 44  1  0  0  0  0
 19 20  1  0  0  0  0
M  CHG  1  12   1
M  END
> <s_m_source_file>
AV-unprocessed.smi

> <i_m_source_file_index>
2083

> <i_lp_mmshare_version>
43012

> <i_f3d_flags>
0

> <s_epik_input>
W0NIM11jMVtjSF1jKG5vMSlbTkhdQyg9TylbTkhdW0NIMl1bQ0BIXShbQ0gzXSlOMltDSDJdW0NIMl1bQ0gyXVtDQEBIXShbQ0gzXSlbQ0gyXTI=

> <s_epik_cmdline>
J2VwaWtfcHl0aG9uJywgJy1waCcsICc3LjAnLCAnLXRuJywgJzgnLCAnLW1hJywgJzIwMCcsICctbWV0YWxfYmluZGluZycsICctaW1hZScsICc8aW5maWxlLm1hZT4nLCAnLW9tYWUnLCAnPG91dGZpbGUubWFlPic=

> <r_epik_Ionization_Penalty>
0.00216453

> <r_epik_Ionization_Penalty_Charging>
0.00212879

> <r_epik_Ionization_Penalty_Neutral>
3.57418e-05

> <r_epik_State_Penalty>
0.00146033

> <r_epik_Charging_Adjusted_Penalty>
0.00358912

> <i_epik_Tot_Q>
1

> <i_epik_Tot_abs_Q>
1

> <r_epik_Metal_State_Penalty>
0.0215827

> <b_epik_Metal_Only>
0

> <s_lp_Force_Field>
OPLS_2005

> <r_lp_Energy>
21.862

> <b_lp_Chiralities_Consistent>
1

> <s_lp_Variant>
AV-unprocessed.smi:2083-5

> <Gold.Version>
5.8.1

> <Gold.Id.Protein>
6NUR|6NUR_protein|mol2

> <Gold.PLP.Fitness>
35.8526

> <Gold.PLP.PLP>
-28.9902

> <Gold.PLP.part.hbond>
-3.6859

> <Gold.PLP.part.metal>
0.0000

> <Gold.PLP.part.buried>
-3.9467

> <Gold.PLP.part.nonpolar>
-21.5513

> <Gold.PLP.part.repulsive>
0.4025

> <Gold.PLP.ligand.clash>
0.0000

> <Gold.PLP.ligand.torsion>
0.6180

> <Gold.PLP.Chemscore.Hbond>
2.6800

> <Gold.PLP.Chemscore.CHOScore>
0.0000

> <Gold.PLP.Chemscore.Metal>
0.0000

> <Gold.Chemscore.Hbonds>
donor molecule, donor type, donor heavy atom, donor atom, acceptor molecule, acceptor atom, score
      L1  H     5    25       P1  7948  1.00
      L1  H     8    26       P1  7948  0.91
      P1  H  7989  7998       L1    20  0.65

> <Gold.PLP.Chemscore.Internal.Correction>
0.0584

> <Gold.Rescore>
     Score         DG    S(hbond)    S(metal)    S(lipo)     H(rot)  DE(clash)    DE(int)     intcor
     13.76     -15.70       1.94        0.00      65.72       1.55       0.00       1.93       ----

> <Gold.Chemscore.Fitness>
13.7638

> <Gold.Chemscore.DG>
-15.6965

> <Gold.Chemscore.ZeroCoef>
-5.4800

> <Gold.Chemscore.Hbond>
1.9427

> <Gold.Chemscore.Metal>
0.0000

> <Gold.Chemscore.Lipo>
65.7199

> <Gold.Chemscore.Internal_Hbond>
0.0000

> <Gold.Chemscore.DEClash>
0.0009

> <Gold.Chemscore.DEInternal>
1.9318

> <Gold.Chemscore.Rot>
1.5474

> <Gold.Chemscore.Internal.Correction>
   9.000000E+99

> <Gold.Chemscore.Hbonds>
donor molecule, donor type, donor heavy atom, donor atom, acceptor molecule, acceptor atom, score
      L1  H     5    25       P1  7948  1.00
      L1  H     8    26       P1  7948  0.84
      P1  H  7989  7998       L1    20  0.02

> <Gold.Chemscore.Hbond.Weighted>
-6.4885

> <Gold.Chemscore.Metal.Weighted>
-0.0000

> <Gold.Chemscore.Lipo.Weighted>
-7.6892

> <Gold.Chemscore.Internal_Hbond.Weighted>
0.0000

> <Gold.Chemscore.DEClash.Weighted>
0.0009

> <Gold.Chemscore.DEInternal.Weighted>
1.9318

> <Gold.Chemscore.Rot.Weighted>
3.9612

> <Gold.Chemscore.Internal.Correction.Weighted>
   9.000000E+99

> <Gold.Protein.RotatedTorsions>
[ 6907 6896 6895 6894 ] final   55.56 input  -60.11 | X-H torsion
[ 7974 7965 7964 7962 ] final -142.85 input  175.53 | X-H torsion
[ 8008 7997 7996 7995 ] final -145.51 input   59.86 | X-H torsion
[ 10167 10162 10161 10158 ] final -105.00 input  -65.29 | X-H torsion
[ 10718 10713 10712 10709 ] final  -47.22 input   66.30 | X-H torsion
[ 10763 10752 10751 10750 ] final -157.48 input  -60.55 | X-H torsion
[ 11005 11000 10999 10996 ] final  -50.10 input  -57.11 | X-H torsion

> <Gold.Protein.ActiveResidues>
 VAL166  LYS551  ARG553  GLY616  TRP617  ASP618  TYR619  PRO620  LYS621  CYS622 
 ASP623  PHE694  ASN695  SER759  ASP760  ASP761  ALA762  ILE779  LEU786  VAL792 
 PHE793  MET794  SER795  GLU796  ALA797  LYS798  CYS799  TRP800  GLU811  SER814 

> <Gold.Protein.RotatedAtoms>
  152.3551  134.6951  160.0224 H   0  0  0  0  0  0  0  0  0  0  0  0  # atno 6907 bound_to 6896
  151.7293  133.3311  159.3344 H   0  0  0  0  0  0  0  0  0  0  0  0  # atno 6908 bound_to 6896
  150.7566  134.6312  159.6232 H   0  0  0  0  0  0  0  0  0  0  0  0  # atno 6909 bound_to 6896
  144.8413  140.5907  143.5450 H   0  0  0  0  0  0  0  0  0  0  0  0  # atno 7974 bound_to 7965
  155.5444  140.0611  157.2863 H   0  0  0  0  0  0  0  0  0  0  0  0  # atno 8008 bound_to 7997
  154.4441  140.1913  156.0667 H   0  0  0  0  0  0  0  0  0  0  0  0  # atno 8009 bound_to 7997
  156.0561  140.3278  155.7411 H   0  0  0  0  0  0  0  0  0  0  0  0  # atno 8010 bound_to 7997
  140.2032  143.3802  152.1112 H   0  0  0  0  0  0  0  0  0  0  0  0  # atno 10167 bound_to 10162
  156.2106  130.4160  149.9120 H   0  0  0  0  0  0  0  0  0  0  0  0  # atno 10718 bound_to 10713
  154.7633  135.3124  154.8336 H   0  0  0  0  0  0  0  0  0  0  0  0  # atno 10763 bound_to 10752
  153.9091  135.6807  153.4756 H   0  0  0  0  0  0  0  0  0  0  0  0  # atno 10764 bound_to 10752
  153.1236  135.4811  154.9167 H   0  0  0  0  0  0  0  0  0  0  0  0  # atno 10765 bound_to 10752
  141.0797  133.6656  156.3682 H   0  0  0  0  0  0  0  0  0  0  0  0  # atno 11005 bound_to 11000
  145.4688  139.1505  143.3825 LP  0  0  0  0  0  0  0  0  0  0  0  0  # atno 17320 bound_to 7965
  146.2705  140.4821  142.8816 LP  0  0  0  0  0  0  0  0  0  0  0  0  # atno 17321 bound_to 7965
  139.5209  144.7039  151.5413 LP  0  0  0  0  0  0  0  0  0  0  0  0  # atno 17342 bound_to 10162
  140.6376  143.8954  150.6661 LP  0  0  0  0  0  0  0  0  0  0  0  0  # atno 17343 bound_to 10162
  156.6799  130.8854  151.3574 LP  0  0  0  0  0  0  0  0  0  0  0  0  # atno 17370 bound_to 10713
  157.7036  130.9360  150.0861 LP  0  0  0  0  0  0  0  0  0  0  0  0  # atno 17371 bound_to 10713
  140.5496  134.6041  157.5404 LP  0  0  0  0  0  0  0  0  0  0  0  0  # atno 17394 bound_to 11000
  139.9610  134.7452  156.0237 LP  0  0  0  0  0  0  0  0  0  0  0  0  # atno 17395 bound_to 11000

$$$$
