AV-unprocessed.smi:2032|AV-procd|sdf|8251|dock10
  -GOLD-   2272010523D 1   1.00000     0.00000
 Structure written by MMmdl.
 42 43  0  0  0  0  0  0  0  0  3 V2000
  148.9887  131.6820  153.2306 C   0  0  0  0  0  0  0  0  0  0  0  0
  148.7795  133.1633  153.5642 C   0  0  2  0  0  0  0  0  0  0  0  0
  150.0292  133.7928  154.2024 C   0  0  0  0  0  0  0  0  0  0  0  0
  149.7792  135.2092  154.5779 N   0  3  2  0  0  0  0  0  0  0  0  0
  151.0227  135.8999  155.0501 C   0  0  2  0  0  0  0  0  0  0  0  0
  151.5752  135.3489  156.3872 C   0  0  0  0  0  0  0  0  0  0  0  0
  150.7666  137.4253  155.1648 C   0  0  0  0  0  0  0  0  0  0  0  0
  151.6747  138.0847  156.0979 N   0  0  0  0  0  0  0  0  0  0  0  0
  151.8988  139.4046  156.1659 C   0  0  0  0  0  0  0  0  0  0  0  0
  151.2957  140.1693  155.4091 O   0  0  0  0  0  0  0  0  0  0  0  0
  152.8114  139.7532  157.0999 N   0  5  0  0  0  0  0  0  0  0  0  0
  152.5030  140.6710  158.0304 C   0  0  0  0  0  0  0  0  0  0  0  0
  153.1928  140.8172  159.1674 N   0  0  0  0  0  0  0  0  0  0  0  0
  152.7025  141.8352  159.9874 C   0  0  0  0  0  0  0  0  0  0  0  0
  151.6193  142.4852  159.4582 C   0  0  0  0  0  0  0  0  0  0  0  0
  151.1800  141.8341  157.9049 S   0  0  0  0  0  0  0  0  0  0  0  0
  148.6072  135.2763  155.4931 C   0  0  0  0  0  0  0  0  0  0  0  0
  147.3708  134.5818  154.8864 C   0  0  1  0  0  0  0  0  0  0  0  0
  146.7018  135.3917  153.7610 C   0  0  0  0  0  0  0  0  0  0  0  0
  147.6909  133.2542  154.4765 O   0  0  0  0  0  0  0  0  0  0  0  0
  149.8130  131.5501  152.5293 H   0  0  0  0  0  0  0  0  0  0  0  0
  148.0946  131.2547  152.7758 H   0  0  0  0  0  0  0  0  0  0  0  0
  149.2157  131.1032  154.1265 H   0  0  0  0  0  0  0  0  0  0  0  0
  148.5356  133.6860  152.6392 H   0  0  0  0  0  0  0  0  0  0  0  0
  150.3202  133.2295  155.0908 H   0  0  0  0  0  0  0  0  0  0  0  0
  150.8578  133.7155  153.5006 H   0  0  0  0  0  0  0  0  0  0  0  0
  151.7967  135.7253  154.3010 H   0  0  0  0  0  0  0  0  0  0  0  0
  152.4671  135.8885  156.7058 H   0  0  0  0  0  0  0  0  0  0  0  0
  151.8776  134.3049  156.3054 H   0  0  0  0  0  0  0  0  0  0  0  0
  150.8407  135.4331  157.1887 H   0  0  0  0  0  0  0  0  0  0  0  0
  150.8443  137.9285  154.2016 H   0  0  0  0  0  0  0  0  0  0  0  0
  149.7481  137.6010  155.5120 H   0  0  0  0  0  0  0  0  0  0  0  0
  152.1848  137.4944  156.7389 H   0  0  0  0  0  0  0  0  0  0  0  0
  153.1880  142.0293  160.9322 H   0  0  0  0  0  0  0  0  0  0  0  0
  151.0568  143.3027  159.8832 H   0  0  0  0  0  0  0  0  0  0  0  0
  148.8689  134.8019  156.4402 H   0  0  0  0  0  0  0  0  0  0  0  0
  148.3349  136.3082  155.7134 H   0  0  0  0  0  0  0  0  0  0  0  0
  146.6291  134.4784  155.6790 H   0  0  0  0  0  0  0  0  0  0  0  0
  146.3354  136.3468  154.1382 H   0  0  0  0  0  0  0  0  0  0  0  0
  145.8486  134.8526  153.3487 H   0  0  0  0  0  0  0  0  0  0  0  0
  147.3877  135.6099  152.9429 H   0  0  0  0  0  0  0  0  0  0  0  0
  149.4978  135.6921  153.7367 H   0  0  0  0  0  0  0  0  0  0  0  0
  1  2  1  0  0  0  0
  1 21  1  0  0  0  0
  1 22  1  0  0  0  0
  1 23  1  0  0  0  0
  2 20  1  0  0  0  0
  2  3  1  0  0  0  0
  2 24  1  0  0  0  0
  3  4  1  0  0  0  0
  3 25  1  0  0  0  0
  3 26  1  0  0  0  0
  4  5  1  0  0  0  0
  4 17  1  0  0  0  0
  4 42  1  0  0  0  0
  5  6  1  0  0  0  0
  5  7  1  0  0  0  0
  5 27  1  0  0  0  0
  6 28  1  0  0  0  0
  6 29  1  0  0  0  0
  6 30  1  0  0  0  0
  7  8  1  0  0  0  0
  7 31  1  0  0  0  0
  7 32  1  0  0  0  0
  8  9  1  0  0  0  0
  8 33  1  0  0  0  0
  9 10  2  0  0  0  0
  9 11  1  0  0  0  0
 11 12  1  0  0  0  0
 12 16  1  0  0  0  0
 12 13  2  0  0  0  0
 13 14  1  0  0  0  0
 14 15  2  0  0  0  0
 14 34  1  0  0  0  0
 15 16  1  0  0  0  0
 15 35  1  0  0  0  0
 17 18  1  0  0  0  0
 17 36  1  0  0  0  0
 17 37  1  0  0  0  0
 18 19  1  0  0  0  0
 18 20  1  0  0  0  0
 18 38  1  0  0  0  0
 19 39  1  0  0  0  0
 19 40  1  0  0  0  0
 19 41  1  0  0  0  0
M  CHG  1   4   1
M  CHG  1  11  -1
M  END
> <s_m_source_file>
AV-unprocessed.smi

> <i_m_source_file_index>
2032

> <i_lp_mmshare_version>
43012

> <i_f3d_flags>
0

> <s_epik_input>
W0NIM11bQ0BASF0xW0NIMl1OKFtDSDJdW0NASF0oTzEpW0NIM10pW0NASF0oW0NIM10pW0NIMl1bTkhdQyg9TylbTkhdYzJuW2NIXVtjSF1zMg==

> <s_epik_cmdline>
J2VwaWtfcHl0aG9uJywgJy1waCcsICc3LjAnLCAnLXRuJywgJzgnLCAnLW1hJywgJzIwMCcsICctbWV0YWxfYmluZGluZycsICctaW1hZScsICc8aW5maWxlLm1hZT4nLCAnLW9tYWUnLCAnPG91dGZpbGUubWFlPic=

> <r_lp_tautomer_probability>
0.999

> <r_epik_Ionization_Penalty>
6.71699

> <r_epik_Ionization_Penalty_Charging>
5.88592

> <r_epik_Ionization_Penalty_Neutral>
0.831074

> <r_epik_State_Penalty>
6.08365

> <r_epik_Charging_Adjusted_Penalty>
11.9696

> <i_epik_Tot_Q>
0

> <i_epik_Tot_abs_Q>
2

> <r_epik_Metal_State_Penalty>
2.0947

> <b_epik_Metal_Only>
1

> <s_lp_Force_Field>
OPLS_2005

> <r_lp_Energy>
13.7972

> <b_lp_Chiralities_Consistent>
1

> <s_lp_Variant>
AV-unprocessed.smi:2032-21

> <Gold.Version>
5.8.1

> <Gold.Id.Protein>
6NUR|6NUR_protein|mol2

> <Gold.PLP.Fitness>
41.6001

> <Gold.PLP.PLP>
-28.5946

> <Gold.PLP.part.hbond>
-3.0000

> <Gold.PLP.part.metal>
0.0000

> <Gold.PLP.part.buried>
-3.4508

> <Gold.PLP.part.nonpolar>
-21.9669

> <Gold.PLP.part.repulsive>
0.1781

> <Gold.PLP.ligand.clash>
0.0000

> <Gold.PLP.ligand.torsion>
1.0322

> <Gold.PLP.Chemscore.Hbond>
5.0000

> <Gold.PLP.Chemscore.CHOScore>
0.0000

> <Gold.PLP.Chemscore.Metal>
0.0000

> <Gold.Chemscore.Hbonds>
donor molecule, donor type, donor heavy atom, donor atom, acceptor molecule, acceptor atom, score
      L1  H     4    42       P1  7948  2.00
      P1  H  7989  7998       L1    10  0.93
      P1  H  7997  8008       L1    11  2.00

> <Gold.PLP.Chemscore.Internal.Correction>
0.0698

> <Gold.Rescore>
     Score         DG    S(hbond)    S(metal)    S(lipo)     H(rot)  DE(clash)    DE(int)     intcor
     16.16     -17.31       2.61        0.00      61.10       1.58       0.00       1.15       ----

> <Gold.Chemscore.Fitness>
16.1626

> <Gold.Chemscore.DG>
-17.3137

> <Gold.Chemscore.ZeroCoef>
-5.4800

> <Gold.Chemscore.Hbond>
2.6129

> <Gold.Chemscore.Metal>
0.0000

> <Gold.Chemscore.Lipo>
61.1031

> <Gold.Chemscore.Internal_Hbond>
0.0000

> <Gold.Chemscore.DEClash>
0.0029

> <Gold.Chemscore.DEInternal>
1.1483

> <Gold.Chemscore.Rot>
1.5791

> <Gold.Chemscore.Internal.Correction>
   9.000000E+99

> <Gold.Chemscore.Hbonds>
donor molecule, donor type, donor heavy atom, donor atom, acceptor molecule, acceptor atom, score
      L1  H     4    42       P1  7948  0.34
      P1  H  7989  7998       L1    10  0.85
      P1  H  7997  8008       L1    11  0.34

> <Gold.Chemscore.Hbond.Weighted>
-8.7272

> <Gold.Chemscore.Metal.Weighted>
-0.0000

> <Gold.Chemscore.Lipo.Weighted>
-7.1491

> <Gold.Chemscore.Internal_Hbond.Weighted>
0.0000

> <Gold.Chemscore.DEClash.Weighted>
0.0029

> <Gold.Chemscore.DEInternal.Weighted>
1.1483

> <Gold.Chemscore.Rot.Weighted>
4.0425

> <Gold.Chemscore.Internal.Correction.Weighted>
   9.000000E+99

> <Gold.Protein.RotatedTorsions>
[ 6907 6896 6895 6894 ] final -166.88 input  -60.11 | X-H torsion
[ 7974 7965 7964 7962 ] final  114.56 input  175.53 | X-H torsion
[ 8008 7997 7996 7995 ] final  -72.20 input   59.86 | X-H torsion
[ 10167 10162 10161 10158 ] final  -35.60 input  -65.29 | X-H torsion
[ 10718 10713 10712 10709 ] final   70.97 input   66.30 | X-H torsion
[ 10763 10752 10751 10750 ] final  -44.85 input  -60.55 | X-H torsion
[ 11005 11000 10999 10996 ] final   -4.75 input  -57.11 | X-H torsion

> <Gold.Protein.ActiveResidues>
 VAL166  LYS551  ARG553  GLY616  TRP617  ASP618  TYR619  PRO620  LYS621  CYS622 
 ASP623  PHE694  ASN695  SER759  ASP760  ASP761  ALA762  ILE779  LEU786  VAL792 
 PHE793  MET794  SER795  GLU796  ALA797  LYS798  CYS799  TRP800  GLU811  SER814 

> <Gold.Protein.RotatedAtoms>
  151.4506  133.3618  159.2794 H   0  0  0  0  0  0  0  0  0  0  0  0  # atno 6907 bound_to 6896
  150.9093  134.8511  159.7425 H   0  0  0  0  0  0  0  0  0  0  0  0  # atno 6908 bound_to 6896
  152.4923  134.4434  159.9603 H   0  0  0  0  0  0  0  0  0  0  0  0  # atno 6909 bound_to 6896
  145.2029  139.2943  143.4309 H   0  0  0  0  0  0  0  0  0  0  0  0  # atno 7974 bound_to 7965
  154.5148  140.0801  156.8059 H   0  0  0  0  0  0  0  0  0  0  0  0  # atno 8008 bound_to 7997
  155.3705  140.3422  155.4225 H   0  0  0  0  0  0  0  0  0  0  0  0  # atno 8009 bound_to 7997
  156.1615  140.1590  156.8592 H   0  0  0  0  0  0  0  0  0  0  0  0  # atno 8010 bound_to 7997
  140.7161  143.3466  151.2244 H   0  0  0  0  0  0  0  0  0  0  0  0  # atno 10167 bound_to 10162
  157.6428  130.9504  150.0725 H   0  0  0  0  0  0  0  0  0  0  0  0  # atno 10718 bound_to 10713
  154.0189  135.6672  153.4771 H   0  0  0  0  0  0  0  0  0  0  0  0  # atno 10763 bound_to 10752
  153.0588  135.5040  154.8042 H   0  0  0  0  0  0  0  0  0  0  0  0  # atno 10764 bound_to 10752
  154.6949  135.3068  154.9390 H   0  0  0  0  0  0  0  0  0  0  0  0  # atno 10765 bound_to 10752
  140.6836  133.9132  155.8571 H   0  0  0  0  0  0  0  0  0  0  0  0  # atno 11005 bound_to 11000
  146.3414  140.2279  142.8592 LP  0  0  0  0  0  0  0  0  0  0  0  0  # atno 17320 bound_to 7965
  144.9930  140.8564  143.5328 LP  0  0  0  0  0  0  0  0  0  0  0  0  # atno 17321 bound_to 7965
  139.6986  143.9570  152.2895 LP  0  0  0  0  0  0  0  0  0  0  0  0  # atno 17342 bound_to 10162
  139.9256  144.6773  150.8416 LP  0  0  0  0  0  0  0  0  0  0  0  0  # atno 17343 bound_to 10162
  156.1725  130.3647  149.9146 LP  0  0  0  0  0  0  0  0  0  0  0  0  # atno 17370 bound_to 10713
  156.7118  130.8973  151.3610 LP  0  0  0  0  0  0  0  0  0  0  0  0  # atno 17371 bound_to 10713
  141.0298  134.0773  157.4027 LP  0  0  0  0  0  0  0  0  0  0  0  0  # atno 17394 bound_to 11000
  139.8944  135.0136  156.6950 LP  0  0  0  0  0  0  0  0  0  0  0  0  # atno 17395 bound_to 11000

$$$$
