AV-unprocessed.smi:548|AV-procd|sdf|2890|dock10
  -GOLD-   2262023383D 1   1.00000     0.00000
 Structure written by MMmdl.
 25 25  0  0  0  0  0  0  0  0  3 V2000
  150.7916  137.5184  156.4830 C   0  0  0  0  0  0  0  0  0  0  0  0
  151.5171  138.8106  156.0329 C   0  0  0  0  0  0  0  0  0  0  0  0
  152.2913  139.3941  157.2406 C   0  0  0  0  0  0  0  0  0  0  0  0
  152.5315  138.4520  154.9113 C   0  0  0  0  0  0  0  0  0  0  0  0
  152.2819  137.4595  154.1908 O   0  0  0  0  0  0  0  0  0  0  0  0
  153.5698  139.1450  154.8175 O   0  5  0  0  0  0  0  0  0  0  0  0
  150.4874  139.8424  155.5178 C   0  0  0  0  0  0  0  0  0  0  0  0
  149.5176  139.4291  154.5712 C   0  0  0  0  0  0  0  0  0  0  0  0
  148.5632  140.3424  154.0797 C   0  0  0  0  0  0  0  0  0  0  0  0
  148.5858  141.6719  154.5424 C   0  0  0  0  0  0  0  0  0  0  0  0
  147.6738  142.6274  154.0996 N   0  0  0  0  0  0  0  0  0  0  0  0
  149.5165  142.0455  155.4437 N   0  3  0  0  0  0  0  0  0  0  0  0
  150.4471  141.1999  155.9379 C   0  0  0  0  0  0  0  0  0  0  0  0
  150.1638  137.1090  155.6902 H   0  0  0  0  0  0  0  0  0  0  0  0
  150.1453  137.6953  157.3427 H   0  0  0  0  0  0  0  0  0  0  0  0
  151.5019  136.7440  156.7758 H   0  0  0  0  0  0  0  0  0  0  0  0
  152.7574  140.3507  156.9997 H   0  0  0  0  0  0  0  0  0  0  0  0
  153.0787  138.7166  157.5745 H   0  0  0  0  0  0  0  0  0  0  0  0
  151.6378  139.5643  158.0963 H   0  0  0  0  0  0  0  0  0  0  0  0
  149.4984  138.4100  154.2158 H   0  0  0  0  0  0  0  0  0  0  0  0
  147.8269  140.0199  153.3580 H   0  0  0  0  0  0  0  0  0  0  0  0
  146.9571  142.4004  153.4251 H   0  0  0  0  0  0  0  0  0  0  0  0
  147.6997  143.5788  154.4373 H   0  0  0  0  0  0  0  0  0  0  0  0
  151.1198  141.6536  156.6509 H   0  0  0  0  0  0  0  0  0  0  0  0
  149.5220  143.0117  155.7706 H   0  0  0  0  0  0  0  0  0  0  0  0
  1  2  1  0  0  0  0
  1 14  1  0  0  0  0
  1 15  1  0  0  0  0
  1 16  1  0  0  0  0
  2  3  1  0  0  0  0
  2  4  1  0  0  0  0
  2  7  1  0  0  0  0
  3 17  1  0  0  0  0
  3 18  1  0  0  0  0
  3 19  1  0  0  0  0
  4  5  2  0  0  0  0
  4  6  1  0  0  0  0
  7 13  1  0  0  0  0
  7  8  2  0  0  0  0
  8  9  1  0  0  0  0
  8 20  1  0  0  0  0
  9 10  2  0  0  0  0
  9 21  1  0  0  0  0
 10 11  1  0  0  0  0
 10 12  1  0  0  0  0
 11 22  1  0  0  0  0
 11 23  1  0  0  0  0
 12 13  2  0  0  0  0
 12 25  1  0  0  0  0
 13 24  1  0  0  0  0
M  CHG  1   6  -1
M  CHG  1  12   1
M  END
> <s_m_source_file>
AV-unprocessed.smi

> <i_m_source_file_index>
548

> <i_lp_mmshare_version>
43012

> <i_f3d_flags>
0

> <s_epik_input>
Tz1DKFtPSF0pQyhbQ0gzXSkoW0NIM10pYzFbY0hdW2NIXWMoW05IMl0pbltjSF0x

> <s_epik_cmdline>
J2VwaWtfcHl0aG9uJywgJy1waCcsICc3LjAnLCAnLXRuJywgJzgnLCAnLW1hJywgJzIwMCcsICctbWV0YWxfYmluZGluZycsICctaW1hZScsICc8aW5maWxlLm1hZT4nLCAnLW9tYWUnLCAnPG91dGZpbGUubWFlPic=

> <r_lp_tautomer_probability>
0.999994

> <r_epik_Ionization_Penalty>
0.0472787

> <r_epik_Ionization_Penalty_Charging>
0.0472785

> <r_epik_Ionization_Penalty_Neutral>
2.36651e-07

> <r_epik_State_Penalty>
0.0398874

> <r_epik_Charging_Adjusted_Penalty>
0.0871658

> <i_epik_Tot_Q>
0

> <i_epik_Tot_abs_Q>
2

> <r_epik_Metal_State_Penalty>
2.52256

> <b_epik_Metal_Only>
0

> <s_lp_Force_Field>
OPLS_2005

> <r_lp_Energy>
11.9737

> <b_lp_Chiralities_Consistent>
1

> <s_lp_Variant>
AV-unprocessed.smi:548-1

> <Gold.Version>
5.8.1

> <Gold.Id.Protein>
6NUR|6NUR_protein|mol2

> <Gold.PLP.Fitness>
43.3671

> <Gold.PLP.PLP>
-24.8379

> <Gold.PLP.part.hbond>
-4.0000

> <Gold.PLP.part.metal>
0.0000

> <Gold.PLP.part.buried>
-2.2378

> <Gold.PLP.part.nonpolar>
-19.2450

> <Gold.PLP.part.repulsive>
0.5450

> <Gold.PLP.ligand.clash>
0.0000

> <Gold.PLP.ligand.torsion>
1.4217

> <Gold.PLP.Chemscore.Hbond>
7.1200

> <Gold.PLP.Chemscore.CHOScore>
0.0000

> <Gold.PLP.Chemscore.Metal>
0.0000

> <Gold.Chemscore.Hbonds>
donor molecule, donor type, donor heavy atom, donor atom, acceptor molecule, acceptor atom, score
      L1  H    11    23       P1  8028  1.57
      L1  H    12    25       P1  8028  1.98
      P1  H  7997  8008       L1     6  2.00
      P1  H 10752 10764       L1     5  1.50

> <Gold.PLP.Chemscore.Internal.Correction>
0.0126

> <Gold.Rescore>
     Score         DG    S(hbond)    S(metal)    S(lipo)     H(rot)  DE(clash)    DE(int)     intcor
     15.60     -17.36       3.21        0.00      42.59       1.50       0.14       1.61       ----

> <Gold.Chemscore.Fitness>
15.6044

> <Gold.Chemscore.DG>
-17.3561

> <Gold.Chemscore.ZeroCoef>
-5.4800

> <Gold.Chemscore.Hbond>
3.2104

> <Gold.Chemscore.Metal>
0.0000

> <Gold.Chemscore.Lipo>
42.5936

> <Gold.Chemscore.Internal_Hbond>
0.0000

> <Gold.Chemscore.DEClash>
0.1448

> <Gold.Chemscore.DEInternal>
1.6069

> <Gold.Chemscore.Rot>
1.4961

> <Gold.Chemscore.Internal.Correction>
   9.000000E+99

> <Gold.Chemscore.Hbonds>
donor molecule, donor type, donor heavy atom, donor atom, acceptor molecule, acceptor atom, score
      L1  H    11    23       P1  8028  0.30
      L1  H    12    25       P1  8028  0.94
      P1  H  7997  8008       L1     6  0.99
      P1  H 10752 10764       L1     5  0.76

> <Gold.Chemscore.Hbond.Weighted>
-10.7226

> <Gold.Chemscore.Metal.Weighted>
-0.0000

> <Gold.Chemscore.Lipo.Weighted>
-4.9834

> <Gold.Chemscore.Internal_Hbond.Weighted>
0.0000

> <Gold.Chemscore.DEClash.Weighted>
0.1448

> <Gold.Chemscore.DEInternal.Weighted>
1.6069

> <Gold.Chemscore.Rot.Weighted>
3.8299

> <Gold.Chemscore.Internal.Correction.Weighted>
   9.000000E+99

> <Gold.Protein.RotatedTorsions>
[ 6907 6896 6895 6894 ] final  170.99 input  -60.11 | X-H torsion
[ 7974 7965 7964 7962 ] final  160.88 input  175.53 | X-H torsion
[ 8008 7997 7996 7995 ] final  -12.98 input   59.86 | X-H torsion
[ 10167 10162 10161 10158 ] final   -7.93 input  -65.29 | X-H torsion
[ 10718 10713 10712 10709 ] final   15.12 input   66.30 | X-H torsion
[ 10763 10752 10751 10750 ] final  -96.63 input  -60.55 | X-H torsion
[ 11005 11000 10999 10996 ] final   -7.21 input  -57.11 | X-H torsion

> <Gold.Protein.ActiveResidues>
 VAL166  LYS551  ARG553  GLY616  TRP617  ASP618  TYR619  PRO620  LYS621  CYS622 
 ASP623  PHE694  ASN695  SER759  ASP760  ASP761  ALA762  ILE779  LEU786  VAL792 
 PHE793  MET794  SER795  GLU796  ALA797  LYS798  CYS799  TRP800  GLU811  SER814 

> <Gold.Protein.RotatedAtoms>
  151.8074  133.3377  159.3544 H   0  0  0  0  0  0  0  0  0  0  0  0  # atno 6907 bound_to 6896
  150.7338  134.5696  159.5893 H   0  0  0  0  0  0  0  0  0  0  0  0  # atno 6908 bound_to 6896
  152.3100  134.7510  160.0390 H   0  0  0  0  0  0  0  0  0  0  0  0  # atno 6909 bound_to 6896
  144.7714  139.7820  143.6295 H   0  0  0  0  0  0  0  0  0  0  0  0  # atno 7974 bound_to 7965
  154.5331  140.2262  155.8769 H   0  0  0  0  0  0  0  0  0  0  0  0  # atno 8008 bound_to 7997
  156.1784  140.3106  155.9066 H   0  0  0  0  0  0  0  0  0  0  0  0  # atno 8009 bound_to 7997
  155.3410  140.0450  157.3035 H   0  0  0  0  0  0  0  0  0  0  0  0  # atno 8010 bound_to 7997
  140.7044  143.6026  150.8783 H   0  0  0  0  0  0  0  0  0  0  0  0  # atno 10167 bound_to 10162
  157.0489  130.6262  149.5764 H   0  0  0  0  0  0  0  0  0  0  0  0  # atno 10718 bound_to 10713
  154.7256  135.5076  153.8882 H   0  0  0  0  0  0  0  0  0  0  0  0  # atno 10763 bound_to 10752
  153.0902  135.6657  153.9877 H   0  0  0  0  0  0  0  0  0  0  0  0  # atno 10764 bound_to 10752
  153.9690  135.3040  155.3408 H   0  0  0  0  0  0  0  0  0  0  0  0  # atno 10765 bound_to 10752
  140.7103  133.8914  155.8746 H   0  0  0  0  0  0  0  0  0  0  0  0  # atno 11005 bound_to 11000
  146.1863  139.5080  142.9834 LP  0  0  0  0  0  0  0  0  0  0  0  0  # atno 17320 bound_to 7965
  145.6313  141.0303  143.1861 LP  0  0  0  0  0  0  0  0  0  0  0  0  # atno 17321 bound_to 7965
  139.9750  143.6014  152.2961 LP  0  0  0  0  0  0  0  0  0  0  0  0  # atno 17342 bound_to 10162
  139.6615  144.7662  151.1954 LP  0  0  0  0  0  0  0  0  0  0  0  0  # atno 17343 bound_to 10162
  156.0014  130.5093  150.7675 LP  0  0  0  0  0  0  0  0  0  0  0  0  # atno 17370 bound_to 10713
  157.5045  131.0921  151.0273 LP  0  0  0  0  0  0  0  0  0  0  0  0  # atno 17371 bound_to 10713
  141.0090  134.1046  157.4241 LP  0  0  0  0  0  0  0  0  0  0  0  0  # atno 17394 bound_to 11000
  139.8873  135.0089  156.6554 LP  0  0  0  0  0  0  0  0  0  0  0  0  # atno 17395 bound_to 11000

$$$$
