AV-unprocessed.smi:1161|AV-procd|sdf|4918|dock2
  -GOLD-   22720 3503D 1   1.00000     0.00000
 Structure written by MMmdl.
 46 47  0  0  0  0  0  0  0  0  1 V2000
  145.9335  133.5312  152.3281 C   0  0  0  0  0  0  0  0  0  0  0  0
  146.2142  134.7389  151.4169 C   0  0  0  0  0  0  0  0  0  0  0  0
  145.3169  135.9825  151.6410 C   0  0  2  0  0  0  0  0  0  0  0  0
  143.8229  135.6677  151.4064 C   0  0  0  0  0  0  0  0  0  0  0  0
  145.7311  136.9550  150.7003 O   0  0  0  0  0  0  0  0  0  0  0  0
  145.6040  136.5575  153.0552 C   0  0  0  0  0  0  0  0  0  0  0  0
  146.9860  136.9833  153.2652 N   0  0  0  0  0  0  0  0  0  0  0  0
  147.3920  137.8706  154.1836 C   0  0  0  0  0  0  0  0  0  0  0  0
  146.6302  138.4335  154.9692 O   0  0  0  0  0  0  0  0  0  0  0  0
  148.7190  138.0696  154.1150 N   0  0  0  0  0  0  0  0  0  0  0  0
  149.5206  138.9041  154.9383 C   0  0  0  0  0  0  0  0  0  0  0  0
  150.8960  139.1448  154.7176 C   0  0  0  0  0  0  0  0  0  0  0  0
  151.5846  140.0107  155.5885 C   0  0  0  0  0  0  0  0  0  0  0  0
  150.8839  140.6209  156.6553 C   0  0  0  0  0  0  0  0  0  0  0  0
  151.5590  141.4875  157.5414 N   0  0  0  0  0  0  0  0  0  0  0  0
  151.1622  142.8917  157.4743 C   0  0  0  0  0  0  0  0  0  0  0  0
  152.1630  143.7687  158.2469 C   0  0  0  0  0  0  0  0  0  0  0  0
  152.2943  143.2917  159.5821 O   0  0  0  0  0  0  0  0  0  0  0  0
  152.7908  141.9580  159.6209 C   0  0  0  0  0  0  0  0  0  0  0  0
  151.8067  141.0188  158.9034 C   0  0  0  0  0  0  0  0  0  0  0  0
  149.5628  140.3937  156.8581 N   0  0  0  0  0  0  0  0  0  0  0  0
  148.9053  139.5677  156.0177 C   0  0  0  0  0  0  0  0  0  0  0  0
  146.5701  132.6905  152.0515 H   0  0  0  0  0  0  0  0  0  0  0  0
  144.8996  133.1955  152.2470 H   0  0  0  0  0  0  0  0  0  0  0  0
  146.1358  133.7562  153.3746 H   0  0  0  0  0  0  0  0  0  0  0  0
  147.2598  135.0238  151.5399 H   0  0  0  0  0  0  0  0  0  0  0  0
  146.1187  134.4119  150.3802 H   0  0  0  0  0  0  0  0  0  0  0  0
  143.4652  134.9186  152.1130 H   0  0  0  0  0  0  0  0  0  0  0  0
  143.6407  135.2887  150.4013 H   0  0  0  0  0  0  0  0  0  0  0  0
  143.1954  136.5524  151.5161 H   0  0  0  0  0  0  0  0  0  0  0  0
  144.9619  137.3665  150.3355 H   0  0  0  0  0  0  0  0  0  0  0  0
  145.0008  137.4539  153.2026 H   0  0  0  0  0  0  0  0  0  0  0  0
  145.2910  135.8622  153.8370 H   0  0  0  0  0  0  0  0  0  0  0  0
  147.6825  136.5722  152.6612 H   0  0  0  0  0  0  0  0  0  0  0  0
  149.2010  137.6178  153.3517 H   0  0  0  0  0  0  0  0  0  0  0  0
  151.4298  138.6944  153.8950 H   0  0  0  0  0  0  0  0  0  0  0  0
  152.6389  140.1868  155.4354 H   0  0  0  0  0  0  0  0  0  0  0  0
  151.1009  143.2440  156.4455 H   0  0  0  0  0  0  0  0  0  0  0  0
  150.1657  142.9956  157.9052 H   0  0  0  0  0  0  0  0  0  0  0  0
  153.1363  143.7736  157.7537 H   0  0  0  0  0  0  0  0  0  0  0  0
  151.8146  144.8013  158.2722 H   0  0  0  0  0  0  0  0  0  0  0  0
  153.7789  141.9123  159.1599 H   0  0  0  0  0  0  0  0  0  0  0  0
  152.9104  141.6528  160.6604 H   0  0  0  0  0  0  0  0  0  0  0  0
  150.8635  140.9789  159.4500 H   0  0  0  0  0  0  0  0  0  0  0  0
  152.2179  140.0087  158.8853 H   0  0  0  0  0  0  0  0  0  0  0  0
  147.8537  139.4267  156.2210 H   0  0  0  0  0  0  0  0  0  0  0  0
  1  2  1  0  0  0  0
  1 23  1  0  0  0  0
  1 24  1  0  0  0  0
  1 25  1  0  0  0  0
  2  3  1  0  0  0  0
  2 26  1  0  0  0  0
  2 27  1  0  0  0  0
  3  4  1  0  0  0  0
  3  5  1  0  0  0  0
  3  6  1  0  0  0  0
  4 28  1  0  0  0  0
  4 29  1  0  0  0  0
  4 30  1  0  0  0  0
  5 31  1  0  0  0  0
  6  7  1  0  0  0  0
  6 32  1  0  0  0  0
  6 33  1  0  0  0  0
  7  8  1  0  0  0  0
  7 34  1  0  0  0  0
  8  9  2  0  0  0  0
  8 10  1  0  0  0  0
 10 11  1  0  0  0  0
 10 35  1  0  0  0  0
 11 22  1  0  0  0  0
 11 12  2  0  0  0  0
 12 13  1  0  0  0  0
 12 36  1  0  0  0  0
 13 14  2  0  0  0  0
 13 37  1  0  0  0  0
 14 15  1  0  0  0  0
 14 21  1  0  0  0  0
 15 20  1  0  0  0  0
 15 16  1  0  0  0  0
 16 17  1  0  0  0  0
 16 38  1  0  0  0  0
 16 39  1  0  0  0  0
 17 18  1  0  0  0  0
 17 40  1  0  0  0  0
 17 41  1  0  0  0  0
 18 19  1  0  0  0  0
 19 20  1  0  0  0  0
 19 42  1  0  0  0  0
 19 43  1  0  0  0  0
 20 44  1  0  0  0  0
 20 45  1  0  0  0  0
 21 22  2  0  0  0  0
 22 46  1  0  0  0  0
M  END
> <s_m_source_file>
AV-unprocessed.smi

> <i_m_source_file_index>
1161

> <i_lp_mmshare_version>
43012

> <i_f3d_flags>
0

> <s_epik_input>
W0NIM11bQ0gyXVtDQEBdKFtDSDNdKShbT0hdKVtDSDJdW05IXUMoPU8pW05IXWMxW2NIXVtjSF1jKG5bY0hdMSlOMltDSDJdW0NIMl1PW0NIMl1bQ0gyXTI=

> <s_epik_cmdline>
J2VwaWtfcHl0aG9uJywgJy1waCcsICc3LjAnLCAnLXRuJywgJzgnLCAnLW1hJywgJzIwMCcsICctbWV0YWxfYmluZGluZycsICctaW1hZScsICc8aW5maWxlLm1hZT4nLCAnLW9tYWUnLCAnPG91dGZpbGUubWFlPic=

> <r_lp_tautomer_probability>
1

> <r_epik_Ionization_Penalty>
0.00208949

> <r_epik_Ionization_Penalty_Charging>
0

> <r_epik_Ionization_Penalty_Neutral>
0.00208949

> <r_epik_State_Penalty>
0.00140033

> <r_epik_Charging_Adjusted_Penalty>
0.00140033

> <i_epik_Tot_Q>
0

> <i_epik_Tot_abs_Q>
0

> <r_epik_Metal_State_Penalty>
-0

> <b_epik_Metal_Only>
0

> <s_lp_Force_Field>
OPLS_2005

> <r_lp_Energy>
23.4822

> <b_lp_Chiralities_Consistent>
1

> <s_lp_Variant>
AV-unprocessed.smi:1161-2

> <Gold.Version>
5.8.1

> <Gold.Id.Protein>
6NUR|6NUR_protein|mol2

> <Gold.PLP.Fitness>
44.1602

> <Gold.PLP.PLP>
-35.7903

> <Gold.PLP.part.hbond>
-3.0000

> <Gold.PLP.part.metal>
0.0000

> <Gold.PLP.part.buried>
-4.7760

> <Gold.PLP.part.nonpolar>
-28.4796

> <Gold.PLP.part.repulsive>
0.1167

> <Gold.PLP.ligand.clash>
0.0040

> <Gold.PLP.ligand.torsion>
0.3600

> <Gold.PLP.Chemscore.Hbond>
2.8960

> <Gold.PLP.Chemscore.CHOScore>
0.0000

> <Gold.PLP.Chemscore.Metal>
0.0000

> <Gold.Chemscore.Hbonds>
donor molecule, donor type, donor heavy atom, donor atom, acceptor molecule, acceptor atom, score
      L1  H     5    31       P1 10171  1.00
      L1  H     7    34       P1  7948  1.00
      L1  H    10    35       P1  7948  0.88

> <Gold.PLP.Chemscore.Internal.Correction>
0.4058

> <Gold.Rescore>
     Score         DG    S(hbond)    S(metal)    S(lipo)     H(rot)  DE(clash)    DE(int)     intcor
     17.43     -19.28       2.92        0.00      81.93       2.16       0.00       1.85       ----

> <Gold.Chemscore.Fitness>
17.4330

> <Gold.Chemscore.DG>
-19.2808

> <Gold.Chemscore.ZeroCoef>
-5.4800

> <Gold.Chemscore.Hbond>
2.9201

> <Gold.Chemscore.Metal>
0.0000

> <Gold.Chemscore.Lipo>
81.9290

> <Gold.Chemscore.Internal_Hbond>
0.0000

> <Gold.Chemscore.DEClash>
0.0021

> <Gold.Chemscore.DEInternal>
1.8456

> <Gold.Chemscore.Rot>
2.1633

> <Gold.Chemscore.Internal.Correction>
   9.000000E+99

> <Gold.Chemscore.Hbonds>
donor molecule, donor type, donor heavy atom, donor atom, acceptor molecule, acceptor atom, score
      L1  H     5    31       P1 10171  1.00
      L1  H     7    34       P1  7948  0.93
      L1  H    10    35       P1  7948  0.80

> <Gold.Chemscore.Hbond.Weighted>
-9.7530

> <Gold.Chemscore.Metal.Weighted>
-0.0000

> <Gold.Chemscore.Lipo.Weighted>
-9.5857

> <Gold.Chemscore.Internal_Hbond.Weighted>
0.0000

> <Gold.Chemscore.DEClash.Weighted>
0.0021

> <Gold.Chemscore.DEInternal.Weighted>
1.8456

> <Gold.Chemscore.Rot.Weighted>
5.5379

> <Gold.Chemscore.Internal.Correction.Weighted>
   9.000000E+99

> <Gold.Protein.RotatedTorsions>
[ 6907 6896 6895 6894 ] final   78.90 input  -60.11 | X-H torsion
[ 7974 7965 7964 7962 ] final  -69.95 input  175.53 | X-H torsion
[ 8008 7997 7996 7995 ] final   -2.04 input   59.86 | X-H torsion
[ 10167 10162 10161 10158 ] final  -11.11 input  -65.29 | X-H torsion
[ 10718 10713 10712 10709 ] final -141.56 input   66.30 | X-H torsion
[ 10763 10752 10751 10750 ] final   25.97 input  -60.55 | X-H torsion
[ 11005 11000 10999 10996 ] final  -62.33 input  -57.11 | X-H torsion

> <Gold.Protein.ActiveResidues>
 VAL166  LYS551  ARG553  GLY616  TRP617  ASP618  TYR619  PRO620  LYS621  CYS622 
 ASP623  PHE694  ASN695  SER759  ASP760  ASP761  ALA762  ILE779  LEU786  VAL792 
 PHE793  MET794  SER795  GLU796  ALA797  LYS798  CYS799  TRP800  GLU811  SER814 

> <Gold.Protein.RotatedAtoms>
  152.5178  134.3593  159.9278 H   0  0  0  0  0  0  0  0  0  0  0  0  # atno 6907 bound_to 6896
  151.3545  133.3906  159.2691 H   0  0  0  0  0  0  0  0  0  0  0  0  # atno 6908 bound_to 6896
  150.9700  134.9093  159.7840 H   0  0  0  0  0  0  0  0  0  0  0  0  # atno 6909 bound_to 6896
  145.6971  140.9131  143.0750 H   0  0  0  0  0  0  0  0  0  0  0  0  # atno 7974 bound_to 7965
  154.6401  140.2544  155.7332 H   0  0  0  0  0  0  0  0  0  0  0  0  # atno 8008 bound_to 7997
  156.2524  140.2889  156.0711 H   0  0  0  0  0  0  0  0  0  0  0  0  # atno 8009 bound_to 7997
  155.1610  140.0384  157.2833 H   0  0  0  0  0  0  0  0  0  0  0  0  # atno 8010 bound_to 7997
  140.7130  143.5675  150.9128 H   0  0  0  0  0  0  0  0  0  0  0  0  # atno 10167 bound_to 10162
  156.3354  130.7609  151.1735 H   0  0  0  0  0  0  0  0  0  0  0  0  # atno 10718 bound_to 10713
  153.0654  135.6571  154.0366 H   0  0  0  0  0  0  0  0  0  0  0  0  # atno 10763 bound_to 10752
  154.0024  135.2936  155.3402 H   0  0  0  0  0  0  0  0  0  0  0  0  # atno 10764 bound_to 10752
  154.7010  135.5244  153.8595 H   0  0  0  0  0  0  0  0  0  0  0  0  # atno 10765 bound_to 10752
  141.1356  133.6639  156.5512 H   0  0  0  0  0  0  0  0  0  0  0  0  # atno 11005 bound_to 11000
  144.6979  139.8899  143.7452 LP  0  0  0  0  0  0  0  0  0  0  0  0  # atno 17320 bound_to 7965
  146.0830  139.3818  143.0452 LP  0  0  0  0  0  0  0  0  0  0  0  0  # atno 17321 bound_to 7965
  139.9401  143.6392  152.3056 LP  0  0  0  0  0  0  0  0  0  0  0  0  # atno 17342 bound_to 10162
  139.6874  144.7650  151.1500 LP  0  0  0  0  0  0  0  0  0  0  0  0  # atno 17343 bound_to 10162
  157.7438  131.0469  150.4919 LP  0  0  0  0  0  0  0  0  0  0  0  0  # atno 17370 bound_to 10713
  156.5091  130.4135  149.6311 LP  0  0  0  0  0  0  0  0  0  0  0  0  # atno 17371 bound_to 10713
  140.4062  134.7312  157.4809 LP  0  0  0  0  0  0  0  0  0  0  0  0  # atno 17394 bound_to 11000
  140.0460  134.6199  155.8921 LP  0  0  0  0  0  0  0  0  0  0  0  0  # atno 17395 bound_to 11000

$$$$
