AV-unprocessed.smi:2365|AV-procd|sdf|9419|dock10
  -GOLD-   2272013 53D 1   1.00000     0.00000
 Structure written by MMmdl.
 29 30  0  0  0  0  0  0  0  0  1 V2000
  152.7246  138.6228  154.8537 C   0  0  0  0  0  0  0  0  0  0  0  0
  151.3289  139.1109  155.2545 C   0  0  2  0  0  0  0  0  0  0  0  0
  150.1938  138.5207  154.4263 C   0  0  0  0  0  0  0  0  0  0  0  0
  149.0758  139.5328  154.6141 C   0  0  0  0  0  0  0  0  0  0  0  0
  149.8040  140.8392  154.9911 C   0  0  1  0  0  0  0  0  0  0  0  0
  149.3760  141.4017  156.3592 C   0  0  0  0  0  0  0  0  0  0  0  0
  148.4945  140.8277  156.9984 O   0  0  0  0  0  0  0  0  0  0  0  0
  150.0096  142.5130  156.7779 N   0  0  0  0  0  0  0  0  0  0  0  0
  149.8453  143.2133  158.0033 C   0  0  0  0  0  0  0  0  0  0  0  0
  148.6870  143.1008  158.8104 C   0  0  0  0  0  0  0  0  0  0  0  0
  148.5143  143.7806  159.9635 N   0  0  0  0  0  0  0  0  0  0  0  0
  149.4980  144.6139  160.3605 C   0  0  0  0  0  0  0  0  0  0  0  0
  150.6851  144.8149  159.6296 C   0  0  0  0  0  0  0  0  0  0  0  0
  151.8852  145.9110  160.2154 Cl  0  0  0  0  0  0  0  0  0  0  0  0
  150.8604  144.1038  158.4226 C   0  0  0  0  0  0  0  0  0  0  0  0
  152.2980  144.3119  157.4796 Cl  0  0  0  0  0  0  0  0  0  0  0  0
  151.1932  140.5011  155.0017 O   0  0  0  0  0  0  0  0  0  0  0  0
  152.8233  137.5490  155.0126 H   0  0  0  0  0  0  0  0  0  0  0  0
  153.4937  139.1196  155.4454 H   0  0  0  0  0  0  0  0  0  0  0  0
  152.9292  138.8274  153.8026 H   0  0  0  0  0  0  0  0  0  0  0  0
  151.1558  138.9220  156.3156 H   0  0  0  0  0  0  0  0  0  0  0  0
  150.4770  138.4787  153.3737 H   0  0  0  0  0  0  0  0  0  0  0  0
  149.9161  137.5150  154.7427 H   0  0  0  0  0  0  0  0  0  0  0  0
  148.4824  139.6436  153.7061 H   0  0  0  0  0  0  0  0  0  0  0  0
  148.4027  139.1944  155.4035 H   0  0  0  0  0  0  0  0  0  0  0  0
  149.6399  141.6076  154.2352 H   0  0  0  0  0  0  0  0  0  0  0  0
  150.7699  142.8289  156.1924 H   0  0  0  0  0  0  0  0  0  0  0  0
  147.8585  142.4699  158.5273 H   0  0  0  0  0  0  0  0  0  0  0  0
  149.3300  145.1409  161.2883 H   0  0  0  0  0  0  0  0  0  0  0  0
  1  2  1  0  0  0  0
  1 18  1  0  0  0  0
  1 19  1  0  0  0  0
  1 20  1  0  0  0  0
  2 17  1  0  0  0  0
  2  3  1  0  0  0  0
  2 21  1  0  0  0  0
  3  4  1  0  0  0  0
  3 22  1  0  0  0  0
  3 23  1  0  0  0  0
  4  5  1  0  0  0  0
  4 24  1  0  0  0  0
  4 25  1  0  0  0  0
  5  6  1  0  0  0  0
  5 17  1  0  0  0  0
  5 26  1  0  0  0  0
  6  7  2  0  0  0  0
  6  8  1  0  0  0  0
  8  9  1  0  0  0  0
  8 27  1  0  0  0  0
  9 15  1  0  0  0  0
  9 10  2  0  0  0  0
 10 11  1  0  0  0  0
 10 28  1  0  0  0  0
 11 12  2  0  0  0  0
 12 13  1  0  0  0  0
 12 29  1  0  0  0  0
 13 14  1  0  0  0  0
 13 15  2  0  0  0  0
 15 16  1  0  0  0  0
M  END
> <s_m_source_file>
AV-unprocessed.smi

> <i_m_source_file_index>
2365

> <i_lp_mmshare_version>
43012

> <i_f3d_flags>
0

> <s_epik_input>
W0NIM11bQ0BASF0xW0NIMl1bQ0gyXVtDQEhdKE8xKUMoPU8pW05IXWMyW2NIXW5bY0hdYyhDbCljMkNs

> <s_epik_cmdline>
J2VwaWtfcHl0aG9uJywgJy1waCcsICc3LjAnLCAnLXRuJywgJzgnLCAnLW1hJywgJzIwMCcsICctbWV0YWxfYmluZGluZycsICctaW1hZScsICc8aW5maWxlLm1hZT4nLCAnLW9tYWUnLCAnPG91dGZpbGUubWFlPic=

> <r_lp_tautomer_probability>
1

> <r_epik_Ionization_Penalty>
7.32461e-06

> <r_epik_Ionization_Penalty_Charging>
0

> <r_epik_Ionization_Penalty_Neutral>
7.32461e-06

> <r_epik_State_Penalty>
-0

> <r_epik_Charging_Adjusted_Penalty>
0

> <i_epik_Tot_Q>
0

> <i_epik_Tot_abs_Q>
0

> <r_epik_Metal_State_Penalty>
-0

> <b_epik_Metal_Only>
0

> <s_lp_Force_Field>
OPLS_2005

> <r_lp_Energy>
23.4255

> <b_lp_Chiralities_Consistent>
1

> <s_lp_Variant>
AV-unprocessed.smi:2365-1

> <Gold.Version>
5.8.1

> <Gold.Id.Protein>
6NUR|6NUR_protein|mol2

> <Gold.PLP.Fitness>
38.5183

> <Gold.PLP.PLP>
-33.3248

> <Gold.PLP.part.hbond>
-2.9790

> <Gold.PLP.part.metal>
0.0000

> <Gold.PLP.part.buried>
-2.1032

> <Gold.PLP.part.nonpolar>
-29.7243

> <Gold.PLP.part.repulsive>
0.2697

> <Gold.PLP.ligand.clash>
0.0000

> <Gold.PLP.ligand.torsion>
0.0945

> <Gold.PLP.Chemscore.Hbond>
1.7920

> <Gold.PLP.Chemscore.CHOScore>
0.0000

> <Gold.PLP.Chemscore.Metal>
0.0000

> <Gold.Chemscore.Hbonds>
donor molecule, donor type, donor heavy atom, donor atom, acceptor molecule, acceptor atom, score
      P1  H  6933  6944       L1    11  0.78
      P1  H  7989  7998       L1    17  0.99

> <Gold.PLP.Chemscore.Internal.Correction>
0.0066

> <Gold.Rescore>
     Score         DG    S(hbond)    S(metal)    S(lipo)     H(rot)  DE(clash)    DE(int)     intcor
     15.77     -17.92       1.14        0.00      95.54       1.00       0.82       1.32       ----

> <Gold.Chemscore.Fitness>
15.7714

> <Gold.Chemscore.DG>
-17.9196

> <Gold.Chemscore.ZeroCoef>
-5.4800

> <Gold.Chemscore.Hbond>
1.1442

> <Gold.Chemscore.Metal>
0.0000

> <Gold.Chemscore.Lipo>
95.5388

> <Gold.Chemscore.Internal_Hbond>
0.0000

> <Gold.Chemscore.DEClash>
0.8234

> <Gold.Chemscore.DEInternal>
1.3248

> <Gold.Chemscore.Rot>
1.0000

> <Gold.Chemscore.Internal.Correction>
   9.000000E+99

> <Gold.Chemscore.Hbonds>
donor molecule, donor type, donor heavy atom, donor atom, acceptor molecule, acceptor atom, score
      P1  H  6933  6944       L1    11  0.13
      P1  H  7989  7998       L1    17  0.26

> <Gold.Chemscore.Hbond.Weighted>
-3.8216

> <Gold.Chemscore.Metal.Weighted>
-0.0000

> <Gold.Chemscore.Lipo.Weighted>
-11.1780

> <Gold.Chemscore.Internal_Hbond.Weighted>
0.0000

> <Gold.Chemscore.DEClash.Weighted>
0.8234

> <Gold.Chemscore.DEInternal.Weighted>
1.3248

> <Gold.Chemscore.Rot.Weighted>
2.5600

> <Gold.Chemscore.Internal.Correction.Weighted>
   9.000000E+99

> <Gold.Protein.RotatedTorsions>
[ 6907 6896 6895 6894 ] final  141.16 input  -60.11 | X-H torsion
[ 7974 7965 7964 7962 ] final   24.07 input  175.53 | X-H torsion
[ 8008 7997 7996 7995 ] final  125.30 input   59.86 | X-H torsion
[ 10167 10162 10161 10158 ] final -177.99 input  -65.29 | X-H torsion
[ 10718 10713 10712 10709 ] final  122.17 input   66.30 | X-H torsion
[ 10763 10752 10751 10750 ] final  -48.09 input  -60.55 | X-H torsion
[ 11005 11000 10999 10996 ] final   86.63 input  -57.11 | X-H torsion

> <Gold.Protein.ActiveResidues>
 VAL166  LYS551  ARG553  GLY616  TRP617  ASP618  TYR619  PRO620  LYS621  CYS622 
 ASP623  PHE694  ASN695  SER759  ASP760  ASP761  ALA762  ILE779  LEU786  VAL792 
 PHE793  MET794  SER795  GLU796  ALA797  LYS798  CYS799  TRP800  GLU811  SER814 

> <Gold.Protein.RotatedAtoms>
  152.2343  133.5084  159.5233 H   0  0  0  0  0  0  0  0  0  0  0  0  # atno 6907 bound_to 6896
  150.7046  134.1174  159.4031 H   0  0  0  0  0  0  0  0  0  0  0  0  # atno 6908 bound_to 6896
  151.9095  135.0345  160.0564 H   0  0  0  0  0  0  0  0  0  0  0  0  # atno 6909 bound_to 6896
  146.1955  139.7656  142.8800 H   0  0  0  0  0  0  0  0  0  0  0  0  # atno 7974 bound_to 7965
  156.2830  140.2719  156.1928 H   0  0  0  0  0  0  0  0  0  0  0  0  # atno 8008 bound_to 7997
  155.0441  140.0386  157.2538 H   0  0  0  0  0  0  0  0  0  0  0  0  # atno 8009 bound_to 7997
  154.7249  140.2695  155.6513 H   0  0  0  0  0  0  0  0  0  0  0  0  # atno 8010 bound_to 7997
  139.5453  144.2251  152.0976 H   0  0  0  0  0  0  0  0  0  0  0  0  # atno 10167 bound_to 10162
  157.5763  131.1079  150.8273 H   0  0  0  0  0  0  0  0  0  0  0  0  # atno 10718 bound_to 10713
  154.0721  135.6603  153.4825 H   0  0  0  0  0  0  0  0  0  0  0  0  # atno 10763 bound_to 10752
  153.0387  135.5159  154.7557 H   0  0  0  0  0  0  0  0  0  0  0  0  # atno 10764 bound_to 10752
  154.6626  135.3017  154.9814 H   0  0  0  0  0  0  0  0  0  0  0  0  # atno 10765 bound_to 10752
  139.8940  134.8368  156.2747 H   0  0  0  0  0  0  0  0  0  0  0  0  # atno 11005 bound_to 11000
  145.3658  141.0334  143.3259 LP  0  0  0  0  0  0  0  0  0  0  0  0  # atno 17320 bound_to 7965
  144.8571  139.5233  143.6829 LP  0  0  0  0  0  0  0  0  0  0  0  0  # atno 17321 bound_to 7965
  140.1737  144.4911  150.6566 LP  0  0  0  0  0  0  0  0  0  0  0  0  # atno 17342 bound_to 10162
  140.6699  143.2282  151.5650 LP  0  0  0  0  0  0  0  0  0  0  0  0  # atno 17343 bound_to 10162
  156.8731  130.5153  149.5295 LP  0  0  0  0  0  0  0  0  0  0  0  0  # atno 17370 bound_to 10713
  156.0807  130.5818  150.9558 LP  0  0  0  0  0  0  0  0  0  0  0  0  # atno 17371 bound_to 10713
  141.0078  133.7113  156.1062 LP  0  0  0  0  0  0  0  0  0  0  0  0  # atno 17394 bound_to 11000
  140.7410  134.4150  157.5554 LP  0  0  0  0  0  0  0  0  0  0  0  0  # atno 17395 bound_to 11000

$$$$
