AV-unprocessed.smi:1047|AV-procd|sdf|4567|dock10
  -GOLD-   22720 3 23D 1   1.00000     0.00000
 Structure written by MMmdl.
 57 59  0  0  0  0  0  0  0  0  3 V2000
  144.1023  135.4287  150.6946 C   0  0  0  0  0  0  0  0  0  0  0  0
  145.6131  135.1754  150.8008 C   0  0  0  0  0  0  0  0  0  0  0  0
  146.2710  136.0531  151.8012 N   0  3  2  0  0  0  0  0  0  0  0  0
  145.8359  135.7523  153.1862 C   0  0  0  0  0  0  0  0  0  0  0  0
  146.5885  136.6377  154.1935 C   0  0  0  0  0  0  0  0  0  0  0  0
  146.3788  138.0090  153.8779 O   0  0  0  0  0  0  0  0  0  0  0  0
  146.8574  138.3425  152.5795 C   0  0  2  0  0  0  0  0  0  0  0  0
  146.7178  139.8607  152.3715 C   0  0  0  0  0  0  0  0  0  0  0  0
  146.2859  140.5565  153.6019 N   0  3  0  0  0  0  0  0  0  0  0  0
  147.1402  141.7005  153.9797 C   0  0  0  0  0  0  0  0  0  0  0  0
  148.5738  141.2429  154.2935 C   0  0  1  0  0  0  0  0  0  0  0  0
  149.3161  141.2151  153.0889 O   0  0  0  0  0  0  0  0  0  0  0  0
  149.2688  142.1720  155.3077 C   0  0  0  0  0  0  0  0  0  0  0  0
  150.2906  141.4861  156.0784 N   0  0  0  0  0  0  0  0  0  0  0  0
  150.7570  140.2388  155.8754 C   0  0  0  0  0  0  0  0  0  0  0  0
  151.7055  139.8018  156.6983 N   0  0  0  0  0  0  0  0  0  0  0  0
  151.8719  140.8914  157.5359 C   0  0  0  0  0  0  0  0  0  0  0  0
  152.7387  141.0787  158.6347 C   0  0  0  0  0  0  0  0  0  0  0  0
  152.7386  142.2916  159.3598 C   0  0  0  0  0  0  0  0  0  0  0  0
  153.6859  142.4478  160.5364 C   0  0  0  0  0  0  0  0  0  0  0  0
  151.8599  143.3409  158.9887 C   0  0  0  0  0  0  0  0  0  0  0  0
  151.8361  144.6498  159.7578 C   0  0  0  0  0  0  0  0  0  0  0  0
  150.9905  143.1723  157.8907 C   0  0  0  0  0  0  0  0  0  0  0  0
  150.9997  141.9606  157.1771 C   0  0  0  0  0  0  0  0  0  0  0  0
  146.1182  137.5019  151.5164 C   0  0  0  0  0  0  0  0  0  0  0  0
  143.6730  134.8444  149.8802 H   0  0  0  0  0  0  0  0  0  0  0  0
  143.8908  136.4791  150.4926 H   0  0  0  0  0  0  0  0  0  0  0  0
  143.5743  135.1460  151.6048 H   0  0  0  0  0  0  0  0  0  0  0  0
  145.8115  134.1276  151.0311 H   0  0  0  0  0  0  0  0  0  0  0  0
  146.0527  135.3653  149.8207 H   0  0  0  0  0  0  0  0  0  0  0  0
  144.7604  135.9135  153.2762 H   0  0  0  0  0  0  0  0  0  0  0  0
  146.0224  134.7021  153.4143 H   0  0  0  0  0  0  0  0  0  0  0  0
  146.2253  136.4489  155.2040 H   0  0  0  0  0  0  0  0  0  0  0  0
  147.6556  136.4095  154.1921 H   0  0  0  0  0  0  0  0  0  0  0  0
  147.9216  138.1036  152.5336 H   0  0  0  0  0  0  0  0  0  0  0  0
  147.6747  140.2742  152.0503 H   0  0  0  0  0  0  0  0  0  0  0  0
  146.0017  140.0612  151.5733 H   0  0  0  0  0  0  0  0  0  0  0  0
  145.3416  140.8918  153.4761 H   0  0  0  0  0  0  0  0  0  0  0  0
  147.1428  142.4444  153.1814 H   0  0  0  0  0  0  0  0  0  0  0  0
  146.7048  142.1770  154.8590 H   0  0  0  0  0  0  0  0  0  0  0  0
  148.5488  140.2310  154.7011 H   0  0  0  0  0  0  0  0  0  0  0  0
  149.7467  140.3766  153.0156 H   0  0  0  0  0  0  0  0  0  0  0  0
  149.7249  143.0224  154.7994 H   0  0  0  0  0  0  0  0  0  0  0  0
  148.5375  142.5838  156.0046 H   0  0  0  0  0  0  0  0  0  0  0  0
  150.3813  139.6177  155.0754 H   0  0  0  0  0  0  0  0  0  0  0  0
  153.4060  140.2781  158.9183 H   0  0  0  0  0  0  0  0  0  0  0  0
  153.1246  142.5457  161.4656 H   0  0  0  0  0  0  0  0  0  0  0  0
  154.3103  143.3327  160.4133 H   0  0  0  0  0  0  0  0  0  0  0  0
  154.3465  141.5859  160.6322 H   0  0  0  0  0  0  0  0  0  0  0  0
  151.0652  145.3206  159.3777 H   0  0  0  0  0  0  0  0  0  0  0  0
  152.7960  145.1595  159.6736 H   0  0  0  0  0  0  0  0  0  0  0  0
  151.6299  144.4697  160.8132 H   0  0  0  0  0  0  0  0  0  0  0  0
  150.3188  143.9655  157.5976 H   0  0  0  0  0  0  0  0  0  0  0  0
  146.5195  137.7373  150.5312 H   0  0  0  0  0  0  0  0  0  0  0  0
  145.0567  137.7530  151.4982 H   0  0  0  0  0  0  0  0  0  0  0  0
  146.2927  139.8943  154.3655 H   0  0  0  0  0  0  0  0  0  0  0  0
  147.2584  135.8427  151.7622 H   0  0  0  0  0  0  0  0  0  0  0  0
  1  2  1  0  0  0  0
  1 26  1  0  0  0  0
  1 27  1  0  0  0  0
  1 28  1  0  0  0  0
  2  3  1  0  0  0  0
  2 29  1  0  0  0  0
  2 30  1  0  0  0  0
  3 25  1  0  0  0  0
  3  4  1  0  0  0  0
  3 57  1  0  0  0  0
  4  5  1  0  0  0  0
  4 31  1  0  0  0  0
  4 32  1  0  0  0  0
  5  6  1  0  0  0  0
  5 33  1  0  0  0  0
  5 34  1  0  0  0  0
  6  7  1  0  0  0  0
  7  8  1  0  0  0  0
  7 25  1  0  0  0  0
  7 35  1  0  0  0  0
  8  9  1  0  0  0  0
  8 36  1  0  0  0  0
  8 37  1  0  0  0  0
  9 10  1  0  0  0  0
  9 38  1  0  0  0  0
  9 56  1  0  0  0  0
 10 11  1  0  0  0  0
 10 39  1  0  0  0  0
 10 40  1  0  0  0  0
 11 12  1  0  0  0  0
 11 13  1  0  0  0  0
 11 41  1  0  0  0  0
 12 42  1  0  0  0  0
 13 14  1  0  0  0  0
 13 43  1  0  0  0  0
 13 44  1  0  0  0  0
 14 24  1  0  0  0  0
 14 15  1  0  0  0  0
 15 16  2  0  0  0  0
 15 45  1  0  0  0  0
 16 17  1  0  0  0  0
 17 24  2  0  0  0  0
 17 18  1  0  0  0  0
 18 19  2  0  0  0  0
 18 46  1  0  0  0  0
 19 20  1  0  0  0  0
 19 21  1  0  0  0  0
 20 47  1  0  0  0  0
 20 48  1  0  0  0  0
 20 49  1  0  0  0  0
 21 22  1  0  0  0  0
 21 23  2  0  0  0  0
 22 50  1  0  0  0  0
 22 51  1  0  0  0  0
 22 52  1  0  0  0  0
 23 24  1  0  0  0  0
 23 53  1  0  0  0  0
 25 54  1  0  0  0  0
 25 55  1  0  0  0  0
M  CHG  1   3   1
M  CHG  1   9   1
M  END
> <s_m_source_file>
AV-unprocessed.smi

> <i_m_source_file_index>
1047

> <i_lp_mmshare_version>
43012

> <i_f3d_flags>
0

> <s_epik_input>
W0NIM11bQ0gyXU4xW0NIMl1bQ0gyXU9bQ0BIXShbQ0gyXTEpW0NIMl1bTkhdW0NIMl1bQ0BIXShbT0hdKVtDSDJdbihbY0hdbjIpYyhjMjMpW2NIXWMoW0NIM10pYyhbY0hdMylbQ0gzXQ==

> <s_epik_cmdline>
J2VwaWtfcHl0aG9uJywgJy1waCcsICc3LjAnLCAnLXRuJywgJzgnLCAnLW1hJywgJzIwMCcsICctbWV0YWxfYmluZGluZycsICctaW1hZScsICc8aW5maWxlLm1hZT4nLCAnLW9tYWUnLCAnPG91dGZpbGUubWFlPic=

> <r_epik_Ionization_Penalty>
0.528991

> <r_epik_Ionization_Penalty_Charging>
0.438567

> <r_epik_Ionization_Penalty_Neutral>
0.0904237

> <r_epik_State_Penalty>
0.533036

> <r_epik_Charging_Adjusted_Penalty>
0.971603

> <i_epik_Tot_Q>
2

> <i_epik_Tot_abs_Q>
2

> <r_epik_Metal_State_Penalty>
0.448985

> <b_epik_Metal_Only>
0

> <s_lp_Force_Field>
OPLS_2005

> <r_lp_Energy>
32.051

> <b_lp_Chiralities_Consistent>
1

> <s_lp_Variant>
AV-unprocessed.smi:1047-8

> <Gold.Version>
5.8.1

> <Gold.Id.Protein>
6NUR|6NUR_protein|mol2

> <Gold.PLP.Fitness>
59.8292

> <Gold.PLP.PLP>
-49.0736

> <Gold.PLP.part.hbond>
-3.9949

> <Gold.PLP.part.metal>
0.0000

> <Gold.PLP.part.buried>
3.6058

> <Gold.PLP.part.nonpolar>
-49.1992

> <Gold.PLP.part.repulsive>
0.2013

> <Gold.PLP.ligand.clash>
0.0000

> <Gold.PLP.ligand.torsion>
1.7977

> <Gold.PLP.Chemscore.Hbond>
4.7280

> <Gold.PLP.Chemscore.CHOScore>
0.0000

> <Gold.PLP.Chemscore.Metal>
0.0000

> <Gold.Chemscore.Hbonds>
donor molecule, donor type, donor heavy atom, donor atom, acceptor molecule, acceptor atom, score
      L1  H     3    57       P1  7948  2.00
      L1  H     9    38       P1 10175  1.66
      L1  H    12    42       P1  7957  0.03
      P1  H  8011  8017       L1    12  0.91

> <Gold.PLP.Chemscore.Internal.Correction>
0.1671

> <Gold.Rescore>
     Score         DG    S(hbond)    S(metal)    S(lipo)     H(rot)  DE(clash)    DE(int)     intcor
     18.80     -24.23       2.80        0.00     139.42       2.70       2.65       2.78       ----

> <Gold.Chemscore.Fitness>
18.7986

> <Gold.Chemscore.DG>
-24.2347

> <Gold.Chemscore.ZeroCoef>
-5.4800

> <Gold.Chemscore.Hbond>
2.7996

> <Gold.Chemscore.Metal>
0.0000

> <Gold.Chemscore.Lipo>
139.4210

> <Gold.Chemscore.Internal_Hbond>
0.0000

> <Gold.Chemscore.DEClash>
2.6527

> <Gold.Chemscore.DEInternal>
2.7834

> <Gold.Chemscore.Rot>
2.6985

> <Gold.Chemscore.Internal.Correction>
   9.000000E+99

> <Gold.Chemscore.Hbonds>
donor molecule, donor type, donor heavy atom, donor atom, acceptor molecule, acceptor atom, score
      L1  H     3    57       P1  7948  0.98
      L1  H     9    38       P1 10175  0.61
      L1  H    12    42       P1  7957  0.08
      P1  H  8011  8017       L1    12  0.85

> <Gold.Chemscore.Hbond.Weighted>
-9.3506

> <Gold.Chemscore.Metal.Weighted>
-0.0000

> <Gold.Chemscore.Lipo.Weighted>
-16.3123

> <Gold.Chemscore.Internal_Hbond.Weighted>
0.0000

> <Gold.Chemscore.DEClash.Weighted>
2.6527

> <Gold.Chemscore.DEInternal.Weighted>
2.7834

> <Gold.Chemscore.Rot.Weighted>
6.9081

> <Gold.Chemscore.Internal.Correction.Weighted>
   9.000000E+99

> <Gold.Protein.RotatedTorsions>
[ 6907 6896 6895 6894 ] final   48.06 input  -60.11 | X-H torsion
[ 7974 7965 7964 7962 ] final  173.53 input  175.53 | X-H torsion
[ 8008 7997 7996 7995 ] final -107.80 input   59.86 | X-H torsion
[ 10167 10162 10161 10158 ] final -144.45 input  -65.29 | X-H torsion
[ 10718 10713 10712 10709 ] final   84.01 input   66.30 | X-H torsion
[ 10763 10752 10751 10750 ] final  145.90 input  -60.55 | X-H torsion
[ 11005 11000 10999 10996 ] final  -88.05 input  -57.11 | X-H torsion

> <Gold.Protein.ActiveResidues>
 VAL166  LYS551  ARG553  GLY616  TRP617  ASP618  TYR619  PRO620  LYS621  CYS622 
 ASP623  PHE694  ASN695  SER759  ASP760  ASP761  ALA762  ILE779  LEU786  VAL792 
 PHE793  MET794  SER795  GLU796  ALA797  LYS798  CYS799  TRP800  GLU811  SER814 

> <Gold.Protein.RotatedAtoms>
  152.2752  134.7889  160.0406 H   0  0  0  0  0  0  0  0  0  0  0  0  # atno 6907 bound_to 6896
  151.8488  133.3431  159.3674 H   0  0  0  0  0  0  0  0  0  0  0  0  # atno 6908 bound_to 6896
  150.7167  134.5248  159.5715 H   0  0  0  0  0  0  0  0  0  0  0  0  # atno 6909 bound_to 6896
  144.7241  139.9661  143.6436 H   0  0  0  0  0  0  0  0  0  0  0  0  # atno 7974 bound_to 7965
  154.9347  140.0404  157.2066 H   0  0  0  0  0  0  0  0  0  0  0  0  # atno 8008 bound_to 7997
  154.8127  140.2870  155.5820 H   0  0  0  0  0  0  0  0  0  0  0  0  # atno 8009 bound_to 7997
  156.2973  140.2534  156.3018 H   0  0  0  0  0  0  0  0  0  0  0  0  # atno 8010 bound_to 7997
  139.7898  143.7982  152.2648 H   0  0  0  0  0  0  0  0  0  0  0  0  # atno 10167 bound_to 10162
  157.6890  131.0115  150.2609 H   0  0  0  0  0  0  0  0  0  0  0  0  # atno 10718 bound_to 10713
  154.0129  135.2913  155.3390 H   0  0  0  0  0  0  0  0  0  0  0  0  # atno 10763 bound_to 10752
  154.7092  135.5156  153.8644 H   0  0  0  0  0  0  0  0  0  0  0  0  # atno 10764 bound_to 10752
  153.0715  135.6649  154.0359 H   0  0  0  0  0  0  0  0  0  0  0  0  # atno 10765 bound_to 10752
  141.1608  133.7547  156.9395 H   0  0  0  0  0  0  0  0  0  0  0  0  # atno 11005 bound_to 11000
  146.0599  139.3593  143.0588 LP  0  0  0  0  0  0  0  0  0  0  0  0  # atno 17320 bound_to 7965
  145.8106  140.9727  143.0951 LP  0  0  0  0  0  0  0  0  0  0  0  0  # atno 17321 bound_to 7965
  139.8070  144.7351  150.9748 LP  0  0  0  0  0  0  0  0  0  0  0  0  # atno 17342 bound_to 10162
  140.7820  143.4288  151.0727 LP  0  0  0  0  0  0  0  0  0  0  0  0  # atno 17343 bound_to 10162
  156.3189  130.3783  149.7593 LP  0  0  0  0  0  0  0  0  0  0  0  0  # atno 17370 bound_to 10713
  156.5170  130.8198  151.3190 LP  0  0  0  0  0  0  0  0  0  0  0  0  # atno 17371 bound_to 10713
  140.1331  134.9342  157.2365 LP  0  0  0  0  0  0  0  0  0  0  0  0  # atno 17394 bound_to 11000
  140.2928  134.3221  155.7310 LP  0  0  0  0  0  0  0  0  0  0  0  0  # atno 17395 bound_to 11000

$$$$
