AV-unprocessed.smi:3311|AV-procd|sdf|12720|dock5
  -GOLD-   2272019 63D 1   1.00000     0.00000
 Structure written by MMmdl.
 44 45  0  0  0  0  0  0  0  0  2 V2000
  146.5574  138.9808  151.0125 C   0  0  0  0  0  0  0  0  0  0  0  0
  146.4081  138.2382  152.3528 C   0  0  1  0  0  0  0  0  0  0  0  0
  146.5587  136.7860  152.1131 N   0  3  0  0  0  0  0  0  0  0  0  0
  145.6071  136.2125  151.1368 C   0  0  0  0  0  0  0  0  0  0  0  0
  145.3241  134.7174  151.4016 C   0  0  0  0  0  0  0  0  0  0  0  0
  144.9322  134.6008  152.7584 O   0  0  0  0  0  0  0  0  0  0  0  0
  144.1430  134.2435  150.5218 C   0  0  0  0  0  0  0  0  0  0  0  0
  143.8598  132.7362  150.6549 C   0  0  0  0  0  0  0  0  0  0  0  0
  145.1168  131.9050  150.3642 C   0  0  0  0  0  0  0  0  0  0  0  0
  146.2792  132.3302  151.2722 C   0  0  0  0  0  0  0  0  0  0  0  0
  146.5721  133.8363  151.1457 C   0  0  0  0  0  0  0  0  0  0  0  0
  147.4168  138.7092  153.4329 C   0  0  2  0  0  0  0  0  0  0  0  0
  147.3852  137.8358  154.7010 C   0  0  0  0  0  0  0  0  0  0  0  0
  147.2154  140.1081  153.7894 N   0  0  0  0  0  0  0  0  0  0  0  0
  148.0495  141.1864  153.5679 C   0  0  0  0  0  0  0  0  0  0  0  0
  147.4391  142.2896  154.0918 C   0  0  0  0  0  0  0  0  0  0  0  0
  146.2214  141.7814  154.6232 C   0  0  0  0  0  0  0  0  0  0  0  0
  146.0920  140.4768  154.4434 N   0  0  0  0  0  0  0  0  0  0  0  0
  146.3491  140.0462  151.1124 H   0  0  0  0  0  0  0  0  0  0  0  0
  145.8625  138.5889  150.2691 H   0  0  0  0  0  0  0  0  0  0  0  0
  147.5662  138.8753  150.6123 H   0  0  0  0  0  0  0  0  0  0  0  0
  145.3987  138.4390  152.7169 H   0  0  0  0  0  0  0  0  0  0  0  0
  147.4964  136.6103  151.7825 H   0  0  0  0  0  0  0  0  0  0  0  0
  144.6753  136.7793  151.1754 H   0  0  0  0  0  0  0  0  0  0  0  0
  146.0147  136.3442  150.1334 H   0  0  0  0  0  0  0  0  0  0  0  0
  145.7074  134.4678  153.2835 H   0  0  0  0  0  0  0  0  0  0  0  0
  143.2407  134.8077  150.7622 H   0  0  0  0  0  0  0  0  0  0  0  0
  144.3637  134.4627  149.4761 H   0  0  0  0  0  0  0  0  0  0  0  0
  143.4961  132.5131  151.6586 H   0  0  0  0  0  0  0  0  0  0  0  0
  143.0609  132.4487  149.9707 H   0  0  0  0  0  0  0  0  0  0  0  0
  144.9028  130.8450  150.5057 H   0  0  0  0  0  0  0  0  0  0  0  0
  145.4037  132.0262  149.3188 H   0  0  0  0  0  0  0  0  0  0  0  0
  146.0428  132.0852  152.3083 H   0  0  0  0  0  0  0  0  0  0  0  0
  147.1724  131.7580  151.0194 H   0  0  0  0  0  0  0  0  0  0  0  0
  146.9501  134.0338  150.1416 H   0  0  0  0  0  0  0  0  0  0  0  0
  147.3786  134.1025  151.8301 H   0  0  0  0  0  0  0  0  0  0  0  0
  148.4197  138.6256  153.0092 H   0  0  0  0  0  0  0  0  0  0  0  0
  147.6609  136.8039  154.4830 H   0  0  0  0  0  0  0  0  0  0  0  0
  146.3944  137.8241  155.1563 H   0  0  0  0  0  0  0  0  0  0  0  0
  148.0895  138.2054  155.4473 H   0  0  0  0  0  0  0  0  0  0  0  0
  148.9980  141.0813  153.0618 H   0  0  0  0  0  0  0  0  0  0  0  0
  147.8066  143.3051  154.0956 H   0  0  0  0  0  0  0  0  0  0  0  0
  145.4335  142.3173  155.1318 H   0  0  0  0  0  0  0  0  0  0  0  0
  146.4362  136.3036  152.9925 H   0  0  0  0  0  0  0  0  0  0  0  0
  1  2  1  0  0  0  0
  1 19  1  0  0  0  0
  1 20  1  0  0  0  0
  1 21  1  0  0  0  0
  2  3  1  0  0  0  0
  2 12  1  0  0  0  0
  2 22  1  0  0  0  0
  3  4  1  0  0  0  0
  3 23  1  0  0  0  0
  3 44  1  0  0  0  0
  4  5  1  0  0  0  0
  4 24  1  0  0  0  0
  4 25  1  0  0  0  0
  5 11  1  0  0  0  0
  5  6  1  0  0  0  0
  5  7  1  0  0  0  0
  6 26  1  0  0  0  0
  7  8  1  0  0  0  0
  7 27  1  0  0  0  0
  7 28  1  0  0  0  0
  8  9  1  0  0  0  0
  8 29  1  0  0  0  0
  8 30  1  0  0  0  0
  9 10  1  0  0  0  0
  9 31  1  0  0  0  0
  9 32  1  0  0  0  0
 10 11  1  0  0  0  0
 10 33  1  0  0  0  0
 10 34  1  0  0  0  0
 11 35  1  0  0  0  0
 11 36  1  0  0  0  0
 12 13  1  0  0  0  0
 12 14  1  0  0  0  0
 12 37  1  0  0  0  0
 13 38  1  0  0  0  0
 13 39  1  0  0  0  0
 13 40  1  0  0  0  0
 14 18  1  0  0  0  0
 14 15  1  0  0  0  0
 15 16  2  0  0  0  0
 15 41  1  0  0  0  0
 16 17  1  0  0  0  0
 16 42  1  0  0  0  0
 17 18  2  0  0  0  0
 17 43  1  0  0  0  0
M  CHG  1   3   1
M  END
> <s_m_source_file>
AV-unprocessed.smi

> <i_m_source_file_index>
3311

> <i_lp_mmshare_version>
43012

> <i_f3d_flags>
0

> <s_epik_input>
bjFbY0hdW2NIXVtjSF1uMVtDQEBIXShbQ0gzXSlbQ0BIXShbQ0gzXSlbTkhdW0NIMl1DMihbT0hdKVtDSDJdW0NIMl1bQ0gyXVtDSDJdW0NIMl0y

> <s_epik_cmdline>
J2VwaWtfcHl0aG9uJywgJy1waCcsICc3LjAnLCAnLXRuJywgJzgnLCAnLW1hJywgJzIwMCcsICctbWV0YWxfYmluZGluZycsICctaW1hZScsICc8aW5maWxlLm1hZT4nLCAnLW9tYWUnLCAnPG91dGZpbGUubWFlPic=

> <r_lp_tautomer_probability>
1

> <r_epik_Ionization_Penalty>
0.0141403

> <r_epik_Ionization_Penalty_Charging>
0.0141276

> <r_epik_Ionization_Penalty_Neutral>
1.27139e-05

> <r_epik_State_Penalty>
0.0110334

> <r_epik_Charging_Adjusted_Penalty>
0.025161

> <i_epik_Tot_Q>
1

> <i_epik_Tot_abs_Q>
1

> <r_epik_Metal_State_Penalty>
0.0110573

> <b_epik_Metal_Only>
0

> <s_lp_Force_Field>
OPLS_2005

> <r_lp_Energy>
23.6471

> <b_lp_Chiralities_Consistent>
1

> <s_lp_Variant>
AV-unprocessed.smi:3311-2

> <Gold.Version>
5.8.1

> <Gold.Id.Protein>
6NUR|6NUR_protein|mol2

> <Gold.PLP.Fitness>
43.5545

> <Gold.PLP.PLP>
-35.1294

> <Gold.PLP.part.hbond>
-0.9474

> <Gold.PLP.part.metal>
0.0000

> <Gold.PLP.part.buried>
-0.4936

> <Gold.PLP.part.nonpolar>
-34.5448

> <Gold.PLP.part.repulsive>
0.2176

> <Gold.PLP.ligand.clash>
0.0000

> <Gold.PLP.ligand.torsion>
0.3208

> <Gold.PLP.Chemscore.Hbond>
2.0000

> <Gold.PLP.Chemscore.CHOScore>
1.0000

> <Gold.PLP.Chemscore.Metal>
0.0000

> <Gold.Chemscore.Hbonds>
donor molecule, donor type, donor heavy atom, donor atom, acceptor molecule, acceptor atom, score
      L1  H     3    23       P1  7948  1.76
      L1  C    15    41       P1  7957  1.00

> <Gold.PLP.Chemscore.Internal.Correction>
0.0667

> <Gold.Rescore>
     Score         DG    S(hbond)    S(metal)    S(lipo)     H(rot)  DE(clash)    DE(int)     intcor
     14.21     -14.60       0.99        0.00      96.55       2.14       0.14       0.25       ----

> <Gold.Chemscore.Fitness>
14.2100

> <Gold.Chemscore.DG>
-14.6011

> <Gold.Chemscore.ZeroCoef>
-5.4800

> <Gold.Chemscore.Hbond>
0.9908

> <Gold.Chemscore.Metal>
0.0000

> <Gold.Chemscore.Lipo>
96.5501

> <Gold.Chemscore.Internal_Hbond>
0.0000

> <Gold.Chemscore.DEClash>
0.1434

> <Gold.Chemscore.DEInternal>
0.2477

> <Gold.Chemscore.Rot>
2.1424

> <Gold.Chemscore.Internal.Correction>
   9.000000E+99

> <Gold.Chemscore.Hbonds>
donor molecule, donor type, donor heavy atom, donor atom, acceptor molecule, acceptor atom, score
      L1  H     3    23       P1  7948  0.85

> <Gold.Chemscore.Hbond.Weighted>
-3.3094

> <Gold.Chemscore.Metal.Weighted>
-0.0000

> <Gold.Chemscore.Lipo.Weighted>
-11.2964

> <Gold.Chemscore.Internal_Hbond.Weighted>
0.0000

> <Gold.Chemscore.DEClash.Weighted>
0.1434

> <Gold.Chemscore.DEInternal.Weighted>
0.2477

> <Gold.Chemscore.Rot.Weighted>
5.4846

> <Gold.Chemscore.Internal.Correction.Weighted>
   9.000000E+99

> <Gold.Protein.RotatedTorsions>
[ 6907 6896 6895 6894 ] final  119.28 input  -60.11 | X-H torsion
[ 7974 7965 7964 7962 ] final  -86.84 input  175.53 | X-H torsion
[ 8008 7997 7996 7995 ] final -173.40 input   59.86 | X-H torsion
[ 10167 10162 10161 10158 ] final   -9.69 input  -65.29 | X-H torsion
[ 10718 10713 10712 10709 ] final  -96.71 input   66.30 | X-H torsion
[ 10763 10752 10751 10750 ] final  122.65 input  -60.55 | X-H torsion
[ 11005 11000 10999 10996 ] final   81.95 input  -57.11 | X-H torsion

> <Gold.Protein.ActiveResidues>
 VAL166  LYS551  ARG553  GLY616  TRP617  ASP618  TYR619  PRO620  LYS621  CYS622 
 ASP623  PHE694  ASN695  SER759  ASP760  ASP761  ALA762  ILE779  LEU786  VAL792 
 PHE793  MET794  SER795  GLU796  ALA797  LYS798  CYS799  TRP800  GLU811  SER814 

> <Gold.Protein.RotatedAtoms>
  152.4483  133.7579  159.6730 H   0  0  0  0  0  0  0  0  0  0  0  0  # atno 6907 bound_to 6896
  150.8388  133.7959  159.3075 H   0  0  0  0  0  0  0  0  0  0  0  0  # atno 6908 bound_to 6896
  151.5590  135.1068  160.0020 H   0  0  0  0  0  0  0  0  0  0  0  0  # atno 6909 bound_to 6896
  145.4745  140.9559  143.1899 H   0  0  0  0  0  0  0  0  0  0  0  0  # atno 7974 bound_to 7965
  155.9569  140.1137  157.0929 H   0  0  0  0  0  0  0  0  0  0  0  0  # atno 8008 bound_to 7997
  154.4122  140.1189  156.5193 H   0  0  0  0  0  0  0  0  0  0  0  0  # atno 8009 bound_to 7997
  155.6771  140.3473  155.4843 H   0  0  0  0  0  0  0  0  0  0  0  0  # atno 8010 bound_to 7997
  140.7094  143.5830  150.8972 H   0  0  0  0  0  0  0  0  0  0  0  0  # atno 10167 bound_to 10162
  156.0068  130.5163  150.6267 H   0  0  0  0  0  0  0  0  0  0  0  0  # atno 10718 bound_to 10713
  153.6331  135.3392  155.3048 H   0  0  0  0  0  0  0  0  0  0  0  0  # atno 10763 bound_to 10752
  154.8576  135.4300  154.2085 H   0  0  0  0  0  0  0  0  0  0  0  0  # atno 10764 bound_to 10752
  153.2985  135.7022  153.7299 H   0  0  0  0  0  0  0  0  0  0  0  0  # atno 10765 bound_to 10752
  139.9080  134.8035  156.2110 H   0  0  0  0  0  0  0  0  0  0  0  0  # atno 11005 bound_to 11000
  144.7925  139.6299  143.7107 LP  0  0  0  0  0  0  0  0  0  0  0  0  # atno 17320 bound_to 7965
  146.2377  139.5939  142.9512 LP  0  0  0  0  0  0  0  0  0  0  0  0  # atno 17321 bound_to 7965
  139.9556  143.6222  152.3017 LP  0  0  0  0  0  0  0  0  0  0  0  0  # atno 17342 bound_to 10162
  139.6756  144.7659  151.1702 LP  0  0  0  0  0  0  0  0  0  0  0  0  # atno 17343 bound_to 10162
  157.4073  131.0818  151.1254 LP  0  0  0  0  0  0  0  0  0  0  0  0  # atno 17370 bound_to 10713
  157.1897  130.6346  149.5700 LP  0  0  0  0  0  0  0  0  0  0  0  0  # atno 17371 bound_to 10713
  141.0466  133.6910  156.1694 LP  0  0  0  0  0  0  0  0  0  0  0  0  # atno 17394 bound_to 11000
  140.6875  134.4701  157.5589 LP  0  0  0  0  0  0  0  0  0  0  0  0  # atno 17395 bound_to 11000

$$$$
