AV-unprocessed.smi:1535|AV-procd|sdf|6171|dock5
  -GOLD-   22720 6323D 1   1.00000     0.00000
 Structure written by MMmdl.
 46 47  0  0  0  0  0  0  0  0  1 V2000
  151.9225  142.9461  158.4530 C   0  0  0  0  0  0  0  0  0  0  0  0
  152.4961  142.8549  159.8561 C   0  0  0  0  0  0  0  0  0  0  0  0
  153.3375  141.7682  160.1848 C   0  0  0  0  0  0  0  0  0  0  0  0
  153.8907  141.6457  161.4782 C   0  0  0  0  0  0  0  0  0  0  0  0
  154.7270  140.6793  162.0101 N   0  0  0  0  0  0  0  0  0  0  0  0
  154.8891  141.1209  163.2541 C   0  0  0  0  0  0  0  0  0  0  0  0
  154.2549  142.2603  163.5920 N   0  0  0  0  0  0  0  0  0  0  0  0
  154.2844  142.9335  164.8786 C   0  0  0  0  0  0  0  0  0  0  0  0
  155.6956  142.9710  165.4960 C   0  0  1  0  0  0  0  0  0  0  0  0
  156.4263  144.0369  164.9199 O   0  0  0  0  0  0  0  0  0  0  0  0
  155.6370  143.1834  167.0232 C   0  0  0  0  0  0  0  0  0  0  0  0
  155.9810  142.0147  167.8420 N   0  0  0  0  0  0  0  0  0  0  0  0
  155.5605  140.7726  167.1989 C   0  0  0  0  0  0  0  0  0  0  0  0
  155.3963  142.0952  169.1827 C   0  0  0  0  0  0  0  0  0  0  0  0
  155.4258  140.7920  170.0063 C   0  0  2  0  0  0  0  0  0  0  0  0
  154.6710  140.9280  171.3366 C   0  0  0  0  0  0  0  0  0  0  0  0
  156.8151  140.3712  170.2470 C   0  0  0  0  0  0  0  0  0  0  0  0
  157.9074  140.0401  170.4362 N   0  0  0  0  0  0  0  0  0  0  0  0
  153.5781  142.6493  162.4412 C   0  0  0  0  0  0  0  0  0  0  0  0
  152.7430  143.7358  162.1261 C   0  0  0  0  0  0  0  0  0  0  0  0
  152.1960  143.8411  160.8300 C   0  0  0  0  0  0  0  0  0  0  0  0
  151.2917  145.0157  160.5010 C   0  0  0  0  0  0  0  0  0  0  0  0
  152.2908  142.1391  157.8189 H   0  0  0  0  0  0  0  0  0  0  0  0
  152.2008  143.8907  157.9856 H   0  0  0  0  0  0  0  0  0  0  0  0
  150.8346  142.8801  158.4813 H   0  0  0  0  0  0  0  0  0  0  0  0
  153.5656  141.0161  159.4440 H   0  0  0  0  0  0  0  0  0  0  0  0
  155.5036  140.5839  163.9620 H   0  0  0  0  0  0  0  0  0  0  0  0
  153.8934  143.9446  164.7542 H   0  0  0  0  0  0  0  0  0  0  0  0
  153.5964  142.4132  165.5462 H   0  0  0  0  0  0  0  0  0  0  0  0
  156.2004  142.0385  165.2493 H   0  0  0  0  0  0  0  0  0  0  0  0
  155.8149  144.6673  164.5715 H   0  0  0  0  0  0  0  0  0  0  0  0
  156.2979  144.0162  167.2571 H   0  0  0  0  0  0  0  0  0  0  0  0
  154.6369  143.5217  167.2985 H   0  0  0  0  0  0  0  0  0  0  0  0
  155.8049  139.9121  167.8230 H   0  0  0  0  0  0  0  0  0  0  0  0
  156.0656  140.6199  166.2467 H   0  0  0  0  0  0  0  0  0  0  0  0
  154.4843  140.7642  167.0214 H   0  0  0  0  0  0  0  0  0  0  0  0
  155.8928  142.8876  169.7450 H   0  0  0  0  0  0  0  0  0  0  0  0
  154.3525  142.4025  169.1013 H   0  0  0  0  0  0  0  0  0  0  0  0
  154.9842  139.9755  169.4376 H   0  0  0  0  0  0  0  0  0  0  0  0
  154.7134  139.9986  171.9051 H   0  0  0  0  0  0  0  0  0  0  0  0
  153.6195  141.1655  171.1741 H   0  0  0  0  0  0  0  0  0  0  0  0
  155.1007  141.7163  171.9553 H   0  0  0  0  0  0  0  0  0  0  0  0
  152.5237  144.4803  162.8770 H   0  0  0  0  0  0  0  0  0  0  0  0
  151.1156  145.6397  161.3776 H   0  0  0  0  0  0  0  0  0  0  0  0
  150.3240  144.6655  160.1413 H   0  0  0  0  0  0  0  0  0  0  0  0
  151.7435  145.6399  159.7299 H   0  0  0  0  0  0  0  0  0  0  0  0
  1  2  1  0  0  0  0
  1 23  1  0  0  0  0
  1 24  1  0  0  0  0
  1 25  1  0  0  0  0
  2 21  1  0  0  0  0
  2  3  2  0  0  0  0
  3  4  1  0  0  0  0
  3 26  1  0  0  0  0
  4 19  2  0  0  0  0
  4  5  1  0  0  0  0
  5  6  2  0  0  0  0
  6  7  1  0  0  0  0
  6 27  1  0  0  0  0
  7  8  1  0  0  0  0
  7 19  1  0  0  0  0
  8  9  1  0  0  0  0
  8 28  1  0  0  0  0
  8 29  1  0  0  0  0
  9 10  1  0  0  0  0
  9 11  1  0  0  0  0
  9 30  1  0  0  0  0
 10 31  1  0  0  0  0
 11 12  1  0  0  0  0
 11 32  1  0  0  0  0
 11 33  1  0  0  0  0
 12 13  1  0  0  0  0
 12 14  1  0  0  0  0
 13 34  1  0  0  0  0
 13 35  1  0  0  0  0
 13 36  1  0  0  0  0
 14 15  1  0  0  0  0
 14 37  1  0  0  0  0
 14 38  1  0  0  0  0
 15 16  1  0  0  0  0
 15 17  1  0  0  0  0
 15 39  1  0  0  0  0
 16 40  1  0  0  0  0
 16 41  1  0  0  0  0
 16 42  1  0  0  0  0
 17 18  3  0  0  0  0
 19 20  1  0  0  0  0
 20 21  2  0  0  0  0
 20 43  1  0  0  0  0
 21 22  1  0  0  0  0
 22 44  1  0  0  0  0
 22 45  1  0  0  0  0
 22 46  1  0  0  0  0
M  END
> <s_m_source_file>
AV-unprocessed.smi

> <i_m_source_file_index>
1535

> <i_lp_mmshare_version>
43012

> <i_f3d_flags>
0

> <s_epik_input>
W0NIM11jKFtjSF0xKWMoW0NIM10pW2NIXWMoYzEyKW4oW2NIXW4yKVtDSDJdW0NASF0oW09IXSlbQ0gyXU4oW0NIM10pW0NIMl1bQ0BIXShbQ0gzXSlDI04=

> <s_epik_cmdline>
J2VwaWtfcHl0aG9uJywgJy1waCcsICc3LjAnLCAnLXRuJywgJzgnLCAnLW1hJywgJzIwMCcsICctbWV0YWxfYmluZGluZycsICctaW1hZScsICc8aW5maWxlLm1hZT4nLCAnLW9tYWUnLCAnPG91dGZpbGUubWFlPic=

> <r_epik_Ionization_Penalty>
0.098511

> <r_epik_Ionization_Penalty_Charging>
0

> <r_epik_Ionization_Penalty_Neutral>
0.098511

> <r_epik_State_Penalty>
0.0881608

> <r_epik_Charging_Adjusted_Penalty>
0.0881608

> <i_epik_Tot_Q>
0

> <i_epik_Tot_abs_Q>
0

> <r_epik_Metal_State_Penalty>
0.0128087

> <b_epik_Metal_Only>
0

> <s_lp_Force_Field>
OPLS_2005

> <r_lp_Energy>
24.761

> <b_lp_Chiralities_Consistent>
1

> <s_lp_Variant>
AV-unprocessed.smi:1535-2

> <Gold.Version>
5.8.1

> <Gold.Id.Protein>
6NUR|6NUR_protein|mol2

> <Gold.PLP.Fitness>
46.9663

> <Gold.PLP.PLP>
-49.9809

> <Gold.PLP.part.hbond>
-2.3174

> <Gold.PLP.part.metal>
0.0000

> <Gold.PLP.part.buried>
-2.6613

> <Gold.PLP.part.nonpolar>
-44.2334

> <Gold.PLP.part.repulsive>
0.1051

> <Gold.PLP.ligand.clash>
0.0000

> <Gold.PLP.ligand.torsion>
1.5315

> <Gold.PLP.Chemscore.Hbond>
0.0000

> <Gold.PLP.Chemscore.CHOScore>
0.0000

> <Gold.PLP.Chemscore.Metal>
0.0000

> <Gold.PLP.Chemscore.Internal.Correction>
0.0484

> <Gold.Rescore>
     Score         DG    S(hbond)    S(metal)    S(lipo)     H(rot)  DE(clash)    DE(int)     intcor
     11.62     -15.30       0.00        0.00     138.86       2.51       2.10       1.57       ----

> <Gold.Chemscore.Fitness>
11.6223

> <Gold.Chemscore.DG>
-15.2981

> <Gold.Chemscore.ZeroCoef>
-5.4800

> <Gold.Chemscore.Hbond>
0.0000

> <Gold.Chemscore.Metal>
0.0000

> <Gold.Chemscore.Lipo>
138.8632

> <Gold.Chemscore.Internal_Hbond>
0.0000

> <Gold.Chemscore.DEClash>
2.1027

> <Gold.Chemscore.DEInternal>
1.5731

> <Gold.Chemscore.Rot>
2.5113

> <Gold.Chemscore.Internal.Correction>
   9.000000E+99

> <Gold.Chemscore.Hbond.Weighted>
-0.0000

> <Gold.Chemscore.Metal.Weighted>
-0.0000

> <Gold.Chemscore.Lipo.Weighted>
-16.2470

> <Gold.Chemscore.Internal_Hbond.Weighted>
0.0000

> <Gold.Chemscore.DEClash.Weighted>
2.1027

> <Gold.Chemscore.DEInternal.Weighted>
1.5731

> <Gold.Chemscore.Rot.Weighted>
6.4289

> <Gold.Chemscore.Internal.Correction.Weighted>
   9.000000E+99

> <Gold.Protein.RotatedTorsions>
[ 6907 6896 6895 6894 ] final -107.40 input  -60.11 | X-H torsion
[ 7974 7965 7964 7962 ] final -154.54 input  175.53 | X-H torsion
[ 8008 7997 7996 7995 ] final   39.52 input   59.86 | X-H torsion
[ 10167 10162 10161 10158 ] final  145.07 input  -65.29 | X-H torsion
[ 10718 10713 10712 10709 ] final   59.87 input   66.30 | X-H torsion
[ 10763 10752 10751 10750 ] final   38.17 input  -60.55 | X-H torsion
[ 11005 11000 10999 10996 ] final  -20.57 input  -57.11 | X-H torsion

> <Gold.Protein.ActiveResidues>
 VAL166  LYS551  ARG553  GLY616  TRP617  ASP618  TYR619  PRO620  LYS621  CYS622 
 ASP623  PHE694  ASN695  SER759  ASP760  ASP761  ALA762  ILE779  LEU786  VAL792 
 PHE793  MET794  SER795  GLU796  ALA797  LYS798  CYS799  TRP800  GLU811  SER814 

> <Gold.Protein.RotatedAtoms>
  150.7442  133.9832  159.3582 H   0  0  0  0  0  0  0  0  0  0  0  0  # atno 6907 bound_to 6896
  151.7775  135.0768  160.0378 H   0  0  0  0  0  0  0  0  0  0  0  0  # atno 6908 bound_to 6896
  152.3297  133.5907  159.5837 H   0  0  0  0  0  0  0  0  0  0  0  0  # atno 6909 bound_to 6896
  144.7684  140.4374  143.5925 H   0  0  0  0  0  0  0  0  0  0  0  0  # atno 7974 bound_to 7965
  155.2379  140.3343  155.4295 H   0  0  0  0  0  0  0  0  0  0  0  0  # atno 8008 bound_to 7997
  156.2268  140.1833  156.7389 H   0  0  0  0  0  0  0  0  0  0  0  0  # atno 8009 bound_to 7997
  154.5911  140.0638  156.9226 H   0  0  0  0  0  0  0  0  0  0  0  0  # atno 8010 bound_to 7997
  139.4933  144.5927  151.6646 H   0  0  0  0  0  0  0  0  0  0  0  0  # atno 10167 bound_to 10162
  157.5709  130.8907  149.9266 H   0  0  0  0  0  0  0  0  0  0  0  0  # atno 10718 bound_to 10713
  153.0010  135.6257  154.2262 H   0  0  0  0  0  0  0  0  0  0  0  0  # atno 10763 bound_to 10752
  154.2005  135.2804  155.2994 H   0  0  0  0  0  0  0  0  0  0  0  0  # atno 10764 bound_to 10752
  154.5687  135.5683  153.7134 H   0  0  0  0  0  0  0  0  0  0  0  0  # atno 10765 bound_to 10752
  140.8477  133.7879  155.9931 H   0  0  0  0  0  0  0  0  0  0  0  0  # atno 11005 bound_to 11000
  145.6398  139.1548  143.2922 LP  0  0  0  0  0  0  0  0  0  0  0  0  # atno 17320 bound_to 7965
  146.1811  140.6495  142.9188 LP  0  0  0  0  0  0  0  0  0  0  0  0  # atno 17321 bound_to 7965
  140.5558  144.0350  150.6147 LP  0  0  0  0  0  0  0  0  0  0  0  0  # atno 17342 bound_to 10162
  140.3419  143.3014  152.0579 LP  0  0  0  0  0  0  0  0  0  0  0  0  # atno 17343 bound_to 10162
  156.0755  130.3679  150.0687 LP  0  0  0  0  0  0  0  0  0  0  0  0  # atno 17370 bound_to 10713
  156.8840  130.9566  151.3596 LP  0  0  0  0  0  0  0  0  0  0  0  0  # atno 17371 bound_to 10713
  140.8825  134.2594  157.5137 LP  0  0  0  0  0  0  0  0  0  0  0  0  # atno 17394 bound_to 11000
  139.8703  134.9622  156.4421 LP  0  0  0  0  0  0  0  0  0  0  0  0  # atno 17395 bound_to 11000

$$$$
