AV-unprocessed.smi:256|AV-procd|sdf|1962|dock9
  -GOLD-   2262021113D 1   1.00000     0.00000
 Structure written by MMmdl.
 61 64  0  0  0  0  0  0  0  0  1 V2000
  147.4138  136.5805  163.2734 C   0  0  0  0  0  0  0  0  0  0  0  0
  146.8613  135.4699  162.3664 C   0  0  0  0  0  0  0  0  0  0  0  0
  147.0389  135.7153  160.8429 C   0  0  1  0  0  0  0  0  0  0  0  0
  148.4177  136.3825  160.5943 C   0  0  0  0  0  0  0  0  0  0  0  0
  148.6339  136.6569  159.1756 N   0  0  0  0  0  0  0  0  0  0  0  0
  149.6716  137.4608  158.8300 C   0  0  0  0  0  0  0  0  0  0  0  0
  150.9516  137.0442  159.0258 N   0  0  0  0  0  0  0  0  0  0  0  0
  151.9779  137.8282  158.6828 C   0  0  0  0  0  0  0  0  0  0  0  0
  151.9519  139.0478  158.1424 N   0  0  0  0  0  0  0  0  0  0  0  0
  150.6713  139.4758  157.9512 C   0  0  0  0  0  0  0  0  0  0  0  0
  149.4850  138.7529  158.2620 C   0  0  0  0  0  0  0  0  0  0  0  0
  148.3690  139.5155  157.9368 N   0  0  0  0  0  0  0  0  0  0  0  0
  148.8668  140.6220  157.4566 C   0  0  0  0  0  0  0  0  0  0  0  0
  150.2417  140.6863  157.4357 N   0  0  0  0  0  0  0  0  0  0  0  0
  151.0543  141.7978  156.9658 C   0  0  0  0  0  0  0  0  0  0  0  0
  151.0437  143.0241  157.9120 C   0  0  0  0  0  0  0  0  0  0  0  0
  149.7305  143.5584  157.9073 O   0  0  0  0  0  0  0  0  0  0  0  0
  151.4188  142.6585  159.3652 C   0  0  0  0  0  0  0  0  0  0  0  0
  151.6017  143.9063  160.2473 C   0  0  0  0  0  0  0  0  0  0  0  0
  152.5607  144.7814  159.6659 O   0  0  0  0  0  0  0  0  0  0  0  0
  152.1563  145.2744  158.3944 C   0  0  0  0  0  0  0  0  0  0  0  0
  152.0111  144.1093  157.3991 C   0  0  0  0  0  0  0  0  0  0  0  0
  148.4759  135.4725  158.3439 C   0  0  0  0  0  0  0  0  0  0  0  0
  147.1007  134.8474  158.6011 C   0  0  0  0  0  0  0  0  0  0  0  0
  146.8859  134.4968  160.0111 N   0  0  0  0  0  0  0  0  0  0  0  0
  145.5801  133.8407  160.1838 C   0  0  0  0  0  0  0  0  0  0  0  0
  144.3555  134.7724  160.2023 C   0  0  0  0  0  0  0  0  0  0  0  0
  144.2629  135.4088  161.4668 O   0  0  0  0  0  0  0  0  0  0  0  0
  143.9507  134.5023  162.5096 C   0  0  0  0  0  0  0  0  0  0  0  0
  147.1198  136.4090  164.3090 H   0  0  0  0  0  0  0  0  0  0  0  0
  147.0305  137.5581  162.9795 H   0  0  0  0  0  0  0  0  0  0  0  0
  148.5026  136.6202  163.2551 H   0  0  0  0  0  0  0  0  0  0  0  0
  147.3134  134.5172  162.6443 H   0  0  0  0  0  0  0  0  0  0  0  0
  145.8048  135.3919  162.6149 H   0  0  0  0  0  0  0  0  0  0  0  0
  146.2721  136.4301  160.5395 H   0  0  0  0  0  0  0  0  0  0  0  0
  148.4797  137.3279  161.1325 H   0  0  0  0  0  0  0  0  0  0  0  0
  149.2179  135.7409  160.9669 H   0  0  0  0  0  0  0  0  0  0  0  0
  152.9605  137.4200  158.8685 H   0  0  0  0  0  0  0  0  0  0  0  0
  148.2410  141.4318  157.1103 H   0  0  0  0  0  0  0  0  0  0  0  0
  152.0751  141.4375  156.8325 H   0  0  0  0  0  0  0  0  0  0  0  0
  150.7021  142.0816  155.9729 H   0  0  0  0  0  0  0  0  0  0  0  0
  149.6167  144.0681  157.1196 H   0  0  0  0  0  0  0  0  0  0  0  0
  150.6683  142.0036  159.8097 H   0  0  0  0  0  0  0  0  0  0  0  0
  152.3536  142.0962  159.3631 H   0  0  0  0  0  0  0  0  0  0  0  0
  150.6549  144.4293  160.3901 H   0  0  0  0  0  0  0  0  0  0  0  0
  151.9503  143.6128  161.2376 H   0  0  0  0  0  0  0  0  0  0  0  0
  151.2233  145.8324  158.4873 H   0  0  0  0  0  0  0  0  0  0  0  0
  152.9087  145.9775  158.0366 H   0  0  0  0  0  0  0  0  0  0  0  0
  152.9962  143.6685  157.2406 H   0  0  0  0  0  0  0  0  0  0  0  0
  151.6855  144.4846  156.4279 H   0  0  0  0  0  0  0  0  0  0  0  0
  148.5726  135.7104  157.2853 H   0  0  0  0  0  0  0  0  0  0  0  0
  149.2654  134.7580  158.5819 H   0  0  0  0  0  0  0  0  0  0  0  0
  146.3191  135.5303  158.2643 H   0  0  0  0  0  0  0  0  0  0  0  0
  147.0306  133.9601  157.9741 H   0  0  0  0  0  0  0  0  0  0  0  0
  145.3996  133.1571  159.3579 H   0  0  0  0  0  0  0  0  0  0  0  0
  145.5876  133.2326  161.0894 H   0  0  0  0  0  0  0  0  0  0  0  0
  144.4664  135.5264  159.4218 H   0  0  0  0  0  0  0  0  0  0  0  0
  143.4390  134.2264  159.9770 H   0  0  0  0  0  0  0  0  0  0  0  0
  143.8841  135.0405  163.4550 H   0  0  0  0  0  0  0  0  0  0  0  0
  144.7228  133.7387  162.6110 H   0  0  0  0  0  0  0  0  0  0  0  0
  142.9927  134.0116  162.3329 H   0  0  0  0  0  0  0  0  0  0  0  0
  1  2  1  0  0  0  0
  1 30  1  0  0  0  0
  1 31  1  0  0  0  0
  1 32  1  0  0  0  0
  2  3  1  0  0  0  0
  2 33  1  0  0  0  0
  2 34  1  0  0  0  0
  3 25  1  0  0  0  0
  3  4  1  0  0  0  0
  3 35  1  0  0  0  0
  4  5  1  0  0  0  0
  4 36  1  0  0  0  0
  4 37  1  0  0  0  0
  5  6  1  0  0  0  0
  5 23  1  0  0  0  0
  6 11  1  0  0  0  0
  6  7  2  0  0  0  0
  7  8  1  0  0  0  0
  8  9  2  0  0  0  0
  8 38  1  0  0  0  0
  9 10  1  0  0  0  0
 10 14  1  0  0  0  0
 10 11  2  0  0  0  0
 11 12  1  0  0  0  0
 12 13  2  0  0  0  0
 13 14  1  0  0  0  0
 13 39  1  0  0  0  0
 14 15  1  0  0  0  0
 15 16  1  0  0  0  0
 15 40  1  0  0  0  0
 15 41  1  0  0  0  0
 16 22  1  0  0  0  0
 16 17  1  0  0  0  0
 16 18  1  0  0  0  0
 17 42  1  0  0  0  0
 18 19  1  0  0  0  0
 18 43  1  0  0  0  0
 18 44  1  0  0  0  0
 19 20  1  0  0  0  0
 19 45  1  0  0  0  0
 19 46  1  0  0  0  0
 20 21  1  0  0  0  0
 21 22  1  0  0  0  0
 21 47  1  0  0  0  0
 21 48  1  0  0  0  0
 22 49  1  0  0  0  0
 22 50  1  0  0  0  0
 23 24  1  0  0  0  0
 23 51  1  0  0  0  0
 23 52  1  0  0  0  0
 24 25  1  0  0  0  0
 24 53  1  0  0  0  0
 24 54  1  0  0  0  0
 25 26  1  0  0  0  0
 26 27  1  0  0  0  0
 26 55  1  0  0  0  0
 26 56  1  0  0  0  0
 27 28  1  0  0  0  0
 27 57  1  0  0  0  0
 27 58  1  0  0  0  0
 28 29  1  0  0  0  0
 29 59  1  0  0  0  0
 29 60  1  0  0  0  0
 29 61  1  0  0  0  0
M  END
> <s_m_source_file>
AV-unprocessed.smi

> <i_m_source_file_index>
256

> <i_lp_mmshare_version>
43012

> <i_f3d_flags>
0

> <s_epik_input>
W0NIM11PW0NIMl1bQ0gyXU4xW0NIMl1bQ0gyXU4oW0NIMl1bQ0BIXTFbQ0gyXVtDSDNdKWMobltjSF1uMiljKGMyMyluW2NIXW4zW0NIMl1DNChbT0hdKVtDSDJdW0NIMl1PW0NIMl1bQ0gyXTQ=

> <s_epik_cmdline>
J2VwaWtfcHl0aG9uJywgJy1waCcsICc3LjAnLCAnLXRuJywgJzgnLCAnLW1hJywgJzIwMCcsICctbWV0YWxfYmluZGluZycsICctaW1hZScsICc8aW5maWxlLm1hZT4nLCAnLW9tYWUnLCAnPG91dGZpbGUubWFlPic=

> <r_lp_tautomer_probability>
1

> <r_epik_Ionization_Penalty>
0.676279

> <r_epik_Ionization_Penalty_Charging>
0

> <r_epik_Ionization_Penalty_Neutral>
0.676279

> <r_epik_State_Penalty>
0.6855

> <r_epik_Charging_Adjusted_Penalty>
0.6855

> <i_epik_Tot_Q>
0

> <i_epik_Tot_abs_Q>
0

> <r_epik_Metal_State_Penalty>
0.678557

> <b_epik_Metal_Only>
0

> <s_lp_Force_Field>
OPLS_2005

> <r_lp_Energy>
58.0034

> <b_lp_Chiralities_Consistent>
1

> <s_lp_Variant>
AV-unprocessed.smi:256-6

> <Gold.Version>
5.8.1

> <Gold.Id.Protein>
6NUR|6NUR_protein|mol2

> <Gold.PLP.Fitness>
48.8240

> <Gold.PLP.PLP>
-44.1280

> <Gold.PLP.part.hbond>
-3.4432

> <Gold.PLP.part.metal>
0.0000

> <Gold.PLP.part.buried>
-6.3320

> <Gold.PLP.part.nonpolar>
-33.6820

> <Gold.PLP.part.repulsive>
0.0395

> <Gold.PLP.ligand.clash>
0.0000

> <Gold.PLP.ligand.torsion>
0.7152

> <Gold.PLP.Chemscore.Hbond>
1.9100

> <Gold.PLP.Chemscore.CHOScore>
0.0000

> <Gold.PLP.Chemscore.Metal>
0.0000

> <Gold.Chemscore.Hbonds>
donor molecule, donor type, donor heavy atom, donor atom, acceptor molecule, acceptor atom, score
      L1  H    17    42       P1  8028  1.00
      P1  H  6896  6908       L1     7  0.78

> <Gold.PLP.Chemscore.Internal.Correction>
0.3965

> <Gold.Rescore>
     Score         DG    S(hbond)    S(metal)    S(lipo)     H(rot)  DE(clash)    DE(int)     intcor
     14.67     -16.63       1.63        0.00     111.62       2.87       0.17       1.78       ----

> <Gold.Chemscore.Fitness>
14.6729

> <Gold.Chemscore.DG>
-16.6293

> <Gold.Chemscore.ZeroCoef>
-5.4800

> <Gold.Chemscore.Hbond>
1.6277

> <Gold.Chemscore.Metal>
0.0000

> <Gold.Chemscore.Lipo>
111.6228

> <Gold.Chemscore.Internal_Hbond>
0.0000

> <Gold.Chemscore.DEClash>
0.1739

> <Gold.Chemscore.DEInternal>
1.7824

> <Gold.Chemscore.Rot>
2.8700

> <Gold.Chemscore.Internal.Correction>
   9.000000E+99

> <Gold.Chemscore.Hbonds>
donor molecule, donor type, donor heavy atom, donor atom, acceptor molecule, acceptor atom, score
      L1  H    17    42       P1  8028  0.60
      P1  H  6896  6908       L1     7  0.71

> <Gold.Chemscore.Hbond.Weighted>
-5.4366

> <Gold.Chemscore.Metal.Weighted>
-0.0000

> <Gold.Chemscore.Lipo.Weighted>
-13.0599

> <Gold.Chemscore.Internal_Hbond.Weighted>
0.0000

> <Gold.Chemscore.DEClash.Weighted>
0.1739

> <Gold.Chemscore.DEInternal.Weighted>
1.7824

> <Gold.Chemscore.Rot.Weighted>
7.3472

> <Gold.Chemscore.Internal.Correction.Weighted>
   9.000000E+99

> <Gold.Protein.RotatedTorsions>
[ 6907 6896 6895 6894 ] final -141.94 input  -60.11 | X-H torsion
[ 7974 7965 7964 7962 ] final  141.53 input  175.53 | X-H torsion
[ 8008 7997 7996 7995 ] final  156.83 input   59.86 | X-H torsion
[ 10167 10162 10161 10158 ] final -177.20 input  -65.29 | X-H torsion
[ 10718 10713 10712 10709 ] final  -68.90 input   66.30 | X-H torsion
[ 10763 10752 10751 10750 ] final   18.67 input  -60.55 | X-H torsion
[ 11005 11000 10999 10996 ] final -127.42 input  -57.11 | X-H torsion

> <Gold.Protein.ActiveResidues>
 VAL166  LYS551  ARG553  GLY616  TRP617  ASP618  TYR619  PRO620  LYS621  CYS622 
 ASP623  PHE694  ASN695  SER759  ASP760  ASP761  ALA762  ILE779  LEU786  VAL792 
 PHE793  MET794  SER795  GLU796  ALA797  LYS798  CYS799  TRP800  GLU811  SER814 

> <Gold.Protein.RotatedAtoms>
  151.0805  133.5394  159.2620 H   0  0  0  0  0  0  0  0  0  0  0  0  # atno 6907 bound_to 6896
  151.2299  135.0550  159.8993 H   0  0  0  0  0  0  0  0  0  0  0  0  # atno 6908 bound_to 6896
  152.5423  134.0595  159.8199 H   0  0  0  0  0  0  0  0  0  0  0  0  # atno 6909 bound_to 6896
  144.9088  139.5321  143.5718 H   0  0  0  0  0  0  0  0  0  0  0  0  # atno 7974 bound_to 7965
  156.2400  140.1902  156.7015 H   0  0  0  0  0  0  0  0  0  0  0  0  # atno 8008 bound_to 7997
  154.6178  140.0613  156.9604 H   0  0  0  0  0  0  0  0  0  0  0  0  # atno 8009 bound_to 7997
  155.1910  140.3284  155.4361 H   0  0  0  0  0  0  0  0  0  0  0  0  # atno 8010 bound_to 7997
  139.5492  144.2155  152.1045 H   0  0  0  0  0  0  0  0  0  0  0  0  # atno 10167 bound_to 10162
  156.0482  130.4303  150.2069 H   0  0  0  0  0  0  0  0  0  0  0  0  # atno 10718 bound_to 10713
  153.1229  135.6723  153.9306 H   0  0  0  0  0  0  0  0  0  0  0  0  # atno 10763 bound_to 10752
  153.8816  135.3057  155.3446 H   0  0  0  0  0  0  0  0  0  0  0  0  # atno 10764 bound_to 10752
  154.7638  135.4974  153.9594 H   0  0  0  0  0  0  0  0  0  0  0  0  # atno 10765 bound_to 10752
  140.9601  134.0948  157.3977 H   0  0  0  0  0  0  0  0  0  0  0  0  # atno 11005 bound_to 11000
  146.3148  139.7878  142.8992 LP  0  0  0  0  0  0  0  0  0  0  0  0  # atno 17320 bound_to 7965
  145.3489  141.0303  143.3350 LP  0  0  0  0  0  0  0  0  0  0  0  0  # atno 17321 bound_to 7965
  140.1647  144.4992  150.6613 LP  0  0  0  0  0  0  0  0  0  0  0  0  # atno 17342 bound_to 10162
  140.6749  143.2301  151.5532 LP  0  0  0  0  0  0  0  0  0  0  0  0  # atno 17343 bound_to 10162
  157.0156  130.9964  151.3354 LP  0  0  0  0  0  0  0  0  0  0  0  0  # atno 17370 bound_to 10713
  157.5380  130.8101  149.7995 LP  0  0  0  0  0  0  0  0  0  0  0  0  # atno 17371 bound_to 10713
  139.8875  135.0090  156.6564 LP  0  0  0  0  0  0  0  0  0  0  0  0  # atno 17394 bound_to 11000
  140.7480  133.8921  155.8326 LP  0  0  0  0  0  0  0  0  0  0  0  0  # atno 17395 bound_to 11000

$$$$
