AV-unprocessed.smi:1802|AV-procd|sdf|7277|dock2
  -GOLD-   22720 8533D 1   1.00000     0.00000
 Structure written by MMmdl.
 40 41  0  0  0  0  0  0  0  0  3 V2000
  143.1515  134.6960  152.2706 C   0  0  0  0  0  0  0  0  0  0  0  0
  144.4706  134.9077  151.5070 C   0  0  2  0  0  0  0  0  0  0  0  0
  144.4787  134.2259  150.1260 C   0  0  0  0  0  0  0  0  0  0  0  0
  144.6349  132.7042  150.2559 C   0  0  0  0  0  0  0  0  0  0  0  0
  145.8610  132.3448  151.1103 C   0  0  0  0  0  0  0  0  0  0  0  0
  145.7914  132.9906  152.4462 N   0  3  1  0  0  0  0  0  0  0  0  0
  146.8839  132.5420  153.3455 C   0  0  0  0  0  0  0  0  0  0  0  0
  148.1909  133.3166  153.1084 C   0  0  0  0  0  0  0  0  0  0  0  0
  149.0087  133.4793  154.3955 C   0  0  0  0  0  0  0  0  0  0  0  0
  150.0304  134.5029  154.2253 N   0  0  0  0  0  0  0  0  0  0  0  0
  150.2007  135.5626  155.0265 C   0  0  0  0  0  0  0  0  0  0  0  0
  149.4526  135.7282  155.9927 O   0  0  0  0  0  0  0  0  0  0  0  0
  151.2261  136.3630  154.6579 N   0  5  0  0  0  0  0  0  0  0  0  0
  151.0206  137.6781  154.4776 C   0  0  0  0  0  0  0  0  0  0  0  0
  152.0328  138.5503  154.3452 N   0  0  0  0  0  0  0  0  0  0  0  0
  151.6059  139.8588  154.1638 N   0  0  0  0  0  0  0  0  0  0  0  0
  150.2755  139.9388  154.1553 C   0  0  0  0  0  0  0  0  0  0  0  0
  149.4236  138.4236  154.3641 S   0  0  0  0  0  0  0  0  0  0  0  0
  145.6985  134.4718  152.3331 C   0  0  0  0  0  0  0  0  0  0  0  0
  142.9814  133.6461  152.5093 H   0  0  0  0  0  0  0  0  0  0  0  0
  142.3001  135.0455  151.6863 H   0  0  0  0  0  0  0  0  0  0  0  0
  143.1516  135.2500  153.2097 H   0  0  0  0  0  0  0  0  0  0  0  0
  144.5564  135.9820  151.3373 H   0  0  0  0  0  0  0  0  0  0  0  0
  143.5709  134.4684  149.5725 H   0  0  0  0  0  0  0  0  0  0  0  0
  145.3085  134.6189  149.5372 H   0  0  0  0  0  0  0  0  0  0  0  0
  143.7370  132.2733  150.7000 H   0  0  0  0  0  0  0  0  0  0  0  0
  144.7300  132.2568  149.2660 H   0  0  0  0  0  0  0  0  0  0  0  0
  145.9075  131.2611  151.2244 H   0  0  0  0  0  0  0  0  0  0  0  0
  146.7783  132.6504  150.6045 H   0  0  0  0  0  0  0  0  0  0  0  0
  146.5856  132.7033  154.3825 H   0  0  0  0  0  0  0  0  0  0  0  0
  147.0408  131.4680  153.2348 H   0  0  0  0  0  0  0  0  0  0  0  0
  148.8057  132.8096  152.3648 H   0  0  0  0  0  0  0  0  0  0  0  0
  147.9596  134.3010  152.6992 H   0  0  0  0  0  0  0  0  0  0  0  0
  148.3586  133.7584  155.2259 H   0  0  0  0  0  0  0  0  0  0  0  0
  149.4817  132.5314  154.6577 H   0  0  0  0  0  0  0  0  0  0  0  0
  150.6618  134.4027  153.4441 H   0  0  0  0  0  0  0  0  0  0  0  0
  149.7931  140.8955  154.0216 H   0  0  0  0  0  0  0  0  0  0  0  0
  146.6093  134.8489  151.8648 H   0  0  0  0  0  0  0  0  0  0  0  0
  145.6485  134.9315  153.3195 H   0  0  0  0  0  0  0  0  0  0  0  0
  144.9296  132.6722  152.8660 H   0  0  0  0  0  0  0  0  0  0  0  0
  1  2  1  0  0  0  0
  1 20  1  0  0  0  0
  1 21  1  0  0  0  0
  1 22  1  0  0  0  0
  2 19  1  0  0  0  0
  2  3  1  0  0  0  0
  2 23  1  0  0  0  0
  3  4  1  0  0  0  0
  3 24  1  0  0  0  0
  3 25  1  0  0  0  0
  4  5  1  0  0  0  0
  4 26  1  0  0  0  0
  4 27  1  0  0  0  0
  5  6  1  0  0  0  0
  5 28  1  0  0  0  0
  5 29  1  0  0  0  0
  6  7  1  0  0  0  0
  6 19  1  0  0  0  0
  6 40  1  0  0  0  0
  7  8  1  0  0  0  0
  7 30  1  0  0  0  0
  7 31  1  0  0  0  0
  8  9  1  0  0  0  0
  8 32  1  0  0  0  0
  8 33  1  0  0  0  0
  9 10  1  0  0  0  0
  9 34  1  0  0  0  0
  9 35  1  0  0  0  0
 10 11  1  0  0  0  0
 10 36  1  0  0  0  0
 11 12  2  0  0  0  0
 11 13  1  0  0  0  0
 13 14  1  0  0  0  0
 14 18  1  0  0  0  0
 14 15  2  0  0  0  0
 15 16  1  0  0  0  0
 16 17  2  0  0  0  0
 17 18  1  0  0  0  0
 17 37  1  0  0  0  0
 19 38  1  0  0  0  0
 19 39  1  0  0  0  0
M  CHG  1   6   1
M  CHG  1  13  -1
M  END
> <s_m_source_file>
AV-unprocessed.smi

> <i_m_source_file_index>
1802

> <i_lp_mmshare_version>
43012

> <i_f3d_flags>
0

> <s_epik_input>
W0NIM11bQ0BASF0xW0NIMl1bQ0gyXVtDSDJdTihbQ0gyXTEpW0NIMl1bQ0gyXVtDSDJdW05IXUMoPU8pW05IXWMybm5bY0hdczI=

> <s_epik_cmdline>
J2VwaWtfcHl0aG9uJywgJy1waCcsICc3LjAnLCAnLXRuJywgJzgnLCAnLW1hJywgJzIwMCcsICctbWV0YWxfYmluZGluZycsICctaW1hZScsICc8aW5maWxlLm1hZT4nLCAnLW9tYWUnLCAnPG91dGZpbGUubWFlPic=

> <r_lp_tautomer_probability>
1

> <r_epik_Ionization_Penalty>
3.29702

> <r_epik_Ionization_Penalty_Charging>
3.26059

> <r_epik_Ionization_Penalty_Neutral>
0.0364294

> <r_epik_State_Penalty>
3.25788

> <r_epik_Charging_Adjusted_Penalty>
6.51847

> <i_epik_Tot_Q>
0

> <i_epik_Tot_abs_Q>
2

> <r_epik_Metal_State_Penalty>
0.477639

> <b_epik_Metal_Only>
1

> <s_lp_Force_Field>
OPLS_2005

> <r_lp_Energy>
14.2366

> <b_lp_Chiralities_Consistent>
1

> <s_lp_Variant>
AV-unprocessed.smi:1802-7

> <Gold.Version>
5.8.1

> <Gold.Id.Protein>
6NUR|6NUR_protein|mol2

> <Gold.PLP.Fitness>
39.5336

> <Gold.PLP.PLP>
-32.3968

> <Gold.PLP.part.hbond>
-3.3181

> <Gold.PLP.part.metal>
0.0000

> <Gold.PLP.part.buried>
-2.4778

> <Gold.PLP.part.nonpolar>
-26.2834

> <Gold.PLP.part.repulsive>
0.4275

> <Gold.PLP.ligand.clash>
0.0000

> <Gold.PLP.ligand.torsion>
0.9855

> <Gold.PLP.Chemscore.Hbond>
3.0131

> <Gold.PLP.Chemscore.CHOScore>
0.0000

> <Gold.PLP.Chemscore.Metal>
0.0000

> <Gold.Chemscore.Hbonds>
donor molecule, donor type, donor heavy atom, donor atom, acceptor molecule, acceptor atom, score
      P1  H  7989  7998       L1    16  0.09
      P1  H 10752 10763       L1    13  2.00

> <Gold.PLP.Chemscore.Internal.Correction>
0.0685

> <Gold.Rescore>
     Score         DG    S(hbond)    S(metal)    S(lipo)     H(rot)  DE(clash)    DE(int)     intcor
     13.09     -14.46       1.83        0.00      66.80       1.94       0.11       1.26       ----

> <Gold.Chemscore.Fitness>
13.0863

> <Gold.Chemscore.DG>
-14.4557

> <Gold.Chemscore.ZeroCoef>
-5.4800

> <Gold.Chemscore.Hbond>
1.8329

> <Gold.Chemscore.Metal>
0.0000

> <Gold.Chemscore.Lipo>
66.8036

> <Gold.Chemscore.Internal_Hbond>
0.0000

> <Gold.Chemscore.DEClash>
0.1100

> <Gold.Chemscore.DEInternal>
1.2595

> <Gold.Chemscore.Rot>
1.9383

> <Gold.Chemscore.Internal.Correction>
   9.000000E+99

> <Gold.Chemscore.Hbonds>
donor molecule, donor type, donor heavy atom, donor atom, acceptor molecule, acceptor atom, score
      P1  H 10752 10763       L1    13  0.93

> <Gold.Chemscore.Hbond.Weighted>
-6.1218

> <Gold.Chemscore.Metal.Weighted>
-0.0000

> <Gold.Chemscore.Lipo.Weighted>
-7.8160

> <Gold.Chemscore.Internal_Hbond.Weighted>
0.0000

> <Gold.Chemscore.DEClash.Weighted>
0.1100

> <Gold.Chemscore.DEInternal.Weighted>
1.2595

> <Gold.Chemscore.Rot.Weighted>
4.9620

> <Gold.Chemscore.Internal.Correction.Weighted>
   9.000000E+99

> <Gold.Protein.RotatedTorsions>
[ 6907 6896 6895 6894 ] final -144.89 input  -60.11 | X-H torsion
[ 7974 7965 7964 7962 ] final -119.01 input  175.53 | X-H torsion
[ 8008 7997 7996 7995 ] final   45.36 input   59.86 | X-H torsion
[ 10167 10162 10161 10158 ] final  149.23 input  -65.29 | X-H torsion
[ 10718 10713 10712 10709 ] final   -5.80 input   66.30 | X-H torsion
[ 10763 10752 10751 10750 ] final   57.65 input  -60.55 | X-H torsion
[ 11005 11000 10999 10996 ] final  -10.06 input  -57.11 | X-H torsion

> <Gold.Protein.ActiveResidues>
 VAL166  LYS551  ARG553  GLY616  TRP617  ASP618  TYR619  PRO620  LYS621  CYS622 
 ASP623  PHE694  ASN695  SER759  ASP760  ASP761  ALA762  ILE779  LEU786  VAL792 
 PHE793  MET794  SER795  GLU796  ALA797  LYS798  CYS799  TRP800  GLU811  SER814 

> <Gold.Protein.RotatedAtoms>
  151.1202  133.5109  159.2602 H   0  0  0  0  0  0  0  0  0  0  0  0  # atno 6907 bound_to 6896
  151.1870  135.0385  159.8826 H   0  0  0  0  0  0  0  0  0  0  0  0  # atno 6908 bound_to 6896
  152.5455  134.1047  159.8386 H   0  0  0  0  0  0  0  0  0  0  0  0  # atno 6909 bound_to 6896
  145.0674  140.8334  143.4116 H   0  0  0  0  0  0  0  0  0  0  0  0  # atno 7974 bound_to 7965
  155.3347  140.3404  155.4239 H   0  0  0  0  0  0  0  0  0  0  0  0  # atno 8008 bound_to 7997
  156.1844  140.1675  156.8250 H   0  0  0  0  0  0  0  0  0  0  0  0  # atno 8009 bound_to 7997
  154.5369  140.0733  156.8427 H   0  0  0  0  0  0  0  0  0  0  0  0  # atno 8010 bound_to 7997
  139.4864  144.5618  151.7217 H   0  0  0  0  0  0  0  0  0  0  0  0  # atno 10167 bound_to 10162
  156.7412  130.5210  149.5823 H   0  0  0  0  0  0  0  0  0  0  0  0  # atno 10718 bound_to 10713
  152.9854  135.5634  154.5425 H   0  0  0  0  0  0  0  0  0  0  0  0  # atno 10763 bound_to 10752
  154.4877  135.2791  155.1523 H   0  0  0  0  0  0  0  0  0  0  0  0  # atno 10764 bound_to 10752
  154.3006  135.6308  153.5476 H   0  0  0  0  0  0  0  0  0  0  0  0  # atno 10765 bound_to 10752
  140.7408  133.8672  155.8966 H   0  0  0  0  0  0  0  0  0  0  0  0  # atno 11005 bound_to 11000
  145.1335  139.2617  143.5527 LP  0  0  0  0  0  0  0  0  0  0  0  0  # atno 17320 bound_to 7965
  146.3527  140.0992  142.8609 LP  0  0  0  0  0  0  0  0  0  0  0  0  # atno 17321 bound_to 7965
  140.5189  144.0910  150.6016 LP  0  0  0  0  0  0  0  0  0  0  0  0  # atno 17342 bound_to 10162
  140.3861  143.2777  152.0114 LP  0  0  0  0  0  0  0  0  0  0  0  0  # atno 17343 bound_to 10162
  156.1463  130.6279  151.0535 LP  0  0  0  0  0  0  0  0  0  0  0  0  # atno 17370 bound_to 10713
  157.6817  131.0836  150.7351 LP  0  0  0  0  0  0  0  0  0  0  0  0  # atno 17371 bound_to 10713
  140.9838  134.1369  157.4470 LP  0  0  0  0  0  0  0  0  0  0  0  0  # atno 17394 bound_to 11000
  139.8806  135.0019  156.6095 LP  0  0  0  0  0  0  0  0  0  0  0  0  # atno 17395 bound_to 11000

$$$$
