AV-unprocessed.smi:2353|AV-procd|sdf|9380|dock10
  -GOLD-   2272013 13D 1   1.00000     0.00000
 Structure written by MMmdl.
 45 47  0  0  0  0  0  0  0  0  1 V2000
  156.5099  141.4819  164.8487 C   0  0  0  0  0  0  0  0  0  0  0  0
  155.9016  140.1209  164.5798 C   0  0  0  0  0  0  0  0  0  0  0  0
  155.6240  139.2428  165.6452 C   0  0  0  0  0  0  0  0  0  0  0  0
  155.0549  137.9830  165.3870 C   0  0  0  0  0  0  0  0  0  0  0  0
  154.7609  137.5928  164.0642 C   0  0  0  0  0  0  0  0  0  0  0  0
  154.1469  136.2301  163.8035 C   0  0  0  0  0  0  0  0  0  0  0  0
  155.0382  138.4627  162.9843 C   0  0  0  0  0  0  0  0  0  0  0  0
  154.7306  138.0167  161.7154 O   0  0  0  0  0  0  0  0  0  0  0  0
  155.2217  138.7462  160.5990 C   0  0  0  0  0  0  0  0  0  0  0  0
  154.0378  139.4459  159.9107 C   0  0  2  0  0  0  0  0  0  0  0  0
  153.9214  138.8934  158.6136 O   0  0  0  0  0  0  0  0  0  0  0  0
  154.2754  140.9651  159.7603 C   0  0  0  0  0  0  0  0  0  0  0  0
  153.0783  141.6639  159.2775 N   0  0  0  0  0  0  0  0  0  0  0  0
  152.5481  141.1309  158.1166 N   0  0  0  0  0  0  0  0  0  0  0  0
  151.4784  141.6243  157.5840 C   0  0  0  0  0  0  0  0  0  0  0  0
  150.9285  141.0448  156.3715 N   0  0  0  0  0  0  0  0  0  0  0  0
  149.7084  141.4507  155.8291 C   0  0  0  0  0  0  0  0  0  0  0  0
  149.5230  140.6817  154.7013 C   0  0  0  0  0  0  0  0  0  0  0  0
  150.5969  139.8093  154.5347 N   0  0  0  0  0  0  0  0  0  0  0  0
  151.3891  140.0796  155.5637 C   0  0  0  0  0  0  0  0  0  0  0  0
  150.8258  142.7718  158.2053 C   0  0  0  0  0  0  0  0  0  0  0  0
  151.3546  143.2867  159.3365 C   0  0  0  0  0  0  0  0  0  0  0  0
  152.5556  142.7283  159.9542 C   0  0  0  0  0  0  0  0  0  0  0  0
  153.0499  143.1723  160.9901 O   0  0  0  0  0  0  0  0  0  0  0  0
  155.6090  139.7324  163.2567 C   0  0  0  0  0  0  0  0  0  0  0  0
  156.8209  141.5805  165.8890 H   0  0  0  0  0  0  0  0  0  0  0  0
  155.7853  142.2673  164.6327 H   0  0  0  0  0  0  0  0  0  0  0  0
  157.3850  141.6383  164.2175 H   0  0  0  0  0  0  0  0  0  0  0  0
  155.8444  139.5309  166.6628 H   0  0  0  0  0  0  0  0  0  0  0  0
  154.8447  137.3166  166.2107 H   0  0  0  0  0  0  0  0  0  0  0  0
  154.8285  135.6145  163.2157 H   0  0  0  0  0  0  0  0  0  0  0  0
  153.2136  136.3349  163.2496 H   0  0  0  0  0  0  0  0  0  0  0  0
  153.9298  135.7049  164.7341 H   0  0  0  0  0  0  0  0  0  0  0  0
  155.9242  139.4960  160.9660 H   0  0  0  0  0  0  0  0  0  0  0  0
  155.7551  138.1026  159.8969 H   0  0  0  0  0  0  0  0  0  0  0  0
  153.1255  139.2573  160.4781 H   0  0  0  0  0  0  0  0  0  0  0  0
  153.0385  139.0298  158.3062 H   0  0  0  0  0  0  0  0  0  0  0  0
  154.5620  141.3935  160.7223 H   0  0  0  0  0  0  0  0  0  0  0  0
  155.1285  141.1559  159.1057 H   0  0  0  0  0  0  0  0  0  0  0  0
  149.0661  142.2124  156.2402 H   0  0  0  0  0  0  0  0  0  0  0  0
  148.7009  140.6877  154.0010 H   0  0  0  0  0  0  0  0  0  0  0  0
  152.3238  139.5644  155.7301 H   0  0  0  0  0  0  0  0  0  0  0  0
  149.9419  143.2294  157.7945 H   0  0  0  0  0  0  0  0  0  0  0  0
  150.8777  144.1377  159.8006 H   0  0  0  0  0  0  0  0  0  0  0  0
  155.8306  140.4299  162.4633 H   0  0  0  0  0  0  0  0  0  0  0  0
  1  2  1  0  0  0  0
  1 26  1  0  0  0  0
  1 27  1  0  0  0  0
  1 28  1  0  0  0  0
  2 25  1  0  0  0  0
  2  3  2  0  0  0  0
  3  4  1  0  0  0  0
  3 29  1  0  0  0  0
  4  5  2  0  0  0  0
  4 30  1  0  0  0  0
  5  6  1  0  0  0  0
  5  7  1  0  0  0  0
  6 31  1  0  0  0  0
  6 32  1  0  0  0  0
  6 33  1  0  0  0  0
  7  8  1  0  0  0  0
  7 25  2  0  0  0  0
  8  9  1  0  0  0  0
  9 10  1  0  0  0  0
  9 34  1  0  0  0  0
  9 35  1  0  0  0  0
 10 11  1  0  0  0  0
 10 12  1  0  0  0  0
 10 36  1  0  0  0  0
 11 37  1  0  0  0  0
 12 13  1  0  0  0  0
 12 38  1  0  0  0  0
 12 39  1  0  0  0  0
 13 23  1  0  0  0  0
 13 14  1  0  0  0  0
 14 15  2  0  0  0  0
 15 16  1  0  0  0  0
 15 21  1  0  0  0  0
 16 20  1  0  0  0  0
 16 17  1  0  0  0  0
 17 18  2  0  0  0  0
 17 40  1  0  0  0  0
 18 19  1  0  0  0  0
 18 41  1  0  0  0  0
 19 20  2  0  0  0  0
 20 42  1  0  0  0  0
 21 22  2  0  0  0  0
 21 43  1  0  0  0  0
 22 23  1  0  0  0  0
 22 44  1  0  0  0  0
 23 24  2  0  0  0  0
 25 45  1  0  0  0  0
M  END
> <s_m_source_file>
AV-unprocessed.smi

> <i_m_source_file_index>
2353

> <i_lp_mmshare_version>
43012

> <i_f3d_flags>
0

> <s_epik_input>
W0NIM11jMVtjSF1bY0hdYyhbQ0gzXSljKFtjSF0xKU9bQ0gyXVtDQEhdKFtPSF0pW0NIMl1uMm5jKFtjSF1bY0hdYzI9TyktbjNbY0hdW2NIXW5bY0hdMw==

> <s_epik_cmdline>
J2VwaWtfcHl0aG9uJywgJy1waCcsICc3LjAnLCAnLXRuJywgJzgnLCAnLW1hJywgJzIwMCcsICctbWV0YWxfYmluZGluZycsICctaW1hZScsICc8aW5maWxlLm1hZT4nLCAnLW9tYWUnLCAnPG91dGZpbGUubWFlPic=

> <r_lp_tautomer_probability>
1

> <r_epik_Ionization_Penalty>
0.03707

> <r_epik_Ionization_Penalty_Charging>
0.0370699

> <r_epik_Ionization_Penalty_Neutral>
1.17174e-07

> <r_epik_State_Penalty>
0.0310055

> <r_epik_Charging_Adjusted_Penalty>
0.0680754

> <i_epik_Tot_Q>
0

> <i_epik_Tot_abs_Q>
0

> <r_epik_Metal_State_Penalty>
0.0291724

> <b_epik_Metal_Only>
0

> <s_lp_Force_Field>
OPLS_2005

> <r_lp_Energy>
36.9493

> <b_lp_Chiralities_Consistent>
1

> <s_lp_Variant>
AV-unprocessed.smi:2353-1

> <Gold.Version>
5.8.1

> <Gold.Id.Protein>
6NUR|6NUR_protein|mol2

> <Gold.PLP.Fitness>
51.6880

> <Gold.PLP.PLP>
-46.6780

> <Gold.PLP.part.hbond>
-2.1557

> <Gold.PLP.part.metal>
0.0000

> <Gold.PLP.part.buried>
-1.4171

> <Gold.PLP.part.nonpolar>
-42.7390

> <Gold.PLP.part.repulsive>
0.1368

> <Gold.PLP.ligand.clash>
0.0000

> <Gold.PLP.ligand.torsion>
1.3126

> <Gold.PLP.Chemscore.Hbond>
1.5500

> <Gold.PLP.Chemscore.CHOScore>
0.9776

> <Gold.PLP.Chemscore.Metal>
0.0000

> <Gold.Chemscore.Hbonds>
donor molecule, donor type, donor heavy atom, donor atom, acceptor molecule, acceptor atom, score
      P1  H  7989  7998       L1    19  0.41
      P1  H  7997  8008       L1    11  1.00
      L1  C    17    40       P1  8028  0.88

> <Gold.PLP.Chemscore.Internal.Correction>
0.0524

> <Gold.Rescore>
     Score         DG    S(hbond)    S(metal)    S(lipo)     H(rot)  DE(clash)    DE(int)     intcor
      8.80     -11.74       0.71        0.00      90.14       2.60       0.07       2.87       ----

> <Gold.Chemscore.Fitness>
8.8046

> <Gold.Chemscore.DG>
-11.7367

> <Gold.Chemscore.ZeroCoef>
-5.4800

> <Gold.Chemscore.Hbond>
0.7074

> <Gold.Chemscore.Metal>
0.0000

> <Gold.Chemscore.Lipo>
90.1407

> <Gold.Chemscore.Internal_Hbond>
0.0000

> <Gold.Chemscore.DEClash>
0.0664

> <Gold.Chemscore.DEInternal>
2.8657

> <Gold.Chemscore.Rot>
2.5986

> <Gold.Chemscore.Internal.Correction>
   9.000000E+99

> <Gold.Chemscore.Hbonds>
donor molecule, donor type, donor heavy atom, donor atom, acceptor molecule, acceptor atom, score
      P1  H  7997  8008       L1    11  0.19

> <Gold.Chemscore.Hbond.Weighted>
-2.3626

> <Gold.Chemscore.Metal.Weighted>
-0.0000

> <Gold.Chemscore.Lipo.Weighted>
-10.5465

> <Gold.Chemscore.Internal_Hbond.Weighted>
0.0000

> <Gold.Chemscore.DEClash.Weighted>
0.0664

> <Gold.Chemscore.DEInternal.Weighted>
2.8657

> <Gold.Chemscore.Rot.Weighted>
6.6524

> <Gold.Chemscore.Internal.Correction.Weighted>
   9.000000E+99

> <Gold.Protein.RotatedTorsions>
[ 6907 6896 6895 6894 ] final -132.38 input  -60.11 | X-H torsion
[ 7974 7965 7964 7962 ] final -135.86 input  175.53 | X-H torsion
[ 8008 7997 7996 7995 ] final -109.13 input   59.86 | X-H torsion
[ 10167 10162 10161 10158 ] final  -31.81 input  -65.29 | X-H torsion
[ 10718 10713 10712 10709 ] final  145.08 input   66.30 | X-H torsion
[ 10763 10752 10751 10750 ] final  -43.26 input  -60.55 | X-H torsion
[ 11005 11000 10999 10996 ] final  -79.17 input  -57.11 | X-H torsion

> <Gold.Protein.ActiveResidues>
 VAL166  LYS551  ARG553  GLY616  TRP617  ASP618  TYR619  PRO620  LYS621  CYS622 
 ASP623  PHE694  ASN695  SER759  ASP760  ASP761  ALA762  ILE779  LEU786  VAL792 
 PHE793  MET794  SER795  GLU796  ALA797  LYS798  CYS799  TRP800  GLU811  SER814 

> <Gold.Protein.RotatedAtoms>
  150.9617  133.6438  159.2753 H   0  0  0  0  0  0  0  0  0  0  0  0  # atno 6907 bound_to 6896
  151.3758  135.0930  159.9490 H   0  0  0  0  0  0  0  0  0  0  0  0  # atno 6908 bound_to 6896
  152.5150  133.9162  159.7566 H   0  0  0  0  0  0  0  0  0  0  0  0  # atno 6909 bound_to 6896
  144.8977  140.6729  143.5105 H   0  0  0  0  0  0  0  0  0  0  0  0  # atno 7974 bound_to 7965
  154.9548  140.0400  157.2161 H   0  0  0  0  0  0  0  0  0  0  0  0  # atno 8008 bound_to 7997
  154.7945  140.2841  155.5945 H   0  0  0  0  0  0  0  0  0  0  0  0  # atno 8009 bound_to 7997
  156.2954  140.2567  156.2799 H   0  0  0  0  0  0  0  0  0  0  0  0  # atno 8010 bound_to 7997
  140.7231  143.3743  151.1720 H   0  0  0  0  0  0  0  0  0  0  0  0  # atno 10167 bound_to 10162
  157.3495  131.0948  151.1012 H   0  0  0  0  0  0  0  0  0  0  0  0  # atno 10718 bound_to 10713
  153.9926  135.6703  153.4755 H   0  0  0  0  0  0  0  0  0  0  0  0  # atno 10763 bound_to 10752
  153.0698  135.4980  154.8276 H   0  0  0  0  0  0  0  0  0  0  0  0  # atno 10764 bound_to 10752
  154.7100  135.3095  154.9174 H   0  0  0  0  0  0  0  0  0  0  0  0  # atno 10765 bound_to 10752
  141.1667  133.7094  156.8083 H   0  0  0  0  0  0  0  0  0  0  0  0  # atno 11005 bound_to 11000
  145.3671  139.1667  143.4352 LP  0  0  0  0  0  0  0  0  0  0  0  0  # atno 17320 bound_to 7965
  146.3091  140.3739  142.8677 LP  0  0  0  0  0  0  0  0  0  0  0  0  # atno 17321 bound_to 7965
  139.7320  143.9058  152.3022 LP  0  0  0  0  0  0  0  0  0  0  0  0  # atno 17342 bound_to 10162
  139.8850  144.6997  150.8834 LP  0  0  0  0  0  0  0  0  0  0  0  0  # atno 17343 bound_to 10162
  157.2193  130.6474  149.5805 LP  0  0  0  0  0  0  0  0  0  0  0  0  # atno 17370 bound_to 10713
  155.9719  130.4634  150.6182 LP  0  0  0  0  0  0  0  0  0  0  0  0  # atno 17371 bound_to 10713
  140.2206  134.8760  157.3373 LP  0  0  0  0  0  0  0  0  0  0  0  0  # atno 17394 bound_to 11000
  140.1992  134.4276  155.7672 LP  0  0  0  0  0  0  0  0  0  0  0  0  # atno 17395 bound_to 11000

$$$$
