AV-unprocessed.smi:1196|AV-procd|sdf|4998|dock10
  -GOLD-   22720 4 03D 1   1.00000     0.00000
 Structure written by MMmdl.
 37 38  0  0  0  0  0  0  0  0  1 V2000
  153.1445  142.0456  161.7541 C   0  0  0  0  0  0  0  0  0  0  0  0
  153.4437  141.6259  160.3065 C   0  0  2  0  0  0  0  0  0  0  0  0
  153.4016  142.8326  159.3485 C   0  0  0  0  0  0  0  0  0  0  0  0
  152.1190  143.5139  159.3684 N   0  0  0  0  0  0  0  0  0  0  0  0
  151.5237  144.1903  160.4126 C   0  0  0  0  0  0  0  0  0  0  0  0
  150.3236  144.6592  159.9610 C   0  0  0  0  0  0  0  0  0  0  0  0
  150.2741  144.2154  158.6100 C   0  0  0  0  0  0  0  0  0  0  0  0
  151.3509  143.5318  158.2578 N   0  0  0  0  0  0  0  0  0  0  0  0
  152.4871  140.6094  159.8722 N   0  0  0  0  0  0  0  0  0  0  0  0
  152.6652  139.7590  158.8503 C   0  0  0  0  0  0  0  0  0  0  0  0
  153.6949  139.7208  158.1758 O   0  0  0  0  0  0  0  0  0  0  0  0
  151.4907  138.8209  158.5546 C   0  0  0  0  0  0  0  0  0  0  0  0
  150.9576  138.9308  157.1123 C   0  0  0  0  0  0  0  0  0  0  0  0
  151.9798  138.4750  156.0535 C   0  0  1  0  0  0  0  0  0  0  0  0
  152.4673  137.1261  156.2871 N   0  0  0  0  0  0  0  0  0  0  0  0
  152.1977  136.2995  155.2675 C   0  0  0  0  0  0  0  0  0  0  0  0
  152.4980  135.1098  155.2041 O   0  0  0  0  0  0  0  0  0  0  0  0
  151.5444  136.9974  154.3323 N   0  0  0  0  0  0  0  0  0  0  0  0
  151.3547  138.2674  154.6853 C   0  0  0  0  0  0  0  0  0  0  0  0
  150.7772  139.1376  154.0364 O   0  0  0  0  0  0  0  0  0  0  0  0
  153.8572  142.7950  162.0991 H   0  0  0  0  0  0  0  0  0  0  0  0
  153.2096  141.1956  162.4341 H   0  0  0  0  0  0  0  0  0  0  0  0
  152.1444  142.4703  161.8460 H   0  0  0  0  0  0  0  0  0  0  0  0
  154.4515  141.2070  160.2782 H   0  0  0  0  0  0  0  0  0  0  0  0
  154.1832  143.5508  159.6007 H   0  0  0  0  0  0  0  0  0  0  0  0
  153.5966  142.5078  158.3254 H   0  0  0  0  0  0  0  0  0  0  0  0
  151.9968  144.2778  161.3794 H   0  0  0  0  0  0  0  0  0  0  0  0
  149.5921  145.2319  160.5114 H   0  0  0  0  0  0  0  0  0  0  0  0
  149.4931  144.3684  157.8799 H   0  0  0  0  0  0  0  0  0  0  0  0
  151.6109  140.5682  160.3722 H   0  0  0  0  0  0  0  0  0  0  0  0
  151.8079  137.7958  158.7504 H   0  0  0  0  0  0  0  0  0  0  0  0
  150.6943  139.0448  159.2653 H   0  0  0  0  0  0  0  0  0  0  0  0
  150.0412  138.3455  157.0135 H   0  0  0  0  0  0  0  0  0  0  0  0
  150.6803  139.9670  156.9118 H   0  0  0  0  0  0  0  0  0  0  0  0
  152.8172  139.1703  155.9803 H   0  0  0  0  0  0  0  0  0  0  0  0
  152.9537  136.8550  157.1294 H   0  0  0  0  0  0  0  0  0  0  0  0
  151.2221  136.6027  153.4607 H   0  0  0  0  0  0  0  0  0  0  0  0
  1  2  1  0  0  0  0
  1 21  1  0  0  0  0
  1 22  1  0  0  0  0
  1 23  1  0  0  0  0
  2  3  1  0  0  0  0
  2  9  1  0  0  0  0
  2 24  1  0  0  0  0
  3  4  1  0  0  0  0
  3 25  1  0  0  0  0
  3 26  1  0  0  0  0
  4  8  1  0  0  0  0
  4  5  1  0  0  0  0
  5  6  2  0  0  0  0
  5 27  1  0  0  0  0
  6  7  1  0  0  0  0
  6 28  1  0  0  0  0
  7  8  2  0  0  0  0
  7 29  1  0  0  0  0
  9 10  1  0  0  0  0
  9 30  1  0  0  0  0
 10 11  2  0  0  0  0
 10 12  1  0  0  0  0
 12 13  1  0  0  0  0
 12 31  1  0  0  0  0
 12 32  1  0  0  0  0
 13 14  1  0  0  0  0
 13 33  1  0  0  0  0
 13 34  1  0  0  0  0
 14 19  1  0  0  0  0
 14 15  1  0  0  0  0
 14 35  1  0  0  0  0
 15 16  1  0  0  0  0
 15 36  1  0  0  0  0
 16 17  2  0  0  0  0
 16 18  1  0  0  0  0
 18 19  1  0  0  0  0
 18 37  1  0  0  0  0
 19 20  2  0  0  0  0
M  END
> <s_m_source_file>
AV-unprocessed.smi

> <i_m_source_file_index>
1196

> <i_lp_mmshare_version>
43012

> <i_f3d_flags>
0

> <s_epik_input>
bjFbY0hdW2NIXVtjSF1uMVtDSDJdW0NAQEhdKFtDSDNdKVtOSF1DKD1PKVtDSDJdW0NIMl1bQ0BASF0yW05IXUMoPU8pW05IXUMyPU8=

> <s_epik_cmdline>
J2VwaWtfcHl0aG9uJywgJy1waCcsICc3LjAnLCAnLXRuJywgJzgnLCAnLW1hJywgJzIwMCcsICctbWV0YWxfYmluZGluZycsICctaW1hZScsICc8aW5maWxlLm1hZT4nLCAnLW9tYWUnLCAnPG91dGZpbGUubWFlPic=

> <r_lp_tautomer_probability>
1

> <r_epik_Ionization_Penalty>
0.00815973

> <r_epik_Ionization_Penalty_Charging>
0

> <r_epik_Ionization_Penalty_Neutral>
0.00815973

> <r_epik_State_Penalty>
0.00583796

> <r_epik_Charging_Adjusted_Penalty>
0.00583796

> <i_epik_Tot_Q>
0

> <i_epik_Tot_abs_Q>
0

> <r_epik_Metal_State_Penalty>
0.409204

> <b_epik_Metal_Only>
0

> <s_lp_Force_Field>
OPLS_2005

> <r_lp_Energy>
16.3903

> <b_lp_Chiralities_Consistent>
1

> <s_lp_Variant>
AV-unprocessed.smi:1196-3

> <Gold.Version>
5.8.1

> <Gold.Id.Protein>
6NUR|6NUR_protein|mol2

> <Gold.PLP.Fitness>
50.0401

> <Gold.PLP.PLP>
-40.1966

> <Gold.PLP.part.hbond>
-3.7115

> <Gold.PLP.part.metal>
0.0000

> <Gold.PLP.part.buried>
-7.7128

> <Gold.PLP.part.nonpolar>
-30.8949

> <Gold.PLP.part.repulsive>
2.3514

> <Gold.PLP.ligand.clash>
0.0000

> <Gold.PLP.ligand.torsion>
0.3500

> <Gold.PLP.Chemscore.Hbond>
2.6263

> <Gold.PLP.Chemscore.CHOScore>
0.8642

> <Gold.PLP.Chemscore.Metal>
0.0000

> <Gold.Chemscore.Hbonds>
donor molecule, donor type, donor heavy atom, donor atom, acceptor molecule, acceptor atom, score
      L1  H    18    37       P1  7949  0.93
      P1  H  7989  7998       L1    20  1.00
      P1  H  7997  8010       L1    11  0.91
      L1  C     7    29       P1  8028  0.50
      L1  C     7    29       P1  8029  0.46

> <Gold.PLP.Chemscore.Internal.Correction>
0.0719

> <Gold.Rescore>
     Score         DG    S(hbond)    S(metal)    S(lipo)     H(rot)  DE(clash)    DE(int)     intcor
     16.08     -17.13       2.92        0.00      81.01       2.96       0.38       0.66       ----

> <Gold.Chemscore.Fitness>
16.0829

> <Gold.Chemscore.DG>
-17.1258

> <Gold.Chemscore.ZeroCoef>
-5.4800

> <Gold.Chemscore.Hbond>
2.9159

> <Gold.Chemscore.Metal>
0.0000

> <Gold.Chemscore.Lipo>
81.0085

> <Gold.Chemscore.Internal_Hbond>
0.0000

> <Gold.Chemscore.DEClash>
0.3841

> <Gold.Chemscore.DEInternal>
0.6589

> <Gold.Chemscore.Rot>
2.9575

> <Gold.Chemscore.Internal.Correction>
   9.000000E+99

> <Gold.Chemscore.Hbonds>
donor molecule, donor type, donor heavy atom, donor atom, acceptor molecule, acceptor atom, score
      L1  H    18    37       P1  7949  0.49
      P1  H  7989  7998       L1    20  0.95
      P1  H  7997  8010       L1    11  0.87

> <Gold.Chemscore.Hbond.Weighted>
-9.7392

> <Gold.Chemscore.Metal.Weighted>
-0.0000

> <Gold.Chemscore.Lipo.Weighted>
-9.4780

> <Gold.Chemscore.Internal_Hbond.Weighted>
0.0000

> <Gold.Chemscore.DEClash.Weighted>
0.3841

> <Gold.Chemscore.DEInternal.Weighted>
0.6589

> <Gold.Chemscore.Rot.Weighted>
7.5713

> <Gold.Chemscore.Internal.Correction.Weighted>
   9.000000E+99

> <Gold.Protein.RotatedTorsions>
[ 6907 6896 6895 6894 ] final  -30.70 input  -60.11 | X-H torsion
[ 7974 7965 7964 7962 ] final   20.88 input  175.53 | X-H torsion
[ 8008 7997 7996 7995 ] final   36.41 input   59.86 | X-H torsion
[ 10167 10162 10161 10158 ] final   33.09 input  -65.29 | X-H torsion
[ 10718 10713 10712 10709 ] final   32.39 input   66.30 | X-H torsion
[ 10763 10752 10751 10750 ] final  120.70 input  -60.55 | X-H torsion
[ 11005 11000 10999 10996 ] final  105.47 input  -57.11 | X-H torsion

> <Gold.Protein.ActiveResidues>
 VAL166  LYS551  ARG553  GLY616  TRP617  ASP618  TYR619  PRO620  LYS621  CYS622 
 ASP623  PHE694  ASN695  SER759  ASP760  ASP761  ALA762  ILE779  LEU786  VAL792 
 PHE793  MET794  SER795  GLU796  ALA797  LYS798  CYS799  TRP800  GLU811  SER814 

> <Gold.Protein.RotatedAtoms>
  151.1019  134.9977  159.8452 H   0  0  0  0  0  0  0  0  0  0  0  0  # atno 6907 bound_to 6896
  152.5437  134.1939  159.8695 H   0  0  0  0  0  0  0  0  0  0  0  0  # atno 6908 bound_to 6896
  151.1983  133.4582  159.2629 H   0  0  0  0  0  0  0  0  0  0  0  0  # atno 6909 bound_to 6896
  146.2094  139.8106  142.8701 H   0  0  0  0  0  0  0  0  0  0  0  0  # atno 7974 bound_to 7965
  155.1869  140.3304  155.4365 H   0  0  0  0  0  0  0  0  0  0  0  0  # atno 8008 bound_to 7997
  156.2456  140.1917  156.6914 H   0  0  0  0  0  0  0  0  0  0  0  0  # atno 8009 bound_to 7997
  154.6233  140.0592  156.9627 H   0  0  0  0  0  0  0  0  0  0  0  0  # atno 8010 bound_to 7997
  140.4439  144.1147  150.6179 H   0  0  0  0  0  0  0  0  0  0  0  0  # atno 10167 bound_to 10162
  157.2846  130.7272  149.6576 H   0  0  0  0  0  0  0  0  0  0  0  0  # atno 10718 bound_to 10713
  153.6026  135.3445  155.2951 H   0  0  0  0  0  0  0  0  0  0  0  0  # atno 10763 bound_to 10752
  154.8633  135.4231  154.2396 H   0  0  0  0  0  0  0  0  0  0  0  0  # atno 10764 bound_to 10752
  153.3228  135.7039  153.7087 H   0  0  0  0  0  0  0  0  0  0  0  0  # atno 10765 bound_to 10752
  139.8802  134.9337  156.5519 H   0  0  0  0  0  0  0  0  0  0  0  0  # atno 11005 bound_to 11000
  145.3200  141.0241  143.3506 LP  0  0  0  0  0  0  0  0  0  0  0  0  # atno 17320 bound_to 7965
  144.8874  139.4821  143.6694 LP  0  0  0  0  0  0  0  0  0  0  0  0  # atno 17321 bound_to 7965
  140.4286  143.2578  151.9624 LP  0  0  0  0  0  0  0  0  0  0  0  0  # atno 17342 bound_to 10162
  139.4791  144.5765  151.8004 LP  0  0  0  0  0  0  0  0  0  0  0  0  # atno 17343 bound_to 10162
  155.9665  130.4327  150.4976 LP  0  0  0  0  0  0  0  0  0  0  0  0  # atno 17370 bound_to 10713
  157.2927  131.0629  151.2123 LP  0  0  0  0  0  0  0  0  0  0  0  0  # atno 17371 bound_to 10713
  140.8234  133.8336  155.8916 LP  0  0  0  0  0  0  0  0  0  0  0  0  # atno 17394 bound_to 11000
  140.9397  134.1916  157.4806 LP  0  0  0  0  0  0  0  0  0  0  0  0  # atno 17395 bound_to 11000

$$$$
