AV-unprocessed.smi:3030|AV-procd|sdf|11537|dock1
  -GOLD-   2272016483D 1   1.00000     0.00000
 Structure written by MMmdl.
 52 53  0  0  0  0  0  0  0  0  1 V2000
  148.3859  131.3734  161.4479 C   0  0  0  0  0  0  0  0  0  0  0  0
  147.7805  132.3174  160.4033 C   0  0  0  0  0  0  0  0  0  0  0  0
  147.6711  133.6795  160.9056 N   0  0  0  0  0  0  0  0  0  0  0  0
  146.9583  133.9686  162.0648 C   0  0  0  0  0  0  0  0  0  0  0  0
  146.7712  135.2133  162.5452 C   0  0  0  0  0  0  0  0  0  0  0  0
  147.3432  136.3639  161.8167 C   0  0  0  0  0  0  0  0  0  0  0  0
  147.1884  137.5150  162.2245 O   0  0  0  0  0  0  0  0  0  0  0  0
  148.1062  136.0546  160.5788 C   0  0  0  0  0  0  0  0  0  0  0  0
  148.6378  137.1520  159.8823 N   0  0  0  0  0  0  0  0  0  0  0  0
  149.6713  137.1898  159.0216 C   0  0  0  0  0  0  0  0  0  0  0  0
  150.3885  136.2378  158.7148 O   0  0  0  0  0  0  0  0  0  0  0  0
  149.8404  138.4272  158.5350 N   0  0  0  0  0  0  0  0  0  0  0  0
  150.8744  138.8384  157.5835 C   0  0  2  0  0  0  0  0  0  0  0  0
  151.9980  139.6114  158.3050 C   0  0  0  0  0  0  0  0  0  0  0  0
  151.5441  140.9999  158.7900 C   0  0  1  0  0  0  0  0  0  0  0  0
  152.6846  141.7506  159.4920 C   0  0  0  0  0  0  0  0  0  0  0  0
  150.9805  141.8054  157.6092 C   0  0  0  0  0  0  0  0  0  0  0  0
  149.8382  141.0575  156.9036 C   0  0  0  0  0  0  0  0  0  0  0  0
  150.2656  139.6532  156.4063 C   0  0  2  0  0  0  0  0  0  0  0  0
  149.1184  138.9065  155.6568 C   0  0  0  0  0  0  0  0  0  0  0  0
  149.5265  137.4887  155.2108 C   0  0  0  0  0  0  0  0  0  0  0  0
  148.6063  139.6833  154.4286 C   0  0  0  0  0  0  0  0  0  0  0  0
  148.2122  134.7543  160.2034 C   0  0  0  0  0  0  0  0  0  0  0  0
  148.4598  130.3589  161.0566 H   0  0  0  0  0  0  0  0  0  0  0  0
  147.7739  131.3393  162.3496 H   0  0  0  0  0  0  0  0  0  0  0  0
  149.3884  131.6935  161.7338 H   0  0  0  0  0  0  0  0  0  0  0  0
  148.3915  132.3115  159.4998 H   0  0  0  0  0  0  0  0  0  0  0  0
  146.7944  131.9577  160.1068 H   0  0  0  0  0  0  0  0  0  0  0  0
  146.5584  133.1012  162.5698 H   0  0  0  0  0  0  0  0  0  0  0  0
  146.2115  135.3898  163.4521 H   0  0  0  0  0  0  0  0  0  0  0  0
  148.1854  138.0327  160.0806 H   0  0  0  0  0  0  0  0  0  0  0  0
  149.2049  139.1472  158.8463 H   0  0  0  0  0  0  0  0  0  0  0  0
  151.3399  137.9447  157.1667 H   0  0  0  0  0  0  0  0  0  0  0  0
  152.3723  139.0253  159.1455 H   0  0  0  0  0  0  0  0  0  0  0  0
  152.8409  139.7276  157.6220 H   0  0  0  0  0  0  0  0  0  0  0  0
  150.7451  140.8658  159.5204 H   0  0  0  0  0  0  0  0  0  0  0  0
  153.5242  141.9185  158.8167 H   0  0  0  0  0  0  0  0  0  0  0  0
  153.0539  141.1878  160.3497 H   0  0  0  0  0  0  0  0  0  0  0  0
  152.3503  142.7225  159.8558 H   0  0  0  0  0  0  0  0  0  0  0  0
  150.6197  142.7737  157.9580 H   0  0  0  0  0  0  0  0  0  0  0  0
  151.7748  142.0142  156.8912 H   0  0  0  0  0  0  0  0  0  0  0  0
  148.9864  140.9699  157.5792 H   0  0  0  0  0  0  0  0  0  0  0  0
  149.5068  141.6767  156.0714 H   0  0  0  0  0  0  0  0  0  0  0  0
  151.0693  139.8059  155.6838 H   0  0  0  0  0  0  0  0  0  0  0  0
  148.2724  138.7992  156.3368 H   0  0  0  0  0  0  0  0  0  0  0  0
  150.4203  137.5115  154.5866 H   0  0  0  0  0  0  0  0  0  0  0  0
  148.7328  137.0132  154.6340 H   0  0  0  0  0  0  0  0  0  0  0  0
  149.7241  136.8341  156.0593 H   0  0  0  0  0  0  0  0  0  0  0  0
  149.4185  139.9197  153.7408 H   0  0  0  0  0  0  0  0  0  0  0  0
  148.1173  140.6155  154.7086 H   0  0  0  0  0  0  0  0  0  0  0  0
  147.8662  139.1028  153.8772 H   0  0  0  0  0  0  0  0  0  0  0  0
  148.7276  134.4428  159.3088 H   0  0  0  0  0  0  0  0  0  0  0  0
  1  2  1  0  0  0  0
  1 24  1  0  0  0  0
  1 25  1  0  0  0  0
  1 26  1  0  0  0  0
  2  3  1  0  0  0  0
  2 27  1  0  0  0  0
  2 28  1  0  0  0  0
  3 23  1  0  0  0  0
  3  4  1  0  0  0  0
  4  5  2  0  0  0  0
  4 29  1  0  0  0  0
  5  6  1  0  0  0  0
  5 30  1  0  0  0  0
  6  7  2  0  0  0  0
  6  8  1  0  0  0  0
  8  9  1  0  0  0  0
  8 23  2  0  0  0  0
  9 10  1  0  0  0  0
  9 31  1  0  0  0  0
 10 11  2  0  0  0  0
 10 12  1  0  0  0  0
 12 13  1  0  0  0  0
 12 32  1  0  0  0  0
 13 19  1  0  0  0  0
 13 14  1  0  0  0  0
 13 33  1  0  0  0  0
 14 15  1  0  0  0  0
 14 34  1  0  0  0  0
 14 35  1  0  0  0  0
 15 16  1  0  0  0  0
 15 17  1  0  0  0  0
 15 36  1  0  0  0  0
 16 37  1  0  0  0  0
 16 38  1  0  0  0  0
 16 39  1  0  0  0  0
 17 18  1  0  0  0  0
 17 40  1  0  0  0  0
 17 41  1  0  0  0  0
 18 19  1  0  0  0  0
 18 42  1  0  0  0  0
 18 43  1  0  0  0  0
 19 20  1  0  0  0  0
 19 44  1  0  0  0  0
 20 21  1  0  0  0  0
 20 22  1  0  0  0  0
 20 45  1  0  0  0  0
 21 46  1  0  0  0  0
 21 47  1  0  0  0  0
 21 48  1  0  0  0  0
 22 49  1  0  0  0  0
 22 50  1  0  0  0  0
 22 51  1  0  0  0  0
 23 52  1  0  0  0  0
M  END
> <s_m_source_file>
AV-unprocessed.smi

> <i_m_source_file_index>
3030

> <i_lp_mmshare_version>
43012

> <i_f3d_flags>
0

> <s_epik_input>
W0NIM11bQ0gyXW4xW2NIXVtjSF1jKD1PKWMoW2NIXTEpW05IXUMoPU8pW05IXVtDQEBIXTJbQ0gyXVtDQEBIXShbQ0gzXSlbQ0gyXVtDSDJdW0NASF0yW0NIXShbQ0gzXSlbQ0gzXQ==

> <s_epik_cmdline>
J2VwaWtfcHl0aG9uJywgJy1waCcsICc3LjAnLCAnLXRuJywgJzgnLCAnLW1hJywgJzIwMCcsICctbWV0YWxfYmluZGluZycsICctaW1hZScsICc8aW5maWxlLm1hZT4nLCAnLW9tYWUnLCAnPG91dGZpbGUubWFlPic=

> <r_lp_tautomer_probability>
1

> <r_epik_Ionization_Penalty>
0.00147933

> <r_epik_Ionization_Penalty_Charging>
0.00145753

> <r_epik_Ionization_Penalty_Neutral>
2.17987e-05

> <r_epik_State_Penalty>
0.00097457

> <r_epik_Charging_Adjusted_Penalty>
0.0024321

> <i_epik_Tot_Q>
0

> <i_epik_Tot_abs_Q>
0

> <r_epik_Metal_State_Penalty>
-0

> <b_epik_Metal_Only>
0

> <s_lp_Force_Field>
OPLS_2005

> <r_lp_Energy>
9.06052

> <b_lp_Chiralities_Consistent>
1

> <s_lp_Variant>
AV-unprocessed.smi:3030-5

> <Gold.Version>
5.8.1

> <Gold.Id.Protein>
6NUR|6NUR_protein|mol2

> <Gold.PLP.Fitness>
45.0305

> <Gold.PLP.PLP>
-38.8539

> <Gold.PLP.part.hbond>
-3.0000

> <Gold.PLP.part.metal>
0.0000

> <Gold.PLP.part.buried>
-5.3721

> <Gold.PLP.part.nonpolar>
-31.3343

> <Gold.PLP.part.repulsive>
1.0856

> <Gold.PLP.ligand.clash>
0.0000

> <Gold.PLP.ligand.torsion>
0.3310

> <Gold.PLP.Chemscore.Hbond>
2.2240

> <Gold.PLP.Chemscore.CHOScore>
0.0000

> <Gold.PLP.Chemscore.Metal>
0.0000

> <Gold.Chemscore.Hbonds>
donor molecule, donor type, donor heavy atom, donor atom, acceptor molecule, acceptor atom, score
      P1  H  6896  6908       L1    11  0.94
      P1  H  6931  6943       L1     7  0.66
      P1  H  6934  6947       L1     7  0.59

> <Gold.PLP.Chemscore.Internal.Correction>
0.1665

> <Gold.Rescore>
     Score         DG    S(hbond)    S(metal)    S(lipo)     H(rot)  DE(clash)    DE(int)     intcor
     18.49     -19.89       1.93        0.00      95.79       1.27       0.12       1.29       ----

> <Gold.Chemscore.Fitness>
18.4857

> <Gold.Chemscore.DG>
-19.8939

> <Gold.Chemscore.ZeroCoef>
-5.4800

> <Gold.Chemscore.Hbond>
1.9322

> <Gold.Chemscore.Metal>
0.0000

> <Gold.Chemscore.Lipo>
95.7943

> <Gold.Chemscore.Internal_Hbond>
0.0000

> <Gold.Chemscore.DEClash>
0.1214

> <Gold.Chemscore.DEInternal>
1.2868

> <Gold.Chemscore.Rot>
1.2685

> <Gold.Chemscore.Internal.Correction>
   9.000000E+99

> <Gold.Chemscore.Hbonds>
donor molecule, donor type, donor heavy atom, donor atom, acceptor molecule, acceptor atom, score
      P1  H  6896  6908       L1    11  0.92
      P1  H  6931  6943       L1     7  0.19
      P1  H  6934  6947       L1     7  0.58

> <Gold.Chemscore.Hbond.Weighted>
-6.4534

> <Gold.Chemscore.Metal.Weighted>
-0.0000

> <Gold.Chemscore.Lipo.Weighted>
-11.2079

> <Gold.Chemscore.Internal_Hbond.Weighted>
0.0000

> <Gold.Chemscore.DEClash.Weighted>
0.1214

> <Gold.Chemscore.DEInternal.Weighted>
1.2868

> <Gold.Chemscore.Rot.Weighted>
3.2474

> <Gold.Chemscore.Internal.Correction.Weighted>
   9.000000E+99

> <Gold.Protein.RotatedTorsions>
[ 6907 6896 6895 6894 ] final -175.58 input  -60.11 | X-H torsion
[ 7974 7965 7964 7962 ] final -170.13 input  175.53 | X-H torsion
[ 8008 7997 7996 7995 ] final  147.30 input   59.86 | X-H torsion
[ 10167 10162 10161 10158 ] final  146.41 input  -65.29 | X-H torsion
[ 10718 10713 10712 10709 ] final  178.66 input   66.30 | X-H torsion
[ 10763 10752 10751 10750 ] final  -75.52 input  -60.55 | X-H torsion
[ 11005 11000 10999 10996 ] final -143.35 input  -57.11 | X-H torsion

> <Gold.Protein.ActiveResidues>
 VAL166  LYS551  ARG553  GLY616  TRP617  ASP618  TYR619  PRO620  LYS621  CYS622 
 ASP623  PHE694  ASN695  SER759  ASP760  ASP761  ALA762  ILE779  LEU786  VAL792 
 PHE793  MET794  SER795  GLU796  ALA797  LYS798  CYS799  TRP800  GLU811  SER814 

> <Gold.Protein.RotatedAtoms>
  151.5909  133.3366  159.3027 H   0  0  0  0  0  0  0  0  0  0  0  0  # atno 6907 bound_to 6896
  150.8261  134.7495  159.6825 H   0  0  0  0  0  0  0  0  0  0  0  0  # atno 6908 bound_to 6896
  152.4350  134.5710  159.9973 H   0  0  0  0  0  0  0  0  0  0  0  0  # atno 6909 bound_to 6896
  144.7174  140.2118  143.6326 H   0  0  0  0  0  0  0  0  0  0  0  0  # atno 7974 bound_to 7965
  156.2829  140.2159  156.5516 H   0  0  0  0  0  0  0  0  0  0  0  0  # atno 8008 bound_to 7997
  154.7286  140.0497  157.0728 H   0  0  0  0  0  0  0  0  0  0  0  0  # atno 8009 bound_to 7997
  155.0383  140.3143  155.4737 H   0  0  0  0  0  0  0  0  0  0  0  0  # atno 8010 bound_to 7997
  139.4908  144.5831  151.6831 H   0  0  0  0  0  0  0  0  0  0  0  0  # atno 10167 bound_to 10162
  156.8872  130.9835  151.3054 H   0  0  0  0  0  0  0  0  0  0  0  0  # atno 10718 bound_to 10713
  154.4876  135.5828  153.6435 H   0  0  0  0  0  0  0  0  0  0  0  0  # atno 10763 bound_to 10752
  152.9857  135.6105  154.3166 H   0  0  0  0  0  0  0  0  0  0  0  0  # atno 10764 bound_to 10752
  154.3063  135.2846  155.2566 H   0  0  0  0  0  0  0  0  0  0  0  0  # atno 10765 bound_to 10752
  140.8134  134.2717  157.4931 H   0  0  0  0  0  0  0  0  0  0  0  0  # atno 11005 bound_to 11000
  145.8584  139.2210  143.1731 LP  0  0  0  0  0  0  0  0  0  0  0  0  # atno 17320 bound_to 7965
  146.0196  140.8360  142.9930 LP  0  0  0  0  0  0  0  0  0  0  0  0  # atno 17321 bound_to 7965
  140.5442  144.0530  150.6100 LP  0  0  0  0  0  0  0  0  0  0  0  0  # atno 17342 bound_to 10162
  140.3563  143.2934  152.0433 LP  0  0  0  0  0  0  0  0  0  0  0  0  # atno 17343 bound_to 10162
  157.6105  130.8579  149.8944 LP  0  0  0  0  0  0  0  0  0  0  0  0  # atno 17370 bound_to 10713
  156.0647  130.3694  150.0905 LP  0  0  0  0  0  0  0  0  0  0  0  0  # atno 17371 bound_to 10713
  139.8712  134.9496  156.4029 LP  0  0  0  0  0  0  0  0  0  0  0  0  # atno 17394 bound_to 11000
  140.9174  133.7669  155.9865 LP  0  0  0  0  0  0  0  0  0  0  0  0  # atno 17395 bound_to 11000

$$$$
