AV-unprocessed.smi:2999|AV-procd|sdf|11419|dock2
  -GOLD-   2272016343D 1   1.00000     0.00000
 Structure written by MMmdl.
 38 40  0  0  0  0  0  0  0  0  2 V2000
  144.5508  135.9828  152.6202 O   0  0  0  0  0  0  0  0  0  0  0  0
  145.7339  136.0592  152.2881 C   0  0  0  0  0  0  0  0  0  0  0  0
  146.5012  137.1265  152.5439 N   0  0  0  0  0  0  0  0  0  0  0  0
  146.0357  138.3265  153.2267 C   0  0  0  0  0  0  0  0  0  0  0  0
  147.1096  139.4230  153.1946 C   0  0  2  0  0  0  0  0  0  0  0  0
  148.4176  138.9695  153.8726 C   0  0  0  0  0  0  0  0  0  0  0  0
  149.4040  140.0739  153.8805 N   0  3  2  0  0  0  0  0  0  0  0  0
  150.6953  139.6764  154.4814 C   0  0  0  0  0  0  0  0  0  0  0  0
  151.0892  138.2498  154.1793 C   0  0  0  0  0  0  0  0  0  0  0  0
  150.5680  138.6174  155.5510 C   0  0  0  0  0  0  0  0  0  0  0  0
  148.8307  141.2798  154.5197 C   0  0  0  0  0  0  0  0  0  0  0  0
  147.5089  141.6661  153.8371 C   0  0  0  0  0  0  0  0  0  0  0  0
  146.6100  140.5648  153.8859 O   0  0  0  0  0  0  0  0  0  0  0  0
  146.4234  135.1090  151.6329 N   0  0  0  0  0  0  0  0  0  0  0  0
  145.9646  133.8427  151.1844 C   0  0  0  0  0  0  0  0  0  0  0  0
  146.7654  132.8256  150.8460 N   0  0  0  0  0  0  0  0  0  0  0  0
  146.0415  131.7005  150.4429 C   0  0  0  0  0  0  0  0  0  0  0  0
  144.6813  131.8802  150.4804 C   0  0  0  0  0  0  0  0  0  0  0  0
  144.2522  133.4792  151.0262 S   0  0  0  0  0  0  0  0  0  0  0  0
  147.4622  137.1147  152.2352 H   0  0  0  0  0  0  0  0  0  0  0  0
  145.1165  138.6820  152.7579 H   0  0  0  0  0  0  0  0  0  0  0  0
  145.7930  138.0748  154.2603 H   0  0  0  0  0  0  0  0  0  0  0  0
  147.3131  139.6884  152.1551 H   0  0  0  0  0  0  0  0  0  0  0  0
  148.2220  138.6480  154.8972 H   0  0  0  0  0  0  0  0  0  0  0  0
  148.8346  138.1123  153.3426 H   0  0  0  0  0  0  0  0  0  0  0  0
  151.4532  140.4538  154.5612 H   0  0  0  0  0  0  0  0  0  0  0  0
  150.4383  137.6591  153.5369 H   0  0  0  0  0  0  0  0  0  0  0  0
  152.1516  138.0310  154.0915 H   0  0  0  0  0  0  0  0  0  0  0  0
  151.2870  138.6400  156.3676 H   0  0  0  0  0  0  0  0  0  0  0  0
  149.5713  138.2714  155.8189 H   0  0  0  0  0  0  0  0  0  0  0  0
  148.6609  141.0868  155.5802 H   0  0  0  0  0  0  0  0  0  0  0  0
  149.5391  142.1061  154.4535 H   0  0  0  0  0  0  0  0  0  0  0  0
  147.0559  142.5154  154.3486 H   0  0  0  0  0  0  0  0  0  0  0  0
  147.6768  141.9694  152.8023 H   0  0  0  0  0  0  0  0  0  0  0  0
  147.3896  135.3158  151.4269 H   0  0  0  0  0  0  0  0  0  0  0  0
  146.5763  130.8109  150.1443 H   0  0  0  0  0  0  0  0  0  0  0  0
  143.9090  131.1715  150.2206 H   0  0  0  0  0  0  0  0  0  0  0  0
  149.5891  140.3106  152.9160 H   0  0  0  0  0  0  0  0  0  0  0  0
  1  2  2  0  0  0  0
  2  3  1  0  0  0  0
  2 14  1  0  0  0  0
  3  4  1  0  0  0  0
  3 20  1  0  0  0  0
  4  5  1  0  0  0  0
  4 21  1  0  0  0  0
  4 22  1  0  0  0  0
  5 13  1  0  0  0  0
  5  6  1  0  0  0  0
  5 23  1  0  0  0  0
  6  7  1  0  0  0  0
  6 24  1  0  0  0  0
  6 25  1  0  0  0  0
  7  8  1  0  0  0  0
  7 11  1  0  0  0  0
  7 38  1  0  0  0  0
  8 10  1  0  0  0  0
  8  9  1  0  0  0  0
  8 26  1  0  0  0  0
  9 10  1  0  0  0  0
  9 27  1  0  0  0  0
  9 28  1  0  0  0  0
 10 29  1  0  0  0  0
 10 30  1  0  0  0  0
 11 12  1  0  0  0  0
 11 31  1  0  0  0  0
 11 32  1  0  0  0  0
 12 13  1  0  0  0  0
 12 33  1  0  0  0  0
 12 34  1  0  0  0  0
 14 15  1  0  0  0  0
 14 35  1  0  0  0  0
 15 19  1  0  0  0  0
 15 16  2  0  0  0  0
 16 17  1  0  0  0  0
 17 18  2  0  0  0  0
 17 36  1  0  0  0  0
 18 19  1  0  0  0  0
 18 37  1  0  0  0  0
M  CHG  1   7   1
M  END
> <s_m_source_file>
AV-unprocessed.smi

> <i_m_source_file_index>
2999

> <i_lp_mmshare_version>
43012

> <i_f3d_flags>
0

> <s_epik_input>
czFbY0hdW2NIXW5jMVtOSF1DKD1PKVtOSF1bQ0gyXVtDQEBIXTJbQ0gyXU4oW0NIMl1bQ0gyXU8yKVtDSF0zW0NIMl1bQ0gyXTM=

> <s_epik_cmdline>
J2VwaWtfcHl0aG9uJywgJy1waCcsICc3LjAnLCAnLXRuJywgJzgnLCAnLW1hJywgJzIwMCcsICctbWV0YWxfYmluZGluZycsICctaW1hZScsICc8aW5maWxlLm1hZT4nLCAnLW9tYWUnLCAnPG91dGZpbGUubWFlPic=

> <r_lp_tautomer_probability>
0.999

> <r_epik_Ionization_Penalty>
1.55235

> <r_epik_Ionization_Penalty_Charging>
1.55221

> <r_epik_Ionization_Penalty_Neutral>
0.000139685

> <r_epik_State_Penalty>
1.64652

> <r_epik_Charging_Adjusted_Penalty>
3.19873

> <i_epik_Tot_Q>
1

> <i_epik_Tot_abs_Q>
1

> <r_epik_Metal_State_Penalty>
1.68612

> <b_epik_Metal_Only>
0

> <s_lp_Force_Field>
OPLS_2005

> <r_lp_Energy>
22.0843

> <b_lp_Chiralities_Consistent>
1

> <s_lp_Variant>
AV-unprocessed.smi:2999-3

> <Gold.Version>
5.8.1

> <Gold.Id.Protein>
6NUR|6NUR_protein|mol2

> <Gold.PLP.Fitness>
45.2596

> <Gold.PLP.PLP>
-34.3958

> <Gold.PLP.part.hbond>
-3.0000

> <Gold.PLP.part.metal>
0.0000

> <Gold.PLP.part.buried>
-2.5354

> <Gold.PLP.part.nonpolar>
-29.2488

> <Gold.PLP.part.repulsive>
0.8175

> <Gold.PLP.ligand.clash>
0.0000

> <Gold.PLP.ligand.torsion>
0.7294

> <Gold.PLP.Chemscore.Hbond>
3.0000

> <Gold.PLP.Chemscore.CHOScore>
0.6871

> <Gold.PLP.Chemscore.Metal>
0.0000

> <Gold.Chemscore.Hbonds>
donor molecule, donor type, donor heavy atom, donor atom, acceptor molecule, acceptor atom, score
      L1  H     3    20       P1  7948  1.00
      L1  H     7    38       P1  7957  1.00
      L1  H    14    35       P1  7948  1.00
      L1  C    17    36       P1 10747  0.77

> <Gold.PLP.Chemscore.Internal.Correction>
1.2613

> <Gold.Rescore>
     Score         DG    S(hbond)    S(metal)    S(lipo)     H(rot)  DE(clash)    DE(int)     intcor
     19.16     -20.06       2.81        0.00      78.88       1.58       0.04       0.86       ----

> <Gold.Chemscore.Fitness>
19.1579

> <Gold.Chemscore.DG>
-20.0577

> <Gold.Chemscore.ZeroCoef>
-5.4800

> <Gold.Chemscore.Hbond>
2.8119

> <Gold.Chemscore.Metal>
0.0000

> <Gold.Chemscore.Lipo>
78.8835

> <Gold.Chemscore.Internal_Hbond>
0.0000

> <Gold.Chemscore.DEClash>
0.0390

> <Gold.Chemscore.DEInternal>
0.8609

> <Gold.Chemscore.Rot>
1.5795

> <Gold.Chemscore.Internal.Correction>
   9.000000E+99

> <Gold.Chemscore.Hbonds>
donor molecule, donor type, donor heavy atom, donor atom, acceptor molecule, acceptor atom, score
      L1  H     3    20       P1  7948  0.95
      L1  H     7    38       P1  7957  0.99
      L1  H    14    35       P1  7948  0.78

> <Gold.Chemscore.Hbond.Weighted>
-9.3918

> <Gold.Chemscore.Metal.Weighted>
-0.0000

> <Gold.Chemscore.Lipo.Weighted>
-9.2294

> <Gold.Chemscore.Internal_Hbond.Weighted>
0.0000

> <Gold.Chemscore.DEClash.Weighted>
0.0390

> <Gold.Chemscore.DEInternal.Weighted>
0.8609

> <Gold.Chemscore.Rot.Weighted>
4.0434

> <Gold.Chemscore.Internal.Correction.Weighted>
   9.000000E+99

> <Gold.Protein.RotatedTorsions>
[ 6907 6896 6895 6894 ] final   36.34 input  -60.11 | X-H torsion
[ 7974 7965 7964 7962 ] final -163.60 input  175.53 | X-H torsion
[ 8008 7997 7996 7995 ] final   44.70 input   59.86 | X-H torsion
[ 10167 10162 10161 10158 ] final -177.30 input  -65.29 | X-H torsion
[ 10718 10713 10712 10709 ] final  -32.27 input   66.30 | X-H torsion
[ 10763 10752 10751 10750 ] final   -3.62 input  -60.55 | X-H torsion
[ 11005 11000 10999 10996 ] final  -93.19 input  -57.11 | X-H torsion

> <Gold.Protein.ActiveResidues>
 VAL166  LYS551  ARG553  GLY616  TRP617  ASP618  TYR619  PRO620  LYS621  CYS622 
 ASP623  PHE694  ASN695  SER759  ASP760  ASP761  ALA762  ILE779  LEU786  VAL792 
 PHE793  MET794  SER795  GLU796  ALA797  LYS798  CYS799  TRP800  GLU811  SER814 

> <Gold.Protein.RotatedAtoms>
  152.1284  134.9153  160.0559 H   0  0  0  0  0  0  0  0  0  0  0  0  # atno 6907 bound_to 6896
  152.0267  133.3916  159.4289 H   0  0  0  0  0  0  0  0  0  0  0  0  # atno 6908 bound_to 6896
  150.6854  134.3487  159.4943 H   0  0  0  0  0  0  0  0  0  0  0  0  # atno 6909 bound_to 6896
  144.7321  140.3083  143.6192 H   0  0  0  0  0  0  0  0  0  0  0  0  # atno 7974 bound_to 7965
  155.3237  140.3398  155.4240 H   0  0  0  0  0  0  0  0  0  0  0  0  # atno 8008 bound_to 7997
  156.1896  140.1693  156.8154 H   0  0  0  0  0  0  0  0  0  0  0  0  # atno 8009 bound_to 7997
  154.5427  140.0721  156.8520 H   0  0  0  0  0  0  0  0  0  0  0  0  # atno 8010 bound_to 7997
  139.5487  144.2167  152.1036 H   0  0  0  0  0  0  0  0  0  0  0  0  # atno 10167 bound_to 10162
  156.3770  130.4349  149.7499 H   0  0  0  0  0  0  0  0  0  0  0  0  # atno 10718 bound_to 10713
  153.3738  135.6995  153.6617 H   0  0  0  0  0  0  0  0  0  0  0  0  # atno 10763 bound_to 10752
  153.5256  135.3603  155.2653 H   0  0  0  0  0  0  0  0  0  0  0  0  # atno 10764 bound_to 10752
  154.8684  135.4168  154.3022 H   0  0  0  0  0  0  0  0  0  0  0  0  # atno 10765 bound_to 10752
  141.1503  133.7871  157.0124 H   0  0  0  0  0  0  0  0  0  0  0  0  # atno 11005 bound_to 11000
  145.7690  139.1851  143.2223 LP  0  0  0  0  0  0  0  0  0  0  0  0  # atno 17320 bound_to 7965
  146.0926  140.7638  142.9588 LP  0  0  0  0  0  0  0  0  0  0  0  0  # atno 17321 bound_to 7965
  140.1659  144.4982  150.6606 LP  0  0  0  0  0  0  0  0  0  0  0  0  # atno 17342 bound_to 10162
  140.6743  143.2298  151.5547 LP  0  0  0  0  0  0  0  0  0  0  0  0  # atno 17343 bound_to 10162
  156.4604  130.7949  151.2969 LP  0  0  0  0  0  0  0  0  0  0  0  0  # atno 17370 bound_to 10713
  157.7489  131.0067  150.3163 LP  0  0  0  0  0  0  0  0  0  0  0  0  # atno 17371 bound_to 10713
  140.0869  134.9616  157.1714 LP  0  0  0  0  0  0  0  0  0  0  0  0  # atno 17394 bound_to 11000
  140.3500  134.2609  155.7200 LP  0  0  0  0  0  0  0  0  0  0  0  0  # atno 17395 bound_to 11000

$$$$
