AV-unprocessed.smi:1824|AV-procd|sdf|7402|dock8
  -GOLD-   22720 9 73D 1   1.00000     0.00000
 Structure written by MMmdl.
 45 47  0  0  0  0  0  0  0  0  2 V2000
  143.4105  142.6783  155.6112 C   0  0  0  0  0  0  0  0  0  0  0  0
  144.7649  141.9625  155.6485 C   0  0  1  0  0  0  0  0  0  0  0  0
  145.9437  142.9584  155.6965 C   0  0  0  0  0  0  0  0  0  0  0  0
  147.2453  142.2628  155.8662 N   0  3  2  0  0  0  0  0  0  0  0  0
  147.7946  141.6483  154.6269 C   0  0  0  0  0  0  0  0  0  0  0  0
  149.2168  141.0891  154.8295 C   0  0  1  0  0  0  0  0  0  0  0  0
  149.7651  140.7656  153.5655 O   0  0  0  0  0  0  0  0  0  0  0  0
  150.1384  142.0994  155.5396 C   0  0  0  0  0  0  0  0  0  0  0  0
  151.0366  141.4586  156.4833 N   0  0  0  0  0  0  0  0  0  0  0  0
  151.6676  140.2776  156.3357 C   0  0  0  0  0  0  0  0  0  0  0  0
  152.4453  139.8729  157.3358 N   0  0  0  0  0  0  0  0  0  0  0  0
  152.3065  140.9141  158.2373 C   0  0  0  0  0  0  0  0  0  0  0  0
  152.8784  141.1039  159.5155 C   0  0  0  0  0  0  0  0  0  0  0  0
  152.5893  142.2643  160.2633 C   0  0  0  0  0  0  0  0  0  0  0  0
  153.1480  142.4314  161.4853 F   0  0  0  0  0  0  0  0  0  0  0  0
  151.7234  143.2506  159.7453 C   0  0  0  0  0  0  0  0  0  0  0  0
  151.4512  144.3620  160.4693 F   0  0  0  0  0  0  0  0  0  0  0  0
  151.1394  143.0824  158.4752 C   0  0  0  0  0  0  0  0  0  0  0  0
  151.4323  141.9238  157.7326 C   0  0  0  0  0  0  0  0  0  0  0  0
  147.1915  141.3344  157.0217 C   0  0  0  0  0  0  0  0  0  0  0  0
  145.9910  140.3728  156.9129 C   0  0  1  0  0  0  0  0  0  0  0  0
  145.8673  139.4631  158.1403 C   0  0  0  0  0  0  0  0  0  0  0  0
  144.7965  141.1397  156.8099 O   0  0  0  0  0  0  0  0  0  0  0  0
  143.3284  143.3188  154.7328 H   0  0  0  0  0  0  0  0  0  0  0  0
  143.2681  143.3011  156.4949 H   0  0  0  0  0  0  0  0  0  0  0  0
  142.5914  141.9595  155.5761 H   0  0  0  0  0  0  0  0  0  0  0  0
  144.8385  141.3315  154.7620 H   0  0  0  0  0  0  0  0  0  0  0  0
  145.9481  143.5910  154.8098 H   0  0  0  0  0  0  0  0  0  0  0  0
  145.8126  143.6306  156.5459 H   0  0  0  0  0  0  0  0  0  0  0  0
  147.1478  140.8309  154.3043 H   0  0  0  0  0  0  0  0  0  0  0  0
  147.7860  142.3745  153.8141 H   0  0  0  0  0  0  0  0  0  0  0  0
  149.1816  140.1773  155.4252 H   0  0  0  0  0  0  0  0  0  0  0  0
  149.1613  140.2007  153.1073 H   0  0  0  0  0  0  0  0  0  0  0  0
  150.7325  142.6563  154.8134 H   0  0  0  0  0  0  0  0  0  0  0  0
  149.5440  142.8342  156.0842 H   0  0  0  0  0  0  0  0  0  0  0  0
  151.5454  139.6782  155.4453 H   0  0  0  0  0  0  0  0  0  0  0  0
  153.5422  140.3554  159.9223 H   0  0  0  0  0  0  0  0  0  0  0  0
  150.4764  143.8359  158.0772 H   0  0  0  0  0  0  0  0  0  0  0  0
  148.1279  140.7831  157.1143 H   0  0  0  0  0  0  0  0  0  0  0  0
  147.0990  141.9299  157.9311 H   0  0  0  0  0  0  0  0  0  0  0  0
  146.0940  139.7434  156.0274 H   0  0  0  0  0  0  0  0  0  0  0  0
  146.7569  138.8445  158.2616 H   0  0  0  0  0  0  0  0  0  0  0  0
  145.0100  138.7960  158.0463 H   0  0  0  0  0  0  0  0  0  0  0  0
  145.7367  140.0448  159.0533 H   0  0  0  0  0  0  0  0  0  0  0  0
  147.9192  142.9725  156.1181 H   0  0  0  0  0  0  0  0  0  0  0  0
  1  2  1  0  0  0  0
  1 24  1  0  0  0  0
  1 25  1  0  0  0  0
  1 26  1  0  0  0  0
  2 23  1  0  0  0  0
  2  3  1  0  0  0  0
  2 27  1  0  0  0  0
  3  4  1  0  0  0  0
  3 28  1  0  0  0  0
  3 29  1  0  0  0  0
  4  5  1  0  0  0  0
  4 20  1  0  0  0  0
  4 45  1  0  0  0  0
  5  6  1  0  0  0  0
  5 30  1  0  0  0  0
  5 31  1  0  0  0  0
  6  7  1  0  0  0  0
  6  8  1  0  0  0  0
  6 32  1  0  0  0  0
  7 33  1  0  0  0  0
  8  9  1  0  0  0  0
  8 34  1  0  0  0  0
  8 35  1  0  0  0  0
  9 19  1  0  0  0  0
  9 10  1  0  0  0  0
 10 11  2  0  0  0  0
 10 36  1  0  0  0  0
 11 12  1  0  0  0  0
 12 19  2  0  0  0  0
 12 13  1  0  0  0  0
 13 14  2  0  0  0  0
 13 37  1  0  0  0  0
 14 15  1  0  0  0  0
 14 16  1  0  0  0  0
 16 17  1  0  0  0  0
 16 18  2  0  0  0  0
 18 19  1  0  0  0  0
 18 38  1  0  0  0  0
 20 21  1  0  0  0  0
 20 39  1  0  0  0  0
 20 40  1  0  0  0  0
 21 22  1  0  0  0  0
 21 23  1  0  0  0  0
 21 41  1  0  0  0  0
 22 42  1  0  0  0  0
 22 43  1  0  0  0  0
 22 44  1  0  0  0  0
M  CHG  1   4   1
M  END
> <s_m_source_file>
AV-unprocessed.smi

> <i_m_source_file_index>
1824

> <i_lp_mmshare_version>
43012

> <i_f3d_flags>
0

> <s_epik_input>
W0NIM11bQ0BASF0xW0NIMl1OKFtDSDJdW0NASF0oTzEpW0NIM10pW0NIMl1bQ0BIXShbT0hdKVtDSDJdbihbY0hdbjIpYyhjMjMpW2NIXWMoRiljKEYpW2NIXTM=

> <s_epik_cmdline>
J2VwaWtfcHl0aG9uJywgJy1waCcsICc3LjAnLCAnLXRuJywgJzgnLCAnLW1hJywgJzIwMCcsICctbWV0YWxfYmluZGluZycsICctaW1hZScsICc8aW5maWxlLm1hZT4nLCAnLW9tYWUnLCAnPG91dGZpbGUubWFlPic=

> <r_epik_Ionization_Penalty>
0.61967

> <r_epik_Ionization_Penalty_Charging>
0.608065

> <r_epik_Ionization_Penalty_Neutral>
0.0116057

> <r_epik_State_Penalty>
0.664205

> <r_epik_Charging_Adjusted_Penalty>
1.27227

> <i_epik_Tot_Q>
1

> <i_epik_Tot_abs_Q>
1

> <r_epik_Metal_State_Penalty>
0.654947

> <b_epik_Metal_Only>
0

> <s_lp_Force_Field>
OPLS_2005

> <r_lp_Energy>
21.9473

> <b_lp_Chiralities_Consistent>
1

> <s_lp_Variant>
AV-unprocessed.smi:1824-10

> <Gold.Version>
5.8.1

> <Gold.Id.Protein>
6NUR|6NUR_protein|mol2

> <Gold.PLP.Fitness>
53.8067

> <Gold.PLP.PLP>
-42.1625

> <Gold.PLP.part.hbond>
-4.7709

> <Gold.PLP.part.metal>
0.0000

> <Gold.PLP.part.buried>
-3.1856

> <Gold.PLP.part.nonpolar>
-33.9870

> <Gold.PLP.part.repulsive>
0.0502

> <Gold.PLP.ligand.clash>
0.0000

> <Gold.PLP.ligand.torsion>
0.9111

> <Gold.PLP.Chemscore.Hbond>
4.4640

> <Gold.PLP.Chemscore.CHOScore>
0.0000

> <Gold.PLP.Chemscore.Metal>
0.0000

> <Gold.Chemscore.Hbonds>
donor molecule, donor type, donor heavy atom, donor atom, acceptor molecule, acceptor atom, score
      L1  H     4    45       P1  8028  1.92
      L1  H     7    33       P1  7957  0.24
      P1  H  7989  7998       L1     7  0.38
      P1  H  7997  8009       L1    11  0.93
      P1  H  8011  8017       L1     7  0.94

> <Gold.PLP.Chemscore.Internal.Correction>
0.0745

> <Gold.Rescore>
     Score         DG    S(hbond)    S(metal)    S(lipo)     H(rot)  DE(clash)    DE(int)     intcor
     14.65     -17.22       2.28        0.00      86.25       2.33       1.72       0.86       ----

> <Gold.Chemscore.Fitness>
14.6492

> <Gold.Chemscore.DG>
-17.2219

> <Gold.Chemscore.ZeroCoef>
-5.4800

> <Gold.Chemscore.Hbond>
2.2764

> <Gold.Chemscore.Metal>
0.0000

> <Gold.Chemscore.Lipo>
86.2494

> <Gold.Chemscore.Internal_Hbond>
0.0000

> <Gold.Chemscore.DEClash>
1.7165

> <Gold.Chemscore.DEInternal>
0.8562

> <Gold.Chemscore.Rot>
2.3251

> <Gold.Chemscore.Internal.Correction>
   9.000000E+99

> <Gold.Chemscore.Hbonds>
donor molecule, donor type, donor heavy atom, donor atom, acceptor molecule, acceptor atom, score
      L1  H     4    45       P1  8028  0.39
      L1  H     7    33       P1  7957  0.23
      P1  H  7989  7998       L1     7  0.36
      P1  H  7997  8009       L1    11  0.19
      P1  H  8011  8017       L1     7  0.24

> <Gold.Chemscore.Hbond.Weighted>
-7.6031

> <Gold.Chemscore.Metal.Weighted>
-0.0000

> <Gold.Chemscore.Lipo.Weighted>
-10.0912

> <Gold.Chemscore.Internal_Hbond.Weighted>
0.0000

> <Gold.Chemscore.DEClash.Weighted>
1.7165

> <Gold.Chemscore.DEInternal.Weighted>
0.8562

> <Gold.Chemscore.Rot.Weighted>
5.9523

> <Gold.Chemscore.Internal.Correction.Weighted>
   9.000000E+99

> <Gold.Protein.RotatedTorsions>
[ 6907 6896 6895 6894 ] final  148.97 input  -60.11 | X-H torsion
[ 7974 7965 7964 7962 ] final   86.37 input  175.53 | X-H torsion
[ 8008 7997 7996 7995 ] final  178.45 input   59.86 | X-H torsion
[ 10167 10162 10161 10158 ] final   -8.78 input  -65.29 | X-H torsion
[ 10718 10713 10712 10709 ] final  168.03 input   66.30 | X-H torsion
[ 10763 10752 10751 10750 ] final -103.30 input  -60.55 | X-H torsion
[ 11005 11000 10999 10996 ] final  -29.48 input  -57.11 | X-H torsion

> <Gold.Protein.ActiveResidues>
 VAL166  LYS551  ARG553  GLY616  TRP617  ASP618  TYR619  PRO620  LYS621  CYS622 
 ASP623  PHE694  ASN695  SER759  ASP760  ASP761  ALA762  ILE779  LEU786  VAL792 
 PHE793  MET794  SER795  GLU796  ALA797  LYS798  CYS799  TRP800  GLU811  SER814 

> <Gold.Protein.RotatedAtoms>
  152.1343  133.4426  159.4735 H   0  0  0  0  0  0  0  0  0  0  0  0  # atno 6907 bound_to 6896
  150.6880  134.2383  159.4471 H   0  0  0  0  0  0  0  0  0  0  0  0  # atno 6908 bound_to 6896
  152.0269  134.9790  160.0622 H   0  0  0  0  0  0  0  0  0  0  0  0  # atno 6909 bound_to 6896
  145.5731  139.2316  143.2395 H   0  0  0  0  0  0  0  0  0  0  0  0  # atno 7974 bound_to 7965
  156.0545  140.1333  157.0012 H   0  0  0  0  0  0  0  0  0  0  0  0  # atno 8008 bound_to 7997
  154.4451  140.1004  156.6496 H   0  0  0  0  0  0  0  0  0  0  0  0  # atno 8009 bound_to 7997
  155.5472  140.3462  155.4462 H   0  0  0  0  0  0  0  0  0  0  0  0  # atno 8010 bound_to 7997
  140.7069  143.5930  150.8874 H   0  0  0  0  0  0  0  0  0  0  0  0  # atno 10167 bound_to 10162
  157.0429  131.0292  151.2707 H   0  0  0  0  0  0  0  0  0  0  0  0  # atno 10718 bound_to 10713
  154.7797  135.4828  153.9819 H   0  0  0  0  0  0  0  0  0  0  0  0  # atno 10763 bound_to 10752
  153.1477  135.6785  153.8936 H   0  0  0  0  0  0  0  0  0  0  0  0  # atno 10764 bound_to 10752
  153.8591  135.3157  155.3415 H   0  0  0  0  0  0  0  0  0  0  0  0  # atno 10765 bound_to 10752
  140.9299  133.7344  156.0922 H   0  0  0  0  0  0  0  0  0  0  0  0  # atno 11005 bound_to 11000
  146.1770  140.6558  142.9207 LP  0  0  0  0  0  0  0  0  0  0  0  0  # atno 17320 bound_to 7965
  144.7428  140.4988  143.6857 LP  0  0  0  0  0  0  0  0  0  0  0  0  # atno 17321 bound_to 7965
  139.9656  143.6115  152.2989 LP  0  0  0  0  0  0  0  0  0  0  0  0  # atno 17342 bound_to 10162
  139.6683  144.7661  151.1831 LP  0  0  0  0  0  0  0  0  0  0  0  0  # atno 17343 bound_to 10162
  157.5090  130.7927  149.7685 LP  0  0  0  0  0  0  0  0  0  0  0  0  # atno 17370 bound_to 10713
  156.0032  130.3869  150.2527 LP  0  0  0  0  0  0  0  0  0  0  0  0  # atno 17371 bound_to 10713
  140.7876  134.3655  157.5472 LP  0  0  0  0  0  0  0  0  0  0  0  0  # atno 17394 bound_to 11000
  139.8794  134.9120  156.3050 LP  0  0  0  0  0  0  0  0  0  0  0  0  # atno 17395 bound_to 11000

$$$$
