AV-unprocessed.smi:1670|AV-procd|sdf|6693|dock7
  -GOLD-   22720 7423D 1   1.00000     0.00000
 Structure written by MMmdl.
 41 42  0  0  0  0  0  0  0  0  1 V2000
  144.9842  135.7094  153.6674 C   0  0  0  0  0  0  0  0  0  0  0  0
  144.7737  136.5031  152.3707 C   0  0  2  0  0  0  0  0  0  0  0  0
  145.6847  135.9818  151.2383 C   0  0  0  0  0  0  0  0  0  0  0  0
  145.5227  134.5579  150.9999 N   0  0  0  0  0  0  0  0  0  0  0  0
  144.3838  133.8781  150.6230 C   0  0  0  0  0  0  0  0  0  0  0  0
  144.7192  132.5601  150.5005 C   0  0  0  0  0  0  0  0  0  0  0  0
  146.1035  132.5316  150.8288 C   0  0  0  0  0  0  0  0  0  0  0  0
  146.5806  133.7277  151.1329 N   0  0  0  0  0  0  0  0  0  0  0  0
  145.0265  137.9196  152.6331 N   0  0  0  0  0  0  0  0  0  0  0  0
  146.0484  138.4091  153.3504 C   0  0  0  0  0  0  0  0  0  0  0  0
  146.9353  137.7146  153.8473 O   0  0  0  0  0  0  0  0  0  0  0  0
  145.9673  139.7427  153.4769 N   0  0  0  0  0  0  0  0  0  0  0  0
  146.8603  140.6173  154.2386 C   0  0  2  0  0  0  0  0  0  0  0  0
  148.3231  140.5467  153.7499 C   0  0  0  0  0  0  0  0  0  0  0  0
  149.2081  141.5369  154.5243 C   0  0  0  0  0  0  0  0  0  0  0  0
  149.1121  141.2964  156.0420 C   0  0  1  0  0  0  0  0  0  0  0  0
  149.8843  142.2638  156.7213 O   0  0  0  0  0  0  0  0  0  0  0  0
  147.6535  141.3708  156.5290 C   0  0  0  0  0  0  0  0  0  0  0  0
  146.7624  140.3806  155.7618 C   0  0  0  0  0  0  0  0  0  0  0  0
  144.7744  134.6502  153.5161 H   0  0  0  0  0  0  0  0  0  0  0  0
  144.3222  136.0650  154.4576 H   0  0  0  0  0  0  0  0  0  0  0  0
  146.0102  135.7974  154.0264 H   0  0  0  0  0  0  0  0  0  0  0  0
  143.7327  136.3626  152.0740 H   0  0  0  0  0  0  0  0  0  0  0  0
  145.4964  136.5264  150.3113 H   0  0  0  0  0  0  0  0  0  0  0  0
  146.7309  136.1566  151.4926 H   0  0  0  0  0  0  0  0  0  0  0  0
  143.4424  134.3848  150.4686 H   0  0  0  0  0  0  0  0  0  0  0  0
  144.0744  131.7420  150.2159 H   0  0  0  0  0  0  0  0  0  0  0  0
  146.7708  131.6828  150.8567 H   0  0  0  0  0  0  0  0  0  0  0  0
  144.3480  138.5736  152.2712 H   0  0  0  0  0  0  0  0  0  0  0  0
  145.1912  140.1996  153.0207 H   0  0  0  0  0  0  0  0  0  0  0  0
  146.4999  141.6279  154.0423 H   0  0  0  0  0  0  0  0  0  0  0  0
  148.7225  139.5404  153.8793 H   0  0  0  0  0  0  0  0  0  0  0  0
  148.3734  140.7655  152.6828 H   0  0  0  0  0  0  0  0  0  0  0  0
  150.2432  141.4419  154.1937 H   0  0  0  0  0  0  0  0  0  0  0  0
  148.8996  142.5566  154.2896 H   0  0  0  0  0  0  0  0  0  0  0  0
  149.5223  140.3136  156.2784 H   0  0  0  0  0  0  0  0  0  0  0  0
  149.5362  143.1195  156.5226 H   0  0  0  0  0  0  0  0  0  0  0  0
  147.6034  141.1602  157.5981 H   0  0  0  0  0  0  0  0  0  0  0  0
  147.2684  142.3827  156.3942 H   0  0  0  0  0  0  0  0  0  0  0  0
  145.7282  140.4842  156.0919 H   0  0  0  0  0  0  0  0  0  0  0  0
  147.0659  139.3638  156.0126 H   0  0  0  0  0  0  0  0  0  0  0  0
  1  2  1  0  0  0  0
  1 20  1  0  0  0  0
  1 21  1  0  0  0  0
  1 22  1  0  0  0  0
  2  3  1  0  0  0  0
  2  9  1  0  0  0  0
  2 23  1  0  0  0  0
  3  4  1  0  0  0  0
  3 24  1  0  0  0  0
  3 25  1  0  0  0  0
  4  8  1  0  0  0  0
  4  5  1  0  0  0  0
  5  6  2  0  0  0  0
  5 26  1  0  0  0  0
  6  7  1  0  0  0  0
  6 27  1  0  0  0  0
  7  8  2  0  0  0  0
  7 28  1  0  0  0  0
  9 10  1  0  0  0  0
  9 29  1  0  0  0  0
 10 11  2  0  0  0  0
 10 12  1  0  0  0  0
 12 13  1  0  0  0  0
 12 30  1  0  0  0  0
 13 19  1  0  0  0  0
 13 14  1  0  0  0  0
 13 31  1  0  0  0  0
 14 15  1  0  0  0  0
 14 32  1  0  0  0  0
 14 33  1  0  0  0  0
 15 16  1  0  0  0  0
 15 34  1  0  0  0  0
 15 35  1  0  0  0  0
 16 17  1  0  0  0  0
 16 18  1  0  0  0  0
 16 36  1  0  0  0  0
 17 37  1  0  0  0  0
 18 19  1  0  0  0  0
 18 38  1  0  0  0  0
 18 39  1  0  0  0  0
 19 40  1  0  0  0  0
 19 41  1  0  0  0  0
M  END
> <s_m_source_file>
AV-unprocessed.smi

> <i_m_source_file_index>
1670

> <i_lp_mmshare_version>
43012

> <i_f3d_flags>
0

> <s_epik_input>
bjFbY0hdW2NIXVtjSF1uMVtDSDJdW0NAQEhdKFtDSDNdKVtOSF1DKD1PKVtOSF1bQ0BASF0yW0NIMl1bQ0gyXVtDQEBIXShbT0hdKVtDSDJdW0NIMl0y

> <s_epik_cmdline>
J2VwaWtfcHl0aG9uJywgJy1waCcsICc3LjAnLCAnLXRuJywgJzgnLCAnLW1hJywgJzIwMCcsICctbWV0YWxfYmluZGluZycsICctaW1hZScsICc8aW5maWxlLm1hZT4nLCAnLW9tYWUnLCAnPG91dGZpbGUubWFlPic=

> <r_lp_tautomer_probability>
1

> <r_epik_Ionization_Penalty>
7.33369e-05

> <r_epik_Ionization_Penalty_Charging>
0

> <r_epik_Ionization_Penalty_Neutral>
7.33369e-05

> <r_epik_State_Penalty>
-0

> <r_epik_Charging_Adjusted_Penalty>
0

> <i_epik_Tot_Q>
0

> <i_epik_Tot_abs_Q>
0

> <r_epik_Metal_State_Penalty>
-0

> <b_epik_Metal_Only>
0

> <s_lp_Force_Field>
OPLS_2005

> <r_lp_Energy>
5.26958

> <b_lp_Chiralities_Consistent>
1

> <s_lp_Variant>
AV-unprocessed.smi:1670-1

> <Gold.Version>
5.8.1

> <Gold.Id.Protein>
6NUR|6NUR_protein|mol2

> <Gold.PLP.Fitness>
42.9424

> <Gold.PLP.PLP>
-28.8089

> <Gold.PLP.part.hbond>
-3.8857

> <Gold.PLP.part.metal>
0.0000

> <Gold.PLP.part.buried>
-3.7115

> <Gold.PLP.part.nonpolar>
-22.7849

> <Gold.PLP.part.repulsive>
0.3588

> <Gold.PLP.ligand.clash>
0.0000

> <Gold.PLP.ligand.torsion>
0.2746

> <Gold.PLP.Chemscore.Hbond>
2.8800

> <Gold.PLP.Chemscore.CHOScore>
2.0000

> <Gold.PLP.Chemscore.Metal>
0.0000

> <Gold.Chemscore.Hbonds>
donor molecule, donor type, donor heavy atom, donor atom, acceptor molecule, acceptor atom, score
      L1  H     9    29       P1 10175  0.88
      L1  H    12    30       P1 10175  1.00
      L1  H    17    37       P1  8028  1.00
      L1  C     5    26       P1 10186  0.84
      L1  C     7    28       P1 10747  1.00

> <Gold.PLP.Chemscore.Internal.Correction>
0.0426

> <Gold.Rescore>
     Score         DG    S(hbond)    S(metal)    S(lipo)     H(rot)  DE(clash)    DE(int)     intcor
     15.43     -17.38       2.83        0.00      69.55       2.22       0.47       1.48       ----

> <Gold.Chemscore.Fitness>
15.4273

> <Gold.Chemscore.DG>
-17.3783

> <Gold.Chemscore.ZeroCoef>
-5.4800

> <Gold.Chemscore.Hbond>
2.8293

> <Gold.Chemscore.Metal>
0.0000

> <Gold.Chemscore.Lipo>
69.5543

> <Gold.Chemscore.Internal_Hbond>
0.0000

> <Gold.Chemscore.DEClash>
0.4726

> <Gold.Chemscore.DEInternal>
1.4783

> <Gold.Chemscore.Rot>
2.2224

> <Gold.Chemscore.Internal.Correction>
   9.000000E+99

> <Gold.Chemscore.Hbonds>
donor molecule, donor type, donor heavy atom, donor atom, acceptor molecule, acceptor atom, score
      L1  H     9    29       P1 10175  0.84
      L1  H    12    30       P1 10175  0.99
      L1  H    17    37       P1  8028  0.99

> <Gold.Chemscore.Hbond.Weighted>
-9.4497

> <Gold.Chemscore.Metal.Weighted>
-0.0000

> <Gold.Chemscore.Lipo.Weighted>
-8.1379

> <Gold.Chemscore.Internal_Hbond.Weighted>
0.0000

> <Gold.Chemscore.DEClash.Weighted>
0.4726

> <Gold.Chemscore.DEInternal.Weighted>
1.4783

> <Gold.Chemscore.Rot.Weighted>
5.6893

> <Gold.Chemscore.Internal.Correction.Weighted>
   9.000000E+99

> <Gold.Protein.RotatedTorsions>
[ 6907 6896 6895 6894 ] final   83.05 input  -60.11 | X-H torsion
[ 7974 7965 7964 7962 ] final -127.78 input  175.53 | X-H torsion
[ 8008 7997 7996 7995 ] final  -15.57 input   59.86 | X-H torsion
[ 10167 10162 10161 10158 ] final -119.05 input  -65.29 | X-H torsion
[ 10718 10713 10712 10709 ] final  -90.79 input   66.30 | X-H torsion
[ 10763 10752 10751 10750 ] final  120.17 input  -60.55 | X-H torsion
[ 11005 11000 10999 10996 ] final  -89.84 input  -57.11 | X-H torsion

> <Gold.Protein.ActiveResidues>
 VAL166  LYS551  ARG553  GLY616  TRP617  ASP618  TYR619  PRO620  LYS621  CYS622 
 ASP623  PHE694  ASN695  SER759  ASP760  ASP761  ALA762  ILE779  LEU786  VAL792 
 PHE793  MET794  SER795  GLU796  ALA797  LYS798  CYS799  TRP800  GLU811  SER814 

> <Gold.Protein.RotatedAtoms>
  152.5316  134.2955  159.9058 H   0  0  0  0  0  0  0  0  0  0  0  0  # atno 6907 bound_to 6896
  151.2907  133.4160  159.2640 H   0  0  0  0  0  0  0  0  0  0  0  0  # atno 6908 bound_to 6896
  151.0203  134.9480  159.8113 H   0  0  0  0  0  0  0  0  0  0  0  0  # atno 6909 bound_to 6896
  144.9736  140.7570  143.4655 H   0  0  0  0  0  0  0  0  0  0  0  0  # atno 7974 bound_to 7965
  154.5120  140.2193  155.9138 H   0  0  0  0  0  0  0  0  0  0  0  0  # atno 8008 bound_to 7997
  156.1564  140.3151  155.8698 H   0  0  0  0  0  0  0  0  0  0  0  0  # atno 8009 bound_to 7997
  155.3839  140.0474  157.3033 H   0  0  0  0  0  0  0  0  0  0  0  0  # atno 8010 bound_to 7997
  140.0509  143.5061  152.2082 H   0  0  0  0  0  0  0  0  0  0  0  0  # atno 10167 bound_to 10162
  155.9989  130.4923  150.5376 H   0  0  0  0  0  0  0  0  0  0  0  0  # atno 10718 bound_to 10713
  153.5944  135.3460  155.2922 H   0  0  0  0  0  0  0  0  0  0  0  0  # atno 10763 bound_to 10752
  154.8647  135.4212  154.2481 H   0  0  0  0  0  0  0  0  0  0  0  0  # atno 10764 bound_to 10752
  153.3295  135.7043  153.7031 H   0  0  0  0  0  0  0  0  0  0  0  0  # atno 10765 bound_to 10752
  141.1577  133.7655  156.9652 H   0  0  0  0  0  0  0  0  0  0  0  0  # atno 11005 bound_to 11000
  145.2522  139.2027  143.4936 LP  0  0  0  0  0  0  0  0  0  0  0  0  # atno 17320 bound_to 7965
  146.3389  140.2438  142.8596 LP  0  0  0  0  0  0  0  0  0  0  0  0  # atno 17321 bound_to 7965
  139.5954  144.7565  151.3300 LP  0  0  0  0  0  0  0  0  0  0  0  0  # atno 17342 bound_to 10162
  140.7217  143.7117  150.7764 LP  0  0  0  0  0  0  0  0  0  0  0  0  # atno 17343 bound_to 10162
  157.3317  131.0700  151.1856 LP  0  0  0  0  0  0  0  0  0  0  0  0  # atno 17370 bound_to 10713
  157.2734  130.6715  149.6030 LP  0  0  0  0  0  0  0  0  0  0  0  0  # atno 17371 bound_to 10713
  140.1166  134.9443  157.2143 LP  0  0  0  0  0  0  0  0  0  0  0  0  # atno 17394 bound_to 11000
  140.3125  134.3008  155.7263 LP  0  0  0  0  0  0  0  0  0  0  0  0  # atno 17395 bound_to 11000

$$$$
