AV-unprocessed.smi:776|AV-procd|sdf|3700|dock9
  -GOLD-   22720 1123D 1   1.00000     0.00000
 Structure written by MMmdl.
 44 45  0  0  0  0  0  0  0  0  1 V2000
  144.0397  132.7406  149.1499 C   0  0  0  0  0  0  0  0  0  0  0  0
  145.1251  132.7160  150.2366 C   0  0  0  0  0  0  0  0  0  0  0  0
  145.2904  131.3354  150.8901 C   0  0  0  0  0  0  0  0  0  0  0  0
  144.9213  133.7972  151.2537 C   0  0  0  0  0  0  0  0  0  0  0  0
  143.8579  133.8125  152.0509 N   0  0  0  0  0  0  0  0  0  0  0  0
  144.0436  134.9704  152.8192 O   0  0  0  0  0  0  0  0  0  0  0  0
  145.2130  135.5088  152.3988 C   0  0  0  0  0  0  0  0  0  0  0  0
  145.6696  136.7965  152.9978 C   0  0  0  0  0  0  0  0  0  0  0  0
  146.6919  136.5870  154.1264 C   0  0  0  0  0  0  0  0  0  0  0  0
  147.8656  137.4347  153.9518 N   0  0  0  0  0  0  0  0  0  0  0  0
  148.0928  138.5880  154.6032 C   0  0  0  0  0  0  0  0  0  0  0  0
  147.2847  139.0588  155.4038 O   0  0  0  0  0  0  0  0  0  0  0  0
  149.2190  139.2268  154.1953 N   0  0  0  0  0  0  0  0  0  0  0  0
  150.4760  138.4872  153.9772 C   0  0  0  0  0  0  0  0  0  0  0  0
  151.3140  138.5253  155.2706 C   0  0  0  0  0  0  0  0  0  0  0  0
  151.5731  139.9745  155.7227 C   0  0  0  0  0  0  0  0  0  0  0  0
  150.2771  140.8067  155.7529 C   0  0  0  0  0  0  0  0  0  0  0  0
  149.5033  140.6608  154.4263 C   0  0  2  0  0  0  0  0  0  0  0  0
  148.2811  141.6003  154.3482 C   0  0  0  0  0  0  0  0  0  0  0  0
  145.7946  134.8301  151.4132 N   0  0  0  0  0  0  0  0  0  0  0  0
  144.0036  133.7116  148.6550 H   0  0  0  0  0  0  0  0  0  0  0  0
  143.0525  132.5418  149.5686 H   0  0  0  0  0  0  0  0  0  0  0  0
  144.2333  131.9879  148.3855 H   0  0  0  0  0  0  0  0  0  0  0  0
  146.0683  132.9295  149.7315 H   0  0  0  0  0  0  0  0  0  0  0  0
  146.1180  131.3337  151.6001 H   0  0  0  0  0  0  0  0  0  0  0  0
  145.4957  130.5695  150.1419 H   0  0  0  0  0  0  0  0  0  0  0  0
  144.3887  131.0394  151.4274 H   0  0  0  0  0  0  0  0  0  0  0  0
  146.1021  137.4126  152.2086 H   0  0  0  0  0  0  0  0  0  0  0  0
  144.7960  137.3331  153.3700 H   0  0  0  0  0  0  0  0  0  0  0  0
  146.2334  136.7761  155.0987 H   0  0  0  0  0  0  0  0  0  0  0  0
  147.0254  135.5490  154.1368 H   0  0  0  0  0  0  0  0  0  0  0  0
  148.5518  137.1312  153.2763 H   0  0  0  0  0  0  0  0  0  0  0  0
  150.3210  137.4503  153.6769 H   0  0  0  0  0  0  0  0  0  0  0  0
  151.0316  138.9437  153.1568 H   0  0  0  0  0  0  0  0  0  0  0  0
  150.7900  137.9855  156.0607 H   0  0  0  0  0  0  0  0  0  0  0  0
  152.2617  138.0078  155.1198 H   0  0  0  0  0  0  0  0  0  0  0  0
  152.0524  139.9852  156.7021 H   0  0  0  0  0  0  0  0  0  0  0  0
  152.2767  140.4402  155.0316 H   0  0  0  0  0  0  0  0  0  0  0  0
  149.6503  140.4825  156.5850 H   0  0  0  0  0  0  0  0  0  0  0  0
  150.5190  141.8539  155.9374 H   0  0  0  0  0  0  0  0  0  0  0  0
  150.1622  140.9858  153.6191 H   0  0  0  0  0  0  0  0  0  0  0  0
  148.6038  142.6410  154.3125 H   0  0  0  0  0  0  0  0  0  0  0  0
  147.6249  141.5071  155.2132 H   0  0  0  0  0  0  0  0  0  0  0  0
  147.6929  141.4120  153.4495 H   0  0  0  0  0  0  0  0  0  0  0  0
  1  2  1  0  0  0  0
  1 21  1  0  0  0  0
  1 22  1  0  0  0  0
  1 23  1  0  0  0  0
  2  3  1  0  0  0  0
  2  4  1  0  0  0  0
  2 24  1  0  0  0  0
  3 25  1  0  0  0  0
  3 26  1  0  0  0  0
  3 27  1  0  0  0  0
  4 20  1  0  0  0  0
  4  5  2  0  0  0  0
  5  6  1  0  0  0  0
  6  7  1  0  0  0  0
  7  8  1  0  0  0  0
  7 20  2  0  0  0  0
  8  9  1  0  0  0  0
  8 28  1  0  0  0  0
  8 29  1  0  0  0  0
  9 10  1  0  0  0  0
  9 30  1  0  0  0  0
  9 31  1  0  0  0  0
 10 11  1  0  0  0  0
 10 32  1  0  0  0  0
 11 12  2  0  0  0  0
 11 13  1  0  0  0  0
 13 18  1  0  0  0  0
 13 14  1  0  0  0  0
 14 15  1  0  0  0  0
 14 33  1  0  0  0  0
 14 34  1  0  0  0  0
 15 16  1  0  0  0  0
 15 35  1  0  0  0  0
 15 36  1  0  0  0  0
 16 17  1  0  0  0  0
 16 37  1  0  0  0  0
 16 38  1  0  0  0  0
 17 18  1  0  0  0  0
 17 39  1  0  0  0  0
 17 40  1  0  0  0  0
 18 19  1  0  0  0  0
 18 41  1  0  0  0  0
 19 42  1  0  0  0  0
 19 43  1  0  0  0  0
 19 44  1  0  0  0  0
M  END
> <s_m_source_file>
AV-unprocessed.smi

> <i_m_source_file_index>
776

> <i_lp_mmshare_version>
43012

> <i_f3d_flags>
0

> <s_epik_input>
W0NIM11bQ0hdKFtDSDNdKWMxbm9jKG4xKVtDSDJdW0NIMl1bTkhdQyg9TylOMltDSDJdW0NIMl1bQ0gyXVtDSDJdW0NASF0yW0NIM10=

> <s_epik_cmdline>
J2VwaWtfcHl0aG9uJywgJy1waCcsICc3LjAnLCAnLXRuJywgJzgnLCAnLW1hJywgJzIwMCcsICctbWV0YWxfYmluZGluZycsICctaW1hZScsICc8aW5maWxlLm1hZT4nLCAnLW9tYWUnLCAnPG91dGZpbGUubWFlPic=

> <r_lp_tautomer_probability>
1

> <r_epik_Ionization_Penalty>
6.23032e-05

> <r_epik_Ionization_Penalty_Charging>
0

> <r_epik_Ionization_Penalty_Neutral>
6.23032e-05

> <r_epik_State_Penalty>
-0

> <r_epik_Charging_Adjusted_Penalty>
0

> <i_epik_Tot_Q>
0

> <i_epik_Tot_abs_Q>
0

> <r_epik_Metal_State_Penalty>
-0

> <b_epik_Metal_Only>
0

> <s_lp_Force_Field>
OPLS_2005

> <r_lp_Energy>
25.3462

> <b_lp_Chiralities_Consistent>
1

> <s_lp_Variant>
AV-unprocessed.smi:776-2

> <Gold.Version>
5.8.1

> <Gold.Id.Protein>
6NUR|6NUR_protein|mol2

> <Gold.PLP.Fitness>
34.9238

> <Gold.PLP.PLP>
-33.9181

> <Gold.PLP.part.hbond>
-1.0000

> <Gold.PLP.part.metal>
0.0000

> <Gold.PLP.part.buried>
-3.1135

> <Gold.PLP.part.nonpolar>
-30.2961

> <Gold.PLP.part.repulsive>
0.4123

> <Gold.PLP.ligand.clash>
0.0000

> <Gold.PLP.ligand.torsion>
1.2438

> <Gold.PLP.Chemscore.Hbond>
1.0000

> <Gold.PLP.Chemscore.CHOScore>
0.0000

> <Gold.PLP.Chemscore.Metal>
0.0000

> <Gold.Chemscore.Hbonds>
donor molecule, donor type, donor heavy atom, donor atom, acceptor molecule, acceptor atom, score
      L1  H    10    32       P1  7948  1.00

> <Gold.PLP.Chemscore.Internal.Correction>
0.4932

> <Gold.Rescore>
     Score         DG    S(hbond)    S(metal)    S(lipo)     H(rot)  DE(clash)    DE(int)     intcor
     11.87     -14.36       0.98        0.00      83.90       1.65       0.03       2.46       ----

> <Gold.Chemscore.Fitness>
11.8682

> <Gold.Chemscore.DG>
-14.3615

> <Gold.Chemscore.ZeroCoef>
-5.4800

> <Gold.Chemscore.Hbond>
0.9826

> <Gold.Chemscore.Metal>
0.0000

> <Gold.Chemscore.Lipo>
83.8974

> <Gold.Chemscore.Internal_Hbond>
0.0000

> <Gold.Chemscore.DEClash>
0.0314

> <Gold.Chemscore.DEInternal>
2.4619

> <Gold.Chemscore.Rot>
1.6470

> <Gold.Chemscore.Internal.Correction>
   9.000000E+99

> <Gold.Chemscore.Hbonds>
donor molecule, donor type, donor heavy atom, donor atom, acceptor molecule, acceptor atom, score
      L1  H    10    32       P1  7948  0.95

> <Gold.Chemscore.Hbond.Weighted>
-3.2820

> <Gold.Chemscore.Metal.Weighted>
-0.0000

> <Gold.Chemscore.Lipo.Weighted>
-9.8160

> <Gold.Chemscore.Internal_Hbond.Weighted>
0.0000

> <Gold.Chemscore.DEClash.Weighted>
0.0314

> <Gold.Chemscore.DEInternal.Weighted>
2.4619

> <Gold.Chemscore.Rot.Weighted>
4.2164

> <Gold.Chemscore.Internal.Correction.Weighted>
   9.000000E+99

> <Gold.Protein.RotatedTorsions>
[ 6907 6896 6895 6894 ] final   80.44 input  -60.11 | X-H torsion
[ 7974 7965 7964 7962 ] final  -66.71 input  175.53 | X-H torsion
[ 8008 7997 7996 7995 ] final  -37.67 input   59.86 | X-H torsion
[ 10167 10162 10161 10158 ] final  -97.04 input  -65.29 | X-H torsion
[ 10718 10713 10712 10709 ] final  -99.23 input   66.30 | X-H torsion
[ 10763 10752 10751 10750 ] final  -51.99 input  -60.55 | X-H torsion
[ 11005 11000 10999 10996 ] final   44.57 input  -57.11 | X-H torsion

> <Gold.Protein.ActiveResidues>
 VAL166  LYS551  ARG553  GLY616  TRP617  ASP618  TYR619  PRO620  LYS621  CYS622 
 ASP623  PHE694  ASN695  SER759  ASP760  ASP761  ALA762  ILE779  LEU786  VAL792 
 PHE793  MET794  SER795  GLU796  ALA797  LYS798  CYS799  TRP800  GLU811  SER814 

> <Gold.Protein.RotatedAtoms>
  152.5235  134.3356  159.9198 H   0  0  0  0  0  0  0  0  0  0  0  0  # atno 6907 bound_to 6896
  151.3306  133.3996  159.2670 H   0  0  0  0  0  0  0  0  0  0  0  0  # atno 6908 bound_to 6896
  150.9884  134.9242  159.7943 H   0  0  0  0  0  0  0  0  0  0  0  0  # atno 6909 bound_to 6896
  145.7384  140.8965  143.0543 H   0  0  0  0  0  0  0  0  0  0  0  0  # atno 7974 bound_to 7965
  154.4049  140.1598  156.2575 H   0  0  0  0  0  0  0  0  0  0  0  0  # atno 8008 bound_to 7997
  155.9066  140.3430  155.6044 H   0  0  0  0  0  0  0  0  0  0  0  0  # atno 8009 bound_to 7997
  155.7386  140.0789  157.2247 H   0  0  0  0  0  0  0  0  0  0  0  0  # atno 8010 bound_to 7997
  140.2875  143.3242  152.0379 H   0  0  0  0  0  0  0  0  0  0  0  0  # atno 10167 bound_to 10162
  156.0128  130.5273  150.6639 H   0  0  0  0  0  0  0  0  0  0  0  0  # atno 10718 bound_to 10713
  154.1356  135.6513  153.4931 H   0  0  0  0  0  0  0  0  0  0  0  0  # atno 10763 bound_to 10752
  153.0182  135.5303  154.6957 H   0  0  0  0  0  0  0  0  0  0  0  0  # atno 10764 bound_to 10752
  154.6204  135.2964  155.0303 H   0  0  0  0  0  0  0  0  0  0  0  0  # atno 10765 bound_to 10752
  140.1540  134.4426  155.8362 H   0  0  0  0  0  0  0  0  0  0  0  0  # atno 11005 bound_to 11000
  144.6876  139.9427  143.7475 LP  0  0  0  0  0  0  0  0  0  0  0  0  # atno 17320 bound_to 7965
  146.0471  139.3476  143.0662 LP  0  0  0  0  0  0  0  0  0  0  0  0  # atno 17321 bound_to 7965
  139.4946  144.6548  151.6596 LP  0  0  0  0  0  0  0  0  0  0  0  0  # atno 17342 bound_to 10162
  140.5760  144.0028  150.6242 LP  0  0  0  0  0  0  0  0  0  0  0  0  # atno 17343 bound_to 10162
  157.4375  131.0857  151.0976 LP  0  0  0  0  0  0  0  0  0  0  0  0  # atno 17370 bound_to 10713
  157.1530  130.6192  149.5588 LP  0  0  0  0  0  0  0  0  0  0  0  0  # atno 17371 bound_to 10713
  141.2202  133.6884  156.7473 LP  0  0  0  0  0  0  0  0  0  0  0  0  # atno 17394 bound_to 11000
  140.2570  134.8496  157.3723 LP  0  0  0  0  0  0  0  0  0  0  0  0  # atno 17395 bound_to 11000

$$$$
