AV-unprocessed.smi:1725|AV-procd|sdf|6954|dock9
  -GOLD-   22720 8163D 1   1.00000     0.00000
 Structure written by MMmdl.
 36 37  0  0  0  0  0  0  0  0  1 V2000
  151.3957  137.1189  155.5392 C   0  0  0  0  0  0  0  0  0  0  0  0
  151.1715  138.4904  154.8850 C   0  0  1  0  0  0  0  0  0  0  0  0
  149.7687  138.7379  154.8830 O   0  0  0  0  0  0  0  0  0  0  0  0
  149.3641  139.9753  154.3052 C   0  0  0  0  0  0  0  0  0  0  0  0
  147.8555  140.0388  154.1519 C   0  0  0  0  0  0  0  0  0  0  0  0
  147.1880  139.6316  152.8545 C   0  0  0  0  0  0  0  0  0  0  0  0
  147.2027  141.0793  153.2648 C   0  0  0  0  0  0  0  0  0  0  0  0
  151.9088  139.6043  155.6465 C   0  0  0  0  0  0  0  0  0  0  0  0
  152.7905  140.2454  155.0755 O   0  0  0  0  0  0  0  0  0  0  0  0
  151.5110  139.7930  156.9206 N   0  0  0  0  0  0  0  0  0  0  0  0
  151.9940  140.6910  157.8879 C   0  0  0  0  0  0  0  0  0  0  0  0
  151.3722  141.8382  158.2680 C   0  0  0  0  0  0  0  0  0  0  0  0
  151.9346  142.7246  159.2731 C   0  0  0  0  0  0  0  0  0  0  0  0
  151.2543  144.0321  159.6486 C   0  0  0  0  0  0  0  0  0  0  0  0
  151.1529  144.1249  160.9736 F   0  0  0  0  0  0  0  0  0  0  0  0
  151.9467  145.0841  159.2098 F   0  0  0  0  0  0  0  0  0  0  0  0
  150.0262  144.0955  159.1338 F   0  0  0  0  0  0  0  0  0  0  0  0
  153.1238  142.3666  159.7916 C   0  0  0  0  0  0  0  0  0  0  0  0
  153.7694  141.1893  159.4074 N   0  0  0  0  0  0  0  0  0  0  0  0
  153.2887  140.3248  158.4860 C   0  0  0  0  0  0  0  0  0  0  0  0
  153.9231  139.3110  158.1955 O   0  0  0  0  0  0  0  0  0  0  0  0
  154.6538  140.9855  159.8501 H   0  0  0  0  0  0  0  0  0  0  0  0
  152.4570  136.8733  155.5917 H   0  0  0  0  0  0  0  0  0  0  0  0
  150.9044  136.3332  154.9650 H   0  0  0  0  0  0  0  0  0  0  0  0
  150.9920  137.0851  156.5519 H   0  0  0  0  0  0  0  0  0  0  0  0
  151.5324  138.4400  153.8557 H   0  0  0  0  0  0  0  0  0  0  0  0
  149.6814  140.8187  154.9190 H   0  0  0  0  0  0  0  0  0  0  0  0
  149.8184  140.0938  153.3208 H   0  0  0  0  0  0  0  0  0  0  0  0
  147.3153  139.7860  155.0622 H   0  0  0  0  0  0  0  0  0  0  0  0
  147.8233  139.3401  152.0202 H   0  0  0  0  0  0  0  0  0  0  0  0
  146.2412  139.1002  152.9235 H   0  0  0  0  0  0  0  0  0  0  0  0
  146.2652  141.5125  153.6074 H   0  0  0  0  0  0  0  0  0  0  0  0
  147.8470  141.7533  152.7037 H   0  0  0  0  0  0  0  0  0  0  0  0
  150.7331  139.2274  157.2287 H   0  0  0  0  0  0  0  0  0  0  0  0
  150.4372  142.1392  157.8257 H   0  0  0  0  0  0  0  0  0  0  0  0
  153.6674  142.9443  160.5244 H   0  0  0  0  0  0  0  0  0  0  0  0
  1  2  1  0  0  0  0
  1 23  1  0  0  0  0
  1 24  1  0  0  0  0
  1 25  1  0  0  0  0
  2  3  1  0  0  0  0
  2  8  1  0  0  0  0
  2 26  1  0  0  0  0
  3  4  1  0  0  0  0
  4  5  1  0  0  0  0
  4 27  1  0  0  0  0
  4 28  1  0  0  0  0
  5  7  1  0  0  0  0
  5  6  1  0  0  0  0
  5 29  1  0  0  0  0
  6  7  1  0  0  0  0
  6 30  1  0  0  0  0
  6 31  1  0  0  0  0
  7 32  1  0  0  0  0
  7 33  1  0  0  0  0
  8  9  2  0  0  0  0
  8 10  1  0  0  0  0
 10 11  1  0  0  0  0
 10 34  1  0  0  0  0
 11 20  1  0  0  0  0
 11 12  2  0  0  0  0
 12 13  1  0  0  0  0
 12 35  1  0  0  0  0
 13 14  1  0  0  0  0
 13 18  2  0  0  0  0
 14 15  1  0  0  0  0
 14 16  1  0  0  0  0
 14 17  1  0  0  0  0
 18 19  1  0  0  0  0
 18 36  1  0  0  0  0
 19 22  1  0  0  0  0
 19 20  1  0  0  0  0
 20 21  2  0  0  0  0
M  END
> <s_m_source_file>
AV-unprocessed.smi

> <i_m_source_file_index>
1725

> <i_lp_mmshare_version>
43012

> <i_f3d_flags>
0

> <s_epik_input>
W0NIMl0xW0NIMl1bQ0hdMVtDSDJdT1tDQEBIXShbQ0gzXSlDKD1PKVtOSF1jMltjSF1jKEMoRikoRilGKVtjSF1bbkhdYzI9Tw==

> <s_epik_cmdline>
J2VwaWtfcHl0aG9uJywgJy1waCcsICc3LjAnLCAnLXRuJywgJzgnLCAnLW1hJywgJzIwMCcsICctbWV0YWxfYmluZGluZycsICctaW1hZScsICc8aW5maWxlLm1hZT4nLCAnLW9tYWUnLCAnPG91dGZpbGUubWFlPic=

> <r_lp_tautomer_probability>
0.999

> <r_epik_Ionization_Penalty>
0.00763408

> <r_epik_Ionization_Penalty_Charging>
0.00763398

> <r_epik_Ionization_Penalty_Neutral>
9.25705e-08

> <r_epik_State_Penalty>
0.00571302

> <r_epik_Charging_Adjusted_Penalty>
0.013347

> <i_epik_Tot_Q>
0

> <i_epik_Tot_abs_Q>
0

> <r_epik_Metal_State_Penalty>
0.392814

> <b_epik_Metal_Only>
0

> <s_lp_Force_Field>
OPLS_2005

> <r_lp_Energy>
26.7151

> <b_lp_Chiralities_Consistent>
1

> <s_lp_Variant>
AV-unprocessed.smi:1725-2

> <Gold.Version>
5.8.1

> <Gold.Id.Protein>
6NUR|6NUR_protein|mol2

> <Gold.PLP.Fitness>
45.2971

> <Gold.PLP.PLP>
-41.6040

> <Gold.PLP.part.hbond>
-3.0000

> <Gold.PLP.part.metal>
0.0000

> <Gold.PLP.part.buried>
-3.3116

> <Gold.PLP.part.nonpolar>
-35.0687

> <Gold.PLP.part.repulsive>
0.2552

> <Gold.PLP.ligand.clash>
0.0000

> <Gold.PLP.ligand.torsion>
1.2529

> <Gold.PLP.Chemscore.Hbond>
1.8667

> <Gold.PLP.Chemscore.CHOScore>
0.0000

> <Gold.PLP.Chemscore.Metal>
0.0000

> <Gold.Chemscore.Hbonds>
donor molecule, donor type, donor heavy atom, donor atom, acceptor molecule, acceptor atom, score
      P1  H  7989  7998       L1     9  0.33
      P1  H  7997  8008       L1    21  0.74
      P1  H  7997  8009       L1     9  1.00

> <Gold.PLP.Chemscore.Internal.Correction>
0.5989

> <Gold.Rescore>
     Score         DG    S(hbond)    S(metal)    S(lipo)     H(rot)  DE(clash)    DE(int)     intcor
     14.40     -16.06       1.74        0.00      79.92       1.79       0.56       1.09       ----

> <Gold.Chemscore.Fitness>
14.4013

> <Gold.Chemscore.DG>
-16.0568

> <Gold.Chemscore.ZeroCoef>
-5.4800

> <Gold.Chemscore.Hbond>
1.7419

> <Gold.Chemscore.Metal>
0.0000

> <Gold.Chemscore.Lipo>
79.9237

> <Gold.Chemscore.Internal_Hbond>
0.0000

> <Gold.Chemscore.DEClash>
0.5629

> <Gold.Chemscore.DEInternal>
1.0926

> <Gold.Chemscore.Rot>
1.7938

> <Gold.Chemscore.Internal.Correction>
   9.000000E+99

> <Gold.Chemscore.Hbonds>
donor molecule, donor type, donor heavy atom, donor atom, acceptor molecule, acceptor atom, score
      P1  H  7989  7998       L1     9  0.06
      P1  H  7997  8008       L1    21  0.17
      P1  H  7997  8009       L1     9  0.95

> <Gold.Chemscore.Hbond.Weighted>
-5.8180

> <Gold.Chemscore.Metal.Weighted>
-0.0000

> <Gold.Chemscore.Lipo.Weighted>
-9.3511

> <Gold.Chemscore.Internal_Hbond.Weighted>
0.0000

> <Gold.Chemscore.DEClash.Weighted>
0.5629

> <Gold.Chemscore.DEInternal.Weighted>
1.0926

> <Gold.Chemscore.Rot.Weighted>
4.5922

> <Gold.Chemscore.Internal.Correction.Weighted>
   9.000000E+99

> <Gold.Protein.RotatedTorsions>
[ 6907 6896 6895 6894 ] final  141.89 input  -60.11 | X-H torsion
[ 7974 7965 7964 7962 ] final   69.12 input  175.53 | X-H torsion
[ 8008 7997 7996 7995 ] final -124.33 input   59.86 | X-H torsion
[ 10167 10162 10161 10158 ] final  130.37 input  -65.29 | X-H torsion
[ 10718 10713 10712 10709 ] final   47.43 input   66.30 | X-H torsion
[ 10763 10752 10751 10750 ] final   46.21 input  -60.55 | X-H torsion
[ 11005 11000 10999 10996 ] final -137.31 input  -57.11 | X-H torsion

> <Gold.Protein.ActiveResidues>
 VAL166  LYS551  ARG553  GLY616  TRP617  ASP618  TYR619  PRO620  LYS621  CYS622 
 ASP623  PHE694  ASN695  SER759  ASP760  ASP761  ALA762  ILE779  LEU786  VAL792 
 PHE793  MET794  SER795  GLU796  ALA797  LYS798  CYS799  TRP800  GLU811  SER814 

> <Gold.Protein.RotatedAtoms>
  152.2254  133.5016  159.5185 H   0  0  0  0  0  0  0  0  0  0  0  0  # atno 6907 bound_to 6896
  150.7023  134.1287  159.4070 H   0  0  0  0  0  0  0  0  0  0  0  0  # atno 6908 bound_to 6896
  151.9208  135.0299  160.0572 H   0  0  0  0  0  0  0  0  0  0  0  0  # atno 6909 bound_to 6896
  145.7942  139.2949  143.1192 H   0  0  0  0  0  0  0  0  0  0  0  0  # atno 7974 bound_to 7965
  155.1952  140.0414  157.2907 H   0  0  0  0  0  0  0  0  0  0  0  0  # atno 8008 bound_to 7997
  154.6112  140.2477  155.7638 H   0  0  0  0  0  0  0  0  0  0  0  0  # atno 8009 bound_to 7997
  156.2380  140.2914  156.0375 H   0  0  0  0  0  0  0  0  0  0  0  0  # atno 8010 bound_to 7997
  139.5433  144.6750  151.4554 H   0  0  0  0  0  0  0  0  0  0  0  0  # atno 10167 bound_to 10162
  157.4584  130.8181  149.7860 H   0  0  0  0  0  0  0  0  0  0  0  0  # atno 10718 bound_to 10713
  152.9814  135.6015  154.3562 H   0  0  0  0  0  0  0  0  0  0  0  0  # atno 10763 bound_to 10752
  154.3247  135.2769  155.2504 H   0  0  0  0  0  0  0  0  0  0  0  0  # atno 10764 bound_to 10752
  154.4654  135.5955  153.6340 H   0  0  0  0  0  0  0  0  0  0  0  0  # atno 10765 bound_to 10752
  140.8723  134.2036  157.4643 H   0  0  0  0  0  0  0  0  0  0  0  0  # atno 11005 bound_to 11000
  145.9945  140.8574  143.0050 LP  0  0  0  0  0  0  0  0  0  0  0  0  # atno 17320 bound_to 7965
  144.6777  140.2263  143.7360 LP  0  0  0  0  0  0  0  0  0  0  0  0  # atno 17321 bound_to 7965
  140.6672  143.8373  150.6955 LP  0  0  0  0  0  0  0  0  0  0  0  0  # atno 17342 bound_to 10162
  140.1786  143.4134  152.1949 LP  0  0  0  0  0  0  0  0  0  0  0  0  # atno 17343 bound_to 10162
  156.0017  130.3876  150.2580 LP  0  0  0  0  0  0  0  0  0  0  0  0  # atno 17370 bound_to 10713
  157.0756  131.0129  151.3175 LP  0  0  0  0  0  0  0  0  0  0  0  0  # atno 17371 bound_to 10713
  139.8713  134.9779  156.4979 LP  0  0  0  0  0  0  0  0  0  0  0  0  # atno 17394 bound_to 11000
  140.8559  133.8096  155.9216 LP  0  0  0  0  0  0  0  0  0  0  0  0  # atno 17395 bound_to 11000

$$$$
