AV-unprocessed.smi:912|AV-procd|sdf|4142|dock2
  -GOLD-   22720 2 43D 1   1.00000     0.00000
 Structure written by MMmdl.
 27 27  0  0  0  0  0  0  0  0  2 V2000
  146.9002  138.8622  152.2196 C   0  0  0  0  0  0  0  0  0  0  0  0
  148.2596  138.7587  152.8000 N   0  3  0  0  0  0  0  0  0  0  0  0
  148.4223  139.0143  154.2611 C   0  0  1  0  0  0  0  0  0  0  0  0
  147.6643  140.3077  154.6601 C   0  0  0  0  0  0  0  0  0  0  0  0
  147.8822  137.7771  155.0233 C   0  0  0  0  0  0  0  0  0  0  0  0
  147.5863  136.6833  154.3105 N   0  0  0  0  0  0  0  0  0  0  0  0
  147.7171  137.8063  156.2415 O   0  0  0  0  0  0  0  0  0  0  0  0
  149.9159  139.1880  154.6105 C   0  0  0  0  0  0  0  0  0  0  0  0
  150.9011  138.2303  154.2573 C   0  0  0  0  0  0  0  0  0  0  0  0
  152.2447  138.4674  154.6114 C   0  0  0  0  0  0  0  0  0  0  0  0
  152.6560  139.5664  155.2754 N   0  0  0  0  0  0  0  0  0  0  0  0
  151.7245  140.4811  155.6121 C   0  0  0  0  0  0  0  0  0  0  0  0
  150.3569  140.3404  155.3057 C   0  0  0  0  0  0  0  0  0  0  0  0
  146.9320  138.5511  151.1756 H   0  0  0  0  0  0  0  0  0  0  0  0
  146.5319  139.8876  152.2406 H   0  0  0  0  0  0  0  0  0  0  0  0
  146.1848  138.2203  152.7336 H   0  0  0  0  0  0  0  0  0  0  0  0
  148.6051  137.8277  152.6169 H   0  0  0  0  0  0  0  0  0  0  0  0
  147.7868  140.5433  155.7176 H   0  0  0  0  0  0  0  0  0  0  0  0
  146.5903  140.2355  154.4873 H   0  0  0  0  0  0  0  0  0  0  0  0
  148.0300  141.1656  154.0950 H   0  0  0  0  0  0  0  0  0  0  0  0
  147.2046  135.8653  154.7630 H   0  0  0  0  0  0  0  0  0  0  0  0
  147.7202  136.6910  153.3092 H   0  0  0  0  0  0  0  0  0  0  0  0
  150.6641  137.3216  153.7255 H   0  0  0  0  0  0  0  0  0  0  0  0
  153.0106  137.7512  154.3534 H   0  0  0  0  0  0  0  0  0  0  0  0
  152.0784  141.3521  156.1437 H   0  0  0  0  0  0  0  0  0  0  0  0
  149.6617  141.1097  155.6090 H   0  0  0  0  0  0  0  0  0  0  0  0
  148.8496  139.4149  152.3087 H   0  0  0  0  0  0  0  0  0  0  0  0
  1  2  1  0  0  0  0
  1 14  1  0  0  0  0
  1 15  1  0  0  0  0
  1 16  1  0  0  0  0
  2  3  1  0  0  0  0
  2 17  1  0  0  0  0
  2 27  1  0  0  0  0
  3  4  1  0  0  0  0
  3  5  1  0  0  0  0
  3  8  1  0  0  0  0
  4 18  1  0  0  0  0
  4 19  1  0  0  0  0
  4 20  1  0  0  0  0
  5  6  1  0  0  0  0
  5  7  2  0  0  0  0
  6 21  1  0  0  0  0
  6 22  1  0  0  0  0
  8 13  1  0  0  0  0
  8  9  2  0  0  0  0
  9 10  1  0  0  0  0
  9 23  1  0  0  0  0
 10 11  2  0  0  0  0
 10 24  1  0  0  0  0
 11 12  1  0  0  0  0
 12 13  2  0  0  0  0
 12 25  1  0  0  0  0
 13 26  1  0  0  0  0
M  CHG  1   2   1
M  END
> <s_m_source_file>
AV-unprocessed.smi

> <i_m_source_file_index>
912

> <i_lp_mmshare_version>
43012

> <i_f3d_flags>
0

> <s_epik_input>
W0NIM11bTkhdW0NAQF0oW0NIM10pKEMoPU8pW05IMl0pYzFbY0hdW2NIXW5bY0hdW2NIXTE=

> <s_epik_cmdline>
J2VwaWtfcHl0aG9uJywgJy1waCcsICc3LjAnLCAnLXRuJywgJzgnLCAnLW1hJywgJzIwMCcsICctbWV0YWxfYmluZGluZycsICctaW1hZScsICc8aW5maWxlLm1hZT4nLCAnLW9tYWUnLCAnPG91dGZpbGUubWFlPic=

> <r_epik_Ionization_Penalty>
0.8426

> <r_epik_Ionization_Penalty_Charging>
0.842363

> <r_epik_Ionization_Penalty_Neutral>
0.000236815

> <r_epik_State_Penalty>
0.498415

> <r_epik_Charging_Adjusted_Penalty>
1.34078

> <i_epik_Tot_Q>
1

> <i_epik_Tot_abs_Q>
1

> <r_epik_Metal_State_Penalty>
0.661775

> <b_epik_Metal_Only>
0

> <s_lp_Force_Field>
OPLS_2005

> <r_lp_Energy>
11.5285

> <b_lp_Chiralities_Consistent>
1

> <s_lp_Variant>
AV-unprocessed.smi:912-3

> <Gold.Version>
5.8.1

> <Gold.Id.Protein>
6NUR|6NUR_protein|mol2

> <Gold.PLP.Fitness>
37.9844

> <Gold.PLP.PLP>
-24.3433

> <Gold.PLP.part.hbond>
-4.4392

> <Gold.PLP.part.metal>
0.0000

> <Gold.PLP.part.buried>
-2.1223

> <Gold.PLP.part.nonpolar>
-18.6330

> <Gold.PLP.part.repulsive>
0.0865

> <Gold.PLP.ligand.clash>
0.0000

> <Gold.PLP.ligand.torsion>
0.5581

> <Gold.PLP.Chemscore.Hbond>
4.9120

> <Gold.PLP.Chemscore.CHOScore>
0.0000

> <Gold.PLP.Chemscore.Metal>
0.0000

> <Gold.Chemscore.Hbonds>
donor molecule, donor type, donor heavy atom, donor atom, acceptor molecule, acceptor atom, score
      L1  H     2    17       P1  7948  2.00
      L1  H     2    27       P1  7957  0.93
      L1  H     6    22       P1  7948  0.90
      P1  H  7997  8010       L1    11  1.00

> <Gold.PLP.Chemscore.Internal.Correction>
0.0213

> <Gold.Rescore>
     Score         DG    S(hbond)    S(metal)    S(lipo)     H(rot)  DE(clash)    DE(int)     intcor
     19.36     -20.20       3.88        0.00      55.17       1.83       0.13       0.71       ----

> <Gold.Chemscore.Fitness>
19.3595

> <Gold.Chemscore.DG>
-20.2050

> <Gold.Chemscore.ZeroCoef>
-5.4800

> <Gold.Chemscore.Hbond>
3.8763

> <Gold.Chemscore.Metal>
0.0000

> <Gold.Chemscore.Lipo>
55.1742

> <Gold.Chemscore.Internal_Hbond>
0.0000

> <Gold.Chemscore.DEClash>
0.1347

> <Gold.Chemscore.DEInternal>
0.7108

> <Gold.Chemscore.Rot>
1.8270

> <Gold.Chemscore.Internal.Correction>
   9.000000E+99

> <Gold.Chemscore.Hbonds>
donor molecule, donor type, donor heavy atom, donor atom, acceptor molecule, acceptor atom, score
      L1  H     2    17       P1  7948  1.00
      L1  H     2    27       P1  7957  0.88
      L1  H     6    22       P1  7948  0.87
      P1  H  7997  8010       L1    11  0.68

> <Gold.Chemscore.Hbond.Weighted>
-12.9467

> <Gold.Chemscore.Metal.Weighted>
-0.0000

> <Gold.Chemscore.Lipo.Weighted>
-6.4554

> <Gold.Chemscore.Internal_Hbond.Weighted>
0.0000

> <Gold.Chemscore.DEClash.Weighted>
0.1347

> <Gold.Chemscore.DEInternal.Weighted>
0.7108

> <Gold.Chemscore.Rot.Weighted>
4.6771

> <Gold.Chemscore.Internal.Correction.Weighted>
   9.000000E+99

> <Gold.Protein.RotatedTorsions>
[ 6907 6896 6895 6894 ] final  137.17 input  -60.11 | X-H torsion
[ 7974 7965 7964 7962 ] final -107.96 input  175.53 | X-H torsion
[ 8008 7997 7996 7995 ] final  101.32 input   59.86 | X-H torsion
[ 10167 10162 10161 10158 ] final  167.16 input  -65.29 | X-H torsion
[ 10718 10713 10712 10709 ] final   68.54 input   66.30 | X-H torsion
[ 10763 10752 10751 10750 ] final  -26.70 input  -60.55 | X-H torsion
[ 11005 11000 10999 10996 ] final -129.94 input  -57.11 | X-H torsion

> <Gold.Protein.ActiveResidues>
 VAL166  LYS551  ARG553  GLY616  TRP617  ASP618  TYR619  PRO620  LYS621  CYS622 
 ASP623  PHE694  ASN695  SER759  ASP760  ASP761  ALA762  ILE779  LEU786  VAL792 
 PHE793  MET794  SER795  GLU796  ALA797  LYS798  CYS799  TRP800  GLU811  SER814 

> <Gold.Protein.RotatedAtoms>
  152.2811  133.5471  159.5498 H   0  0  0  0  0  0  0  0  0  0  0  0  # atno 6907 bound_to 6896
  150.7196  134.0562  159.3824 H   0  0  0  0  0  0  0  0  0  0  0  0  # atno 6908 bound_to 6896
  151.8473  135.0570  160.0506 H   0  0  0  0  0  0  0  0  0  0  0  0  # atno 6909 bound_to 6896
  145.1988  140.9047  143.3381 H   0  0  0  0  0  0  0  0  0  0  0  0  # atno 7974 bound_to 7965
  156.1288  140.3199  155.8317 H   0  0  0  0  0  0  0  0  0  0  0  0  # atno 8008 bound_to 7997
  155.4371  140.0523  157.3031 H   0  0  0  0  0  0  0  0  0  0  0  0  # atno 8009 bound_to 7997
  154.4883  140.2081  155.9619 H   0  0  0  0  0  0  0  0  0  0  0  0  # atno 8010 bound_to 7997
  139.4939  144.3951  151.9473 H   0  0  0  0  0  0  0  0  0  0  0  0  # atno 10167 bound_to 10162
  157.6295  130.9379  150.0391 H   0  0  0  0  0  0  0  0  0  0  0  0  # atno 10718 bound_to 10713
  153.7202  135.6945  153.5015 H   0  0  0  0  0  0  0  0  0  0  0  0  # atno 10763 bound_to 10752
  153.2209  135.4370  155.0487 H   0  0  0  0  0  0  0  0  0  0  0  0  # atno 10764 bound_to 10752
  154.8287  135.3460  154.6736 H   0  0  0  0  0  0  0  0  0  0  0  0  # atno 10765 bound_to 10752
  140.9388  134.1220  157.4169 H   0  0  0  0  0  0  0  0  0  0  0  0  # atno 11005 bound_to 11000
  144.9968  139.3636  143.6187 LP  0  0  0  0  0  0  0  0  0  0  0  0  # atno 17320 bound_to 7965
  146.3422  139.9174  142.8771 LP  0  0  0  0  0  0  0  0  0  0  0  0  # atno 17321 bound_to 7965
  140.3389  144.3227  150.5971 LP  0  0  0  0  0  0  0  0  0  0  0  0  # atno 17342 bound_to 10162
  140.5583  143.2196  151.7810 LP  0  0  0  0  0  0  0  0  0  0  0  0  # atno 17343 bound_to 10162
  156.1489  130.3642  149.9469 LP  0  0  0  0  0  0  0  0  0  0  0  0  # atno 17370 bound_to 10713
  156.7493  130.9109  151.3636 LP  0  0  0  0  0  0  0  0  0  0  0  0  # atno 17371 bound_to 10713
  139.8815  135.0030  156.6159 LP  0  0  0  0  0  0  0  0  0  0  0  0  # atno 17394 bound_to 11000
  140.7762  133.8697  155.8531 LP  0  0  0  0  0  0  0  0  0  0  0  0  # atno 17395 bound_to 11000

$$$$
