AV-unprocessed.smi:3100|AV-procd|sdf|11807|dock6
  -GOLD-   2272017183D 1   1.00000     0.00000
 Structure written by MMmdl.
 28 29  0  0  0  0  0  0  0  0  1 V2000
  151.0188  144.6560  159.0409 C   0  0  0  0  0  0  0  0  0  0  0  0
  151.9555  143.4450  158.9850 C   0  0  1  0  0  0  0  0  0  0  0  0
  153.0839  143.4776  160.0082 C   0  0  0  0  0  0  0  0  0  0  0  0
  153.4814  142.0154  160.1115 C   0  0  0  0  0  0  0  0  0  0  0  0
  152.2132  141.2471  159.6841 C   0  0  2  0  0  0  0  0  0  0  0  0
  152.4390  140.2972  158.4933 C   0  0  0  0  0  0  0  0  0  0  0  0
  153.4737  139.6319  158.4382 O   0  0  0  0  0  0  0  0  0  0  0  0
  151.4511  140.2361  157.5799 N   0  0  0  0  0  0  0  0  0  0  0  0
  151.3991  139.4642  156.3901 C   0  0  0  0  0  0  0  0  0  0  0  0
  152.2110  138.3055  156.3742 C   0  0  0  0  0  0  0  0  0  0  0  0
  152.2673  137.4687  155.3144 N   0  0  0  0  0  0  0  0  0  0  0  0
  151.5019  137.7905  154.2499 C   0  0  0  0  0  0  0  0  0  0  0  0
  150.6873  138.9404  154.2478 C   0  0  0  0  0  0  0  0  0  0  0  0
  150.6355  139.7724  155.3108 N   0  0  0  0  0  0  0  0  0  0  0  0
  151.2623  142.2579  159.3389 O   0  0  0  0  0  0  0  0  0  0  0  0
  151.5546  145.5759  158.8061 H   0  0  0  0  0  0  0  0  0  0  0  0
  150.5760  144.7693  160.0308 H   0  0  0  0  0  0  0  0  0  0  0  0
  150.2055  144.5515  158.3226 H   0  0  0  0  0  0  0  0  0  0  0  0
  152.3648  143.3317  157.9796 H   0  0  0  0  0  0  0  0  0  0  0  0
  153.9099  144.1242  159.7104 H   0  0  0  0  0  0  0  0  0  0  0  0
  152.7105  143.8256  160.9724 H   0  0  0  0  0  0  0  0  0  0  0  0
  154.3252  141.8196  159.4478 H   0  0  0  0  0  0  0  0  0  0  0  0
  153.7955  141.7567  161.1232 H   0  0  0  0  0  0  0  0  0  0  0  0
  151.8129  140.6675  160.5166 H   0  0  0  0  0  0  0  0  0  0  0  0
  150.6492  140.8242  157.7556 H   0  0  0  0  0  0  0  0  0  0  0  0
  152.8251  138.0434  157.2234 H   0  0  0  0  0  0  0  0  0  0  0  0
  151.5392  137.1289  153.3973 H   0  0  0  0  0  0  0  0  0  0  0  0
  150.0769  139.1929  153.3935 H   0  0  0  0  0  0  0  0  0  0  0  0
  1  2  1  0  0  0  0
  1 16  1  0  0  0  0
  1 17  1  0  0  0  0
  1 18  1  0  0  0  0
  2 15  1  0  0  0  0
  2  3  1  0  0  0  0
  2 19  1  0  0  0  0
  3  4  1  0  0  0  0
  3 20  1  0  0  0  0
  3 21  1  0  0  0  0
  4  5  1  0  0  0  0
  4 22  1  0  0  0  0
  4 23  1  0  0  0  0
  5  6  1  0  0  0  0
  5 15  1  0  0  0  0
  5 24  1  0  0  0  0
  6  7  2  0  0  0  0
  6  8  1  0  0  0  0
  8  9  1  0  0  0  0
  8 25  1  0  0  0  0
  9 14  1  0  0  0  0
  9 10  2  0  0  0  0
 10 11  1  0  0  0  0
 10 26  1  0  0  0  0
 11 12  2  0  0  0  0
 12 13  1  0  0  0  0
 12 27  1  0  0  0  0
 13 14  2  0  0  0  0
 13 28  1  0  0  0  0
M  END
> <s_m_source_file>
AV-unprocessed.smi

> <i_m_source_file_index>
3100

> <i_lp_mmshare_version>
43012

> <i_f3d_flags>
0

> <s_epik_input>
W0NIM11bQ0BASF0xW0NIMl1bQ0gyXVtDQEhdKE8xKUMoPU8pW05IXWMyW2NIXW5bY0hdW2NIXW4y

> <s_epik_cmdline>
J2VwaWtfcHl0aG9uJywgJy1waCcsICc3LjAnLCAnLXRuJywgJzgnLCAnLW1hJywgJzIwMCcsICctbWV0YWxfYmluZGluZycsICctaW1hZScsICc8aW5maWxlLm1hZT4nLCAnLW9tYWUnLCAnPG91dGZpbGUubWFlPic=

> <r_lp_tautomer_probability>
1

> <r_epik_Ionization_Penalty>
2.81186e-06

> <r_epik_Ionization_Penalty_Charging>
0

> <r_epik_Ionization_Penalty_Neutral>
2.81186e-06

> <r_epik_State_Penalty>
-0

> <r_epik_Charging_Adjusted_Penalty>
0

> <i_epik_Tot_Q>
0

> <i_epik_Tot_abs_Q>
0

> <r_epik_Metal_State_Penalty>
-0

> <b_epik_Metal_Only>
0

> <s_lp_Force_Field>
OPLS_2005

> <r_lp_Energy>
25.84

> <b_lp_Chiralities_Consistent>
1

> <s_lp_Variant>
AV-unprocessed.smi:3100-4

> <Gold.Version>
5.8.1

> <Gold.Id.Protein>
6NUR|6NUR_protein|mol2

> <Gold.PLP.Fitness>
40.0731

> <Gold.PLP.PLP>
-30.6804

> <Gold.PLP.part.hbond>
-2.2104

> <Gold.PLP.part.metal>
0.0000

> <Gold.PLP.part.buried>
-4.7770

> <Gold.PLP.part.nonpolar>
-24.3213

> <Gold.PLP.part.repulsive>
0.1342

> <Gold.PLP.ligand.clash>
0.0000

> <Gold.PLP.ligand.torsion>
0.7243

> <Gold.PLP.Chemscore.Hbond>
1.6115

> <Gold.PLP.Chemscore.CHOScore>
2.0000

> <Gold.PLP.Chemscore.Metal>
0.0000

> <Gold.Chemscore.Hbonds>
donor molecule, donor type, donor heavy atom, donor atom, acceptor molecule, acceptor atom, score
      P1  H  7997  8009       L1     7  1.00
      P1  H 10752 10765       L1    11  0.61
      L1  C    12    27       P1  7949  1.00
      L1  C    13    28       P1  7957  1.00

> <Gold.PLP.Chemscore.Internal.Correction>
0.0069

> <Gold.Rescore>
     Score         DG    S(hbond)    S(metal)    S(lipo)     H(rot)  DE(clash)    DE(int)     intcor
     15.32     -17.56       1.77        0.00      74.64       1.00       0.07       2.17       ----

> <Gold.Chemscore.Fitness>
15.3224

> <Gold.Chemscore.DG>
-17.5556

> <Gold.Chemscore.ZeroCoef>
-5.4800

> <Gold.Chemscore.Hbond>
1.7673

> <Gold.Chemscore.Metal>
0.0000

> <Gold.Chemscore.Lipo>
74.6410

> <Gold.Chemscore.Internal_Hbond>
0.0000

> <Gold.Chemscore.DEClash>
0.0659

> <Gold.Chemscore.DEInternal>
2.1674

> <Gold.Chemscore.Rot>
1.0000

> <Gold.Chemscore.Internal.Correction>
   9.000000E+99

> <Gold.Chemscore.Hbonds>
donor molecule, donor type, donor heavy atom, donor atom, acceptor molecule, acceptor atom, score
      P1  H  7997  8009       L1     7  0.94
      P1  H 10752 10765       L1    11  0.18

> <Gold.Chemscore.Hbond.Weighted>
-5.9026

> <Gold.Chemscore.Metal.Weighted>
-0.0000

> <Gold.Chemscore.Lipo.Weighted>
-8.7330

> <Gold.Chemscore.Internal_Hbond.Weighted>
0.0000

> <Gold.Chemscore.DEClash.Weighted>
0.0659

> <Gold.Chemscore.DEInternal.Weighted>
2.1674

> <Gold.Chemscore.Rot.Weighted>
2.5600

> <Gold.Chemscore.Internal.Correction.Weighted>
   9.000000E+99

> <Gold.Protein.RotatedTorsions>
[ 6907 6896 6895 6894 ] final -133.36 input  -60.11 | X-H torsion
[ 7974 7965 7964 7962 ] final   -7.40 input  175.53 | X-H torsion
[ 8008 7997 7996 7995 ] final  150.51 input   59.86 | X-H torsion
[ 10167 10162 10161 10158 ] final -179.08 input  -65.29 | X-H torsion
[ 10718 10713 10712 10709 ] final  -62.62 input   66.30 | X-H torsion
[ 10763 10752 10751 10750 ] final -171.26 input  -60.55 | X-H torsion
[ 11005 11000 10999 10996 ] final  -91.83 input  -57.11 | X-H torsion

> <Gold.Protein.ActiveResidues>
 VAL166  LYS551  ARG553  GLY616  TRP617  ASP618  TYR619  PRO620  LYS621  CYS622 
 ASP623  PHE694  ASN695  SER759  ASP760  ASP761  ALA762  ILE779  LEU786  VAL792 
 PHE793  MET794  SER795  GLU796  ALA797  LYS798  CYS799  TRP800  GLU811  SER814 

> <Gold.Protein.RotatedAtoms>
  150.9731  133.6323  159.2734 H   0  0  0  0  0  0  0  0  0  0  0  0  # atno 6907 bound_to 6896
  151.3605  135.0902  159.9442 H   0  0  0  0  0  0  0  0  0  0  0  0  # atno 6908 bound_to 6896
  152.5190  133.9306  159.7633 H   0  0  0  0  0  0  0  0  0  0  0  0  # atno 6909 bound_to 6896
  146.2308  140.2314  142.8340 H   0  0  0  0  0  0  0  0  0  0  0  0  # atno 7974 bound_to 7965
  156.2713  140.2073  156.6028 H   0  0  0  0  0  0  0  0  0  0  0  0  # atno 8008 bound_to 7997
  154.6893  140.0532  157.0370 H   0  0  0  0  0  0  0  0  0  0  0  0  # atno 8009 bound_to 7997
  155.0889  140.3194  155.4582 H   0  0  0  0  0  0  0  0  0  0  0  0  # atno 8010 bound_to 7997
  139.5402  144.2384  152.0880 H   0  0  0  0  0  0  0  0  0  0  0  0  # atno 10167 bound_to 10162
  156.0843  130.4211  150.1161 H   0  0  0  0  0  0  0  0  0  0  0  0  # atno 10718 bound_to 10713
  154.6324  135.2888  155.0201 H   0  0  0  0  0  0  0  0  0  0  0  0  # atno 10763 bound_to 10752
  154.1356  135.6526  153.4935 H   0  0  0  0  0  0  0  0  0  0  0  0  # atno 10764 bound_to 10752
  153.0286  135.5321  154.7157 H   0  0  0  0  0  0  0  0  0  0  0  0  # atno 10765 bound_to 10752
  141.1536  133.7781  156.9935 H   0  0  0  0  0  0  0  0  0  0  0  0  # atno 11005 bound_to 11000
  144.9555  140.8222  143.5545 LP  0  0  0  0  0  0  0  0  0  0  0  0  # atno 17320 bound_to 7965
  145.2279  139.2128  143.5058 LP  0  0  0  0  0  0  0  0  0  0  0  0  # atno 17321 bound_to 7965
  140.1861  144.4797  150.6503 LP  0  0  0  0  0  0  0  0  0  0  0  0  # atno 17342 bound_to 10162
  140.6629  143.2258  151.5814 LP  0  0  0  0  0  0  0  0  0  0  0  0  # atno 17343 bound_to 10162
  156.9185  130.9675  151.3552 LP  0  0  0  0  0  0  0  0  0  0  0  0  # atno 17370 bound_to 10713
  157.5972  130.8486  149.8747 LP  0  0  0  0  0  0  0  0  0  0  0  0  # atno 17371 bound_to 10713
  140.0987  134.9548  157.1890 LP  0  0  0  0  0  0  0  0  0  0  0  0  # atno 17394 bound_to 11000
  140.3347  134.2770  155.7222 LP  0  0  0  0  0  0  0  0  0  0  0  0  # atno 17395 bound_to 11000

$$$$
