AV-unprocessed.smi:2753|AV-procd|sdf|10612|dock2
  -GOLD-   2272015 63D 1   1.00000     0.00000
 Structure written by MMmdl.
 28 29  0  0  0  0  0  0  0  0  2 V2000
  151.5602  144.7415  157.9461 F   0  0  0  0  0  0  0  0  0  0  0  0
  151.1770  143.6710  158.6410 C   0  0  0  0  0  0  0  0  0  0  0  0
  152.0163  143.5364  159.6670 F   0  0  0  0  0  0  0  0  0  0  0  0
  149.9682  143.9266  159.1398 F   0  0  0  0  0  0  0  0  0  0  0  0
  151.1621  142.4425  157.7922 C   0  0  0  0  0  0  0  0  0  0  0  0
  151.8686  141.2638  157.8788 C   0  0  0  0  0  0  0  0  0  0  0  0
  151.4929  140.4099  156.8401 N   0  0  0  0  0  0  0  0  0  0  0  0
  150.5758  141.0885  156.1557 C   0  0  0  0  0  0  0  0  0  0  0  0
  149.8604  140.5941  154.9364 C   0  0  1  0  0  0  0  0  0  0  0  0
  149.3742  139.1414  155.1014 C   0  0  0  0  0  0  0  0  0  0  0  0
  148.6267  138.6758  153.8423 C   0  0  0  0  0  0  0  0  0  0  0  0
  147.4863  139.6451  153.4905 C   0  0  0  0  0  0  0  0  0  0  0  0
  148.0023  141.0220  153.3308 N   0  3  0  0  0  0  0  0  0  0  0  0
  148.6945  141.5231  154.5387 C   0  0  0  0  0  0  0  0  0  0  0  0
  150.3482  142.2982  156.6814 N   0  0  0  0  0  0  0  0  0  0  0  0
  149.6991  142.9884  156.3312 H   0  0  0  0  0  0  0  0  0  0  0  0
  152.6118  140.9648  158.6035 H   0  0  0  0  0  0  0  0  0  0  0  0
  150.5801  140.6051  154.1157 H   0  0  0  0  0  0  0  0  0  0  0  0
  150.2186  138.4799  155.2993 H   0  0  0  0  0  0  0  0  0  0  0  0
  148.7109  139.0661  155.9643 H   0  0  0  0  0  0  0  0  0  0  0  0
  149.3232  138.6086  153.0055 H   0  0  0  0  0  0  0  0  0  0  0  0
  148.2295  137.6718  153.9949 H   0  0  0  0  0  0  0  0  0  0  0  0
  146.9984  139.3373  152.5653 H   0  0  0  0  0  0  0  0  0  0  0  0
  146.7249  139.6350  154.2716 H   0  0  0  0  0  0  0  0  0  0  0  0
  148.6524  141.0340  152.5578 H   0  0  0  0  0  0  0  0  0  0  0  0
  147.9718  141.6015  155.3523 H   0  0  0  0  0  0  0  0  0  0  0  0
  149.0614  142.5307  154.3407 H   0  0  0  0  0  0  0  0  0  0  0  0
  147.2307  141.6379  153.1169 H   0  0  0  0  0  0  0  0  0  0  0  0
  1  2  1  0  0  0  0
  2  3  1  0  0  0  0
  2  4  1  0  0  0  0
  2  5  1  0  0  0  0
  5  6  2  0  0  0  0
  5 15  1  0  0  0  0
  6 17  1  0  0  0  0
  6  7  1  0  0  0  0
  7  8  2  0  0  0  0
  8 15  1  0  0  0  0
  8  9  1  0  0  0  0
  9 14  1  0  0  0  0
  9 10  1  0  0  0  0
  9 18  1  0  0  0  0
 10 11  1  0  0  0  0
 10 19  1  0  0  0  0
 10 20  1  0  0  0  0
 11 12  1  0  0  0  0
 11 21  1  0  0  0  0
 11 22  1  0  0  0  0
 12 13  1  0  0  0  0
 12 23  1  0  0  0  0
 12 24  1  0  0  0  0
 13 14  1  0  0  0  0
 13 25  1  0  0  0  0
 13 28  1  0  0  0  0
 14 26  1  0  0  0  0
 14 27  1  0  0  0  0
 15 16  1  0  0  0  0
M  CHG  1  13   1
M  END
> <s_m_source_file>
AV-unprocessed.smi

> <i_m_source_file_index>
2753

> <i_lp_mmshare_version>
43012

> <i_f3d_flags>
0

> <s_epik_input>
RkMoRikoRiljMVtjSF1bbkhdYyhuMSlbQ0BASF0yW0NIMl1bQ0gyXVtDSDJdW05IXVtDSDJdMg==

> <s_epik_cmdline>
J2VwaWtfcHl0aG9uJywgJy1waCcsICc3LjAnLCAnLXRuJywgJzgnLCAnLW1hJywgJzIwMCcsICctbWV0YWxfYmluZGluZycsICctaW1hZScsICc8aW5maWxlLm1hZT4nLCAnLW9tYWUnLCAnPG91dGZpbGUubWFlPic=

> <r_lp_tautomer_probability>
0.5

> <r_epik_Ionization_Penalty>
0.0187699

> <r_epik_Ionization_Penalty_Charging>
0.00116734

> <r_epik_Ionization_Penalty_Neutral>
0.0176026

> <r_epik_State_Penalty>
1.08926

> <r_epik_Charging_Adjusted_Penalty>
1.09042

> <i_epik_Tot_Q>
1

> <i_epik_Tot_abs_Q>
1

> <r_epik_Metal_State_Penalty>
1.1514

> <b_epik_Metal_Only>
0

> <s_lp_Force_Field>
OPLS_2005

> <r_lp_Energy>
13.0643

> <b_lp_Chiralities_Consistent>
1

> <s_lp_Variant>
AV-unprocessed.smi:2753-4

> <Gold.Version>
5.8.1

> <Gold.Id.Protein>
6NUR|6NUR_protein|mol2

> <Gold.PLP.Fitness>
36.7177

> <Gold.PLP.PLP>
-31.2732

> <Gold.PLP.part.hbond>
-2.0000

> <Gold.PLP.part.metal>
0.0000

> <Gold.PLP.part.buried>
-1.9317

> <Gold.PLP.part.nonpolar>
-27.5821

> <Gold.PLP.part.repulsive>
0.2430

> <Gold.PLP.ligand.clash>
0.0000

> <Gold.PLP.ligand.torsion>
0.2921

> <Gold.PLP.Chemscore.Hbond>
2.0000

> <Gold.PLP.Chemscore.CHOScore>
0.0000

> <Gold.PLP.Chemscore.Metal>
0.0000

> <Gold.Chemscore.Hbonds>
donor molecule, donor type, donor heavy atom, donor atom, acceptor molecule, acceptor atom, score
      L1  H    13    25       P1  7957  0.99
      L1  H    15    16       P1  8028  1.00

> <Gold.PLP.Chemscore.Internal.Correction>
0.0286

> <Gold.Rescore>
     Score         DG    S(hbond)    S(metal)    S(lipo)     H(rot)  DE(clash)    DE(int)     intcor
     15.53     -15.70       1.93        0.00      54.11       1.00       0.14       0.03       ----

> <Gold.Chemscore.Fitness>
15.5306

> <Gold.Chemscore.DG>
-15.7028

> <Gold.Chemscore.ZeroCoef>
-5.4800

> <Gold.Chemscore.Hbond>
1.9318

> <Gold.Chemscore.Metal>
0.0000

> <Gold.Chemscore.Lipo>
54.1065

> <Gold.Chemscore.Internal_Hbond>
0.0000

> <Gold.Chemscore.DEClash>
0.1376

> <Gold.Chemscore.DEInternal>
0.0345

> <Gold.Chemscore.Rot>
1.0000

> <Gold.Chemscore.Internal.Correction>
   9.000000E+99

> <Gold.Chemscore.Hbonds>
donor molecule, donor type, donor heavy atom, donor atom, acceptor molecule, acceptor atom, score
      L1  H    13    25       P1  7957  0.92
      L1  H    15    16       P1  8028  0.93

> <Gold.Chemscore.Hbond.Weighted>
-6.4523

> <Gold.Chemscore.Metal.Weighted>
-0.0000

> <Gold.Chemscore.Lipo.Weighted>
-6.3305

> <Gold.Chemscore.Internal_Hbond.Weighted>
0.0000

> <Gold.Chemscore.DEClash.Weighted>
0.1376

> <Gold.Chemscore.DEInternal.Weighted>
0.0345

> <Gold.Chemscore.Rot.Weighted>
2.5600

> <Gold.Chemscore.Internal.Correction.Weighted>
   9.000000E+99

> <Gold.Protein.RotatedTorsions>
[ 6907 6896 6895 6894 ] final  -71.00 input  -60.11 | X-H torsion
[ 7974 7965 7964 7962 ] final   66.26 input  175.53 | X-H torsion
[ 8008 7997 7996 7995 ] final   80.31 input   59.86 | X-H torsion
[ 10167 10162 10161 10158 ] final   65.30 input  -65.29 | X-H torsion
[ 10718 10713 10712 10709 ] final   98.26 input   66.30 | X-H torsion
[ 10763 10752 10751 10750 ] final   16.26 input  -60.55 | X-H torsion
[ 11005 11000 10999 10996 ] final -123.07 input  -57.11 | X-H torsion

> <Gold.Protein.ActiveResidues>
 VAL166  LYS551  ARG553  GLY616  TRP617  ASP618  TYR619  PRO620  LYS621  CYS622 
 ASP623  PHE694  ASN695  SER759  ASP760  ASP761  ALA762  ILE779  LEU786  VAL792 
 PHE793  MET794  SER795  GLU796  ALA797  LYS798  CYS799  TRP800  GLU811  SER814 

> <Gold.Protein.RotatedAtoms>
  150.7232  134.5372  159.5729 H   0  0  0  0  0  0  0  0  0  0  0  0  # atno 6907 bound_to 6896
  152.2891  134.7738  160.0390 H   0  0  0  0  0  0  0  0  0  0  0  0  # atno 6908 bound_to 6896
  151.8358  133.3380  159.3664 H   0  0  0  0  0  0  0  0  0  0  0  0  # atno 6909 bound_to 6896
  145.8287  139.3126  143.1000 H   0  0  0  0  0  0  0  0  0  0  0  0  # atno 7974 bound_to 7965
  155.8817  140.3443  155.5892 H   0  0  0  0  0  0  0  0  0  0  0  0  # atno 8008 bound_to 7997
  155.7713  140.0845  157.2126 H   0  0  0  0  0  0  0  0  0  0  0  0  # atno 8009 bound_to 7997
  154.4025  140.1518  156.2932 H   0  0  0  0  0  0  0  0  0  0  0  0  # atno 8010 bound_to 7997
  140.1128  144.4803  150.6967 H   0  0  0  0  0  0  0  0  0  0  0  0  # atno 10167 bound_to 10162
  157.6898  131.0635  150.4769 H   0  0  0  0  0  0  0  0  0  0  0  0  # atno 10718 bound_to 10713
  153.1448  135.6767  153.8972 H   0  0  0  0  0  0  0  0  0  0  0  0  # atno 10763 bound_to 10752
  153.8417  135.3104  155.3428 H   0  0  0  0  0  0  0  0  0  0  0  0  # atno 10764 bound_to 10752
  154.7816  135.4885  153.9942 H   0  0  0  0  0  0  0  0  0  0  0  0  # atno 10765 bound_to 10752
  140.9947  134.0489  157.3612 H   0  0  0  0  0  0  0  0  0  0  0  0  # atno 11005 bound_to 11000
  145.9595  140.8847  143.0218 LP  0  0  0  0  0  0  0  0  0  0  0  0  # atno 17320 bound_to 7965
  144.6741  140.1792  143.7407 LP  0  0  0  0  0  0  0  0  0  0  0  0  # atno 17321 bound_to 7965
  140.6916  143.2379  151.5115 LP  0  0  0  0  0  0  0  0  0  0  0  0  # atno 17342 bound_to 10162
  139.5610  144.2156  152.1691 LP  0  0  0  0  0  0  0  0  0  0  0  0  # atno 17343 bound_to 10162
  156.5104  130.4138  149.6304 LP  0  0  0  0  0  0  0  0  0  0  0  0  # atno 17370 bound_to 10713
  156.3246  130.7299  151.2217 LP  0  0  0  0  0  0  0  0  0  0  0  0  # atno 17371 bound_to 10713
  139.9009  135.0164  156.7262 LP  0  0  0  0  0  0  0  0  0  0  0  0  # atno 17394 bound_to 11000
  140.6985  133.9327  155.8009 LP  0  0  0  0  0  0  0  0  0  0  0  0  # atno 17395 bound_to 11000

$$$$
