AV-unprocessed.smi:1248|AV-procd|sdf|5251|dock8
  -GOLD-   22720 4363D 1   1.00000     0.00000
 Structure written by MMmdl.
 44 46  0  0  0  0  0  0  0  0  2 V2000
  150.9966  141.7582  157.2805 C   0  0  0  0  0  0  0  0  0  0  0  0
  150.9873  141.3011  155.8172 C   0  0  0  0  0  0  0  0  0  0  0  0
  150.0094  140.2554  155.5880 N   0  0  0  0  0  0  0  0  0  0  0  0
  149.7214  139.5987  154.4079 C   0  0  0  0  0  0  0  0  0  0  0  0
  148.7342  138.7093  154.7088 C   0  0  0  0  0  0  0  0  0  0  0  0
  148.1315  137.8244  153.7801 N   0  0  0  0  0  0  0  0  0  0  0  0
  146.8184  137.6360  153.5729 C   0  0  0  0  0  0  0  0  0  0  0  0
  145.9152  138.2020  154.1886 O   0  0  0  0  0  0  0  0  0  0  0  0
  146.6013  136.7439  152.5955 N   0  0  0  0  0  0  0  0  0  0  0  0
  145.2866  136.3187  152.1232 C   0  0  2  0  0  0  0  0  0  0  0  0
  144.7310  135.2202  153.0457 C   0  0  0  0  0  0  0  0  0  0  0  0
  143.3865  134.6772  152.5240 C   0  0  0  0  0  0  0  0  0  0  0  0
  143.4835  134.1955  151.1221 N   0  3  2  0  0  0  0  0  0  0  0  0
  144.1900  132.8990  150.9946 C   0  0  0  0  0  0  0  0  0  0  0  0
  144.7714  132.6568  149.6213 C   0  0  0  0  0  0  0  0  0  0  0  0
  143.5148  131.9324  150.0498 C   0  0  0  0  0  0  0  0  0  0  0  0
  144.0057  135.2429  150.2076 C   0  0  0  0  0  0  0  0  0  0  0  0
  145.3645  135.7958  150.6759 C   0  0  0  0  0  0  0  0  0  0  0  0
  148.4705  138.8769  156.0978 C   0  0  0  0  0  0  0  0  0  0  0  0
  149.2482  139.8137  156.6193 N   0  0  0  0  0  0  0  0  0  0  0  0
  151.7353  142.5444  157.4364 H   0  0  0  0  0  0  0  0  0  0  0  0
  151.2434  140.9325  157.9483 H   0  0  0  0  0  0  0  0  0  0  0  0
  150.0240  142.1519  157.5777 H   0  0  0  0  0  0  0  0  0  0  0  0
  150.7654  142.1418  155.1583 H   0  0  0  0  0  0  0  0  0  0  0  0
  151.9714  140.9268  155.5326 H   0  0  0  0  0  0  0  0  0  0  0  0
  150.2317  139.8180  153.4817 H   0  0  0  0  0  0  0  0  0  0  0  0
  148.7667  137.2892  153.2064 H   0  0  0  0  0  0  0  0  0  0  0  0
  147.4045  136.3278  152.1469 H   0  0  0  0  0  0  0  0  0  0  0  0
  144.6046  137.1707  152.1575 H   0  0  0  0  0  0  0  0  0  0  0  0
  145.4501  134.4045  153.1307 H   0  0  0  0  0  0  0  0  0  0  0  0
  144.5983  135.6137  154.0542 H   0  0  0  0  0  0  0  0  0  0  0  0
  143.0236  133.8757  153.1682 H   0  0  0  0  0  0  0  0  0  0  0  0
  142.6353  135.4672  152.5646 H   0  0  0  0  0  0  0  0  0  0  0  0
  144.7075  132.5314  151.8787 H   0  0  0  0  0  0  0  0  0  0  0  0
  144.6690  133.4391  148.8715 H   0  0  0  0  0  0  0  0  0  0  0  0
  145.6875  132.0725  149.5610 H   0  0  0  0  0  0  0  0  0  0  0  0
  143.6029  130.8705  150.2699 H   0  0  0  0  0  0  0  0  0  0  0  0
  142.5788  132.2343  149.5832 H   0  0  0  0  0  0  0  0  0  0  0  0
  144.0846  134.8480  149.1941 H   0  0  0  0  0  0  0  0  0  0  0  0
  143.2787  136.0547  150.1640 H   0  0  0  0  0  0  0  0  0  0  0  0
  145.6791  136.5950  150.0036 H   0  0  0  0  0  0  0  0  0  0  0  0
  146.1262  135.0189  150.6002 H   0  0  0  0  0  0  0  0  0  0  0  0
  147.7627  138.3706  156.7368 H   0  0  0  0  0  0  0  0  0  0  0  0
  142.5363  134.0114  150.8238 H   0  0  0  0  0  0  0  0  0  0  0  0
  1  2  1  0  0  0  0
  1 21  1  0  0  0  0
  1 22  1  0  0  0  0
  1 23  1  0  0  0  0
  2  3  1  0  0  0  0
  2 24  1  0  0  0  0
  2 25  1  0  0  0  0
  3 20  1  0  0  0  0
  3  4  1  0  0  0  0
  4  5  2  0  0  0  0
  4 26  1  0  0  0  0
  5  6  1  0  0  0  0
  5 19  1  0  0  0  0
  6  7  1  0  0  0  0
  6 27  1  0  0  0  0
  7  8  2  0  0  0  0
  7  9  1  0  0  0  0
  9 10  1  0  0  0  0
  9 28  1  0  0  0  0
 10 18  1  0  0  0  0
 10 11  1  0  0  0  0
 10 29  1  0  0  0  0
 11 12  1  0  0  0  0
 11 30  1  0  0  0  0
 11 31  1  0  0  0  0
 12 13  1  0  0  0  0
 12 32  1  0  0  0  0
 12 33  1  0  0  0  0
 13 14  1  0  0  0  0
 13 17  1  0  0  0  0
 13 44  1  0  0  0  0
 14 16  1  0  0  0  0
 14 15  1  0  0  0  0
 14 34  1  0  0  0  0
 15 16  1  0  0  0  0
 15 35  1  0  0  0  0
 15 36  1  0  0  0  0
 16 37  1  0  0  0  0
 16 38  1  0  0  0  0
 17 18  1  0  0  0  0
 17 39  1  0  0  0  0
 17 40  1  0  0  0  0
 18 41  1  0  0  0  0
 18 42  1  0  0  0  0
 19 20  2  0  0  0  0
 19 43  1  0  0  0  0
M  CHG  1  13   1
M  END
> <s_m_source_file>
AV-unprocessed.smi

> <i_m_source_file_index>
1248

> <i_lp_mmshare_version>
43012

> <i_f3d_flags>
0

> <s_epik_input>
W0NIM11bQ0gyXW4xW2NIXWMoW2NIXW4xKVtOSF1DKD1PKVtOSF1bQ0hdMltDSDJdW0NIMl1OKFtDSDJdW0NIMl0yKVtDSF0zW0NIMl1bQ0gyXTM=

> <s_epik_cmdline>
J2VwaWtfcHl0aG9uJywgJy1waCcsICc3LjAnLCAnLXRuJywgJzgnLCAnLW1hJywgJzIwMCcsICctbWV0YWxfYmluZGluZycsICctaW1hZScsICc8aW5maWxlLm1hZT4nLCAnLW9tYWUnLCAnPG91dGZpbGUubWFlPic=

> <r_lp_tautomer_probability>
1

> <r_epik_Ionization_Penalty>
0.115699

> <r_epik_Ionization_Penalty_Charging>
0.115549

> <r_epik_Ionization_Penalty_Neutral>
0.00014958

> <r_epik_State_Penalty>
0.105184

> <r_epik_Charging_Adjusted_Penalty>
0.220733

> <i_epik_Tot_Q>
1

> <i_epik_Tot_abs_Q>
1

> <r_epik_Metal_State_Penalty>
0.105189

> <b_epik_Metal_Only>
0

> <s_lp_Force_Field>
OPLS_2005

> <r_lp_Energy>
31.7182

> <b_lp_Chiralities_Consistent>
1

> <s_lp_Variant>
AV-unprocessed.smi:1248-2

> <Gold.Version>
5.8.1

> <Gold.Id.Protein>
6NUR|6NUR_protein|mol2

> <Gold.PLP.Fitness>
42.8221

> <Gold.PLP.PLP>
-30.0343

> <Gold.PLP.part.hbond>
-2.8949

> <Gold.PLP.part.metal>
0.0000

> <Gold.PLP.part.buried>
-1.1920

> <Gold.PLP.part.nonpolar>
-26.9121

> <Gold.PLP.part.repulsive>
0.1524

> <Gold.PLP.ligand.clash>
0.0000

> <Gold.PLP.ligand.torsion>
1.6327

> <Gold.PLP.Chemscore.Hbond>
3.9265

> <Gold.PLP.Chemscore.CHOScore>
1.0000

> <Gold.PLP.Chemscore.Metal>
0.0000

> <Gold.Chemscore.Hbonds>
donor molecule, donor type, donor heavy atom, donor atom, acceptor molecule, acceptor atom, score
      L1  H     6    27       P1  7948  0.96
      L1  H     9    28       P1  7948  1.00
      L1  H    13    44       P1 10186  1.95
      L1  C     4    26       P1  7957  1.00

> <Gold.PLP.Chemscore.Internal.Correction>
1.2738

> <Gold.Rescore>
     Score         DG    S(hbond)    S(metal)    S(lipo)     H(rot)  DE(clash)    DE(int)     intcor
     18.37     -19.99       2.64        0.00      78.00       1.34       0.12       1.50       ----

> <Gold.Chemscore.Fitness>
18.3685

> <Gold.Chemscore.DG>
-19.9878

> <Gold.Chemscore.ZeroCoef>
-5.4800

> <Gold.Chemscore.Hbond>
2.6412

> <Gold.Chemscore.Metal>
0.0000

> <Gold.Chemscore.Lipo>
78.0032

> <Gold.Chemscore.Internal_Hbond>
0.0000

> <Gold.Chemscore.DEClash>
0.1183

> <Gold.Chemscore.DEInternal>
1.5010

> <Gold.Chemscore.Rot>
1.3438

> <Gold.Chemscore.Internal.Correction>
   9.000000E+99

> <Gold.Chemscore.Hbonds>
donor molecule, donor type, donor heavy atom, donor atom, acceptor molecule, acceptor atom, score
      L1  H     6    27       P1  7948  0.92
      L1  H     9    28       P1  7948  0.94
      L1  H    13    44       P1 10186  0.53

> <Gold.Chemscore.Hbond.Weighted>
-8.8215

> <Gold.Chemscore.Metal.Weighted>
-0.0000

> <Gold.Chemscore.Lipo.Weighted>
-9.1264

> <Gold.Chemscore.Internal_Hbond.Weighted>
0.0000

> <Gold.Chemscore.DEClash.Weighted>
0.1183

> <Gold.Chemscore.DEInternal.Weighted>
1.5010

> <Gold.Chemscore.Rot.Weighted>
3.4401

> <Gold.Chemscore.Internal.Correction.Weighted>
   9.000000E+99

> <Gold.Protein.RotatedTorsions>
[ 6907 6896 6895 6894 ] final -167.40 input  -60.11 | X-H torsion
[ 7974 7965 7964 7962 ] final   76.35 input  175.53 | X-H torsion
[ 8008 7997 7996 7995 ] final  105.14 input   59.86 | X-H torsion
[ 10167 10162 10161 10158 ] final  126.09 input  -65.29 | X-H torsion
[ 10718 10713 10712 10709 ] final  138.33 input   66.30 | X-H torsion
[ 10763 10752 10751 10750 ] final   96.04 input  -60.55 | X-H torsion
[ 11005 11000 10999 10996 ] final -173.39 input  -57.11 | X-H torsion

> <Gold.Protein.ActiveResidues>
 VAL166  LYS551  ARG553  GLY616  TRP617  ASP618  TYR619  PRO620  LYS621  CYS622 
 ASP623  PHE694  ASN695  SER759  ASP760  ASP761  ALA762  ILE779  LEU786  VAL792 
 PHE793  MET794  SER795  GLU796  ALA797  LYS798  CYS799  TRP800  GLU811  SER814 

> <Gold.Protein.RotatedAtoms>
  151.4589  133.3598  159.2805 H   0  0  0  0  0  0  0  0  0  0  0  0  # atno 6907 bound_to 6896
  150.9039  134.8454  159.7390 H   0  0  0  0  0  0  0  0  0  0  0  0  # atno 6908 bound_to 6896
  152.4895  134.4512  159.9627 H   0  0  0  0  0  0  0  0  0  0  0  0  # atno 6909 bound_to 6896
  145.7039  139.2592  143.1689 H   0  0  0  0  0  0  0  0  0  0  0  0  # atno 7974 bound_to 7965
  156.1633  140.3135  155.8845 H   0  0  0  0  0  0  0  0  0  0  0  0  # atno 8008 bound_to 7997
  155.3737  140.0483  157.3062 H   0  0  0  0  0  0  0  0  0  0  0  0  # atno 8009 bound_to 7997
  154.5168  140.2184  155.9062 H   0  0  0  0  0  0  0  0  0  0  0  0  # atno 8010 bound_to 7997
  139.5650  144.6905  151.3936 H   0  0  0  0  0  0  0  0  0  0  0  0  # atno 10167 bound_to 10162
  157.4264  131.1044  151.0298 H   0  0  0  0  0  0  0  0  0  0  0  0  # atno 10718 bound_to 10713
  153.2602  135.4233  155.0886 H   0  0  0  0  0  0  0  0  0  0  0  0  # atno 10763 bound_to 10752
  154.8417  135.3447  154.6389 H   0  0  0  0  0  0  0  0  0  0  0  0  # atno 10764 bound_to 10752
  153.6809  135.7039  153.5175 H   0  0  0  0  0  0  0  0  0  0  0  0  # atno 10765 bound_to 10752
  140.4862  134.6028  157.4938 H   0  0  0  0  0  0  0  0  0  0  0  0  # atno 11005 bound_to 11000
  146.0773  140.7803  142.9659 LP  0  0  0  0  0  0  0  0  0  0  0  0  # atno 17320 bound_to 7965
  144.6961  140.3434  143.7195 LP  0  0  0  0  0  0  0  0  0  0  0  0  # atno 17321 bound_to 7965
  140.6933  143.7810  150.7288 LP  0  0  0  0  0  0  0  0  0  0  0  0  # atno 17342 bound_to 10162
  140.1299  143.4535  152.2261 LP  0  0  0  0  0  0  0  0  0  0  0  0  # atno 17343 bound_to 10162
  157.1210  130.6061  149.5505 LP  0  0  0  0  0  0  0  0  0  0  0  0  # atno 17370 bound_to 10713
  155.9898  130.4947  150.7229 LP  0  0  0  0  0  0  0  0  0  0  0  0  # atno 17371 bound_to 10713
  139.9796  134.7158  155.9884 LP  0  0  0  0  0  0  0  0  0  0  0  0  # atno 17394 bound_to 11000
  141.1506  133.6549  156.4003 LP  0  0  0  0  0  0  0  0  0  0  0  0  # atno 17395 bound_to 11000

$$$$
