AV-unprocessed.smi:189|AV-procd|sdf|1476|dock10
  -GOLD-   2262019293D 1   1.00000     0.00000
 Structure written by MMmdl.
 53 57  0  0  0  0  0  0  0  0  1 V2000
  152.1733  138.8173  154.9535 C   0  0  0  0  0  0  0  0  0  0  0  0
  151.6933  140.1771  155.4965 C   0  0  1  0  0  0  0  0  0  0  0  0
  150.2135  140.5013  155.2628 C   0  0  0  0  0  0  0  0  0  0  0  0
  149.9571  141.6601  156.2381 C   0  0  1  0  0  0  0  0  0  0  0  0
  148.6196  141.5843  156.9950 C   0  0  0  0  0  0  0  0  0  0  0  0
  148.4757  142.7215  158.0298 C   0  0  0  0  0  0  0  0  0  0  0  0
  149.7997  143.0974  158.7341 C   0  0  0  0  0  0  0  0  0  0  0  0
  150.8337  141.9649  158.6687 C   0  0  0  0  0  0  0  0  0  0  0  0
  151.1777  141.6503  157.1884 C   0  0  1  0  0  0  0  0  0  0  0  0
  151.9324  140.4210  156.9199 N   0  0  0  0  0  0  0  0  0  0  0  0
  151.7584  139.4042  157.8030 C   0  0  0  0  0  0  0  0  0  0  0  0
  152.7858  138.9525  158.5709 N   0  0  0  0  0  0  0  0  0  0  0  0
  152.5999  137.9222  159.4013 C   0  0  0  0  0  0  0  0  0  0  0  0
  151.4937  137.2035  159.6045 N   0  0  0  0  0  0  0  0  0  0  0  0
  150.4664  137.6433  158.8222 C   0  0  0  0  0  0  0  0  0  0  0  0
  150.5126  138.7323  157.9082 C   0  0  0  0  0  0  0  0  0  0  0  0
  149.2790  138.8918  157.2907 N   0  0  0  0  0  0  0  0  0  0  0  0
  148.5429  137.9476  157.8100 C   0  0  0  0  0  0  0  0  0  0  0  0
  149.1803  137.1408  158.7264 N   0  0  0  0  0  0  0  0  0  0  0  0
  148.6034  136.0136  159.4418 C   0  0  0  0  0  0  0  0  0  0  0  0
  147.3364  136.3716  160.2613 C   0  0  1  0  0  0  0  0  0  0  0  0
  147.6578  137.3432  161.2385 O   0  0  0  0  0  0  0  0  0  0  0  0
  146.2136  136.8946  159.3803 C   0  0  0  0  0  0  0  0  0  0  0  0
  145.5265  135.6144  158.9104 C   0  0  0  0  0  0  0  0  0  0  0  0
  145.7465  134.6512  159.9366 O   0  0  0  0  0  0  0  0  0  0  0  0
  146.6420  135.1691  160.9155 C   0  0  0  0  0  0  0  0  0  0  0  0
  152.0631  138.7796  153.8698 H   0  0  0  0  0  0  0  0  0  0  0  0
  151.6086  137.9799  155.3616 H   0  0  0  0  0  0  0  0  0  0  0  0
  153.2272  138.6558  155.1815 H   0  0  0  0  0  0  0  0  0  0  0  0
  152.2786  140.9360  154.9743 H   0  0  0  0  0  0  0  0  0  0  0  0
  150.0080  140.7743  154.2274 H   0  0  0  0  0  0  0  0  0  0  0  0
  149.5874  139.6421  155.5056 H   0  0  0  0  0  0  0  0  0  0  0  0
  149.9764  142.5970  155.6790 H   0  0  0  0  0  0  0  0  0  0  0  0
  147.7826  141.6061  156.2966 H   0  0  0  0  0  0  0  0  0  0  0  0
  148.5569  140.6258  157.5118 H   0  0  0  0  0  0  0  0  0  0  0  0
  148.0711  143.6111  157.5459 H   0  0  0  0  0  0  0  0  0  0  0  0
  147.7350  142.4234  158.7728 H   0  0  0  0  0  0  0  0  0  0  0  0
  150.2222  143.9833  158.2582 H   0  0  0  0  0  0  0  0  0  0  0  0
  149.6043  143.3750  159.7703 H   0  0  0  0  0  0  0  0  0  0  0  0
  151.7382  142.2368  159.2137 H   0  0  0  0  0  0  0  0  0  0  0  0
  150.4091  141.1026  159.1837 H   0  0  0  0  0  0  0  0  0  0  0  0
  151.8351  142.4556  156.8565 H   0  0  0  0  0  0  0  0  0  0  0  0
  153.4624  137.6282  159.9807 H   0  0  0  0  0  0  0  0  0  0  0  0
  147.5097  137.8051  157.5278 H   0  0  0  0  0  0  0  0  0  0  0  0
  148.3728  135.2324  158.7162 H   0  0  0  0  0  0  0  0  0  0  0  0
  149.3747  135.6022  160.0938 H   0  0  0  0  0  0  0  0  0  0  0  0
  147.2086  137.1240  162.0404 H   0  0  0  0  0  0  0  0  0  0  0  0
  145.5068  137.4803  159.9706 H   0  0  0  0  0  0  0  0  0  0  0  0
  146.5588  137.5219  158.5575 H   0  0  0  0  0  0  0  0  0  0  0  0
  144.4620  135.7609  158.7261 H   0  0  0  0  0  0  0  0  0  0  0  0
  145.9803  135.2500  157.9884 H   0  0  0  0  0  0  0  0  0  0  0  0
  147.3235  134.4040  161.2841 H   0  0  0  0  0  0  0  0  0  0  0  0
  146.0376  135.4945  161.7639 H   0  0  0  0  0  0  0  0  0  0  0  0
  1  2  1  0  0  0  0
  1 27  1  0  0  0  0
  1 28  1  0  0  0  0
  1 29  1  0  0  0  0
  2 10  1  0  0  0  0
  2  3  1  0  0  0  0
  2 30  1  0  0  0  0
  3  4  1  0  0  0  0
  3 31  1  0  0  0  0
  3 32  1  0  0  0  0
  4  9  1  0  0  0  0
  4  5  1  0  0  0  0
  4 33  1  0  0  0  0
  5  6  1  0  0  0  0
  5 34  1  0  0  0  0
  5 35  1  0  0  0  0
  6  7  1  0  0  0  0
  6 36  1  0  0  0  0
  6 37  1  0  0  0  0
  7  8  1  0  0  0  0
  7 38  1  0  0  0  0
  7 39  1  0  0  0  0
  8  9  1  0  0  0  0
  8 40  1  0  0  0  0
  8 41  1  0  0  0  0
  9 10  1  0  0  0  0
  9 42  1  0  0  0  0
 10 11  1  0  0  0  0
 11 16  1  0  0  0  0
 11 12  2  0  0  0  0
 12 13  1  0  0  0  0
 13 14  2  0  0  0  0
 13 43  1  0  0  0  0
 14 15  1  0  0  0  0
 15 19  1  0  0  0  0
 15 16  2  0  0  0  0
 16 17  1  0  0  0  0
 17 18  2  0  0  0  0
 18 19  1  0  0  0  0
 18 44  1  0  0  0  0
 19 20  1  0  0  0  0
 20 21  1  0  0  0  0
 20 45  1  0  0  0  0
 20 46  1  0  0  0  0
 21 26  1  0  0  0  0
 21 22  1  0  0  0  0
 21 23  1  0  0  0  0
 22 47  1  0  0  0  0
 23 24  1  0  0  0  0
 23 48  1  0  0  0  0
 23 49  1  0  0  0  0
 24 25  1  0  0  0  0
 24 50  1  0  0  0  0
 24 51  1  0  0  0  0
 25 26  1  0  0  0  0
 26 52  1  0  0  0  0
 26 53  1  0  0  0  0
M  END
> <s_m_source_file>
AV-unprocessed.smi

> <i_m_source_file_index>
189

> <i_lp_mmshare_version>
43012

> <i_f3d_flags>
0

> <s_epik_input>
W0NIMl0xW0NIMl1bQ0gyXVtDSDJdW0NASF0oW0NASF0xMilOKFtDQEhdKFtDSDNdKVtDSDJdMiljKG5bY0hdbjMpYyhjMzQpbltjSF1uNFtDSDJdW0NAQF01KFtPSF0pW0NIMl1bQ0gyXU9bQ0gyXTU=

> <s_epik_cmdline>
J2VwaWtfcHl0aG9uJywgJy1waCcsICc3LjAnLCAnLXRuJywgJzgnLCAnLW1hJywgJzIwMCcsICctbWV0YWxfYmluZGluZycsICctaW1hZScsICc8aW5maWxlLm1hZT4nLCAnLW9tYWUnLCAnPG91dGZpbGUubWFlPic=

> <r_lp_tautomer_probability>
1

> <r_epik_Ionization_Penalty>
0.00594261

> <r_epik_Ionization_Penalty_Charging>
0

> <r_epik_Ionization_Penalty_Neutral>
0.00594261

> <r_epik_State_Penalty>
0.00429776

> <r_epik_Charging_Adjusted_Penalty>
0.00429776

> <i_epik_Tot_Q>
0

> <i_epik_Tot_abs_Q>
0

> <r_epik_Metal_State_Penalty>
-0

> <b_epik_Metal_Only>
0

> <s_lp_Force_Field>
OPLS_2005

> <r_lp_Energy>
67.8884

> <b_lp_Chiralities_Consistent>
1

> <s_lp_Variant>
AV-unprocessed.smi:189-2

> <Gold.Version>
5.8.1

> <Gold.Id.Protein>
6NUR|6NUR_protein|mol2

> <Gold.PLP.Fitness>
43.7549

> <Gold.PLP.PLP>
-34.0945

> <Gold.PLP.part.hbond>
-3.6954

> <Gold.PLP.part.metal>
0.0000

> <Gold.PLP.part.buried>
-2.7601

> <Gold.PLP.part.nonpolar>
-27.4535

> <Gold.PLP.part.repulsive>
0.0000

> <Gold.PLP.ligand.clash>
0.0000

> <Gold.PLP.ligand.torsion>
0.0567

> <Gold.PLP.Chemscore.Hbond>
3.2413

> <Gold.PLP.Chemscore.CHOScore>
0.0000

> <Gold.PLP.Chemscore.Metal>
0.0000

> <Gold.Chemscore.Hbonds>
donor molecule, donor type, donor heavy atom, donor atom, acceptor molecule, acceptor atom, score
      P1  H  6896  6907       L1    14  0.84
      P1  H  6931  6943       L1    22  0.86
      P1  H  6934  6947       L1    22  0.83

> <Gold.PLP.Chemscore.Internal.Correction>
0.0500

> <Gold.Rescore>
     Score         DG    S(hbond)    S(metal)    S(lipo)     H(rot)  DE(clash)    DE(int)     intcor
     10.87     -15.82       2.12        0.00      72.20       2.03       0.01       4.93       ----

> <Gold.Chemscore.Fitness>
10.8729

> <Gold.Chemscore.DG>
-15.8167

> <Gold.Chemscore.ZeroCoef>
-5.4800

> <Gold.Chemscore.Hbond>
2.1212

> <Gold.Chemscore.Metal>
0.0000

> <Gold.Chemscore.Lipo>
72.2046

> <Gold.Chemscore.Internal_Hbond>
0.0000

> <Gold.Chemscore.DEClash>
0.0111

> <Gold.Chemscore.DEInternal>
4.9328

> <Gold.Chemscore.Rot>
2.0297

> <Gold.Chemscore.Internal.Correction>
   9.000000E+99

> <Gold.Chemscore.Hbonds>
donor molecule, donor type, donor heavy atom, donor atom, acceptor molecule, acceptor atom, score
      P1  H  6896  6907       L1    14  0.76
      P1  H  6931  6943       L1    22  0.22
      P1  H  6934  6947       L1    22  0.36

> <Gold.Chemscore.Hbond.Weighted>
-7.0848

> <Gold.Chemscore.Metal.Weighted>
-0.0000

> <Gold.Chemscore.Lipo.Weighted>
-8.4479

> <Gold.Chemscore.Internal_Hbond.Weighted>
0.0000

> <Gold.Chemscore.DEClash.Weighted>
0.0111

> <Gold.Chemscore.DEInternal.Weighted>
4.9328

> <Gold.Chemscore.Rot.Weighted>
5.1960

> <Gold.Chemscore.Internal.Correction.Weighted>
   9.000000E+99

> <Gold.Protein.RotatedTorsions>
[ 6907 6896 6895 6894 ] final    8.35 input  -60.11 | X-H torsion
[ 7974 7965 7964 7962 ] final  113.51 input  175.53 | X-H torsion
[ 8008 7997 7996 7995 ] final   61.71 input   59.86 | X-H torsion
[ 10167 10162 10161 10158 ] final  -89.02 input  -65.29 | X-H torsion
[ 10718 10713 10712 10709 ] final   28.47 input   66.30 | X-H torsion
[ 10763 10752 10751 10750 ] final  -54.83 input  -60.55 | X-H torsion
[ 11005 11000 10999 10996 ] final   46.27 input  -57.11 | X-H torsion

> <Gold.Protein.ActiveResidues>
 VAL166  LYS551  ARG553  GLY616  TRP617  ASP618  TYR619  PRO620  LYS621  CYS622 
 ASP623  PHE694  ASN695  SER759  ASP760  ASP761  ALA762  ILE779  LEU786  VAL792 
 PHE793  MET794  SER795  GLU796  ALA797  LYS798  CYS799  TRP800  GLU811  SER814 

> <Gold.Protein.RotatedAtoms>
  151.7046  135.0924  160.0256 H   0  0  0  0  0  0  0  0  0  0  0  0  # atno 6907 bound_to 6896
  152.3699  133.6401  159.6088 H   0  0  0  0  0  0  0  0  0  0  0  0  # atno 6908 bound_to 6896
  150.7666  133.9203  159.3437 H   0  0  0  0  0  0  0  0  0  0  0  0  # atno 6909 bound_to 6896
  145.2161  139.2884  143.4243 H   0  0  0  0  0  0  0  0  0  0  0  0  # atno 7974 bound_to 7965
  155.6027  140.3494  155.4598 H   0  0  0  0  0  0  0  0  0  0  0  0  # atno 8008 bound_to 7997
  156.0216  140.1255  157.0376 H   0  0  0  0  0  0  0  0  0  0  0  0  # atno 8009 bound_to 7997
  154.4317  140.1061  156.5957 H   0  0  0  0  0  0  0  0  0  0  0  0  # atno 8010 bound_to 7997
  140.3689  143.2804  151.9524 H   0  0  0  0  0  0  0  0  0  0  0  0  # atno 10167 bound_to 10162
  157.2339  130.7037  149.6326 H   0  0  0  0  0  0  0  0  0  0  0  0  # atno 10718 bound_to 10713
  154.1811  135.6443  153.5034 H   0  0  0  0  0  0  0  0  0  0  0  0  # atno 10763 bound_to 10752
  153.0059  135.5406  154.6514 H   0  0  0  0  0  0  0  0  0  0  0  0  # atno 10764 bound_to 10752
  154.5878  135.2931  155.0639 H   0  0  0  0  0  0  0  0  0  0  0  0  # atno 10765 bound_to 10752
  140.1384  134.4615  155.8468 H   0  0  0  0  0  0  0  0  0  0  0  0  # atno 11005 bound_to 11000
  146.3387  140.2452  142.8597 LP  0  0  0  0  0  0  0  0  0  0  0  0  # atno 17320 bound_to 7965
  144.9810  140.8459  143.5397 LP  0  0  0  0  0  0  0  0  0  0  0  0  # atno 17321 bound_to 7965
  139.4806  144.5925  151.7747 LP  0  0  0  0  0  0  0  0  0  0  0  0  # atno 17342 bound_to 10162
  140.5053  144.1107  150.5981 LP  0  0  0  0  0  0  0  0  0  0  0  0  # atno 17343 bound_to 10162
  155.9674  130.4480  150.5602 LP  0  0  0  0  0  0  0  0  0  0  0  0  # atno 17370 bound_to 10713
  157.3450  131.0723  151.1759 LP  0  0  0  0  0  0  0  0  0  0  0  0  # atno 17371 bound_to 10713
  141.2182  133.6823  156.7200 LP  0  0  0  0  0  0  0  0  0  0  0  0  # atno 17394 bound_to 11000
  140.2753  134.8359  157.3885 LP  0  0  0  0  0  0  0  0  0  0  0  0  # atno 17395 bound_to 11000

$$$$
