AV-unprocessed.smi:2565|AV-procd|sdf|10068|dock5
  -GOLD-   2272014103D 1   1.00000     0.00000
 Structure written by MMmdl.
 25 26  0  0  0  0  0  0  0  0  2 V2000
  153.2141  142.4667  160.8112 C   0  0  0  0  0  0  0  0  0  0  0  0
  153.0678  141.5460  159.7015 N   0  0  0  0  0  0  0  0  0  0  0  0
  153.7303  140.4024  159.4713 C   0  0  0  0  0  0  0  0  0  0  0  0
  153.3704  139.7562  158.3633 N   0  0  0  0  0  0  0  0  0  0  0  0
  152.3797  140.5415  157.8095 N   0  0  0  0  0  0  0  0  0  0  0  0
  152.2443  141.5892  158.6336 C   0  0  0  0  0  0  0  0  0  0  0  0
  151.2481  142.6922  158.4260 C   0  0  2  0  0  0  0  0  0  0  0  0
  151.9212  144.0166  158.0168 C   0  0  0  0  0  0  0  0  0  0  0  0
  150.9120  145.0896  157.9236 N   0  3  0  0  0  0  0  0  0  0  0  0
  150.1427  145.2179  159.1772 C   0  0  0  0  0  0  0  0  0  0  0  0
  149.5302  143.8603  159.5645 C   0  0  0  0  0  0  0  0  0  0  0  0
  150.5572  142.8783  159.6596 O   0  0  0  0  0  0  0  0  0  0  0  0
  153.8923  142.0502  161.5567 H   0  0  0  0  0  0  0  0  0  0  0  0
  152.2439  142.6430  161.2765 H   0  0  0  0  0  0  0  0  0  0  0  0
  153.6202  143.4128  160.4532 H   0  0  0  0  0  0  0  0  0  0  0  0
  154.4954  140.0273  160.1354 H   0  0  0  0  0  0  0  0  0  0  0  0
  150.5283  142.3845  157.6655 H   0  0  0  0  0  0  0  0  0  0  0  0
  152.6771  144.3025  158.7498 H   0  0  0  0  0  0  0  0  0  0  0  0
  152.4271  143.9124  157.0565 H   0  0  0  0  0  0  0  0  0  0  0  0
  151.3711  145.9663  157.7203 H   0  0  0  0  0  0  0  0  0  0  0  0
  150.8039  145.5729  159.9690 H   0  0  0  0  0  0  0  0  0  0  0  0
  149.3626  145.9685  159.0483 H   0  0  0  0  0  0  0  0  0  0  0  0
  149.0243  143.9373  160.5270 H   0  0  0  0  0  0  0  0  0  0  0  0
  148.7808  143.5485  158.8353 H   0  0  0  0  0  0  0  0  0  0  0  0
  150.2730  144.8706  157.1727 H   0  0  0  0  0  0  0  0  0  0  0  0
  1  2  1  0  0  0  0
  1 13  1  0  0  0  0
  1 14  1  0  0  0  0
  1 15  1  0  0  0  0
  2  6  1  0  0  0  0
  2  3  1  0  0  0  0
  3  4  2  0  0  0  0
  3 16  1  0  0  0  0
  4  5  1  0  0  0  0
  5  6  2  0  0  0  0
  6  7  1  0  0  0  0
  7 12  1  0  0  0  0
  7  8  1  0  0  0  0
  7 17  1  0  0  0  0
  8  9  1  0  0  0  0
  8 18  1  0  0  0  0
  8 19  1  0  0  0  0
  9 10  1  0  0  0  0
  9 20  1  0  0  0  0
  9 25  1  0  0  0  0
 10 11  1  0  0  0  0
 10 21  1  0  0  0  0
 10 22  1  0  0  0  0
 11 12  1  0  0  0  0
 11 23  1  0  0  0  0
 11 24  1  0  0  0  0
M  CHG  1   9   1
M  END
> <s_m_source_file>
AV-unprocessed.smi

> <i_m_source_file_index>
2565

> <i_lp_mmshare_version>
43012

> <i_f3d_flags>
0

> <s_epik_input>
W0NIM11uMVtjSF1ubmMxW0NAQEhdMltDSDJdW05IXVtDSDJdW0NIMl1PMg==

> <s_epik_cmdline>
J2VwaWtfcHl0aG9uJywgJy1waCcsICc3LjAnLCAnLXRuJywgJzgnLCAnLW1hJywgJzIwMCcsICctbWV0YWxfYmluZGluZycsICctaW1hZScsICc8aW5maWxlLm1hZT4nLCAnLW9tYWUnLCAnPG91dGZpbGUubWFlPic=

> <r_lp_tautomer_probability>
1

> <r_epik_Ionization_Penalty>
0.12571

> <r_epik_Ionization_Penalty_Charging>
0.125708

> <r_epik_Ionization_Penalty_Neutral>
1.64918e-06

> <r_epik_State_Penalty>
0.115169

> <r_epik_Charging_Adjusted_Penalty>
0.240877

> <i_epik_Tot_Q>
1

> <i_epik_Tot_abs_Q>
1

> <r_epik_Metal_State_Penalty>
0.115216

> <b_epik_Metal_Only>
0

> <s_lp_Force_Field>
OPLS_2005

> <r_lp_Energy>
13.9295

> <b_lp_Chiralities_Consistent>
1

> <s_lp_Variant>
AV-unprocessed.smi:2565-1

> <Gold.Version>
5.8.1

> <Gold.Id.Protein>
6NUR|6NUR_protein|mol2

> <Gold.PLP.Fitness>
30.1140

> <Gold.PLP.PLP>
-21.6064

> <Gold.PLP.part.hbond>
-3.7193

> <Gold.PLP.part.metal>
0.0000

> <Gold.PLP.part.buried>
0.6454

> <Gold.PLP.part.nonpolar>
-18.3912

> <Gold.PLP.part.repulsive>
0.2038

> <Gold.PLP.ligand.clash>
0.0000

> <Gold.PLP.ligand.torsion>
0.2481

> <Gold.PLP.Chemscore.Hbond>
3.0000

> <Gold.PLP.Chemscore.CHOScore>
0.0000

> <Gold.PLP.Chemscore.Metal>
0.0000

> <Gold.Chemscore.Hbonds>
donor molecule, donor type, donor heavy atom, donor atom, acceptor molecule, acceptor atom, score
      L1  H     9    25       P1  8028  2.00
      P1  H  7997  8008       L1     4  1.00

> <Gold.PLP.Chemscore.Internal.Correction>
0.0039

> <Gold.Rescore>
     Score         DG    S(hbond)    S(metal)    S(lipo)     H(rot)  DE(clash)    DE(int)     intcor
     10.28     -11.47       0.91        0.00      46.97       1.00       0.58       0.60       ----

> <Gold.Chemscore.Fitness>
10.2821

> <Gold.Chemscore.DG>
-11.4670

> <Gold.Chemscore.ZeroCoef>
-5.4800

> <Gold.Chemscore.Hbond>
0.9138

> <Gold.Chemscore.Metal>
0.0000

> <Gold.Chemscore.Lipo>
46.9659

> <Gold.Chemscore.Internal_Hbond>
0.0000

> <Gold.Chemscore.DEClash>
0.5809

> <Gold.Chemscore.DEInternal>
0.6040

> <Gold.Chemscore.Rot>
1.0000

> <Gold.Chemscore.Internal.Correction>
   9.000000E+99

> <Gold.Chemscore.Hbonds>
donor molecule, donor type, donor heavy atom, donor atom, acceptor molecule, acceptor atom, score
      L1  H     9    25       P1  8028  0.24
      P1  H  7997  8008       L1     4  0.15

> <Gold.Chemscore.Hbond.Weighted>
-3.0520

> <Gold.Chemscore.Metal.Weighted>
-0.0000

> <Gold.Chemscore.Lipo.Weighted>
-5.4950

> <Gold.Chemscore.Internal_Hbond.Weighted>
0.0000

> <Gold.Chemscore.DEClash.Weighted>
0.5809

> <Gold.Chemscore.DEInternal.Weighted>
0.6040

> <Gold.Chemscore.Rot.Weighted>
2.5600

> <Gold.Chemscore.Internal.Correction.Weighted>
   9.000000E+99

> <Gold.Protein.RotatedTorsions>
[ 6907 6896 6895 6894 ] final  -55.50 input  -60.11 | X-H torsion
[ 7974 7965 7964 7962 ] final -129.14 input  175.53 | X-H torsion
[ 8008 7997 7996 7995 ] final  -98.71 input   59.86 | X-H torsion
[ 10167 10162 10161 10158 ] final  -70.30 input  -65.29 | X-H torsion
[ 10718 10713 10712 10709 ] final   86.41 input   66.30 | X-H torsion
[ 10763 10752 10751 10750 ] final  153.64 input  -60.55 | X-H torsion
[ 11005 11000 10999 10996 ] final   84.04 input  -57.11 | X-H torsion

> <Gold.Protein.ActiveResidues>
 VAL166  LYS551  ARG553  GLY616  TRP617  ASP618  TYR619  PRO620  LYS621  CYS622 
 ASP623  PHE694  ASN695  SER759  ASP760  ASP761  ALA762  ILE779  LEU786  VAL792 
 PHE793  MET794  SER795  GLU796  ALA797  LYS798  CYS799  TRP800  GLU811  SER814 

> <Gold.Protein.RotatedAtoms>
  150.8246  134.7471  159.6801 H   0  0  0  0  0  0  0  0  0  0  0  0  # atno 6907 bound_to 6896
  152.4358  134.5685  159.9924 H   0  0  0  0  0  0  0  0  0  0  0  0  # atno 6908 bound_to 6896
  151.5860  133.3334  159.3054 H   0  0  0  0  0  0  0  0  0  0  0  0  # atno 6909 bound_to 6896
  144.9601  140.7437  143.4734 H   0  0  0  0  0  0  0  0  0  0  0  0  # atno 7974 bound_to 7965
  154.8048  140.0453  157.1300 H   0  0  0  0  0  0  0  0  0  0  0  0  # atno 8008 bound_to 7997
  154.9436  140.3056  155.5089 H   0  0  0  0  0  0  0  0  0  0  0  0  # atno 8009 bound_to 7997
  156.2965  140.2301  156.4508 H   0  0  0  0  0  0  0  0  0  0  0  0  # atno 8010 bound_to 7997
  140.5363  143.2318  151.7171 H   0  0  0  0  0  0  0  0  0  0  0  0  # atno 10167 bound_to 10162
  157.6928  131.0214  150.2968 H   0  0  0  0  0  0  0  0  0  0  0  0  # atno 10718 bound_to 10713
  154.1395  135.2821  155.3164 H   0  0  0  0  0  0  0  0  0  0  0  0  # atno 10763 bound_to 10752
  154.6297  135.5439  153.7670 H   0  0  0  0  0  0  0  0  0  0  0  0  # atno 10764 bound_to 10752
  153.0255  135.6459  154.1542 H   0  0  0  0  0  0  0  0  0  0  0  0  # atno 10765 bound_to 10752
  139.9012  134.8188  156.2390 H   0  0  0  0  0  0  0  0  0  0  0  0  # atno 11005 bound_to 11000
  145.2713  139.1953  143.4840 LP  0  0  0  0  0  0  0  0  0  0  0  0  # atno 17320 bound_to 7965
  146.3350  140.2660  142.8604 LP  0  0  0  0  0  0  0  0  0  0  0  0  # atno 17321 bound_to 7965
  139.4972  144.4037  152.0154 LP  0  0  0  0  0  0  0  0  0  0  0  0  # atno 17342 bound_to 10162
  140.3143  144.3502  150.6025 LP  0  0  0  0  0  0  0  0  0  0  0  0  # atno 17343 bound_to 10162
  156.3490  130.3828  149.7345 LP  0  0  0  0  0  0  0  0  0  0  0  0  # atno 17370 bound_to 10713
  156.4829  130.8049  151.3063 LP  0  0  0  0  0  0  0  0  0  0  0  0  # atno 17371 bound_to 10713
  141.0297  133.6995  156.1408 LP  0  0  0  0  0  0  0  0  0  0  0  0  # atno 17394 bound_to 11000
  140.7115  134.4457  157.5581 LP  0  0  0  0  0  0  0  0  0  0  0  0  # atno 17395 bound_to 11000

$$$$
