AV-unprocessed.smi:283|AV-procd|sdf|2146|dock5
  -GOLD-   2262021483D 1   1.00000     0.00000
 Structure written by MMmdl.
 48 51  0  0  0  0  0  0  0  0  1 V2000
  150.2932  141.6048  156.3568 C   0  0  0  0  0  0  0  0  0  0  0  0
  150.9222  141.2851  157.7195 C   0  0  1  0  0  0  0  0  0  0  0  0
  151.9995  140.3127  157.5482 N   0  0  0  0  0  0  0  0  0  0  0  0
  151.9347  139.3523  156.5994 C   0  0  0  0  0  0  0  0  0  0  0  0
  152.6512  139.5941  155.4759 N   0  0  0  0  0  0  0  0  0  0  0  0
  152.6709  138.6976  154.4860 C   0  0  0  0  0  0  0  0  0  0  0  0
  152.0533  137.5176  154.4176 N   0  0  0  0  0  0  0  0  0  0  0  0
  151.3164  137.2716  155.5395 C   0  0  0  0  0  0  0  0  0  0  0  0
  151.1975  138.1328  156.6680 C   0  0  0  0  0  0  0  0  0  0  0  0
  150.3482  137.5481  157.6009 N   0  0  0  0  0  0  0  0  0  0  0  0
  150.0072  136.4087  157.0642 C   0  0  0  0  0  0  0  0  0  0  0  0
  150.5440  136.1628  155.8216 N   0  0  0  0  0  0  0  0  0  0  0  0
  150.3508  134.9524  154.9617 C   0  0  2  0  0  0  0  0  0  0  0  0
  148.9815  134.8066  154.7391 O   0  0  0  0  0  0  0  0  0  0  0  0
  148.6368  133.4283  154.7434 C   0  0  1  0  0  0  0  0  0  0  0  0
  148.7948  132.8969  153.3010 C   0  0  0  0  0  0  0  0  0  0  0  0
  148.6027  131.4989  153.2517 O   0  0  0  0  0  0  0  0  0  0  0  0
  149.5902  132.8415  155.7973 C   0  0  1  0  0  0  0  0  0  0  0  0
  149.8128  131.4548  155.6267 O   0  0  0  0  0  0  0  0  0  0  0  0
  150.8702  133.6475  155.6105 C   0  0  2  0  0  0  0  0  0  0  0  0
  151.5430  133.8267  156.8446 O   0  0  0  0  0  0  0  0  0  0  0  0
  151.3309  142.5779  158.4322 C   0  0  0  0  0  0  0  0  0  0  0  0
  150.6856  143.7955  158.1122 C   0  0  0  0  0  0  0  0  0  0  0  0
  151.0496  144.9930  158.7558 C   0  0  0  0  0  0  0  0  0  0  0  0
  152.0586  144.9854  159.7353 C   0  0  0  0  0  0  0  0  0  0  0  0
  152.6976  143.7783  160.0727 C   0  0  0  0  0  0  0  0  0  0  0  0
  152.3370  142.5762  159.4315 C   0  0  0  0  0  0  0  0  0  0  0  0
  153.1459  141.1210  159.8983 Cl  0  0  0  0  0  0  0  0  0  0  0  0
  150.8636  135.1907  154.0289 H   0  0  0  0  0  0  0  0  0  0  0  0
  147.5966  133.3296  155.0563 H   0  0  0  0  0  0  0  0  0  0  0  0
  149.1737  133.0214  156.7897 H   0  0  0  0  0  0  0  0  0  0  0  0
  151.5379  133.1644  154.8955 H   0  0  0  0  0  0  0  0  0  0  0  0
  149.4267  142.2571  156.4682 H   0  0  0  0  0  0  0  0  0  0  0  0
  149.9568  140.6964  155.8559 H   0  0  0  0  0  0  0  0  0  0  0  0
  151.0038  142.1057  155.6983 H   0  0  0  0  0  0  0  0  0  0  0  0
  150.1557  140.7829  158.3072 H   0  0  0  0  0  0  0  0  0  0  0  0
  152.6290  140.2403  158.3341 H   0  0  0  0  0  0  0  0  0  0  0  0
  153.2693  138.9620  153.6266 H   0  0  0  0  0  0  0  0  0  0  0  0
  149.3487  135.7139  157.5645 H   0  0  0  0  0  0  0  0  0  0  0  0
  148.0381  133.3492  152.6592 H   0  0  0  0  0  0  0  0  0  0  0  0
  149.7658  133.1541  152.8772 H   0  0  0  0  0  0  0  0  0  0  0  0
  148.7337  131.2102  152.3611 H   0  0  0  0  0  0  0  0  0  0  0  0
  150.7385  131.3144  155.4983 H   0  0  0  0  0  0  0  0  0  0  0  0
  152.3662  134.2592  156.6776 H   0  0  0  0  0  0  0  0  0  0  0  0
  149.9053  143.8199  157.3659 H   0  0  0  0  0  0  0  0  0  0  0  0
  150.5533  145.9170  158.4985 H   0  0  0  0  0  0  0  0  0  0  0  0
  152.3389  145.9032  160.2308 H   0  0  0  0  0  0  0  0  0  0  0  0
  153.4674  143.7750  160.8302 H   0  0  0  0  0  0  0  0  0  0  0  0
  1  2  1  0  0  0  0
  1 33  1  0  0  0  0
  1 34  1  0  0  0  0
  1 35  1  0  0  0  0
  2  3  1  0  0  0  0
  2 22  1  0  0  0  0
  2 36  1  0  0  0  0
  3  4  1  0  0  0  0
  3 37  1  0  0  0  0
  4  9  1  0  0  0  0
  4  5  2  0  0  0  0
  5  6  1  0  0  0  0
  6  7  2  0  0  0  0
  6 38  1  0  0  0  0
  7  8  1  0  0  0  0
  8 12  1  0  0  0  0
  8  9  2  0  0  0  0
  9 10  1  0  0  0  0
 10 11  2  0  0  0  0
 11 12  1  0  0  0  0
 11 39  1  0  0  0  0
 12 13  1  0  0  0  0
 13 29  1  0  0  0  0
 13 20  1  0  0  0  0
 13 14  1  0  0  0  0
 14 15  1  0  0  0  0
 15 30  1  0  0  0  0
 15 16  1  0  0  0  0
 15 18  1  0  0  0  0
 16 17  1  0  0  0  0
 16 40  1  0  0  0  0
 16 41  1  0  0  0  0
 17 42  1  0  0  0  0
 18 31  1  0  0  0  0
 18 19  1  0  0  0  0
 18 20  1  0  0  0  0
 19 43  1  0  0  0  0
 20 32  1  0  0  0  0
 20 21  1  0  0  0  0
 21 44  1  0  0  0  0
 22 27  1  0  0  0  0
 22 23  2  0  0  0  0
 23 24  1  0  0  0  0
 23 45  1  0  0  0  0
 24 25  2  0  0  0  0
 24 46  1  0  0  0  0
 25 26  1  0  0  0  0
 25 47  1  0  0  0  0
 26 27  2  0  0  0  0
 26 48  1  0  0  0  0
 27 28  1  0  0  0  0
M  END
> <s_m_source_file>
AV-unprocessed.smi

> <i_m_source_file_index>
283

> <i_lp_mmshare_version>
43012

> <i_f3d_flags>
0

> <s_epik_input>
Q2xjMVtjSF1bY0hdW2NIXVtjSF1jMVtDQEhdKFtDSDNdKVtOSF1jKG5bY0hdbjIpYyhjMjMpbltjSF1uM1tDQEBIXTRPW0NASF0oW0NIMl1bT0hdKVtDQEBIXShbT0hdKVtDQEhdNFtPSF0=

> <s_epik_cmdline>
J2VwaWtfcHl0aG9uJywgJy1waCcsICc3LjAnLCAnLXRuJywgJzgnLCAnLW1hJywgJzIwMCcsICctbWV0YWxfYmluZGluZycsICctaW1hZScsICc8aW5maWxlLm1hZT4nLCAnLW9tYWUnLCAnPG91dGZpbGUubWFlPic=

> <r_lp_tautomer_probability>
1

> <r_epik_Ionization_Penalty>
0.000266407

> <r_epik_Ionization_Penalty_Charging>
0

> <r_epik_Ionization_Penalty_Neutral>
0.000266407

> <r_epik_State_Penalty>
-0

> <r_epik_Charging_Adjusted_Penalty>
0

> <i_epik_Tot_Q>
0

> <i_epik_Tot_abs_Q>
0

> <r_epik_Metal_State_Penalty>
-0

> <b_epik_Metal_Only>
0

> <s_epik_Chemistry_Notes>
This compound contains an acetal/aminal-like group ( X-CH(R)-Y where X, Y are N, S, or O) that may be acid/base labile, releasing an aldehyde.

> <s_lp_Force_Field>
OPLS_2005

> <r_lp_Energy>
50.6684

> <b_lp_Chiralities_Consistent>
1

> <s_lp_Variant>
AV-unprocessed.smi:283-22

> <Gold.Version>
5.8.1

> <Gold.Id.Protein>
6NUR|6NUR_protein|mol2

> <Gold.PLP.Fitness>
56.3734

> <Gold.PLP.PLP>
-51.2807

> <Gold.PLP.part.hbond>
-4.0000

> <Gold.PLP.part.metal>
0.0000

> <Gold.PLP.part.buried>
-9.3732

> <Gold.PLP.part.nonpolar>
-40.0808

> <Gold.PLP.part.repulsive>
0.9897

> <Gold.PLP.ligand.clash>
0.0000

> <Gold.PLP.ligand.torsion>
1.7922

> <Gold.PLP.Chemscore.Hbond>
2.8569

> <Gold.PLP.Chemscore.CHOScore>
0.0000

> <Gold.PLP.Chemscore.Metal>
0.0000

> <Gold.Chemscore.Hbonds>
donor molecule, donor type, donor heavy atom, donor atom, acceptor molecule, acceptor atom, score
      L1  H    17    42       P1 10747  0.81
      P1  H  6896  6908       L1    21  0.01
      P1  H  7997  8008       L1     5  0.52
      P1  H 10752 10763       L1     7  0.50

> <Gold.PLP.Chemscore.Internal.Correction>
0.1064

> <Gold.Rescore>
     Score         DG    S(hbond)    S(metal)    S(lipo)     H(rot)  DE(clash)    DE(int)     intcor
     12.38     -15.81       2.37        0.00     110.39       4.10       0.06       3.37       ----

> <Gold.Chemscore.Fitness>
12.3756

> <Gold.Chemscore.DG>
-15.8134

> <Gold.Chemscore.ZeroCoef>
-5.4800

> <Gold.Chemscore.Hbond>
2.3672

> <Gold.Chemscore.Metal>
0.0000

> <Gold.Chemscore.Lipo>
110.3851

> <Gold.Chemscore.Internal_Hbond>
0.0000

> <Gold.Chemscore.DEClash>
0.0637

> <Gold.Chemscore.DEInternal>
3.3741

> <Gold.Chemscore.Rot>
4.0968

> <Gold.Chemscore.Internal.Correction>
   9.000000E+99

> <Gold.Chemscore.Hbonds>
donor molecule, donor type, donor heavy atom, donor atom, acceptor molecule, acceptor atom, score
      L1  H    17    42       P1 10747  0.69
      P1  H  6896  6908       L1    21  0.03
      P1  H  7997  8008       L1     5  0.05
      P1  H 10752 10763       L1     7  0.05

> <Gold.Chemscore.Hbond.Weighted>
-7.9063

> <Gold.Chemscore.Metal.Weighted>
-0.0000

> <Gold.Chemscore.Lipo.Weighted>
-12.9151

> <Gold.Chemscore.Internal_Hbond.Weighted>
0.0000

> <Gold.Chemscore.DEClash.Weighted>
0.0637

> <Gold.Chemscore.DEInternal.Weighted>
3.3741

> <Gold.Chemscore.Rot.Weighted>
10.4879

> <Gold.Chemscore.Internal.Correction.Weighted>
   9.000000E+99

> <Gold.Protein.RotatedTorsions>
[ 6907 6896 6895 6894 ] final  103.26 input  -60.11 | X-H torsion
[ 7974 7965 7964 7962 ] final  101.38 input  175.53 | X-H torsion
[ 8008 7997 7996 7995 ] final  -56.09 input   59.86 | X-H torsion
[ 10167 10162 10161 10158 ] final  -38.27 input  -65.29 | X-H torsion
[ 10718 10713 10712 10709 ] final   21.28 input   66.30 | X-H torsion
[ 10763 10752 10751 10750 ] final   50.72 input  -60.55 | X-H torsion
[ 11005 11000 10999 10996 ] final   32.89 input  -57.11 | X-H torsion

> <Gold.Protein.ActiveResidues>
 VAL166  LYS551  ARG553  GLY616  TRP617  ASP618  TYR619  PRO620  LYS621  CYS622 
 ASP623  PHE694  ASN695  SER759  ASP760  ASP761  ALA762  ILE779  LEU786  VAL792 
 PHE793  MET794  SER795  GLU796  ALA797  LYS798  CYS799  TRP800  GLU811  SER814 

> <Gold.Protein.RotatedAtoms>
  152.5300  133.9852  159.7824 H   0  0  0  0  0  0  0  0  0  0  0  0  # atno 6907 bound_to 6896
  151.0098  133.5968  159.2691 H   0  0  0  0  0  0  0  0  0  0  0  0  # atno 6908 bound_to 6896
  151.3046  135.0784  159.9304 H   0  0  0  0  0  0  0  0  0  0  0  0  # atno 6909 bound_to 6896
  145.3731  139.2394  143.3444 H   0  0  0  0  0  0  0  0  0  0  0  0  # atno 7974 bound_to 7965
  154.4217  140.1138  156.5581 H   0  0  0  0  0  0  0  0  0  0  0  0  # atno 8008 bound_to 7997
  155.6340  140.3496  155.4673 H   0  0  0  0  0  0  0  0  0  0  0  0  # atno 8009 bound_to 7997
  155.9925  140.1182  157.0614 H   0  0  0  0  0  0  0  0  0  0  0  0  # atno 8010 bound_to 7997
  140.7096  143.3288  151.2618 H   0  0  0  0  0  0  0  0  0  0  0  0  # atno 10167 bound_to 10162
  157.1363  130.6613  149.5967 H   0  0  0  0  0  0  0  0  0  0  0  0  # atno 10718 bound_to 10713
  152.9784  135.5869  154.4298 H   0  0  0  0  0  0  0  0  0  0  0  0  # atno 10763 bound_to 10752
  154.3913  135.2768  155.2155 H   0  0  0  0  0  0  0  0  0  0  0  0  # atno 10764 bound_to 10752
  154.4026  135.6100  153.5960 H   0  0  0  0  0  0  0  0  0  0  0  0  # atno 10765 bound_to 10752
  140.2687  134.3107  155.7834 H   0  0  0  0  0  0  0  0  0  0  0  0  # atno 11005 bound_to 11000
  146.2876  140.4386  142.8752 LP  0  0  0  0  0  0  0  0  0  0  0  0  # atno 17320 bound_to 7965
  144.8562  140.7073  143.6137 LP  0  0  0  0  0  0  0  0  0  0  0  0  # atno 17321 bound_to 7965
  139.6764  143.9931  152.2783 LP  0  0  0  0  0  0  0  0  0  0  0  0  # atno 17342 bound_to 10162
  139.9546  144.6598  150.8138 LP  0  0  0  0  0  0  0  0  0  0  0  0  # atno 17343 bound_to 10162
  155.9797  130.4793  150.6733 LP  0  0  0  0  0  0  0  0  0  0  0  0  # atno 17370 bound_to 10713
  157.4347  131.0854  151.1003 LP  0  0  0  0  0  0  0  0  0  0  0  0  # atno 17371 bound_to 10713
  141.2180  133.7454  156.9301 LP  0  0  0  0  0  0  0  0  0  0  0  0  # atno 17394 bound_to 11000
  140.1394  134.9304  157.2446 LP  0  0  0  0  0  0  0  0  0  0  0  0  # atno 17395 bound_to 11000

$$$$
