AV-unprocessed.smi:2390|AV-procd|sdf|9477|dock1
  -GOLD-   2272013103D 1   1.00000     0.00000
 Structure written by MMmdl.
 46 47  0  0  0  0  0  0  0  0  2 V2000
  153.6660  141.6755  160.0723 C   0  0  0  0  0  0  0  0  0  0  0  0
  152.8079  142.6495  159.2920 C   0  0  0  0  0  0  0  0  0  0  0  0
  152.8695  144.0319  159.5532 C   0  0  0  0  0  0  0  0  0  0  0  0
  152.0597  144.8877  158.7862 C   0  0  0  0  0  0  0  0  0  0  0  0
  151.2220  144.3306  157.8010 C   0  0  0  0  0  0  0  0  0  0  0  0
  151.2067  142.9241  157.6156 C   0  0  0  0  0  0  0  0  0  0  0  0
  150.3929  142.3365  156.6112 N   0  0  0  0  0  0  0  0  0  0  0  0
  150.2618  141.0344  156.3053 C   0  0  0  0  0  0  0  0  0  0  0  0
  150.8481  140.1092  156.8687 O   0  0  0  0  0  0  0  0  0  0  0  0
  149.4010  140.8547  155.2920 N   0  0  0  0  0  0  0  0  0  0  0  0
  149.0304  139.5685  154.6974 C   0  0  2  0  0  0  0  0  0  0  0  0
  150.3050  138.8302  154.2559 C   0  0  0  0  0  0  0  0  0  0  0  0
  147.9837  139.7305  153.5531 C   0  0  2  0  0  0  0  0  0  0  0  0
  146.9699  140.8592  153.8668 C   0  0  0  0  0  0  0  0  0  0  0  0
  147.3435  138.4100  153.2401 N   0  3  0  0  0  0  0  0  0  0  0  0
  146.6798  137.6997  154.3662 C   0  0  0  0  0  0  0  0  0  0  0  0
  146.1625  136.3250  153.9074 C   0  0  0  0  0  0  0  0  0  0  0  0
  145.2782  136.4815  152.8064 O   0  0  0  0  0  0  0  0  0  0  0  0
  145.9279  137.0762  151.6916 C   0  0  0  0  0  0  0  0  0  0  0  0
  146.4189  138.4802  152.0781 C   0  0  0  0  0  0  0  0  0  0  0  0
  152.0069  142.1133  158.3453 N   0  0  0  0  0  0  0  0  0  0  0  0
  153.9241  142.0815  161.0508 H   0  0  0  0  0  0  0  0  0  0  0  0
  154.5900  141.4718  159.5305 H   0  0  0  0  0  0  0  0  0  0  0  0
  153.1426  140.7311  160.2267 H   0  0  0  0  0  0  0  0  0  0  0  0
  153.5245  144.4287  160.3149 H   0  0  0  0  0  0  0  0  0  0  0  0
  152.0849  145.9556  158.9455 H   0  0  0  0  0  0  0  0  0  0  0  0
  150.6169  144.9902  157.1979 H   0  0  0  0  0  0  0  0  0  0  0  0
  149.9348  142.9892  155.9921 H   0  0  0  0  0  0  0  0  0  0  0  0
  148.9714  141.6754  154.8897 H   0  0  0  0  0  0  0  0  0  0  0  0
  148.6033  138.9455  155.4832 H   0  0  0  0  0  0  0  0  0  0  0  0
  150.0647  137.8743  153.7898 H   0  0  0  0  0  0  0  0  0  0  0  0
  150.9473  138.6213  155.1123 H   0  0  0  0  0  0  0  0  0  0  0  0
  150.8943  139.4106  153.5463 H   0  0  0  0  0  0  0  0  0  0  0  0
  148.5144  140.0465  152.6532 H   0  0  0  0  0  0  0  0  0  0  0  0
  147.4725  141.8013  154.0808 H   0  0  0  0  0  0  0  0  0  0  0  0
  146.3461  140.6202  154.7287 H   0  0  0  0  0  0  0  0  0  0  0  0
  146.3141  141.0616  153.0199 H   0  0  0  0  0  0  0  0  0  0  0  0
  147.3765  137.5314  155.1868 H   0  0  0  0  0  0  0  0  0  0  0  0
  145.8557  138.3035  154.7497 H   0  0  0  0  0  0  0  0  0  0  0  0
  146.9916  135.6704  153.6323 H   0  0  0  0  0  0  0  0  0  0  0  0
  145.6283  135.8347  154.7215 H   0  0  0  0  0  0  0  0  0  0  0  0
  146.7565  136.4505  151.3556 H   0  0  0  0  0  0  0  0  0  0  0  0
  145.2207  137.1400  150.8642 H   0  0  0  0  0  0  0  0  0  0  0  0
  145.5672  139.1158  152.3257 H   0  0  0  0  0  0  0  0  0  0  0  0
  146.9086  138.9317  151.2165 H   0  0  0  0  0  0  0  0  0  0  0  0
  148.1040  137.8066  152.9585 H   0  0  0  0  0  0  0  0  0  0  0  0
  1  2  1  0  0  0  0
  1 22  1  0  0  0  0
  1 23  1  0  0  0  0
  1 24  1  0  0  0  0
  2 21  1  0  0  0  0
  2  3  2  0  0  0  0
  3  4  1  0  0  0  0
  3 25  1  0  0  0  0
  4  5  2  0  0  0  0
  4 26  1  0  0  0  0
  5  6  1  0  0  0  0
  5 27  1  0  0  0  0
  6  7  1  0  0  0  0
  6 21  2  0  0  0  0
  7  8  1  0  0  0  0
  7 28  1  0  0  0  0
  8  9  2  0  0  0  0
  8 10  1  0  0  0  0
 10 11  1  0  0  0  0
 10 29  1  0  0  0  0
 11 12  1  0  0  0  0
 11 13  1  0  0  0  0
 11 30  1  0  0  0  0
 12 31  1  0  0  0  0
 12 32  1  0  0  0  0
 12 33  1  0  0  0  0
 13 14  1  0  0  0  0
 13 15  1  0  0  0  0
 13 34  1  0  0  0  0
 14 35  1  0  0  0  0
 14 36  1  0  0  0  0
 14 37  1  0  0  0  0
 15 20  1  0  0  0  0
 15 16  1  0  0  0  0
 15 46  1  0  0  0  0
 16 17  1  0  0  0  0
 16 38  1  0  0  0  0
 16 39  1  0  0  0  0
 17 18  1  0  0  0  0
 17 40  1  0  0  0  0
 17 41  1  0  0  0  0
 18 19  1  0  0  0  0
 19 20  1  0  0  0  0
 19 42  1  0  0  0  0
 19 43  1  0  0  0  0
 20 44  1  0  0  0  0
 20 45  1  0  0  0  0
M  CHG  1  15   1
M  END
> <s_m_source_file>
AV-unprocessed.smi

> <i_m_source_file_index>
2390

> <i_lp_mmshare_version>
43012

> <i_f3d_flags>
0

> <s_epik_input>
W0NIM11jMVtjSF1bY0hdW2NIXWMobjEpW05IXUMoPU8pW05IXVtDQEhdKFtDSDNdKVtDQEhdKFtDSDNdKU4yW0NIMl1bQ0gyXU9bQ0gyXVtDSDJdMg==

> <s_epik_cmdline>
J2VwaWtfcHl0aG9uJywgJy1waCcsICc3LjAnLCAnLXRuJywgJzgnLCAnLW1hJywgJzIwMCcsICctbWV0YWxfYmluZGluZycsICctaW1hZScsICc8aW5maWxlLm1hZT4nLCAnLW9tYWUnLCAnPG91dGZpbGUubWFlPic=

> <r_epik_Ionization_Penalty>
0.60259

> <r_epik_Ionization_Penalty_Charging>
0.602531

> <r_epik_Ionization_Penalty_Neutral>
5.9516e-05

> <r_epik_State_Penalty>
0.617039

> <r_epik_Charging_Adjusted_Penalty>
1.21957

> <i_epik_Tot_Q>
1

> <i_epik_Tot_abs_Q>
1

> <r_epik_Metal_State_Penalty>
0.617047

> <b_epik_Metal_Only>
0

> <s_lp_Force_Field>
OPLS_2005

> <r_lp_Energy>
33.8136

> <b_lp_Chiralities_Consistent>
1

> <s_lp_Variant>
AV-unprocessed.smi:2390-5

> <Gold.Version>
5.8.1

> <Gold.Id.Protein>
6NUR|6NUR_protein|mol2

> <Gold.PLP.Fitness>
50.5533

> <Gold.PLP.PLP>
-42.4773

> <Gold.PLP.part.hbond>
-3.0000

> <Gold.PLP.part.metal>
0.0000

> <Gold.PLP.part.buried>
3.3875

> <Gold.PLP.part.nonpolar>
-44.1763

> <Gold.PLP.part.repulsive>
0.4798

> <Gold.PLP.ligand.clash>
0.0000

> <Gold.PLP.ligand.torsion>
0.3636

> <Gold.PLP.Chemscore.Hbond>
2.8882

> <Gold.PLP.Chemscore.CHOScore>
0.0000

> <Gold.PLP.Chemscore.Metal>
0.0000

> <Gold.Chemscore.Hbonds>
donor molecule, donor type, donor heavy atom, donor atom, acceptor molecule, acceptor atom, score
      L1  H     7    28       P1  8028  0.96
      L1  H    15    46       P1  7948  1.72

> <Gold.PLP.Chemscore.Internal.Correction>
0.1387

> <Gold.Rescore>
     Score         DG    S(hbond)    S(metal)    S(lipo)     H(rot)  DE(clash)    DE(int)     intcor
     15.47     -21.29       1.83        0.00     115.52       1.48       2.80       3.03       ----

> <Gold.Chemscore.Fitness>
15.4681

> <Gold.Chemscore.DG>
-21.2937

> <Gold.Chemscore.ZeroCoef>
-5.4800

> <Gold.Chemscore.Hbond>
1.8256

> <Gold.Chemscore.Metal>
0.0000

> <Gold.Chemscore.Lipo>
115.5236

> <Gold.Chemscore.Internal_Hbond>
0.0000

> <Gold.Chemscore.DEClash>
2.7977

> <Gold.Chemscore.DEInternal>
3.0279

> <Gold.Chemscore.Rot>
1.4844

> <Gold.Chemscore.Internal.Correction>
   9.000000E+99

> <Gold.Chemscore.Hbonds>
donor molecule, donor type, donor heavy atom, donor atom, acceptor molecule, acceptor atom, score
      L1  H     7    28       P1  8028  0.86
      L1  H    15    46       P1  7948  0.82

> <Gold.Chemscore.Hbond.Weighted>
-6.0974

> <Gold.Chemscore.Metal.Weighted>
-0.0000

> <Gold.Chemscore.Lipo.Weighted>
-13.5163

> <Gold.Chemscore.Internal_Hbond.Weighted>
0.0000

> <Gold.Chemscore.DEClash.Weighted>
2.7977

> <Gold.Chemscore.DEInternal.Weighted>
3.0279

> <Gold.Chemscore.Rot.Weighted>
3.8000

> <Gold.Chemscore.Internal.Correction.Weighted>
   9.000000E+99

> <Gold.Protein.RotatedTorsions>
[ 6907 6896 6895 6894 ] final  -29.06 input  -60.11 | X-H torsion
[ 7974 7965 7964 7962 ] final    9.25 input  175.53 | X-H torsion
[ 8008 7997 7996 7995 ] final -122.70 input   59.86 | X-H torsion
[ 10167 10162 10161 10158 ] final  -57.33 input  -65.29 | X-H torsion
[ 10718 10713 10712 10709 ] final  -19.28 input   66.30 | X-H torsion
[ 10763 10752 10751 10750 ] final    4.79 input  -60.55 | X-H torsion
[ 11005 11000 10999 10996 ] final  -92.78 input  -57.11 | X-H torsion

> <Gold.Protein.ActiveResidues>
 VAL166  LYS551  ARG553  GLY616  TRP617  ASP618  TYR619  PRO620  LYS621  CYS622 
 ASP623  PHE694  ASN695  SER759  ASP760  ASP761  ALA762  ILE779  LEU786  VAL792 
 PHE793  MET794  SER795  GLU796  ALA797  LYS798  CYS799  TRP800  GLU811  SER814 

> <Gold.Protein.RotatedAtoms>
  151.1244  135.0097  159.8553 H   0  0  0  0  0  0  0  0  0  0  0  0  # atno 6907 bound_to 6896
  152.5449  134.1684  159.8597 H   0  0  0  0  0  0  0  0  0  0  0  0  # atno 6908 bound_to 6896
  151.1745  133.4718  159.2627 H   0  0  0  0  0  0  0  0  0  0  0  0  # atno 6909 bound_to 6896
  146.2406  139.9811  142.8436 H   0  0  0  0  0  0  0  0  0  0  0  0  # atno 7974 bound_to 7965
  155.1686  140.0407  157.2858 H   0  0  0  0  0  0  0  0  0  0  0  0  # atno 8008 bound_to 7997
  154.6286  140.2518  155.7435 H   0  0  0  0  0  0  0  0  0  0  0  0  # atno 8009 bound_to 7997
  156.2472  140.2880  156.0627 H   0  0  0  0  0  0  0  0  0  0  0  0  # atno 8010 bound_to 7997
  140.6265  143.2440  151.5351 H   0  0  0  0  0  0  0  0  0  0  0  0  # atno 10167 bound_to 10162
  156.5479  130.4694  149.6466 H   0  0  0  0  0  0  0  0  0  0  0  0  # atno 10718 bound_to 10713
  153.2670  135.6928  153.7519 H   0  0  0  0  0  0  0  0  0  0  0  0  # atno 10763 bound_to 10752
  153.6557  135.3369  155.3113 H   0  0  0  0  0  0  0  0  0  0  0  0  # atno 10764 bound_to 10752
  154.8451  135.4465  154.1680 H   0  0  0  0  0  0  0  0  0  0  0  0  # atno 10765 bound_to 10752
  141.1513  133.7844  157.0068 H   0  0  0  0  0  0  0  0  0  0  0  0  # atno 11005 bound_to 11000
  145.1591  140.9663  143.4388 LP  0  0  0  0  0  0  0  0  0  0  0  0  # atno 17320 bound_to 7965
  145.0133  139.3490  143.6109 LP  0  0  0  0  0  0  0  0  0  0  0  0  # atno 17321 bound_to 7965
  139.5484  144.2459  152.1486 LP  0  0  0  0  0  0  0  0  0  0  0  0  # atno 17342 bound_to 10162
  140.1692  144.4952  150.6589 LP  0  0  0  0  0  0  0  0  0  0  0  0  # atno 17343 bound_to 10162
  156.2911  130.7125  151.1974 LP  0  0  0  0  0  0  0  0  0  0  0  0  # atno 17370 bound_to 10713
  157.7393  131.0531  150.5240 LP  0  0  0  0  0  0  0  0  0  0  0  0  # atno 17371 bound_to 10713
  140.0904  134.9596  157.1767 LP  0  0  0  0  0  0  0  0  0  0  0  0  # atno 17394 bound_to 11000
  140.3454  134.2657  155.7206 LP  0  0  0  0  0  0  0  0  0  0  0  0  # atno 17395 bound_to 11000

$$$$
