AV-unprocessed.smi:186|AV-procd|sdf|1466|dock3
  -GOLD-   2262019273D 1   1.00000     0.00000
 Structure written by MMmdl.
 48 51  0  0  0  0  0  0  0  0  1 V2000
  143.8354  132.8745  148.8104 C   0  0  0  0  0  0  0  0  0  0  0  0
  144.1146  131.8277  149.7232 O   0  0  0  0  0  0  0  0  0  0  0  0
  145.4988  131.7196  150.0191 C   0  0  0  0  0  0  0  0  0  0  0  0
  145.7673  132.2442  151.4307 C   0  0  0  0  0  0  0  0  0  0  0  0
  144.8596  132.7273  152.1085 O   0  0  0  0  0  0  0  0  0  0  0  0
  147.0321  132.1439  151.8637 N   0  0  0  0  0  0  0  0  0  0  0  0
  147.4890  132.5842  153.1752 C   0  0  0  0  0  0  0  0  0  0  0  0
  148.8826  132.0750  153.5496 C   0  0  0  0  0  0  0  0  0  0  0  0
  148.3295  131.7403  154.8612 N   0  0  0  0  0  0  0  0  0  0  0  0
  148.6534  132.7123  155.8573 C   0  0  0  0  0  0  0  0  0  0  0  0
  148.0813  132.5075  157.0718 N   0  0  0  0  0  0  0  0  0  0  0  0
  148.2966  133.3367  158.0955 C   0  0  0  0  0  0  0  0  0  0  0  0
  149.0484  134.4351  158.1313 N   0  0  0  0  0  0  0  0  0  0  0  0
  149.6342  134.6639  156.9231 C   0  0  0  0  0  0  0  0  0  0  0  0
  149.4948  133.8654  155.7485 C   0  0  0  0  0  0  0  0  0  0  0  0
  150.2570  134.4236  154.7267 N   0  0  0  0  0  0  0  0  0  0  0  0
  150.8049  135.4800  155.2598 C   0  0  0  0  0  0  0  0  0  0  0  0
  150.4793  135.7037  156.5761 N   0  0  0  0  0  0  0  0  0  0  0  0
  150.9439  136.8001  157.4123 C   0  0  0  0  0  0  0  0  0  0  0  0
  150.7900  138.1877  156.7470 C   0  0  1  0  0  0  0  0  0  0  0  0
  149.4897  138.2899  156.1917 O   0  0  0  0  0  0  0  0  0  0  0  0
  151.0061  139.3633  157.6957 C   0  0  0  0  0  0  0  0  0  0  0  0
  151.5927  140.4315  156.7837 C   0  0  0  0  0  0  0  0  0  0  0  0
  152.4554  139.6815  155.9457 O   0  0  0  0  0  0  0  0  0  0  0  0
  151.8184  138.4477  155.6280 C   0  0  0  0  0  0  0  0  0  0  0  0
  146.9706  131.7131  154.3196 C   0  0  0  0  0  0  0  0  0  0  0  0
  142.7632  132.9181  148.6204 H   0  0  0  0  0  0  0  0  0  0  0  0
  144.3399  132.7108  147.8572 H   0  0  0  0  0  0  0  0  0  0  0  0
  144.1462  133.8405  149.2105 H   0  0  0  0  0  0  0  0  0  0  0  0
  145.8189  130.6784  149.9533 H   0  0  0  0  0  0  0  0  0  0  0  0
  146.0854  132.2991  149.3047 H   0  0  0  0  0  0  0  0  0  0  0  0
  147.7208  131.7377  151.2472 H   0  0  0  0  0  0  0  0  0  0  0  0
  147.3631  133.6533  153.3563 H   0  0  0  0  0  0  0  0  0  0  0  0
  149.1880  131.1817  153.0026 H   0  0  0  0  0  0  0  0  0  0  0  0
  149.6595  132.8411  153.5514 H   0  0  0  0  0  0  0  0  0  0  0  0
  147.7940  133.0828  159.0171 H   0  0  0  0  0  0  0  0  0  0  0  0
  151.4626  136.1319  154.7033 H   0  0  0  0  0  0  0  0  0  0  0  0
  150.3901  136.7711  158.3515 H   0  0  0  0  0  0  0  0  0  0  0  0
  151.9880  136.6173  157.6694 H   0  0  0  0  0  0  0  0  0  0  0  0
  148.9474  137.6169  156.5742 H   0  0  0  0  0  0  0  0  0  0  0  0
  150.1019  139.6854  158.2143 H   0  0  0  0  0  0  0  0  0  0  0  0
  151.7489  139.1066  158.4515 H   0  0  0  0  0  0  0  0  0  0  0  0
  150.8157  140.9076  156.1833 H   0  0  0  0  0  0  0  0  0  0  0  0
  152.1323  141.2051  157.3303 H   0  0  0  0  0  0  0  0  0  0  0  0
  152.5736  137.6636  155.5678 H   0  0  0  0  0  0  0  0  0  0  0  0
  151.3479  138.5217  154.6460 H   0  0  0  0  0  0  0  0  0  0  0  0
  146.1902  132.1482  154.9408 H   0  0  0  0  0  0  0  0  0  0  0  0
  146.7005  130.7042  154.0040 H   0  0  0  0  0  0  0  0  0  0  0  0
  1  2  1  0  0  0  0
  1 27  1  0  0  0  0
  1 28  1  0  0  0  0
  1 29  1  0  0  0  0
  2  3  1  0  0  0  0
  3  4  1  0  0  0  0
  3 30  1  0  0  0  0
  3 31  1  0  0  0  0
  4  5  2  0  0  0  0
  4  6  1  0  0  0  0
  6  7  1  0  0  0  0
  6 32  1  0  0  0  0
  7 26  1  0  0  0  0
  7  8  1  0  0  0  0
  7 33  1  0  0  0  0
  8  9  1  0  0  0  0
  8 34  1  0  0  0  0
  8 35  1  0  0  0  0
  9 10  1  0  0  0  0
  9 26  1  0  0  0  0
 10 15  1  0  0  0  0
 10 11  2  0  0  0  0
 11 12  1  0  0  0  0
 12 13  2  0  0  0  0
 12 36  1  0  0  0  0
 13 14  1  0  0  0  0
 14 18  1  0  0  0  0
 14 15  2  0  0  0  0
 15 16  1  0  0  0  0
 16 17  2  0  0  0  0
 17 18  1  0  0  0  0
 17 37  1  0  0  0  0
 18 19  1  0  0  0  0
 19 20  1  0  0  0  0
 19 38  1  0  0  0  0
 19 39  1  0  0  0  0
 20 25  1  0  0  0  0
 20 21  1  0  0  0  0
 20 22  1  0  0  0  0
 21 40  1  0  0  0  0
 22 23  1  0  0  0  0
 22 41  1  0  0  0  0
 22 42  1  0  0  0  0
 23 24  1  0  0  0  0
 23 43  1  0  0  0  0
 23 44  1  0  0  0  0
 24 25  1  0  0  0  0
 25 45  1  0  0  0  0
 25 46  1  0  0  0  0
 26 47  1  0  0  0  0
 26 48  1  0  0  0  0
M  END
> <s_m_source_file>
AV-unprocessed.smi

> <i_m_source_file_index>
186

> <i_lp_mmshare_version>
43012

> <i_f3d_flags>
0

> <s_epik_input>
W0NIM11PW0NIMl1DKD1PKVtOSF1bQ0hdMVtDSDJdTihbQ0gyXTEpYyhuW2NIXW4yKWMoYzIzKW5bY0hdbjNbQ0gyXVtDQEBdNChbT0hdKVtDSDJdW0NIMl1PW0NIMl00

> <s_epik_cmdline>
J2VwaWtfcHl0aG9uJywgJy1waCcsICc3LjAnLCAnLXRuJywgJzgnLCAnLW1hJywgJzIwMCcsICctbWV0YWxfYmluZGluZycsICctaW1hZScsICc8aW5maWxlLm1hZT4nLCAnLW9tYWUnLCAnPG91dGZpbGUubWFlPic=

> <r_lp_tautomer_probability>
1

> <r_epik_Ionization_Penalty>
0.00138671

> <r_epik_Ionization_Penalty_Charging>
0

> <r_epik_Ionization_Penalty_Neutral>
0.00138671

> <r_epik_State_Penalty>
0.000746021

> <r_epik_Charging_Adjusted_Penalty>
0.000746021

> <i_epik_Tot_Q>
0

> <i_epik_Tot_abs_Q>
0

> <r_epik_Metal_State_Penalty>
-0

> <b_epik_Metal_Only>
0

> <s_lp_Force_Field>
OPLS_2005

> <r_lp_Energy>
46.8047

> <b_lp_Chiralities_Consistent>
1

> <s_lp_Variant>
AV-unprocessed.smi:186-1

> <Gold.Version>
5.8.1

> <Gold.Id.Protein>
6NUR|6NUR_protein|mol2

> <Gold.PLP.Fitness>
41.0984

> <Gold.PLP.PLP>
-31.9292

> <Gold.PLP.part.hbond>
-3.9322

> <Gold.PLP.part.metal>
0.0000

> <Gold.PLP.part.buried>
-4.7788

> <Gold.PLP.part.nonpolar>
-24.4105

> <Gold.PLP.part.repulsive>
0.4544

> <Gold.PLP.ligand.clash>
0.0000

> <Gold.PLP.ligand.torsion>
0.8210

> <Gold.PLP.Chemscore.Hbond>
3.4037

> <Gold.PLP.Chemscore.CHOScore>
0.0000

> <Gold.PLP.Chemscore.Metal>
0.0000

> <Gold.Chemscore.Hbonds>
donor molecule, donor type, donor heavy atom, donor atom, acceptor molecule, acceptor atom, score
      L1  H     6    32       P1 10747  1.00
      P1  H  6896  6909       L1    13  0.98
      P1  H  7997  8009       L1    24  1.00
      P1  H 10785 10796       L1     2  0.49

> <Gold.PLP.Chemscore.Internal.Correction>
0.6000

> <Gold.Rescore>
     Score         DG    S(hbond)    S(metal)    S(lipo)     H(rot)  DE(clash)    DE(int)     intcor
     12.26     -14.34       2.87        0.00      67.41       3.36       0.04       2.04       ----

> <Gold.Chemscore.Fitness>
12.2613

> <Gold.Chemscore.DG>
-14.3397

> <Gold.Chemscore.ZeroCoef>
-5.4800

> <Gold.Chemscore.Hbond>
2.8680

> <Gold.Chemscore.Metal>
0.0000

> <Gold.Chemscore.Lipo>
67.4140

> <Gold.Chemscore.Internal_Hbond>
0.0000

> <Gold.Chemscore.DEClash>
0.0412

> <Gold.Chemscore.DEInternal>
2.0372

> <Gold.Chemscore.Rot>
3.3620

> <Gold.Chemscore.Internal.Correction>
   9.000000E+99

> <Gold.Chemscore.Hbonds>
donor molecule, donor type, donor heavy atom, donor atom, acceptor molecule, acceptor atom, score
      L1  H     6    32       P1 10747  1.00
      P1  H  6896  6909       L1    13  0.29
      P1  H  7997  8009       L1    24  0.68
      P1  H 10785 10796       L1     2  0.16

> <Gold.Chemscore.Hbond.Weighted>
-9.5790

> <Gold.Chemscore.Metal.Weighted>
-0.0000

> <Gold.Chemscore.Lipo.Weighted>
-7.8874

> <Gold.Chemscore.Internal_Hbond.Weighted>
0.0000

> <Gold.Chemscore.DEClash.Weighted>
0.0412

> <Gold.Chemscore.DEInternal.Weighted>
2.0372

> <Gold.Chemscore.Rot.Weighted>
8.6067

> <Gold.Chemscore.Internal.Correction.Weighted>
   9.000000E+99

> <Gold.Protein.RotatedTorsions>
[ 6907 6896 6895 6894 ] final   25.86 input  -60.11 | X-H torsion
[ 7974 7965 7964 7962 ] final  110.46 input  175.53 | X-H torsion
[ 8008 7997 7996 7995 ] final -166.44 input   59.86 | X-H torsion
[ 10167 10162 10161 10158 ] final  -19.57 input  -65.29 | X-H torsion
[ 10718 10713 10712 10709 ] final  -18.26 input   66.30 | X-H torsion
[ 10763 10752 10751 10750 ] final  162.69 input  -60.55 | X-H torsion
[ 11005 11000 10999 10996 ] final   13.24 input  -57.11 | X-H torsion

> <Gold.Protein.ActiveResidues>
 VAL166  LYS551  ARG553  GLY616  TRP617  ASP618  TYR619  PRO620  LYS621  CYS622 
 ASP623  PHE694  ASN695  SER759  ASP760  ASP761  ALA762  ILE779  LEU786  VAL792 
 PHE793  MET794  SER795  GLU796  ALA797  LYS798  CYS799  TRP800  GLU811  SER814 

> <Gold.Protein.RotatedAtoms>
  151.9789  135.0039  160.0556 H   0  0  0  0  0  0  0  0  0  0  0  0  # atno 6907 bound_to 6896
  152.1714  133.4642  159.4919 H   0  0  0  0  0  0  0  0  0  0  0  0  # atno 6908 bound_to 6896
  150.6902  134.1865  159.4312 H   0  0  0  0  0  0  0  0  0  0  0  0  # atno 6909 bound_to 6896
  145.2546  139.2726  143.4049 H   0  0  0  0  0  0  0  0  0  0  0  0  # atno 7974 bound_to 7965
  155.8638  140.0982  157.1595 H   0  0  0  0  0  0  0  0  0  0  0  0  # atno 8008 bound_to 7997
  154.3992  140.1360  156.4056 H   0  0  0  0  0  0  0  0  0  0  0  0  # atno 8009 bound_to 7997
  155.7827  140.3458  155.5308 H   0  0  0  0  0  0  0  0  0  0  0  0  # atno 8010 bound_to 7997
  140.7269  143.4806  151.0122 H   0  0  0  0  0  0  0  0  0  0  0  0  # atno 10167 bound_to 10162
  156.5620  130.4728  149.6402 H   0  0  0  0  0  0  0  0  0  0  0  0  # atno 10718 bound_to 10713
  154.2822  135.2763  155.2692 H   0  0  0  0  0  0  0  0  0  0  0  0  # atno 10763 bound_to 10752
  154.5208  135.5757  153.6683 H   0  0  0  0  0  0  0  0  0  0  0  0  # atno 10764 bound_to 10752
  152.9927  135.6204  154.2982 H   0  0  0  0  0  0  0  0  0  0  0  0  # atno 10765 bound_to 10752
  140.4830  134.0916  155.7755 H   0  0  0  0  0  0  0  0  0  0  0  0  # atno 11005 bound_to 11000
  146.3293  140.2947  142.8617 LP  0  0  0  0  0  0  0  0  0  0  0  0  # atno 17320 bound_to 7965
  144.9472  140.8140  143.5594 LP  0  0  0  0  0  0  0  0  0  0  0  0  # atno 17321 bound_to 7965
  139.8505  143.7445  152.3178 LP  0  0  0  0  0  0  0  0  0  0  0  0  # atno 17342 bound_to 10162
  139.7625  144.7502  151.0342 LP  0  0  0  0  0  0  0  0  0  0  0  0  # atno 17343 bound_to 10162
  156.2790  130.7060  151.1879 LP  0  0  0  0  0  0  0  0  0  0  0  0  # atno 17370 bound_to 10713
  157.7366  131.0560  150.5402 LP  0  0  0  0  0  0  0  0  0  0  0  0  # atno 17371 bound_to 10713
  141.1522  133.8948  157.2069 LP  0  0  0  0  0  0  0  0  0  0  0  0  # atno 17394 bound_to 11000
  139.9815  135.0096  156.9761 LP  0  0  0  0  0  0  0  0  0  0  0  0  # atno 17395 bound_to 11000

$$$$
