AV-unprocessed.smi:1718|AV-procd|sdf|6927|dock4
  -GOLD-   22720 8133D 1   1.00000     0.00000
 Structure written by MMmdl.
 39 40  0  0  0  0  0  0  0  0  2 V2000
  157.8379  140.2052  161.6174 C   0  0  0  0  0  0  0  0  0  0  0  0
  156.6161  139.9833  162.5216 C   0  0  1  0  0  0  0  0  0  0  0  0
  156.6403  140.9934  163.5264 O   0  0  0  0  0  0  0  0  0  0  0  0
  157.5087  140.7428  164.6259 C   0  0  0  0  0  0  0  0  0  0  0  0
  157.0890  141.6401  165.7960 C   0  0  2  0  0  0  0  0  0  0  0  0
  155.8552  141.1508  166.5509 C   0  0  0  0  0  0  0  0  0  0  0  0
  155.3766  142.4288  167.2012 C   0  0  0  0  0  0  0  0  0  0  0  0
  155.6702  143.4687  166.1213 C   0  0  0  0  0  0  0  0  0  0  0  0
  156.7317  142.9376  165.3304 O   0  0  0  0  0  0  0  0  0  0  0  0
  155.3047  140.0558  161.7220 C   0  0  0  0  0  0  0  0  0  0  0  0
  154.5231  139.1055  161.7560 O   0  0  0  0  0  0  0  0  0  0  0  0
  155.1148  141.1956  161.0286 N   0  0  0  0  0  0  0  0  0  0  0  0
  154.0622  141.5564  160.1705 C   0  0  0  0  0  0  0  0  0  0  0  0
  153.3139  142.6878  160.2911 C   0  0  0  0  0  0  0  0  0  0  0  0
  152.2204  143.0011  159.3798 C   0  0  0  0  0  0  0  0  0  0  0  0
  151.4315  144.2978  159.4240 C   0  0  0  0  0  0  0  0  0  0  0  0
  151.8277  145.0655  160.4394 F   0  0  0  0  0  0  0  0  0  0  0  0
  151.6136  144.9786  158.2935 F   0  0  0  0  0  0  0  0  0  0  0  0
  150.1271  144.0597  159.5605 F   0  0  0  0  0  0  0  0  0  0  0  0
  152.0561  142.0345  158.4068 C   0  0  0  0  0  0  0  0  0  0  0  0
  152.7318  140.8774  158.2344 N   0  5  0  0  0  0  0  0  0  0  0  0
  153.7509  140.5937  159.0936 C   0  0  0  0  0  0  0  0  0  0  0  0
  154.4108  139.5588  158.9913 O   0  0  0  0  0  0  0  0  0  0  0  0
  157.8749  139.4690  160.8136 H   0  0  0  0  0  0  0  0  0  0  0  0
  158.7617  140.1145  162.1889 H   0  0  0  0  0  0  0  0  0  0  0  0
  157.8284  141.1974  161.1647 H   0  0  0  0  0  0  0  0  0  0  0  0
  156.7133  139.0026  162.9917 H   0  0  0  0  0  0  0  0  0  0  0  0
  157.4473  139.6989  164.9346 H   0  0  0  0  0  0  0  0  0  0  0  0
  158.5450  140.9410  164.3484 H   0  0  0  0  0  0  0  0  0  0  0  0
  157.9206  141.7570  166.4931 H   0  0  0  0  0  0  0  0  0  0  0  0
  155.0998  140.7784  165.8571 H   0  0  0  0  0  0  0  0  0  0  0  0
  156.0806  140.3621  167.2691 H   0  0  0  0  0  0  0  0  0  0  0  0
  154.3256  142.3977  167.4898 H   0  0  0  0  0  0  0  0  0  0  0  0
  155.9695  142.6361  168.0930 H   0  0  0  0  0  0  0  0  0  0  0  0
  154.8000  143.6132  165.4802 H   0  0  0  0  0  0  0  0  0  0  0  0
  155.9403  144.4354  166.5470 H   0  0  0  0  0  0  0  0  0  0  0  0
  155.8101  141.9169  161.1565 H   0  0  0  0  0  0  0  0  0  0  0  0
  153.4939  143.3882  161.0897 H   0  0  0  0  0  0  0  0  0  0  0  0
  151.2643  142.2213  157.6501 H   0  0  0  0  0  0  0  0  0  0  0  0
  1  2  1  0  0  0  0
  1 24  1  0  0  0  0
  1 25  1  0  0  0  0
  1 26  1  0  0  0  0
  2  3  1  0  0  0  0
  2 10  1  0  0  0  0
  2 27  1  0  0  0  0
  3  4  1  0  0  0  0
  4  5  1  0  0  0  0
  4 28  1  0  0  0  0
  4 29  1  0  0  0  0
  5  9  1  0  0  0  0
  5  6  1  0  0  0  0
  5 30  1  0  0  0  0
  6  7  1  0  0  0  0
  6 31  1  0  0  0  0
  6 32  1  0  0  0  0
  7  8  1  0  0  0  0
  7 33  1  0  0  0  0
  7 34  1  0  0  0  0
  8  9  1  0  0  0  0
  8 35  1  0  0  0  0
  8 36  1  0  0  0  0
 10 11  2  0  0  0  0
 10 12  1  0  0  0  0
 12 13  1  0  0  0  0
 12 37  1  0  0  0  0
 13 22  1  0  0  0  0
 13 14  2  0  0  0  0
 14 15  1  0  0  0  0
 14 38  1  0  0  0  0
 15 16  1  0  0  0  0
 15 20  2  0  0  0  0
 16 17  1  0  0  0  0
 16 18  1  0  0  0  0
 16 19  1  0  0  0  0
 20 21  1  0  0  0  0
 20 39  1  0  0  0  0
 21 22  1  0  0  0  0
 22 23  2  0  0  0  0
M  CHG  1  21  -1
M  END
> <s_m_source_file>
AV-unprocessed.smi

> <i_m_source_file_index>
1718

> <i_lp_mmshare_version>
43012

> <i_f3d_flags>
0

> <s_epik_input>
TzFbQ0gyXVtDSDJdW0NIMl1bQ0BIXTFbQ0gyXU9bQ0BASF0oW0NIM10pQyg9TylbTkhdYzJbY0hdYyhDKEYpKEYpRilbY0hdW25IXWMyPU8=

> <s_epik_cmdline>
J2VwaWtfcHl0aG9uJywgJy1waCcsICc3LjAnLCAnLXRuJywgJzgnLCAnLW1hJywgJzIwMCcsICctbWV0YWxfYmluZGluZycsICctaW1hZScsICc8aW5maWxlLm1hZT4nLCAnLW9tYWUnLCAnPG91dGZpbGUubWFlPic=

> <r_epik_Ionization_Penalty>
2.5466

> <r_epik_Ionization_Penalty_Charging>
0.0575837

> <r_epik_Ionization_Penalty_Neutral>
2.48901

> <r_epik_State_Penalty>
2.6532

> <r_epik_Charging_Adjusted_Penalty>
2.71078

> <i_epik_Tot_Q>
-1

> <i_epik_Tot_abs_Q>
1

> <r_epik_Metal_State_Penalty>
0.516196

> <b_epik_Metal_Only>
0

> <s_lp_Force_Field>
OPLS_2005

> <r_lp_Energy>
37.0387

> <b_lp_Chiralities_Consistent>
1

> <s_lp_Variant>
AV-unprocessed.smi:1718-6

> <Gold.Version>
5.8.1

> <Gold.Id.Protein>
6NUR|6NUR_protein|mol2

> <Gold.PLP.Fitness>
44.0315

> <Gold.PLP.PLP>
-43.8092

> <Gold.PLP.part.hbond>
-3.5673

> <Gold.PLP.part.metal>
0.0000

> <Gold.PLP.part.buried>
-4.9425

> <Gold.PLP.part.nonpolar>
-34.2186

> <Gold.PLP.part.repulsive>
0.0175

> <Gold.PLP.ligand.clash>
0.0000

> <Gold.PLP.ligand.torsion>
1.0007

> <Gold.PLP.Chemscore.Hbond>
0.7000

> <Gold.PLP.Chemscore.CHOScore>
0.0000

> <Gold.PLP.Chemscore.Metal>
0.0000

> <Gold.Chemscore.Hbonds>
donor molecule, donor type, donor heavy atom, donor atom, acceptor molecule, acceptor atom, score
      P1  H  7997  8008       L1    23  0.65

> <Gold.PLP.Chemscore.Internal.Correction>
0.1238

> <Gold.Rescore>
     Score         DG    S(hbond)    S(metal)    S(lipo)     H(rot)  DE(clash)    DE(int)     intcor
      9.49     -13.77       0.87        0.00      86.47       1.85       1.07       3.21       ----

> <Gold.Chemscore.Fitness>
9.4852

> <Gold.Chemscore.DG>
-13.7720

> <Gold.Chemscore.ZeroCoef>
-5.4800

> <Gold.Chemscore.Hbond>
0.8680

> <Gold.Chemscore.Metal>
0.0000

> <Gold.Chemscore.Lipo>
86.4720

> <Gold.Chemscore.Internal_Hbond>
0.0000

> <Gold.Chemscore.DEClash>
1.0749

> <Gold.Chemscore.DEInternal>
3.2118

> <Gold.Chemscore.Rot>
1.8455

> <Gold.Chemscore.Internal.Correction>
   9.000000E+99

> <Gold.Chemscore.Hbonds>
donor molecule, donor type, donor heavy atom, donor atom, acceptor molecule, acceptor atom, score
      P1  H  7997  8008       L1    23  0.06

> <Gold.Chemscore.Hbond.Weighted>
-2.8992

> <Gold.Chemscore.Metal.Weighted>
-0.0000

> <Gold.Chemscore.Lipo.Weighted>
-10.1172

> <Gold.Chemscore.Internal_Hbond.Weighted>
0.0000

> <Gold.Chemscore.DEClash.Weighted>
1.0749

> <Gold.Chemscore.DEInternal.Weighted>
3.2118

> <Gold.Chemscore.Rot.Weighted>
4.7245

> <Gold.Chemscore.Internal.Correction.Weighted>
   9.000000E+99

> <Gold.Protein.RotatedTorsions>
[ 6907 6896 6895 6894 ] final   57.27 input  -60.11 | X-H torsion
[ 7974 7965 7964 7962 ] final  123.35 input  175.53 | X-H torsion
[ 8008 7997 7996 7995 ] final -119.20 input   59.86 | X-H torsion
[ 10167 10162 10161 10158 ] final   13.61 input  -65.29 | X-H torsion
[ 10718 10713 10712 10709 ] final -141.78 input   66.30 | X-H torsion
[ 10763 10752 10751 10750 ] final   78.34 input  -60.55 | X-H torsion
[ 11005 11000 10999 10996 ] final  109.00 input  -57.11 | X-H torsion

> <Gold.Protein.ActiveResidues>
 VAL166  LYS551  ARG553  GLY616  TRP617  ASP618  TYR619  PRO620  LYS621  CYS622 
 ASP623  PHE694  ASN695  SER759  ASP760  ASP761  ALA762  ILE779  LEU786  VAL792 
 PHE793  MET794  SER795  GLU796  ALA797  LYS798  CYS799  TRP800  GLU811  SER814 

> <Gold.Protein.RotatedAtoms>
  152.3715  134.6727  160.0174 H   0  0  0  0  0  0  0  0  0  0  0  0  # atno 6907 bound_to 6896
  151.7018  133.3306  159.3276 H   0  0  0  0  0  0  0  0  0  0  0  0  # atno 6908 bound_to 6896
  150.7677  134.6544  159.6350 H   0  0  0  0  0  0  0  0  0  0  0  0  # atno 6909 bound_to 6896
  145.0969  139.3546  143.4832 H   0  0  0  0  0  0  0  0  0  0  0  0  # atno 7974 bound_to 7965
  155.1120  140.0397  157.2726 H   0  0  0  0  0  0  0  0  0  0  0  0  # atno 8008 bound_to 7997
  154.6678  140.2605  155.7013 H   0  0  0  0  0  0  0  0  0  0  0  0  # atno 8009 bound_to 7997
  156.2646  140.2804  156.1176 H   0  0  0  0  0  0  0  0  0  0  0  0  # atno 8010 bound_to 7997
  140.5991  143.8642  150.6947 H   0  0  0  0  0  0  0  0  0  0  0  0  # atno 10167 bound_to 10162
  156.3381  130.7622  151.1753 H   0  0  0  0  0  0  0  0  0  0  0  0  # atno 10718 bound_to 10713
  153.0867  135.4880  154.8610 H   0  0  0  0  0  0  0  0  0  0  0  0  # atno 10763 bound_to 10752
  154.7219  135.3041  154.9036 H   0  0  0  0  0  0  0  0  0  0  0  0  # atno 10764 bound_to 10752
  153.9698  135.6802  153.4800 H   0  0  0  0  0  0  0  0  0  0  0  0  # atno 10765 bound_to 10752
  139.8854  134.9446  156.6058 H   0  0  0  0  0  0  0  0  0  0  0  0  # atno 11005 bound_to 11000
  146.3530  140.0828  142.8616 LP  0  0  0  0  0  0  0  0  0  0  0  0  # atno 17320 bound_to 7965
  145.1001  140.9340  143.4718 LP  0  0  0  0  0  0  0  0  0  0  0  0  # atno 17321 bound_to 7965
  140.2183  143.3829  152.1663 LP  0  0  0  0  0  0  0  0  0  0  0  0  # atno 17342 bound_to 10162
  139.5278  144.7124  151.5165 LP  0  0  0  0  0  0  0  0  0  0  0  0  # atno 17343 bound_to 10162
  157.7442  131.0462  150.4883 LP  0  0  0  0  0  0  0  0  0  0  0  0  # atno 17370 bound_to 10713
  156.5059  130.4128  149.6327 LP  0  0  0  0  0  0  0  0  0  0  0  0  # atno 17371 bound_to 10713
  140.7849  133.8630  155.8598 LP  0  0  0  0  0  0  0  0  0  0  0  0  # atno 17394 bound_to 11000
  140.9728  134.1508  157.4562 LP  0  0  0  0  0  0  0  0  0  0  0  0  # atno 17395 bound_to 11000

$$$$
