AV-unprocessed.smi:3135|AV-procd|sdf|11946|dock4
  -GOLD-   2272017343D 1   1.00000     0.00000
 Structure written by MMmdl.
 38 39  0  0  0  0  0  0  0  0  2 V2000
  151.6641  143.7120  158.5217 C   0  0  0  0  0  0  0  0  0  0  0  0
  151.4765  142.4181  157.7834 C   0  0  0  0  0  0  0  0  0  0  0  0
  151.7704  141.1013  158.2390 C   0  0  0  0  0  0  0  0  0  0  0  0
  151.4875  140.1712  157.3415 N   0  0  0  0  0  0  0  0  0  0  0  0
  151.0037  140.8579  156.2843 N   0  0  0  0  0  0  0  0  0  0  0  0
  150.5745  140.1462  155.0916 C   0  0  0  0  0  0  0  0  0  0  0  0
  149.0527  140.1757  154.9122 C   0  0  0  0  0  0  0  0  0  0  0  0
  148.3206  140.2121  155.9007 O   0  0  0  0  0  0  0  0  0  0  0  0
  148.5825  140.1403  153.6545 N   0  0  0  0  0  0  0  0  0  0  0  0
  147.1721  140.1762  153.2888 C   0  0  0  0  0  0  0  0  0  0  0  0
  146.6549  138.7791  152.8977 C   0  0  0  0  0  0  0  0  0  0  0  0
  145.3605  138.4365  153.5403 N   0  3  2  0  0  0  0  0  0  0  0  0
  145.3528  138.8265  154.9689 C   0  0  0  0  0  0  0  0  0  0  0  0
  144.9798  137.0144  153.3619 C   0  0  0  0  0  0  0  0  0  0  0  0
  145.0356  136.5319  151.9288 C   0  0  0  0  0  0  0  0  0  0  0  0
  143.7014  136.8140  152.5760 C   0  0  0  0  0  0  0  0  0  0  0  0
  150.9905  142.2164  156.5226 C   0  0  0  0  0  0  0  0  0  0  0  0
  151.4423  143.6063  159.5839 H   0  0  0  0  0  0  0  0  0  0  0  0
  151.0138  144.4974  158.1355 H   0  0  0  0  0  0  0  0  0  0  0  0
  152.6890  144.0740  158.4411 H   0  0  0  0  0  0  0  0  0  0  0  0
  152.1785  140.7957  159.1913 H   0  0  0  0  0  0  0  0  0  0  0  0
  151.0497  140.5971  154.2196 H   0  0  0  0  0  0  0  0  0  0  0  0
  150.9256  139.1147  155.1505 H   0  0  0  0  0  0  0  0  0  0  0  0
  149.2524  140.1115  152.8990 H   0  0  0  0  0  0  0  0  0  0  0  0
  146.5826  140.5899  154.1091 H   0  0  0  0  0  0  0  0  0  0  0  0
  147.0756  140.8686  152.4530 H   0  0  0  0  0  0  0  0  0  0  0  0
  146.5573  138.7004  151.8136 H   0  0  0  0  0  0  0  0  0  0  0  0
  147.3963  138.0366  153.1969 H   0  0  0  0  0  0  0  0  0  0  0  0
  146.1078  138.2715  155.5275 H   0  0  0  0  0  0  0  0  0  0  0  0
  144.3821  138.6330  155.4256 H   0  0  0  0  0  0  0  0  0  0  0  0
  145.5588  139.8914  155.0812 H   0  0  0  0  0  0  0  0  0  0  0  0
  145.2161  136.3455  154.1878 H   0  0  0  0  0  0  0  0  0  0  0  0
  145.3733  137.2257  151.1611 H   0  0  0  0  0  0  0  0  0  0  0  0
  145.2972  135.4892  151.7599 H   0  0  0  0  0  0  0  0  0  0  0  0
  143.0826  135.9566  152.8333 H   0  0  0  0  0  0  0  0  0  0  0  0
  143.1579  137.6904  152.2272 H   0  0  0  0  0  0  0  0  0  0  0  0
  150.6363  142.9204  155.7839 H   0  0  0  0  0  0  0  0  0  0  0  0
  144.6505  138.9937  153.0867 H   0  0  0  0  0  0  0  0  0  0  0  0
  1  2  1  0  0  0  0
  1 18  1  0  0  0  0
  1 19  1  0  0  0  0
  1 20  1  0  0  0  0
  2 17  2  0  0  0  0
  2  3  1  0  0  0  0
  3  4  2  0  0  0  0
  3 21  1  0  0  0  0
  4  5  1  0  0  0  0
  5  6  1  0  0  0  0
  5 17  1  0  0  0  0
  6  7  1  0  0  0  0
  6 22  1  0  0  0  0
  6 23  1  0  0  0  0
  7  8  2  0  0  0  0
  7  9  1  0  0  0  0
  9 10  1  0  0  0  0
  9 24  1  0  0  0  0
 10 11  1  0  0  0  0
 10 25  1  0  0  0  0
 10 26  1  0  0  0  0
 11 12  1  0  0  0  0
 11 27  1  0  0  0  0
 11 28  1  0  0  0  0
 12 13  1  0  0  0  0
 12 14  1  0  0  0  0
 12 38  1  0  0  0  0
 13 29  1  0  0  0  0
 13 30  1  0  0  0  0
 13 31  1  0  0  0  0
 14 16  1  0  0  0  0
 14 15  1  0  0  0  0
 14 32  1  0  0  0  0
 15 16  1  0  0  0  0
 15 33  1  0  0  0  0
 15 34  1  0  0  0  0
 16 35  1  0  0  0  0
 16 36  1  0  0  0  0
 17 37  1  0  0  0  0
M  CHG  1  12   1
M  END
> <s_m_source_file>
AV-unprocessed.smi

> <i_m_source_file_index>
3135

> <i_lp_mmshare_version>
43012

> <i_f3d_flags>
0

> <s_epik_input>
W0NIM11jMVtjSF1ubihbY0hdMSlbQ0gyXUMoPU8pW05IXVtDSDJdW0NIMl1OKFtDSDNdKVtDSF0yW0NIMl1bQ0gyXTI=

> <s_epik_cmdline>
J2VwaWtfcHl0aG9uJywgJy1waCcsICc3LjAnLCAnLXRuJywgJzgnLCAnLW1hJywgJzIwMCcsICctbWV0YWxfYmluZGluZycsICctaW1hZScsICc8aW5maWxlLm1hZT4nLCAnLW9tYWUnLCAnPG91dGZpbGUubWFlPic=

> <r_lp_tautomer_probability>
1

> <r_epik_Ionization_Penalty>
0.174318

> <r_epik_Ionization_Penalty_Charging>
0.174302

> <r_epik_Ionization_Penalty_Neutral>
1.62778e-05

> <r_epik_State_Penalty>
0.163722

> <r_epik_Charging_Adjusted_Penalty>
0.338024

> <i_epik_Tot_Q>
1

> <i_epik_Tot_abs_Q>
1

> <r_epik_Metal_State_Penalty>
0.163727

> <b_epik_Metal_Only>
0

> <s_lp_Force_Field>
OPLS_2005

> <r_lp_Energy>
17.5594

> <b_lp_Chiralities_Consistent>
1

> <s_lp_Variant>
AV-unprocessed.smi:3135-2

> <Gold.Version>
5.8.1

> <Gold.Id.Protein>
6NUR|6NUR_protein|mol2

> <Gold.PLP.Fitness>
39.1233

> <Gold.PLP.PLP>
-29.3036

> <Gold.PLP.part.hbond>
-2.0000

> <Gold.PLP.part.metal>
0.0000

> <Gold.PLP.part.buried>
-1.8660

> <Gold.PLP.part.nonpolar>
-25.2201

> <Gold.PLP.part.repulsive>
0.1553

> <Gold.PLP.ligand.clash>
0.0000

> <Gold.PLP.ligand.torsion>
1.7820

> <Gold.PLP.Chemscore.Hbond>
3.0000

> <Gold.PLP.Chemscore.CHOScore>
1.0000

> <Gold.PLP.Chemscore.Metal>
0.0000

> <Gold.Chemscore.Hbonds>
donor molecule, donor type, donor heavy atom, donor atom, acceptor molecule, acceptor atom, score
      L1  H     9    24       P1  7957  1.00
      L1  H    12    38       P1 10175  2.00
      L1  C    17    37       P1  8028  1.00

> <Gold.PLP.Chemscore.Internal.Correction>
1.3836

> <Gold.Rescore>
     Score         DG    S(hbond)    S(metal)    S(lipo)     H(rot)  DE(clash)    DE(int)     intcor
     13.55     -15.36       1.96        0.00      71.29       1.96       0.05       1.76       ----

> <Gold.Chemscore.Fitness>
13.5545

> <Gold.Chemscore.DG>
-15.3626

> <Gold.Chemscore.ZeroCoef>
-5.4800

> <Gold.Chemscore.Hbond>
1.9603

> <Gold.Chemscore.Metal>
0.0000

> <Gold.Chemscore.Lipo>
71.2910

> <Gold.Chemscore.Internal_Hbond>
0.0000

> <Gold.Chemscore.DEClash>
0.0457

> <Gold.Chemscore.DEInternal>
1.7624

> <Gold.Chemscore.Rot>
1.9555

> <Gold.Chemscore.Internal.Correction>
   9.000000E+99

> <Gold.Chemscore.Hbonds>
donor molecule, donor type, donor heavy atom, donor atom, acceptor molecule, acceptor atom, score
      L1  H     9    24       P1  7957  0.94
      L1  H    12    38       P1 10175  1.00

> <Gold.Chemscore.Hbond.Weighted>
-6.5476

> <Gold.Chemscore.Metal.Weighted>
-0.0000

> <Gold.Chemscore.Lipo.Weighted>
-8.3410

> <Gold.Chemscore.Internal_Hbond.Weighted>
0.0000

> <Gold.Chemscore.DEClash.Weighted>
0.0457

> <Gold.Chemscore.DEInternal.Weighted>
1.7624

> <Gold.Chemscore.Rot.Weighted>
5.0060

> <Gold.Chemscore.Internal.Correction.Weighted>
   9.000000E+99

> <Gold.Protein.RotatedTorsions>
[ 6907 6896 6895 6894 ] final    2.11 input  -60.11 | X-H torsion
[ 7974 7965 7964 7962 ] final   71.64 input  175.53 | X-H torsion
[ 8008 7997 7996 7995 ] final  -77.60 input   59.86 | X-H torsion
[ 10167 10162 10161 10158 ] final   54.18 input  -65.29 | X-H torsion
[ 10718 10713 10712 10709 ] final  -52.00 input   66.30 | X-H torsion
[ 10763 10752 10751 10750 ] final  -63.17 input  -60.55 | X-H torsion
[ 11005 11000 10999 10996 ] final  141.88 input  -57.11 | X-H torsion

> <Gold.Protein.ActiveResidues>
 VAL166  LYS551  ARG553  GLY616  TRP617  ASP618  TYR619  PRO620  LYS621  CYS622 
 ASP623  PHE694  ASN695  SER759  ASP760  ASP761  ALA762  ILE779  LEU786  VAL792 
 PHE793  MET794  SER795  GLU796  ALA797  LYS798  CYS799  TRP800  GLU811  SER814 

> <Gold.Protein.RotatedAtoms>
  151.6035  135.1045  160.0065 H   0  0  0  0  0  0  0  0  0  0  0  0  # atno 6907 bound_to 6896
  152.4245  133.7168  159.6521 H   0  0  0  0  0  0  0  0  0  0  0  0  # atno 6908 bound_to 6896
  150.8134  133.8308  159.3194 H   0  0  0  0  0  0  0  0  0  0  0  0  # atno 6909 bound_to 6896
  145.7633  139.2810  143.1363 H   0  0  0  0  0  0  0  0  0  0  0  0  # atno 7974 bound_to 7965
  154.5611  140.0708  156.8820 H   0  0  0  0  0  0  0  0  0  0  0  0  # atno 8008 bound_to 7997
  155.2810  140.3371  155.4240 H   0  0  0  0  0  0  0  0  0  0  0  0  # atno 8009 bound_to 7997
  156.2043  140.1734  156.7819 H   0  0  0  0  0  0  0  0  0  0  0  0  # atno 8010 bound_to 7997
  140.2329  144.3668  150.6408 H   0  0  0  0  0  0  0  0  0  0  0  0  # atno 10167 bound_to 10162
  156.1660  130.4149  149.9719 H   0  0  0  0  0  0  0  0  0  0  0  0  # atno 10718 bound_to 10713
  154.3109  135.6215  153.5465 H   0  0  0  0  0  0  0  0  0  0  0  0  # atno 10763 bound_to 10752
  152.9829  135.5701  154.5178 H   0  0  0  0  0  0  0  0  0  0  0  0  # atno 10764 bound_to 10752
  154.4827  135.2864  155.1534 H   0  0  0  0  0  0  0  0  0  0  0  0  # atno 10765 bound_to 10752
  140.0435  134.9293  157.0886 H   0  0  0  0  0  0  0  0  0  0  0  0  # atno 11005 bound_to 11000
  146.0242  140.8319  142.9908 LP  0  0  0  0  0  0  0  0  0  0  0  0  # atno 17320 bound_to 7965
  144.6826  140.2674  143.7310 LP  0  0  0  0  0  0  0  0  0  0  0  0  # atno 17321 bound_to 7965
  140.6172  143.2173  151.6768 LP  0  0  0  0  0  0  0  0  0  0  0  0  # atno 17342 bound_to 10162
  139.5104  144.3545  152.0621 LP  0  0  0  0  0  0  0  0  0  0  0  0  # atno 17343 bound_to 10162
  156.7534  130.9124  151.3638 LP  0  0  0  0  0  0  0  0  0  0  0  0  # atno 17370 bound_to 10713
  157.6768  130.9102  150.0170 LP  0  0  0  0  0  0  0  0  0  0  0  0  # atno 17371 bound_to 10713
  140.4031  134.2061  155.7163 LP  0  0  0  0  0  0  0  0  0  0  0  0  # atno 17394 bound_to 11000
  141.1895  133.8237  157.0955 LP  0  0  0  0  0  0  0  0  0  0  0  0  # atno 17395 bound_to 11000

$$$$
