AV-unprocessed.smi:3058|AV-procd|sdf|11675|dock3
  -GOLD-   2272017 83D 1   1.00000     0.00000
 Structure written by MMmdl.
 39 41  0  0  0  0  0  0  0  0  2 V2000
  150.0795  141.4966  158.6881 O   0  0  0  0  0  0  0  0  0  0  0  0
  149.7765  142.5370  158.1026 C   0  0  0  0  0  0  0  0  0  0  0  0
  148.9271  142.5669  157.0640 N   0  0  0  0  0  0  0  0  0  0  0  0
  148.2495  141.4036  156.5044 C   0  0  0  0  0  0  0  0  0  0  0  0
  148.6765  141.1455  155.0499 C   0  0  0  0  0  0  0  0  0  0  0  0
  149.6937  140.0264  154.9432 C   0  0  0  0  0  0  0  0  0  0  0  0
  150.9464  140.1317  155.5874 C   0  0  0  0  0  0  0  0  0  0  0  0
  151.8728  139.0741  155.4739 C   0  0  0  0  0  0  0  0  0  0  0  0
  151.5250  137.9346  154.7199 C   0  0  0  0  0  0  0  0  0  0  0  0
  150.3166  137.8692  154.1185 N   0  3  0  0  0  0  0  0  0  0  0  0
  149.4022  138.8605  154.2025 C   0  0  0  0  0  0  0  0  0  0  0  0
  150.3899  143.8873  158.5138 C   0  0  2  0  0  0  0  0  0  0  0  0
  151.5867  144.3466  157.6441 C   0  0  0  0  0  0  0  0  0  0  0  0
  152.6809  144.6399  158.6880 C   0  0  2  0  0  0  0  0  0  0  0  0
  153.2181  143.3134  159.2572 C   0  0  0  0  0  0  0  0  0  0  0  0
  152.0710  142.8482  160.1728 C   0  0  0  0  0  0  0  0  0  0  0  0
  150.9923  143.9300  159.9435 C   0  0  1  0  0  0  0  0  0  0  0  0
  151.8637  145.1797  159.8562 C   0  0  0  0  0  0  0  0  0  0  0  0
  148.7353  143.4603  156.6339 H   0  0  0  0  0  0  0  0  0  0  0  0
  148.4455  140.5263  157.1238 H   0  0  0  0  0  0  0  0  0  0  0  0
  147.1752  141.5830  156.5511 H   0  0  0  0  0  0  0  0  0  0  0  0
  147.8058  140.8932  154.4431 H   0  0  0  0  0  0  0  0  0  0  0  0
  149.1027  142.0497  154.6128 H   0  0  0  0  0  0  0  0  0  0  0  0
  151.1953  141.0115  156.1634 H   0  0  0  0  0  0  0  0  0  0  0  0
  152.8361  139.1367  155.9592 H   0  0  0  0  0  0  0  0  0  0  0  0
  152.1711  137.0799  154.5811 H   0  0  0  0  0  0  0  0  0  0  0  0
  148.4720  138.6908  153.6797 H   0  0  0  0  0  0  0  0  0  0  0  0
  149.6100  144.6484  158.4455 H   0  0  0  0  0  0  0  0  0  0  0  0
  151.9165  143.6136  156.9066 H   0  0  0  0  0  0  0  0  0  0  0  0
  151.3272  145.2555  157.0996 H   0  0  0  0  0  0  0  0  0  0  0  0
  153.4630  145.3070  158.3243 H   0  0  0  0  0  0  0  0  0  0  0  0
  153.4419  142.5901  158.4722 H   0  0  0  0  0  0  0  0  0  0  0  0
  154.1288  143.4744  159.8352 H   0  0  0  0  0  0  0  0  0  0  0  0
  151.7372  141.8343  159.9559 H   0  0  0  0  0  0  0  0  0  0  0  0
  152.3966  142.8579  161.2138 H   0  0  0  0  0  0  0  0  0  0  0  0
  150.2383  143.9667  160.7304 H   0  0  0  0  0  0  0  0  0  0  0  0
  152.4581  145.3601  160.7539 H   0  0  0  0  0  0  0  0  0  0  0  0
  151.3044  146.0846  159.6117 H   0  0  0  0  0  0  0  0  0  0  0  0
  150.0845  137.0351  153.5784 H   0  0  0  0  0  0  0  0  0  0  0  0
  1  2  2  0  0  0  0
  2  3  1  0  0  0  0
  2 12  1  0  0  0  0
  3  4  1  0  0  0  0
  3 19  1  0  0  0  0
  4  5  1  0  0  0  0
  4 20  1  0  0  0  0
  4 21  1  0  0  0  0
  5  6  1  0  0  0  0
  5 22  1  0  0  0  0
  5 23  1  0  0  0  0
  6 11  1  0  0  0  0
  6  7  2  0  0  0  0
  7  8  1  0  0  0  0
  7 24  1  0  0  0  0
  8  9  2  0  0  0  0
  8 25  1  0  0  0  0
  9 10  1  0  0  0  0
  9 26  1  0  0  0  0
 10 11  2  0  0  0  0
 10 39  1  0  0  0  0
 11 27  1  0  0  0  0
 12 17  1  0  0  0  0
 12 13  1  0  0  0  0
 12 28  1  0  0  0  0
 13 14  1  0  0  0  0
 13 29  1  0  0  0  0
 13 30  1  0  0  0  0
 14 18  1  0  0  0  0
 14 15  1  0  0  0  0
 14 31  1  0  0  0  0
 15 16  1  0  0  0  0
 15 32  1  0  0  0  0
 15 33  1  0  0  0  0
 16 17  1  0  0  0  0
 16 34  1  0  0  0  0
 16 35  1  0  0  0  0
 17 18  1  0  0  0  0
 17 36  1  0  0  0  0
 18 37  1  0  0  0  0
 18 38  1  0  0  0  0
M  CHG  1  10   1
M  END
> <s_m_source_file>
AV-unprocessed.smi

> <i_m_source_file_index>
3058

> <i_lp_mmshare_version>
43012

> <i_f3d_flags>
0

> <s_epik_input>
W0NIMl0xW0NIMl1bQ0BIXShbQ0gyXTIpW0NAQEhdKFtDSDJdW0NAQEhdMTIpQyg9TylbTkhdW0NIMl1bQ0gyXWMzW2NIXVtjSF1bY0hdbltjSF0z

> <s_epik_cmdline>
J2VwaWtfcHl0aG9uJywgJy1waCcsICc3LjAnLCAnLXRuJywgJzgnLCAnLW1hJywgJzIwMCcsICctbWV0YWxfYmluZGluZycsICctaW1hZScsICc8aW5maWxlLm1hZT4nLCAnLW9tYWUnLCAnPG91dGZpbGUubWFlPic=

> <r_epik_Ionization_Penalty>
2.24375

> <r_epik_Ionization_Penalty_Charging>
2.24375

> <r_epik_Ionization_Penalty_Neutral>
1.89995e-08

> <r_epik_State_Penalty>
2.39035

> <r_epik_Charging_Adjusted_Penalty>
4.63411

> <i_epik_Tot_Q>
1

> <i_epik_Tot_abs_Q>
1

> <r_epik_Metal_State_Penalty>
2.40369

> <b_epik_Metal_Only>
0

> <s_lp_Force_Field>
OPLS_2005

> <r_lp_Energy>
54.0755

> <b_lp_Chiralities_Consistent>
1

> <s_lp_Variant>
AV-unprocessed.smi:3058-7

> <Gold.Version>
5.8.1

> <Gold.Id.Protein>
6NUR|6NUR_protein|mol2

> <Gold.PLP.Fitness>
52.3349

> <Gold.PLP.PLP>
-45.0523

> <Gold.PLP.part.hbond>
-2.2873

> <Gold.PLP.part.metal>
0.0000

> <Gold.PLP.part.buried>
-3.1714

> <Gold.PLP.part.nonpolar>
-40.2202

> <Gold.PLP.part.repulsive>
0.1014

> <Gold.PLP.ligand.clash>
0.0000

> <Gold.PLP.ligand.torsion>
0.8644

> <Gold.PLP.Chemscore.Hbond>
3.0000

> <Gold.PLP.Chemscore.CHOScore>
0.0000

> <Gold.PLP.Chemscore.Metal>
0.0000

> <Gold.Chemscore.Hbonds>
donor molecule, donor type, donor heavy atom, donor atom, acceptor molecule, acceptor atom, score
      L1  H     3    19       P1  8028  1.00
      L1  H    10    39       P1  7948  1.24

> <Gold.PLP.Chemscore.Internal.Correction>
0.0113

> <Gold.Rescore>
     Score         DG    S(hbond)    S(metal)    S(lipo)     H(rot)  DE(clash)    DE(int)     intcor
     20.09     -22.45       1.78        0.00     126.18       1.45       0.04       2.32       ----

> <Gold.Chemscore.Fitness>
20.0891

> <Gold.Chemscore.DG>
-22.4543

> <Gold.Chemscore.ZeroCoef>
-5.4800

> <Gold.Chemscore.Hbond>
1.7769

> <Gold.Chemscore.Metal>
0.0000

> <Gold.Chemscore.Lipo>
126.1849

> <Gold.Chemscore.Internal_Hbond>
0.0000

> <Gold.Chemscore.DEClash>
0.0427

> <Gold.Chemscore.DEInternal>
2.3225

> <Gold.Chemscore.Rot>
1.4548

> <Gold.Chemscore.Internal.Correction>
   9.000000E+99

> <Gold.Chemscore.Hbonds>
donor molecule, donor type, donor heavy atom, donor atom, acceptor molecule, acceptor atom, score
      L1  H     3    19       P1  8028  0.68
      L1  H    10    39       P1  7948  0.15

> <Gold.Chemscore.Hbond.Weighted>
-5.9349

> <Gold.Chemscore.Metal.Weighted>
-0.0000

> <Gold.Chemscore.Lipo.Weighted>
-14.7636

> <Gold.Chemscore.Internal_Hbond.Weighted>
0.0000

> <Gold.Chemscore.DEClash.Weighted>
0.0427

> <Gold.Chemscore.DEInternal.Weighted>
2.3225

> <Gold.Chemscore.Rot.Weighted>
3.7242

> <Gold.Chemscore.Internal.Correction.Weighted>
   9.000000E+99

> <Gold.Protein.RotatedTorsions>
[ 6907 6896 6895 6894 ] final  107.25 input  -60.11 | X-H torsion
[ 7974 7965 7964 7962 ] final   10.27 input  175.53 | X-H torsion
[ 8008 7997 7996 7995 ] final  -12.05 input   59.86 | X-H torsion
[ 10167 10162 10161 10158 ] final  -19.40 input  -65.29 | X-H torsion
[ 10718 10713 10712 10709 ] final  -96.16 input   66.30 | X-H torsion
[ 10763 10752 10751 10750 ] final  -99.39 input  -60.55 | X-H torsion
[ 11005 11000 10999 10996 ] final   34.23 input  -57.11 | X-H torsion

> <Gold.Protein.ActiveResidues>
 VAL166  LYS551  ARG553  GLY616  TRP617  ASP618  TYR619  PRO620  LYS621  CYS622 
 ASP623  PHE694  ASN695  SER759  ASP760  ASP761  ALA762  ILE779  LEU786  VAL792 
 PHE793  MET794  SER795  GLU796  ALA797  LYS798  CYS799  TRP800  GLU811  SER814 

> <Gold.Protein.RotatedAtoms>
  152.5162  133.9262  159.7558 H   0  0  0  0  0  0  0  0  0  0  0  0  # atno 6907 bound_to 6896
  150.9623  133.6424  159.2759 H   0  0  0  0  0  0  0  0  0  0  0  0  # atno 6908 bound_to 6896
  151.3664  135.0919  159.9504 H   0  0  0  0  0  0  0  0  0  0  0  0  # atno 6909 bound_to 6896
  146.2391  139.9660  142.8453 H   0  0  0  0  0  0  0  0  0  0  0  0  # atno 7974 bound_to 7965
  154.5411  140.2286  155.8640 H   0  0  0  0  0  0  0  0  0  0  0  0  # atno 8008 bound_to 7997
  156.1859  140.3089  155.9199 H   0  0  0  0  0  0  0  0  0  0  0  0  # atno 8009 bound_to 7997
  155.3256  140.0442  157.3031 H   0  0  0  0  0  0  0  0  0  0  0  0  # atno 8010 bound_to 7997
  140.7268  143.4822  151.0102 H   0  0  0  0  0  0  0  0  0  0  0  0  # atno 10167 bound_to 10162
  156.0057  130.5139  150.6184 H   0  0  0  0  0  0  0  0  0  0  0  0  # atno 10718 bound_to 10713
  154.7494  135.4974  153.9261 H   0  0  0  0  0  0  0  0  0  0  0  0  # atno 10763 bound_to 10752
  153.1126  135.6713  153.9481 H   0  0  0  0  0  0  0  0  0  0  0  0  # atno 10764 bound_to 10752
  153.9236  135.3085  155.3426 H   0  0  0  0  0  0  0  0  0  0  0  0  # atno 10765 bound_to 10752
  140.2550  134.3259  155.7877 H   0  0  0  0  0  0  0  0  0  0  0  0  # atno 11005 bound_to 11000
  145.1726  140.9728  143.4313 LP  0  0  0  0  0  0  0  0  0  0  0  0  # atno 17320 bound_to 7965
  145.0014  139.3594  143.6165 LP  0  0  0  0  0  0  0  0  0  0  0  0  # atno 17321 bound_to 7965
  139.8522  143.7424  152.3177 LP  0  0  0  0  0  0  0  0  0  0  0  0  # atno 17342 bound_to 10162
  139.7610  144.7506  151.0364 LP  0  0  0  0  0  0  0  0  0  0  0  0  # atno 17343 bound_to 10162
  157.4004  131.0809  151.1314 LP  0  0  0  0  0  0  0  0  0  0  0  0  # atno 17370 bound_to 10713
  157.1977  130.6380  149.5727 LP  0  0  0  0  0  0  0  0  0  0  0  0  # atno 17371 bound_to 10713
  141.2197  133.7376  156.9097 LP  0  0  0  0  0  0  0  0  0  0  0  0  # atno 17394 bound_to 11000
  140.1520  134.9223  157.2605 LP  0  0  0  0  0  0  0  0  0  0  0  0  # atno 17395 bound_to 11000

$$$$
