AV-unprocessed.smi:2903|AV-procd|sdf|11159|dock5
  -GOLD-   2272016 43D 1   1.00000     0.00000
 Structure written by MMmdl.
 40 41  0  0  0  0  0  0  0  0  1 V2000
  156.0537  132.5548  163.6917 C   0  0  0  0  0  0  0  0  0  0  0  0
  155.9937  133.9077  164.3985 C   0  0  0  0  0  0  0  0  0  0  0  0
  156.2988  133.9701  165.5888 O   0  0  0  0  0  0  0  0  0  0  0  0
  155.5654  135.0867  163.5973 C   0  0  0  0  0  0  0  0  0  0  0  0
  155.2308  136.3248  164.1889 C   0  0  0  0  0  0  0  0  0  0  0  0
  154.8324  137.3942  163.3641 C   0  0  0  0  0  0  0  0  0  0  0  0
  154.7758  137.2116  161.9655 C   0  0  0  0  0  0  0  0  0  0  0  0
  154.3560  138.3494  161.2278 N   0  0  0  0  0  0  0  0  0  0  0  0
  154.6668  139.6422  161.4362 C   0  0  0  0  0  0  0  0  0  0  0  0
  155.3706  140.0588  162.3562 O   0  0  0  0  0  0  0  0  0  0  0  0
  154.0630  140.6302  160.4420 C   0  0  0  0  0  0  0  0  0  0  0  0
  153.7041  141.8138  161.1413 O   0  0  0  0  0  0  0  0  0  0  0  0
  152.5678  142.4830  160.6119 C   0  0  0  0  0  0  0  0  0  0  0  0
  152.9023  143.1167  159.2454 C   0  0  0  0  0  0  0  0  0  0  0  0
  151.7293  143.9586  158.7165 C   0  0  0  0  0  0  0  0  0  0  0  0
  151.3044  145.0295  159.7341 C   0  0  0  0  0  0  0  0  0  0  0  0
  150.9744  144.4006  161.0970 C   0  0  0  0  0  0  0  0  0  0  0  0
  152.1544  143.5672  161.6223 C   0  0  0  0  0  0  0  0  0  0  0  0
  155.0993  136.0236  161.3995 N   0  0  0  0  0  0  0  0  0  0  0  0
  155.4800  134.9981  162.1905 C   0  0  0  0  0  0  0  0  0  0  0  0
  156.7519  132.5914  162.8551 H   0  0  0  0  0  0  0  0  0  0  0  0
  155.0690  132.2762  163.3160 H   0  0  0  0  0  0  0  0  0  0  0  0
  156.3878  131.7783  164.3805 H   0  0  0  0  0  0  0  0  0  0  0  0
  155.2711  136.4745  165.2575 H   0  0  0  0  0  0  0  0  0  0  0  0
  154.5729  138.3452  163.8068 H   0  0  0  0  0  0  0  0  0  0  0  0
  153.7544  138.1600  160.4395 H   0  0  0  0  0  0  0  0  0  0  0  0
  154.7948  140.8363  159.6605 H   0  0  0  0  0  0  0  0  0  0  0  0
  153.1841  140.1895  159.9683 H   0  0  0  0  0  0  0  0  0  0  0  0
  151.7371  141.7830  160.5032 H   0  0  0  0  0  0  0  0  0  0  0  0
  153.7868  143.7475  159.3421 H   0  0  0  0  0  0  0  0  0  0  0  0
  153.1510  142.3473  158.5148 H   0  0  0  0  0  0  0  0  0  0  0  0
  152.0069  144.4319  157.7743 H   0  0  0  0  0  0  0  0  0  0  0  0
  150.8828  143.3066  158.4972 H   0  0  0  0  0  0  0  0  0  0  0  0
  152.1064  145.7590  159.8534 H   0  0  0  0  0  0  0  0  0  0  0  0
  150.4406  145.5783  159.3583 H   0  0  0  0  0  0  0  0  0  0  0  0
  150.7207  145.1806  161.8154 H   0  0  0  0  0  0  0  0  0  0  0  0
  150.0918  143.7667  161.0039 H   0  0  0  0  0  0  0  0  0  0  0  0
  151.8868  143.1056  162.5733 H   0  0  0  0  0  0  0  0  0  0  0  0
  153.0014  144.2240  161.8250 H   0  0  0  0  0  0  0  0  0  0  0  0
  155.7210  134.0805  161.6738 H   0  0  0  0  0  0  0  0  0  0  0  0
  1  2  1  0  0  0  0
  1 21  1  0  0  0  0
  1 22  1  0  0  0  0
  1 23  1  0  0  0  0
  2  3  2  0  0  0  0
  2  4  1  0  0  0  0
  4 20  1  0  0  0  0
  4  5  2  0  0  0  0
  5  6  1  0  0  0  0
  5 24  1  0  0  0  0
  6  7  2  0  0  0  0
  6 25  1  0  0  0  0
  7  8  1  0  0  0  0
  7 19  1  0  0  0  0
  8  9  1  0  0  0  0
  8 26  1  0  0  0  0
  9 10  2  0  0  0  0
  9 11  1  0  0  0  0
 11 12  1  0  0  0  0
 11 27  1  0  0  0  0
 11 28  1  0  0  0  0
 12 13  1  0  0  0  0
 13 18  1  0  0  0  0
 13 14  1  0  0  0  0
 13 29  1  0  0  0  0
 14 15  1  0  0  0  0
 14 30  1  0  0  0  0
 14 31  1  0  0  0  0
 15 16  1  0  0  0  0
 15 32  1  0  0  0  0
 15 33  1  0  0  0  0
 16 17  1  0  0  0  0
 16 34  1  0  0  0  0
 16 35  1  0  0  0  0
 17 18  1  0  0  0  0
 17 36  1  0  0  0  0
 17 37  1  0  0  0  0
 18 38  1  0  0  0  0
 18 39  1  0  0  0  0
 19 20  2  0  0  0  0
 20 40  1  0  0  0  0
M  END
> <s_m_source_file>
AV-unprocessed.smi

> <i_m_source_file_index>
2903

> <i_lp_mmshare_version>
43012

> <i_f3d_flags>
0

> <s_epik_input>
W0NIM11DKD1PKWMxW2NIXVtjSF1jKG5bY0hdMSlbTkhdQyg9TylbQ0gyXU9bQ0hdMltDSDJdW0NIMl1bQ0gyXVtDSDJdW0NIMl0y

> <s_epik_cmdline>
J2VwaWtfcHl0aG9uJywgJy1waCcsICc3LjAnLCAnLXRuJywgJzgnLCAnLW1hJywgJzIwMCcsICctbWV0YWxfYmluZGluZycsICctaW1hZScsICc8aW5maWxlLm1hZT4nLCAnLW9tYWUnLCAnPG91dGZpbGUubWFlPic=

> <r_lp_tautomer_probability>
1

> <r_epik_Ionization_Penalty>
3.51143e-05

> <r_epik_Ionization_Penalty_Charging>
0

> <r_epik_Ionization_Penalty_Neutral>
3.51143e-05

> <r_epik_State_Penalty>
-0

> <r_epik_Charging_Adjusted_Penalty>
0

> <i_epik_Tot_Q>
0

> <i_epik_Tot_abs_Q>
0

> <r_epik_Metal_State_Penalty>
-0

> <b_epik_Metal_Only>
0

> <s_lp_Force_Field>
OPLS_2005

> <r_lp_Energy>
19.6274

> <b_lp_Chiralities_Consistent>
1

> <s_lp_Variant>
AV-unprocessed.smi:2903-1

> <Gold.Version>
5.8.1

> <Gold.Id.Protein>
6NUR|6NUR_protein|mol2

> <Gold.PLP.Fitness>
45.7831

> <Gold.PLP.PLP>
-47.6723

> <Gold.PLP.part.hbond>
0.0000

> <Gold.PLP.part.metal>
0.0000

> <Gold.PLP.part.buried>
-6.6263

> <Gold.PLP.part.nonpolar>
-42.5177

> <Gold.PLP.part.repulsive>
0.4968

> <Gold.PLP.ligand.clash>
0.0000

> <Gold.PLP.ligand.torsion>
0.9536

> <Gold.PLP.Chemscore.Hbond>
0.0000

> <Gold.PLP.Chemscore.CHOScore>
0.0000

> <Gold.PLP.Chemscore.Metal>
0.0000

> <Gold.PLP.Chemscore.Internal.Correction>
0.0180

> <Gold.Rescore>
     Score         DG    S(hbond)    S(metal)    S(lipo)     H(rot)  DE(clash)    DE(int)     intcor
     13.52     -15.89       0.00        0.00     120.15       1.43       0.03       2.34       ----

> <Gold.Chemscore.Fitness>
13.5237

> <Gold.Chemscore.DG>
-15.8863

> <Gold.Chemscore.ZeroCoef>
-5.4800

> <Gold.Chemscore.Hbond>
0.0000

> <Gold.Chemscore.Metal>
0.0000

> <Gold.Chemscore.Lipo>
120.1525

> <Gold.Chemscore.Internal_Hbond>
0.0000

> <Gold.Chemscore.DEClash>
0.0272

> <Gold.Chemscore.DEInternal>
2.3353

> <Gold.Chemscore.Rot>
1.4264

> <Gold.Chemscore.Internal.Correction>
   9.000000E+99

> <Gold.Chemscore.Hbond.Weighted>
-0.0000

> <Gold.Chemscore.Metal.Weighted>
-0.0000

> <Gold.Chemscore.Lipo.Weighted>
-14.0578

> <Gold.Chemscore.Internal_Hbond.Weighted>
0.0000

> <Gold.Chemscore.DEClash.Weighted>
0.0272

> <Gold.Chemscore.DEInternal.Weighted>
2.3353

> <Gold.Chemscore.Rot.Weighted>
3.6516

> <Gold.Chemscore.Internal.Correction.Weighted>
   9.000000E+99

> <Gold.Protein.RotatedTorsions>
[ 6907 6896 6895 6894 ] final  -47.46 input  -60.11 | X-H torsion
[ 7974 7965 7964 7962 ] final -101.25 input  175.53 | X-H torsion
[ 8008 7997 7996 7995 ] final  -95.91 input   59.86 | X-H torsion
[ 10167 10162 10161 10158 ] final   36.45 input  -65.29 | X-H torsion
[ 10718 10713 10712 10709 ] final -178.78 input   66.30 | X-H torsion
[ 10763 10752 10751 10750 ] final -111.29 input  -60.55 | X-H torsion
[ 11005 11000 10999 10996 ] final  -85.31 input  -57.11 | X-H torsion

> <Gold.Protein.ActiveResidues>
 VAL166  LYS551  ARG553  GLY616  TRP617  ASP618  TYR619  PRO620  LYS621  CYS622 
 ASP623  PHE694  ASN695  SER759  ASP760  ASP761  ALA762  ILE779  LEU786  VAL792 
 PHE793  MET794  SER795  GLU796  ALA797  LYS798  CYS799  TRP800  GLU811  SER814 

> <Gold.Protein.RotatedAtoms>
  150.9006  134.8417  159.7356 H   0  0  0  0  0  0  0  0  0  0  0  0  # atno 6907 bound_to 6896
  152.4890  134.4509  159.9584 H   0  0  0  0  0  0  0  0  0  0  0  0  # atno 6908 bound_to 6896
  151.4561  133.3565  159.2837 H   0  0  0  0  0  0  0  0  0  0  0  0  # atno 6909 bound_to 6896
  145.2840  140.9334  143.2916 H   0  0  0  0  0  0  0  0  0  0  0  0  # atno 7974 bound_to 7965
  154.7675  140.0476  157.1024 H   0  0  0  0  0  0  0  0  0  0  0  0  # atno 8008 bound_to 7997
  154.9861  140.3107  155.4906 H   0  0  0  0  0  0  0  0  0  0  0  0  # atno 8009 bound_to 7997
  156.2915  140.2227  156.4963 H   0  0  0  0  0  0  0  0  0  0  0  0  # atno 8010 bound_to 7997
  140.4127  144.1570  150.6140 H   0  0  0  0  0  0  0  0  0  0  0  0  # atno 10167 bound_to 10162
  156.8493  130.9713  151.3093 H   0  0  0  0  0  0  0  0  0  0  0  0  # atno 10718 bound_to 10713
  154.8292  135.4533  154.1016 H   0  0  0  0  0  0  0  0  0  0  0  0  # atno 10763 bound_to 10752
  153.2303  135.6905  153.7904 H   0  0  0  0  0  0  0  0  0  0  0  0  # atno 10764 bound_to 10752
  153.7289  135.3330  155.3258 H   0  0  0  0  0  0  0  0  0  0  0  0  # atno 10765 bound_to 10752
  141.1642  133.7392  156.8996 H   0  0  0  0  0  0  0  0  0  0  0  0  # atno 11005 bound_to 11000
  144.9229  139.4390  143.6532 LP  0  0  0  0  0  0  0  0  0  0  0  0  # atno 17320 bound_to 7965
  146.3207  139.8099  142.8948 LP  0  0  0  0  0  0  0  0  0  0  0  0  # atno 17321 bound_to 7965
  140.4620  143.2445  151.9206 LP  0  0  0  0  0  0  0  0  0  0  0  0  # atno 17342 bound_to 10162
  139.4782  144.5457  151.8461 LP  0  0  0  0  0  0  0  0  0  0  0  0  # atno 17343 bound_to 10162
  157.6312  130.8731  149.9278 LP  0  0  0  0  0  0  0  0  0  0  0  0  # atno 17370 bound_to 10713
  156.0837  130.3670  150.0530 LP  0  0  0  0  0  0  0  0  0  0  0  0  # atno 17371 bound_to 10713
  140.1591  134.9177  157.2692 LP  0  0  0  0  0  0  0  0  0  0  0  0  # atno 17394 bound_to 11000
  140.2632  134.3547  155.7399 LP  0  0  0  0  0  0  0  0  0  0  0  0  # atno 17395 bound_to 11000

$$$$
