AV-unprocessed.smi:1986|AV-procd|sdf|8052|dock5
  -GOLD-   2272010253D 1   1.00000     0.00000
 Structure written by MMmdl.
 48 49  0  0  0  0  0  0  0  0  2 V2000
  149.3624  132.0420  153.9047 C   0  0  0  0  0  0  0  0  0  0  0  0
  148.6616  133.1266  153.0674 C   0  0  0  0  0  0  0  0  0  0  0  0
  147.5733  133.9633  153.8070 C   0  0  1  0  0  0  0  0  0  0  0  0
  146.5386  132.9983  154.4429 C   0  0  0  0  0  0  0  0  0  0  0  0
  148.2400  134.7774  154.9640 C   0  0  0  0  0  0  0  0  0  0  0  0
  149.2717  135.7078  154.5091 N   0  0  0  0  0  0  0  0  0  0  0  0
  150.1454  136.3605  155.2886 C   0  0  0  0  0  0  0  0  0  0  0  0
  150.2435  136.1820  156.5022 O   0  0  0  0  0  0  0  0  0  0  0  0
  151.0372  137.3883  154.5832 C   0  0  0  0  0  0  0  0  0  0  0  0
  150.8251  138.7452  155.1053 N   0  0  0  0  0  0  0  0  0  0  0  0
  149.6323  139.3281  154.7064 N   0  0  0  0  0  0  0  0  0  0  0  0
  149.3370  140.5226  155.0945 C   0  0  0  0  0  0  0  0  0  0  0  0
  148.1463  141.0628  154.6749 O   0  0  0  0  0  0  0  0  0  0  0  0
  150.2308  141.2750  155.9473 C   0  0  0  0  0  0  0  0  0  0  0  0
  151.3890  140.6974  156.3349 C   0  0  0  0  0  0  0  0  0  0  0  0
  151.7542  139.3439  155.9143 C   0  0  0  0  0  0  0  0  0  0  0  0
  152.8030  138.7925  156.2512 O   0  0  0  0  0  0  0  0  0  0  0  0
  146.8655  134.8954  152.8519 N   0  3  0  0  0  0  0  0  0  0  0  0
  146.0444  134.2378  151.7969 C   0  0  0  0  0  0  0  0  0  0  0  0
  145.5781  135.2744  150.7630 C   0  0  0  0  0  0  0  0  0  0  0  0
  144.8126  136.2767  151.4166 O   0  0  0  0  0  0  0  0  0  0  0  0
  145.5798  136.9789  152.3847 C   0  0  0  0  0  0  0  0  0  0  0  0
  146.0838  136.0069  153.4664 C   0  0  0  0  0  0  0  0  0  0  0  0
  148.1973  141.0799  153.7316 H   0  0  0  0  0  0  0  0  0  0  0  0
  150.1042  131.5191  153.3006 H   0  0  0  0  0  0  0  0  0  0  0  0
  148.6617  131.2918  154.2700 H   0  0  0  0  0  0  0  0  0  0  0  0
  149.8863  132.4638  154.7620 H   0  0  0  0  0  0  0  0  0  0  0  0
  149.4387  133.7850  152.6802 H   0  0  0  0  0  0  0  0  0  0  0  0
  148.2274  132.6370  152.1962 H   0  0  0  0  0  0  0  0  0  0  0  0
  146.9428  132.4879  155.3174 H   0  0  0  0  0  0  0  0  0  0  0  0
  146.2263  132.2170  153.7494 H   0  0  0  0  0  0  0  0  0  0  0  0
  145.6419  133.5258  154.7694 H   0  0  0  0  0  0  0  0  0  0  0  0
  147.4929  135.3135  155.5516 H   0  0  0  0  0  0  0  0  0  0  0  0
  148.7176  134.1002  155.6722 H   0  0  0  0  0  0  0  0  0  0  0  0
  149.2916  135.9090  153.5197 H   0  0  0  0  0  0  0  0  0  0  0  0
  152.0769  137.0824  154.7126 H   0  0  0  0  0  0  0  0  0  0  0  0
  150.8583  137.3753  153.5060 H   0  0  0  0  0  0  0  0  0  0  0  0
  149.9685  142.2745  156.2620 H   0  0  0  0  0  0  0  0  0  0  0  0
  152.0653  141.2486  156.9718 H   0  0  0  0  0  0  0  0  0  0  0  0
  146.6036  133.4620  151.2769 H   0  0  0  0  0  0  0  0  0  0  0  0
  145.1710  133.7593  152.2401 H   0  0  0  0  0  0  0  0  0  0  0  0
  146.4282  135.7210  150.2440 H   0  0  0  0  0  0  0  0  0  0  0  0
  144.9572  134.7963  150.0053 H   0  0  0  0  0  0  0  0  0  0  0  0
  146.4112  137.4938  151.9019 H   0  0  0  0  0  0  0  0  0  0  0  0
  144.9535  137.7484  152.8367 H   0  0  0  0  0  0  0  0  0  0  0  0
  145.2331  135.6089  154.0196 H   0  0  0  0  0  0  0  0  0  0  0  0
  146.6836  136.5832  154.1682 H   0  0  0  0  0  0  0  0  0  0  0  0
  147.6154  135.3550  152.3541 H   0  0  0  0  0  0  0  0  0  0  0  0
  1  2  1  0  0  0  0
  1 25  1  0  0  0  0
  1 26  1  0  0  0  0
  1 27  1  0  0  0  0
  2  3  1  0  0  0  0
  2 28  1  0  0  0  0
  2 29  1  0  0  0  0
  3  4  1  0  0  0  0
  3  5  1  0  0  0  0
  3 18  1  0  0  0  0
  4 30  1  0  0  0  0
  4 31  1  0  0  0  0
  4 32  1  0  0  0  0
  5  6  1  0  0  0  0
  5 33  1  0  0  0  0
  5 34  1  0  0  0  0
  6  7  1  0  0  0  0
  6 35  1  0  0  0  0
  7  8  2  0  0  0  0
  7  9  1  0  0  0  0
  9 36  1  0  0  0  0
  9 37  1  0  0  0  0
  9 10  1  0  0  0  0
 10 11  1  0  0  0  0
 10 16  1  0  0  0  0
 11 12  2  0  0  0  0
 12 13  1  0  0  0  0
 12 14  1  0  0  0  0
 13 24  1  0  0  0  0
 14 38  1  0  0  0  0
 14 15  2  0  0  0  0
 15 39  1  0  0  0  0
 15 16  1  0  0  0  0
 16 17  2  0  0  0  0
 18 23  1  0  0  0  0
 18 19  1  0  0  0  0
 18 48  1  0  0  0  0
 19 20  1  0  0  0  0
 19 40  1  0  0  0  0
 19 41  1  0  0  0  0
 20 21  1  0  0  0  0
 20 42  1  0  0  0  0
 20 43  1  0  0  0  0
 21 22  1  0  0  0  0
 22 23  1  0  0  0  0
 22 44  1  0  0  0  0
 22 45  1  0  0  0  0
 23 46  1  0  0  0  0
 23 47  1  0  0  0  0
M  CHG  1  18   1
M  END
> <s_m_source_file>
AV-unprocessed.smi

> <i_m_source_file_index>
1986

> <i_lp_mmshare_version>
43012

> <i_f3d_flags>
0

> <s_epik_input>
W0NIMl0xW0NIMl1PW0NIMl1bQ0gyXU4xW0NAQF0oW0NIM10pKFtDSDJdW0NIM10pW0NIMl1bTkhdQyg9TylbQ0gyXW4yW25IXWMoPU8pW2NIXVtjSF1jMj1P

> <s_epik_cmdline>
J2VwaWtfcHl0aG9uJywgJy1waCcsICc3LjAnLCAnLXRuJywgJzgnLCAnLW1hJywgJzIwMCcsICctbWV0YWxfYmluZGluZycsICctaW1hZScsICc8aW5maWxlLm1hZT4nLCAnLW9tYWUnLCAnPG91dGZpbGUubWFlPic=

> <r_lp_tautomer_probability>
0.9996

> <r_epik_Ionization_Penalty>
2.73198

> <r_epik_Ionization_Penalty_Charging>
0.519658

> <r_epik_Ionization_Penalty_Neutral>
2.21233

> <r_epik_State_Penalty>
2.2852

> <r_epik_Charging_Adjusted_Penalty>
2.80486

> <i_epik_Tot_Q>
1

> <i_epik_Tot_abs_Q>
1

> <r_epik_Metal_State_Penalty>
2.2852

> <b_epik_Metal_Only>
0

> <s_lp_Force_Field>
OPLS_2005

> <r_lp_Energy>
43.5621

> <b_lp_Chiralities_Consistent>
1

> <s_lp_Variant>
AV-unprocessed.smi:1986-7

> <Gold.Version>
5.8.1

> <Gold.Id.Protein>
6NUR|6NUR_protein|mol2

> <Gold.PLP.Fitness>
50.0252

> <Gold.PLP.PLP>
-38.6961

> <Gold.PLP.part.hbond>
-3.0000

> <Gold.PLP.part.metal>
0.0000

> <Gold.PLP.part.buried>
-4.8552

> <Gold.PLP.part.nonpolar>
-30.3943

> <Gold.PLP.part.repulsive>
0.4033

> <Gold.PLP.ligand.clash>
0.0000

> <Gold.PLP.ligand.torsion>
0.4804

> <Gold.PLP.Chemscore.Hbond>
4.0000

> <Gold.PLP.Chemscore.CHOScore>
0.0000

> <Gold.PLP.Chemscore.Metal>
0.0000

> <Gold.Chemscore.Hbonds>
donor molecule, donor type, donor heavy atom, donor atom, acceptor molecule, acceptor atom, score
      L1  H     6    35       P1  7948  1.00
      L1  H    18    48       P1  7948  2.00
      P1  H  7997  8009       L1    17  0.70

> <Gold.PLP.Chemscore.Internal.Correction>
0.2899

> <Gold.Rescore>
     Score         DG    S(hbond)    S(metal)    S(lipo)     H(rot)  DE(clash)    DE(int)     intcor
     14.19     -14.53       2.94        0.00      62.22       3.15       0.02       0.32       ----

> <Gold.Chemscore.Fitness>
14.1907

> <Gold.Chemscore.DG>
-14.5345

> <Gold.Chemscore.ZeroCoef>
-5.4800

> <Gold.Chemscore.Hbond>
2.9447

> <Gold.Chemscore.Metal>
0.0000

> <Gold.Chemscore.Lipo>
62.2158

> <Gold.Chemscore.Internal_Hbond>
0.0000

> <Gold.Chemscore.DEClash>
0.0246

> <Gold.Chemscore.DEInternal>
0.3192

> <Gold.Chemscore.Rot>
3.1485

> <Gold.Chemscore.Internal.Correction>
   9.000000E+99

> <Gold.Chemscore.Hbonds>
donor molecule, donor type, donor heavy atom, donor atom, acceptor molecule, acceptor atom, score
      L1  H     6    35       P1  7948  0.65
      L1  H    18    48       P1  7948  1.00
      P1  H  7997  8009       L1    17  0.47

> <Gold.Chemscore.Hbond.Weighted>
-9.8354

> <Gold.Chemscore.Metal.Weighted>
-0.0000

> <Gold.Chemscore.Lipo.Weighted>
-7.2792

> <Gold.Chemscore.Internal_Hbond.Weighted>
0.0000

> <Gold.Chemscore.DEClash.Weighted>
0.0246

> <Gold.Chemscore.DEInternal.Weighted>
0.3192

> <Gold.Chemscore.Rot.Weighted>
8.0601

> <Gold.Chemscore.Internal.Correction.Weighted>
   9.000000E+99

> <Gold.Protein.RotatedTorsions>
[ 6907 6896 6895 6894 ] final  129.64 input  -60.11 | X-H torsion
[ 7974 7965 7964 7962 ] final   14.49 input  175.53 | X-H torsion
[ 8008 7997 7996 7995 ] final -142.08 input   59.86 | X-H torsion
[ 10167 10162 10161 10158 ] final  -15.44 input  -65.29 | X-H torsion
[ 10718 10713 10712 10709 ] final -160.05 input   66.30 | X-H torsion
[ 10763 10752 10751 10750 ] final   58.18 input  -60.55 | X-H torsion
[ 11005 11000 10999 10996 ] final  -35.20 input  -57.11 | X-H torsion

> <Gold.Protein.ActiveResidues>
 VAL166  LYS551  ARG553  GLY616  TRP617  ASP618  TYR619  PRO620  LYS621  CYS622 
 ASP623  PHE694  ASN695  SER759  ASP760  ASP761  ALA762  ILE779  LEU786  VAL792 
 PHE793  MET794  SER795  GLU796  ALA797  LYS798  CYS799  TRP800  GLU811  SER814 

> <Gold.Protein.RotatedAtoms>
  152.3604  133.6290  159.6010 H   0  0  0  0  0  0  0  0  0  0  0  0  # atno 6907 bound_to 6896
  150.7597  133.9432  159.3471 H   0  0  0  0  0  0  0  0  0  0  0  0  # atno 6908 bound_to 6896
  151.7271  135.0883  160.0345 H   0  0  0  0  0  0  0  0  0  0  0  0  # atno 6909 bound_to 6896
  146.2303  139.9033  142.8536 H   0  0  0  0  0  0  0  0  0  0  0  0  # atno 7974 bound_to 7965
  155.4884  140.0566  157.2957 H   0  0  0  0  0  0  0  0  0  0  0  0  # atno 8008 bound_to 7997
  154.4633  140.2006  156.0138 H   0  0  0  0  0  0  0  0  0  0  0  0  # atno 8009 bound_to 7997
  156.0929  140.3230  155.7844 H   0  0  0  0  0  0  0  0  0  0  0  0  # atno 8010 bound_to 7997
  140.7218  143.5218  150.9624 H   0  0  0  0  0  0  0  0  0  0  0  0  # atno 10167 bound_to 10162
  156.5767  130.8712  151.2853 H   0  0  0  0  0  0  0  0  0  0  0  0  # atno 10718 bound_to 10713
  152.9865  135.5616  154.5511 H   0  0  0  0  0  0  0  0  0  0  0  0  # atno 10763 bound_to 10752
  154.4947  135.2794  155.1470 H   0  0  0  0  0  0  0  0  0  0  0  0  # atno 10764 bound_to 10752
  154.2925  135.6323  153.5444 H   0  0  0  0  0  0  0  0  0  0  0  0  # atno 10765 bound_to 10752
  140.9777  133.7074  156.1630 H   0  0  0  0  0  0  0  0  0  0  0  0  # atno 11005 bound_to 11000
  145.2302  140.9970  143.3995 LP  0  0  0  0  0  0  0  0  0  0  0  0  # atno 17320 bound_to 7965
  144.9537  139.4055  143.6390 LP  0  0  0  0  0  0  0  0  0  0  0  0  # atno 17321 bound_to 7965
  139.8935  143.6923  152.3142 LP  0  0  0  0  0  0  0  0  0  0  0  0  # atno 17342 bound_to 10162
  139.7248  144.7595  151.0897 LP  0  0  0  0  0  0  0  0  0  0  0  0  # atno 17343 bound_to 10162
  157.7336  130.9733  150.1986 LP  0  0  0  0  0  0  0  0  0  0  0  0  # atno 17370 bound_to 10713
  156.2667  130.3717  149.8073 LP  0  0  0  0  0  0  0  0  0  0  0  0  # atno 17371 bound_to 10713
  140.7234  134.4333  157.5573 LP  0  0  0  0  0  0  0  0  0  0  0  0  # atno 17394 bound_to 11000
  139.8937  134.8724  156.2210 LP  0  0  0  0  0  0  0  0  0  0  0  0  # atno 17395 bound_to 11000

$$$$
