AV-unprocessed.smi:1570|AV-procd|sdf|6314|dock2
  -GOLD-   22720 6513D 1   1.00000     0.00000
 Structure written by MMmdl.
 51 53  0  0  0  0  0  0  0  0  1 V2000
  155.1069  140.5424  159.8162 C   0  0  0  0  0  0  0  0  0  0  0  0
  153.7122  140.7599  160.4161 C   0  0  0  0  0  0  0  0  0  0  0  0
  152.8432  141.4790  159.4879 N   0  0  0  0  0  0  0  0  0  0  0  0
  152.4295  141.0493  158.2726 C   0  0  0  0  0  0  0  0  0  0  0  0
  152.7148  139.9716  157.7502 O   0  0  0  0  0  0  0  0  0  0  0  0
  151.6576  142.0170  157.7242 N   0  0  0  0  0  0  0  0  0  0  0  0
  151.0079  141.9732  156.4151 C   0  0  0  0  0  0  0  0  0  0  0  0
  150.4500  140.5712  156.0992 C   0  0  2  0  0  0  0  0  0  0  0  0
  150.2673  140.4764  154.7006 O   0  0  0  0  0  0  0  0  0  0  0  0
  149.0703  140.3565  156.7541 C   0  0  0  0  0  0  0  0  0  0  0  0
  148.0199  141.2854  156.3322 N   0  0  0  0  0  0  0  0  0  0  0  0
  147.2363  141.7352  157.4758 C   0  0  0  0  0  0  0  0  0  0  0  0
  146.1539  142.7515  157.0705 C   0  0  2  0  0  0  0  0  0  0  0  0
  145.2751  143.1610  158.2571 C   0  0  0  0  0  0  0  0  0  0  0  0
  145.3122  142.1735  156.0747 O   0  0  0  0  0  0  0  0  0  0  0  0
  145.9893  141.6698  154.9222 C   0  0  1  0  0  0  0  0  0  0  0  0
  146.4715  142.8047  154.0026 C   0  0  0  0  0  0  0  0  0  0  0  0
  147.1161  140.7040  155.3406 C   0  0  0  0  0  0  0  0  0  0  0  0
  151.5920  143.1060  158.6054 C   0  0  0  0  0  0  0  0  0  0  0  0
  150.9444  144.3489  158.4955 C   0  0  0  0  0  0  0  0  0  0  0  0
  151.0838  145.2490  159.5776 C   0  0  0  0  0  0  0  0  0  0  0  0
  151.8500  144.8997  160.7198 C   0  0  0  0  0  0  0  0  0  0  0  0
  152.4942  143.6431  160.8036 C   0  0  0  0  0  0  0  0  0  0  0  0
  152.3380  142.7671  159.7152 C   0  0  0  0  0  0  0  0  0  0  0  0
  155.7501  140.0071  160.5148 H   0  0  0  0  0  0  0  0  0  0  0  0
  155.5884  141.4923  159.5820 H   0  0  0  0  0  0  0  0  0  0  0  0
  155.0543  139.9573  158.8978 H   0  0  0  0  0  0  0  0  0  0  0  0
  153.2656  139.7983  160.6729 H   0  0  0  0  0  0  0  0  0  0  0  0
  153.7894  141.3158  161.3508 H   0  0  0  0  0  0  0  0  0  0  0  0
  150.1899  142.6954  156.4321 H   0  0  0  0  0  0  0  0  0  0  0  0
  151.6821  142.3174  155.6299 H   0  0  0  0  0  0  0  0  0  0  0  0
  151.1577  139.8114  156.4283 H   0  0  0  0  0  0  0  0  0  0  0  0
  149.3681  140.2358  154.5356 H   0  0  0  0  0  0  0  0  0  0  0  0
  148.7360  139.3360  156.5607 H   0  0  0  0  0  0  0  0  0  0  0  0
  149.1981  140.4228  157.8358 H   0  0  0  0  0  0  0  0  0  0  0  0
  146.7687  140.8780  157.9629 H   0  0  0  0  0  0  0  0  0  0  0  0
  147.8945  142.1925  158.2155 H   0  0  0  0  0  0  0  0  0  0  0  0
  146.6280  143.6477  156.6694 H   0  0  0  0  0  0  0  0  0  0  0  0
  145.8711  143.6157  159.0486 H   0  0  0  0  0  0  0  0  0  0  0  0
  144.7577  142.2994  158.6799 H   0  0  0  0  0  0  0  0  0  0  0  0
  144.5204  143.8859  157.9514 H   0  0  0  0  0  0  0  0  0  0  0  0
  145.2508  141.0977  154.3599 H   0  0  0  0  0  0  0  0  0  0  0  0
  146.8842  142.4037  153.0766 H   0  0  0  0  0  0  0  0  0  0  0  0
  147.2490  143.4089  154.4695 H   0  0  0  0  0  0  0  0  0  0  0  0
  145.6470  143.4666  153.7372 H   0  0  0  0  0  0  0  0  0  0  0  0
  147.6627  140.4000  154.4492 H   0  0  0  0  0  0  0  0  0  0  0  0
  146.6674  139.7971  155.7492 H   0  0  0  0  0  0  0  0  0  0  0  0
  150.3671  144.6125  157.6218 H   0  0  0  0  0  0  0  0  0  0  0  0
  150.6025  146.2149  159.5326 H   0  0  0  0  0  0  0  0  0  0  0  0
  151.9448  145.6029  161.5341 H   0  0  0  0  0  0  0  0  0  0  0  0
  153.0825  143.3737  161.6681 H   0  0  0  0  0  0  0  0  0  0  0  0
  1  2  1  0  0  0  0
  1 25  1  0  0  0  0
  1 26  1  0  0  0  0
  1 27  1  0  0  0  0
  2  3  1  0  0  0  0
  2 28  1  0  0  0  0
  2 29  1  0  0  0  0
  3 24  1  0  0  0  0
  3  4  1  0  0  0  0
  4  5  2  0  0  0  0
  4  6  1  0  0  0  0
  6  7  1  0  0  0  0
  6 19  1  0  0  0  0
  7  8  1  0  0  0  0
  7 30  1  0  0  0  0
  7 31  1  0  0  0  0
  8  9  1  0  0  0  0
  8 10  1  0  0  0  0
  8 32  1  0  0  0  0
  9 33  1  0  0  0  0
 10 11  1  0  0  0  0
 10 34  1  0  0  0  0
 10 35  1  0  0  0  0
 11 18  1  0  0  0  0
 11 12  1  0  0  0  0
 12 13  1  0  0  0  0
 12 36  1  0  0  0  0
 12 37  1  0  0  0  0
 13 14  1  0  0  0  0
 13 15  1  0  0  0  0
 13 38  1  0  0  0  0
 14 39  1  0  0  0  0
 14 40  1  0  0  0  0
 14 41  1  0  0  0  0
 15 16  1  0  0  0  0
 16 17  1  0  0  0  0
 16 18  1  0  0  0  0
 16 42  1  0  0  0  0
 17 43  1  0  0  0  0
 17 44  1  0  0  0  0
 17 45  1  0  0  0  0
 18 46  1  0  0  0  0
 18 47  1  0  0  0  0
 19 24  2  0  0  0  0
 19 20  1  0  0  0  0
 20 21  2  0  0  0  0
 20 48  1  0  0  0  0
 21 22  1  0  0  0  0
 21 49  1  0  0  0  0
 22 23  2  0  0  0  0
 22 50  1  0  0  0  0
 23 24  1  0  0  0  0
 23 51  1  0  0  0  0
M  END
> <s_m_source_file>
AV-unprocessed.smi

> <i_m_source_file_index>
1570

> <i_lp_mmshare_version>
43012

> <i_f3d_flags>
0

> <s_epik_input>
W2NIXTFbY0hdW2NIXVtjSF1jKGMxMiluKFtDSDJdW0NIM10pYyg9TyluMltDSDJdW0NASF0oW09IXSlbQ0gyXU4zW0NIMl1bQ0BASF0oW0NIM10pT1tDQEBIXShbQ0gzXSlbQ0gyXTM=

> <s_epik_cmdline>
J2VwaWtfcHl0aG9uJywgJy1waCcsICc3LjAnLCAnLXRuJywgJzgnLCAnLW1hJywgJzIwMCcsICctbWV0YWxfYmluZGluZycsICctaW1hZScsICc8aW5maWxlLm1hZT4nLCAnLW9tYWUnLCAnPG91dGZpbGUubWFlPic=

> <r_epik_Ionization_Penalty>
0.214359

> <r_epik_Ionization_Penalty_Charging>
2.30976e-09

> <r_epik_Ionization_Penalty_Neutral>
0.214359

> <r_epik_State_Penalty>
0.204533

> <r_epik_Charging_Adjusted_Penalty>
0.204533

> <i_epik_Tot_Q>
0

> <i_epik_Tot_abs_Q>
0

> <r_epik_Metal_State_Penalty>
0.204533

> <b_epik_Metal_Only>
0

> <s_lp_Force_Field>
OPLS_2005

> <r_lp_Energy>
63.7902

> <b_lp_Chiralities_Consistent>
1

> <s_lp_Variant>
AV-unprocessed.smi:1570-3

> <Gold.Version>
5.8.1

> <Gold.Id.Protein>
6NUR|6NUR_protein|mol2

> <Gold.PLP.Fitness>
52.5243

> <Gold.PLP.PLP>
-48.7645

> <Gold.PLP.part.hbond>
-2.0000

> <Gold.PLP.part.metal>
0.0000

> <Gold.PLP.part.buried>
-8.5318

> <Gold.PLP.part.nonpolar>
-38.5884

> <Gold.PLP.part.repulsive>
0.1988

> <Gold.PLP.ligand.clash>
0.0000

> <Gold.PLP.ligand.torsion>
1.1334

> <Gold.PLP.Chemscore.Hbond>
1.9600

> <Gold.PLP.Chemscore.CHOScore>
0.0000

> <Gold.PLP.Chemscore.Metal>
0.0000

> <Gold.Chemscore.Hbonds>
donor molecule, donor type, donor heavy atom, donor atom, acceptor molecule, acceptor atom, score
      P1  H  7989  7998       L1     9  0.98
      P1  H  7997  8009       L1     5  1.00

> <Gold.PLP.Chemscore.Internal.Correction>
0.1465

> <Gold.Rescore>
     Score         DG    S(hbond)    S(metal)    S(lipo)     H(rot)  DE(clash)    DE(int)     intcor
     18.25     -20.70       1.88        0.00     121.52       2.06       0.09       2.36       ----

> <Gold.Chemscore.Fitness>
18.2523

> <Gold.Chemscore.DG>
-20.7021

> <Gold.Chemscore.ZeroCoef>
-5.4800

> <Gold.Chemscore.Hbond>
1.8775

> <Gold.Chemscore.Metal>
0.0000

> <Gold.Chemscore.Lipo>
121.5227

> <Gold.Chemscore.Internal_Hbond>
0.0000

> <Gold.Chemscore.DEClash>
0.0876

> <Gold.Chemscore.DEInternal>
2.3623

> <Gold.Chemscore.Rot>
2.0574

> <Gold.Chemscore.Internal.Correction>
   9.000000E+99

> <Gold.Chemscore.Hbonds>
donor molecule, donor type, donor heavy atom, donor atom, acceptor molecule, acceptor atom, score
      P1  H  7989  7998       L1     9  0.92
      P1  H  7997  8009       L1     5  0.76

> <Gold.Chemscore.Hbond.Weighted>
-6.2708

> <Gold.Chemscore.Metal.Weighted>
-0.0000

> <Gold.Chemscore.Lipo.Weighted>
-14.2182

> <Gold.Chemscore.Internal_Hbond.Weighted>
0.0000

> <Gold.Chemscore.DEClash.Weighted>
0.0876

> <Gold.Chemscore.DEInternal.Weighted>
2.3623

> <Gold.Chemscore.Rot.Weighted>
5.2669

> <Gold.Chemscore.Internal.Correction.Weighted>
   9.000000E+99

> <Gold.Protein.RotatedTorsions>
[ 6907 6896 6895 6894 ] final   71.70 input  -60.11 | X-H torsion
[ 7974 7965 7964 7962 ] final  111.61 input  175.53 | X-H torsion
[ 8008 7997 7996 7995 ] final  170.21 input   59.86 | X-H torsion
[ 10167 10162 10161 10158 ] final   47.75 input  -65.29 | X-H torsion
[ 10718 10713 10712 10709 ] final   74.82 input   66.30 | X-H torsion
[ 10763 10752 10751 10750 ] final -168.23 input  -60.55 | X-H torsion
[ 11005 11000 10999 10996 ] final -136.00 input  -57.11 | X-H torsion

> <Gold.Protein.ActiveResidues>
 VAL166  LYS551  ARG553  GLY616  TRP617  ASP618  TYR619  PRO620  LYS621  CYS622 
 ASP623  PHE694  ASN695  SER759  ASP760  ASP761  ALA762  ILE779  LEU786  VAL792 
 PHE793  MET794  SER795  GLU796  ALA797  LYS798  CYS799  TRP800  GLU811  SER814 

> <Gold.Protein.RotatedAtoms>
  152.4825  134.4681  159.9626 H   0  0  0  0  0  0  0  0  0  0  0  0  # atno 6907 bound_to 6896
  151.4684  133.3569  159.2827 H   0  0  0  0  0  0  0  0  0  0  0  0  # atno 6908 bound_to 6896
  150.8909  134.8338  159.7353 H   0  0  0  0  0  0  0  0  0  0  0  0  # atno 6909 bound_to 6896
  145.2400  139.2783  143.4123 H   0  0  0  0  0  0  0  0  0  0  0  0  # atno 7974 bound_to 7965
  156.1386  140.1544  156.8956 H   0  0  0  0  0  0  0  0  0  0  0  0  # atno 8008 bound_to 7997
  154.4968  140.0836  156.7752 H   0  0  0  0  0  0  0  0  0  0  0  0  # atno 8009 bound_to 7997
  155.4122  140.3419  155.4267 H   0  0  0  0  0  0  0  0  0  0  0  0  # atno 8010 bound_to 7997
  140.3004  144.2940  150.6220 H   0  0  0  0  0  0  0  0  0  0  0  0  # atno 10167 bound_to 10162
  157.6608  130.9696  150.1265 H   0  0  0  0  0  0  0  0  0  0  0  0  # atno 10718 bound_to 10713
  154.6650  135.2930  154.9818 H   0  0  0  0  0  0  0  0  0  0  0  0  # atno 10763 bound_to 10752
  154.0864  135.6597  153.4849 H   0  0  0  0  0  0  0  0  0  0  0  0  # atno 10764 bound_to 10752
  153.0452  135.5209  154.7618 H   0  0  0  0  0  0  0  0  0  0  0  0  # atno 10765 bound_to 10752
  140.8846  134.1889  157.4569 H   0  0  0  0  0  0  0  0  0  0  0  0  # atno 11005 bound_to 11000
  146.3331  140.2760  142.8608 LP  0  0  0  0  0  0  0  0  0  0  0  0  # atno 17320 bound_to 7965
  144.9598  140.8263  143.5521 LP  0  0  0  0  0  0  0  0  0  0  0  0  # atno 17321 bound_to 7965
  140.5656  143.2186  151.7690 LP  0  0  0  0  0  0  0  0  0  0  0  0  # atno 17342 bound_to 10162
  139.4916  144.4289  151.9895 LP  0  0  0  0  0  0  0  0  0  0  0  0  # atno 17343 bound_to 10162
  156.2122  130.3667  149.8656 LP  0  0  0  0  0  0  0  0  0  0  0  0  # atno 17370 bound_to 10713
  156.6531  130.8752  151.3535 LP  0  0  0  0  0  0  0  0  0  0  0  0  # atno 17371 bound_to 10713
  139.8723  134.9832  156.5188 LP  0  0  0  0  0  0  0  0  0  0  0  0  # atno 17394 bound_to 11000
  140.8421  133.8197  155.9085 LP  0  0  0  0  0  0  0  0  0  0  0  0  # atno 17395 bound_to 11000

$$$$
