AV-unprocessed.smi:232|AV-procd|sdf|1777|dock4
  -GOLD-   2262020323D 1   1.00000     0.00000
 Structure written by MMmdl.
 52 55  0  0  0  0  0  0  0  0  1 V2000
  154.0110  138.7181  160.6690 C   0  0  0  0  0  0  0  0  0  0  0  0
  152.9045  139.3296  159.8010 C   0  0  0  0  0  0  0  0  0  0  0  0
  153.2285  140.7624  159.3294 C   0  0  2  0  0  0  0  0  0  0  0  0
  153.6224  141.7193  160.4644 C   0  0  0  0  0  0  0  0  0  0  0  0
  153.1035  143.0924  160.0202 C   0  0  0  0  0  0  0  0  0  0  0  0
  152.4430  142.8348  158.6612 C   0  0  2  0  0  0  0  0  0  0  0  0
  151.2362  143.7458  158.3818 C   0  0  0  0  0  0  0  0  0  0  0  0
  152.0993  141.4185  158.6804 N   0  0  0  0  0  0  0  0  0  0  0  0
  151.7238  140.8980  157.4889 C   0  0  0  0  0  0  0  0  0  0  0  0
  152.5546  140.0679  156.8036 N   0  0  0  0  0  0  0  0  0  0  0  0
  152.1718  139.5663  155.6251 C   0  0  0  0  0  0  0  0  0  0  0  0
  151.0268  139.7612  154.9661 N   0  0  0  0  0  0  0  0  0  0  0  0
  150.1936  140.5925  155.6562 C   0  0  0  0  0  0  0  0  0  0  0  0
  150.4623  141.1989  156.9143 C   0  0  0  0  0  0  0  0  0  0  0  0
  149.3842  141.9799  157.3103 N   0  0  0  0  0  0  0  0  0  0  0  0
  148.5220  141.8410  156.3397 C   0  0  0  0  0  0  0  0  0  0  0  0
  148.9267  141.0254  155.3072 N   0  0  0  0  0  0  0  0  0  0  0  0
  148.1672  140.6977  154.1140 C   0  0  0  0  0  0  0  0  0  0  0  0
  147.9480  139.1803  153.9530 C   0  0  2  0  0  0  0  0  0  0  0  0
  149.1010  138.5997  153.3736 O   0  0  0  0  0  0  0  0  0  0  0  0
  146.7284  138.8590  153.0692 C   0  0  1  0  0  0  0  0  0  0  0  0
  146.9840  138.9894  151.5660 C   0  0  0  0  0  0  0  0  0  0  0  0
  145.9283  138.0721  150.9936 C   0  0  0  0  0  0  0  0  0  0  0  0
  145.9325  136.9280  152.0018 C   0  0  0  0  0  0  0  0  0  0  0  0
  146.3324  137.4998  153.2446 O   0  0  0  0  0  0  0  0  0  0  0  0
  153.7628  137.6934  160.9462 H   0  0  0  0  0  0  0  0  0  0  0  0
  154.1552  139.2836  161.5898 H   0  0  0  0  0  0  0  0  0  0  0  0
  154.9617  138.6969  160.1357 H   0  0  0  0  0  0  0  0  0  0  0  0
  152.7538  138.6822  158.9365 H   0  0  0  0  0  0  0  0  0  0  0  0
  151.9627  139.3236  160.3510 H   0  0  0  0  0  0  0  0  0  0  0  0
  154.0553  140.7200  158.6179 H   0  0  0  0  0  0  0  0  0  0  0  0
  153.1397  141.4350  161.4004 H   0  0  0  0  0  0  0  0  0  0  0  0
  154.6996  141.7186  160.6337 H   0  0  0  0  0  0  0  0  0  0  0  0
  152.3764  143.4603  160.7455 H   0  0  0  0  0  0  0  0  0  0  0  0
  153.9003  143.8329  159.9438 H   0  0  0  0  0  0  0  0  0  0  0  0
  153.1929  143.0011  157.8859 H   0  0  0  0  0  0  0  0  0  0  0  0
  151.5231  144.7961  158.4304 H   0  0  0  0  0  0  0  0  0  0  0  0
  150.4403  143.5825  159.1092 H   0  0  0  0  0  0  0  0  0  0  0  0
  150.8225  143.5651  157.3894 H   0  0  0  0  0  0  0  0  0  0  0  0
  152.8849  138.9159  155.1407 H   0  0  0  0  0  0  0  0  0  0  0  0
  147.5593  142.3315  156.3506 H   0  0  0  0  0  0  0  0  0  0  0  0
  147.2086  141.2145  154.1735 H   0  0  0  0  0  0  0  0  0  0  0  0
  148.6851  141.1056  153.2451 H   0  0  0  0  0  0  0  0  0  0  0  0
  147.8058  138.7317  154.9371 H   0  0  0  0  0  0  0  0  0  0  0  0
  149.2924  139.0535  152.5670 H   0  0  0  0  0  0  0  0  0  0  0  0
  145.8812  139.4897  153.3449 H   0  0  0  0  0  0  0  0  0  0  0  0
  146.8976  140.0151  151.2064 H   0  0  0  0  0  0  0  0  0  0  0  0
  147.9778  138.6193  151.3089 H   0  0  0  0  0  0  0  0  0  0  0  0
  144.9583  138.5712  150.9939 H   0  0  0  0  0  0  0  0  0  0  0  0
  146.1466  137.7460  149.9764 H   0  0  0  0  0  0  0  0  0  0  0  0
  144.9595  136.4430  152.0822 H   0  0  0  0  0  0  0  0  0  0  0  0
  146.6655  136.1721  151.7182 H   0  0  0  0  0  0  0  0  0  0  0  0
  1  2  1  0  0  0  0
  1 26  1  0  0  0  0
  1 27  1  0  0  0  0
  1 28  1  0  0  0  0
  2  3  1  0  0  0  0
  2 29  1  0  0  0  0
  2 30  1  0  0  0  0
  3  8  1  0  0  0  0
  3  4  1  0  0  0  0
  3 31  1  0  0  0  0
  4  5  1  0  0  0  0
  4 32  1  0  0  0  0
  4 33  1  0  0  0  0
  5  6  1  0  0  0  0
  5 34  1  0  0  0  0
  5 35  1  0  0  0  0
  6  7  1  0  0  0  0
  6  8  1  0  0  0  0
  6 36  1  0  0  0  0
  7 37  1  0  0  0  0
  7 38  1  0  0  0  0
  7 39  1  0  0  0  0
  8  9  1  0  0  0  0
  9 14  1  0  0  0  0
  9 10  2  0  0  0  0
 10 11  1  0  0  0  0
 11 12  2  0  0  0  0
 11 40  1  0  0  0  0
 12 13  1  0  0  0  0
 13 17  1  0  0  0  0
 13 14  2  0  0  0  0
 14 15  1  0  0  0  0
 15 16  2  0  0  0  0
 16 17  1  0  0  0  0
 16 41  1  0  0  0  0
 17 18  1  0  0  0  0
 18 19  1  0  0  0  0
 18 42  1  0  0  0  0
 18 43  1  0  0  0  0
 19 20  1  0  0  0  0
 19 21  1  0  0  0  0
 19 44  1  0  0  0  0
 20 45  1  0  0  0  0
 21 25  1  0  0  0  0
 21 22  1  0  0  0  0
 21 46  1  0  0  0  0
 22 23  1  0  0  0  0
 22 47  1  0  0  0  0
 22 48  1  0  0  0  0
 23 24  1  0  0  0  0
 23 49  1  0  0  0  0
 23 50  1  0  0  0  0
 24 25  1  0  0  0  0
 24 51  1  0  0  0  0
 24 52  1  0  0  0  0
M  END
> <s_m_source_file>
AV-unprocessed.smi

> <i_m_source_file_index>
232

> <i_lp_mmshare_version>
43012

> <i_f3d_flags>
0

> <s_epik_input>
W0NIM11bQ0gyXVtDQEBIXTFbQ0gyXVtDSDJdW0NAQEhdKFtDSDNdKU4xYyhuW2NIXW4yKWMoYzIzKW5bY0hdbjNbQ0gyXVtDQEhdKFtPSF0pW0NAQEhdNFtDSDJdW0NIMl1bQ0gyXU80

> <s_epik_cmdline>
J2VwaWtfcHl0aG9uJywgJy1waCcsICc3LjAnLCAnLXRuJywgJzgnLCAnLW1hJywgJzIwMCcsICctbWV0YWxfYmluZGluZycsICctaW1hZScsICc8aW5maWxlLm1hZT4nLCAnLW9tYWUnLCAnPG91dGZpbGUubWFlPic=

> <r_lp_tautomer_probability>
1

> <r_epik_Ionization_Penalty>
0.00258048

> <r_epik_Ionization_Penalty_Charging>
0

> <r_epik_Ionization_Penalty_Neutral>
0.00258048

> <r_epik_State_Penalty>
0.00168551

> <r_epik_Charging_Adjusted_Penalty>
0.00168551

> <i_epik_Tot_Q>
0

> <i_epik_Tot_abs_Q>
0

> <r_epik_Metal_State_Penalty>
-0

> <b_epik_Metal_Only>
0

> <s_lp_Force_Field>
OPLS_2005

> <r_lp_Energy>
51.1515

> <b_lp_Chiralities_Consistent>
1

> <s_lp_Variant>
AV-unprocessed.smi:232-11

> <Gold.Version>
5.8.1

> <Gold.Id.Protein>
6NUR|6NUR_protein|mol2

> <Gold.PLP.Fitness>
51.1655

> <Gold.PLP.PLP>
-43.7418

> <Gold.PLP.part.hbond>
-4.0000

> <Gold.PLP.part.metal>
0.0000

> <Gold.PLP.part.buried>
5.4502

> <Gold.PLP.part.nonpolar>
-46.1027

> <Gold.PLP.part.repulsive>
0.3827

> <Gold.PLP.ligand.clash>
0.0000

> <Gold.PLP.ligand.torsion>
0.9107

> <Gold.PLP.Chemscore.Hbond>
3.0000

> <Gold.PLP.Chemscore.CHOScore>
0.0545

> <Gold.PLP.Chemscore.Metal>
0.0000

> <Gold.Chemscore.Hbonds>
donor molecule, donor type, donor heavy atom, donor atom, acceptor molecule, acceptor atom, score
      L1  H    20    45       P1  7957  1.00
      P1  H  7989  7998       L1    12  1.00
      P1  H  7997  8009       L1    10  1.00
      L1  C    16    41       P1  8028  0.06

> <Gold.PLP.Chemscore.Internal.Correction>
0.0816

> <Gold.Rescore>
     Score         DG    S(hbond)    S(metal)    S(lipo)     H(rot)  DE(clash)    DE(int)     intcor
     15.01     -18.66       1.85        0.00     112.90       2.43       2.18       1.47       ----

> <Gold.Chemscore.Fitness>
15.0131

> <Gold.Chemscore.DG>
-18.6590

> <Gold.Chemscore.ZeroCoef>
-5.4800

> <Gold.Chemscore.Hbond>
1.8505

> <Gold.Chemscore.Metal>
0.0000

> <Gold.Chemscore.Lipo>
112.8978

> <Gold.Chemscore.Internal_Hbond>
0.0000

> <Gold.Chemscore.DEClash>
2.1754

> <Gold.Chemscore.DEInternal>
1.4706

> <Gold.Chemscore.Rot>
2.4260

> <Gold.Chemscore.Internal.Correction>
   9.000000E+99

> <Gold.Chemscore.Hbonds>
donor molecule, donor type, donor heavy atom, donor atom, acceptor molecule, acceptor atom, score
      L1  H    20    45       P1  7957  0.98
      P1  H  7989  7998       L1    12  0.12
      P1  H  7997  8009       L1    10  0.38

> <Gold.Chemscore.Hbond.Weighted>
-6.1807

> <Gold.Chemscore.Metal.Weighted>
-0.0000

> <Gold.Chemscore.Lipo.Weighted>
-13.2090

> <Gold.Chemscore.Internal_Hbond.Weighted>
0.0000

> <Gold.Chemscore.DEClash.Weighted>
2.1754

> <Gold.Chemscore.DEInternal.Weighted>
1.4706

> <Gold.Chemscore.Rot.Weighted>
6.2107

> <Gold.Chemscore.Internal.Correction.Weighted>
   9.000000E+99

> <Gold.Protein.RotatedTorsions>
[ 6907 6896 6895 6894 ] final    3.90 input  -60.11 | X-H torsion
[ 7974 7965 7964 7962 ] final  -31.13 input  175.53 | X-H torsion
[ 8008 7997 7996 7995 ] final  176.89 input   59.86 | X-H torsion
[ 10167 10162 10161 10158 ] final  -77.76 input  -65.29 | X-H torsion
[ 10718 10713 10712 10709 ] final -113.79 input   66.30 | X-H torsion
[ 10763 10752 10751 10750 ] final -169.23 input  -60.55 | X-H torsion
[ 11005 11000 10999 10996 ] final   49.23 input  -57.11 | X-H torsion

> <Gold.Protein.ActiveResidues>
 VAL166  LYS551  ARG553  GLY616  TRP617  ASP618  TYR619  PRO620  LYS621  CYS622 
 ASP623  PHE694  ASN695  SER759  ASP760  ASP761  ALA762  ILE779  LEU786  VAL792 
 PHE793  MET794  SER795  GLU796  ALA797  LYS798  CYS799  TRP800  GLU811  SER814 

> <Gold.Protein.RotatedAtoms>
  151.6326  135.1021  160.0124 H   0  0  0  0  0  0  0  0  0  0  0  0  # atno 6907 bound_to 6896
  152.4098  133.6941  159.6396 H   0  0  0  0  0  0  0  0  0  0  0  0  # atno 6908 bound_to 6896
  150.7989  133.8562  159.3260 H   0  0  0  0  0  0  0  0  0  0  0  0  # atno 6909 bound_to 6896
  146.1091  140.5628  142.8786 H   0  0  0  0  0  0  0  0  0  0  0  0  # atno 7974 bound_to 7965
  156.0716  140.1372  156.9822 H   0  0  0  0  0  0  0  0  0  0  0  0  # atno 8008 bound_to 7997
  154.4535  140.0970  156.6739 H   0  0  0  0  0  0  0  0  0  0  0  0  # atno 8009 bound_to 7997
  155.5219  140.3456  155.4411 H   0  0  0  0  0  0  0  0  0  0  0  0  # atno 8010 bound_to 7997
  140.4741  143.2419  151.8159 H   0  0  0  0  0  0  0  0  0  0  0  0  # atno 10167 bound_to 10162
  156.0788  130.5992  150.8689 H   0  0  0  0  0  0  0  0  0  0  0  0  # atno 10718 bound_to 10713
  154.6544  135.2916  154.9946 H   0  0  0  0  0  0  0  0  0  0  0  0  # atno 10763 bound_to 10752
  154.1027  135.6574  153.4875 H   0  0  0  0  0  0  0  0  0  0  0  0  # atno 10764 bound_to 10752
  153.0394  135.5246  154.7467 H   0  0  0  0  0  0  0  0  0  0  0  0  # atno 10765 bound_to 10752
  140.1122  134.4940  155.8668 H   0  0  0  0  0  0  0  0  0  0  0  0  # atno 11005 bound_to 11000
  144.7496  140.5156  143.6811 LP  0  0  0  0  0  0  0  0  0  0  0  0  # atno 17320 bound_to 7965
  145.5701  139.1483  143.3293 LP  0  0  0  0  0  0  0  0  0  0  0  0  # atno 17321 bound_to 7965
  139.4823  144.4855  151.9253 LP  0  0  0  0  0  0  0  0  0  0  0  0  # atno 17342 bound_to 10162
  140.3940  144.2579  150.5897 LP  0  0  0  0  0  0  0  0  0  0  0  0  # atno 17343 bound_to 10162
  157.5896  131.0945  150.9140 LP  0  0  0  0  0  0  0  0  0  0  0  0  # atno 17370 bound_to 10713
  156.9318  130.5352  149.5279 LP  0  0  0  0  0  0  0  0  0  0  0  0  # atno 17371 bound_to 10713
  141.2133  133.6731  156.6726 LP  0  0  0  0  0  0  0  0  0  0  0  0  # atno 17394 bound_to 11000
  140.3076  134.8112  157.4150 LP  0  0  0  0  0  0  0  0  0  0  0  0  # atno 17395 bound_to 11000

$$$$
