AV-unprocessed.smi:653|AV-procd|sdf|3210|dock7
  -GOLD-   22720 0143D 1   1.00000     0.00000
 Structure written by MMmdl.
 45 46  0  0  0  0  0  0  0  0  2 V2000
  145.8700  132.4942  150.9824 C   0  0  0  0  0  0  0  0  0  0  0  0
  146.9036  132.9741  151.9795 C   0  0  0  0  0  0  0  0  0  0  0  0
  146.6035  133.9344  152.9694 C   0  0  0  0  0  0  0  0  0  0  0  0
  147.6117  134.3317  153.8719 C   0  0  0  0  0  0  0  0  0  0  0  0
  148.8999  133.7617  153.7673 C   0  0  0  0  0  0  0  0  0  0  0  0
  150.0063  134.1639  154.7289 C   0  0  0  0  0  0  0  0  0  0  0  0
  149.6949  135.4912  155.4296 C   0  0  0  0  0  0  0  0  0  0  0  0
  149.6082  135.5508  156.6571 O   0  0  0  0  0  0  0  0  0  0  0  0
  149.5321  136.5556  154.6296 N   0  0  0  0  0  0  0  0  0  0  0  0
  149.2271  137.9082  155.0849 C   0  0  0  0  0  0  0  0  0  0  0  0
  149.7998  138.9914  154.1363 C   0  0  2  0  0  0  0  0  0  0  0  0
  151.2834  139.2446  154.3696 C   0  0  0  0  0  0  0  0  0  0  0  0
  151.2963  140.3099  155.4691 C   0  0  0  0  0  0  0  0  0  0  0  0
  149.9731  140.8349  155.5261 O   0  0  0  0  0  0  0  0  0  0  0  0
  149.2501  140.4077  154.3793 C   0  0  2  0  0  0  0  0  0  0  0  0
  147.7245  140.5555  154.5783 C   0  0  0  0  0  0  0  0  0  0  0  0
  146.9340  139.7438  153.5374 C   0  0  0  0  0  0  0  0  0  0  0  0
  147.3020  142.0324  154.5232 C   0  0  0  0  0  0  0  0  0  0  0  0
  149.1419  132.8070  152.7555 C   0  0  0  0  0  0  0  0  0  0  0  0
  148.1486  132.4513  151.9120 N   0  3  0  0  0  0  0  0  0  0  0  0
  145.0932  133.2456  150.8375 H   0  0  0  0  0  0  0  0  0  0  0  0
  145.3989  131.5781  151.3394 H   0  0  0  0  0  0  0  0  0  0  0  0
  146.3288  132.2913  150.0141 H   0  0  0  0  0  0  0  0  0  0  0  0
  145.6130  134.3604  153.0399 H   0  0  0  0  0  0  0  0  0  0  0  0
  147.3959  135.0626  154.6377 H   0  0  0  0  0  0  0  0  0  0  0  0
  150.1414  133.3872  155.4825 H   0  0  0  0  0  0  0  0  0  0  0  0
  150.9473  134.2417  154.1819 H   0  0  0  0  0  0  0  0  0  0  0  0
  149.6252  136.4216  153.6330 H   0  0  0  0  0  0  0  0  0  0  0  0
  148.1460  138.0066  155.1848 H   0  0  0  0  0  0  0  0  0  0  0  0
  149.6368  138.0278  156.0883 H   0  0  0  0  0  0  0  0  0  0  0  0
  149.6222  138.6920  153.1026 H   0  0  0  0  0  0  0  0  0  0  0  0
  151.8522  138.3542  154.6378 H   0  0  0  0  0  0  0  0  0  0  0  0
  151.7296  139.6537  153.4620 H   0  0  0  0  0  0  0  0  0  0  0  0
  151.5498  139.8792  156.4380 H   0  0  0  0  0  0  0  0  0  0  0  0
  152.0157  141.0992  155.2492 H   0  0  0  0  0  0  0  0  0  0  0  0
  149.5563  141.0450  153.5467 H   0  0  0  0  0  0  0  0  0  0  0  0
  147.4602  140.1871  155.5696 H   0  0  0  0  0  0  0  0  0  0  0  0
  147.1573  140.0787  152.5240 H   0  0  0  0  0  0  0  0  0  0  0  0
  145.8598  139.8482  153.6923 H   0  0  0  0  0  0  0  0  0  0  0  0
  147.1655  138.6802  153.5920 H   0  0  0  0  0  0  0  0  0  0  0  0
  147.5504  142.4819  153.5614 H   0  0  0  0  0  0  0  0  0  0  0  0
  147.7964  142.6154  155.3006 H   0  0  0  0  0  0  0  0  0  0  0  0
  146.2271  142.1396  154.6724 H   0  0  0  0  0  0  0  0  0  0  0  0
  150.0913  132.3149  152.6006 H   0  0  0  0  0  0  0  0  0  0  0  0
  148.3465  131.7551  151.1929 H   0  0  0  0  0  0  0  0  0  0  0  0
  1  2  1  0  0  0  0
  1 21  1  0  0  0  0
  1 22  1  0  0  0  0
  1 23  1  0  0  0  0
  2 20  1  0  0  0  0
  2  3  2  0  0  0  0
  3  4  1  0  0  0  0
  3 24  1  0  0  0  0
  4  5  2  0  0  0  0
  4 25  1  0  0  0  0
  5  6  1  0  0  0  0
  5 19  1  0  0  0  0
  6  7  1  0  0  0  0
  6 26  1  0  0  0  0
  6 27  1  0  0  0  0
  7  8  2  0  0  0  0
  7  9  1  0  0  0  0
  9 10  1  0  0  0  0
  9 28  1  0  0  0  0
 10 11  1  0  0  0  0
 10 29  1  0  0  0  0
 10 30  1  0  0  0  0
 11 15  1  0  0  0  0
 11 12  1  0  0  0  0
 11 31  1  0  0  0  0
 12 13  1  0  0  0  0
 12 32  1  0  0  0  0
 12 33  1  0  0  0  0
 13 14  1  0  0  0  0
 13 34  1  0  0  0  0
 13 35  1  0  0  0  0
 14 15  1  0  0  0  0
 15 16  1  0  0  0  0
 15 36  1  0  0  0  0
 16 17  1  0  0  0  0
 16 18  1  0  0  0  0
 16 37  1  0  0  0  0
 17 38  1  0  0  0  0
 17 39  1  0  0  0  0
 17 40  1  0  0  0  0
 18 41  1  0  0  0  0
 18 42  1  0  0  0  0
 18 43  1  0  0  0  0
 19 20  2  0  0  0  0
 19 44  1  0  0  0  0
 20 45  1  0  0  0  0
M  CHG  1  20   1
M  END
> <s_m_source_file>
AV-unprocessed.smi

> <i_m_source_file_index>
653

> <i_lp_mmshare_version>
43012

> <i_f3d_flags>
0

> <s_epik_input>
W0NIM11jMVtjSF1bY0hdYyhbY0hdbjEpW0NIMl1DKD1PKVtOSF1bQ0gyXVtDQEBIXTJbQ0gyXVtDSDJdT1tDQEhdMltDSF0oW0NIM10pW0NIM10=

> <s_epik_cmdline>
J2VwaWtfcHl0aG9uJywgJy1waCcsICc3LjAnLCAnLXRuJywgJzgnLCAnLW1hJywgJzIwMCcsICctbWV0YWxfYmluZGluZycsICctaW1hZScsICc8aW5maWxlLm1hZT4nLCAnLW9tYWUnLCAnPG91dGZpbGUubWFlPic=

> <r_epik_Ionization_Penalty>
2.12486

> <r_epik_Ionization_Penalty_Charging>
2.12486

> <r_epik_Ionization_Penalty_Neutral>
9.0873e-08

> <r_epik_State_Penalty>
2.26279

> <r_epik_Charging_Adjusted_Penalty>
4.38765

> <i_epik_Tot_Q>
1

> <i_epik_Tot_abs_Q>
1

> <r_epik_Metal_State_Penalty>
2.27914

> <b_epik_Metal_Only>
0

> <s_lp_Force_Field>
OPLS_2005

> <r_lp_Energy>
28.354

> <b_lp_Chiralities_Consistent>
1

> <s_lp_Variant>
AV-unprocessed.smi:653-7

> <Gold.Version>
5.8.1

> <Gold.Id.Protein>
6NUR|6NUR_protein|mol2

> <Gold.PLP.Fitness>
41.5983

> <Gold.PLP.PLP>
-37.0745

> <Gold.PLP.part.hbond>
-2.0000

> <Gold.PLP.part.metal>
0.0000

> <Gold.PLP.part.buried>
-2.6731

> <Gold.PLP.part.nonpolar>
-32.4340

> <Gold.PLP.part.repulsive>
0.1035

> <Gold.PLP.ligand.clash>
0.0000

> <Gold.PLP.ligand.torsion>
0.7672

> <Gold.PLP.Chemscore.Hbond>
2.0000

> <Gold.PLP.Chemscore.CHOScore>
0.0000

> <Gold.PLP.Chemscore.Metal>
0.0000

> <Gold.Chemscore.Hbonds>
donor molecule, donor type, donor heavy atom, donor atom, acceptor molecule, acceptor atom, score
      L1  H     9    28       P1  7948  1.00
      L1  H    20    45       P1 10747  0.73

> <Gold.PLP.Chemscore.Internal.Correction>
0.0582

> <Gold.Rescore>
     Score         DG    S(hbond)    S(metal)    S(lipo)     H(rot)  DE(clash)    DE(int)     intcor
     17.03     -17.88       1.74        0.00      90.59       1.57       0.02       0.84       ----

> <Gold.Chemscore.Fitness>
17.0308

> <Gold.Chemscore.DG>
-17.8815

> <Gold.Chemscore.ZeroCoef>
-5.4800

> <Gold.Chemscore.Hbond>
1.7432

> <Gold.Chemscore.Metal>
0.0000

> <Gold.Chemscore.Lipo>
90.5893

> <Gold.Chemscore.Internal_Hbond>
0.0000

> <Gold.Chemscore.DEClash>
0.0156

> <Gold.Chemscore.DEInternal>
0.8351

> <Gold.Chemscore.Rot>
1.5701

> <Gold.Chemscore.Internal.Correction>
   9.000000E+99

> <Gold.Chemscore.Hbonds>
donor molecule, donor type, donor heavy atom, donor atom, acceptor molecule, acceptor atom, score
      L1  H     9    28       P1  7948  0.54
      L1  H    20    45       P1 10747  0.73

> <Gold.Chemscore.Hbond.Weighted>
-5.8222

> <Gold.Chemscore.Metal.Weighted>
-0.0000

> <Gold.Chemscore.Lipo.Weighted>
-10.5989

> <Gold.Chemscore.Internal_Hbond.Weighted>
0.0000

> <Gold.Chemscore.DEClash.Weighted>
0.0156

> <Gold.Chemscore.DEInternal.Weighted>
0.8351

> <Gold.Chemscore.Rot.Weighted>
4.0196

> <Gold.Chemscore.Internal.Correction.Weighted>
   9.000000E+99

> <Gold.Protein.RotatedTorsions>
[ 6907 6896 6895 6894 ] final  165.47 input  -60.11 | X-H torsion
[ 7974 7965 7964 7962 ] final   52.11 input  175.53 | X-H torsion
[ 8008 7997 7996 7995 ] final   30.11 input   59.86 | X-H torsion
[ 10167 10162 10161 10158 ] final  151.87 input  -65.29 | X-H torsion
[ 10718 10713 10712 10709 ] final -128.19 input   66.30 | X-H torsion
[ 10763 10752 10751 10750 ] final   13.79 input  -60.55 | X-H torsion
[ 11005 11000 10999 10996 ] final   28.24 input  -57.11 | X-H torsion

> <Gold.Protein.ActiveResidues>
 VAL166  LYS551  ARG553  GLY616  TRP617  ASP618  TYR619  PRO620  LYS621  CYS622 
 ASP623  PHE694  ASN695  SER759  ASP760  ASP761  ALA762  ILE779  LEU786  VAL792 
 PHE793  MET794  SER795  GLU796  ALA797  LYS798  CYS799  TRP800  GLU811  SER814 

> <Gold.Protein.RotatedAtoms>
  151.8939  133.3522  159.3807 H   0  0  0  0  0  0  0  0  0  0  0  0  # atno 6907 bound_to 6896
  150.7096  134.4896  159.5519 H   0  0  0  0  0  0  0  0  0  0  0  0  # atno 6908 bound_to 6896
  152.2472  134.8170  160.0502 H   0  0  0  0  0  0  0  0  0  0  0  0  # atno 6909 bound_to 6896
  145.9846  139.4276  143.0111 H   0  0  0  0  0  0  0  0  0  0  0  0  # atno 7974 bound_to 7965
  155.0852  140.3214  155.4590 H   0  0  0  0  0  0  0  0  0  0  0  0  # atno 8008 bound_to 7997
  156.2757  140.2088  156.5925 H   0  0  0  0  0  0  0  0  0  0  0  0  # atno 8009 bound_to 7997
  154.6947  140.0513  157.0386 H   0  0  0  0  0  0  0  0  0  0  0  0  # atno 8010 bound_to 7997
  139.4837  144.5405  151.7573 H   0  0  0  0  0  0  0  0  0  0  0  0  # atno 10167 bound_to 10162
  156.1927  130.6806  151.0444 H   0  0  0  0  0  0  0  0  0  0  0  0  # atno 10718 bound_to 10713
  153.1686  135.6808  153.8640 H   0  0  0  0  0  0  0  0  0  0  0  0  # atno 10763 bound_to 10752
  153.8011  135.3155  155.3391 H   0  0  0  0  0  0  0  0  0  0  0  0  # atno 10764 bound_to 10752
  154.7982  135.4794  154.0304 H   0  0  0  0  0  0  0  0  0  0  0  0  # atno 10765 bound_to 10752
  140.3177  134.2578  155.7722 H   0  0  0  0  0  0  0  0  0  0  0  0  # atno 11005 bound_to 11000
  145.7720  140.9892  143.1144 LP  0  0  0  0  0  0  0  0  0  0  0  0  # atno 17320 bound_to 7965
  144.6871  139.9458  143.7476 LP  0  0  0  0  0  0  0  0  0  0  0  0  # atno 17321 bound_to 7965
  140.4943  144.1263  150.5957 LP  0  0  0  0  0  0  0  0  0  0  0  0  # atno 17342 bound_to 10162
  140.4135  143.2645  151.9804 LP  0  0  0  0  0  0  0  0  0  0  0  0  # atno 17343 bound_to 10162
  157.6939  131.0801  150.7027 LP  0  0  0  0  0  0  0  0  0  0  0  0  # atno 17370 bound_to 10713
  156.7084  130.4644  149.5554 LP  0  0  0  0  0  0  0  0  0  0  0  0  # atno 17371 bound_to 10713
  141.2094  133.7751  157.0001 LP  0  0  0  0  0  0  0  0  0  0  0  0  # atno 17394 bound_to 11000
  140.0969  134.9559  157.1863 LP  0  0  0  0  0  0  0  0  0  0  0  0  # atno 17395 bound_to 11000

$$$$
