AV-unprocessed.smi:1763|AV-procd|sdf|7129|dock3
  -GOLD-   22720 8363D 1   1.00000     0.00000
 Structure written by MMmdl.
 43 44  0  0  0  0  0  0  0  0  2 V2000
  148.8462  132.7792  153.2431 C   0  0  0  0  0  0  0  0  0  0  0  0
  148.6249  134.0917  153.8308 N   0  0  0  0  0  0  0  0  0  0  0  0
  148.6370  134.3391  155.1479 C   0  0  0  0  0  0  0  0  0  0  0  0
  148.8332  133.4684  155.9966 O   0  0  0  0  0  0  0  0  0  0  0  0
  148.3689  135.7881  155.5671 C   0  0  0  0  0  0  0  0  0  0  0  0
  149.2299  136.7685  154.8567 N   0  3  2  0  0  0  0  0  0  0  0  0
  150.6741  136.5542  155.1292 C   0  0  0  0  0  0  0  0  0  0  0  0
  151.5504  137.4915  154.2774 C   0  0  0  0  0  0  0  0  0  0  0  0
  151.1723  138.9701  154.4705 C   0  0  2  0  0  0  0  0  0  0  0  0
  151.5855  139.4328  155.7954 N   0  0  0  0  0  0  0  0  0  0  0  0
  151.5014  140.6966  156.2371 C   0  0  0  0  0  0  0  0  0  0  0  0
  151.0407  141.6191  155.5646 O   0  0  0  0  0  0  0  0  0  0  0  0
  151.9804  140.8075  157.4887 N   0  0  0  0  0  0  0  0  0  0  0  0
  152.0576  141.9719  158.2985 C   0  0  0  0  0  0  0  0  0  0  0  0
  152.7788  141.8158  159.5037 C   0  0  0  0  0  0  0  0  0  0  0  0
  152.9145  142.9126  160.3769 C   0  0  0  0  0  0  0  0  0  0  0  0
  152.3235  144.1382  160.0225 C   0  0  0  0  0  0  0  0  0  0  0  0
  151.6213  144.2083  158.8052 C   0  0  0  0  0  0  0  0  0  0  0  0
  151.4903  143.1586  157.9667 N   0  0  0  0  0  0  0  0  0  0  0  0
  149.6579  139.1486  154.2409 C   0  0  0  0  0  0  0  0  0  0  0  0
  148.8284  138.1797  155.1010 C   0  0  0  0  0  0  0  0  0  0  0  0
  148.7595  132.8381  152.1581 H   0  0  0  0  0  0  0  0  0  0  0  0
  148.1091  132.0611  153.6049 H   0  0  0  0  0  0  0  0  0  0  0  0
  149.8426  132.4080  153.4856 H   0  0  0  0  0  0  0  0  0  0  0  0
  148.4499  134.8571  153.1954 H   0  0  0  0  0  0  0  0  0  0  0  0
  147.3168  136.0408  155.4240 H   0  0  0  0  0  0  0  0  0  0  0  0
  148.5602  135.8406  156.6398 H   0  0  0  0  0  0  0  0  0  0  0  0
  150.8713  136.7074  156.1913 H   0  0  0  0  0  0  0  0  0  0  0  0
  150.9401  135.5204  154.9057 H   0  0  0  0  0  0  0  0  0  0  0  0
  152.6043  137.3360  154.5119 H   0  0  0  0  0  0  0  0  0  0  0  0
  151.4329  137.2278  153.2254 H   0  0  0  0  0  0  0  0  0  0  0  0
  151.7137  139.5587  153.7277 H   0  0  0  0  0  0  0  0  0  0  0  0
  151.9853  138.7431  156.4150 H   0  0  0  0  0  0  0  0  0  0  0  0
  152.3345  139.9625  157.9116 H   0  0  0  0  0  0  0  0  0  0  0  0
  153.2271  140.8671  159.7612 H   0  0  0  0  0  0  0  0  0  0  0  0
  153.4631  142.8139  161.3019 H   0  0  0  0  0  0  0  0  0  0  0  0
  152.4057  145.0016  160.6661 H   0  0  0  0  0  0  0  0  0  0  0  0
  151.1522  145.1305  158.4961 H   0  0  0  0  0  0  0  0  0  0  0  0
  149.3544  140.1772  154.4384 H   0  0  0  0  0  0  0  0  0  0  0  0
  149.4337  138.9687  153.1886 H   0  0  0  0  0  0  0  0  0  0  0  0
  147.7719  138.3150  154.8681 H   0  0  0  0  0  0  0  0  0  0  0  0
  148.9476  138.4174  156.1592 H   0  0  0  0  0  0  0  0  0  0  0  0
  149.0982  136.5926  153.8704 H   0  0  0  0  0  0  0  0  0  0  0  0
  1  2  1  0  0  0  0
  1 22  1  0  0  0  0
  1 23  1  0  0  0  0
  1 24  1  0  0  0  0
  2  3  1  0  0  0  0
  2 25  1  0  0  0  0
  3  4  2  0  0  0  0
  3  5  1  0  0  0  0
  5  6  1  0  0  0  0
  5 26  1  0  0  0  0
  5 27  1  0  0  0  0
  6 21  1  0  0  0  0
  6  7  1  0  0  0  0
  6 43  1  0  0  0  0
  7  8  1  0  0  0  0
  7 28  1  0  0  0  0
  7 29  1  0  0  0  0
  8  9  1  0  0  0  0
  8 30  1  0  0  0  0
  8 31  1  0  0  0  0
  9 10  1  0  0  0  0
  9 20  1  0  0  0  0
  9 32  1  0  0  0  0
 10 11  1  0  0  0  0
 10 33  1  0  0  0  0
 11 12  2  0  0  0  0
 11 13  1  0  0  0  0
 13 14  1  0  0  0  0
 13 34  1  0  0  0  0
 14 19  1  0  0  0  0
 14 15  2  0  0  0  0
 15 16  1  0  0  0  0
 15 35  1  0  0  0  0
 16 17  2  0  0  0  0
 16 36  1  0  0  0  0
 17 18  1  0  0  0  0
 17 37  1  0  0  0  0
 18 19  2  0  0  0  0
 18 38  1  0  0  0  0
 20 21  1  0  0  0  0
 20 39  1  0  0  0  0
 20 40  1  0  0  0  0
 21 41  1  0  0  0  0
 21 42  1  0  0  0  0
M  CHG  1   6   1
M  END
> <s_m_source_file>
AV-unprocessed.smi

> <i_m_source_file_index>
1763

> <i_lp_mmshare_version>
43012

> <i_f3d_flags>
0

> <s_epik_input>
W0NIM11bTkhdQyg9TylbQ0gyXU4xW0NIMl1bQ0gyXVtDSF0oW0NIMl1bQ0gyXTEpW05IXUMoPU8pW05IXWMyW2NIXVtjSF1bY0hdW2NIXW4y

> <s_epik_cmdline>
J2VwaWtfcHl0aG9uJywgJy1waCcsICc3LjAnLCAnLXRuJywgJzgnLCAnLW1hJywgJzIwMCcsICctbWV0YWxfYmluZGluZycsICctaW1hZScsICc8aW5maWxlLm1hZT4nLCAnLW9tYWUnLCAnPG91dGZpbGUubWFlPic=

> <r_epik_Ionization_Penalty>
0.838902

> <r_epik_Ionization_Penalty_Charging>
0.838844

> <r_epik_Ionization_Penalty_Neutral>
5.81242e-05

> <r_epik_State_Penalty>
0.8734

> <r_epik_Charging_Adjusted_Penalty>
1.71224

> <i_epik_Tot_Q>
1

> <i_epik_Tot_abs_Q>
1

> <r_epik_Metal_State_Penalty>
0.877921

> <b_epik_Metal_Only>
0

> <s_lp_Force_Field>
OPLS_2005

> <r_lp_Energy>
15.7472

> <b_lp_Chiralities_Consistent>
1

> <s_lp_Variant>
AV-unprocessed.smi:1763-3

> <Gold.Version>
5.8.1

> <Gold.Id.Protein>
6NUR|6NUR_protein|mol2

> <Gold.PLP.Fitness>
45.4477

> <Gold.PLP.PLP>
-36.3265

> <Gold.PLP.part.hbond>
-3.0000

> <Gold.PLP.part.metal>
0.0000

> <Gold.PLP.part.buried>
-1.7736

> <Gold.PLP.part.nonpolar>
-31.7375

> <Gold.PLP.part.repulsive>
0.3867

> <Gold.PLP.ligand.clash>
0.0000

> <Gold.PLP.ligand.torsion>
0.1401

> <Gold.PLP.Chemscore.Hbond>
3.1235

> <Gold.PLP.Chemscore.CHOScore>
0.0000

> <Gold.PLP.Chemscore.Metal>
0.0000

> <Gold.Chemscore.Hbonds>
donor molecule, donor type, donor heavy atom, donor atom, acceptor molecule, acceptor atom, score
      L1  H     2    25       P1  7948  1.00
      L1  H     6    43       P1  7948  2.00
      P1  H  7989  7998       L1    12  0.17

> <Gold.PLP.Chemscore.Internal.Correction>
0.0308

> <Gold.Rescore>
     Score         DG    S(hbond)    S(metal)    S(lipo)     H(rot)  DE(clash)    DE(int)     intcor
     15.00     -17.94       1.99        0.00      87.55       1.73       1.53       1.41       ----

> <Gold.Chemscore.Fitness>
14.9998

> <Gold.Chemscore.DG>
-17.9424

> <Gold.Chemscore.ZeroCoef>
-5.4800

> <Gold.Chemscore.Hbond>
1.9889

> <Gold.Chemscore.Metal>
0.0000

> <Gold.Chemscore.Lipo>
87.5479

> <Gold.Chemscore.Internal_Hbond>
0.0000

> <Gold.Chemscore.DEClash>
1.5348

> <Gold.Chemscore.DEInternal>
1.4078

> <Gold.Chemscore.Rot>
1.7280

> <Gold.Chemscore.Internal.Correction>
   9.000000E+99

> <Gold.Chemscore.Hbonds>
donor molecule, donor type, donor heavy atom, donor atom, acceptor molecule, acceptor atom, score
      L1  H     2    25       P1  7948  0.68
      L1  H     6    43       P1  7948  0.92
      P1  H  7989  7998       L1    12  0.04

> <Gold.Chemscore.Hbond.Weighted>
-6.6430

> <Gold.Chemscore.Metal.Weighted>
-0.0000

> <Gold.Chemscore.Lipo.Weighted>
-10.2431

> <Gold.Chemscore.Internal_Hbond.Weighted>
0.0000

> <Gold.Chemscore.DEClash.Weighted>
1.5348

> <Gold.Chemscore.DEInternal.Weighted>
1.4078

> <Gold.Chemscore.Rot.Weighted>
4.4237

> <Gold.Chemscore.Internal.Correction.Weighted>
   9.000000E+99

> <Gold.Protein.RotatedTorsions>
[ 6907 6896 6895 6894 ] final  160.44 input  -60.11 | X-H torsion
[ 7974 7965 7964 7962 ] final   76.15 input  175.53 | X-H torsion
[ 8008 7997 7996 7995 ] final  117.24 input   59.86 | X-H torsion
[ 10167 10162 10161 10158 ] final   44.57 input  -65.29 | X-H torsion
[ 10718 10713 10712 10709 ] final   86.61 input   66.30 | X-H torsion
[ 10763 10752 10751 10750 ] final   76.67 input  -60.55 | X-H torsion
[ 11005 11000 10999 10996 ] final   93.18 input  -57.11 | X-H torsion

> <Gold.Protein.ActiveResidues>
 VAL166  LYS551  ARG553  GLY616  TRP617  ASP618  TYR619  PRO620  LYS621  CYS622 
 ASP623  PHE694  ASN695  SER759  ASP760  ASP761  ALA762  ILE779  LEU786  VAL792 
 PHE793  MET794  SER795  GLU796  ALA797  LYS798  CYS799  TRP800  GLU811  SER814 

> <Gold.Protein.RotatedAtoms>
  151.9705  133.3724  159.4069 H   0  0  0  0  0  0  0  0  0  0  0  0  # atno 6907 bound_to 6896
  150.6949  134.4144  159.5186 H   0  0  0  0  0  0  0  0  0  0  0  0  # atno 6908 bound_to 6896
  152.1848  134.8723  160.0574 H   0  0  0  0  0  0  0  0  0  0  0  0  # atno 6909 bound_to 6896
  145.7065  139.2600  143.1675 H   0  0  0  0  0  0  0  0  0  0  0  0  # atno 7974 bound_to 7965
  156.2483  140.2900  156.0648 H   0  0  0  0  0  0  0  0  0  0  0  0  # atno 8008 bound_to 7997
  155.1736  140.0402  157.2885 H   0  0  0  0  0  0  0  0  0  0  0  0  # atno 8009 bound_to 7997
  154.6309  140.2499  155.7442 H   0  0  0  0  0  0  0  0  0  0  0  0  # atno 8010 bound_to 7997
  140.3329  144.2566  150.6165 H   0  0  0  0  0  0  0  0  0  0  0  0  # atno 10167 bound_to 10162
  157.6931  131.0222  150.2999 H   0  0  0  0  0  0  0  0  0  0  0  0  # atno 10718 bound_to 10713
  153.0742  135.4943  154.8369 H   0  0  0  0  0  0  0  0  0  0  0  0  # atno 10763 bound_to 10752
  154.7065  135.3011  154.9265 H   0  0  0  0  0  0  0  0  0  0  0  0  # atno 10764 bound_to 10752
  153.9972  135.6771  153.4810 H   0  0  0  0  0  0  0  0  0  0  0  0  # atno 10765 bound_to 10752
  139.8813  134.8775  156.3680 H   0  0  0  0  0  0  0  0  0  0  0  0  # atno 11005 bound_to 11000
  146.0751  140.7826  142.9669 LP  0  0  0  0  0  0  0  0  0  0  0  0  # atno 17320 bound_to 7965
  144.6954  140.3402  143.7200 LP  0  0  0  0  0  0  0  0  0  0  0  0  # atno 17321 bound_to 7965
  140.5380  143.2229  151.8131 LP  0  0  0  0  0  0  0  0  0  0  0  0  # atno 17342 bound_to 10162
  139.4853  144.4636  151.9511 LP  0  0  0  0  0  0  0  0  0  0  0  0  # atno 17343 bound_to 10162
  156.3517  130.3832  149.7324 LP  0  0  0  0  0  0  0  0  0  0  0  0  # atno 17370 bound_to 10713
  156.4799  130.8036  151.3051 LP  0  0  0  0  0  0  0  0  0  0  0  0  # atno 17371 bound_to 10713
  140.9484  133.7468  156.0238 LP  0  0  0  0  0  0  0  0  0  0  0  0  # atno 17394 bound_to 11000
  140.8136  134.3371  157.5404 LP  0  0  0  0  0  0  0  0  0  0  0  0  # atno 17395 bound_to 11000

$$$$
