AV-unprocessed.smi:1254|AV-procd|sdf|5269|dock5
  -GOLD-   22720 4383D 1   1.00000     0.00000
 Structure written by MMmdl.
 46 47  0  0  0  0  0  0  0  0  2 V2000
  151.1908  141.4289  156.1761 C   0  0  0  0  0  0  0  0  0  0  0  0
  151.2322  140.0596  155.5888 C   0  0  0  0  0  0  0  0  0  0  0  0
  150.2617  139.1402  155.3046 C   0  0  0  0  0  0  0  0  0  0  0  0
  151.0000  138.0513  154.7690 C   0  0  0  0  0  0  0  0  0  0  0  0
  150.3466  136.8655  154.3460 N   0  0  0  0  0  0  0  0  0  0  0  0
  150.2862  135.6896  154.9939 C   0  0  0  0  0  0  0  0  0  0  0  0
  150.8180  135.4468  156.0774 O   0  0  0  0  0  0  0  0  0  0  0  0
  149.5686  134.7894  154.3066 N   0  0  0  0  0  0  0  0  0  0  0  0
  149.3016  133.4214  154.7418 C   0  0  0  0  0  0  0  0  0  0  0  0
  148.7324  132.5322  153.6184 C   0  0  2  0  0  0  0  0  0  0  0  0
  147.7718  133.2845  152.6725 C   0  0  0  0  0  0  0  0  0  0  0  0
  147.2066  132.3572  151.6612 N   0  3  2  0  0  0  0  0  0  0  0  0
  146.3094  133.0153  150.6770 C   0  0  0  0  0  0  0  0  0  0  0  0
  144.8720  133.2268  151.2018 C   0  0  0  0  0  0  0  0  0  0  0  0
  143.9939  132.0119  150.8672 C   0  0  0  0  0  0  0  0  0  0  0  0
  144.2392  134.5148  150.6482 C   0  0  0  0  0  0  0  0  0  0  0  0
  146.5610  131.2011  152.3265 C   0  0  0  0  0  0  0  0  0  0  0  0
  147.5468  130.5143  153.2850 C   0  0  0  0  0  0  0  0  0  0  0  0
  148.0254  131.4602  154.2327 O   0  0  0  0  0  0  0  0  0  0  0  0
  152.3025  138.2863  154.7255 N   0  0  0  0  0  0  0  0  0  0  0  0
  152.4582  139.5739  155.2524 O   0  0  0  0  0  0  0  0  0  0  0  0
  150.2283  141.9043  155.9861 H   0  0  0  0  0  0  0  0  0  0  0  0
  151.9695  142.0608  155.7479 H   0  0  0  0  0  0  0  0  0  0  0  0
  151.3417  141.3895  157.2550 H   0  0  0  0  0  0  0  0  0  0  0  0
  149.1970  139.2340  155.4594 H   0  0  0  0  0  0  0  0  0  0  0  0
  149.8641  136.9238  153.4616 H   0  0  0  0  0  0  0  0  0  0  0  0
  149.1626  135.0745  153.4274 H   0  0  0  0  0  0  0  0  0  0  0  0
  150.2179  132.9822  155.1401 H   0  0  0  0  0  0  0  0  0  0  0  0
  148.5963  133.4649  155.5722 H   0  0  0  0  0  0  0  0  0  0  0  0
  149.5599  132.1168  153.0405 H   0  0  0  0  0  0  0  0  0  0  0  0
  146.9625  133.7426  153.2434 H   0  0  0  0  0  0  0  0  0  0  0  0
  148.3099  134.0911  152.1772 H   0  0  0  0  0  0  0  0  0  0  0  0
  146.7228  133.9903  150.4137 H   0  0  0  0  0  0  0  0  0  0  0  0
  146.2994  132.4309  149.7557 H   0  0  0  0  0  0  0  0  0  0  0  0
  144.8938  133.3037  152.2884 H   0  0  0  0  0  0  0  0  0  0  0  0
  143.9077  131.8690  149.7893 H   0  0  0  0  0  0  0  0  0  0  0  0
  142.9867  132.1310  151.2678 H   0  0  0  0  0  0  0  0  0  0  0  0
  144.4083  131.0968  151.2918 H   0  0  0  0  0  0  0  0  0  0  0  0
  144.1945  134.4989  149.5587 H   0  0  0  0  0  0  0  0  0  0  0  0
  144.8043  135.3985  150.9459 H   0  0  0  0  0  0  0  0  0  0  0  0
  143.2219  134.6425  151.0197 H   0  0  0  0  0  0  0  0  0  0  0  0
  145.6795  131.5391  152.8738 H   0  0  0  0  0  0  0  0  0  0  0  0
  146.2196  130.4839  151.5791 H   0  0  0  0  0  0  0  0  0  0  0  0
  147.0500  129.7021  153.8160 H   0  0  0  0  0  0  0  0  0  0  0  0
  148.3813  130.0732  152.7375 H   0  0  0  0  0  0  0  0  0  0  0  0
  147.9840  131.9828  151.1359 H   0  0  0  0  0  0  0  0  0  0  0  0
  1  2  1  0  0  0  0
  1 22  1  0  0  0  0
  1 23  1  0  0  0  0
  1 24  1  0  0  0  0
  2 21  1  0  0  0  0
  2  3  2  0  0  0  0
  3  4  1  0  0  0  0
  3 25  1  0  0  0  0
  4  5  1  0  0  0  0
  4 20  2  0  0  0  0
  5  6  1  0  0  0  0
  5 26  1  0  0  0  0
  6  7  2  0  0  0  0
  6  8  1  0  0  0  0
  8  9  1  0  0  0  0
  8 27  1  0  0  0  0
  9 10  1  0  0  0  0
  9 28  1  0  0  0  0
  9 29  1  0  0  0  0
 10 19  1  0  0  0  0
 10 11  1  0  0  0  0
 10 30  1  0  0  0  0
 11 12  1  0  0  0  0
 11 31  1  0  0  0  0
 11 32  1  0  0  0  0
 12 13  1  0  0  0  0
 12 17  1  0  0  0  0
 12 46  1  0  0  0  0
 13 14  1  0  0  0  0
 13 33  1  0  0  0  0
 13 34  1  0  0  0  0
 14 15  1  0  0  0  0
 14 16  1  0  0  0  0
 14 35  1  0  0  0  0
 15 36  1  0  0  0  0
 15 37  1  0  0  0  0
 15 38  1  0  0  0  0
 16 39  1  0  0  0  0
 16 40  1  0  0  0  0
 16 41  1  0  0  0  0
 17 18  1  0  0  0  0
 17 42  1  0  0  0  0
 17 43  1  0  0  0  0
 18 19  1  0  0  0  0
 18 44  1  0  0  0  0
 18 45  1  0  0  0  0
 20 21  1  0  0  0  0
M  CHG  1  12   1
M  END
> <s_m_source_file>
AV-unprocessed.smi

> <i_m_source_file_index>
1254

> <i_lp_mmshare_version>
43012

> <i_f3d_flags>
0

> <s_epik_input>
W0NIM11jMVtjSF1jKG5vMSlbTkhdQyg9TylbTkhdW0NIMl1bQ0BASF0yW0NIMl1OKFtDSDJdW0NIMl1PMilbQ0gyXVtDSF0oW0NIM10pW0NIM10=

> <s_epik_cmdline>
J2VwaWtfcHl0aG9uJywgJy1waCcsICc3LjAnLCAnLXRuJywgJzgnLCAnLW1hJywgJzIwMCcsICctbWV0YWxfYmluZGluZycsICctaW1hZScsICc8aW5maWxlLm1hZT4nLCAnLW9tYWUnLCAnPG91dGZpbGUubWFlPic=

> <r_epik_Ionization_Penalty>
0.0986825

> <r_epik_Ionization_Penalty_Charging>
0.0986478

> <r_epik_Ionization_Penalty_Neutral>
3.46838e-05

> <r_epik_State_Penalty>
0.0887259

> <r_epik_Charging_Adjusted_Penalty>
0.187374

> <i_epik_Tot_Q>
1

> <i_epik_Tot_abs_Q>
1

> <r_epik_Metal_State_Penalty>
0.103424

> <b_epik_Metal_Only>
0

> <s_lp_Force_Field>
OPLS_2005

> <r_lp_Energy>
15.3676

> <b_lp_Chiralities_Consistent>
1

> <s_lp_Variant>
AV-unprocessed.smi:1254-1

> <Gold.Version>
5.8.1

> <Gold.Id.Protein>
6NUR|6NUR_protein|mol2

> <Gold.PLP.Fitness>
48.3113

> <Gold.PLP.PLP>
-39.9606

> <Gold.PLP.part.hbond>
-5.4207

> <Gold.PLP.part.metal>
0.0000

> <Gold.PLP.part.buried>
-5.9310

> <Gold.PLP.part.nonpolar>
-28.9351

> <Gold.PLP.part.repulsive>
0.2662

> <Gold.PLP.ligand.clash>
0.0000

> <Gold.PLP.ligand.torsion>
1.6098

> <Gold.PLP.Chemscore.Hbond>
3.8413

> <Gold.PLP.Chemscore.CHOScore>
0.0000

> <Gold.PLP.Chemscore.Metal>
0.0000

> <Gold.Chemscore.Hbonds>
donor molecule, donor type, donor heavy atom, donor atom, acceptor molecule, acceptor atom, score
      L1  H     5    26       P1  7948  1.00
      L1  H     8    27       P1  7948  0.95
      L1  H    12    46       P1 10747  1.00
      P1  H  7997  8008       L1    21  0.67

> <Gold.PLP.Chemscore.Internal.Correction>
0.0465

> <Gold.Rescore>
     Score         DG    S(hbond)    S(metal)    S(lipo)     H(rot)  DE(clash)    DE(int)     intcor
     16.53     -18.96       2.70        0.00      76.06       1.73       0.12       2.30       ----

> <Gold.Chemscore.Fitness>
16.5328

> <Gold.Chemscore.DG>
-18.9556

> <Gold.Chemscore.ZeroCoef>
-5.4800

> <Gold.Chemscore.Hbond>
2.6954

> <Gold.Chemscore.Metal>
0.0000

> <Gold.Chemscore.Lipo>
76.0635

> <Gold.Chemscore.Internal_Hbond>
0.0000

> <Gold.Chemscore.DEClash>
0.1198

> <Gold.Chemscore.DEInternal>
2.3030

> <Gold.Chemscore.Rot>
1.7291

> <Gold.Chemscore.Internal.Correction>
   9.000000E+99

> <Gold.Chemscore.Hbonds>
donor molecule, donor type, donor heavy atom, donor atom, acceptor molecule, acceptor atom, score
      L1  H     5    26       P1  7948  0.39
      L1  H     8    27       P1  7948  0.21
      L1  H    12    46       P1 10747  1.00
      P1  H  7997  8008       L1    21  0.65

> <Gold.Chemscore.Hbond.Weighted>
-9.0027

> <Gold.Chemscore.Metal.Weighted>
-0.0000

> <Gold.Chemscore.Lipo.Weighted>
-8.8994

> <Gold.Chemscore.Internal_Hbond.Weighted>
0.0000

> <Gold.Chemscore.DEClash.Weighted>
0.1198

> <Gold.Chemscore.DEInternal.Weighted>
2.3030

> <Gold.Chemscore.Rot.Weighted>
4.4265

> <Gold.Chemscore.Internal.Correction.Weighted>
   9.000000E+99

> <Gold.Protein.RotatedTorsions>
[ 6907 6896 6895 6894 ] final  -53.96 input  -60.11 | X-H torsion
[ 7974 7965 7964 7962 ] final   54.74 input  175.53 | X-H torsion
[ 8008 7997 7996 7995 ] final  -27.38 input   59.86 | X-H torsion
[ 10167 10162 10161 10158 ] final  117.47 input  -65.29 | X-H torsion
[ 10718 10713 10712 10709 ] final  147.19 input   66.30 | X-H torsion
[ 10763 10752 10751 10750 ] final  -19.14 input  -60.55 | X-H torsion
[ 11005 11000 10999 10996 ] final -166.88 input  -57.11 | X-H torsion

> <Gold.Protein.ActiveResidues>
 VAL166  LYS551  ARG553  GLY616  TRP617  ASP618  TYR619  PRO620  LYS621  CYS622 
 ASP623  PHE694  ASN695  SER759  ASP760  ASP761  ALA762  ILE779  LEU786  VAL792 
 PHE793  MET794  SER795  GLU796  ALA797  LYS798  CYS799  TRP800  GLU811  SER814 

> <Gold.Protein.RotatedAtoms>
  150.8380  134.7661  159.6908 H   0  0  0  0  0  0  0  0  0  0  0  0  # atno 6907 bound_to 6896
  152.4473  134.5464  159.9864 H   0  0  0  0  0  0  0  0  0  0  0  0  # atno 6908 bound_to 6896
  151.5610  133.3365  159.3007 H   0  0  0  0  0  0  0  0  0  0  0  0  # atno 6909 bound_to 6896
  145.9577  139.4030  143.0267 H   0  0  0  0  0  0  0  0  0  0  0  0  # atno 7974 bound_to 7965
  154.4380  140.1874  156.0923 H   0  0  0  0  0  0  0  0  0  0  0  0  # atno 8008 bound_to 7997
  156.0356  140.3325  155.7161 H   0  0  0  0  0  0  0  0  0  0  0  0  # atno 8009 bound_to 7997
  155.5776  140.0618  157.2782 H   0  0  0  0  0  0  0  0  0  0  0  0  # atno 8010 bound_to 7997
  139.6176  144.7095  151.2704 H   0  0  0  0  0  0  0  0  0  0  0  0  # atno 10167 bound_to 10162
  157.3240  131.0909  151.1217 H   0  0  0  0  0  0  0  0  0  0  0  0  # atno 10718 bound_to 10713
  153.6002  135.6999  153.5387 H   0  0  0  0  0  0  0  0  0  0  0  0  # atno 10763 bound_to 10752
  153.3103  135.4103  155.1330 H   0  0  0  0  0  0  0  0  0  0  0  0  # atno 10764 bound_to 10752
  154.8584  135.3670  154.5537 H   0  0  0  0  0  0  0  0  0  0  0  0  # atno 10765 bound_to 10752
  140.5595  134.5347  157.5140 H   0  0  0  0  0  0  0  0  0  0  0  0  # atno 11005 bound_to 11000
  145.8084  140.9738  143.0962 LP  0  0  0  0  0  0  0  0  0  0  0  0  # atno 17320 bound_to 7965
  144.6808  139.9889  143.7484 LP  0  0  0  0  0  0  0  0  0  0  0  0  # atno 17321 bound_to 7965
  140.7361  143.6716  150.8076 LP  0  0  0  0  0  0  0  0  0  0  0  0  # atno 17342 bound_to 10162
  140.0322  143.5432  152.2755 LP  0  0  0  0  0  0  0  0  0  0  0  0  # atno 17343 bound_to 10162
  157.2491  130.6605  149.5923 LP  0  0  0  0  0  0  0  0  0  0  0  0  # atno 17370 bound_to 10713
  155.9688  130.4544  150.5848 LP  0  0  0  0  0  0  0  0  0  0  0  0  # atno 17371 bound_to 10713
  139.9415  134.7779  156.0668 LP  0  0  0  0  0  0  0  0  0  0  0  0  # atno 17394 bound_to 11000
  141.1123  133.6639  156.3008 LP  0  0  0  0  0  0  0  0  0  0  0  0  # atno 17395 bound_to 11000

$$$$
