AV-unprocessed.smi:2356|AV-procd|sdf|9394|dock9
  -GOLD-   2272013 23D 1   1.00000     0.00000
 Structure written by MMmdl.
 53 56  0  0  0  0  0  0  0  0  1 V2000
  149.7853  140.3681  154.1511 C   0  0  0  0  0  0  0  0  0  0  0  0
  150.3767  140.1271  155.5297 C   0  0  0  0  0  0  0  0  0  0  0  0
  150.8720  141.2222  156.1453 N   0  0  0  0  0  0  0  0  0  0  0  0
  151.4235  141.0984  157.3751 C   0  0  0  0  0  0  0  0  0  0  0  0
  151.9276  142.2697  157.9755 N   0  0  0  0  0  0  0  0  0  0  0  0
  151.6066  143.5951  157.4716 C   0  0  0  0  0  0  0  0  0  0  0  0
  152.2107  144.5580  158.4930 C   0  0  0  0  0  0  0  0  0  0  0  0
  152.1052  143.7833  159.8062 C   0  0  0  0  0  0  0  0  0  0  0  0
  152.2812  142.3192  159.3890 C   0  0  0  0  0  0  0  0  0  0  0  0
  151.4883  139.8493  158.0357 C   0  0  0  0  0  0  0  0  0  0  0  0
  150.9713  138.7071  157.3962 C   0  0  0  0  0  0  0  0  0  0  0  0
  150.3903  138.8387  156.1138 C   0  0  0  0  0  0  0  0  0  0  0  0
  149.8650  137.7441  155.3743 N   0  0  0  0  0  0  0  0  0  0  0  0
  149.3469  136.5845  155.8238 C   0  0  0  0  0  0  0  0  0  0  0  0
  149.2663  136.2645  157.0077 O   0  0  0  0  0  0  0  0  0  0  0  0
  148.8827  135.7793  154.8501 N   0  0  0  0  0  0  0  0  0  0  0  0
  148.2625  134.4590  154.9888 C   0  0  1  0  0  0  0  0  0  0  0  0
  148.1621  133.7732  153.6188 C   0  0  0  0  0  0  0  0  0  0  0  0
  147.6192  132.3420  153.7714 C   0  0  0  0  0  0  0  0  0  0  0  0
  148.4347  131.5993  154.6734 O   0  0  0  0  0  0  0  0  0  0  0  0
  148.4592  132.1471  155.9885 C   0  0  1  0  0  0  0  0  0  0  0  0
  149.2580  131.2213  156.8838 C   0  0  0  0  0  0  0  0  0  0  0  0
  150.6762  130.8332  156.5343 C   0  0  0  0  0  0  0  0  0  0  0  0
  149.5702  129.8107  156.4389 C   0  0  0  0  0  0  0  0  0  0  0  0
  149.0726  133.5568  155.9357 C   0  0  0  0  0  0  0  0  0  0  0  0
  148.7147  140.1634  154.1589 H   0  0  0  0  0  0  0  0  0  0  0  0
  150.2561  139.7183  153.4128 H   0  0  0  0  0  0  0  0  0  0  0  0
  149.9276  141.4003  153.8284 H   0  0  0  0  0  0  0  0  0  0  0  0
  152.0182  143.7597  156.4754 H   0  0  0  0  0  0  0  0  0  0  0  0
  150.5233  143.7134  157.4249 H   0  0  0  0  0  0  0  0  0  0  0  0
  153.2602  144.7387  158.2561 H   0  0  0  0  0  0  0  0  0  0  0  0
  151.7002  145.5209  158.5213 H   0  0  0  0  0  0  0  0  0  0  0  0
  152.8360  144.1022  160.5497 H   0  0  0  0  0  0  0  0  0  0  0  0
  151.1108  143.9242  160.2319 H   0  0  0  0  0  0  0  0  0  0  0  0
  151.6589  141.6636  159.9991 H   0  0  0  0  0  0  0  0  0  0  0  0
  153.3197  142.0066  159.5018 H   0  0  0  0  0  0  0  0  0  0  0  0
  151.9292  139.7469  159.0158 H   0  0  0  0  0  0  0  0  0  0  0  0
  151.0458  137.7536  157.8953 H   0  0  0  0  0  0  0  0  0  0  0  0
  149.7932  137.8948  154.3787 H   0  0  0  0  0  0  0  0  0  0  0  0
  148.9537  136.1319  153.9064 H   0  0  0  0  0  0  0  0  0  0  0  0
  147.2494  134.5743  155.3790 H   0  0  0  0  0  0  0  0  0  0  0  0
  147.5184  134.3481  152.9519 H   0  0  0  0  0  0  0  0  0  0  0  0
  149.1457  133.7346  153.1484 H   0  0  0  0  0  0  0  0  0  0  0  0
  146.5874  132.3544  154.1261 H   0  0  0  0  0  0  0  0  0  0  0  0
  147.6155  131.8382  152.8047 H   0  0  0  0  0  0  0  0  0  0  0  0
  147.4394  132.2049  156.3736 H   0  0  0  0  0  0  0  0  0  0  0  0
  149.0421  131.3416  157.9439 H   0  0  0  0  0  0  0  0  0  0  0  0
  151.0916  131.2109  155.6022 H   0  0  0  0  0  0  0  0  0  0  0  0
  151.3853  130.7329  157.3534 H   0  0  0  0  0  0  0  0  0  0  0  0
  149.5391  129.0285  157.1947 H   0  0  0  0  0  0  0  0  0  0  0  0
  149.2480  129.5099  155.4436 H   0  0  0  0  0  0  0  0  0  0  0  0
  150.1068  133.4944  155.5936 H   0  0  0  0  0  0  0  0  0  0  0  0
  149.1041  133.9813  156.9388 H   0  0  0  0  0  0  0  0  0  0  0  0
  1  2  1  0  0  0  0
  1 26  1  0  0  0  0
  1 27  1  0  0  0  0
  1 28  1  0  0  0  0
  2 12  1  0  0  0  0
  2  3  2  0  0  0  0
  3  4  1  0  0  0  0
  4  5  1  0  0  0  0
  4 10  2  0  0  0  0
  5  9  1  0  0  0  0
  5  6  1  0  0  0  0
  6  7  1  0  0  0  0
  6 29  1  0  0  0  0
  6 30  1  0  0  0  0
  7  8  1  0  0  0  0
  7 31  1  0  0  0  0
  7 32  1  0  0  0  0
  8  9  1  0  0  0  0
  8 33  1  0  0  0  0
  8 34  1  0  0  0  0
  9 35  1  0  0  0  0
  9 36  1  0  0  0  0
 10 11  1  0  0  0  0
 10 37  1  0  0  0  0
 11 12  2  0  0  0  0
 11 38  1  0  0  0  0
 12 13  1  0  0  0  0
 13 14  1  0  0  0  0
 13 39  1  0  0  0  0
 14 15  2  0  0  0  0
 14 16  1  0  0  0  0
 16 17  1  0  0  0  0
 16 40  1  0  0  0  0
 17 25  1  0  0  0  0
 17 18  1  0  0  0  0
 17 41  1  0  0  0  0
 18 19  1  0  0  0  0
 18 42  1  0  0  0  0
 18 43  1  0  0  0  0
 19 20  1  0  0  0  0
 19 44  1  0  0  0  0
 19 45  1  0  0  0  0
 20 21  1  0  0  0  0
 21 22  1  0  0  0  0
 21 25  1  0  0  0  0
 21 46  1  0  0  0  0
 22 24  1  0  0  0  0
 22 23  1  0  0  0  0
 22 47  1  0  0  0  0
 23 24  1  0  0  0  0
 23 48  1  0  0  0  0
 23 49  1  0  0  0  0
 24 50  1  0  0  0  0
 24 51  1  0  0  0  0
 25 52  1  0  0  0  0
 25 53  1  0  0  0  0
M  END
> <s_m_source_file>
AV-unprocessed.smi

> <i_m_source_file_index>
2356

> <i_lp_mmshare_version>
43012

> <i_f3d_flags>
0

> <s_epik_input>
W0NIMl0xW0NIMl1bQ0gyXVtDSDJdTjFjKG5jMltDSDNdKVtjSF1bY0hdYzJbTkhdQyg9TylbTkhdW0NAQEhdM1tDSDJdW0NIMl1PW0NASF0oW0NIMl0zKVtDSF00W0NIMl1bQ0gyXTQ=

> <s_epik_cmdline>
J2VwaWtfcHl0aG9uJywgJy1waCcsICc3LjAnLCAnLXRuJywgJzgnLCAnLW1hJywgJzIwMCcsICctbWV0YWxfYmluZGluZycsICctaW1hZScsICc8aW5maWxlLm1hZT4nLCAnLW9tYWUnLCAnPG91dGZpbGUubWFlPic=

> <r_lp_tautomer_probability>
1

> <r_epik_Ionization_Penalty>
0.308781

> <r_epik_Ionization_Penalty_Charging>
0

> <r_epik_Ionization_Penalty_Neutral>
0.308781

> <r_epik_State_Penalty>
0.302092

> <r_epik_Charging_Adjusted_Penalty>
0.302092

> <i_epik_Tot_Q>
0

> <i_epik_Tot_abs_Q>
0

> <r_epik_Metal_State_Penalty>
0.197467

> <b_epik_Metal_Only>
0

> <s_lp_Force_Field>
OPLS_2005

> <r_lp_Energy>
52.5469

> <b_lp_Chiralities_Consistent>
1

> <s_lp_Variant>
AV-unprocessed.smi:2356-2

> <Gold.Version>
5.8.1

> <Gold.Id.Protein>
6NUR|6NUR_protein|mol2

> <Gold.PLP.Fitness>
45.9600

> <Gold.PLP.PLP>
-43.7327

> <Gold.PLP.part.hbond>
-1.0000

> <Gold.PLP.part.metal>
0.0000

> <Gold.PLP.part.buried>
-3.2379

> <Gold.PLP.part.nonpolar>
-38.4316

> <Gold.PLP.part.repulsive>
0.1612

> <Gold.PLP.ligand.clash>
0.0000

> <Gold.PLP.ligand.torsion>
1.0158

> <Gold.PLP.Chemscore.Hbond>
1.0000

> <Gold.PLP.Chemscore.CHOScore>
0.0000

> <Gold.PLP.Chemscore.Metal>
0.0000

> <Gold.Chemscore.Hbonds>
donor molecule, donor type, donor heavy atom, donor atom, acceptor molecule, acceptor atom, score
      L1  H    16    40       P1  7948  1.00

> <Gold.PLP.Chemscore.Internal.Correction>
1.2588

> <Gold.Rescore>
     Score         DG    S(hbond)    S(metal)    S(lipo)     H(rot)  DE(clash)    DE(int)     intcor
     14.38     -17.60       0.38        0.00     117.59       1.14       0.01       3.22       ----

> <Gold.Chemscore.Fitness>
14.3759

> <Gold.Chemscore.DG>
-17.6048

> <Gold.Chemscore.ZeroCoef>
-5.4800

> <Gold.Chemscore.Hbond>
0.3845

> <Gold.Chemscore.Metal>
0.0000

> <Gold.Chemscore.Lipo>
117.5874

> <Gold.Chemscore.Internal_Hbond>
0.0000

> <Gold.Chemscore.DEClash>
0.0057

> <Gold.Chemscore.DEInternal>
3.2233

> <Gold.Chemscore.Rot>
1.1395

> <Gold.Chemscore.Internal.Correction>
   9.000000E+99

> <Gold.Chemscore.Hbonds>
donor molecule, donor type, donor heavy atom, donor atom, acceptor molecule, acceptor atom, score
      L1  H    16    40       P1  7948  0.92

> <Gold.Chemscore.Hbond.Weighted>
-1.2842

> <Gold.Chemscore.Metal.Weighted>
-0.0000

> <Gold.Chemscore.Lipo.Weighted>
-13.7577

> <Gold.Chemscore.Internal_Hbond.Weighted>
0.0000

> <Gold.Chemscore.DEClash.Weighted>
0.0057

> <Gold.Chemscore.DEInternal.Weighted>
3.2233

> <Gold.Chemscore.Rot.Weighted>
2.9171

> <Gold.Chemscore.Internal.Correction.Weighted>
   9.000000E+99

> <Gold.Protein.RotatedTorsions>
[ 6907 6896 6895 6894 ] final -116.19 input  -60.11 | X-H torsion
[ 7974 7965 7964 7962 ] final   16.33 input  175.53 | X-H torsion
[ 8008 7997 7996 7995 ] final  107.74 input   59.86 | X-H torsion
[ 10167 10162 10161 10158 ] final  119.53 input  -65.29 | X-H torsion
[ 10718 10713 10712 10709 ] final  156.47 input   66.30 | X-H torsion
[ 10763 10752 10751 10750 ] final -128.36 input  -60.55 | X-H torsion
[ 11005 11000 10999 10996 ] final  105.22 input  -57.11 | X-H torsion

> <Gold.Protein.ActiveResidues>
 VAL166  LYS551  ARG553  GLY616  TRP617  ASP618  TYR619  PRO620  LYS621  CYS622 
 ASP623  PHE694  ASN695  SER759  ASP760  ASP761  ALA762  ILE779  LEU786  VAL792 
 PHE793  MET794  SER795  GLU796  ALA797  LYS798  CYS799  TRP800  GLU811  SER814 

> <Gold.Protein.RotatedAtoms>
  150.8037  133.8551  159.3216 H   0  0  0  0  0  0  0  0  0  0  0  0  # atno 6907 bound_to 6896
  151.6357  135.1016  160.0140 H   0  0  0  0  0  0  0  0  0  0  0  0  # atno 6908 bound_to 6896
  152.4126  133.6947  159.6446 H   0  0  0  0  0  0  0  0  0  0  0  0  # atno 6909 bound_to 6896
  146.2252  139.8763  142.8578 H   0  0  0  0  0  0  0  0  0  0  0  0  # atno 7974 bound_to 7965
  156.1848  140.3089  155.9218 H   0  0  0  0  0  0  0  0  0  0  0  0  # atno 8008 bound_to 7997
  155.3304  140.0460  157.3059 H   0  0  0  0  0  0  0  0  0  0  0  0  # atno 8009 bound_to 7997
  154.5384  140.2253  155.8693 H   0  0  0  0  0  0  0  0  0  0  0  0  # atno 8010 bound_to 7997
  139.6040  144.7065  151.2995 H   0  0  0  0  0  0  0  0  0  0  0  0  # atno 10167 bound_to 10162
  157.2045  131.0683  151.2006 H   0  0  0  0  0  0  0  0  0  0  0  0  # atno 10718 bound_to 10713
  154.8756  135.3931  154.3744 H   0  0  0  0  0  0  0  0  0  0  0  0  # atno 10763 bound_to 10752
  153.4500  135.7028  153.6120 H   0  0  0  0  0  0  0  0  0  0  0  0  # atno 10764 bound_to 10752
  153.4664  135.3800  155.2336 H   0  0  0  0  0  0  0  0  0  0  0  0  # atno 10765 bound_to 10752
  139.8800  134.9328  156.5481 H   0  0  0  0  0  0  0  0  0  0  0  0  # atno 11005 bound_to 11000
  145.2557  141.0059  143.3855 LP  0  0  0  0  0  0  0  0  0  0  0  0  # atno 17320 bound_to 7965
  144.9338  139.4267  143.6482 LP  0  0  0  0  0  0  0  0  0  0  0  0  # atno 17321 bound_to 7965
  140.7271  143.6972  150.7874 LP  0  0  0  0  0  0  0  0  0  0  0  0  # atno 17342 bound_to 10162
  140.0554  143.5208  152.2654 LP  0  0  0  0  0  0  0  0  0  0  0  0  # atno 17343 bound_to 10162
  157.3734  130.7193  149.6580 LP  0  0  0  0  0  0  0  0  0  0  0  0  # atno 17370 bound_to 10713
  155.9697  130.4192  150.4366 LP  0  0  0  0  0  0  0  0  0  0  0  0  # atno 17371 bound_to 10713
  140.8260  133.8316  155.8940 LP  0  0  0  0  0  0  0  0  0  0  0  0  # atno 17394 bound_to 11000
  140.9373  134.1945  157.4822 LP  0  0  0  0  0  0  0  0  0  0  0  0  # atno 17395 bound_to 11000

$$$$
