AV-unprocessed.smi:238|AV-procd|sdf|1819|dock2
  -GOLD-   2262020413D 1   1.00000     0.00000
 Structure written by MMmdl.
 52 54  0  0  0  0  0  0  0  0  1 V2000
  148.8586  131.8047  160.3376 C   0  0  0  0  0  0  0  0  0  0  0  0
  147.8479  131.5997  159.3577 O   0  0  0  0  0  0  0  0  0  0  0  0
  147.9138  132.3628  158.1477 C   0  0  0  0  0  0  0  0  0  0  0  0
  146.5104  132.2435  157.5261 C   0  0  0  0  0  0  0  0  0  0  0  0
  148.1796  133.8551  158.4452 C   0  0  0  0  0  0  0  0  0  0  0  0
  149.0268  131.8169  157.2065 C   0  0  0  0  0  0  0  0  0  0  0  0
  148.9177  132.2196  155.8016 N   0  0  0  0  0  0  0  0  0  0  0  0
  149.3761  133.5399  155.3787 C   0  0  0  0  0  0  0  0  0  0  0  0
  148.0398  131.5623  155.0036 C   0  0  0  0  0  0  0  0  0  0  0  0
  147.5052  130.3913  155.4393 N   0  0  0  0  0  0  0  0  0  0  0  0
  146.6683  129.7009  154.6604 C   0  0  0  0  0  0  0  0  0  0  0  0
  146.2300  130.0000  153.4365 N   0  0  0  0  0  0  0  0  0  0  0  0
  146.7403  131.1882  153.0028 C   0  0  0  0  0  0  0  0  0  0  0  0
  147.6458  132.0247  153.7156 C   0  0  0  0  0  0  0  0  0  0  0  0
  147.9423  133.1491  152.9553 N   0  0  0  0  0  0  0  0  0  0  0  0
  147.2751  132.9734  151.8483 C   0  0  0  0  0  0  0  0  0  0  0  0
  146.4979  131.8365  151.8028 N   0  0  0  0  0  0  0  0  0  0  0  0
  145.6872  131.3745  150.7074 C   0  0  0  0  0  0  0  0  0  0  0  0
  145.6407  132.1239  149.3689 C   0  0  0  0  0  0  0  0  0  0  0  0
  144.2835  132.7494  149.7575 C   0  0  0  0  0  0  0  0  0  0  0  0
  144.3647  134.1395  150.4208 C   0  0  0  0  0  0  0  0  0  0  0  0
  143.2350  134.3940  151.2312 O   0  0  0  0  0  0  0  0  0  0  0  0
  143.2268  132.7850  148.6408 C   0  0  0  0  0  0  0  0  0  0  0  0
  143.4722  133.8411  147.7340 O   0  0  0  0  0  0  0  0  0  0  0  0
  144.1657  131.5648  150.7395 C   0  0  0  0  0  0  0  0  0  0  0  0
  148.7828  131.0251  161.0954 H   0  0  0  0  0  0  0  0  0  0  0  0
  148.7333  132.7622  160.8430 H   0  0  0  0  0  0  0  0  0  0  0  0
  149.8626  131.7620  159.9196 H   0  0  0  0  0  0  0  0  0  0  0  0
  146.4666  132.7153  156.5441 H   0  0  0  0  0  0  0  0  0  0  0  0
  145.7607  132.7225  158.1566 H   0  0  0  0  0  0  0  0  0  0  0  0
  146.2065  131.2029  157.4162 H   0  0  0  0  0  0  0  0  0  0  0  0
  148.0943  134.4552  157.5387 H   0  0  0  0  0  0  0  0  0  0  0  0
  149.1814  134.0226  158.8413 H   0  0  0  0  0  0  0  0  0  0  0  0
  147.4641  134.2502  159.1672 H   0  0  0  0  0  0  0  0  0  0  0  0
  149.9904  132.1755  157.5695 H   0  0  0  0  0  0  0  0  0  0  0  0
  149.0947  130.7334  157.2808 H   0  0  0  0  0  0  0  0  0  0  0  0
  149.7931  133.4890  154.3722 H   0  0  0  0  0  0  0  0  0  0  0  0
  150.1564  133.9115  156.0432 H   0  0  0  0  0  0  0  0  0  0  0  0
  148.5637  134.2663  155.3731 H   0  0  0  0  0  0  0  0  0  0  0  0
  146.2978  128.7760  155.0768 H   0  0  0  0  0  0  0  0  0  0  0  0
  147.3332  133.6840  151.0376 H   0  0  0  0  0  0  0  0  0  0  0  0
  145.9528  130.3263  150.5653 H   0  0  0  0  0  0  0  0  0  0  0  0
  146.4387  132.8454  149.1976 H   0  0  0  0  0  0  0  0  0  0  0  0
  145.5629  131.4394  148.5225 H   0  0  0  0  0  0  0  0  0  0  0  0
  145.2631  134.2392  151.0302 H   0  0  0  0  0  0  0  0  0  0  0  0
  144.4217  134.9309  149.6735 H   0  0  0  0  0  0  0  0  0  0  0  0
  142.4795  134.4872  150.6711 H   0  0  0  0  0  0  0  0  0  0  0  0
  143.1930  131.8449  148.0897 H   0  0  0  0  0  0  0  0  0  0  0  0
  142.2293  132.9304  149.0566 H   0  0  0  0  0  0  0  0  0  0  0  0
  144.3980  133.8659  147.5456 H   0  0  0  0  0  0  0  0  0  0  0  0
  143.6350  130.7108  150.3148 H   0  0  0  0  0  0  0  0  0  0  0  0
  143.7495  131.8324  151.7109 H   0  0  0  0  0  0  0  0  0  0  0  0
  1  2  1  0  0  0  0
  1 26  1  0  0  0  0
  1 27  1  0  0  0  0
  1 28  1  0  0  0  0
  2  3  1  0  0  0  0
  3  4  1  0  0  0  0
  3  5  1  0  0  0  0
  3  6  1  0  0  0  0
  4 29  1  0  0  0  0
  4 30  1  0  0  0  0
  4 31  1  0  0  0  0
  5 32  1  0  0  0  0
  5 33  1  0  0  0  0
  5 34  1  0  0  0  0
  6  7  1  0  0  0  0
  6 35  1  0  0  0  0
  6 36  1  0  0  0  0
  7  8  1  0  0  0  0
  7  9  1  0  0  0  0
  8 37  1  0  0  0  0
  8 38  1  0  0  0  0
  8 39  1  0  0  0  0
  9 14  1  0  0  0  0
  9 10  2  0  0  0  0
 10 11  1  0  0  0  0
 11 12  2  0  0  0  0
 11 40  1  0  0  0  0
 12 13  1  0  0  0  0
 13 17  1  0  0  0  0
 13 14  2  0  0  0  0
 14 15  1  0  0  0  0
 15 16  2  0  0  0  0
 16 17  1  0  0  0  0
 16 41  1  0  0  0  0
 17 18  1  0  0  0  0
 18 25  1  0  0  0  0
 18 19  1  0  0  0  0
 18 42  1  0  0  0  0
 19 20  1  0  0  0  0
 19 43  1  0  0  0  0
 19 44  1  0  0  0  0
 20 21  1  0  0  0  0
 20 23  1  0  0  0  0
 20 25  1  0  0  0  0
 21 22  1  0  0  0  0
 21 45  1  0  0  0  0
 21 46  1  0  0  0  0
 22 47  1  0  0  0  0
 23 24  1  0  0  0  0
 23 48  1  0  0  0  0
 23 49  1  0  0  0  0
 24 50  1  0  0  0  0
 25 51  1  0  0  0  0
 25 52  1  0  0  0  0
M  END
> <s_m_source_file>
AV-unprocessed.smi

> <i_m_source_file_index>
238

> <i_lp_mmshare_version>
43012

> <i_f3d_flags>
0

> <s_epik_input>
W0NIM11PQyhbQ0gzXSkoW0NIM10pW0NIMl1OKFtDSDNdKWMobltjSF1uMSljKGMxMiluW2NIXW4yW0NIXShbQ0gyXTMpW0NIMl1DMyhbQ0gyXVtPSF0pW0NIMl1bT0hd

> <s_epik_cmdline>
J2VwaWtfcHl0aG9uJywgJy1waCcsICc3LjAnLCAnLXRuJywgJzgnLCAnLW1hJywgJzIwMCcsICctbWV0YWxfYmluZGluZycsICctaW1hZScsICc8aW5maWxlLm1hZT4nLCAnLW9tYWUnLCAnPG91dGZpbGUubWFlPic=

> <r_lp_tautomer_probability>
1

> <r_epik_Ionization_Penalty>
0.00209421

> <r_epik_Ionization_Penalty_Charging>
0

> <r_epik_Ionization_Penalty_Neutral>
0.00209421

> <r_epik_State_Penalty>
0.00129171

> <r_epik_Charging_Adjusted_Penalty>
0.00129171

> <i_epik_Tot_Q>
0

> <i_epik_Tot_abs_Q>
0

> <r_epik_Metal_State_Penalty>
-0

> <b_epik_Metal_Only>
0

> <s_lp_Force_Field>
OPLS_2005

> <r_lp_Energy>
43.4617

> <b_lp_Chiralities_Consistent>
1

> <s_lp_Variant>
AV-unprocessed.smi:238-1

> <Gold.Version>
5.8.1

> <Gold.Id.Protein>
6NUR|6NUR_protein|mol2

> <Gold.PLP.Fitness>
42.4854

> <Gold.PLP.PLP>
-35.1531

> <Gold.PLP.part.hbond>
-4.9158

> <Gold.PLP.part.metal>
0.0000

> <Gold.PLP.part.buried>
-0.5104

> <Gold.PLP.part.nonpolar>
-30.4797

> <Gold.PLP.part.repulsive>
0.3689

> <Gold.PLP.ligand.clash>
0.0000

> <Gold.PLP.ligand.torsion>
1.2781

> <Gold.PLP.Chemscore.Hbond>
3.0000

> <Gold.PLP.Chemscore.CHOScore>
0.0000

> <Gold.PLP.Chemscore.Metal>
0.0000

> <Gold.Chemscore.Hbonds>
donor molecule, donor type, donor heavy atom, donor atom, acceptor molecule, acceptor atom, score
      L1  H    22    47       P1 10186  0.95
      L1  H    24    50       P1  7921  1.00
      P1  H 10192 10197       L1    24  0.96

> <Gold.PLP.Chemscore.Internal.Correction>
0.8885

> <Gold.Rescore>
     Score         DG    S(hbond)    S(metal)    S(lipo)     H(rot)  DE(clash)    DE(int)     intcor
     10.34     -13.17       2.15        0.00      83.67       3.63       0.51       2.32       ----

> <Gold.Chemscore.Fitness>
10.3385

> <Gold.Chemscore.DG>
-13.1691

> <Gold.Chemscore.ZeroCoef>
-5.4800

> <Gold.Chemscore.Hbond>
2.1505

> <Gold.Chemscore.Metal>
0.0000

> <Gold.Chemscore.Lipo>
83.6697

> <Gold.Chemscore.Internal_Hbond>
0.0000

> <Gold.Chemscore.DEClash>
0.5096

> <Gold.Chemscore.DEInternal>
2.3210

> <Gold.Chemscore.Rot>
3.6261

> <Gold.Chemscore.Internal.Correction>
   9.000000E+99

> <Gold.Chemscore.Hbonds>
donor molecule, donor type, donor heavy atom, donor atom, acceptor molecule, acceptor atom, score
      L1  H    22    47       P1 10186  0.22
      L1  H    24    50       P1  7921  0.94
      P1  H 10192 10197       L1    24  0.91

> <Gold.Chemscore.Hbond.Weighted>
-7.1827

> <Gold.Chemscore.Metal.Weighted>
-0.0000

> <Gold.Chemscore.Lipo.Weighted>
-9.7894

> <Gold.Chemscore.Internal_Hbond.Weighted>
0.0000

> <Gold.Chemscore.DEClash.Weighted>
0.5096

> <Gold.Chemscore.DEInternal.Weighted>
2.3210

> <Gold.Chemscore.Rot.Weighted>
9.2829

> <Gold.Chemscore.Internal.Correction.Weighted>
   9.000000E+99

> <Gold.Protein.RotatedTorsions>
[ 6907 6896 6895 6894 ] final  159.63 input  -60.11 | X-H torsion
[ 7974 7965 7964 7962 ] final  166.84 input  175.53 | X-H torsion
[ 8008 7997 7996 7995 ] final  -31.35 input   59.86 | X-H torsion
[ 10167 10162 10161 10158 ] final  -11.40 input  -65.29 | X-H torsion
[ 10718 10713 10712 10709 ] final  161.94 input   66.30 | X-H torsion
[ 10763 10752 10751 10750 ] final  -32.95 input  -60.55 | X-H torsion
[ 11005 11000 10999 10996 ] final  -40.36 input  -57.11 | X-H torsion

> <Gold.Protein.ActiveResidues>
 VAL166  LYS551  ARG553  GLY616  TRP617  ASP618  TYR619  PRO620  LYS621  CYS622 
 ASP623  PHE694  ASN695  SER759  ASP760  ASP761  ALA762  ILE779  LEU786  VAL792 
 PHE793  MET794  SER795  GLU796  ALA797  LYS798  CYS799  TRP800  GLU811  SER814 

> <Gold.Protein.RotatedAtoms>
  151.9826  133.3763  159.4113 H   0  0  0  0  0  0  0  0  0  0  0  0  # atno 6907 bound_to 6896
  150.6932  134.4022  159.5133 H   0  0  0  0  0  0  0  0  0  0  0  0  # atno 6908 bound_to 6896
  152.1743  134.8807  160.0582 H   0  0  0  0  0  0  0  0  0  0  0  0  # atno 6909 bound_to 6896
  144.7447  139.8674  143.6386 H   0  0  0  0  0  0  0  0  0  0  0  0  # atno 7974 bound_to 7965
  154.4217  140.1767  156.1552 H   0  0  0  0  0  0  0  0  0  0  0  0  # atno 8008 bound_to 7997
  155.9882  140.3371  155.6703 H   0  0  0  0  0  0  0  0  0  0  0  0  # atno 8009 bound_to 7997
  155.6408  140.0680  157.2610 H   0  0  0  0  0  0  0  0  0  0  0  0  # atno 8010 bound_to 7997
  140.7137  143.5644  150.9160 H   0  0  0  0  0  0  0  0  0  0  0  0  # atno 10167 bound_to 10162
  157.1295  131.0513  151.2378 H   0  0  0  0  0  0  0  0  0  0  0  0  # atno 10718 bound_to 10713
  153.8221  135.6873  153.4826 H   0  0  0  0  0  0  0  0  0  0  0  0  # atno 10763 bound_to 10752
  153.1562  135.4598  154.9706 H   0  0  0  0  0  0  0  0  0  0  0  0  # atno 10764 bound_to 10752
  154.7923  135.3306  154.7692 H   0  0  0  0  0  0  0  0  0  0  0  0  # atno 10765 bound_to 10752
  141.0169  133.6881  156.2311 H   0  0  0  0  0  0  0  0  0  0  0  0  # atno 11005 bound_to 11000
  146.1305  139.4339  143.0172 LP  0  0  0  0  0  0  0  0  0  0  0  0  # atno 17320 bound_to 7965
  145.7171  141.0087  143.1422 LP  0  0  0  0  0  0  0  0  0  0  0  0  # atno 17321 bound_to 7965
  139.9369  143.6427  152.3063 LP  0  0  0  0  0  0  0  0  0  0  0  0  # atno 17342 bound_to 10162
  139.6898  144.7648  151.1459 LP  0  0  0  0  0  0  0  0  0  0  0  0  # atno 17343 bound_to 10162
  157.4405  130.7541  149.7065 LP  0  0  0  0  0  0  0  0  0  0  0  0  # atno 17370 bound_to 10713
  155.9811  130.4023  150.3491 LP  0  0  0  0  0  0  0  0  0  0  0  0  # atno 17371 bound_to 10713
  140.6640  134.4938  157.5584 LP  0  0  0  0  0  0  0  0  0  0  0  0  # atno 17394 bound_to 11000
  139.9122  134.8320  156.1488 LP  0  0  0  0  0  0  0  0  0  0  0  0  # atno 17395 bound_to 11000

$$$$
