AV-unprocessed.smi:573|AV-procd|sdf|2974|dock3
  -GOLD-   2262023483D 1   1.00000     0.00000
 Structure written by MMmdl.
 44 46  0  0  0  0  0  0  0  0  1 V2000
  154.2683  138.4297  159.6028 C   0  0  0  0  0  0  0  0  0  0  0  0
  153.0910  137.5698  159.1248 C   0  0  1  0  0  0  0  0  0  0  0  0
  153.0446  136.4260  159.9518 O   0  0  0  0  0  0  0  0  0  0  0  0
  151.7529  138.3220  159.2319 C   0  0  0  0  0  0  0  0  0  0  0  0
  151.7286  139.5251  158.4189 N   0  0  0  0  0  0  0  0  0  0  0  0
  151.7679  140.8770  158.7396 C   0  0  0  0  0  0  0  0  0  0  0  0
  151.8442  141.3462  159.9834 N   0  0  0  0  0  0  0  0  0  0  0  0
  151.8632  142.7135  159.7806 C   0  0  0  0  0  0  0  0  0  0  0  0
  151.9361  143.7772  160.7082 C   0  0  0  0  0  0  0  0  0  0  0  0
  151.9459  145.1148  160.2612 C   0  0  0  0  0  0  0  0  0  0  0  0
  151.8845  145.4077  158.8834 C   0  0  0  0  0  0  0  0  0  0  0  0
  151.8091  144.3634  157.9417 C   0  0  0  0  0  0  0  0  0  0  0  0
  151.7966  143.0298  158.3923 C   0  0  0  0  0  0  0  0  0  0  0  0
  151.7293  141.7980  157.7479 N   0  0  0  0  0  0  0  0  0  0  0  0
  151.6435  141.5716  156.3119 C   0  0  0  0  0  0  0  0  0  0  0  0
  150.4172  140.7248  155.9342 C   0  0  1  0  0  0  0  0  0  0  0  0
  149.1501  141.5863  155.7764 C   0  0  0  0  0  0  0  0  0  0  0  0
  147.9649  140.7248  155.3266 C   0  0  0  0  0  0  0  0  0  0  0  0
  148.3491  139.9333  154.0720 C   0  0  0  0  0  0  0  0  0  0  0  0
  149.6527  139.1550  154.3100 C   0  0  0  0  0  0  0  0  0  0  0  0
  150.6869  140.0501  154.7061 O   0  0  0  0  0  0  0  0  0  0  0  0
  154.3697  139.3281  158.9934 H   0  0  0  0  0  0  0  0  0  0  0  0
  155.2086  137.8810  159.5376 H   0  0  0  0  0  0  0  0  0  0  0  0
  154.1368  138.7446  160.6387 H   0  0  0  0  0  0  0  0  0  0  0  0
  153.2738  137.2619  158.0942 H   0  0  0  0  0  0  0  0  0  0  0  0
  153.3930  136.6577  160.7999 H   0  0  0  0  0  0  0  0  0  0  0  0
  150.9133  137.6749  158.9748 H   0  0  0  0  0  0  0  0  0  0  0  0
  151.5955  138.6408  160.2626 H   0  0  0  0  0  0  0  0  0  0  0  0
  151.6593  139.3364  157.4295 H   0  0  0  0  0  0  0  0  0  0  0  0
  151.9859  143.5634  161.7656 H   0  0  0  0  0  0  0  0  0  0  0  0
  152.0025  145.9199  160.9791 H   0  0  0  0  0  0  0  0  0  0  0  0
  151.8957  146.4349  158.5495 H   0  0  0  0  0  0  0  0  0  0  0  0
  151.7650  144.5845  156.8855 H   0  0  0  0  0  0  0  0  0  0  0  0
  151.6176  142.5347  155.8011 H   0  0  0  0  0  0  0  0  0  0  0  0
  152.5582  141.0775  155.9828 H   0  0  0  0  0  0  0  0  0  0  0  0
  150.2515  139.9809  156.7158 H   0  0  0  0  0  0  0  0  0  0  0  0
  148.9116  142.0851  156.7161 H   0  0  0  0  0  0  0  0  0  0  0  0
  149.3283  142.3720  155.0410 H   0  0  0  0  0  0  0  0  0  0  0  0
  147.6870  140.0358  156.1254 H   0  0  0  0  0  0  0  0  0  0  0  0
  147.0923  141.3489  155.1321 H   0  0  0  0  0  0  0  0  0  0  0  0
  147.5456  139.2504  153.7947 H   0  0  0  0  0  0  0  0  0  0  0  0
  148.4823  140.6179  153.2334 H   0  0  0  0  0  0  0  0  0  0  0  0
  149.5133  138.3843  155.0697 H   0  0  0  0  0  0  0  0  0  0  0  0
  149.9582  138.6479  153.3948 H   0  0  0  0  0  0  0  0  0  0  0  0
  1  2  1  0  0  0  0
  1 22  1  0  0  0  0
  1 23  1  0  0  0  0
  1 24  1  0  0  0  0
  2  3  1  0  0  0  0
  2  4  1  0  0  0  0
  2 25  1  0  0  0  0
  3 26  1  0  0  0  0
  4  5  1  0  0  0  0
  4 27  1  0  0  0  0
  4 28  1  0  0  0  0
  5  6  1  0  0  0  0
  5 29  1  0  0  0  0
  6 14  1  0  0  0  0
  6  7  2  0  0  0  0
  7  8  1  0  0  0  0
  8 13  2  0  0  0  0
  8  9  1  0  0  0  0
  9 10  2  0  0  0  0
  9 30  1  0  0  0  0
 10 11  1  0  0  0  0
 10 31  1  0  0  0  0
 11 12  2  0  0  0  0
 11 32  1  0  0  0  0
 12 13  1  0  0  0  0
 12 33  1  0  0  0  0
 13 14  1  0  0  0  0
 14 15  1  0  0  0  0
 15 16  1  0  0  0  0
 15 34  1  0  0  0  0
 15 35  1  0  0  0  0
 16 21  1  0  0  0  0
 16 17  1  0  0  0  0
 16 36  1  0  0  0  0
 17 18  1  0  0  0  0
 17 37  1  0  0  0  0
 17 38  1  0  0  0  0
 18 19  1  0  0  0  0
 18 39  1  0  0  0  0
 18 40  1  0  0  0  0
 19 20  1  0  0  0  0
 19 41  1  0  0  0  0
 19 42  1  0  0  0  0
 20 21  1  0  0  0  0
 20 43  1  0  0  0  0
 20 44  1  0  0  0  0
M  END
> <s_m_source_file>
AV-unprocessed.smi

> <i_m_source_file_index>
573

> <i_lp_mmshare_version>
43012

> <i_f3d_flags>
0

> <s_epik_input>
W0NIM11bQ0BIXShbT0hdKVtDSDJdW05IXWMobjEpbihjKGMxMilbY0hdW2NIXVtjSF1bY0hdMilbQ0gyXVtDQEBIXTNbQ0gyXVtDSDJdW0NIMl1bQ0gyXU8z

> <s_epik_cmdline>
J2VwaWtfcHl0aG9uJywgJy1waCcsICc3LjAnLCAnLXRuJywgJzgnLCAnLW1hJywgJzIwMCcsICctbWV0YWxfYmluZGluZycsICctaW1hZScsICc8aW5maWxlLm1hZT4nLCAnLW9tYWUnLCAnPG91dGZpbGUubWFlPic=

> <r_epik_Ionization_Penalty>
1.30635

> <r_epik_Ionization_Penalty_Charging>
0

> <r_epik_Ionization_Penalty_Neutral>
1.30635

> <r_epik_State_Penalty>
1.38073

> <r_epik_Charging_Adjusted_Penalty>
1.38073

> <i_epik_Tot_Q>
0

> <i_epik_Tot_abs_Q>
0

> <r_epik_Metal_State_Penalty>
0.00547412

> <b_epik_Metal_Only>
0

> <s_lp_Force_Field>
OPLS_2005

> <r_lp_Energy>
9.01344

> <b_lp_Chiralities_Consistent>
1

> <s_lp_Variant>
AV-unprocessed.smi:573-8

> <Gold.Version>
5.8.1

> <Gold.Id.Protein>
6NUR|6NUR_protein|mol2

> <Gold.PLP.Fitness>
46.0962

> <Gold.PLP.PLP>
-40.7940

> <Gold.PLP.part.hbond>
-2.0000

> <Gold.PLP.part.metal>
0.0000

> <Gold.PLP.part.buried>
-6.7439

> <Gold.PLP.part.nonpolar>
-31.9714

> <Gold.PLP.part.repulsive>
0.1631

> <Gold.PLP.ligand.clash>
0.0000

> <Gold.PLP.ligand.torsion>
0.3645

> <Gold.PLP.Chemscore.Hbond>
2.0000

> <Gold.PLP.Chemscore.CHOScore>
0.0000

> <Gold.PLP.Chemscore.Metal>
0.0000

> <Gold.Chemscore.Hbonds>
donor molecule, donor type, donor heavy atom, donor atom, acceptor molecule, acceptor atom, score
      P1  H  6896  6909       L1     3  1.00
      P1  H  7989  7998       L1    21  1.00

> <Gold.PLP.Chemscore.Internal.Correction>
0.0311

> <Gold.Rescore>
     Score         DG    S(hbond)    S(metal)    S(lipo)     H(rot)  DE(clash)    DE(int)     intcor
     19.56     -21.28       1.91        0.00     124.86       2.02       1.48       0.24       ----

> <Gold.Chemscore.Fitness>
19.5646

> <Gold.Chemscore.DG>
-21.2788

> <Gold.Chemscore.ZeroCoef>
-5.4800

> <Gold.Chemscore.Hbond>
1.9065

> <Gold.Chemscore.Metal>
0.0000

> <Gold.Chemscore.Lipo>
124.8586

> <Gold.Chemscore.Internal_Hbond>
0.0000

> <Gold.Chemscore.DEClash>
1.4764

> <Gold.Chemscore.DEInternal>
0.2379

> <Gold.Chemscore.Rot>
2.0224

> <Gold.Chemscore.Internal.Correction>
   9.000000E+99

> <Gold.Chemscore.Hbonds>
donor molecule, donor type, donor heavy atom, donor atom, acceptor molecule, acceptor atom, score
      P1  H  6896  6909       L1     3  0.74
      P1  H  7989  7998       L1    21  0.95

> <Gold.Chemscore.Hbond.Weighted>
-6.3677

> <Gold.Chemscore.Metal.Weighted>
-0.0000

> <Gold.Chemscore.Lipo.Weighted>
-14.6085

> <Gold.Chemscore.Internal_Hbond.Weighted>
0.0000

> <Gold.Chemscore.DEClash.Weighted>
1.4764

> <Gold.Chemscore.DEInternal.Weighted>
0.2379

> <Gold.Chemscore.Rot.Weighted>
5.1773

> <Gold.Chemscore.Internal.Correction.Weighted>
   9.000000E+99

> <Gold.Protein.RotatedTorsions>
[ 6907 6896 6895 6894 ] final  156.09 input  -60.11 | X-H torsion
[ 7974 7965 7964 7962 ] final -132.71 input  175.53 | X-H torsion
[ 8008 7997 7996 7995 ] final  -46.14 input   59.86 | X-H torsion
[ 10167 10162 10161 10158 ] final  176.78 input  -65.29 | X-H torsion
[ 10718 10713 10712 10709 ] final  103.20 input   66.30 | X-H torsion
[ 10763 10752 10751 10750 ] final  -50.55 input  -60.55 | X-H torsion
[ 11005 11000 10999 10996 ] final -110.55 input  -57.11 | X-H torsion

> <Gold.Protein.ActiveResidues>
 VAL166  LYS551  ARG553  GLY616  TRP617  ASP618  TYR619  PRO620  LYS621  CYS622 
 ASP623  PHE694  ASN695  SER759  ASP760  ASP761  ALA762  ILE779  LEU786  VAL792 
 PHE793  MET794  SER795  GLU796  ALA797  LYS798  CYS799  TRP800  GLU811  SER814 

> <Gold.Protein.RotatedAtoms>
  152.0347  133.3952  159.4311 H   0  0  0  0  0  0  0  0  0  0  0  0  # atno 6907 bound_to 6896
  150.6879  134.3482  159.4906 H   0  0  0  0  0  0  0  0  0  0  0  0  # atno 6908 bound_to 6896
  152.1272  134.9161  160.0611 H   0  0  0  0  0  0  0  0  0  0  0  0  # atno 6909 bound_to 6896
  144.9260  140.7072  143.4935 H   0  0  0  0  0  0  0  0  0  0  0  0  # atno 7974 bound_to 7965
  154.4005  140.1379  156.3962 H   0  0  0  0  0  0  0  0  0  0  0  0  # atno 8008 bound_to 7997
  155.7868  140.3480  155.5307 H   0  0  0  0  0  0  0  0  0  0  0  0  # atno 8009 bound_to 7997
  155.8619  140.0958  157.1598 H   0  0  0  0  0  0  0  0  0  0  0  0  # atno 8010 bound_to 7997
  139.5227  144.2875  152.0493 H   0  0  0  0  0  0  0  0  0  0  0  0  # atno 10167 bound_to 10162
  157.6779  131.0773  150.5520 H   0  0  0  0  0  0  0  0  0  0  0  0  # atno 10718 bound_to 10713
  154.1122  135.6547  153.4887 H   0  0  0  0  0  0  0  0  0  0  0  0  # atno 10763 bound_to 10752
  153.0253  135.5250  154.7181 H   0  0  0  0  0  0  0  0  0  0  0  0  # atno 10764 bound_to 10752
  154.6364  135.2982  155.0125 H   0  0  0  0  0  0  0  0  0  0  0  0  # atno 10765 bound_to 10752
  141.0785  133.9260  157.2338 H   0  0  0  0  0  0  0  0  0  0  0  0  # atno 11005 bound_to 11000
  145.3219  139.1786  143.4583 LP  0  0  0  0  0  0  0  0  0  0  0  0  # atno 17320 bound_to 7965
  146.3226  140.3237  142.8635 LP  0  0  0  0  0  0  0  0  0  0  0  0  # atno 17321 bound_to 7965
  140.2328  144.4351  150.6293 LP  0  0  0  0  0  0  0  0  0  0  0  0  # atno 17342 bound_to 10162
  140.6344  143.2192  151.6427 LP  0  0  0  0  0  0  0  0  0  0  0  0  # atno 17343 bound_to 10162
  156.5824  130.4308  149.5971 LP  0  0  0  0  0  0  0  0  0  0  0  0  # atno 17370 bound_to 10713
  156.2650  130.6984  151.1765 LP  0  0  0  0  0  0  0  0  0  0  0  0  # atno 17371 bound_to 10713
  139.9598  135.0157  156.9229 LP  0  0  0  0  0  0  0  0  0  0  0  0  # atno 17394 bound_to 11000
  140.5520  134.0618  155.7372 LP  0  0  0  0  0  0  0  0  0  0  0  0  # atno 17395 bound_to 11000

$$$$
