AV-unprocessed.smi:233|AV-procd|sdf|1783|dock3
  -GOLD-   2262020333D 1   1.00000     0.00000
 Structure written by MMmdl.
 59 62  0  0  0  0  0  0  0  0  1 V2000
  133.5389  136.5456  154.6763 C   0  0  0  0  0  0  0  0  0  0  0  0
  134.7784  137.3074  155.1336 C   0  0  0  0  0  0  0  0  0  0  0  0
  134.7003  138.1158  156.0581 O   0  0  0  0  0  0  0  0  0  0  0  0
  135.9160  137.0359  154.4761 N   0  0  0  0  0  0  0  0  0  0  0  0
  137.2142  137.6485  154.7419 C   0  0  2  0  0  0  0  0  0  0  0  0
  138.1966  137.2772  153.6152 C   0  0  0  0  0  0  0  0  0  0  0  0
  139.6023  137.8387  153.8814 C   0  0  0  0  0  0  0  0  0  0  0  0
  140.1376  137.3694  155.2498 C   0  0  1  0  0  0  0  0  0  0  0  0
  141.5050  137.8393  155.5019 N   0  0  0  0  0  0  0  0  0  0  0  0
  141.7273  139.2008  155.9878 C   0  0  0  0  0  0  0  0  0  0  0  0
  142.4593  137.3219  154.6853 C   0  0  0  0  0  0  0  0  0  0  0  0
  143.6026  138.0231  154.4574 N   0  0  0  0  0  0  0  0  0  0  0  0
  144.5466  137.5323  153.6493 C   0  0  0  0  0  0  0  0  0  0  0  0
  144.5527  136.3798  152.9774 N   0  0  0  0  0  0  0  0  0  0  0  0
  143.4109  135.6693  153.2037 C   0  0  0  0  0  0  0  0  0  0  0  0
  142.3266  136.0598  154.0396 C   0  0  0  0  0  0  0  0  0  0  0  0
  141.3541  135.0663  154.0454 N   0  0  0  0  0  0  0  0  0  0  0  0
  141.8345  134.1447  153.2559 C   0  0  0  0  0  0  0  0  0  0  0  0
  143.0524  134.4375  152.6848 N   0  0  0  0  0  0  0  0  0  0  0  0
  143.8222  133.5945  151.8178 C   0  0  0  0  0  0  0  0  0  0  0  0
  144.4319  134.1410  150.5251 C   0  0  0  0  0  0  0  0  0  0  0  0
  144.2460  132.7580  149.8608 C   0  0  0  0  0  0  0  0  0  0  0  0
  143.7410  132.7819  148.4087 C   0  0  0  0  0  0  0  0  0  0  0  0
  143.2753  134.0672  148.0509 O   0  0  0  0  0  0  0  0  0  0  0  0
  145.4611  131.8137  149.9587 C   0  0  0  0  0  0  0  0  0  0  0  0
  146.5777  132.3358  149.2671 O   0  0  0  0  0  0  0  0  0  0  0  0
  143.1546  132.5396  150.9322 C   0  0  0  0  0  0  0  0  0  0  0  0
  139.1616  137.7631  156.3770 C   0  0  0  0  0  0  0  0  0  0  0  0
  137.7569  137.1970  156.1138 C   0  0  0  0  0  0  0  0  0  0  0  0
  133.3903  136.6651  153.6027 H   0  0  0  0  0  0  0  0  0  0  0  0
  132.6480  136.9131  155.1866 H   0  0  0  0  0  0  0  0  0  0  0  0
  133.6443  135.4827  154.8954 H   0  0  0  0  0  0  0  0  0  0  0  0
  135.8804  136.3536  153.7327 H   0  0  0  0  0  0  0  0  0  0  0  0
  137.1025  138.7347  154.7474 H   0  0  0  0  0  0  0  0  0  0  0  0
  138.2564  136.1919  153.5192 H   0  0  0  0  0  0  0  0  0  0  0  0
  137.8281  137.6517  152.6596 H   0  0  0  0  0  0  0  0  0  0  0  0
  140.2763  137.5220  153.0848 H   0  0  0  0  0  0  0  0  0  0  0  0
  139.5664  138.9280  153.8434 H   0  0  0  0  0  0  0  0  0  0  0  0
  140.1470  136.2803  155.2216 H   0  0  0  0  0  0  0  0  0  0  0  0
  142.7646  139.3368  156.2963 H   0  0  0  0  0  0  0  0  0  0  0  0
  141.1040  139.4188  156.8535 H   0  0  0  0  0  0  0  0  0  0  0  0
  141.5029  139.9337  155.2124 H   0  0  0  0  0  0  0  0  0  0  0  0
  145.4218  138.1521  153.5220 H   0  0  0  0  0  0  0  0  0  0  0  0
  141.3058  133.2221  153.0654 H   0  0  0  0  0  0  0  0  0  0  0  0
  144.5916  133.1413  152.4450 H   0  0  0  0  0  0  0  0  0  0  0  0
  143.8149  134.9198  150.0728 H   0  0  0  0  0  0  0  0  0  0  0  0
  145.4656  134.4739  150.6229 H   0  0  0  0  0  0  0  0  0  0  0  0
  144.5395  132.5135  147.7164 H   0  0  0  0  0  0  0  0  0  0  0  0
  142.9425  132.0576  148.2472 H   0  0  0  0  0  0  0  0  0  0  0  0
  144.0162  134.5917  147.7876 H   0  0  0  0  0  0  0  0  0  0  0  0
  145.7572  131.6588  150.9963 H   0  0  0  0  0  0  0  0  0  0  0  0
  145.2319  130.8250  149.5605 H   0  0  0  0  0  0  0  0  0  0  0  0
  147.2892  131.7177  149.3359 H   0  0  0  0  0  0  0  0  0  0  0  0
  143.1292  131.5381  151.3628 H   0  0  0  0  0  0  0  0  0  0  0  0
  142.1626  132.8440  150.5932 H   0  0  0  0  0  0  0  0  0  0  0  0
  139.5306  137.3963  157.3353 H   0  0  0  0  0  0  0  0  0  0  0  0
  139.0910  138.8475  156.4637 H   0  0  0  0  0  0  0  0  0  0  0  0
  137.0817  137.5147  156.9092 H   0  0  0  0  0  0  0  0  0  0  0  0
  137.7928  136.1076  156.1568 H   0  0  0  0  0  0  0  0  0  0  0  0
  1  2  1  0  0  0  0
  1 30  1  0  0  0  0
  1 31  1  0  0  0  0
  1 32  1  0  0  0  0
  2  3  2  0  0  0  0
  2  4  1  0  0  0  0
  4  5  1  0  0  0  0
  4 33  1  0  0  0  0
  5 29  1  0  0  0  0
  5  6  1  0  0  0  0
  5 34  1  0  0  0  0
  6  7  1  0  0  0  0
  6 35  1  0  0  0  0
  6 36  1  0  0  0  0
  7  8  1  0  0  0  0
  7 37  1  0  0  0  0
  7 38  1  0  0  0  0
  8  9  1  0  0  0  0
  8 28  1  0  0  0  0
  8 39  1  0  0  0  0
  9 10  1  0  0  0  0
  9 11  1  0  0  0  0
 10 40  1  0  0  0  0
 10 41  1  0  0  0  0
 10 42  1  0  0  0  0
 11 16  1  0  0  0  0
 11 12  2  0  0  0  0
 12 13  1  0  0  0  0
 13 14  2  0  0  0  0
 13 43  1  0  0  0  0
 14 15  1  0  0  0  0
 15 19  1  0  0  0  0
 15 16  2  0  0  0  0
 16 17  1  0  0  0  0
 17 18  2  0  0  0  0
 18 19  1  0  0  0  0
 18 44  1  0  0  0  0
 19 20  1  0  0  0  0
 20 27  1  0  0  0  0
 20 21  1  0  0  0  0
 20 45  1  0  0  0  0
 21 22  1  0  0  0  0
 21 46  1  0  0  0  0
 21 47  1  0  0  0  0
 22 23  1  0  0  0  0
 22 25  1  0  0  0  0
 22 27  1  0  0  0  0
 23 24  1  0  0  0  0
 23 48  1  0  0  0  0
 23 49  1  0  0  0  0
 24 50  1  0  0  0  0
 25 26  1  0  0  0  0
 25 51  1  0  0  0  0
 25 52  1  0  0  0  0
 26 53  1  0  0  0  0
 27 54  1  0  0  0  0
 27 55  1  0  0  0  0
 28 29  1  0  0  0  0
 28 56  1  0  0  0  0
 28 57  1  0  0  0  0
 29 58  1  0  0  0  0
 29 59  1  0  0  0  0
M  END
> <s_m_source_file>
AV-unprocessed.smi

> <i_m_source_file_index>
233

> <i_lp_mmshare_version>
43012

> <i_f3d_flags>
0

> <s_epik_input>
W0NIM11DKD1PKVtOSF1bQ0BASF0xW0NIMl1bQ0gyXVtDQEhdKFtDSDJdW0NIMl0xKU4oW0NIM10pYyhuW2NIXW4yKWMoYzIzKW5bY0hdbjNbQ0hdKFtDSDJdNClbQ0gyXUM0KFtDSDJdW09IXSlbQ0gyXVtPSF0=

> <s_epik_cmdline>
J2VwaWtfcHl0aG9uJywgJy1waCcsICc3LjAnLCAnLXRuJywgJzgnLCAnLW1hJywgJzIwMCcsICctbWV0YWxfYmluZGluZycsICctaW1hZScsICc8aW5maWxlLm1hZT4nLCAnLW9tYWUnLCAnPG91dGZpbGUubWFlPic=

> <r_lp_tautomer_probability>
1

> <r_epik_Ionization_Penalty>
0.0029036

> <r_epik_Ionization_Penalty_Charging>
0

> <r_epik_Ionization_Penalty_Neutral>
0.0029036

> <r_epik_State_Penalty>
0.00183591

> <r_epik_Charging_Adjusted_Penalty>
0.00183591

> <i_epik_Tot_Q>
0

> <i_epik_Tot_abs_Q>
0

> <r_epik_Metal_State_Penalty>
-0

> <b_epik_Metal_Only>
0

> <s_lp_Force_Field>
OPLS_2005

> <r_lp_Energy>
37.3152

> <b_lp_Chiralities_Consistent>
1

> <s_lp_Variant>
AV-unprocessed.smi:233-1

> <Gold.Version>
5.8.1

> <Gold.Id.Protein>
6NUR|6NUR_protein|mol2

> <Gold.PLP.Fitness>
57.4117

> <Gold.PLP.PLP>
-48.5611

> <Gold.PLP.part.hbond>
-7.4277

> <Gold.PLP.part.metal>
0.0000

> <Gold.PLP.part.buried>
-4.3090

> <Gold.PLP.part.nonpolar>
-38.3106

> <Gold.PLP.part.repulsive>
0.3986

> <Gold.PLP.ligand.clash>
0.6482

> <Gold.PLP.ligand.torsion>
1.8410

> <Gold.PLP.Chemscore.Hbond>
3.7150

> <Gold.PLP.Chemscore.CHOScore>
0.1752

> <Gold.PLP.Chemscore.Metal>
0.0000

> <Gold.Chemscore.Hbonds>
donor molecule, donor type, donor heavy atom, donor atom, acceptor molecule, acceptor atom, score
      L1  H    24    50       P1  7921  0.81
      L1  H    26    53       P1 10747  0.86
      P1  H 10192 10197       L1    24  0.70
      P1  H 11000 11005       L1    17  0.84
      L1  C    18    44       P1 10957  0.29

> <Gold.PLP.Chemscore.Internal.Correction>
1.5102

> <Gold.Rescore>
     Score         DG    S(hbond)    S(metal)    S(lipo)     H(rot)  DE(clash)    DE(int)     intcor
     13.27     -17.31       2.80        0.00      99.39       3.57       0.65       3.38       ----

> <Gold.Chemscore.Fitness>
13.2740

> <Gold.Chemscore.DG>
-17.3087

> <Gold.Chemscore.ZeroCoef>
-5.4800

> <Gold.Chemscore.Hbond>
2.7977

> <Gold.Chemscore.Metal>
0.0000

> <Gold.Chemscore.Lipo>
99.3862

> <Gold.Chemscore.Internal_Hbond>
0.0000

> <Gold.Chemscore.DEClash>
0.6539

> <Gold.Chemscore.DEInternal>
3.3809

> <Gold.Chemscore.Rot>
3.5719

> <Gold.Chemscore.Internal.Correction>
   9.000000E+99

> <Gold.Chemscore.Hbonds>
donor molecule, donor type, donor heavy atom, donor atom, acceptor molecule, acceptor atom, score
      L1  H    24    50       P1  7921  0.76
      L1  H    26    53       P1 10747  0.82
      P1  H 10192 10197       L1    24  0.07
      P1  H 11000 11005       L1    17  0.60

> <Gold.Chemscore.Hbond.Weighted>
-9.3445

> <Gold.Chemscore.Metal.Weighted>
-0.0000

> <Gold.Chemscore.Lipo.Weighted>
-11.6282

> <Gold.Chemscore.Internal_Hbond.Weighted>
0.0000

> <Gold.Chemscore.DEClash.Weighted>
0.6539

> <Gold.Chemscore.DEInternal.Weighted>
3.3809

> <Gold.Chemscore.Rot.Weighted>
9.1440

> <Gold.Chemscore.Internal.Correction.Weighted>
   9.000000E+99

> <Gold.Protein.RotatedTorsions>
[ 6907 6896 6895 6894 ] final   38.44 input  -60.11 | X-H torsion
[ 7974 7965 7964 7962 ] final -155.85 input  175.53 | X-H torsion
[ 8008 7997 7996 7995 ] final  176.29 input   59.86 | X-H torsion
[ 10167 10162 10161 10158 ] final -160.67 input  -65.29 | X-H torsion
[ 10718 10713 10712 10709 ] final   80.03 input   66.30 | X-H torsion
[ 10763 10752 10751 10750 ] final  -44.25 input  -60.55 | X-H torsion
[ 11005 11000 10999 10996 ] final   20.47 input  -57.11 | X-H torsion

> <Gold.Protein.ActiveResidues>
 VAL166  LYS551  ARG553  GLY616  TRP617  ASP618  TYR619  PRO620  LYS621  CYS622 
 ASP623  PHE694  ASN695  SER759  ASP760  ASP761  ALA762  ILE779  LEU786  VAL792 
 PHE793  MET794  SER795  GLU796  ALA797  LYS798  CYS799  TRP800  GLU811  SER814 

> <Gold.Protein.RotatedAtoms>
  152.1564  134.8947  160.0544 H   0  0  0  0  0  0  0  0  0  0  0  0  # atno 6907 bound_to 6896
  151.9959  133.3803  159.4171 H   0  0  0  0  0  0  0  0  0  0  0  0  # atno 6908 bound_to 6896
  150.6882  134.3808  159.5077 H   0  0  0  0  0  0  0  0  0  0  0  0  # atno 6909 bound_to 6896
  144.7620  140.4192  143.5969 H   0  0  0  0  0  0  0  0  0  0  0  0  # atno 7974 bound_to 7965
  156.0780  140.1387  156.9748 H   0  0  0  0  0  0  0  0  0  0  0  0  # atno 8008 bound_to 7997
  154.4569  140.0958  156.6831 H   0  0  0  0  0  0  0  0  0  0  0  0  # atno 8009 bound_to 7997
  155.5122  140.3454  155.4393 H   0  0  0  0  0  0  0  0  0  0  0  0  # atno 8010 bound_to 7997
  139.6522  144.0063  152.2169 H   0  0  0  0  0  0  0  0  0  0  0  0  # atno 10167 bound_to 10162
  157.6794  130.9941  150.2019 H   0  0  0  0  0  0  0  0  0  0  0  0  # atno 10718 bound_to 10713
  154.0089  135.6684  153.4764 H   0  0  0  0  0  0  0  0  0  0  0  0  # atno 10763 bound_to 10752
  153.0629  135.5017  154.8131 H   0  0  0  0  0  0  0  0  0  0  0  0  # atno 10764 bound_to 10752
  154.7007  135.3078  154.9308 H   0  0  0  0  0  0  0  0  0  0  0  0  # atno 10765 bound_to 10752
  140.4023  134.1705  155.7664 H   0  0  0  0  0  0  0  0  0  0  0  0  # atno 11005 bound_to 11000
  145.6587  139.1577  143.2820 LP  0  0  0  0  0  0  0  0  0  0  0  0  # atno 17320 bound_to 7965
  146.1693  140.6670  142.9240 LP  0  0  0  0  0  0  0  0  0  0  0  0  # atno 17321 bound_to 7965
  139.9780  144.6448  150.7927 LP  0  0  0  0  0  0  0  0  0  0  0  0  # atno 17342 bound_to 10162
  140.7543  143.3024  151.3047 LP  0  0  0  0  0  0  0  0  0  0  0  0  # atno 17343 bound_to 10162
  156.2708  130.3721  149.8034 LP  0  0  0  0  0  0  0  0  0  0  0  0  # atno 17370 bound_to 10713
  156.5751  130.8441  151.3367 LP  0  0  0  0  0  0  0  0  0  0  0  0  # atno 17371 bound_to 10713
  141.1852  133.8328  157.1112 LP  0  0  0  0  0  0  0  0  0  0  0  0  # atno 17394 bound_to 11000
  140.0327  134.9893  157.0812 LP  0  0  0  0  0  0  0  0  0  0  0  0  # atno 17395 bound_to 11000

$$$$
