AV-unprocessed.smi:2919|AV-procd|sdf|11195|dock7
  -GOLD-   2272016 83D 1   1.00000     0.00000
 Structure written by MMmdl.
 34 36  0  0  0  0  0  0  0  0  1 V2000
  152.4200  138.2512  154.8275 C   0  0  0  0  0  0  0  0  0  0  0  0
  151.7317  139.5023  155.3437 C   0  0  0  0  0  0  0  0  0  0  0  0
  152.5381  140.3703  155.9930 N   0  0  0  0  0  0  0  0  0  0  0  0
  152.0472  141.5058  156.4915 N   0  0  0  0  0  0  0  0  0  0  0  0
  150.7352  141.8168  156.3573 C   0  0  0  0  0  0  0  0  0  0  0  0
  150.2927  143.0332  156.9097 N   0  0  0  0  0  0  0  0  0  0  0  0
  150.5461  143.3786  158.3046 C   0  0  1  0  0  0  0  0  0  0  0  0
  151.4171  142.3461  159.0324 C   0  0  0  0  0  0  0  0  0  0  0  0
  152.5765  143.2113  159.5419 C   0  0  2  0  0  0  0  0  0  0  0  0
  152.1375  144.1809  160.6476 C   0  0  0  0  0  0  0  0  0  0  0  0
  151.3395  145.2164  159.8558 C   0  0  0  0  0  0  0  0  0  0  0  0
  151.4068  144.6469  158.4325 C   0  0  1  0  0  0  0  0  0  0  0  0
  152.7168  144.1025  158.4501 O   0  0  0  0  0  0  0  0  0  0  0  0
  149.8311  140.9508  155.6890 C   0  0  0  0  0  0  0  0  0  0  0  0
  148.4163  141.2900  155.5474 C   0  0  0  0  0  0  0  0  0  0  0  0
  147.2965  141.5584  155.4353 N   0  0  0  0  0  0  0  0  0  0  0  0
  150.3484  139.7420  155.1586 C   0  0  0  0  0  0  0  0  0  0  0  0
  149.4499  138.7512  154.4225 C   0  0  0  0  0  0  0  0  0  0  0  0
  151.9840  137.3612  155.2817 H   0  0  0  0  0  0  0  0  0  0  0  0
  153.4856  138.2555  155.0604 H   0  0  0  0  0  0  0  0  0  0  0  0
  152.3169  138.1779  153.7447 H   0  0  0  0  0  0  0  0  0  0  0  0
  149.9582  143.7608  156.2943 H   0  0  0  0  0  0  0  0  0  0  0  0
  149.5935  143.5294  158.8143 H   0  0  0  0  0  0  0  0  0  0  0  0
  150.8851  141.8431  159.8404 H   0  0  0  0  0  0  0  0  0  0  0  0
  151.7923  141.5823  158.3495 H   0  0  0  0  0  0  0  0  0  0  0  0
  153.4782  142.6463  159.7790 H   0  0  0  0  0  0  0  0  0  0  0  0
  151.5446  143.6873  161.4184 H   0  0  0  0  0  0  0  0  0  0  0  0
  153.0010  144.6466  161.1240 H   0  0  0  0  0  0  0  0  0  0  0  0
  150.3155  145.3281  160.2139 H   0  0  0  0  0  0  0  0  0  0  0  0
  151.8260  146.1912  159.9036 H   0  0  0  0  0  0  0  0  0  0  0  0
  151.2343  145.3935  157.6561 H   0  0  0  0  0  0  0  0  0  0  0  0
  149.0097  139.2237  153.5438 H   0  0  0  0  0  0  0  0  0  0  0  0
  148.6400  138.4213  155.0737 H   0  0  0  0  0  0  0  0  0  0  0  0
  149.9751  137.8601  154.0836 H   0  0  0  0  0  0  0  0  0  0  0  0
  1  2  1  0  0  0  0
  1 19  1  0  0  0  0
  1 20  1  0  0  0  0
  1 21  1  0  0  0  0
  2 17  1  0  0  0  0
  2  3  2  0  0  0  0
  3  4  1  0  0  0  0
  4  5  2  0  0  0  0
  5  6  1  0  0  0  0
  5 14  1  0  0  0  0
  6  7  1  0  0  0  0
  6 22  1  0  0  0  0
  7 12  1  0  0  0  0
  7  8  1  0  0  0  0
  7 23  1  0  0  0  0
  8  9  1  0  0  0  0
  8 24  1  0  0  0  0
  8 25  1  0  0  0  0
  9 13  1  0  0  0  0
  9 10  1  0  0  0  0
  9 26  1  0  0  0  0
 10 11  1  0  0  0  0
 10 27  1  0  0  0  0
 10 28  1  0  0  0  0
 11 12  1  0  0  0  0
 11 29  1  0  0  0  0
 11 30  1  0  0  0  0
 12 13  1  0  0  0  0
 12 31  1  0  0  0  0
 14 15  1  0  0  0  0
 14 17  2  0  0  0  0
 15 16  3  0  0  0  0
 17 18  1  0  0  0  0
 18 32  1  0  0  0  0
 18 33  1  0  0  0  0
 18 34  1  0  0  0  0
M  END
> <s_m_source_file>
AV-unprocessed.smi

> <i_m_source_file_index>
2919

> <i_lp_mmshare_version>
43012

> <i_f3d_flags>
0

> <s_epik_input>
W0NIM11jMW5uYyhjKEMjTiljMVtDSDNdKVtOSF1bQ0BIXShbQ0gyXVtDQEBIXTIzKVtDQEBIXShPMylbQ0gyXVtDSDJdMg==

> <s_epik_cmdline>
J2VwaWtfcHl0aG9uJywgJy1waCcsICc3LjAnLCAnLXRuJywgJzgnLCAnLW1hJywgJzIwMCcsICctbWV0YWxfYmluZGluZycsICctaW1hZScsICc8aW5maWxlLm1hZT4nLCAnLW9tYWUnLCAnPG91dGZpbGUubWFlPic=

> <r_lp_tautomer_probability>
1

> <r_epik_Ionization_Penalty>
0.00143865

> <r_epik_Ionization_Penalty_Charging>
0

> <r_epik_Ionization_Penalty_Neutral>
0.00143865

> <r_epik_State_Penalty>
-0

> <r_epik_Charging_Adjusted_Penalty>
0

> <i_epik_Tot_Q>
0

> <i_epik_Tot_abs_Q>
0

> <r_epik_Metal_State_Penalty>
-0

> <b_epik_Metal_Only>
0

> <s_lp_Force_Field>
OPLS_2005

> <r_lp_Energy>
49.0135

> <b_lp_Chiralities_Consistent>
1

> <s_lp_Variant>
AV-unprocessed.smi:2919-4

> <Gold.Version>
5.8.1

> <Gold.Id.Protein>
6NUR|6NUR_protein|mol2

> <Gold.PLP.Fitness>
39.9950

> <Gold.PLP.PLP>
-36.6914

> <Gold.PLP.part.hbond>
-2.4755

> <Gold.PLP.part.metal>
0.0000

> <Gold.PLP.part.buried>
-0.4880

> <Gold.PLP.part.nonpolar>
-34.6738

> <Gold.PLP.part.repulsive>
0.7416

> <Gold.PLP.ligand.clash>
0.0215

> <Gold.PLP.ligand.torsion>
0.4925

> <Gold.PLP.Chemscore.Hbond>
1.4300

> <Gold.PLP.Chemscore.CHOScore>
0.0000

> <Gold.PLP.Chemscore.Metal>
0.0000

> <Gold.Chemscore.Hbonds>
donor molecule, donor type, donor heavy atom, donor atom, acceptor molecule, acceptor atom, score
      L1  H     6    22       P1  8028  1.00
      P1  H  7997  8009       L1     3  0.85

> <Gold.PLP.Chemscore.Internal.Correction>
0.0200

> <Gold.Rescore>
     Score         DG    S(hbond)    S(metal)    S(lipo)     H(rot)  DE(clash)    DE(int)     intcor
     16.11     -19.66       1.65        0.00      96.01       1.00       1.60       1.95       ----

> <Gold.Chemscore.Fitness>
16.1075

> <Gold.Chemscore.DG>
-19.6589

> <Gold.Chemscore.ZeroCoef>
-5.4800

> <Gold.Chemscore.Hbond>
1.6486

> <Gold.Chemscore.Metal>
0.0000

> <Gold.Chemscore.Lipo>
96.0062

> <Gold.Chemscore.Internal_Hbond>
0.0000

> <Gold.Chemscore.DEClash>
1.5978

> <Gold.Chemscore.DEInternal>
1.9537

> <Gold.Chemscore.Rot>
1.0000

> <Gold.Chemscore.Internal.Correction>
   9.000000E+99

> <Gold.Chemscore.Hbonds>
donor molecule, donor type, donor heavy atom, donor atom, acceptor molecule, acceptor atom, score
      L1  H     6    22       P1  8028  0.95
      P1  H  7997  8009       L1     3  0.66

> <Gold.Chemscore.Hbond.Weighted>
-5.5062

> <Gold.Chemscore.Metal.Weighted>
-0.0000

> <Gold.Chemscore.Lipo.Weighted>
-11.2327

> <Gold.Chemscore.Internal_Hbond.Weighted>
0.0000

> <Gold.Chemscore.DEClash.Weighted>
1.5978

> <Gold.Chemscore.DEInternal.Weighted>
1.9537

> <Gold.Chemscore.Rot.Weighted>
2.5600

> <Gold.Chemscore.Internal.Correction.Weighted>
   9.000000E+99

> <Gold.Protein.RotatedTorsions>
[ 6907 6896 6895 6894 ] final  -99.25 input  -60.11 | X-H torsion
[ 7974 7965 7964 7962 ] final   62.90 input  175.53 | X-H torsion
[ 8008 7997 7996 7995 ] final -172.79 input   59.86 | X-H torsion
[ 10167 10162 10161 10158 ] final  -38.48 input  -65.29 | X-H torsion
[ 10718 10713 10712 10709 ] final   67.25 input   66.30 | X-H torsion
[ 10763 10752 10751 10750 ] final -167.25 input  -60.55 | X-H torsion
[ 11005 11000 10999 10996 ] final    0.67 input  -57.11 | X-H torsion

> <Gold.Protein.ActiveResidues>
 VAL166  LYS551  ARG553  GLY616  TRP617  ASP618  TYR619  PRO620  LYS621  CYS622 
 ASP623  PHE694  ASN695  SER759  ASP760  ASP761  ALA762  ILE779  LEU786  VAL792 
 PHE793  MET794  SER795  GLU796  ALA797  LYS798  CYS799  TRP800  GLU811  SER814 

> <Gold.Protein.RotatedAtoms>
  150.7073  134.1070  159.3986 H   0  0  0  0  0  0  0  0  0  0  0  0  # atno 6907 bound_to 6896
  151.9056  135.0358  160.0519 H   0  0  0  0  0  0  0  0  0  0  0  0  # atno 6908 bound_to 6896
  152.2378  133.5075  159.5289 H   0  0  0  0  0  0  0  0  0  0  0  0  # atno 6909 bound_to 6896
  145.8681  139.3359  143.0779 H   0  0  0  0  0  0  0  0  0  0  0  0  # atno 7974 bound_to 7965
  155.9492  140.1123  157.0991 H   0  0  0  0  0  0  0  0  0  0  0  0  # atno 8008 bound_to 7997
  154.4106  140.1204  156.5096 H   0  0  0  0  0  0  0  0  0  0  0  0  # atno 8009 bound_to 7997
  155.6864  140.3473  155.4878 H   0  0  0  0  0  0  0  0  0  0  0  0  # atno 8010 bound_to 7997
  140.7091  143.3275  151.2646 H   0  0  0  0  0  0  0  0  0  0  0  0  # atno 10167 bound_to 10162
  157.6219  130.9311  150.0217 H   0  0  0  0  0  0  0  0  0  0  0  0  # atno 10718 bound_to 10713
  154.6750  135.2945  154.9690 H   0  0  0  0  0  0  0  0  0  0  0  0  # atno 10763 bound_to 10752
  154.0704  135.6619  153.4827 H   0  0  0  0  0  0  0  0  0  0  0  0  # atno 10764 bound_to 10752
  153.0511  135.5173  154.7765 H   0  0  0  0  0  0  0  0  0  0  0  0  # atno 10765 bound_to 10752
  140.6240  133.9635  155.8239 H   0  0  0  0  0  0  0  0  0  0  0  0  # atno 11005 bound_to 11000
  145.9169  140.9142  143.0425 LP  0  0  0  0  0  0  0  0  0  0  0  0  # atno 17320 bound_to 7965
  144.6726  140.1236  143.7448 LP  0  0  0  0  0  0  0  0  0  0  0  0  # atno 17321 bound_to 7965
  139.6747  143.9958  152.2774 LP  0  0  0  0  0  0  0  0  0  0  0  0  # atno 17342 bound_to 10162
  139.9568  144.6584  150.8118 LP  0  0  0  0  0  0  0  0  0  0  0  0  # atno 17343 bound_to 10162
  156.1369  130.3642  149.9643 LP  0  0  0  0  0  0  0  0  0  0  0  0  # atno 17370 bound_to 10713
  156.7693  130.9180  151.3644 LP  0  0  0  0  0  0  0  0  0  0  0  0  # atno 17371 bound_to 10713
  141.0722  134.0188  157.3509 LP  0  0  0  0  0  0  0  0  0  0  0  0  # atno 17394 bound_to 11000
  139.9142  135.0194  156.7814 LP  0  0  0  0  0  0  0  0  0  0  0  0  # atno 17395 bound_to 11000

$$$$
