AV-unprocessed.smi:283|AV-procd|sdf|2128|dock2
  -GOLD-   2262021433D 1   1.00000     0.00000
 Structure written by MMmdl.
 48 51  0  0  0  0  0  0  0  0  1 V2000
  149.6090  141.4190  157.4480 C   0  0  0  0  0  0  0  0  0  0  0  0
  150.9074  141.3209  158.2601 C   0  0  1  0  0  0  0  0  0  0  0  0
  151.9926  140.8594  157.3973 N   0  0  0  0  0  0  0  0  0  0  0  0
  151.9366  139.6629  156.7710 C   0  0  0  0  0  0  0  0  0  0  0  0
  152.6216  139.5859  155.6063 N   0  0  0  0  0  0  0  0  0  0  0  0
  152.6448  138.4426  154.9186 C   0  0  0  0  0  0  0  0  0  0  0  0
  152.0608  137.2819  155.2151 N   0  0  0  0  0  0  0  0  0  0  0  0
  151.3606  137.3439  156.3850 C   0  0  0  0  0  0  0  0  0  0  0  0
  151.2390  138.4992  157.2125 C   0  0  0  0  0  0  0  0  0  0  0  0
  150.4248  138.2030  158.2977 N   0  0  0  0  0  0  0  0  0  0  0  0
  150.1080  136.9502  158.1315 C   0  0  0  0  0  0  0  0  0  0  0  0
  150.6409  136.3430  157.0166 N   0  0  0  0  0  0  0  0  0  0  0  0
  150.4373  134.9081  156.6056 C   0  0  1  0  0  0  0  0  0  0  0  0
  149.8102  134.2013  157.6340 O   0  0  0  0  0  0  0  0  0  0  0  0
  148.4422  133.9338  157.3132 C   0  0  2  0  0  0  0  0  0  0  0  0
  148.2081  132.4123  157.3754 C   0  0  0  0  0  0  0  0  0  0  0  0
  146.8755  132.0598  157.0638 O   0  0  0  0  0  0  0  0  0  0  0  0
  148.1499  134.5940  155.9546 C   0  0  1  0  0  0  0  0  0  0  0  0
  147.4792  135.8254  156.1568 O   0  0  0  0  0  0  0  0  0  0  0  0
  149.5411  134.7791  155.3611 C   0  0  1  0  0  0  0  0  0  0  0  0
  149.6197  135.8451  154.4294 O   0  0  0  0  0  0  0  0  0  0  0  0
  151.1795  142.6401  158.9896 C   0  0  0  0  0  0  0  0  0  0  0  0
  150.2835  143.7258  158.8476 C   0  0  0  0  0  0  0  0  0  0  0  0
  150.5229  144.9463  159.5064 C   0  0  0  0  0  0  0  0  0  0  0  0
  151.6584  145.0927  160.3230 C   0  0  0  0  0  0  0  0  0  0  0  0
  152.5485  144.0153  160.4844 C   0  0  0  0  0  0  0  0  0  0  0  0
  152.3135  142.7909  159.8274 C   0  0  0  0  0  0  0  0  0  0  0  0
  153.4345  141.4975  160.0746 Cl  0  0  0  0  0  0  0  0  0  0  0  0
  151.4516  134.5401  156.4468 H   0  0  0  0  0  0  0  0  0  0  0  0
  147.8219  134.3784  158.0926 H   0  0  0  0  0  0  0  0  0  0  0  0
  147.5185  133.9765  155.3147 H   0  0  0  0  0  0  0  0  0  0  0  0
  149.8335  133.8592  154.8536 H   0  0  0  0  0  0  0  0  0  0  0  0
  148.7638  141.6740  158.0881 H   0  0  0  0  0  0  0  0  0  0  0  0
  149.3772  140.4710  156.9616 H   0  0  0  0  0  0  0  0  0  0  0  0
  149.6818  142.1829  156.6731 H   0  0  0  0  0  0  0  0  0  0  0  0
  150.7577  140.5339  158.9973 H   0  0  0  0  0  0  0  0  0  0  0  0
  152.8635  141.3566  157.5140 H   0  0  0  0  0  0  0  0  0  0  0  0
  153.2162  138.4575  154.0024 H   0  0  0  0  0  0  0  0  0  0  0  0
  149.4768  136.4242  158.8328 H   0  0  0  0  0  0  0  0  0  0  0  0
  148.8906  131.8916  156.7031 H   0  0  0  0  0  0  0  0  0  0  0  0
  148.4185  132.0515  158.3826 H   0  0  0  0  0  0  0  0  0  0  0  0
  146.8283  131.8524  156.1428 H   0  0  0  0  0  0  0  0  0  0  0  0
  146.5973  135.7402  155.8277 H   0  0  0  0  0  0  0  0  0  0  0  0
  149.2155  135.5682  153.6217 H   0  0  0  0  0  0  0  0  0  0  0  0
  149.4051  143.6311  158.2263 H   0  0  0  0  0  0  0  0  0  0  0  0
  149.8345  145.7696  159.3856 H   0  0  0  0  0  0  0  0  0  0  0  0
  151.8442  146.0285  160.8292 H   0  0  0  0  0  0  0  0  0  0  0  0
  153.4159  144.1290  161.1179 H   0  0  0  0  0  0  0  0  0  0  0  0
  1  2  1  0  0  0  0
  1 33  1  0  0  0  0
  1 34  1  0  0  0  0
  1 35  1  0  0  0  0
  2  3  1  0  0  0  0
  2 22  1  0  0  0  0
  2 36  1  0  0  0  0
  3  4  1  0  0  0  0
  3 37  1  0  0  0  0
  4  9  1  0  0  0  0
  4  5  2  0  0  0  0
  5  6  1  0  0  0  0
  6  7  2  0  0  0  0
  6 38  1  0  0  0  0
  7  8  1  0  0  0  0
  8 12  1  0  0  0  0
  8  9  2  0  0  0  0
  9 10  1  0  0  0  0
 10 11  2  0  0  0  0
 11 12  1  0  0  0  0
 11 39  1  0  0  0  0
 12 13  1  0  0  0  0
 13 29  1  0  0  0  0
 13 20  1  0  0  0  0
 13 14  1  0  0  0  0
 14 15  1  0  0  0  0
 15 30  1  0  0  0  0
 15 16  1  0  0  0  0
 15 18  1  0  0  0  0
 16 17  1  0  0  0  0
 16 40  1  0  0  0  0
 16 41  1  0  0  0  0
 17 42  1  0  0  0  0
 18 31  1  0  0  0  0
 18 19  1  0  0  0  0
 18 20  1  0  0  0  0
 19 43  1  0  0  0  0
 20 32  1  0  0  0  0
 20 21  1  0  0  0  0
 21 44  1  0  0  0  0
 22 27  1  0  0  0  0
 22 23  2  0  0  0  0
 23 24  1  0  0  0  0
 23 45  1  0  0  0  0
 24 25  2  0  0  0  0
 24 46  1  0  0  0  0
 25 26  1  0  0  0  0
 25 47  1  0  0  0  0
 26 27  2  0  0  0  0
 26 48  1  0  0  0  0
 27 28  1  0  0  0  0
M  END
> <s_m_source_file>
AV-unprocessed.smi

> <i_m_source_file_index>
283

> <i_lp_mmshare_version>
43012

> <i_f3d_flags>
0

> <s_epik_input>
Q2xjMVtjSF1bY0hdW2NIXVtjSF1jMVtDQEhdKFtDSDNdKVtOSF1jKG5bY0hdbjIpYyhjMjMpbltjSF1uM1tDQEBIXTRPW0NASF0oW0NIMl1bT0hdKVtDQEBIXShbT0hdKVtDQEhdNFtPSF0=

> <s_epik_cmdline>
J2VwaWtfcHl0aG9uJywgJy1waCcsICc3LjAnLCAnLXRuJywgJzgnLCAnLW1hJywgJzIwMCcsICctbWV0YWxfYmluZGluZycsICctaW1hZScsICc8aW5maWxlLm1hZT4nLCAnLW9tYWUnLCAnPG91dGZpbGUubWFlPic=

> <r_lp_tautomer_probability>
1

> <r_epik_Ionization_Penalty>
0.000266407

> <r_epik_Ionization_Penalty_Charging>
0

> <r_epik_Ionization_Penalty_Neutral>
0.000266407

> <r_epik_State_Penalty>
-0

> <r_epik_Charging_Adjusted_Penalty>
0

> <i_epik_Tot_Q>
0

> <i_epik_Tot_abs_Q>
0

> <r_epik_Metal_State_Penalty>
-0

> <b_epik_Metal_Only>
0

> <s_epik_Chemistry_Notes>
This compound contains an acetal/aminal-like group ( X-CH(R)-Y where X, Y are N, S, or O) that may be acid/base labile, releasing an aldehyde.

> <s_lp_Force_Field>
OPLS_2005

> <r_lp_Energy>
53.7739

> <b_lp_Chiralities_Consistent>
1

> <s_lp_Variant>
AV-unprocessed.smi:283-4

> <Gold.Version>
5.8.1

> <Gold.Id.Protein>
6NUR|6NUR_protein|mol2

> <Gold.PLP.Fitness>
51.1906

> <Gold.PLP.PLP>
-41.4211

> <Gold.PLP.part.hbond>
-4.3280

> <Gold.PLP.part.metal>
0.0000

> <Gold.PLP.part.buried>
-6.8025

> <Gold.PLP.part.nonpolar>
-30.9495

> <Gold.PLP.part.repulsive>
0.1755

> <Gold.PLP.ligand.clash>
0.0000

> <Gold.PLP.ligand.torsion>
0.3838

> <Gold.PLP.Chemscore.Hbond>
3.3840

> <Gold.PLP.Chemscore.CHOScore>
0.0000

> <Gold.PLP.Chemscore.Metal>
0.0000

> <Gold.Chemscore.Hbonds>
donor molecule, donor type, donor heavy atom, donor atom, acceptor molecule, acceptor atom, score
      L1  H    21    44       P1  7948  0.77
      P1  H  6896  6909       L1    14  0.77
      P1  H  7997  8009       L1     5  1.00
      P1  H 10752 10765       L1     7  0.88

> <Gold.PLP.Chemscore.Internal.Correction>
0.3851

> <Gold.Rescore>
     Score         DG    S(hbond)    S(metal)    S(lipo)     H(rot)  DE(clash)    DE(int)     intcor
     14.13     -14.81       2.67        0.00      93.14       4.10       0.00       0.68       ----

> <Gold.Chemscore.Fitness>
14.1323

> <Gold.Chemscore.DG>
-14.8133

> <Gold.Chemscore.ZeroCoef>
-5.4800

> <Gold.Chemscore.Hbond>
2.6719

> <Gold.Chemscore.Metal>
0.0000

> <Gold.Chemscore.Lipo>
93.1371

> <Gold.Chemscore.Internal_Hbond>
0.0000

> <Gold.Chemscore.DEClash>
0.0004

> <Gold.Chemscore.DEInternal>
0.6805

> <Gold.Chemscore.Rot>
4.0968

> <Gold.Chemscore.Internal.Correction>
   9.000000E+99

> <Gold.Chemscore.Hbonds>
donor molecule, donor type, donor heavy atom, donor atom, acceptor molecule, acceptor atom, score
      L1  H    21    44       P1  7948  0.43
      P1  H  6896  6909       L1    14  0.71
      P1  H  7997  8009       L1     5  0.26
      P1  H 10752 10765       L1     7  0.79

> <Gold.Chemscore.Hbond.Weighted>
-8.9242

> <Gold.Chemscore.Metal.Weighted>
-0.0000

> <Gold.Chemscore.Lipo.Weighted>
-10.8970

> <Gold.Chemscore.Internal_Hbond.Weighted>
0.0000

> <Gold.Chemscore.DEClash.Weighted>
0.0004

> <Gold.Chemscore.DEInternal.Weighted>
0.6805

> <Gold.Chemscore.Rot.Weighted>
10.4879

> <Gold.Chemscore.Internal.Correction.Weighted>
   9.000000E+99

> <Gold.Protein.RotatedTorsions>
[ 6907 6896 6895 6894 ] final  -10.91 input  -60.11 | X-H torsion
[ 7974 7965 7964 7962 ] final  133.46 input  175.53 | X-H torsion
[ 8008 7997 7996 7995 ] final -152.71 input   59.86 | X-H torsion
[ 10167 10162 10161 10158 ] final   91.07 input  -65.29 | X-H torsion
[ 10718 10713 10712 10709 ] final   90.22 input   66.30 | X-H torsion
[ 10763 10752 10751 10750 ] final  179.28 input  -60.55 | X-H torsion
[ 11005 11000 10999 10996 ] final   99.61 input  -57.11 | X-H torsion

> <Gold.Protein.ActiveResidues>
 VAL166  LYS551  ARG553  GLY616  TRP617  ASP618  TYR619  PRO620  LYS621  CYS622 
 ASP623  PHE694  ASN695  SER759  ASP760  ASP761  ALA762  ILE779  LEU786  VAL792 
 PHE793  MET794  SER795  GLU796  ALA797  LYS798  CYS799  TRP800  GLU811  SER814 

> <Gold.Protein.RotatedAtoms>
  151.3945  135.0961  159.9536 H   0  0  0  0  0  0  0  0  0  0  0  0  # atno 6907 bound_to 6896
  152.5069  133.8948  159.7422 H   0  0  0  0  0  0  0  0  0  0  0  0  # atno 6908 bound_to 6896
  150.9408  133.6602  159.2819 H   0  0  0  0  0  0  0  0  0  0  0  0  # atno 6909 bound_to 6896
  144.9863  139.4452  143.5361 H   0  0  0  0  0  0  0  0  0  0  0  0  # atno 7974 bound_to 7965
  155.6594  140.0721  157.2559 H   0  0  0  0  0  0  0  0  0  0  0  0  # atno 8008 bound_to 7997
  154.4145  140.1719  156.1811 H   0  0  0  0  0  0  0  0  0  0  0  0  # atno 8009 bound_to 7997
  155.9710  140.3362  155.6578 H   0  0  0  0  0  0  0  0  0  0  0  0  # atno 8010 bound_to 7997
  139.8411  144.6641  150.9282 H   0  0  0  0  0  0  0  0  0  0  0  0  # atno 10167 bound_to 10162
  157.6958  131.0362  150.3545 H   0  0  0  0  0  0  0  0  0  0  0  0  # atno 10718 bound_to 10713
  154.5186  135.2792  155.1282 H   0  0  0  0  0  0  0  0  0  0  0  0  # atno 10763 bound_to 10752
  154.2848  135.6278  153.5365 H   0  0  0  0  0  0  0  0  0  0  0  0  # atno 10764 bound_to 10752
  152.9932  135.5660  154.5670 H   0  0  0  0  0  0  0  0  0  0  0  0  # atno 10765 bound_to 10752
  139.8770  134.9103  156.4631 H   0  0  0  0  0  0  0  0  0  0  0  0  # atno 11005 bound_to 11000
  146.3421  139.9167  142.8772 LP  0  0  0  0  0  0  0  0  0  0  0  0  # atno 17320 bound_to 7965
  145.2349  140.9987  143.3969 LP  0  0  0  0  0  0  0  0  0  0  0  0  # atno 17321 bound_to 7965
  140.7798  143.3912  151.1307 LP  0  0  0  0  0  0  0  0  0  0  0  0  # atno 17342 bound_to 10162
  139.7558  143.8709  152.3088 LP  0  0  0  0  0  0  0  0  0  0  0  0  # atno 17343 bound_to 10162
  156.3989  130.3912  149.6974 LP  0  0  0  0  0  0  0  0  0  0  0  0  # atno 17370 bound_to 10713
  156.4298  130.7809  151.2829 LP  0  0  0  0  0  0  0  0  0  0  0  0  # atno 17371 bound_to 10713
  140.8849  133.7890  155.9508 LP  0  0  0  0  0  0  0  0  0  0  0  0  # atno 17394 bound_to 11000
  140.8815  134.2606  157.5142 LP  0  0  0  0  0  0  0  0  0  0  0  0  # atno 17395 bound_to 11000

$$$$
