AV-unprocessed.smi:1701|AV-procd|sdf|6842|dock10
  -GOLD-   22720 8 23D 1   1.00000     0.00000
 Structure written by MMmdl.
 54 56  0  0  0  0  0  0  0  0  4 V2000
  144.2150  132.7283  149.2392 C   0  0  0  0  0  0  0  0  0  0  0  0
  143.8798  132.6308  150.7334 C   0  0  0  0  0  0  0  0  0  0  0  0
  144.9835  133.0840  151.5784 N   0  0  0  0  0  0  0  0  0  0  0  0
  145.6679  132.1145  152.4298 C   0  0  0  0  0  0  0  0  0  0  0  0
  145.3853  130.6688  152.0014 C   0  0  0  0  0  0  0  0  0  0  0  0
  145.3510  134.4496  151.6051 C   0  0  0  0  0  0  0  0  0  0  0  0
  145.4548  135.2518  150.4414 C   0  0  0  0  0  0  0  0  0  0  0  0
  145.8332  136.6054  150.5515 C   0  0  0  0  0  0  0  0  0  0  0  0
  146.0951  137.1591  151.8209 C   0  0  0  0  0  0  0  0  0  0  0  0
  146.5017  138.5190  151.8822 N   0  0  0  0  0  0  0  0  0  0  0  0
  146.8090  139.2752  152.9653 C   0  0  0  0  0  0  0  0  0  0  0  0
  146.6486  138.8001  154.0880 O   0  0  0  0  0  0  0  0  0  0  0  0
  147.2594  140.5551  152.7959 N   0  5  0  0  0  0  0  0  0  0  0  0
  147.3971  141.6294  153.7895 C   0  0  1  0  0  0  0  0  0  0  0  0
  146.0574  141.9382  154.4836 C   0  0  0  0  0  0  0  0  0  0  0  0
  146.4168  142.2689  155.9454 C   0  0  0  0  0  0  0  0  0  0  0  0
  147.8825  142.1208  156.0358 N   0  3  1  0  0  0  0  0  0  0  0  0
  148.4482  141.7558  157.3533 C   0  0  0  0  0  0  0  0  0  0  0  0
  149.9878  141.7646  157.2646 C   0  0  0  0  0  0  0  0  0  0  0  0
  150.5017  140.8835  156.1068 C   0  0  0  0  0  0  0  0  0  0  0  0
  149.8144  141.2521  154.7770 C   0  0  0  0  0  0  0  0  0  0  0  0
  148.2837  141.1967  154.9630 C   0  0  2  0  0  0  0  0  0  0  0  0
  145.9891  136.3179  152.9526 C   0  0  0  0  0  0  0  0  0  0  0  0
  145.6251  135.0266  152.8009 N   0  3  0  0  0  0  0  0  0  0  0  0
  143.3698  132.4018  148.6334 H   0  0  0  0  0  0  0  0  0  0  0  0
  145.0687  132.1011  148.9809 H   0  0  0  0  0  0  0  0  0  0  0  0
  144.4526  133.7526  148.9513 H   0  0  0  0  0  0  0  0  0  0  0  0
  143.0065  133.2489  150.9440 H   0  0  0  0  0  0  0  0  0  0  0  0
  143.5865  131.6131  150.9924 H   0  0  0  0  0  0  0  0  0  0  0  0
  146.7400  132.3080  152.4562 H   0  0  0  0  0  0  0  0  0  0  0  0
  145.3246  132.2524  153.4558 H   0  0  0  0  0  0  0  0  0  0  0  0
  145.8946  129.9642  152.6590 H   0  0  0  0  0  0  0  0  0  0  0  0
  145.7285  130.4794  150.9841 H   0  0  0  0  0  0  0  0  0  0  0  0
  144.3187  130.4461  152.0409 H   0  0  0  0  0  0  0  0  0  0  0  0
  145.2450  134.8556  149.4597 H   0  0  0  0  0  0  0  0  0  0  0  0
  145.9150  137.2149  149.6634 H   0  0  0  0  0  0  0  0  0  0  0  0
  146.5406  138.9998  150.9955 H   0  0  0  0  0  0  0  0  0  0  0  0
  147.8011  142.5538  153.3727 H   0  0  0  0  0  0  0  0  0  0  0  0
  145.5375  142.7617  153.9932 H   0  0  0  0  0  0  0  0  0  0  0  0
  145.3897  141.0750  154.4644 H   0  0  0  0  0  0  0  0  0  0  0  0
  146.1200  143.2797  156.2277 H   0  0  0  0  0  0  0  0  0  0  0  0
  145.9198  141.5714  156.6223 H   0  0  0  0  0  0  0  0  0  0  0  0
  148.1101  142.4674  158.1072 H   0  0  0  0  0  0  0  0  0  0  0  0
  148.0870  140.7708  157.6526 H   0  0  0  0  0  0  0  0  0  0  0  0
  150.3327  142.7885  157.1151 H   0  0  0  0  0  0  0  0  0  0  0  0
  150.4185  141.4301  158.2088 H   0  0  0  0  0  0  0  0  0  0  0  0
  151.5832  140.9825  156.0102 H   0  0  0  0  0  0  0  0  0  0  0  0
  150.3066  139.8351  156.3359 H   0  0  0  0  0  0  0  0  0  0  0  0
  150.1358  142.2489  154.4674 H   0  0  0  0  0  0  0  0  0  0  0  0
  150.1356  140.5617  153.9950 H   0  0  0  0  0  0  0  0  0  0  0  0
  147.9997  140.1854  155.2652 H   0  0  0  0  0  0  0  0  0  0  0  0
  146.1942  136.6177  153.9696 H   0  0  0  0  0  0  0  0  0  0  0  0
  148.2698  143.0179  155.7812 H   0  0  0  0  0  0  0  0  0  0  0  0
  145.5591  134.4494  153.6392 H   0  0  0  0  0  0  0  0  0  0  0  0
  1  2  1  0  0  0  0
  1 25  1  0  0  0  0
  1 26  1  0  0  0  0
  1 27  1  0  0  0  0
  2  3  1  0  0  0  0
  2 28  1  0  0  0  0
  2 29  1  0  0  0  0
  3  4  1  0  0  0  0
  3  6  1  0  0  0  0
  4  5  1  0  0  0  0
  4 30  1  0  0  0  0
  4 31  1  0  0  0  0
  5 32  1  0  0  0  0
  5 33  1  0  0  0  0
  5 34  1  0  0  0  0
  6 24  1  0  0  0  0
  6  7  2  0  0  0  0
  7  8  1  0  0  0  0
  7 35  1  0  0  0  0
  8  9  2  0  0  0  0
  8 36  1  0  0  0  0
  9 10  1  0  0  0  0
  9 23  1  0  0  0  0
 10 11  1  0  0  0  0
 10 37  1  0  0  0  0
 11 12  2  0  0  0  0
 11 13  1  0  0  0  0
 13 14  1  0  0  0  0
 14 22  1  0  0  0  0
 14 15  1  0  0  0  0
 14 38  1  0  0  0  0
 15 16  1  0  0  0  0
 15 39  1  0  0  0  0
 15 40  1  0  0  0  0
 16 17  1  0  0  0  0
 16 41  1  0  0  0  0
 16 42  1  0  0  0  0
 17 22  1  0  0  0  0
 17 18  1  0  0  0  0
 17 53  1  0  0  0  0
 18 19  1  0  0  0  0
 18 43  1  0  0  0  0
 18 44  1  0  0  0  0
 19 20  1  0  0  0  0
 19 45  1  0  0  0  0
 19 46  1  0  0  0  0
 20 21  1  0  0  0  0
 20 47  1  0  0  0  0
 20 48  1  0  0  0  0
 21 22  1  0  0  0  0
 21 49  1  0  0  0  0
 21 50  1  0  0  0  0
 22 51  1  0  0  0  0
 23 24  2  0  0  0  0
 23 52  1  0  0  0  0
 24 54  1  0  0  0  0
M  CHG  1  13  -1
M  CHG  1  17   1
M  CHG  1  24   1
M  END
> <s_m_source_file>
AV-unprocessed.smi

> <i_m_source_file_index>
1701

> <i_lp_mmshare_version>
43012

> <i_f3d_flags>
0

> <s_epik_input>
W0NIM11bQ0gyXU4oW0NIMl1bQ0gzXSljMVtjSF1bY0hdYyhbY0hdbjEpW05IXUMoPU8pW05IXVtDQEhdKFtDSDJdW0NIMl0yKVtDQEBIXShOMjMpW0NIMl1bQ0gyXVtDSDJdW0NIMl0z

> <s_epik_cmdline>
J2VwaWtfcHl0aG9uJywgJy1waCcsICc3LjAnLCAnLXRuJywgJzgnLCAnLW1hJywgJzIwMCcsICctbWV0YWxfYmluZGluZycsICctaW1hZScsICc8aW5maWxlLm1hZT4nLCAnLW9tYWUnLCAnPG91dGZpbGUubWFlPic=

> <r_lp_tautomer_probability>
0.999994

> <r_epik_Ionization_Penalty>
7.37095

> <r_epik_Ionization_Penalty_Charging>
7.37095

> <r_epik_Ionization_Penalty_Neutral>
3.78969e-06

> <r_epik_State_Penalty>
6.83842

> <r_epik_Charging_Adjusted_Penalty>
14.2094

> <i_epik_Tot_Q>
1

> <i_epik_Tot_abs_Q>
3

> <r_epik_Metal_State_Penalty>
2.78552

> <b_epik_Metal_Only>
1

> <s_lp_Force_Field>
OPLS_2005

> <r_lp_Energy>
47.735

> <b_lp_Chiralities_Consistent>
1

> <s_lp_Variant>
AV-unprocessed.smi:1701-22

> <Gold.Version>
5.8.1

> <Gold.Id.Protein>
6NUR|6NUR_protein|mol2

> <Gold.PLP.Fitness>
45.1521

> <Gold.PLP.PLP>
-40.9898

> <Gold.PLP.part.hbond>
-1.5836

> <Gold.PLP.part.metal>
0.0000

> <Gold.PLP.part.buried>
-0.2411

> <Gold.PLP.part.nonpolar>
-39.9219

> <Gold.PLP.part.repulsive>
0.4754

> <Gold.PLP.ligand.clash>
0.0000

> <Gold.PLP.ligand.torsion>
0.9831

> <Gold.PLP.Chemscore.Hbond>
2.0000

> <Gold.PLP.Chemscore.CHOScore>
0.0000

> <Gold.PLP.Chemscore.Metal>
0.0000

> <Gold.Chemscore.Hbonds>
donor molecule, donor type, donor heavy atom, donor atom, acceptor molecule, acceptor atom, score
      L1  H    17    53       P1  8028  2.00

> <Gold.PLP.Chemscore.Internal.Correction>
0.1285

> <Gold.Rescore>
     Score         DG    S(hbond)    S(metal)    S(lipo)     H(rot)  DE(clash)    DE(int)     intcor
     11.48     -17.53       0.97        0.00     103.31       1.28       2.77       3.29       ----

> <Gold.Chemscore.Fitness>
11.4772

> <Gold.Chemscore.DG>
-17.5296

> <Gold.Chemscore.ZeroCoef>
-5.4800

> <Gold.Chemscore.Hbond>
0.9729

> <Gold.Chemscore.Metal>
0.0000

> <Gold.Chemscore.Lipo>
103.3061

> <Gold.Chemscore.Internal_Hbond>
0.0000

> <Gold.Chemscore.DEClash>
2.7652

> <Gold.Chemscore.DEInternal>
3.2872

> <Gold.Chemscore.Rot>
1.2838

> <Gold.Chemscore.Internal.Correction>
   9.000000E+99

> <Gold.Chemscore.Hbonds>
donor molecule, donor type, donor heavy atom, donor atom, acceptor molecule, acceptor atom, score
      L1  H    17    53       P1  8028  0.93

> <Gold.Chemscore.Hbond.Weighted>
-3.2494

> <Gold.Chemscore.Metal.Weighted>
-0.0000

> <Gold.Chemscore.Lipo.Weighted>
-12.0868

> <Gold.Chemscore.Internal_Hbond.Weighted>
0.0000

> <Gold.Chemscore.DEClash.Weighted>
2.7652

> <Gold.Chemscore.DEInternal.Weighted>
3.2872

> <Gold.Chemscore.Rot.Weighted>
3.2865

> <Gold.Chemscore.Internal.Correction.Weighted>
   9.000000E+99

> <Gold.Protein.RotatedTorsions>
[ 6907 6896 6895 6894 ] final  -87.84 input  -60.11 | X-H torsion
[ 7974 7965 7964 7962 ] final  -34.41 input  175.53 | X-H torsion
[ 8008 7997 7996 7995 ] final   -4.89 input   59.86 | X-H torsion
[ 10167 10162 10161 10158 ] final -105.67 input  -65.29 | X-H torsion
[ 10718 10713 10712 10709 ] final -162.82 input   66.30 | X-H torsion
[ 10763 10752 10751 10750 ] final -139.80 input  -60.55 | X-H torsion
[ 11005 11000 10999 10996 ] final   61.48 input  -57.11 | X-H torsion

> <Gold.Protein.ActiveResidues>
 VAL166  LYS551  ARG553  GLY616  TRP617  ASP618  TYR619  PRO620  LYS621  CYS622 
 ASP623  PHE694  ASN695  SER759  ASP760  ASP761  ALA762  ILE779  LEU786  VAL792 
 PHE793  MET794  SER795  GLU796  ALA797  LYS798  CYS799  TRP800  GLU811  SER814 

> <Gold.Protein.RotatedAtoms>
  150.6867  134.2834  159.4636 H   0  0  0  0  0  0  0  0  0  0  0  0  # atno 6907 bound_to 6896
  152.0745  134.9509  160.0583 H   0  0  0  0  0  0  0  0  0  0  0  0  # atno 6908 bound_to 6896
  152.0885  133.4154  159.4570 H   0  0  0  0  0  0  0  0  0  0  0  0  # atno 6909 bound_to 6896
  146.0832  140.6035  142.8899 H   0  0  0  0  0  0  0  0  0  0  0  0  # atno 7974 bound_to 7965
  154.6095  140.2472  155.7687 H   0  0  0  0  0  0  0  0  0  0  0  0  # atno 8008 bound_to 7997
  156.2362  140.2949  156.0269 H   0  0  0  0  0  0  0  0  0  0  0  0  # atno 8009 bound_to 7997
  155.2075  140.0396  157.2918 H   0  0  0  0  0  0  0  0  0  0  0  0  # atno 8010 bound_to 7997
  140.1961  143.3855  152.1168 H   0  0  0  0  0  0  0  0  0  0  0  0  # atno 10167 bound_to 10162
  156.6158  130.8870  151.2947 H   0  0  0  0  0  0  0  0  0  0  0  0  # atno 10718 bound_to 10713
  154.8598  135.3572  154.5605 H   0  0  0  0  0  0  0  0  0  0  0  0  # atno 10763 bound_to 10752
  153.6220  135.7005  153.5311 H   0  0  0  0  0  0  0  0  0  0  0  0  # atno 10764 bound_to 10752
  153.3121  135.4175  155.1304 H   0  0  0  0  0  0  0  0  0  0  0  0  # atno 10765 bound_to 10752
  140.0158  134.6227  155.9712 H   0  0  0  0  0  0  0  0  0  0  0  0  # atno 11005 bound_to 11000
  144.7307  140.4663  143.6940 LP  0  0  0  0  0  0  0  0  0  0  0  0  # atno 17320 bound_to 7965
  145.6179  139.1520  143.3039 LP  0  0  0  0  0  0  0  0  0  0  0  0  # atno 17321 bound_to 7965
  139.5236  144.7073  151.5313 LP  0  0  0  0  0  0  0  0  0  0  0  0  # atno 17342 bound_to 10162
  140.6423  143.8865  150.6703 LP  0  0  0  0  0  0  0  0  0  0  0  0  # atno 17343 bound_to 10162
  157.7241  130.9599  150.1562 LP  0  0  0  0  0  0  0  0  0  0  0  0  # atno 17370 bound_to 10713
  156.2352  130.3686  149.8399 LP  0  0  0  0  0  0  0  0  0  0  0  0  # atno 17371 bound_to 10713
  141.1742  133.6539  156.4764 LP  0  0  0  0  0  0  0  0  0  0  0  0  # atno 17394 bound_to 11000
  140.4474  134.6960  157.5022 LP  0  0  0  0  0  0  0  0  0  0  0  0  # atno 17395 bound_to 11000

$$$$
