AV-unprocessed.smi:594|AV-procd|sdf|3016|dock6
  -GOLD-   2262023523D 1   1.00000     0.00000
 Structure written by MMmdl.
 40 41  0  0  0  0  0  0  0  0  3 V2000
  153.1079  141.8988  161.5442 C   0  0  0  0  0  0  0  0  0  0  0  0
  153.0128  143.1460  160.6482 C   0  0  2  0  0  0  0  0  0  0  0  0
  151.8957  144.0992  161.1215 C   0  0  0  0  0  0  0  0  0  0  0  0
  151.8420  145.3757  160.2667 C   0  0  0  0  0  0  0  0  0  0  0  0
  151.6779  145.0440  158.7761 C   0  0  0  0  0  0  0  0  0  0  0  0
  152.7849  144.0911  158.2918 C   0  0  0  0  0  0  0  0  0  0  0  0
  152.8648  142.8071  159.1421 C   0  0  2  0  0  0  0  0  0  0  0  0
  151.6928  141.9671  158.8854 N   0  0  0  0  0  0  0  0  0  0  0  0
  151.7067  140.7067  158.4248 C   0  0  0  0  0  0  0  0  0  0  0  0
  152.7416  140.0954  158.1543 O   0  0  0  0  0  0  0  0  0  0  0  0
  150.3312  140.0423  158.2704 C   0  0  0  0  0  0  0  0  0  0  0  0
  149.6291  140.4288  157.0351 N   0  0  0  0  0  0  0  0  0  0  0  0
  148.3442  140.9876  157.1824 C   0  0  0  0  0  0  0  0  0  0  0  0
  147.6020  141.3653  156.1233 C   0  0  0  0  0  0  0  0  0  0  0  0
  146.2800  141.9271  156.2934 N   0  3  0  0  0  0  0  0  0  0  0  0
  145.8373  142.0557  157.4304 O   0  0  0  0  0  0  0  0  0  0  0  0
  145.6408  142.2574  155.2987 O   0  5  0  0  0  0  0  0  0  0  0  0
  148.1711  141.1824  154.8019 C   0  0  0  0  0  0  0  0  0  0  0  0
  149.3978  140.6442  154.6544 C   0  0  0  0  0  0  0  0  0  0  0  0
  150.2003  140.2259  155.8086 C   0  0  0  0  0  0  0  0  0  0  0  0
  151.3169  139.7238  155.6800 O   0  0  0  0  0  0  0  0  0  0  0  0
  152.1753  141.3339  161.5525 H   0  0  0  0  0  0  0  0  0  0  0  0
  153.3322  142.1748  162.5747 H   0  0  0  0  0  0  0  0  0  0  0  0
  153.8994  141.2309  161.2032 H   0  0  0  0  0  0  0  0  0  0  0  0
  153.9578  143.6798  160.7604 H   0  0  0  0  0  0  0  0  0  0  0  0
  150.9309  143.5920  161.0822 H   0  0  0  0  0  0  0  0  0  0  0  0
  152.0558  144.3699  162.1657 H   0  0  0  0  0  0  0  0  0  0  0  0
  151.0202  146.0110  160.5984 H   0  0  0  0  0  0  0  0  0  0  0  0
  152.7564  145.9520  160.4136 H   0  0  0  0  0  0  0  0  0  0  0  0
  150.6998  144.5918  158.6072 H   0  0  0  0  0  0  0  0  0  0  0  0
  151.6970  145.9618  158.1880 H   0  0  0  0  0  0  0  0  0  0  0  0
  152.6292  143.8398  157.2420 H   0  0  0  0  0  0  0  0  0  0  0  0
  153.7434  144.6097  158.3384 H   0  0  0  0  0  0  0  0  0  0  0  0
  153.7633  142.2728  158.8281 H   0  0  0  0  0  0  0  0  0  0  0  0
  150.7939  142.3824  159.0830 H   0  0  0  0  0  0  0  0  0  0  0  0
  150.4689  138.9602  158.2994 H   0  0  0  0  0  0  0  0  0  0  0  0
  149.7250  140.2740  159.1481 H   0  0  0  0  0  0  0  0  0  0  0  0
  148.0088  141.0734  158.2062 H   0  0  0  0  0  0  0  0  0  0  0  0
  147.6181  141.4757  153.9216 H   0  0  0  0  0  0  0  0  0  0  0  0
  149.8020  140.5168  153.6606 H   0  0  0  0  0  0  0  0  0  0  0  0
  1  2  1  0  0  0  0
  1 22  1  0  0  0  0
  1 23  1  0  0  0  0
  1 24  1  0  0  0  0
  2  7  1  0  0  0  0
  2  3  1  0  0  0  0
  2 25  1  0  0  0  0
  3  4  1  0  0  0  0
  3 26  1  0  0  0  0
  3 27  1  0  0  0  0
  4  5  1  0  0  0  0
  4 28  1  0  0  0  0
  4 29  1  0  0  0  0
  5  6  1  0  0  0  0
  5 30  1  0  0  0  0
  5 31  1  0  0  0  0
  6  7  1  0  0  0  0
  6 32  1  0  0  0  0
  6 33  1  0  0  0  0
  7  8  1  0  0  0  0
  7 34  1  0  0  0  0
  8  9  1  0  0  0  0
  8 35  1  0  0  0  0
  9 10  2  0  0  0  0
  9 11  1  0  0  0  0
 11 12  1  0  0  0  0
 11 36  1  0  0  0  0
 11 37  1  0  0  0  0
 12 20  1  0  0  0  0
 12 13  1  0  0  0  0
 13 14  2  0  0  0  0
 13 38  1  0  0  0  0
 14 15  1  0  0  0  0
 14 18  1  0  0  0  0
 15 16  2  0  0  0  0
 15 17  1  0  0  0  0
 18 19  2  0  0  0  0
 18 39  1  0  0  0  0
 19 20  1  0  0  0  0
 19 40  1  0  0  0  0
 20 21  2  0  0  0  0
M  CHG  1  15   1
M  CHG  1  17  -1
M  END
> <s_m_source_file>
AV-unprocessed.smi

> <i_m_source_file_index>
594

> <i_lp_mmshare_version>
43012

> <i_f3d_flags>
0

> <s_epik_input>
W0NIM11bQ0BASF0xW0NIMl1bQ0gyXVtDSDJdW0NIMl1bQ0BIXTFbTkhdQyg9TylbQ0gyXW4yW2NIXWMoW04rXSg9TylbTy1dKVtjSF1bY0hdYzI9Tw==

> <s_epik_cmdline>
J2VwaWtfcHl0aG9uJywgJy1waCcsICc3LjAnLCAnLXRuJywgJzgnLCAnLW1hJywgJzIwMCcsICctbWV0YWxfYmluZGluZycsICctaW1hZScsICc8aW5maWxlLm1hZT4nLCAnLW9tYWUnLCAnPG91dGZpbGUubWFlPic=

> <r_lp_tautomer_probability>
1

> <r_epik_Ionization_Penalty>
1.91305e-08

> <r_epik_Ionization_Penalty_Charging>
8.35811e-11

> <r_epik_Ionization_Penalty_Neutral>
1.90469e-08

> <r_epik_State_Penalty>
-0

> <r_epik_Charging_Adjusted_Penalty>
8.35811e-11

> <i_epik_Tot_Q>
0

> <i_epik_Tot_abs_Q>
2

> <r_epik_Metal_State_Penalty>
-0

> <b_epik_Metal_Only>
0

> <s_lp_Force_Field>
OPLS_2005

> <r_lp_Energy>
20.6939

> <b_lp_Chiralities_Consistent>
1

> <s_lp_Variant>
AV-unprocessed.smi:594-3

> <Gold.Version>
5.8.1

> <Gold.Id.Protein>
6NUR|6NUR_protein|mol2

> <Gold.PLP.Fitness>
51.7555

> <Gold.PLP.PLP>
-46.4614

> <Gold.PLP.part.hbond>
-2.0000

> <Gold.PLP.part.metal>
0.0000

> <Gold.PLP.part.buried>
-5.3863

> <Gold.PLP.part.nonpolar>
-39.4929

> <Gold.PLP.part.repulsive>
0.3543

> <Gold.PLP.ligand.clash>
0.0000

> <Gold.PLP.ligand.torsion>
0.3058

> <Gold.PLP.Chemscore.Hbond>
1.9600

> <Gold.PLP.Chemscore.CHOScore>
0.0000

> <Gold.PLP.Chemscore.Metal>
0.0000

> <Gold.Chemscore.Hbonds>
donor molecule, donor type, donor heavy atom, donor atom, acceptor molecule, acceptor atom, score
      P1  H  7997  8008       L1    10  0.66

> <Gold.PLP.Chemscore.Internal.Correction>
0.0258

> <Gold.Rescore>
     Score         DG    S(hbond)    S(metal)    S(lipo)     H(rot)  DE(clash)    DE(int)     intcor
     20.02     -20.36       1.97        0.00     104.88       1.55       0.11       0.22       ----

> <Gold.Chemscore.Fitness>
20.0224

> <Gold.Chemscore.DG>
-20.3571

> <Gold.Chemscore.ZeroCoef>
-5.4800

> <Gold.Chemscore.Hbond>
1.9687

> <Gold.Chemscore.Metal>
0.0000

> <Gold.Chemscore.Lipo>
104.8778

> <Gold.Chemscore.Internal_Hbond>
0.0000

> <Gold.Chemscore.DEClash>
0.1149

> <Gold.Chemscore.DEInternal>
0.2198

> <Gold.Chemscore.Rot>
1.5505

> <Gold.Chemscore.Internal.Correction>
   9.000000E+99

> <Gold.Chemscore.Hbonds>
donor molecule, donor type, donor heavy atom, donor atom, acceptor molecule, acceptor atom, score
      P1  H  7997  8008       L1    10  0.63

> <Gold.Chemscore.Hbond.Weighted>
-6.5756

> <Gold.Chemscore.Metal.Weighted>
-0.0000

> <Gold.Chemscore.Lipo.Weighted>
-12.2707

> <Gold.Chemscore.Internal_Hbond.Weighted>
0.0000

> <Gold.Chemscore.DEClash.Weighted>
0.1149

> <Gold.Chemscore.DEInternal.Weighted>
0.2198

> <Gold.Chemscore.Rot.Weighted>
3.9692

> <Gold.Chemscore.Internal.Correction.Weighted>
   9.000000E+99

> <Gold.Protein.RotatedTorsions>
[ 6907 6896 6895 6894 ] final  -26.44 input  -60.11 | X-H torsion
[ 7974 7965 7964 7962 ] final -136.50 input  175.53 | X-H torsion
[ 8008 7997 7996 7995 ] final  -69.30 input   59.86 | X-H torsion
[ 10167 10162 10161 10158 ] final  108.95 input  -65.29 | X-H torsion
[ 10718 10713 10712 10709 ] final  100.72 input   66.30 | X-H torsion
[ 10763 10752 10751 10750 ] final  -82.82 input  -60.55 | X-H torsion
[ 11005 11000 10999 10996 ] final  -95.14 input  -57.11 | X-H torsion

> <Gold.Protein.ActiveResidues>
 VAL166  LYS551  ARG553  GLY616  TRP617  ASP618  TYR619  PRO620  LYS621  CYS622 
 ASP623  PHE694  ASN695  SER759  ASP760  ASP761  ALA762  ILE779  LEU786  VAL792 
 PHE793  MET794  SER795  GLU796  ALA797  LYS798  CYS799  TRP800  GLU811  SER814 

> <Gold.Protein.RotatedAtoms>
  151.1610  135.0273  159.8709 H   0  0  0  0  0  0  0  0  0  0  0  0  # atno 6907 bound_to 6896
  152.5451  134.1279  159.8437 H   0  0  0  0  0  0  0  0  0  0  0  0  # atno 6908 bound_to 6896
  151.1375  133.4948  159.2630 H   0  0  0  0  0  0  0  0  0  0  0  0  # atno 6909 bound_to 6896
  144.8921  140.6657  143.5138 H   0  0  0  0  0  0  0  0  0  0  0  0  # atno 7974 bound_to 7965
  154.4929  140.0856  156.7633 H   0  0  0  0  0  0  0  0  0  0  0  0  # atno 8008 bound_to 7997
  155.4187  140.3445  155.4251 H   0  0  0  0  0  0  0  0  0  0  0  0  # atno 8009 bound_to 7997
  156.1354  140.1513  156.8990 H   0  0  0  0  0  0  0  0  0  0  0  0  # atno 8010 bound_to 7997
  139.6805  144.7118  151.1524 H   0  0  0  0  0  0  0  0  0  0  0  0  # atno 10167 bound_to 10162
  157.6847  131.0706  150.5144 H   0  0  0  0  0  0  0  0  0  0  0  0  # atno 10718 bound_to 10713
  154.5803  135.5578  153.7179 H   0  0  0  0  0  0  0  0  0  0  0  0  # atno 10763 bound_to 10752
  153.0079  135.6318  154.1991 H   0  0  0  0  0  0  0  0  0  0  0  0  # atno 10764 bound_to 10752
  154.1932  135.2881  155.2995 H   0  0  0  0  0  0  0  0  0  0  0  0  # atno 10765 bound_to 10752
  141.1450  133.8005  157.0394 H   0  0  0  0  0  0  0  0  0  0  0  0  # atno 11005 bound_to 11000
  145.3764  139.1647  143.4304 LP  0  0  0  0  0  0  0  0  0  0  0  0  # atno 17320 bound_to 7965
  146.3060  140.3840  142.8687 LP  0  0  0  0  0  0  0  0  0  0  0  0  # atno 17321 bound_to 7965
  140.7650  143.5706  150.8999 LP  0  0  0  0  0  0  0  0  0  0  0  0  # atno 17342 bound_to 10162
  139.9378  143.6417  152.3061 LP  0  0  0  0  0  0  0  0  0  0  0  0  # atno 17343 bound_to 10162
  156.5459  130.4219  149.6131 LP  0  0  0  0  0  0  0  0  0  0  0  0  # atno 17370 bound_to 10713
  156.2944  130.7142  151.1999 LP  0  0  0  0  0  0  0  0  0  0  0  0  # atno 17371 bound_to 10713
  140.0703  134.9706  157.1455 LP  0  0  0  0  0  0  0  0  0  0  0  0  # atno 17394 bound_to 11000
  140.3721  134.2379  155.7177 LP  0  0  0  0  0  0  0  0  0  0  0  0  # atno 17395 bound_to 11000

$$$$
