AV-unprocessed.smi:2226|AV-procd|sdf|9019|dock3
  -GOLD-   2272012223D 1   1.00000     0.00000
 Structure written by MMmdl.
 39 41  0  0  0  0  0  0  0  0  3 V2000
  148.5510  141.1337  153.9705 C   0  0  0  0  0  0  0  0  0  0  0  0
  148.6619  140.0464  154.9717 N   0  3  2  0  0  0  0  0  0  0  0  0
  149.3476  140.4256  156.2307 C   0  0  2  0  0  0  0  0  0  0  0  0
  150.8648  140.6455  156.0029 C   0  0  0  0  0  0  0  0  0  0  0  0
  151.5661  139.4734  155.2912 C   0  0  0  0  0  0  0  0  0  0  0  0
  150.7274  138.9043  154.1312 C   0  0  0  0  0  0  0  0  0  0  0  0
  149.2167  138.7734  154.4515 C   0  0  1  0  0  0  0  0  0  0  0  0
  148.8606  137.6370  155.4358 C   0  0  0  0  0  0  0  0  0  0  0  0
  149.2523  137.9151  156.9105 C   0  0  2  0  0  0  0  0  0  0  0  0
  148.4956  137.0397  157.8026 N   0  0  0  0  0  0  0  0  0  0  0  0
  148.7141  136.8675  159.1147 C   0  0  0  0  0  0  0  0  0  0  0  0
  149.6256  137.4825  159.6727 O   0  0  0  0  0  0  0  0  0  0  0  0
  147.8643  135.9911  159.6946 N   0  5  0  0  0  0  0  0  0  0  0  0
  147.6651  136.0329  161.0218 C   0  0  0  0  0  0  0  0  0  0  0  0
  147.4542  134.9868  161.8224 N   0  0  0  0  0  0  0  0  0  0  0  0
  147.2976  135.5103  163.0964 C   0  0  0  0  0  0  0  0  0  0  0  0
  147.4184  136.8702  163.0093 C   0  0  0  0  0  0  0  0  0  0  0  0
  147.6459  137.2123  161.7050 O   0  0  0  0  0  0  0  0  0  0  0  0
  148.9991  139.3861  157.3201 C   0  0  0  0  0  0  0  0  0  0  0  0
  149.5233  141.4536  153.5972 H   0  0  0  0  0  0  0  0  0  0  0  0
  148.0552  142.0015  154.4064 H   0  0  0  0  0  0  0  0  0  0  0  0
  147.9532  140.8066  153.1194 H   0  0  0  0  0  0  0  0  0  0  0  0
  148.9292  141.3759  156.5657 H   0  0  0  0  0  0  0  0  0  0  0  0
  151.0034  141.5452  155.4029 H   0  0  0  0  0  0  0  0  0  0  0  0
  151.3611  140.8516  156.9517 H   0  0  0  0  0  0  0  0  0  0  0  0
  152.5332  139.8047  154.9118 H   0  0  0  0  0  0  0  0  0  0  0  0
  151.8089  138.6887  156.0028 H   0  0  0  0  0  0  0  0  0  0  0  0
  150.8486  139.5568  153.2664 H   0  0  0  0  0  0  0  0  0  0  0  0
  151.1311  137.9389  153.8240 H   0  0  0  0  0  0  0  0  0  0  0  0
  148.7052  138.5430  153.5157 H   0  0  0  0  0  0  0  0  0  0  0  0
  147.7803  137.4890  155.3872 H   0  0  0  0  0  0  0  0  0  0  0  0
  149.3004  136.6974  155.0997 H   0  0  0  0  0  0  0  0  0  0  0  0
  150.3062  137.6909  157.0572 H   0  0  0  0  0  0  0  0  0  0  0  0
  147.7365  136.5151  157.3926 H   0  0  0  0  0  0  0  0  0  0  0  0
  147.1143  134.8806  163.9543 H   0  0  0  0  0  0  0  0  0  0  0  0
  147.3707  137.6783  163.7236 H   0  0  0  0  0  0  0  0  0  0  0  0
  149.5308  139.6131  158.2449 H   0  0  0  0  0  0  0  0  0  0  0  0
  147.9394  139.5041  157.5538 H   0  0  0  0  0  0  0  0  0  0  0  0
  147.7083  139.8394  155.2329 H   0  0  0  0  0  0  0  0  0  0  0  0
  1  2  1  0  0  0  0
  1 20  1  0  0  0  0
  1 21  1  0  0  0  0
  1 22  1  0  0  0  0
  2  7  1  0  0  0  0
  2  3  1  0  0  0  0
  2 39  1  0  0  0  0
  3 19  1  0  0  0  0
  3  4  1  0  0  0  0
  3 23  1  0  0  0  0
  4  5  1  0  0  0  0
  4 24  1  0  0  0  0
  4 25  1  0  0  0  0
  5  6  1  0  0  0  0
  5 26  1  0  0  0  0
  5 27  1  0  0  0  0
  6  7  1  0  0  0  0
  6 28  1  0  0  0  0
  6 29  1  0  0  0  0
  7  8  1  0  0  0  0
  7 30  1  0  0  0  0
  8  9  1  0  0  0  0
  8 31  1  0  0  0  0
  8 32  1  0  0  0  0
  9 10  1  0  0  0  0
  9 19  1  0  0  0  0
  9 33  1  0  0  0  0
 10 34  1  0  0  0  0
 10 11  1  0  0  0  0
 11 13  1  0  0  0  0
 11 12  2  0  0  0  0
 13 14  1  0  0  0  0
 14 18  1  0  0  0  0
 14 15  2  0  0  0  0
 15 16  1  0  0  0  0
 16 35  1  0  0  0  0
 16 17  2  0  0  0  0
 17 36  1  0  0  0  0
 17 18  1  0  0  0  0
 19 37  1  0  0  0  0
 19 38  1  0  0  0  0
M  CHG  1   2   1
M  CHG  1  13  -1
M  END
> <s_m_source_file>
AV-unprocessed.smi

> <i_m_source_file_index>
2226

> <i_lp_mmshare_version>
43012

> <i_f3d_flags>
0

> <s_epik_input>
W0NIMl0xW0NIMl1bQ0gyXVtDQEhdKE4oW0NIM10pW0NIXTEyKVtDSDJdW0NASF0oW0NIMl0yKVtOSF1DKD1PKVtOSF1jM25bY0hdW2NIXW8z

> <s_epik_cmdline>
J2VwaWtfcHl0aG9uJywgJy1waCcsICc3LjAnLCAnLXRuJywgJzgnLCAnLW1hJywgJzIwMCcsICctbWV0YWxfYmluZGluZycsICctaW1hZScsICc8aW5maWxlLm1hZT4nLCAnLW9tYWUnLCAnPG91dGZpbGUubWFlPic=

> <r_lp_tautomer_probability>
0.107061

> <r_epik_Ionization_Penalty>
10.5612

> <r_epik_Ionization_Penalty_Charging>
7.48913

> <r_epik_Ionization_Penalty_Neutral>
3.07202

> <r_epik_State_Penalty>
5.6431

> <r_epik_Charging_Adjusted_Penalty>
13.1322

> <i_epik_Tot_Q>
0

> <i_epik_Tot_abs_Q>
2

> <r_epik_Metal_State_Penalty>
1.58163

> <b_epik_Metal_Only>
1

> <s_lp_Force_Field>
OPLS_2005

> <r_lp_Energy>
24.9808

> <b_lp_Chiralities_Consistent>
1

> <s_lp_Variant>
AV-unprocessed.smi:2226-19

> <Gold.Version>
5.8.1

> <Gold.Id.Protein>
6NUR|6NUR_protein|mol2

> <Gold.PLP.Fitness>
36.8479

> <Gold.PLP.PLP>
-32.6271

> <Gold.PLP.part.hbond>
-3.0000

> <Gold.PLP.part.metal>
0.0000

> <Gold.PLP.part.buried>
-2.2363

> <Gold.PLP.part.nonpolar>
-26.2618

> <Gold.PLP.part.repulsive>
0.1036

> <Gold.PLP.ligand.clash>
0.0000

> <Gold.PLP.ligand.torsion>
0.4290

> <Gold.PLP.Chemscore.Hbond>
1.6903

> <Gold.PLP.Chemscore.CHOScore>
0.0000

> <Gold.PLP.Chemscore.Metal>
0.0000

> <Gold.Chemscore.Hbonds>
donor molecule, donor type, donor heavy atom, donor atom, acceptor molecule, acceptor atom, score
      P1  H  6931  6943       L1    18  0.94
      P1  H  6934  6947       L1    18  0.72

> <Gold.PLP.Chemscore.Internal.Correction>
0.0080

> <Gold.Rescore>
     Score         DG    S(hbond)    S(metal)    S(lipo)     H(rot)  DE(clash)    DE(int)     intcor
     13.03     -14.83       1.29        0.00      64.94       1.00       0.02       1.77       ----

> <Gold.Chemscore.Fitness>
13.0329

> <Gold.Chemscore.DG>
-14.8301

> <Gold.Chemscore.ZeroCoef>
-5.4800

> <Gold.Chemscore.Hbond>
1.2909

> <Gold.Chemscore.Metal>
0.0000

> <Gold.Chemscore.Lipo>
64.9445

> <Gold.Chemscore.Internal_Hbond>
0.0000

> <Gold.Chemscore.DEClash>
0.0233

> <Gold.Chemscore.DEInternal>
1.7740

> <Gold.Chemscore.Rot>
1.0000

> <Gold.Chemscore.Internal.Correction>
   9.000000E+99

> <Gold.Chemscore.Hbonds>
donor molecule, donor type, donor heavy atom, donor atom, acceptor molecule, acceptor atom, score
      P1  H  6931  6943       L1    18  0.20
      P1  H  6934  6947       L1    18  0.68

> <Gold.Chemscore.Hbond.Weighted>
-4.3116

> <Gold.Chemscore.Metal.Weighted>
-0.0000

> <Gold.Chemscore.Lipo.Weighted>
-7.5985

> <Gold.Chemscore.Internal_Hbond.Weighted>
0.0000

> <Gold.Chemscore.DEClash.Weighted>
0.0233

> <Gold.Chemscore.DEInternal.Weighted>
1.7740

> <Gold.Chemscore.Rot.Weighted>
2.5600

> <Gold.Chemscore.Internal.Correction.Weighted>
   9.000000E+99

> <Gold.Protein.RotatedTorsions>
[ 6907 6896 6895 6894 ] final  -85.21 input  -60.11 | X-H torsion
[ 7974 7965 7964 7962 ] final  -93.48 input  175.53 | X-H torsion
[ 8008 7997 7996 7995 ] final  -87.46 input   59.86 | X-H torsion
[ 10167 10162 10161 10158 ] final   29.62 input  -65.29 | X-H torsion
[ 10718 10713 10712 10709 ] final  171.84 input   66.30 | X-H torsion
[ 10763 10752 10751 10750 ] final  -84.14 input  -60.55 | X-H torsion
[ 11005 11000 10999 10996 ] final   67.96 input  -57.11 | X-H torsion

> <Gold.Protein.ActiveResidues>
 VAL166  LYS551  ARG553  GLY616  TRP617  ASP618  TYR619  PRO620  LYS621  CYS622 
 ASP623  PHE694  ASN695  SER759  ASP760  ASP761  ALA762  ILE779  LEU786  VAL792 
 PHE793  MET794  SER795  GLU796  ALA797  LYS798  CYS799  TRP800  GLU811  SER814 

> <Gold.Protein.RotatedAtoms>
  150.6871  134.3240  159.4798 H   0  0  0  0  0  0  0  0  0  0  0  0  # atno 6907 bound_to 6896
  152.1112  134.9270  160.0576 H   0  0  0  0  0  0  0  0  0  0  0  0  # atno 6908 bound_to 6896
  152.0512  133.3985  159.4415 H   0  0  0  0  0  0  0  0  0  0  0  0  # atno 6909 bound_to 6896
  145.3860  140.9523  143.2367 H   0  0  0  0  0  0  0  0  0  0  0  0  # atno 7974 bound_to 7965
  154.6635  140.0565  157.0088 H   0  0  0  0  0  0  0  0  0  0  0  0  # atno 8008 bound_to 7997
  155.1193  140.3246  155.4483 H   0  0  0  0  0  0  0  0  0  0  0  0  # atno 8009 bound_to 7997
  156.2628  140.2000  156.6315 H   0  0  0  0  0  0  0  0  0  0  0  0  # atno 8010 bound_to 7997
  140.4750  144.0704  150.6248 H   0  0  0  0  0  0  0  0  0  0  0  0  # atno 10167 bound_to 10162
  156.9877  131.0138  151.2865 H   0  0  0  0  0  0  0  0  0  0  0  0  # atno 10718 bound_to 10713
  154.5960  135.5531  153.7326 H   0  0  0  0  0  0  0  0  0  0  0  0  # atno 10763 bound_to 10752
  153.0135  135.6355  154.1782 H   0  0  0  0  0  0  0  0  0  0  0  0  # atno 10764 bound_to 10752
  154.1722  135.2891  155.3057 H   0  0  0  0  0  0  0  0  0  0  0  0  # atno 10765 bound_to 10752
  139.9739  134.6854  156.0392 H   0  0  0  0  0  0  0  0  0  0  0  0  # atno 11005 bound_to 11000
  144.8474  139.5375  143.6872 LP  0  0  0  0  0  0  0  0  0  0  0  0  # atno 17320 bound_to 7965
  146.2820  139.6903  142.9222 LP  0  0  0  0  0  0  0  0  0  0  0  0  # atno 17321 bound_to 7965
  140.3930  143.2743  152.0038 LP  0  0  0  0  0  0  0  0  0  0  0  0  # atno 17342 bound_to 10162
  139.4824  144.6062  151.7517 LP  0  0  0  0  0  0  0  0  0  0  0  0  # atno 17343 bound_to 10162
  157.5481  130.8164  149.8111 LP  0  0  0  0  0  0  0  0  0  0  0  0  # atno 17370 bound_to 10713
  156.0219  130.3792  150.1936 LP  0  0  0  0  0  0  0  0  0  0  0  0  # atno 17371 bound_to 10713
  141.1418  133.6563  156.3750 LP  0  0  0  0  0  0  0  0  0  0  0  0  # atno 17394 bound_to 11000
  140.5235  134.6281  157.5326 LP  0  0  0  0  0  0  0  0  0  0  0  0  # atno 17395 bound_to 11000

$$$$
