AV-unprocessed.smi:113|AV-procd|sdf|1105|dock10
  -GOLD-   2262018223D 1   1.00000     0.00000
 Structure written by MMmdl.
 53 56  0  0  0  0  0  0  0  0  2 V2000
  148.6841  141.8235  154.2494 C   0  0  0  0  0  0  0  0  0  0  0  0
  149.6874  141.4991  155.3358 C   0  0  0  0  0  0  0  0  0  0  0  0
  150.3206  140.2442  155.4245 C   0  0  0  0  0  0  0  0  0  0  0  0
  151.2551  139.9951  156.4603 C   0  0  0  0  0  0  0  0  0  0  0  0
  151.9596  138.6396  156.5823 C   0  0  0  0  0  0  0  0  0  0  0  0
  151.1096  137.4642  156.7095 N   0  0  0  0  0  0  0  0  0  0  0  0
  150.2912  137.3618  157.8607 C   0  0  0  0  0  0  0  0  0  0  0  0
  150.2921  138.2350  158.7310 O   0  0  0  0  0  0  0  0  0  0  0  0
  149.4426  136.1691  157.9169 C   0  0  0  0  0  0  0  0  0  0  0  0
  148.5331  135.9927  159.1227 C   0  0  0  0  0  0  0  0  0  0  0  0
  149.4826  135.2670  156.9067 C   0  0  0  0  0  0  0  0  0  0  0  0
  150.2966  135.3885  155.7944 N   0  0  0  0  0  0  0  0  0  0  0  0
  150.2214  134.3510  154.6959 C   0  0  2  0  0  0  0  0  0  0  0  0
  148.8076  134.1651  154.1172 C   0  0  0  0  0  0  0  0  0  0  0  0
  148.6176  132.6516  154.1305 C   0  0  2  0  0  0  0  0  0  0  0  0
  147.6516  132.2819  155.0958 O   0  0  0  0  0  0  0  0  0  0  0  0
  150.0200  132.1012  154.4490 C   0  0  2  0  0  0  0  0  0  0  0  0
  150.0943  130.7514  155.1848 C   0  0  0  0  0  0  0  0  0  0  0  0
  151.4394  130.3608  155.3617 O   0  0  0  0  0  0  0  0  0  0  0  0
  150.6294  133.1270  155.2169 O   0  0  0  0  0  0  0  0  0  0  0  0
  151.1200  136.5270  155.6526 C   0  0  0  0  0  0  0  0  0  0  0  0
  151.8005  136.7025  154.6400 O   0  0  0  0  0  0  0  0  0  0  0  0
  151.5268  141.0382  157.3882 C   0  0  0  0  0  0  0  0  0  0  0  0
  152.4474  140.8806  158.4521 C   0  0  0  0  0  0  0  0  0  0  0  0
  152.6887  141.9375  159.3518 C   0  0  0  0  0  0  0  0  0  0  0  0
  152.0158  143.1645  159.2030 C   0  0  0  0  0  0  0  0  0  0  0  0
  151.0982  143.3389  158.1505 C   0  0  0  0  0  0  0  0  0  0  0  0
  150.8560  142.2832  157.2487 C   0  0  0  0  0  0  0  0  0  0  0  0
  149.9764  142.4572  156.2397 N   0  3  0  0  0  0  0  0  0  0  0  0
  148.3963  140.9267  153.7001 H   0  0  0  0  0  0  0  0  0  0  0  0
  149.1106  142.5350  153.5420 H   0  0  0  0  0  0  0  0  0  0  0  0
  147.7827  142.2619  154.6787 H   0  0  0  0  0  0  0  0  0  0  0  0
  150.0815  139.4868  154.6933 H   0  0  0  0  0  0  0  0  0  0  0  0
  152.6128  138.4772  155.7232 H   0  0  0  0  0  0  0  0  0  0  0  0
  152.6373  138.6427  157.4374 H   0  0  0  0  0  0  0  0  0  0  0  0
  147.9518  135.0721  159.0621 H   0  0  0  0  0  0  0  0  0  0  0  0
  147.8321  136.8249  159.1973 H   0  0  0  0  0  0  0  0  0  0  0  0
  149.1203  135.9555  160.0411 H   0  0  0  0  0  0  0  0  0  0  0  0
  148.8399  134.4011  156.9781 H   0  0  0  0  0  0  0  0  0  0  0  0
  150.9327  134.6597  153.9287 H   0  0  0  0  0  0  0  0  0  0  0  0
  148.0501  134.6969  154.6942 H   0  0  0  0  0  0  0  0  0  0  0  0
  148.7931  134.5613  153.1015 H   0  0  0  0  0  0  0  0  0  0  0  0
  148.2719  132.2881  153.1623 H   0  0  0  0  0  0  0  0  0  0  0  0
  147.4445  131.3671  154.9773 H   0  0  0  0  0  0  0  0  0  0  0  0
  150.5856  132.0308  153.5177 H   0  0  0  0  0  0  0  0  0  0  0  0
  149.6316  130.8387  156.1681 H   0  0  0  0  0  0  0  0  0  0  0  0
  149.5503  129.9728  154.6495 H   0  0  0  0  0  0  0  0  0  0  0  0
  151.9080  130.5203  154.5566 H   0  0  0  0  0  0  0  0  0  0  0  0
  152.9827  139.9547  158.5980 H   0  0  0  0  0  0  0  0  0  0  0  0
  153.3938  141.8053  160.1595 H   0  0  0  0  0  0  0  0  0  0  0  0
  152.2044  143.9718  159.8959 H   0  0  0  0  0  0  0  0  0  0  0  0
  150.5851  144.2834  158.0406 H   0  0  0  0  0  0  0  0  0  0  0  0
  149.5070  143.3587  156.1561 H   0  0  0  0  0  0  0  0  0  0  0  0
  1  2  1  0  0  0  0
  1 30  1  0  0  0  0
  1 31  1  0  0  0  0
  1 32  1  0  0  0  0
  2 29  1  0  0  0  0
  2  3  2  0  0  0  0
  3  4  1  0  0  0  0
  3 33  1  0  0  0  0
  4  5  1  0  0  0  0
  4 23  2  0  0  0  0
  5  6  1  0  0  0  0
  5 34  1  0  0  0  0
  5 35  1  0  0  0  0
  6 21  1  0  0  0  0
  6  7  1  0  0  0  0
  7  8  2  0  0  0  0
  7  9  1  0  0  0  0
  9 10  1  0  0  0  0
  9 11  2  0  0  0  0
 10 36  1  0  0  0  0
 10 37  1  0  0  0  0
 10 38  1  0  0  0  0
 11 12  1  0  0  0  0
 11 39  1  0  0  0  0
 12 13  1  0  0  0  0
 12 21  1  0  0  0  0
 13 20  1  0  0  0  0
 13 14  1  0  0  0  0
 13 40  1  0  0  0  0
 14 15  1  0  0  0  0
 14 41  1  0  0  0  0
 14 42  1  0  0  0  0
 15 16  1  0  0  0  0
 15 17  1  0  0  0  0
 15 43  1  0  0  0  0
 16 44  1  0  0  0  0
 17 18  1  0  0  0  0
 17 20  1  0  0  0  0
 17 45  1  0  0  0  0
 18 19  1  0  0  0  0
 18 46  1  0  0  0  0
 18 47  1  0  0  0  0
 19 48  1  0  0  0  0
 21 22  2  0  0  0  0
 23 28  1  0  0  0  0
 23 24  1  0  0  0  0
 24 25  2  0  0  0  0
 24 49  1  0  0  0  0
 25 26  1  0  0  0  0
 25 50  1  0  0  0  0
 26 27  2  0  0  0  0
 26 51  1  0  0  0  0
 27 28  1  0  0  0  0
 27 52  1  0  0  0  0
 28 29  2  0  0  0  0
 29 53  1  0  0  0  0
M  CHG  1  29   1
M  END
> <s_m_source_file>
AV-unprocessed.smi

> <i_m_source_file_index>
113

> <i_lp_mmshare_version>
43012

> <i_f3d_flags>
0

> <s_epik_input>
W2NIXTFbY0hdW2NIXVtjSF1jKGMxMiluYyhbQ0gzXSlbY0hdYzJbQ0gyXW4zYyg9TyljKFtDSDNdKVtjSF1uKGMzPU8pW0NAQEhdNFtDSDJdW0NAQEhdKFtPSF0pW0NASF0oTzQpW0NIMl1bT0hd

> <s_epik_cmdline>
J2VwaWtfcHl0aG9uJywgJy1waCcsICc3LjAnLCAnLXRuJywgJzgnLCAnLW1hJywgJzIwMCcsICctbWV0YWxfYmluZGluZycsICctaW1hZScsICc8aW5maWxlLm1hZT4nLCAnLW9tYWUnLCAnPG91dGZpbGUubWFlPic=

> <r_lp_tautomer_probability>
1

> <r_epik_Ionization_Penalty>
0.705471

> <r_epik_Ionization_Penalty_Charging>
0.70547

> <r_epik_Ionization_Penalty_Neutral>
1.19947e-07

> <r_epik_State_Penalty>
0.728574

> <r_epik_Charging_Adjusted_Penalty>
1.43404

> <i_epik_Tot_Q>
1

> <i_epik_Tot_abs_Q>
1

> <r_epik_Metal_State_Penalty>
4.61665

> <b_epik_Metal_Only>
0

> <s_epik_Chemistry_Notes>
This compound contains an acetal/aminal-like group ( X-CH(R)-Y where X, Y are N, S, or O) that may be acid/base labile, releasing an aldehyde.

> <s_lp_Force_Field>
OPLS_2005

> <r_lp_Energy>
39.3678

> <b_lp_Chiralities_Consistent>
1

> <s_lp_Variant>
AV-unprocessed.smi:113-15

> <Gold.Version>
5.8.1

> <Gold.Id.Protein>
6NUR|6NUR_protein|mol2

> <Gold.PLP.Fitness>
54.4792

> <Gold.PLP.PLP>
-45.5619

> <Gold.PLP.part.hbond>
-2.0000

> <Gold.PLP.part.metal>
0.0000

> <Gold.PLP.part.buried>
-5.9706

> <Gold.PLP.part.nonpolar>
-39.3482

> <Gold.PLP.part.repulsive>
0.2559

> <Gold.PLP.ligand.clash>
0.0000

> <Gold.PLP.ligand.torsion>
0.0541

> <Gold.PLP.Chemscore.Hbond>
3.0000

> <Gold.PLP.Chemscore.CHOScore>
0.0000

> <Gold.PLP.Chemscore.Metal>
0.0000

> <Gold.Chemscore.Hbonds>
donor molecule, donor type, donor heavy atom, donor atom, acceptor molecule, acceptor atom, score
      L1  H    29    53       P1  8028  2.00
      P1  H 10752 10764       L1    22  1.00

> <Gold.PLP.Chemscore.Internal.Correction>
0.0254

> <Gold.Rescore>
     Score         DG    S(hbond)    S(metal)    S(lipo)     H(rot)  DE(clash)    DE(int)     intcor
     16.57     -17.55       1.81        0.00     117.49       3.01       0.05       0.93       ----

> <Gold.Chemscore.Fitness>
16.5725

> <Gold.Chemscore.DG>
-17.5539

> <Gold.Chemscore.ZeroCoef>
-5.4800

> <Gold.Chemscore.Hbond>
1.8079

> <Gold.Chemscore.Metal>
0.0000

> <Gold.Chemscore.Lipo>
117.4897

> <Gold.Chemscore.Internal_Hbond>
0.0000

> <Gold.Chemscore.DEClash>
0.0493

> <Gold.Chemscore.DEInternal>
0.9321

> <Gold.Chemscore.Rot>
3.0120

> <Gold.Chemscore.Internal.Correction>
   9.000000E+99

> <Gold.Chemscore.Hbonds>
donor molecule, donor type, donor heavy atom, donor atom, acceptor molecule, acceptor atom, score
      L1  H    29    53       P1  8028  0.97
      P1  H 10752 10764       L1    22  0.94

> <Gold.Chemscore.Hbond.Weighted>
-6.0384

> <Gold.Chemscore.Metal.Weighted>
-0.0000

> <Gold.Chemscore.Lipo.Weighted>
-13.7463

> <Gold.Chemscore.Internal_Hbond.Weighted>
0.0000

> <Gold.Chemscore.DEClash.Weighted>
0.0493

> <Gold.Chemscore.DEInternal.Weighted>
0.9321

> <Gold.Chemscore.Rot.Weighted>
7.7108

> <Gold.Chemscore.Internal.Correction.Weighted>
   9.000000E+99

> <Gold.Protein.RotatedTorsions>
[ 6907 6896 6895 6894 ] final  -84.64 input  -60.11 | X-H torsion
[ 7974 7965 7964 7962 ] final -146.45 input  175.53 | X-H torsion
[ 8008 7997 7996 7995 ] final -176.49 input   59.86 | X-H torsion
[ 10167 10162 10161 10158 ] final   -6.94 input  -65.29 | X-H torsion
[ 10718 10713 10712 10709 ] final -149.95 input   66.30 | X-H torsion
[ 10763 10752 10751 10750 ] final  -79.29 input  -60.55 | X-H torsion
[ 11005 11000 10999 10996 ] final  163.81 input  -57.11 | X-H torsion

> <Gold.Protein.ActiveResidues>
 VAL166  LYS551  ARG553  GLY616  TRP617  ASP618  TYR619  PRO620  LYS621  CYS622 
 ASP623  PHE694  ASN695  SER759  ASP760  ASP761  ALA762  ILE779  LEU786  VAL792 
 PHE793  MET794  SER795  GLU796  ALA797  LYS798  CYS799  TRP800  GLU811  SER814 

> <Gold.Protein.RotatedAtoms>
  150.6875  134.3327  159.4833 H   0  0  0  0  0  0  0  0  0  0  0  0  # atno 6907 bound_to 6896
  152.1189  134.9217  160.0573 H   0  0  0  0  0  0  0  0  0  0  0  0  # atno 6908 bound_to 6896
  152.0431  133.3951  159.4382 H   0  0  0  0  0  0  0  0  0  0  0  0  # atno 6909 bound_to 6896
  144.8159  140.5454  143.5611 H   0  0  0  0  0  0  0  0  0  0  0  0  # atno 7974 bound_to 7965
  155.9955  140.1209  157.0598 H   0  0  0  0  0  0  0  0  0  0  0  0  # atno 8008 bound_to 7997
  154.4225  140.1117  156.5693 H   0  0  0  0  0  0  0  0  0  0  0  0  # atno 8009 bound_to 7997
  155.6284  140.3473  155.4677 H   0  0  0  0  0  0  0  0  0  0  0  0  # atno 8010 bound_to 7997
  140.7013  143.6137  150.8679 H   0  0  0  0  0  0  0  0  0  0  0  0  # atno 10167 bound_to 10162
  156.4398  130.8116  151.2345 H   0  0  0  0  0  0  0  0  0  0  0  0  # atno 10718 bound_to 10713
  154.5367  135.5701  153.6805 H   0  0  0  0  0  0  0  0  0  0  0  0  # atno 10763 bound_to 10752
  152.9953  135.6218  154.2556 H   0  0  0  0  0  0  0  0  0  0  0  0  # atno 10764 bound_to 10752
  154.2485  135.2860  155.2805 H   0  0  0  0  0  0  0  0  0  0  0  0  # atno 10765 bound_to 10752
  140.2395  134.8062  157.3397 H   0  0  0  0  0  0  0  0  0  0  0  0  # atno 11005 bound_to 11000
  145.5216  139.1476  143.3549 LP  0  0  0  0  0  0  0  0  0  0  0  0  # atno 17320 bound_to 7965
  146.2462  140.5357  142.8913 LP  0  0  0  0  0  0  0  0  0  0  0  0  # atno 17321 bound_to 7965
  139.9860  143.5899  152.2927 LP  0  0  0  0  0  0  0  0  0  0  0  0  # atno 17342 bound_to 10162
  139.6537  144.7661  151.2097 LP  0  0  0  0  0  0  0  0  0  0  0  0  # atno 17343 bound_to 10162
  157.7506  131.0172  150.3575 LP  0  0  0  0  0  0  0  0  0  0  0  0  # atno 17370 bound_to 10713
  156.3930  130.3901  149.7016 LP  0  0  0  0  0  0  0  0  0  0  0  0  # atno 17371 bound_to 10713
  140.1667  134.4659  155.7858 LP  0  0  0  0  0  0  0  0  0  0  0  0  # atno 17394 bound_to 11000
  141.2211  133.6924  156.7638 LP  0  0  0  0  0  0  0  0  0  0  0  0  # atno 17395 bound_to 11000

$$$$
