AV-unprocessed.smi:3198|AV-procd|sdf|12227|dock3
  -GOLD-   2272018 63D 1   1.00000     0.00000
 Structure written by MMmdl.
 38 39  0  0  0  0  0  0  0  0  2 V2000
  153.8670  141.5597  160.3746 C   0  0  0  0  0  0  0  0  0  0  0  0
  152.8715  142.6579  160.0663 C   0  0  0  0  0  0  0  0  0  0  0  0
  152.6413  143.7362  160.9454 C   0  0  0  0  0  0  0  0  0  0  0  0
  151.6972  144.7203  160.5898 C   0  0  0  0  0  0  0  0  0  0  0  0
  151.0032  144.6050  159.3676 C   0  0  0  0  0  0  0  0  0  0  0  0
  151.2691  143.5027  158.5198 C   0  0  0  0  0  0  0  0  0  0  0  0
  150.6385  143.2851  157.2884 N   0  0  0  0  0  0  0  0  0  0  0  0
  150.9819  142.1195  156.4888 C   0  0  0  0  0  0  0  0  0  0  0  0
  150.1045  140.9161  156.8480 C   0  0  0  0  0  0  0  0  0  0  0  0
  148.7456  141.2607  156.6366 O   0  0  0  0  0  0  0  0  0  0  0  0
  148.4419  141.4889  155.2708 C   0  0  0  0  0  0  0  0  0  0  0  0
  146.9397  141.7680  155.1366 C   0  0  2  0  0  0  0  0  0  0  0  0
  146.5804  142.6592  153.9486 C   0  0  0  0  0  0  0  0  0  0  0  0
  145.2764  143.3174  154.3743 C   0  0  0  0  0  0  0  0  0  0  0  0
  145.1947  143.0466  155.8792 C   0  0  0  0  0  0  0  0  0  0  0  0
  146.4727  142.5372  156.2330 O   0  0  0  0  0  0  0  0  0  0  0  0
  152.1855  142.5858  158.9035 N   0  3  0  0  0  0  0  0  0  0  0  0
  154.3871  141.7523  161.3135 H   0  0  0  0  0  0  0  0  0  0  0  0
  154.6123  141.4877  159.5821 H   0  0  0  0  0  0  0  0  0  0  0  0
  153.3582  140.5990  160.4578 H   0  0  0  0  0  0  0  0  0  0  0  0
  153.1790  143.8109  161.8796 H   0  0  0  0  0  0  0  0  0  0  0  0
  151.5067  145.5551  161.2479 H   0  0  0  0  0  0  0  0  0  0  0  0
  150.2813  145.3614  159.0977 H   0  0  0  0  0  0  0  0  0  0  0  0
  150.1461  144.0447  156.8404 H   0  0  0  0  0  0  0  0  0  0  0  0
  150.8830  142.3508  155.4276 H   0  0  0  0  0  0  0  0  0  0  0  0
  152.0276  141.8698  156.6712 H   0  0  0  0  0  0  0  0  0  0  0  0
  150.3684  140.0721  156.2090 H   0  0  0  0  0  0  0  0  0  0  0  0
  150.2732  140.6091  157.8816 H   0  0  0  0  0  0  0  0  0  0  0  0
  149.0240  142.3230  154.8754 H   0  0  0  0  0  0  0  0  0  0  0  0
  148.7033  140.6006  154.6935 H   0  0  0  0  0  0  0  0  0  0  0  0
  146.3782  140.8333  155.0798 H   0  0  0  0  0  0  0  0  0  0  0  0
  147.3446  143.4251  153.8076 H   0  0  0  0  0  0  0  0  0  0  0  0
  146.4896  142.1007  153.0166 H   0  0  0  0  0  0  0  0  0  0  0  0
  145.2929  144.3862  154.1579 H   0  0  0  0  0  0  0  0  0  0  0  0
  144.4192  142.8833  153.8581 H   0  0  0  0  0  0  0  0  0  0  0  0
  144.9549  143.9415  156.4541 H   0  0  0  0  0  0  0  0  0  0  0  0
  144.4365  142.2914  156.0927 H   0  0  0  0  0  0  0  0  0  0  0  0
  152.3692  141.7954  158.2852 H   0  0  0  0  0  0  0  0  0  0  0  0
  1  2  1  0  0  0  0
  1 18  1  0  0  0  0
  1 19  1  0  0  0  0
  1 20  1  0  0  0  0
  2 17  1  0  0  0  0
  2  3  2  0  0  0  0
  3  4  1  0  0  0  0
  3 21  1  0  0  0  0
  4  5  2  0  0  0  0
  4 22  1  0  0  0  0
  5  6  1  0  0  0  0
  5 23  1  0  0  0  0
  6  7  1  0  0  0  0
  6 17  2  0  0  0  0
  7  8  1  0  0  0  0
  7 24  1  0  0  0  0
  8  9  1  0  0  0  0
  8 25  1  0  0  0  0
  8 26  1  0  0  0  0
  9 10  1  0  0  0  0
  9 27  1  0  0  0  0
  9 28  1  0  0  0  0
 10 11  1  0  0  0  0
 11 12  1  0  0  0  0
 11 29  1  0  0  0  0
 11 30  1  0  0  0  0
 12 16  1  0  0  0  0
 12 13  1  0  0  0  0
 12 31  1  0  0  0  0
 13 14  1  0  0  0  0
 13 32  1  0  0  0  0
 13 33  1  0  0  0  0
 14 15  1  0  0  0  0
 14 34  1  0  0  0  0
 14 35  1  0  0  0  0
 15 16  1  0  0  0  0
 15 36  1  0  0  0  0
 15 37  1  0  0  0  0
 17 38  1  0  0  0  0
M  CHG  1  17   1
M  END
> <s_m_source_file>
AV-unprocessed.smi

> <i_m_source_file_index>
3198

> <i_lp_mmshare_version>
43012

> <i_f3d_flags>
0

> <s_epik_input>
W0NIM11jMVtjSF1bY0hdW2NIXWMobjEpW05IXVtDSDJdW0NIMl1PW0NIMl1bQ0BASF0yW0NIMl1bQ0gyXVtDSDJdTzI=

> <s_epik_cmdline>
J2VwaWtfcHl0aG9uJywgJy1waCcsICc3LjAnLCAnLXRuJywgJzgnLCAnLW1hJywgJzIwMCcsICctbWV0YWxfYmluZGluZycsICctaW1hZScsICc8aW5maWxlLm1hZT4nLCAnLW9tYWUnLCAnPG91dGZpbGUubWFlPic=

> <r_lp_tautomer_probability>
0.999994

> <r_epik_Ionization_Penalty>
0.0710016

> <r_epik_Ionization_Penalty_Charging>
0.0710012

> <r_epik_Ionization_Penalty_Neutral>
3.47026e-07

> <r_epik_State_Penalty>
0.0622974

> <r_epik_Charging_Adjusted_Penalty>
0.133299

> <i_epik_Tot_Q>
1

> <i_epik_Tot_abs_Q>
1

> <r_epik_Metal_State_Penalty>
2.79497

> <b_epik_Metal_Only>
0

> <s_lp_Force_Field>
OPLS_2005

> <r_lp_Energy>
24.6681

> <b_lp_Chiralities_Consistent>
1

> <s_lp_Variant>
AV-unprocessed.smi:3198-1

> <Gold.Version>
5.8.1

> <Gold.Id.Protein>
6NUR|6NUR_protein|mol2

> <Gold.PLP.Fitness>
43.7961

> <Gold.PLP.PLP>
-39.1672

> <Gold.PLP.part.hbond>
-1.0000

> <Gold.PLP.part.metal>
0.0000

> <Gold.PLP.part.buried>
-7.1434

> <Gold.PLP.part.nonpolar>
-31.9512

> <Gold.PLP.part.repulsive>
0.3132

> <Gold.PLP.ligand.clash>
0.4332

> <Gold.PLP.ligand.torsion>
0.4853

> <Gold.PLP.Chemscore.Hbond>
2.0000

> <Gold.PLP.Chemscore.CHOScore>
0.0000

> <Gold.PLP.Chemscore.Metal>
0.0000

> <Gold.Chemscore.Hbonds>
donor molecule, donor type, donor heavy atom, donor atom, acceptor molecule, acceptor atom, score
      L1  H     7    24       P1  8028  2.00

> <Gold.PLP.Chemscore.Internal.Correction>
0.0327

> <Gold.Rescore>
     Score         DG    S(hbond)    S(metal)    S(lipo)     H(rot)  DE(clash)    DE(int)     intcor
     15.25     -15.65       1.00        0.00      95.85       1.71       0.02       0.39       ----

> <Gold.Chemscore.Fitness>
15.2458

> <Gold.Chemscore.DG>
-15.6539

> <Gold.Chemscore.ZeroCoef>
-5.4800

> <Gold.Chemscore.Hbond>
0.9963

> <Gold.Chemscore.Metal>
0.0000

> <Gold.Chemscore.Lipo>
95.8489

> <Gold.Chemscore.Internal_Hbond>
0.0000

> <Gold.Chemscore.DEClash>
0.0174

> <Gold.Chemscore.DEInternal>
0.3907

> <Gold.Chemscore.Rot>
1.7063

> <Gold.Chemscore.Internal.Correction>
   9.000000E+99

> <Gold.Chemscore.Hbonds>
donor molecule, donor type, donor heavy atom, donor atom, acceptor molecule, acceptor atom, score
      L1  H     7    24       P1  8028  0.96

> <Gold.Chemscore.Hbond.Weighted>
-3.3277

> <Gold.Chemscore.Metal.Weighted>
-0.0000

> <Gold.Chemscore.Lipo.Weighted>
-11.2143

> <Gold.Chemscore.Internal_Hbond.Weighted>
0.0000

> <Gold.Chemscore.DEClash.Weighted>
0.0174

> <Gold.Chemscore.DEInternal.Weighted>
0.3907

> <Gold.Chemscore.Rot.Weighted>
4.3681

> <Gold.Chemscore.Internal.Correction.Weighted>
   9.000000E+99

> <Gold.Protein.RotatedTorsions>
[ 6907 6896 6895 6894 ] final  167.83 input  -60.11 | X-H torsion
[ 7974 7965 7964 7962 ] final  -52.00 input  175.53 | X-H torsion
[ 8008 7997 7996 7995 ] final -105.25 input   59.86 | X-H torsion
[ 10167 10162 10161 10158 ] final  136.03 input  -65.29 | X-H torsion
[ 10718 10713 10712 10709 ] final   46.84 input   66.30 | X-H torsion
[ 10763 10752 10751 10750 ] final  115.28 input  -60.55 | X-H torsion
[ 11005 11000 10999 10996 ] final  -36.02 input  -57.11 | X-H torsion

> <Gold.Protein.ActiveResidues>
 VAL166  LYS551  ARG553  GLY616  TRP617  ASP618  TYR619  PRO620  LYS621  CYS622 
 ASP623  PHE694  ASN695  SER759  ASP760  ASP761  ALA762  ILE779  LEU786  VAL792 
 PHE793  MET794  SER795  GLU796  ALA797  LYS798  CYS799  TRP800  GLU811  SER814 

> <Gold.Protein.RotatedAtoms>
  151.8571  133.3450  159.3691 H   0  0  0  0  0  0  0  0  0  0  0  0  # atno 6907 bound_to 6896
  150.7189  134.5242  159.5678 H   0  0  0  0  0  0  0  0  0  0  0  0  # atno 6908 bound_to 6896
  152.2748  134.7894  160.0458 H   0  0  0  0  0  0  0  0  0  0  0  0  # atno 6909 bound_to 6896
  145.9128  140.7900  142.9686 H   0  0  0  0  0  0  0  0  0  0  0  0  # atno 7974 bound_to 7965
  154.8971  140.0414  157.1872 H   0  0  0  0  0  0  0  0  0  0  0  0  # atno 8008 bound_to 7997
  154.8481  140.2925  155.5594 H   0  0  0  0  0  0  0  0  0  0  0  0  # atno 8009 bound_to 7997
  156.2995  140.2470  156.3436 H   0  0  0  0  0  0  0  0  0  0  0  0  # atno 8010 bound_to 7997
  139.5195  144.6486  151.5368 H   0  0  0  0  0  0  0  0  0  0  0  0  # atno 10167 bound_to 10162
  157.4523  130.8146  149.7801 H   0  0  0  0  0  0  0  0  0  0  0  0  # atno 10718 bound_to 10713
  153.5198  135.3600  155.2626 H   0  0  0  0  0  0  0  0  0  0  0  0  # atno 10763 bound_to 10752
  154.8736  135.4042  154.3273 H   0  0  0  0  0  0  0  0  0  0  0  0  # atno 10764 bound_to 10752
  153.3941  135.7073  153.6540 H   0  0  0  0  0  0  0  0  0  0  0  0  # atno 10765 bound_to 10752
  140.9842  133.7039  156.1737 H   0  0  0  0  0  0  0  0  0  0  0  0  # atno 11005 bound_to 11000
  144.6745  140.1853  143.7402 LP  0  0  0  0  0  0  0  0  0  0  0  0  # atno 17320 bound_to 7965
  145.8650  139.2242  143.1694 LP  0  0  0  0  0  0  0  0  0  0  0  0  # atno 17321 bound_to 7965
  140.6281  143.9128  150.6582 LP  0  0  0  0  0  0  0  0  0  0  0  0  # atno 17342 bound_to 10162
  140.2424  143.3654  152.1475 LP  0  0  0  0  0  0  0  0  0  0  0  0  # atno 17343 bound_to 10162
  155.9992  130.3890  150.2672 LP  0  0  0  0  0  0  0  0  0  0  0  0  # atno 17370 bound_to 10713
  157.0844  131.0152  151.3145 LP  0  0  0  0  0  0  0  0  0  0  0  0  # atno 17371 bound_to 10713
  140.7140  134.4431  157.5580 LP  0  0  0  0  0  0  0  0  0  0  0  0  # atno 17394 bound_to 11000
  139.8963  134.8662  156.2092 LP  0  0  0  0  0  0  0  0  0  0  0  0  # atno 17395 bound_to 11000

$$$$
