AV-unprocessed.smi:152|AV-procd|sdf|1247|dock6
  -GOLD-   2262018473D 1   1.00000     0.00000
 Structure written by MMmdl.
 58 61  0  0  0  0  0  0  0  0  2 V2000
  148.0035  132.0238  154.2035 C   0  0  0  0  0  0  0  0  0  0  0  0
  146.8270  131.3473  153.4879 C   0  0  0  0  0  0  0  0  0  0  0  0
  146.7786  131.7002  152.0477 N   0  3  1  0  0  0  0  0  0  0  0  0
  145.9371  130.8227  151.2004 C   0  0  0  0  0  0  0  0  0  0  0  0
  145.4372  131.6885  150.0357 C   0  0  0  0  0  0  0  0  0  0  0  0
  146.1559  133.0258  150.2072 C   0  0  0  0  0  0  0  0  0  0  0  0
  146.4393  133.1043  151.7119 C   0  0  1  0  0  0  0  0  0  0  0  0
  145.2423  133.6473  152.5377 C   0  0  0  0  0  0  0  0  0  0  0  0
  145.0127  135.0824  152.3429 N   0  0  0  0  0  0  0  0  0  0  0  0
  144.0863  135.4843  151.2910 C   0  0  0  0  0  0  0  0  0  0  0  0
  145.5192  136.0105  153.2093 C   0  0  0  0  0  0  0  0  0  0  0  0
  145.4803  135.7404  154.5423 N   0  0  0  0  0  0  0  0  0  0  0  0
  145.9507  136.6102  155.4386 C   0  0  0  0  0  0  0  0  0  0  0  0
  146.4991  137.8050  155.2280 N   0  0  0  0  0  0  0  0  0  0  0  0
  146.5479  138.0962  153.8979 C   0  0  0  0  0  0  0  0  0  0  0  0
  146.0914  137.2665  152.8302 C   0  0  0  0  0  0  0  0  0  0  0  0
  146.3221  137.9151  151.6199 N   0  0  0  0  0  0  0  0  0  0  0  0
  146.8778  139.0471  151.9506 C   0  0  0  0  0  0  0  0  0  0  0  0
  147.0397  139.2441  153.3013 N   0  0  0  0  0  0  0  0  0  0  0  0
  147.6203  140.4113  153.9481 C   0  0  0  0  0  0  0  0  0  0  0  0
  148.8455  140.0946  154.8423 C   0  0  0  0  0  0  0  0  0  0  0  0
  148.3777  139.4203  155.9975 O   0  0  0  0  0  0  0  0  0  0  0  0
  149.8231  139.1629  154.0981 C   0  0  0  0  0  0  0  0  0  0  0  0
  151.1363  138.9578  154.8742 C   0  0  0  0  0  0  0  0  0  0  0  0
  151.7356  140.2166  155.1558 O   0  0  0  0  0  0  0  0  0  0  0  0
  150.9284  141.0333  155.9952 C   0  0  0  0  0  0  0  0  0  0  0  0
  149.5995  141.3652  155.2932 C   0  0  0  0  0  0  0  0  0  0  0  0
  147.9897  131.7936  155.2691 H   0  0  0  0  0  0  0  0  0  0  0  0
  147.9582  133.1081  154.0985 H   0  0  0  0  0  0  0  0  0  0  0  0
  148.9621  131.6867  153.8080 H   0  0  0  0  0  0  0  0  0  0  0  0
  146.8865  130.2651  153.6134 H   0  0  0  0  0  0  0  0  0  0  0  0
  145.8994  131.6735  153.9600 H   0  0  0  0  0  0  0  0  0  0  0  0
  146.5254  129.9744  150.8489 H   0  0  0  0  0  0  0  0  0  0  0  0
  145.0889  130.4308  151.7636 H   0  0  0  0  0  0  0  0  0  0  0  0
  145.6380  131.2375  149.0634 H   0  0  0  0  0  0  0  0  0  0  0  0
  144.3589  131.8313  150.1171 H   0  0  0  0  0  0  0  0  0  0  0  0
  147.1023  132.9950  149.6656 H   0  0  0  0  0  0  0  0  0  0  0  0
  145.5918  133.8684  149.8095 H   0  0  0  0  0  0  0  0  0  0  0  0
  147.3132  133.7299  151.8974 H   0  0  0  0  0  0  0  0  0  0  0  0
  144.3484  133.0523  152.3536 H   0  0  0  0  0  0  0  0  0  0  0  0
  145.4448  133.5175  153.6006 H   0  0  0  0  0  0  0  0  0  0  0  0
  143.1770  135.9077  151.7186 H   0  0  0  0  0  0  0  0  0  0  0  0
  143.7961  134.6316  150.6766 H   0  0  0  0  0  0  0  0  0  0  0  0
  144.5462  136.2205  150.6314 H   0  0  0  0  0  0  0  0  0  0  0  0
  145.8759  136.3056  156.4721 H   0  0  0  0  0  0  0  0  0  0  0  0
  147.1780  139.7781  151.2138 H   0  0  0  0  0  0  0  0  0  0  0  0
  147.8912  141.1328  153.1757 H   0  0  0  0  0  0  0  0  0  0  0  0
  146.8383  140.8861  154.5426 H   0  0  0  0  0  0  0  0  0  0  0  0
  148.9308  138.6701  156.1526 H   0  0  0  0  0  0  0  0  0  0  0  0
  149.3540  138.1992  153.8949 H   0  0  0  0  0  0  0  0  0  0  0  0
  150.0632  139.5955  153.1258 H   0  0  0  0  0  0  0  0  0  0  0  0
  150.9656  138.4071  155.8006 H   0  0  0  0  0  0  0  0  0  0  0  0
  151.8312  138.3650  154.2793 H   0  0  0  0  0  0  0  0  0  0  0  0
  150.7554  140.5342  156.9498 H   0  0  0  0  0  0  0  0  0  0  0  0
  151.4717  141.9525  156.2153 H   0  0  0  0  0  0  0  0  0  0  0  0
  149.8138  141.9842  154.4210 H   0  0  0  0  0  0  0  0  0  0  0  0
  148.9808  141.9714  155.9560 H   0  0  0  0  0  0  0  0  0  0  0  0
  147.7192  131.5812  151.6997 H   0  0  0  0  0  0  0  0  0  0  0  0
  1  2  1  0  0  0  0
  1 28  1  0  0  0  0
  1 29  1  0  0  0  0
  1 30  1  0  0  0  0
  2  3  1  0  0  0  0
  2 31  1  0  0  0  0
  2 32  1  0  0  0  0
  3  7  1  0  0  0  0
  3  4  1  0  0  0  0
  3 58  1  0  0  0  0
  4  5  1  0  0  0  0
  4 33  1  0  0  0  0
  4 34  1  0  0  0  0
  5  6  1  0  0  0  0
  5 35  1  0  0  0  0
  5 36  1  0  0  0  0
  6  7  1  0  0  0  0
  6 37  1  0  0  0  0
  6 38  1  0  0  0  0
  7  8  1  0  0  0  0
  7 39  1  0  0  0  0
  8  9  1  0  0  0  0
  8 40  1  0  0  0  0
  8 41  1  0  0  0  0
  9 10  1  0  0  0  0
  9 11  1  0  0  0  0
 10 42  1  0  0  0  0
 10 43  1  0  0  0  0
 10 44  1  0  0  0  0
 11 16  1  0  0  0  0
 11 12  2  0  0  0  0
 12 13  1  0  0  0  0
 13 14  2  0  0  0  0
 13 45  1  0  0  0  0
 14 15  1  0  0  0  0
 15 19  1  0  0  0  0
 15 16  2  0  0  0  0
 16 17  1  0  0  0  0
 17 18  2  0  0  0  0
 18 19  1  0  0  0  0
 18 46  1  0  0  0  0
 19 20  1  0  0  0  0
 20 21  1  0  0  0  0
 20 47  1  0  0  0  0
 20 48  1  0  0  0  0
 21 27  1  0  0  0  0
 21 22  1  0  0  0  0
 21 23  1  0  0  0  0
 22 49  1  0  0  0  0
 23 24  1  0  0  0  0
 23 50  1  0  0  0  0
 23 51  1  0  0  0  0
 24 25  1  0  0  0  0
 24 52  1  0  0  0  0
 24 53  1  0  0  0  0
 25 26  1  0  0  0  0
 26 27  1  0  0  0  0
 26 54  1  0  0  0  0
 26 55  1  0  0  0  0
 27 56  1  0  0  0  0
 27 57  1  0  0  0  0
M  CHG  1   3   1
M  END
> <s_m_source_file>
AV-unprocessed.smi

> <i_m_source_file_index>
152

> <i_lp_mmshare_version>
43012

> <i_f3d_flags>
0

> <s_epik_input>
W0NIM11bQ0gyXU4xW0NIMl1bQ0gyXVtDSDJdW0NASF0xW0NIMl1OKFtDSDNdKWMobltjSF1uMiljKGMyMyluW2NIXW4zW0NIMl1DNChbT0hdKVtDSDJdW0NIMl1PW0NIMl1bQ0gyXTQ=

> <s_epik_cmdline>
J2VwaWtfcHl0aG9uJywgJy1waCcsICc3LjAnLCAnLXRuJywgJzgnLCAnLW1hJywgJzIwMCcsICctbWV0YWxfYmluZGluZycsICctaW1hZScsICc8aW5maWxlLm1hZT4nLCAnLW9tYWUnLCAnPG91dGZpbGUubWFlPic=

> <r_lp_tautomer_probability>
1

> <r_epik_Ionization_Penalty>
0.00152183

> <r_epik_Ionization_Penalty_Charging>
0.00112577

> <r_epik_Ionization_Penalty_Neutral>
0.000396066

> <r_epik_State_Penalty>
-0

> <r_epik_Charging_Adjusted_Penalty>
0.00112577

> <i_epik_Tot_Q>
1

> <i_epik_Tot_abs_Q>
1

> <r_epik_Metal_State_Penalty>
-0

> <b_epik_Metal_Only>
0

> <s_lp_Force_Field>
OPLS_2005

> <r_lp_Energy>
46.3876

> <b_lp_Chiralities_Consistent>
1

> <s_lp_Variant>
AV-unprocessed.smi:152-2

> <Gold.Version>
5.8.1

> <Gold.Id.Protein>
6NUR|6NUR_protein|mol2

> <Gold.PLP.Fitness>
46.4337

> <Gold.PLP.PLP>
-41.3375

> <Gold.PLP.part.hbond>
-2.0000

> <Gold.PLP.part.metal>
0.0000

> <Gold.PLP.part.buried>
-3.0972

> <Gold.PLP.part.nonpolar>
-37.2930

> <Gold.PLP.part.repulsive>
0.6989

> <Gold.PLP.ligand.clash>
0.0000

> <Gold.PLP.ligand.torsion>
1.3354

> <Gold.PLP.Chemscore.Hbond>
1.9120

> <Gold.PLP.Chemscore.CHOScore>
0.6259

> <Gold.PLP.Chemscore.Metal>
0.0000

> <Gold.Chemscore.Hbonds>
donor molecule, donor type, donor heavy atom, donor atom, acceptor molecule, acceptor atom, score
      L1  H     3    58       P1 10747  0.98
      P1  H  7989  7998       L1    25  0.76
      L1  C    18    46       P1  7957  0.65

> <Gold.PLP.Chemscore.Internal.Correction>
0.1533

> <Gold.Rescore>
     Score         DG    S(hbond)    S(metal)    S(lipo)     H(rot)  DE(clash)    DE(int)     intcor
     13.29     -14.79       1.20        0.00      99.16       2.46       0.17       1.34       ----

> <Gold.Chemscore.Fitness>
13.2865

> <Gold.Chemscore.DG>
-14.7948

> <Gold.Chemscore.ZeroCoef>
-5.4800

> <Gold.Chemscore.Hbond>
1.2018

> <Gold.Chemscore.Metal>
0.0000

> <Gold.Chemscore.Lipo>
99.1617

> <Gold.Chemscore.Internal_Hbond>
0.0000

> <Gold.Chemscore.DEClash>
0.1680

> <Gold.Chemscore.DEInternal>
1.3403

> <Gold.Chemscore.Rot>
2.4614

> <Gold.Chemscore.Internal.Correction>
   9.000000E+99

> <Gold.Chemscore.Hbonds>
donor molecule, donor type, donor heavy atom, donor atom, acceptor molecule, acceptor atom, score
      L1  H     3    58       P1 10747  0.87
      P1  H  7989  7998       L1    25  0.08

> <Gold.Chemscore.Hbond.Weighted>
-4.0141

> <Gold.Chemscore.Metal.Weighted>
-0.0000

> <Gold.Chemscore.Lipo.Weighted>
-11.6019

> <Gold.Chemscore.Internal_Hbond.Weighted>
0.0000

> <Gold.Chemscore.DEClash.Weighted>
0.1680

> <Gold.Chemscore.DEInternal.Weighted>
1.3403

> <Gold.Chemscore.Rot.Weighted>
6.3012

> <Gold.Chemscore.Internal.Correction.Weighted>
   9.000000E+99

> <Gold.Protein.RotatedTorsions>
[ 6907 6896 6895 6894 ] final   82.03 input  -60.11 | X-H torsion
[ 7974 7965 7964 7962 ] final -124.32 input  175.53 | X-H torsion
[ 8008 7997 7996 7995 ] final  103.87 input   59.86 | X-H torsion
[ 10167 10162 10161 10158 ] final  151.29 input  -65.29 | X-H torsion
[ 10718 10713 10712 10709 ] final  -61.54 input   66.30 | X-H torsion
[ 10763 10752 10751 10750 ] final  -50.65 input  -60.55 | X-H torsion
[ 11005 11000 10999 10996 ] final   13.39 input  -57.11 | X-H torsion

> <Gold.Protein.ActiveResidues>
 VAL166  LYS551  ARG553  GLY616  TRP617  ASP618  TYR619  PRO620  LYS621  CYS622 
 ASP623  PHE694  ASN695  SER759  ASP760  ASP761  ALA762  ILE779  LEU786  VAL792 
 PHE793  MET794  SER795  GLU796  ALA797  LYS798  CYS799  TRP800  GLU811  SER814 

> <Gold.Protein.RotatedAtoms>
  152.5287  134.3113  159.9114 H   0  0  0  0  0  0  0  0  0  0  0  0  # atno 6907 bound_to 6896
  151.3062  133.4094  159.2651 H   0  0  0  0  0  0  0  0  0  0  0  0  # atno 6908 bound_to 6896
  151.0077  134.9389  159.8047 H   0  0  0  0  0  0  0  0  0  0  0  0  # atno 6909 bound_to 6896
  145.0093  140.7891  143.4448 H   0  0  0  0  0  0  0  0  0  0  0  0  # atno 7974 bound_to 7965
  156.1523  140.3157  155.8668 H   0  0  0  0  0  0  0  0  0  0  0  0  # atno 8008 bound_to 7997
  155.3947  140.0496  157.3056 H   0  0  0  0  0  0  0  0  0  0  0  0  # atno 8009 bound_to 7997
  154.5069  140.2150  155.9244 H   0  0  0  0  0  0  0  0  0  0  0  0  # atno 8010 bound_to 7997
  139.4842  144.5453  151.7495 H   0  0  0  0  0  0  0  0  0  0  0  0  # atno 10167 bound_to 10162
  156.0915  130.4199  150.1008 H   0  0  0  0  0  0  0  0  0  0  0  0  # atno 10718 bound_to 10713
  154.1138  135.6545  153.4890 H   0  0  0  0  0  0  0  0  0  0  0  0  # atno 10763 bound_to 10752
  153.0248  135.5254  154.7166 H   0  0  0  0  0  0  0  0  0  0  0  0  # atno 10764 bound_to 10752
  154.6353  135.2981  155.0138 H   0  0  0  0  0  0  0  0  0  0  0  0  # atno 10765 bound_to 10752
  140.4812  134.0933  155.7751 H   0  0  0  0  0  0  0  0  0  0  0  0  # atno 11005 bound_to 11000
  145.2045  139.2235  143.5175 LP  0  0  0  0  0  0  0  0  0  0  0  0  # atno 17320 bound_to 7965
  146.3467  140.1869  142.8589 LP  0  0  0  0  0  0  0  0  0  0  0  0  # atno 17321 bound_to 7965
  140.4998  144.1185  150.5968 LP  0  0  0  0  0  0  0  0  0  0  0  0  # atno 17342 bound_to 10162
  140.4075  143.2673  151.9873 LP  0  0  0  0  0  0  0  0  0  0  0  0  # atno 17343 bound_to 10162
  156.9017  130.9622  151.3575 LP  0  0  0  0  0  0  0  0  0  0  0  0  # atno 17370 bound_to 10713
  157.6065  130.8551  149.8884 LP  0  0  0  0  0  0  0  0  0  0  0  0  # atno 17371 bound_to 10713
  141.1530  133.8934  157.2050 LP  0  0  0  0  0  0  0  0  0  0  0  0  # atno 17394 bound_to 11000
  139.9825  135.0093  156.9784 LP  0  0  0  0  0  0  0  0  0  0  0  0  # atno 17395 bound_to 11000

$$$$
