AV-unprocessed.smi:1247|AV-procd|sdf|5246|dock1
  -GOLD-   22720 4353D 1   1.00000     0.00000
 Structure written by MMmdl.
 47 48  0  0  0  0  0  0  0  0  2 V2000
  151.6752  141.8677  158.0824 C   0  0  0  0  0  0  0  0  0  0  0  0
  151.3956  141.0487  156.8571 C   0  0  0  0  0  0  0  0  0  0  0  0
  150.2079  141.0228  156.0699 C   0  0  0  0  0  0  0  0  0  0  0  0
  150.5112  140.1107  155.0961 C   0  0  0  0  0  0  0  0  0  0  0  0
  149.7445  139.6931  154.0538 N   0  0  0  0  0  0  0  0  0  0  0  0
  148.4977  139.1906  154.0765 C   0  0  0  0  0  0  0  0  0  0  0  0
  147.8260  138.9873  155.0881 O   0  0  0  0  0  0  0  0  0  0  0  0
  148.0621  138.9171  152.8382 N   0  0  0  0  0  0  0  0  0  0  0  0
  146.7542  138.3561  152.5202 C   0  0  0  0  0  0  0  0  0  0  0  0
  146.3905  137.2025  153.4740 C   0  0  0  0  0  0  0  0  0  0  0  0
  146.6511  135.8708  152.8734 N   0  3  1  0  0  0  0  0  0  0  0  0
  146.7966  134.8074  153.8953 C   0  0  0  0  0  0  0  0  0  0  0  0
  147.1313  133.4596  153.2287 C   0  0  1  0  0  0  0  0  0  0  0  0
  147.2169  132.3161  154.2456 C   0  0  0  0  0  0  0  0  0  0  0  0
  146.1121  133.1422  152.2875 O   0  0  0  0  0  0  0  0  0  0  0  0
  146.0097  134.1063  151.2454 C   0  0  1  0  0  0  0  0  0  0  0  0
  144.9533  133.6198  150.2474 C   0  0  0  0  0  0  0  0  0  0  0  0
  145.6463  135.4729  151.8570 C   0  0  0  0  0  0  0  0  0  0  0  0
  151.7926  139.6467  155.3047 N   0  0  0  0  0  0  0  0  0  0  0  0
  152.5731  138.6803  154.5562 C   0  0  0  0  0  0  0  0  0  0  0  0
  152.3323  140.2269  156.3977 N   0  0  0  0  0  0  0  0  0  0  0  0
  150.8695  142.5761  158.2758 H   0  0  0  0  0  0  0  0  0  0  0  0
  152.5982  142.4378  157.9726 H   0  0  0  0  0  0  0  0  0  0  0  0
  151.7777  141.2326  158.9626 H   0  0  0  0  0  0  0  0  0  0  0  0
  149.3000  141.5893  156.2116 H   0  0  0  0  0  0  0  0  0  0  0  0
  150.1797  139.7654  153.1459 H   0  0  0  0  0  0  0  0  0  0  0  0
  148.6764  139.1143  152.0613 H   0  0  0  0  0  0  0  0  0  0  0  0
  146.0068  139.1496  152.5477 H   0  0  0  0  0  0  0  0  0  0  0  0
  146.7822  137.9932  151.4925 H   0  0  0  0  0  0  0  0  0  0  0  0
  146.9910  137.3114  154.3785 H   0  0  0  0  0  0  0  0  0  0  0  0
  145.3475  137.2646  153.7887 H   0  0  0  0  0  0  0  0  0  0  0  0
  147.5881  135.0762  154.5961 H   0  0  0  0  0  0  0  0  0  0  0  0
  145.8724  134.7264  154.4704 H   0  0  0  0  0  0  0  0  0  0  0  0
  148.0891  133.5329  152.7099 H   0  0  0  0  0  0  0  0  0  0  0  0
  148.0001  132.5019  154.9810 H   0  0  0  0  0  0  0  0  0  0  0  0
  147.4442  131.3713  153.7509 H   0  0  0  0  0  0  0  0  0  0  0  0
  146.2757  132.1923  154.7821 H   0  0  0  0  0  0  0  0  0  0  0  0
  146.9680  134.1785  150.7275 H   0  0  0  0  0  0  0  0  0  0  0  0
  144.8420  134.3217  149.4205 H   0  0  0  0  0  0  0  0  0  0  0  0
  143.9796  133.5080  150.7256 H   0  0  0  0  0  0  0  0  0  0  0  0
  145.2308  132.6528  149.8271 H   0  0  0  0  0  0  0  0  0  0  0  0
  144.6589  135.4265  152.3200 H   0  0  0  0  0  0  0  0  0  0  0  0
  145.5913  136.2192  151.0652 H   0  0  0  0  0  0  0  0  0  0  0  0
  152.0586  138.3957  153.6384 H   0  0  0  0  0  0  0  0  0  0  0  0
  152.7312  137.7885  155.1634 H   0  0  0  0  0  0  0  0  0  0  0  0
  153.5409  139.1101  154.2959 H   0  0  0  0  0  0  0  0  0  0  0  0
  147.5423  135.9340  152.4023 H   0  0  0  0  0  0  0  0  0  0  0  0
  1  2  1  0  0  0  0
  1 22  1  0  0  0  0
  1 23  1  0  0  0  0
  1 24  1  0  0  0  0
  2 21  2  0  0  0  0
  2  3  1  0  0  0  0
  3  4  2  0  0  0  0
  3 25  1  0  0  0  0
  4  5  1  0  0  0  0
  4 19  1  0  0  0  0
  5  6  1  0  0  0  0
  5 26  1  0  0  0  0
  6  7  2  0  0  0  0
  6  8  1  0  0  0  0
  8  9  1  0  0  0  0
  8 27  1  0  0  0  0
  9 10  1  0  0  0  0
  9 28  1  0  0  0  0
  9 29  1  0  0  0  0
 10 11  1  0  0  0  0
 10 30  1  0  0  0  0
 10 31  1  0  0  0  0
 11 18  1  0  0  0  0
 11 12  1  0  0  0  0
 11 47  1  0  0  0  0
 12 13  1  0  0  0  0
 12 32  1  0  0  0  0
 12 33  1  0  0  0  0
 13 14  1  0  0  0  0
 13 15  1  0  0  0  0
 13 34  1  0  0  0  0
 14 35  1  0  0  0  0
 14 36  1  0  0  0  0
 14 37  1  0  0  0  0
 15 16  1  0  0  0  0
 16 17  1  0  0  0  0
 16 18  1  0  0  0  0
 16 38  1  0  0  0  0
 17 39  1  0  0  0  0
 17 40  1  0  0  0  0
 17 41  1  0  0  0  0
 18 42  1  0  0  0  0
 18 43  1  0  0  0  0
 19 20  1  0  0  0  0
 19 21  1  0  0  0  0
 20 44  1  0  0  0  0
 20 45  1  0  0  0  0
 20 46  1  0  0  0  0
M  CHG  1  11   1
M  END
> <s_m_source_file>
AV-unprocessed.smi

> <i_m_source_file_index>
1247

> <i_lp_mmshare_version>
43012

> <i_f3d_flags>
0

> <s_epik_input>
W0NIM11jMVtjSF1jKG4objEpW0NIM10pW05IXUMoPU8pW05IXVtDSDJdW0NIMl1OMltDSDJdW0NAQEhdKFtDSDNdKU9bQ0BASF0oW0NIM10pW0NIMl0y

> <s_epik_cmdline>
J2VwaWtfcHl0aG9uJywgJy1waCcsICc3LjAnLCAnLXRuJywgJzgnLCAnLW1hJywgJzIwMCcsICctbWV0YWxfYmluZGluZycsICctaW1hZScsICc8aW5maWxlLm1hZT4nLCAnLW9tYWUnLCAnPG91dGZpbGUubWFlPic=

> <r_lp_tautomer_probability>
1

> <r_epik_Ionization_Penalty>
0.663902

> <r_epik_Ionization_Penalty_Charging>
0.663826

> <r_epik_Ionization_Penalty_Neutral>
7.65444e-05

> <r_epik_State_Penalty>
0.683414

> <r_epik_Charging_Adjusted_Penalty>
1.34724

> <i_epik_Tot_Q>
1

> <i_epik_Tot_abs_Q>
1

> <r_epik_Metal_State_Penalty>
0.683419

> <b_epik_Metal_Only>
0

> <s_lp_Force_Field>
OPLS_2005

> <r_lp_Energy>
16.001

> <b_lp_Chiralities_Consistent>
1

> <s_lp_Variant>
AV-unprocessed.smi:1247-4

> <Gold.Version>
5.8.1

> <Gold.Id.Protein>
6NUR|6NUR_protein|mol2

> <Gold.PLP.Fitness>
47.9594

> <Gold.PLP.PLP>
-35.5202

> <Gold.PLP.part.hbond>
-5.0000

> <Gold.PLP.part.metal>
0.0000

> <Gold.PLP.part.buried>
-3.6903

> <Gold.PLP.part.nonpolar>
-27.2479

> <Gold.PLP.part.repulsive>
0.3549

> <Gold.PLP.ligand.clash>
0.0000

> <Gold.PLP.ligand.torsion>
1.0262

> <Gold.PLP.Chemscore.Hbond>
4.8160

> <Gold.PLP.Chemscore.CHOScore>
0.0000

> <Gold.PLP.Chemscore.Metal>
0.0000

> <Gold.Chemscore.Hbonds>
donor molecule, donor type, donor heavy atom, donor atom, acceptor molecule, acceptor atom, score
      L1  H     5    26       P1  7957  0.69
      L1  H     8    27       P1  7957  1.00
      L1  H    11    47       P1  7948  1.98
      P1  H  7997  8009       L1    21  1.00

> <Gold.PLP.Chemscore.Internal.Correction>
0.0437

> <Gold.Rescore>
     Score         DG    S(hbond)    S(metal)    S(lipo)     H(rot)  DE(clash)    DE(int)     intcor
     19.58     -21.90       3.81        0.00      65.00       1.52       0.02       2.30       ----

> <Gold.Chemscore.Fitness>
19.5824

> <Gold.Chemscore.DG>
-21.9021

> <Gold.Chemscore.ZeroCoef>
-5.4800

> <Gold.Chemscore.Hbond>
3.8065

> <Gold.Chemscore.Metal>
0.0000

> <Gold.Chemscore.Lipo>
65.0016

> <Gold.Chemscore.Internal_Hbond>
0.0000

> <Gold.Chemscore.DEClash>
0.0241

> <Gold.Chemscore.DEInternal>
2.2956

> <Gold.Chemscore.Rot>
1.5221

> <Gold.Chemscore.Internal.Correction>
   9.000000E+99

> <Gold.Chemscore.Hbonds>
donor molecule, donor type, donor heavy atom, donor atom, acceptor molecule, acceptor atom, score
      L1  H     5    26       P1  7957  0.66
      L1  H     8    27       P1  7957  0.94
      L1  H    11    47       P1  7948  0.92
      P1  H  7997  8009       L1    21  0.74

> <Gold.Chemscore.Hbond.Weighted>
-12.7136

> <Gold.Chemscore.Metal.Weighted>
-0.0000

> <Gold.Chemscore.Lipo.Weighted>
-7.6052

> <Gold.Chemscore.Internal_Hbond.Weighted>
0.0000

> <Gold.Chemscore.DEClash.Weighted>
0.0241

> <Gold.Chemscore.DEInternal.Weighted>
2.2956

> <Gold.Chemscore.Rot.Weighted>
3.8967

> <Gold.Chemscore.Internal.Correction.Weighted>
   9.000000E+99

> <Gold.Protein.RotatedTorsions>
[ 6907 6896 6895 6894 ] final   -4.68 input  -60.11 | X-H torsion
[ 7974 7965 7964 7962 ] final  121.19 input  175.53 | X-H torsion
[ 8008 7997 7996 7995 ] final -162.86 input   59.86 | X-H torsion
[ 10167 10162 10161 10158 ] final -169.60 input  -65.29 | X-H torsion
[ 10718 10713 10712 10709 ] final   48.45 input   66.30 | X-H torsion
[ 10763 10752 10751 10750 ] final  -13.97 input  -60.55 | X-H torsion
[ 11005 11000 10999 10996 ] final   67.09 input  -57.11 | X-H torsion

> <Gold.Protein.ActiveResidues>
 VAL166  LYS551  ARG553  GLY616  TRP617  ASP618  TYR619  PRO620  LYS621  CYS622 
 ASP623  PHE694  ASN695  SER759  ASP760  ASP761  ALA762  ILE779  LEU786  VAL792 
 PHE793  MET794  SER795  GLU796  ALA797  LYS798  CYS799  TRP800  GLU811  SER814 

> <Gold.Protein.RotatedAtoms>
  151.4937  135.1059  159.9810 H   0  0  0  0  0  0  0  0  0  0  0  0  # atno 6907 bound_to 6896
  152.4730  133.8070  159.6993 H   0  0  0  0  0  0  0  0  0  0  0  0  # atno 6908 bound_to 6896
  150.8751  133.7388  159.2975 H   0  0  0  0  0  0  0  0  0  0  0  0  # atno 6909 bound_to 6896
  145.1222  139.3381  143.4708 H   0  0  0  0  0  0  0  0  0  0  0  0  # atno 7974 bound_to 7965
  155.8129  140.0908  157.1893 H   0  0  0  0  0  0  0  0  0  0  0  0  # atno 8008 bound_to 7997
  154.3979  140.1451  156.3468 H   0  0  0  0  0  0  0  0  0  0  0  0  # atno 8009 bound_to 7997
  155.8346  140.3441  155.5596 H   0  0  0  0  0  0  0  0  0  0  0  0  # atno 8010 bound_to 7997
  139.5913  144.1208  152.1637 H   0  0  0  0  0  0  0  0  0  0  0  0  # atno 10167 bound_to 10162
  157.4688  130.8242  149.7965 H   0  0  0  0  0  0  0  0  0  0  0  0  # atno 10718 bound_to 10713
  153.5213  135.7015  153.5730 H   0  0  0  0  0  0  0  0  0  0  0  0  # atno 10763 bound_to 10752
  153.3778  135.3928  155.1835 H   0  0  0  0  0  0  0  0  0  0  0  0  # atno 10764 bound_to 10752
  154.8694  135.3827  154.4702 H   0  0  0  0  0  0  0  0  0  0  0  0  # atno 10765 bound_to 10752
  139.9792  134.6772  156.0295 H   0  0  0  0  0  0  0  0  0  0  0  0  # atno 11005 bound_to 11000
  146.3520  140.1186  142.8601 LP  0  0  0  0  0  0  0  0  0  0  0  0  # atno 17320 bound_to 7965
  145.0727  140.9167  143.4872 LP  0  0  0  0  0  0  0  0  0  0  0  0  # atno 17321 bound_to 7965
  140.0782  144.5722  150.7141 LP  0  0  0  0  0  0  0  0  0  0  0  0  # atno 17342 bound_to 10162
  140.7175  143.2558  151.4386 LP  0  0  0  0  0  0  0  0  0  0  0  0  # atno 17343 bound_to 10162
  156.0063  130.3854  150.2419 LP  0  0  0  0  0  0  0  0  0  0  0  0  # atno 17370 bound_to 10713
  157.0600  131.0087  151.3225 LP  0  0  0  0  0  0  0  0  0  0  0  0  # atno 17371 bound_to 10713
  141.1466  133.6555  156.3886 LP  0  0  0  0  0  0  0  0  0  0  0  0  # atno 17394 bound_to 11000
  140.5132  134.6376  157.5291 LP  0  0  0  0  0  0  0  0  0  0  0  0  # atno 17395 bound_to 11000

$$$$
