AV-unprocessed.smi:618|AV-procd|sdf|3084|dock7
  -GOLD-   22720 0 03D 1   1.00000     0.00000
 Structure written by MMmdl.
 40 42  0  0  0  0  0  0  0  0  1 V2000
  150.2061  135.9020  156.2724 O   0  0  0  0  0  0  0  0  0  0  0  0
  149.6687  135.9069  155.1649 C   0  0  0  0  0  0  0  0  0  0  0  0
  149.1886  137.0136  154.5817 N   0  0  0  0  0  0  0  0  0  0  0  0
  149.2341  138.3516  155.1616 C   0  0  0  0  0  0  0  0  0  0  0  0
  150.4945  139.1250  154.7181 C   0  0  2  0  0  0  0  0  0  0  0  0
  151.5861  139.1684  155.8136 C   0  0  0  0  0  0  0  0  0  0  0  0
  151.2288  140.1102  156.8582 N   0  0  0  0  0  0  0  0  0  0  0  0
  152.2051  140.3244  157.9012 C   0  0  0  0  0  0  0  0  0  0  0  0
  151.7520  141.6248  158.5873 C   0  0  0  0  0  0  0  0  0  0  0  0
  150.8429  142.3129  157.5453 C   0  0  0  0  0  0  0  0  0  0  0  0
  151.0030  141.4207  156.3127 C   0  0  2  0  0  0  0  0  0  0  0  0
  149.8475  141.3964  155.3038 C   0  0  0  0  0  0  0  0  0  0  0  0
  150.1665  140.4526  154.2762 O   0  0  0  0  0  0  0  0  0  0  0  0
  149.5059  134.8309  154.3763 N   0  0  0  0  0  0  0  0  0  0  0  0
  149.8507  133.4805  154.6520 C   0  0  0  0  0  0  0  0  0  0  0  0
  149.2722  132.4700  153.8567 C   0  0  0  0  0  0  0  0  0  0  0  0
  149.5848  131.1236  154.1249 C   0  0  0  0  0  0  0  0  0  0  0  0
  150.4598  130.8388  155.1909 C   0  0  0  0  0  0  0  0  0  0  0  0
  151.0092  131.7920  155.9726 N   0  0  0  0  0  0  0  0  0  0  0  0
  150.7074  133.0815  155.7079 C   0  0  0  0  0  0  0  0  0  0  0  0
  148.7706  136.9289  153.6667 H   0  0  0  0  0  0  0  0  0  0  0  0
  148.3287  138.8821  154.8683 H   0  0  0  0  0  0  0  0  0  0  0  0
  149.2011  138.2824  156.2502 H   0  0  0  0  0  0  0  0  0  0  0  0
  150.9164  138.6055  153.8571 H   0  0  0  0  0  0  0  0  0  0  0  0
  151.7416  138.1758  156.2373 H   0  0  0  0  0  0  0  0  0  0  0  0
  152.5336  139.4664  155.3623 H   0  0  0  0  0  0  0  0  0  0  0  0
  152.2509  139.4797  158.5890 H   0  0  0  0  0  0  0  0  0  0  0  0
  153.1965  140.4618  157.4665 H   0  0  0  0  0  0  0  0  0  0  0  0
  151.1918  141.4124  159.4987 H   0  0  0  0  0  0  0  0  0  0  0  0
  152.6076  142.2449  158.8565 H   0  0  0  0  0  0  0  0  0  0  0  0
  149.8083  142.3122  157.8914 H   0  0  0  0  0  0  0  0  0  0  0  0
  151.1346  143.3447  157.3475 H   0  0  0  0  0  0  0  0  0  0  0  0
  151.9039  141.7426  155.7860 H   0  0  0  0  0  0  0  0  0  0  0  0
  148.9069  141.1295  155.7866 H   0  0  0  0  0  0  0  0  0  0  0  0
  149.7094  142.3801  154.8554 H   0  0  0  0  0  0  0  0  0  0  0  0
  149.1378  135.0065  153.4528 H   0  0  0  0  0  0  0  0  0  0  0  0
  148.6009  132.7203  153.0483 H   0  0  0  0  0  0  0  0  0  0  0  0
  149.1632  130.3277  153.5290 H   0  0  0  0  0  0  0  0  0  0  0  0
  150.7211  129.8175  155.4258 H   0  0  0  0  0  0  0  0  0  0  0  0
  151.1536  133.7969  156.3811 H   0  0  0  0  0  0  0  0  0  0  0  0
  1  2  2  0  0  0  0
  2  3  1  0  0  0  0
  2 14  1  0  0  0  0
  3  4  1  0  0  0  0
  3 21  1  0  0  0  0
  4  5  1  0  0  0  0
  4 22  1  0  0  0  0
  4 23  1  0  0  0  0
  5 13  1  0  0  0  0
  5  6  1  0  0  0  0
  5 24  1  0  0  0  0
  6  7  1  0  0  0  0
  6 25  1  0  0  0  0
  6 26  1  0  0  0  0
  7 11  1  0  0  0  0
  7  8  1  0  0  0  0
  8  9  1  0  0  0  0
  8 27  1  0  0  0  0
  8 28  1  0  0  0  0
  9 10  1  0  0  0  0
  9 29  1  0  0  0  0
  9 30  1  0  0  0  0
 10 11  1  0  0  0  0
 10 31  1  0  0  0  0
 10 32  1  0  0  0  0
 11 12  1  0  0  0  0
 11 33  1  0  0  0  0
 12 13  1  0  0  0  0
 12 34  1  0  0  0  0
 12 35  1  0  0  0  0
 14 15  1  0  0  0  0
 14 36  1  0  0  0  0
 15 20  1  0  0  0  0
 15 16  2  0  0  0  0
 16 17  1  0  0  0  0
 16 37  1  0  0  0  0
 17 18  2  0  0  0  0
 17 38  1  0  0  0  0
 18 19  1  0  0  0  0
 18 39  1  0  0  0  0
 19 20  2  0  0  0  0
 20 40  1  0  0  0  0
M  END
> <s_m_source_file>
AV-unprocessed.smi

> <i_m_source_file_index>
618

> <i_lp_mmshare_version>
43012

> <i_f3d_flags>
0

> <s_epik_input>
W2NIXTFuW2NIXVtjSF1bY0hdYzFbTkhdQyg9TylbTkhdW0NIMl1bQ0BIXShbQ0gyXTIpT1tDSDJdW0NAQEhdKE4yMylbQ0gyXVtDSDJdW0NIMl0z

> <s_epik_cmdline>
J2VwaWtfcHl0aG9uJywgJy1waCcsICc3LjAnLCAnLXRuJywgJzgnLCAnLW1hJywgJzIwMCcsICctbWV0YWxfYmluZGluZycsICctaW1hZScsICc8aW5maWxlLm1hZT4nLCAnLW9tYWUnLCAnPG91dGZpbGUubWFlPic=

> <r_epik_Ionization_Penalty>
1.07277

> <r_epik_Ionization_Penalty_Charging>
0

> <r_epik_Ionization_Penalty_Neutral>
1.07277

> <r_epik_State_Penalty>
1.13623

> <r_epik_Charging_Adjusted_Penalty>
1.13623

> <i_epik_Tot_Q>
0

> <i_epik_Tot_abs_Q>
0

> <r_epik_Metal_State_Penalty>
1.13277

> <b_epik_Metal_Only>
0

> <s_lp_Force_Field>
OPLS_2005

> <r_lp_Energy>
52.4513

> <b_lp_Chiralities_Consistent>
1

> <s_lp_Variant>
AV-unprocessed.smi:618-11

> <Gold.Version>
5.8.1

> <Gold.Id.Protein>
6NUR|6NUR_protein|mol2

> <Gold.PLP.Fitness>
42.2759

> <Gold.PLP.PLP>
-35.7700

> <Gold.PLP.part.hbond>
-3.0000

> <Gold.PLP.part.metal>
0.0000

> <Gold.PLP.part.buried>
-5.8626

> <Gold.PLP.part.nonpolar>
-27.6971

> <Gold.PLP.part.repulsive>
0.1839

> <Gold.PLP.ligand.clash>
0.0000

> <Gold.PLP.ligand.torsion>
0.8789

> <Gold.PLP.Chemscore.Hbond>
2.7520

> <Gold.PLP.Chemscore.CHOScore>
0.0000

> <Gold.PLP.Chemscore.Metal>
0.0000

> <Gold.Chemscore.Hbonds>
donor molecule, donor type, donor heavy atom, donor atom, acceptor molecule, acceptor atom, score
      L1  H     3    21       P1  7948  0.91
      L1  H    14    36       P1  7948  0.89
      P1  H  7989  7998       L1    13  0.88

> <Gold.PLP.Chemscore.Internal.Correction>
0.0077

> <Gold.Rescore>
     Score         DG    S(hbond)    S(metal)    S(lipo)     H(rot)  DE(clash)    DE(int)     intcor
     16.89     -19.01       2.38        0.00      75.02       1.25       0.01       2.11       ----

> <Gold.Chemscore.Fitness>
16.8857

> <Gold.Chemscore.DG>
-19.0071

> <Gold.Chemscore.ZeroCoef>
-5.4800

> <Gold.Chemscore.Hbond>
2.3770

> <Gold.Chemscore.Metal>
0.0000

> <Gold.Chemscore.Lipo>
75.0248

> <Gold.Chemscore.Internal_Hbond>
0.0000

> <Gold.Chemscore.DEClash>
0.0098

> <Gold.Chemscore.DEInternal>
2.1117

> <Gold.Chemscore.Rot>
1.2461

> <Gold.Chemscore.Internal.Correction>
   9.000000E+99

> <Gold.Chemscore.Hbonds>
donor molecule, donor type, donor heavy atom, donor atom, acceptor molecule, acceptor atom, score
      L1  H     3    21       P1  7948  0.88
      L1  H    14    36       P1  7948  0.17
      P1  H  7989  7998       L1    13  0.20

> <Gold.Chemscore.Hbond.Weighted>
-7.9393

> <Gold.Chemscore.Metal.Weighted>
-0.0000

> <Gold.Chemscore.Lipo.Weighted>
-8.7779

> <Gold.Chemscore.Internal_Hbond.Weighted>
0.0000

> <Gold.Chemscore.DEClash.Weighted>
0.0098

> <Gold.Chemscore.DEInternal.Weighted>
2.1117

> <Gold.Chemscore.Rot.Weighted>
3.1901

> <Gold.Chemscore.Internal.Correction.Weighted>
   9.000000E+99

> <Gold.Protein.RotatedTorsions>
[ 6907 6896 6895 6894 ] final  -68.98 input  -60.11 | X-H torsion
[ 7974 7965 7964 7962 ] final -161.20 input  175.53 | X-H torsion
[ 8008 7997 7996 7995 ] final -174.86 input   59.86 | X-H torsion
[ 10167 10162 10161 10158 ] final  161.04 input  -65.29 | X-H torsion
[ 10718 10713 10712 10709 ] final  149.58 input   66.30 | X-H torsion
[ 10763 10752 10751 10750 ] final   57.13 input  -60.55 | X-H torsion
[ 11005 11000 10999 10996 ] final   90.20 input  -57.11 | X-H torsion

> <Gold.Protein.ActiveResidues>
 VAL166  LYS551  ARG553  GLY616  TRP617  ASP618  TYR619  PRO620  LYS621  CYS622 
 ASP623  PHE694  ASN695  SER759  ASP760  ASP761  ALA762  ILE779  LEU786  VAL792 
 PHE793  MET794  SER795  GLU796  ALA797  LYS798  CYS799  TRP800  GLU811  SER814 

> <Gold.Protein.RotatedAtoms>
  150.7328  134.5662  159.5866 H   0  0  0  0  0  0  0  0  0  0  0  0  # atno 6907 bound_to 6896
  152.3113  134.7491  160.0345 H   0  0  0  0  0  0  0  0  0  0  0  0  # atno 6908 bound_to 6896
  151.8038  133.3337  159.3571 H   0  0  0  0  0  0  0  0  0  0  0  0  # atno 6909 bound_to 6896
  144.7399  140.3431  143.6131 H   0  0  0  0  0  0  0  0  0  0  0  0  # atno 7974 bound_to 7965
  155.9754  140.1171  157.0774 H   0  0  0  0  0  0  0  0  0  0  0  0  # atno 8008 bound_to 7997
  154.4168  140.1155  156.5431 H   0  0  0  0  0  0  0  0  0  0  0  0  # atno 8009 bound_to 7997
  155.6541  140.3473  155.4761 H   0  0  0  0  0  0  0  0  0  0  0  0  # atno 8010 bound_to 7997
  139.4845  144.4575  151.8749 H   0  0  0  0  0  0  0  0  0  0  0  0  # atno 10167 bound_to 10162
  157.2943  131.0859  151.1438 H   0  0  0  0  0  0  0  0  0  0  0  0  # atno 10718 bound_to 10713
  152.9844  135.5652  154.5340 H   0  0  0  0  0  0  0  0  0  0  0  0  # atno 10763 bound_to 10752
  154.4807  135.2788  155.1575 H   0  0  0  0  0  0  0  0  0  0  0  0  # atno 10764 bound_to 10752
  154.3085  135.6293  153.5508 H   0  0  0  0  0  0  0  0  0  0  0  0  # atno 10765 bound_to 10752
  139.8860  134.8599  156.3250 H   0  0  0  0  0  0  0  0  0  0  0  0  # atno 11005 bound_to 11000
  145.7354  139.1748  143.2406 LP  0  0  0  0  0  0  0  0  0  0  0  0  # atno 17320 bound_to 7965
  146.1175  140.7351  142.9473 LP  0  0  0  0  0  0  0  0  0  0  0  0  # atno 17321 bound_to 7965
  140.4035  144.2462  150.5892 LP  0  0  0  0  0  0  0  0  0  0  0  0  # atno 17342 bound_to 10162
  140.5034  143.2311  151.8644 LP  0  0  0  0  0  0  0  0  0  0  0  0  # atno 17343 bound_to 10162
  157.2822  130.6755  149.6072 LP  0  0  0  0  0  0  0  0  0  0  0  0  # atno 17370 bound_to 10713
  155.9668  130.4446  150.5469 LP  0  0  0  0  0  0  0  0  0  0  0  0  # atno 17371 bound_to 10713
  140.9761  133.7297  156.0604 LP  0  0  0  0  0  0  0  0  0  0  0  0  # atno 17394 bound_to 11000
  140.7809  134.3726  157.5487 LP  0  0  0  0  0  0  0  0  0  0  0  0  # atno 17395 bound_to 11000

$$$$
