AV-unprocessed.smi:1459|AV-procd|sdf|5925|dock6
  -GOLD-   22720 6 03D 1   1.00000     0.00000
 Structure written by MMmdl.
 34 35  0  0  0  0  0  0  0  0  1 V2000
  146.5332  134.0061  162.5106 C   0  0  0  0  0  0  0  0  0  0  0  0
  147.1282  134.9887  161.5616 C   0  0  0  0  0  0  0  0  0  0  0  0
  147.6189  134.8753  160.2912 C   0  0  0  0  0  0  0  0  0  0  0  0
  148.0261  136.2012  159.9866 C   0  0  0  0  0  0  0  0  0  0  0  0
  148.6060  136.5131  158.7307 N   0  0  0  0  0  0  0  0  0  0  0  0
  149.2346  135.6761  157.8882 C   0  0  0  0  0  0  0  0  0  0  0  0
  149.4165  134.4748  158.0880 O   0  0  0  0  0  0  0  0  0  0  0  0
  149.6518  136.3198  156.7877 N   0  0  0  0  0  0  0  0  0  0  0  0
  150.3943  135.7199  155.6814 C   0  0  1  0  0  0  0  0  0  0  0  0
  149.4528  134.7795  154.9133 C   0  0  0  0  0  0  0  0  0  0  0  0
  150.9800  136.8291  154.7829 C   0  0  2  0  0  0  0  0  0  0  0  0
  152.0201  137.7182  155.4680 C   0  0  0  0  0  0  0  0  0  0  0  0
  151.9268  138.9878  154.6544 C   0  0  0  0  0  0  0  0  0  0  0  0
  150.4268  139.0770  154.3976 C   0  0  0  0  0  0  0  0  0  0  0  0
  149.9579  137.7321  154.3614 O   0  0  0  0  0  0  0  0  0  0  0  0
  147.8046  137.0474  160.9809 N   0  0  0  0  0  0  0  0  0  0  0  0
  147.2278  136.2745  161.9954 O   0  0  0  0  0  0  0  0  0  0  0  0
  146.5166  133.0063  162.0765 H   0  0  0  0  0  0  0  0  0  0  0  0
  145.5094  134.2833  162.7624 H   0  0  0  0  0  0  0  0  0  0  0  0
  147.1100  133.9640  163.4346 H   0  0  0  0  0  0  0  0  0  0  0  0
  147.6754  133.9860  159.6811 H   0  0  0  0  0  0  0  0  0  0  0  0
  148.5375  137.4780  158.4439 H   0  0  0  0  0  0  0  0  0  0  0  0
  149.4574  137.3075  156.7158 H   0  0  0  0  0  0  0  0  0  0  0  0
  151.2158  135.1163  156.0716 H   0  0  0  0  0  0  0  0  0  0  0  0
  149.9769  134.2588  154.1119 H   0  0  0  0  0  0  0  0  0  0  0  0
  148.6210  135.3260  154.4677 H   0  0  0  0  0  0  0  0  0  0  0  0
  149.0357  134.0185  155.5738 H   0  0  0  0  0  0  0  0  0  0  0  0
  151.4218  136.3933  153.8851 H   0  0  0  0  0  0  0  0  0  0  0  0
  151.7355  137.9180  156.5022 H   0  0  0  0  0  0  0  0  0  0  0  0
  153.0202  137.2841  155.4655 H   0  0  0  0  0  0  0  0  0  0  0  0
  152.3249  139.8616  155.1708 H   0  0  0  0  0  0  0  0  0  0  0  0
  152.4644  138.8693  153.7127 H   0  0  0  0  0  0  0  0  0  0  0  0
  149.9291  139.5935  155.2193 H   0  0  0  0  0  0  0  0  0  0  0  0
  150.1936  139.6061  153.4734 H   0  0  0  0  0  0  0  0  0  0  0  0
  1  2  1  0  0  0  0
  1 18  1  0  0  0  0
  1 19  1  0  0  0  0
  1 20  1  0  0  0  0
  2 17  1  0  0  0  0
  2  3  2  0  0  0  0
  3  4  1  0  0  0  0
  3 21  1  0  0  0  0
  4  5  1  0  0  0  0
  4 16  2  0  0  0  0
  5  6  1  0  0  0  0
  5 22  1  0  0  0  0
  6  7  2  0  0  0  0
  6  8  1  0  0  0  0
  8  9  1  0  0  0  0
  8 23  1  0  0  0  0
  9 10  1  0  0  0  0
  9 11  1  0  0  0  0
  9 24  1  0  0  0  0
 10 25  1  0  0  0  0
 10 26  1  0  0  0  0
 10 27  1  0  0  0  0
 11 15  1  0  0  0  0
 11 12  1  0  0  0  0
 11 28  1  0  0  0  0
 12 13  1  0  0  0  0
 12 29  1  0  0  0  0
 12 30  1  0  0  0  0
 13 14  1  0  0  0  0
 13 31  1  0  0  0  0
 13 32  1  0  0  0  0
 14 15  1  0  0  0  0
 14 33  1  0  0  0  0
 14 34  1  0  0  0  0
 16 17  1  0  0  0  0
M  END
> <s_m_source_file>
AV-unprocessed.smi

> <i_m_source_file_index>
1459

> <i_lp_mmshare_version>
43012

> <i_f3d_flags>
0

> <s_epik_input>
W0NIM11jMVtjSF1jKG5vMSlbTkhdQyg9TylbTkhdW0NASF0oW0NIM10pW0NAQEhdMltDSDJdW0NIMl1bQ0gyXU8y

> <s_epik_cmdline>
J2VwaWtfcHl0aG9uJywgJy1waCcsICc3LjAnLCAnLXRuJywgJzgnLCAnLW1hJywgJzIwMCcsICctbWV0YWxfYmluZGluZycsICctaW1hZScsICc8aW5maWxlLm1hZT4nLCAnLW9tYWUnLCAnPG91dGZpbGUubWFlPic=

> <r_lp_tautomer_probability>
1

> <r_epik_Ionization_Penalty>
2.20869e-05

> <r_epik_Ionization_Penalty_Charging>
0

> <r_epik_Ionization_Penalty_Neutral>
2.20869e-05

> <r_epik_State_Penalty>
-0

> <r_epik_Charging_Adjusted_Penalty>
0

> <i_epik_Tot_Q>
0

> <i_epik_Tot_abs_Q>
0

> <r_epik_Metal_State_Penalty>
-0

> <b_epik_Metal_Only>
0

> <s_lp_Force_Field>
OPLS_2005

> <r_lp_Energy>
15.9423

> <b_lp_Chiralities_Consistent>
1

> <s_lp_Variant>
AV-unprocessed.smi:1459-2

> <Gold.Version>
5.8.1

> <Gold.Id.Protein>
6NUR|6NUR_protein|mol2

> <Gold.PLP.Fitness>
35.7181

> <Gold.PLP.PLP>
-27.7928

> <Gold.PLP.part.hbond>
-3.0000

> <Gold.PLP.part.metal>
0.0000

> <Gold.PLP.part.buried>
-3.2393

> <Gold.PLP.part.nonpolar>
-22.0982

> <Gold.PLP.part.repulsive>
0.3958

> <Gold.PLP.ligand.clash>
0.0000

> <Gold.PLP.ligand.torsion>
0.2787

> <Gold.PLP.Chemscore.Hbond>
2.8240

> <Gold.PLP.Chemscore.CHOScore>
0.0000

> <Gold.PLP.Chemscore.Metal>
0.0000

> <Gold.Chemscore.Hbonds>
donor molecule, donor type, donor heavy atom, donor atom, acceptor molecule, acceptor atom, score
      P1  H  6896  6907       L1     7  1.00
      P1  H  6931  6943       L1    16  0.98
      P1  H  6934  6947       L1    16  0.79

> <Gold.PLP.Chemscore.Internal.Correction>
0.0107

> <Gold.Rescore>
     Score         DG    S(hbond)    S(metal)    S(lipo)     H(rot)  DE(clash)    DE(int)     intcor
     16.13     -17.72       2.61        0.00      58.14       1.28       0.01       1.58       ----

> <Gold.Chemscore.Fitness>
16.1294

> <Gold.Chemscore.DG>
-17.7171

> <Gold.Chemscore.ZeroCoef>
-5.4800

> <Gold.Chemscore.Hbond>
2.6064

> <Gold.Chemscore.Metal>
0.0000

> <Gold.Chemscore.Lipo>
58.1395

> <Gold.Chemscore.Internal_Hbond>
0.0000

> <Gold.Chemscore.DEClash>
0.0082

> <Gold.Chemscore.DEInternal>
1.5795

> <Gold.Chemscore.Rot>
1.2776

> <Gold.Chemscore.Internal.Correction>
   9.000000E+99

> <Gold.Chemscore.Hbonds>
donor molecule, donor type, donor heavy atom, donor atom, acceptor molecule, acceptor atom, score
      P1  H  6896  6907       L1     7  0.95
      P1  H  6931  6943       L1    16  0.46
      P1  H  6934  6947       L1    16  0.67

> <Gold.Chemscore.Hbond.Weighted>
-8.7055

> <Gold.Chemscore.Metal.Weighted>
-0.0000

> <Gold.Chemscore.Lipo.Weighted>
-6.8023

> <Gold.Chemscore.Internal_Hbond.Weighted>
0.0000

> <Gold.Chemscore.DEClash.Weighted>
0.0082

> <Gold.Chemscore.DEInternal.Weighted>
1.5795

> <Gold.Chemscore.Rot.Weighted>
3.2707

> <Gold.Chemscore.Internal.Correction.Weighted>
   9.000000E+99

> <Gold.Protein.RotatedTorsions>
[ 6907 6896 6895 6894 ] final -109.80 input  -60.11 | X-H torsion
[ 7974 7965 7964 7962 ] final -109.51 input  175.53 | X-H torsion
[ 8008 7997 7996 7995 ] final -102.96 input   59.86 | X-H torsion
[ 10167 10162 10161 10158 ] final  148.61 input  -65.29 | X-H torsion
[ 10718 10713 10712 10709 ] final   -5.52 input   66.30 | X-H torsion
[ 10763 10752 10751 10750 ] final  -84.21 input  -60.55 | X-H torsion
[ 11005 11000 10999 10996 ] final  -60.11 input  -57.11 | X-H torsion

> <Gold.Protein.ActiveResidues>
 VAL166  LYS551  ARG553  GLY616  TRP617  ASP618  TYR619  PRO620  LYS621  CYS622 
 ASP623  PHE694  ASN695  SER759  ASP760  ASP761  ALA762  ILE779  LEU786  VAL792 
 PHE793  MET794  SER795  GLU796  ALA797  LYS798  CYS799  TRP800  GLU811  SER814 

> <Gold.Protein.RotatedAtoms>
  150.7585  133.9476  159.3475 H   0  0  0  0  0  0  0  0  0  0  0  0  # atno 6907 bound_to 6896
  151.7390  135.0856  160.0322 H   0  0  0  0  0  0  0  0  0  0  0  0  # atno 6908 bound_to 6896
  152.3541  133.6178  159.6002 H   0  0  0  0  0  0  0  0  0  0  0  0  # atno 6909 bound_to 6896
  145.1796  140.8965  143.3487 H   0  0  0  0  0  0  0  0  0  0  0  0  # atno 7974 bound_to 7965
  154.8641  140.0425  157.1684 H   0  0  0  0  0  0  0  0  0  0  0  0  # atno 8008 bound_to 7997
  154.8808  140.2972  155.5405 H   0  0  0  0  0  0  0  0  0  0  0  0  # atno 8009 bound_to 7997
  156.2999  140.2411  156.3811 H   0  0  0  0  0  0  0  0  0  0  0  0  # atno 8010 bound_to 7997
  139.4872  144.5666  151.7133 H   0  0  0  0  0  0  0  0  0  0  0  0  # atno 10167 bound_to 10162
  156.7454  130.5222  149.5815 H   0  0  0  0  0  0  0  0  0  0  0  0  # atno 10718 bound_to 10713
  154.5968  135.5528  153.7334 H   0  0  0  0  0  0  0  0  0  0  0  0  # atno 10763 bound_to 10752
  153.0138  135.6357  154.1770 H   0  0  0  0  0  0  0  0  0  0  0  0  # atno 10764 bound_to 10752
  154.1711  135.2892  155.3060 H   0  0  0  0  0  0  0  0  0  0  0  0  # atno 10765 bound_to 10752
  141.1274  133.6620  156.5173 H   0  0  0  0  0  0  0  0  0  0  0  0  # atno 11005 bound_to 11000
  145.0149  139.3476  143.6101 LP  0  0  0  0  0  0  0  0  0  0  0  0  # atno 17320 bound_to 7965
  146.3455  139.9427  142.8739 LP  0  0  0  0  0  0  0  0  0  0  0  0  # atno 17321 bound_to 7965
  140.5246  144.0826  150.6033 LP  0  0  0  0  0  0  0  0  0  0  0  0  # atno 17342 bound_to 10162
  140.3796  143.2810  152.0186 LP  0  0  0  0  0  0  0  0  0  0  0  0  # atno 17343 bound_to 10162
  156.1437  130.6262  151.0502 LP  0  0  0  0  0  0  0  0  0  0  0  0  # atno 17370 bound_to 10713
  157.6800  131.0840  150.7394 LP  0  0  0  0  0  0  0  0  0  0  0  0  # atno 17371 bound_to 10713
  140.4320  134.7093  157.4947 LP  0  0  0  0  0  0  0  0  0  0  0  0  # atno 17394 bound_to 11000
  140.0287  134.6438  155.9137 LP  0  0  0  0  0  0  0  0  0  0  0  0  # atno 17395 bound_to 11000

$$$$
