AV-unprocessed.smi:227|AV-procd|sdf|1740|dock6
  -GOLD-   2262020243D 1   1.00000     0.00000
 Structure written by MMmdl.
 54 58  0  0  0  0  0  0  0  0  1 V2000
  143.0168  137.9785  153.5730 O   0  0  0  0  0  0  0  0  0  0  0  0
  144.2231  137.3442  153.9439 C   0  0  0  0  0  0  0  0  0  0  0  0
  144.1131  135.8048  153.7996 C   0  0  1  0  0  0  0  0  0  0  0  0
  143.4207  135.1839  155.0489 C   0  0  0  0  0  0  0  0  0  0  0  0
  144.1734  135.3282  156.2875 N   0  0  0  0  0  0  0  0  0  0  0  0
  145.3552  136.0120  156.4625 C   0  0  0  0  0  0  0  0  0  0  0  0
  145.8374  135.9902  157.6738 N   0  0  0  0  0  0  0  0  0  0  0  0
  144.9140  135.2469  158.3989 C   0  0  0  0  0  0  0  0  0  0  0  0
  144.8184  134.8262  159.7575 C   0  0  0  0  0  0  0  0  0  0  0  0
  145.7577  135.1017  160.7025 N   0  0  0  0  0  0  0  0  0  0  0  0
  146.0898  136.4722  161.0605 C   0  0  2  0  0  0  0  0  0  0  0  0
  147.3262  136.2823  161.9562 C   0  0  0  0  0  0  0  0  0  0  0  0
  146.9839  134.9611  162.6649 C   0  0  0  0  0  0  0  0  0  0  0  0
  145.5943  134.6529  162.0781 C   0  0  1  0  0  0  0  0  0  0  0  0
  144.5693  135.6320  162.7047 C   0  0  2  0  0  0  0  0  0  0  0  0
  143.1017  135.1783  162.5786 C   0  0  0  0  0  0  0  0  0  0  0  0
  142.2434  136.1468  163.1424 O   0  0  0  0  0  0  0  0  0  0  0  0
  144.8988  136.9248  161.9307 C   0  0  0  0  0  0  0  0  0  0  0  0
  143.7116  134.1218  160.1138 N   0  0  0  0  0  0  0  0  0  0  0  0
  142.7785  133.8205  159.2073 C   0  0  0  0  0  0  0  0  0  0  0  0
  142.7504  134.1225  157.9091 N   0  0  0  0  0  0  0  0  0  0  0  0
  143.8484  134.8435  157.5438 C   0  0  0  0  0  0  0  0  0  0  0  0
  143.4311  135.4071  152.4527 C   0  0  1  0  0  0  0  0  0  0  0  0
  144.1511  135.9027  151.2005 C   0  0  0  0  0  0  0  0  0  0  0  0
  145.2109  134.8330  150.9386 C   0  0  0  0  0  0  0  0  0  0  0  0
  144.7410  133.6537  151.5806 O   0  0  0  0  0  0  0  0  0  0  0  0
  143.4604  133.9028  152.1425 C   0  0  0  0  0  0  0  0  0  0  0  0
  143.2251  138.8060  153.1665 H   0  0  0  0  0  0  0  0  0  0  0  0
  145.0431  137.7399  153.3447 H   0  0  0  0  0  0  0  0  0  0  0  0
  144.4188  137.6460  154.9698 H   0  0  0  0  0  0  0  0  0  0  0  0
  145.1302  135.4106  153.7783 H   0  0  0  0  0  0  0  0  0  0  0  0
  142.4307  135.6111  155.2005 H   0  0  0  0  0  0  0  0  0  0  0  0
  143.2347  134.1217  154.8885 H   0  0  0  0  0  0  0  0  0  0  0  0
  145.8593  136.5286  155.6596 H   0  0  0  0  0  0  0  0  0  0  0  0
  146.2854  137.1339  160.2159 H   0  0  0  0  0  0  0  0  0  0  0  0
  148.2308  136.1727  161.3567 H   0  0  0  0  0  0  0  0  0  0  0  0
  147.4743  137.1115  162.6489 H   0  0  0  0  0  0  0  0  0  0  0  0
  147.6993  134.1849  162.3900 H   0  0  0  0  0  0  0  0  0  0  0  0
  146.9818  135.0473  163.7521 H   0  0  0  0  0  0  0  0  0  0  0  0
  145.3284  133.6055  162.2095 H   0  0  0  0  0  0  0  0  0  0  0  0
  144.7907  135.7573  163.7658 H   0  0  0  0  0  0  0  0  0  0  0  0
  142.8132  135.0188  161.5403 H   0  0  0  0  0  0  0  0  0  0  0  0
  142.9509  134.2344  163.1032 H   0  0  0  0  0  0  0  0  0  0  0  0
  141.3679  135.9978  162.8192 H   0  0  0  0  0  0  0  0  0  0  0  0
  145.1512  137.7564  162.5895 H   0  0  0  0  0  0  0  0  0  0  0  0
  144.0619  137.2398  161.3063 H   0  0  0  0  0  0  0  0  0  0  0  0
  141.9362  133.2526  159.5740 H   0  0  0  0  0  0  0  0  0  0  0  0
  142.4033  135.7712  152.4585 H   0  0  0  0  0  0  0  0  0  0  0  0
  143.4458  135.9154  150.3681 H   0  0  0  0  0  0  0  0  0  0  0  0
  144.5772  136.9014  151.2613 H   0  0  0  0  0  0  0  0  0  0  0  0
  145.3648  134.6662  149.8721 H   0  0  0  0  0  0  0  0  0  0  0  0
  146.1675  135.1139  151.3799 H   0  0  0  0  0  0  0  0  0  0  0  0
  143.2714  133.2495  152.9910 H   0  0  0  0  0  0  0  0  0  0  0  0
  142.7066  133.6676  151.3892 H   0  0  0  0  0  0  0  0  0  0  0  0
  1  2  1  0  0  0  0
  1 28  1  0  0  0  0
  2  3  1  0  0  0  0
  2 29  1  0  0  0  0
  2 30  1  0  0  0  0
  3  4  1  0  0  0  0
  3 23  1  0  0  0  0
  3 31  1  0  0  0  0
  4  5  1  0  0  0  0
  4 32  1  0  0  0  0
  4 33  1  0  0  0  0
  5 22  1  0  0  0  0
  5  6  1  0  0  0  0
  6  7  2  0  0  0  0
  6 34  1  0  0  0  0
  7  8  1  0  0  0  0
  8 22  2  0  0  0  0
  8  9  1  0  0  0  0
  9 10  1  0  0  0  0
  9 19  2  0  0  0  0
 10 14  1  0  0  0  0
 10 11  1  0  0  0  0
 11 18  1  0  0  0  0
 11 12  1  0  0  0  0
 11 35  1  0  0  0  0
 12 13  1  0  0  0  0
 12 36  1  0  0  0  0
 12 37  1  0  0  0  0
 13 14  1  0  0  0  0
 13 38  1  0  0  0  0
 13 39  1  0  0  0  0
 14 15  1  0  0  0  0
 14 40  1  0  0  0  0
 15 16  1  0  0  0  0
 15 18  1  0  0  0  0
 15 41  1  0  0  0  0
 16 17  1  0  0  0  0
 16 42  1  0  0  0  0
 16 43  1  0  0  0  0
 17 44  1  0  0  0  0
 18 45  1  0  0  0  0
 18 46  1  0  0  0  0
 19 20  1  0  0  0  0
 20 21  2  0  0  0  0
 20 47  1  0  0  0  0
 21 22  1  0  0  0  0
 23 27  1  0  0  0  0
 23 24  1  0  0  0  0
 23 48  1  0  0  0  0
 24 25  1  0  0  0  0
 24 49  1  0  0  0  0
 24 50  1  0  0  0  0
 25 26  1  0  0  0  0
 25 51  1  0  0  0  0
 25 52  1  0  0  0  0
 26 27  1  0  0  0  0
 27 53  1  0  0  0  0
 27 54  1  0  0  0  0
M  END
> <s_m_source_file>
AV-unprocessed.smi

> <i_m_source_file_index>
227

> <i_lp_mmshare_version>
43012

> <i_f3d_flags>
0

> <s_epik_input>
W0NIMl0xT1tDSDJdW0NIMl1bQ0BIXTFbQ0BIXShbQ0gyXVtPSF0pW0NIMl1uKFtjSF1uMiljKGMyMyluW2NIXW5jM04oW0NASF00NSlbQ0BASF0oW0NIMl1bQ0gyXTQpW0NASF0oW0NIMl01KVtDSDJdW09IXQ==

> <s_epik_cmdline>
J2VwaWtfcHl0aG9uJywgJy1waCcsICc3LjAnLCAnLXRuJywgJzgnLCAnLW1hJywgJzIwMCcsICctbWV0YWxfYmluZGluZycsICctaW1hZScsICc8aW5maWxlLm1hZT4nLCAnLW9tYWUnLCAnPG91dGZpbGUubWFlPic=

> <r_lp_tautomer_probability>
1

> <r_epik_Ionization_Penalty>
0.0055791

> <r_epik_Ionization_Penalty_Charging>
0

> <r_epik_Ionization_Penalty_Neutral>
0.0055791

> <r_epik_State_Penalty>
0.00401299

> <r_epik_Charging_Adjusted_Penalty>
0.00401299

> <i_epik_Tot_Q>
0

> <i_epik_Tot_abs_Q>
0

> <r_epik_Metal_State_Penalty>
-0

> <b_epik_Metal_Only>
0

> <s_lp_Force_Field>
OPLS_2005

> <r_lp_Energy>
90.2099

> <b_lp_Chiralities_Consistent>
1

> <s_lp_Variant>
AV-unprocessed.smi:227-14

> <Gold.Version>
5.8.1

> <Gold.Id.Protein>
6NUR|6NUR_protein|mol2

> <Gold.PLP.Fitness>
38.2518

> <Gold.PLP.PLP>
-32.6471

> <Gold.PLP.part.hbond>
-2.7727

> <Gold.PLP.part.metal>
0.0000

> <Gold.PLP.part.buried>
-6.2505

> <Gold.PLP.part.nonpolar>
-23.7510

> <Gold.PLP.part.repulsive>
0.1556

> <Gold.PLP.ligand.clash>
0.0000

> <Gold.PLP.ligand.torsion>
0.2488

> <Gold.PLP.Chemscore.Hbond>
2.0000

> <Gold.PLP.Chemscore.CHOScore>
0.0000

> <Gold.PLP.Chemscore.Metal>
0.0000

> <Gold.Chemscore.Hbonds>
donor molecule, donor type, donor heavy atom, donor atom, acceptor molecule, acceptor atom, score
      L1  H     1    28       P1 10175  1.00
      P1  H 11000 11005       L1    21  1.00

> <Gold.PLP.Chemscore.Internal.Correction>
0.1023

> <Gold.Rescore>
     Score         DG    S(hbond)    S(metal)    S(lipo)     H(rot)  DE(clash)    DE(int)     intcor
     10.07     -11.87       1.98        0.00      77.08       3.61       0.14       1.66       ----

> <Gold.Chemscore.Fitness>
10.0717

> <Gold.Chemscore.DG>
-11.8693

> <Gold.Chemscore.ZeroCoef>
-5.4800

> <Gold.Chemscore.Hbond>
1.9775

> <Gold.Chemscore.Metal>
0.0000

> <Gold.Chemscore.Lipo>
77.0832

> <Gold.Chemscore.Internal_Hbond>
0.0000

> <Gold.Chemscore.DEClash>
0.1358

> <Gold.Chemscore.DEInternal>
1.6618

> <Gold.Chemscore.Rot>
3.6071

> <Gold.Chemscore.Internal.Correction>
   9.000000E+99

> <Gold.Chemscore.Hbonds>
donor molecule, donor type, donor heavy atom, donor atom, acceptor molecule, acceptor atom, score
      L1  H     1    28       P1 10175  1.00
      P1  H 11000 11005       L1    21  0.69

> <Gold.Chemscore.Hbond.Weighted>
-6.6048

> <Gold.Chemscore.Metal.Weighted>
-0.0000

> <Gold.Chemscore.Lipo.Weighted>
-9.0187

> <Gold.Chemscore.Internal_Hbond.Weighted>
0.0000

> <Gold.Chemscore.DEClash.Weighted>
0.1358

> <Gold.Chemscore.DEInternal.Weighted>
1.6618

> <Gold.Chemscore.Rot.Weighted>
9.2342

> <Gold.Chemscore.Internal.Correction.Weighted>
   9.000000E+99

> <Gold.Protein.RotatedTorsions>
[ 6907 6896 6895 6894 ] final  159.20 input  -60.11 | X-H torsion
[ 7974 7965 7964 7962 ] final  -69.28 input  175.53 | X-H torsion
[ 8008 7997 7996 7995 ] final  -67.36 input   59.86 | X-H torsion
[ 10167 10162 10161 10158 ] final -164.76 input  -65.29 | X-H torsion
[ 10718 10713 10712 10709 ] final  -13.83 input   66.30 | X-H torsion
[ 10763 10752 10751 10750 ] final  -92.86 input  -60.55 | X-H torsion
[ 11005 11000 10999 10996 ] final -117.78 input  -57.11 | X-H torsion

> <Gold.Protein.ActiveResidues>
 VAL166  LYS551  ARG553  GLY616  TRP617  ASP618  TYR619  PRO620  LYS621  CYS622 
 ASP623  PHE694  ASN695  SER759  ASP760  ASP761  ALA762  ILE779  LEU786  VAL792 
 PHE793  MET794  SER795  GLU796  ALA797  LYS798  CYS799  TRP800  GLU811  SER814 

> <Gold.Protein.RotatedAtoms>
  151.9891  133.3784  159.4136 H   0  0  0  0  0  0  0  0  0  0  0  0  # atno 6907 bound_to 6896
  150.6924  134.3956  159.5105 H   0  0  0  0  0  0  0  0  0  0  0  0  # atno 6908 bound_to 6896
  152.1687  134.8852  160.0587 H   0  0  0  0  0  0  0  0  0  0  0  0  # atno 6909 bound_to 6896
  145.7057  140.9099  143.0707 H   0  0  0  0  0  0  0  0  0  0  0  0  # atno 7974 bound_to 7965
  154.4795  140.0894  156.7343 H   0  0  0  0  0  0  0  0  0  0  0  0  # atno 8008 bound_to 7997
  155.4508  140.3457  155.4282 H   0  0  0  0  0  0  0  0  0  0  0  0  # atno 8009 bound_to 7997
  156.1169  140.1463  156.9248 H   0  0  0  0  0  0  0  0  0  0  0  0  # atno 8010 bound_to 7997
  139.6228  144.0591  152.1948 H   0  0  0  0  0  0  0  0  0  0  0  0  # atno 10167 bound_to 10162
  156.6247  130.4885  149.6151 H   0  0  0  0  0  0  0  0  0  0  0  0  # atno 10718 bound_to 10713
  154.6902  135.5216  153.8382 H   0  0  0  0  0  0  0  0  0  0  0  0  # atno 10763 bound_to 10752
  153.0627  135.6574  154.0435 H   0  0  0  0  0  0  0  0  0  0  0  0  # atno 10764 bound_to 10752
  154.0310  135.2985  155.3348 H   0  0  0  0  0  0  0  0  0  0  0  0  # atno 10765 bound_to 10752
  141.0331  133.9951  157.3112 H   0  0  0  0  0  0  0  0  0  0  0  0  # atno 11005 bound_to 11000
  144.6956  139.9007  143.7458 LP  0  0  0  0  0  0  0  0  0  0  0  0  # atno 17320 bound_to 7965
  146.0758  139.3746  143.0495 LP  0  0  0  0  0  0  0  0  0  0  0  0  # atno 17321 bound_to 7965
  140.0237  144.6134  150.7545 LP  0  0  0  0  0  0  0  0  0  0  0  0  # atno 17342 bound_to 10162
  140.7393  143.2789  151.3658 LP  0  0  0  0  0  0  0  0  0  0  0  0  # atno 17343 bound_to 10162
  156.2283  130.6779  151.1438 LP  0  0  0  0  0  0  0  0  0  0  0  0  # atno 17370 bound_to 10713
  157.7217  131.0677  150.6106 LP  0  0  0  0  0  0  0  0  0  0  0  0  # atno 17371 bound_to 10713
  139.9221  135.0201  156.8104 LP  0  0  0  0  0  0  0  0  0  0  0  0  # atno 17394 bound_to 11000
  140.6371  133.9852  155.7689 LP  0  0  0  0  0  0  0  0  0  0  0  0  # atno 17395 bound_to 11000

$$$$
