AV-unprocessed.smi:218|AV-procd|sdf|1672|dock3
  -GOLD-   2262020 93D 1   1.00000     0.00000
 Structure written by MMmdl.
 54 57  0  0  0  0  0  0  0  0  1 V2000
  151.9444  142.0444  156.8174 C   0  0  0  0  0  0  0  0  0  0  0  0
  152.0127  141.1629  158.0702 C   0  0  0  0  0  0  0  0  0  0  0  0
  152.8247  141.8430  159.1859 C   0  0  0  0  0  0  0  0  0  0  0  0
  152.6368  139.9377  157.6815 O   0  0  0  0  0  0  0  0  0  0  0  0
  152.2781  139.3204  156.4986 C   0  0  0  0  0  0  0  0  0  0  0  0
  151.1111  138.5297  156.4856 C   0  0  0  0  0  0  0  0  0  0  0  0
  150.7336  137.8919  155.2867 C   0  0  0  0  0  0  0  0  0  0  0  0
  149.4774  137.0497  155.2272 C   0  0  0  0  0  0  0  0  0  0  0  0
  149.5912  135.9426  154.2886 N   0  0  0  0  0  0  0  0  0  0  0  0
  149.5523  134.6696  154.7350 C   0  0  0  0  0  0  0  0  0  0  0  0
  150.1163  134.3260  155.9227 N   0  0  0  0  0  0  0  0  0  0  0  0
  150.0663  133.0583  156.3436 C   0  0  0  0  0  0  0  0  0  0  0  0
  149.5157  132.0004  155.7434 N   0  0  0  0  0  0  0  0  0  0  0  0
  148.9500  132.3427  154.5495 C   0  0  0  0  0  0  0  0  0  0  0  0
  148.9237  133.6455  153.9809 C   0  0  0  0  0  0  0  0  0  0  0  0
  148.2600  133.6121  152.7617 N   0  0  0  0  0  0  0  0  0  0  0  0
  147.9180  132.3591  152.6222 C   0  0  0  0  0  0  0  0  0  0  0  0
  148.2939  131.5246  153.6553 N   0  0  0  0  0  0  0  0  0  0  0  0
  148.0757  130.0479  153.8234 C   0  0  2  0  0  0  0  0  0  0  0  0
  148.3770  129.4304  152.6117 O   0  0  0  0  0  0  0  0  0  0  0  0
  147.1965  129.1225  151.8643 C   0  0  1  0  0  0  0  0  0  0  0  0
  147.2245  127.5985  151.6235 C   0  0  0  0  0  0  0  0  0  0  0  0
  146.7967  126.9232  152.7872 O   0  0  0  0  0  0  0  0  0  0  0  0
  146.0219  129.6430  152.7247 C   0  0  1  0  0  0  0  0  0  0  0  0
  144.8775  128.8108  152.6958 O   0  0  0  0  0  0  0  0  0  0  0  0
  146.6080  129.7182  154.1250 C   0  0  2  0  0  0  0  0  0  0  0  0
  145.9488  130.6953  154.9093 O   0  0  0  0  0  0  0  0  0  0  0  0
  151.5392  138.0678  154.1444 C   0  0  0  0  0  0  0  0  0  0  0  0
  152.6884  138.8745  154.2549 C   0  0  0  0  0  0  0  0  0  0  0  0
  153.0555  139.4884  155.3999 N   0  0  0  0  0  0  0  0  0  0  0  0
  148.7720  129.7504  154.6081 H   0  0  0  0  0  0  0  0  0  0  0  0
  147.2042  129.6463  150.9074 H   0  0  0  0  0  0  0  0  0  0  0  0
  145.7434  130.6407  152.3809 H   0  0  0  0  0  0  0  0  0  0  0  0
  146.5757  128.7449  154.6168 H   0  0  0  0  0  0  0  0  0  0  0  0
  151.4688  143.0011  157.0353 H   0  0  0  0  0  0  0  0  0  0  0  0
  151.3659  141.5587  156.0313 H   0  0  0  0  0  0  0  0  0  0  0  0
  152.9396  142.2477  156.4211 H   0  0  0  0  0  0  0  0  0  0  0  0
  150.9870  140.9965  158.4030 H   0  0  0  0  0  0  0  0  0  0  0  0
  152.3829  142.8005  159.4624 H   0  0  0  0  0  0  0  0  0  0  0  0
  153.8504  142.0297  158.8665 H   0  0  0  0  0  0  0  0  0  0  0  0
  152.8659  141.2313  160.0868 H   0  0  0  0  0  0  0  0  0  0  0  0
  150.5157  138.4182  157.3801 H   0  0  0  0  0  0  0  0  0  0  0  0
  149.2535  136.6627  156.2222 H   0  0  0  0  0  0  0  0  0  0  0  0
  148.6440  137.6901  154.9357 H   0  0  0  0  0  0  0  0  0  0  0  0
  149.7319  136.1906  153.3197 H   0  0  0  0  0  0  0  0  0  0  0  0
  150.5353  132.8636  157.2970 H   0  0  0  0  0  0  0  0  0  0  0  0
  147.3813  132.0140  151.7513 H   0  0  0  0  0  0  0  0  0  0  0  0
  146.6060  127.3167  150.7709 H   0  0  0  0  0  0  0  0  0  0  0  0
  148.2369  127.2485  151.4233 H   0  0  0  0  0  0  0  0  0  0  0  0
  146.4862  126.0653  152.5408 H   0  0  0  0  0  0  0  0  0  0  0  0
  144.1555  129.2765  153.0894 H   0  0  0  0  0  0  0  0  0  0  0  0
  145.0604  130.4107  155.0598 H   0  0  0  0  0  0  0  0  0  0  0  0
  151.2840  137.6005  153.2046 H   0  0  0  0  0  0  0  0  0  0  0  0
  153.3290  139.0327  153.4002 H   0  0  0  0  0  0  0  0  0  0  0  0
  1  2  1  0  0  0  0
  1 35  1  0  0  0  0
  1 36  1  0  0  0  0
  1 37  1  0  0  0  0
  2  3  1  0  0  0  0
  2  4  1  0  0  0  0
  2 38  1  0  0  0  0
  3 39  1  0  0  0  0
  3 40  1  0  0  0  0
  3 41  1  0  0  0  0
  4  5  1  0  0  0  0
  5 30  1  0  0  0  0
  5  6  2  0  0  0  0
  6  7  1  0  0  0  0
  6 42  1  0  0  0  0
  7  8  1  0  0  0  0
  7 28  2  0  0  0  0
  8  9  1  0  0  0  0
  8 43  1  0  0  0  0
  8 44  1  0  0  0  0
  9 10  1  0  0  0  0
  9 45  1  0  0  0  0
 10 15  1  0  0  0  0
 10 11  2  0  0  0  0
 11 12  1  0  0  0  0
 12 13  2  0  0  0  0
 12 46  1  0  0  0  0
 13 14  1  0  0  0  0
 14 18  1  0  0  0  0
 14 15  2  0  0  0  0
 15 16  1  0  0  0  0
 16 17  2  0  0  0  0
 17 18  1  0  0  0  0
 17 47  1  0  0  0  0
 18 19  1  0  0  0  0
 19 31  1  0  0  0  0
 19 26  1  0  0  0  0
 19 20  1  0  0  0  0
 20 21  1  0  0  0  0
 21 32  1  0  0  0  0
 21 22  1  0  0  0  0
 21 24  1  0  0  0  0
 22 23  1  0  0  0  0
 22 48  1  0  0  0  0
 22 49  1  0  0  0  0
 23 50  1  0  0  0  0
 24 33  1  0  0  0  0
 24 25  1  0  0  0  0
 24 26  1  0  0  0  0
 25 51  1  0  0  0  0
 26 34  1  0  0  0  0
 26 27  1  0  0  0  0
 27 52  1  0  0  0  0
 28 29  1  0  0  0  0
 28 53  1  0  0  0  0
 29 30  2  0  0  0  0
 29 54  1  0  0  0  0
M  END
> <s_m_source_file>
AV-unprocessed.smi

> <i_m_source_file_index>
218

> <i_lp_mmshare_version>
43012

> <i_f3d_flags>
0

> <s_epik_input>
W0NIM11bQ0hdKFtDSDNdKU9jMVtjSF1jKFtjSF1bY0hdbjEpW0NIMl1bTkhdYyhuW2NIXW4yKWMoYzIzKW5bY0hdbjNbQ0BASF00T1tDQEhdKFtDSDJdW09IXSlbQ0BASF0oW09IXSlbQ0BIXTRbT0hd

> <s_epik_cmdline>
J2VwaWtfcHl0aG9uJywgJy1waCcsICc3LjAnLCAnLXRuJywgJzgnLCAnLW1hJywgJzIwMCcsICctbWV0YWxfYmluZGluZycsICctaW1hZScsICc8aW5maWxlLm1hZT4nLCAnLW9tYWUnLCAnPG91dGZpbGUubWFlPic=

> <r_lp_tautomer_probability>
1

> <r_epik_Ionization_Penalty>
0.00457014

> <r_epik_Ionization_Penalty_Charging>
0

> <r_epik_Ionization_Penalty_Neutral>
0.00457014

> <r_epik_State_Penalty>
-0

> <r_epik_Charging_Adjusted_Penalty>
0

> <i_epik_Tot_Q>
0

> <i_epik_Tot_abs_Q>
0

> <r_epik_Metal_State_Penalty>
-0

> <b_epik_Metal_Only>
0

> <s_epik_Chemistry_Notes>
This compound contains an acetal/aminal-like group ( X-CH(R)-Y where X, Y are N, S, or O) that may be acid/base labile, releasing an aldehyde.

> <s_lp_Force_Field>
OPLS_2005

> <r_lp_Energy>
43.2146

> <b_lp_Chiralities_Consistent>
1

> <s_lp_Variant>
AV-unprocessed.smi:218-11

> <Gold.Version>
5.8.1

> <Gold.Id.Protein>
6NUR|6NUR_protein|mol2

> <Gold.PLP.Fitness>
53.3212

> <Gold.PLP.PLP>
-42.1639

> <Gold.PLP.part.hbond>
-4.9118

> <Gold.PLP.part.metal>
0.0000

> <Gold.PLP.part.buried>
-5.9848

> <Gold.PLP.part.nonpolar>
-32.5818

> <Gold.PLP.part.repulsive>
0.7113

> <Gold.PLP.ligand.clash>
0.0000

> <Gold.PLP.ligand.torsion>
1.5809

> <Gold.PLP.Chemscore.Hbond>
3.8618

> <Gold.PLP.Chemscore.CHOScore>
0.8512

> <Gold.PLP.Chemscore.Metal>
0.0000

> <Gold.Chemscore.Hbonds>
donor molecule, donor type, donor heavy atom, donor atom, acceptor molecule, acceptor atom, score
      L1  H     9    45       P1  7948  0.75
      L1  H    25    51       P1 10956  0.60
      L1  H    27    52       P1 10956  1.00
      P1  H  7997  8008       L1    30  0.70
      L1  C    17    47       P1 10747  0.56

> <Gold.PLP.Chemscore.Internal.Correction>
0.1803

> <Gold.Rescore>
     Score         DG    S(hbond)    S(metal)    S(lipo)     H(rot)  DE(clash)    DE(int)     intcor
     12.58     -13.99       3.54        0.00      78.97       4.90       0.03       1.37       ----

> <Gold.Chemscore.Fitness>
12.5792

> <Gold.Chemscore.DG>
-13.9855

> <Gold.Chemscore.ZeroCoef>
-5.4800

> <Gold.Chemscore.Hbond>
3.5381

> <Gold.Chemscore.Metal>
0.0000

> <Gold.Chemscore.Lipo>
78.9712

> <Gold.Chemscore.Internal_Hbond>
0.0000

> <Gold.Chemscore.DEClash>
0.0329

> <Gold.Chemscore.DEInternal>
1.3734

> <Gold.Chemscore.Rot>
4.9029

> <Gold.Chemscore.Internal.Correction>
   9.000000E+99

> <Gold.Chemscore.Hbonds>
donor molecule, donor type, donor heavy atom, donor atom, acceptor molecule, acceptor atom, score
      L1  H     9    45       P1  7948  0.13
      L1  H    25    51       P1 10956  0.06
      L1  H    27    52       P1 10956  0.29
      P1  H  7997  8008       L1    30  0.07

> <Gold.Chemscore.Hbond.Weighted>
-11.8174

> <Gold.Chemscore.Metal.Weighted>
-0.0000

> <Gold.Chemscore.Lipo.Weighted>
-9.2396

> <Gold.Chemscore.Internal_Hbond.Weighted>
0.0000

> <Gold.Chemscore.DEClash.Weighted>
0.0329

> <Gold.Chemscore.DEInternal.Weighted>
1.3734

> <Gold.Chemscore.Rot.Weighted>
12.5515

> <Gold.Chemscore.Internal.Correction.Weighted>
   9.000000E+99

> <Gold.Protein.RotatedTorsions>
[ 6907 6896 6895 6894 ] final  155.22 input  -60.11 | X-H torsion
[ 7974 7965 7964 7962 ] final -134.75 input  175.53 | X-H torsion
[ 8008 7997 7996 7995 ] final  -40.71 input   59.86 | X-H torsion
[ 10167 10162 10161 10158 ] final  -23.76 input  -65.29 | X-H torsion
[ 10718 10713 10712 10709 ] final  -95.81 input   66.30 | X-H torsion
[ 10763 10752 10751 10750 ] final  -28.87 input  -60.55 | X-H torsion
[ 11005 11000 10999 10996 ] final  -85.09 input  -57.11 | X-H torsion

> <Gold.Protein.ActiveResidues>
 VAL166  LYS551  ARG553  GLY616  TRP617  ASP618  TYR619  PRO620  LYS621  CYS622 
 ASP623  PHE694  ASN695  SER759  ASP760  ASP761  ALA762  ILE779  LEU786  VAL792 
 PHE793  MET794  SER795  GLU796  ALA797  LYS798  CYS799  TRP800  GLU811  SER814 

> <Gold.Protein.RotatedAtoms>
  152.0473  133.4003  159.4361 H   0  0  0  0  0  0  0  0  0  0  0  0  # atno 6907 bound_to 6896
  150.6872  134.3348  159.4852 H   0  0  0  0  0  0  0  0  0  0  0  0  # atno 6908 bound_to 6896
  152.1154  134.9244  160.0616 H   0  0  0  0  0  0  0  0  0  0  0  0  # atno 6909 bound_to 6896
  144.9074  140.6851  143.5046 H   0  0  0  0  0  0  0  0  0  0  0  0  # atno 7974 bound_to 7965
  154.4010  140.1518  156.3072 H   0  0  0  0  0  0  0  0  0  0  0  0  # atno 8008 bound_to 7997
  155.8648  140.3451  155.5759 H   0  0  0  0  0  0  0  0  0  0  0  0  # atno 8009 bound_to 7997
  155.7840  140.0847  157.2035 H   0  0  0  0  0  0  0  0  0  0  0  0  # atno 8010 bound_to 7997
  140.7288  143.4413  151.0652 H   0  0  0  0  0  0  0  0  0  0  0  0  # atno 10167 bound_to 10162
  156.0050  130.5125  150.6132 H   0  0  0  0  0  0  0  0  0  0  0  0  # atno 10718 bound_to 10713
  153.7554  135.6923  153.4936 H   0  0  0  0  0  0  0  0  0  0  0  0  # atno 10763 bound_to 10752
  153.1974  135.4449  155.0224 H   0  0  0  0  0  0  0  0  0  0  0  0  # atno 10764 bound_to 10752
  154.8172  135.3404  154.7073 H   0  0  0  0  0  0  0  0  0  0  0  0  # atno 10765 bound_to 10752
  141.1644  133.7380  156.8963 H   0  0  0  0  0  0  0  0  0  0  0  0  # atno 11005 bound_to 11000
  145.3512  139.1706  143.4434 LP  0  0  0  0  0  0  0  0  0  0  0  0  # atno 17320 bound_to 7965
  146.3141  140.3564  142.8661 LP  0  0  0  0  0  0  0  0  0  0  0  0  # atno 17321 bound_to 7965
  139.8081  143.7990  152.3169 LP  0  0  0  0  0  0  0  0  0  0  0  0  # atno 17342 bound_to 10162
  139.8029  144.7367  150.9800 LP  0  0  0  0  0  0  0  0  0  0  0  0  # atno 17343 bound_to 10162
  157.3961  131.0803  151.1351 LP  0  0  0  0  0  0  0  0  0  0  0  0  # atno 17370 bound_to 10713
  157.2027  130.6402  149.5744 LP  0  0  0  0  0  0  0  0  0  0  0  0  # atno 17371 bound_to 10713
  140.1613  134.9163  157.2718 LP  0  0  0  0  0  0  0  0  0  0  0  0  # atno 17394 bound_to 11000
  140.2608  134.3574  155.7407 LP  0  0  0  0  0  0  0  0  0  0  0  0  # atno 17395 bound_to 11000

$$$$
