AV-unprocessed.smi:3163|AV-procd|sdf|12071|dock3
  -GOLD-   2272017503D 1   1.00000     0.00000
 Structure written by MMmdl.
 36 37  0  0  0  0  0  0  0  0  2 V2000
  145.3768  137.7416  153.5267 C   0  0  0  0  0  0  0  0  0  0  0  0
  145.7662  139.1461  153.7712 N   0  3  1  0  0  0  0  0  0  0  0  0
  145.6703  139.5737  155.1866 C   0  0  0  0  0  0  0  0  0  0  0  0
  146.9867  140.2845  155.5210 C   0  0  0  0  0  0  0  0  0  0  0  0
  147.5677  140.6660  154.1583 C   0  0  1  0  0  0  0  0  0  0  0  0
  149.0892  140.9063  154.1340 C   0  0  0  0  0  0  0  0  0  0  0  0
  149.4911  141.9545  155.0672 N   0  0  0  0  0  0  0  0  0  0  0  0
  150.3146  141.7908  156.1129 C   0  0  0  0  0  0  0  0  0  0  0  0
  150.8229  140.7103  156.4117 O   0  0  0  0  0  0  0  0  0  0  0  0
  150.4801  142.9436  156.7846 N   0  0  0  0  0  0  0  0  0  0  0  0
  151.2730  143.1982  157.9368 C   0  0  0  0  0  0  0  0  0  0  0  0
  151.9680  142.1113  158.5064 C   0  0  0  0  0  0  0  0  0  0  0  0
  152.7485  142.3321  159.6587 C   0  0  0  0  0  0  0  0  0  0  0  0
  152.8613  143.5357  160.2585 N   0  0  0  0  0  0  0  0  0  0  0  0
  152.1844  144.5722  159.7206 C   0  0  0  0  0  0  0  0  0  0  0  0
  151.3776  144.4602  158.5704 C   0  0  0  0  0  0  0  0  0  0  0  0
  147.1175  139.4948  153.2854 C   0  0  0  0  0  0  0  0  0  0  0  0
  146.0274  137.0527  154.0669 H   0  0  0  0  0  0  0  0  0  0  0  0
  145.4380  137.5094  152.4631 H   0  0  0  0  0  0  0  0  0  0  0  0
  144.3500  137.5697  153.8509 H   0  0  0  0  0  0  0  0  0  0  0  0
  144.8264  140.2573  155.2830 H   0  0  0  0  0  0  0  0  0  0  0  0
  145.4962  138.7373  155.8652 H   0  0  0  0  0  0  0  0  0  0  0  0
  146.8441  141.1439  156.1766 H   0  0  0  0  0  0  0  0  0  0  0  0
  147.6552  139.5871  156.0281 H   0  0  0  0  0  0  0  0  0  0  0  0
  147.0596  141.5663  153.8081 H   0  0  0  0  0  0  0  0  0  0  0  0
  149.6295  139.9794  154.3342 H   0  0  0  0  0  0  0  0  0  0  0  0
  149.3905  141.2222  153.1349 H   0  0  0  0  0  0  0  0  0  0  0  0
  149.1167  142.8774  154.9004 H   0  0  0  0  0  0  0  0  0  0  0  0
  149.9325  143.7268  156.4596 H   0  0  0  0  0  0  0  0  0  0  0  0
  151.9115  141.1247  158.0701 H   0  0  0  0  0  0  0  0  0  0  0  0
  153.2950  141.5182  160.1119 H   0  0  0  0  0  0  0  0  0  0  0  0
  152.2837  145.5211  160.2268 H   0  0  0  0  0  0  0  0  0  0  0  0
  150.8533  145.3323  158.2121 H   0  0  0  0  0  0  0  0  0  0  0  0
  147.7902  138.6467  153.4271 H   0  0  0  0  0  0  0  0  0  0  0  0
  147.1082  139.7427  152.2235 H   0  0  0  0  0  0  0  0  0  0  0  0
  145.1203  139.7298  153.2590 H   0  0  0  0  0  0  0  0  0  0  0  0
  1  2  1  0  0  0  0
  1 18  1  0  0  0  0
  1 19  1  0  0  0  0
  1 20  1  0  0  0  0
  2 17  1  0  0  0  0
  2  3  1  0  0  0  0
  2 36  1  0  0  0  0
  3  4  1  0  0  0  0
  3 21  1  0  0  0  0
  3 22  1  0  0  0  0
  4  5  1  0  0  0  0
  4 23  1  0  0  0  0
  4 24  1  0  0  0  0
  5  6  1  0  0  0  0
  5 17  1  0  0  0  0
  5 25  1  0  0  0  0
  6  7  1  0  0  0  0
  6 26  1  0  0  0  0
  6 27  1  0  0  0  0
  7  8  1  0  0  0  0
  7 28  1  0  0  0  0
  8  9  2  0  0  0  0
  8 10  1  0  0  0  0
 10 11  1  0  0  0  0
 10 29  1  0  0  0  0
 11 16  1  0  0  0  0
 11 12  2  0  0  0  0
 12 13  1  0  0  0  0
 12 30  1  0  0  0  0
 13 14  2  0  0  0  0
 13 31  1  0  0  0  0
 14 15  1  0  0  0  0
 15 16  2  0  0  0  0
 15 32  1  0  0  0  0
 16 33  1  0  0  0  0
 17 34  1  0  0  0  0
 17 35  1  0  0  0  0
M  CHG  1   2   1
M  END
> <s_m_source_file>
AV-unprocessed.smi

> <i_m_source_file_index>
3163

> <i_lp_mmshare_version>
43012

> <i_f3d_flags>
0

> <s_epik_input>
W0NIM11OMVtDSDJdW0NIMl1bQ0BIXShbQ0gyXTEpW0NIMl1bTkhdQyg9TylbTkhdYzJbY0hdW2NIXW5bY0hdW2NIXTI=

> <s_epik_cmdline>
J2VwaWtfcHl0aG9uJywgJy1waCcsICc3LjAnLCAnLXRuJywgJzgnLCAnLW1hJywgJzIwMCcsICctbWV0YWxfYmluZGluZycsICctaW1hZScsICc8aW5maWxlLm1hZT4nLCAnLW9tYWUnLCAnPG91dGZpbGUubWFlPic=

> <r_epik_Ionization_Penalty>
0.103936

> <r_epik_Ionization_Penalty_Charging>
0.0012301

> <r_epik_Ionization_Penalty_Neutral>
0.102706

> <r_epik_State_Penalty>
0.0926275

> <r_epik_Charging_Adjusted_Penalty>
0.0938576

> <i_epik_Tot_Q>
1

> <i_epik_Tot_abs_Q>
1

> <r_epik_Metal_State_Penalty>
0.0788376

> <b_epik_Metal_Only>
0

> <s_lp_Force_Field>
OPLS_2005

> <r_lp_Energy>
32.4174

> <b_lp_Chiralities_Consistent>
1

> <s_lp_Variant>
AV-unprocessed.smi:3163-1

> <Gold.Version>
5.8.1

> <Gold.Id.Protein>
6NUR|6NUR_protein|mol2

> <Gold.PLP.Fitness>
44.1477

> <Gold.PLP.PLP>
-32.3795

> <Gold.PLP.part.hbond>
-3.0000

> <Gold.PLP.part.metal>
0.0000

> <Gold.PLP.part.buried>
-3.8191

> <Gold.PLP.part.nonpolar>
-25.8804

> <Gold.PLP.part.repulsive>
0.2861

> <Gold.PLP.ligand.clash>
0.0000

> <Gold.PLP.ligand.torsion>
0.0098

> <Gold.PLP.Chemscore.Hbond>
3.9280

> <Gold.PLP.Chemscore.CHOScore>
0.0000

> <Gold.PLP.Chemscore.Metal>
0.0000

> <Gold.Chemscore.Hbonds>
donor molecule, donor type, donor heavy atom, donor atom, acceptor molecule, acceptor atom, score
      L1  H     2    36       P1 10175  2.00
      L1  H     7    28       P1  8028  0.93
      L1  H    10    29       P1  8028  1.00

> <Gold.PLP.Chemscore.Internal.Correction>
0.0039

> <Gold.Rescore>
     Score         DG    S(hbond)    S(metal)    S(lipo)     H(rot)  DE(clash)    DE(int)     intcor
     20.53     -22.04       2.95        0.00      84.71       1.26       0.07       1.44       ----

> <Gold.Chemscore.Fitness>
20.5335

> <Gold.Chemscore.DG>
-22.0402

> <Gold.Chemscore.ZeroCoef>
-5.4800

> <Gold.Chemscore.Hbond>
2.9532

> <Gold.Chemscore.Metal>
0.0000

> <Gold.Chemscore.Lipo>
84.7137

> <Gold.Chemscore.Internal_Hbond>
0.0000

> <Gold.Chemscore.DEClash>
0.0679

> <Gold.Chemscore.DEInternal>
1.4388

> <Gold.Chemscore.Rot>
1.2559

> <Gold.Chemscore.Internal.Correction>
   9.000000E+99

> <Gold.Chemscore.Hbonds>
donor molecule, donor type, donor heavy atom, donor atom, acceptor molecule, acceptor atom, score
      L1  H     2    36       P1 10175  1.00
      L1  H     7    28       P1  8028  0.87
      L1  H    10    29       P1  8028  1.00

> <Gold.Chemscore.Hbond.Weighted>
-9.8638

> <Gold.Chemscore.Metal.Weighted>
-0.0000

> <Gold.Chemscore.Lipo.Weighted>
-9.9115

> <Gold.Chemscore.Internal_Hbond.Weighted>
0.0000

> <Gold.Chemscore.DEClash.Weighted>
0.0679

> <Gold.Chemscore.DEInternal.Weighted>
1.4388

> <Gold.Chemscore.Rot.Weighted>
3.2151

> <Gold.Chemscore.Internal.Correction.Weighted>
   9.000000E+99

> <Gold.Protein.RotatedTorsions>
[ 6907 6896 6895 6894 ] final -162.60 input  -60.11 | X-H torsion
[ 7974 7965 7964 7962 ] final  153.09 input  175.53 | X-H torsion
[ 8008 7997 7996 7995 ] final  -13.50 input   59.86 | X-H torsion
[ 10167 10162 10161 10158 ] final  108.65 input  -65.29 | X-H torsion
[ 10718 10713 10712 10709 ] final   13.53 input   66.30 | X-H torsion
[ 10763 10752 10751 10750 ] final  -78.57 input  -60.55 | X-H torsion
[ 11005 11000 10999 10996 ] final -153.02 input  -57.11 | X-H torsion

> <Gold.Protein.ActiveResidues>
 VAL166  LYS551  ARG553  GLY616  TRP617  ASP618  TYR619  PRO620  LYS621  CYS622 
 ASP623  PHE694  ASN695  SER759  ASP760  ASP761  ALA762  ILE779  LEU786  VAL792 
 PHE793  MET794  SER795  GLU796  ALA797  LYS798  CYS799  TRP800  GLU811  SER814 

> <Gold.Protein.RotatedAtoms>
  151.3829  133.3815  159.2711 H   0  0  0  0  0  0  0  0  0  0  0  0  # atno 6907 bound_to 6896
  150.9564  134.8958  159.7714 H   0  0  0  0  0  0  0  0  0  0  0  0  # atno 6908 bound_to 6896
  152.5132  134.3786  159.9395 H   0  0  0  0  0  0  0  0  0  0  0  0  # atno 6909 bound_to 6896
  144.8178  139.6754  143.6113 H   0  0  0  0  0  0  0  0  0  0  0  0  # atno 7974 bound_to 7965
  154.5287  140.2248  155.8843 H   0  0  0  0  0  0  0  0  0  0  0  0  # atno 8008 bound_to 7997
  156.1741  140.3115  155.8991 H   0  0  0  0  0  0  0  0  0  0  0  0  # atno 8009 bound_to 7997
  155.3497  140.0455  157.3036 H   0  0  0  0  0  0  0  0  0  0  0  0  # atno 8010 bound_to 7997
  139.6829  144.7116  151.1483 H   0  0  0  0  0  0  0  0  0  0  0  0  # atno 10167 bound_to 10162
  157.0259  130.6173  149.5728 H   0  0  0  0  0  0  0  0  0  0  0  0  # atno 10718 bound_to 10713
  154.5276  135.5725  153.6732 H   0  0  0  0  0  0  0  0  0  0  0  0  # atno 10763 bound_to 10752
  152.9931  135.6197  154.2672 H   0  0  0  0  0  0  0  0  0  0  0  0  # atno 10764 bound_to 10752
  154.2596  135.2856  155.2763 H   0  0  0  0  0  0  0  0  0  0  0  0  # atno 10765 bound_to 10752
  140.7127  134.3815  157.5195 H   0  0  0  0  0  0  0  0  0  0  0  0  # atno 11005 bound_to 11000
  146.2482  139.6143  142.9445 LP  0  0  0  0  0  0  0  0  0  0  0  0  # atno 17320 bound_to 7965
  145.5174  141.0433  143.2454 LP  0  0  0  0  0  0  0  0  0  0  0  0  # atno 17321 bound_to 7965
  140.7658  143.5672  150.9035 LP  0  0  0  0  0  0  0  0  0  0  0  0  # atno 17342 bound_to 10162
  139.9345  143.6454  152.3068 LP  0  0  0  0  0  0  0  0  0  0  0  0  # atno 17343 bound_to 10162
  156.0086  130.5175  150.7913 LP  0  0  0  0  0  0  0  0  0  0  0  0  # atno 17370 bound_to 10713
  157.5214  131.0931  151.0073 LP  0  0  0  0  0  0  0  0  0  0  0  0  # atno 17371 bound_to 10713
  139.8868  134.8901  156.2566 LP  0  0  0  0  0  0  0  0  0  0  0  0  # atno 17394 bound_to 11000
  141.0071  133.7117  156.1052 LP  0  0  0  0  0  0  0  0  0  0  0  0  # atno 17395 bound_to 11000

$$$$
