AV-unprocessed.smi:2423|AV-procd|sdf|9558|dock8
  -GOLD-   2272013193D 1   1.00000     0.00000
 Structure written by MMmdl.
 37 39  0  0  0  0  0  0  0  0  1 V2000
  150.8086  140.7124  155.7902 O   0  0  0  0  0  0  0  0  0  0  0  0
  150.2885  141.8170  155.9299 C   0  0  0  0  0  0  0  0  0  0  0  0
  149.3829  142.2744  155.0482 N   0  0  0  0  0  0  0  0  0  0  0  0
  148.8996  141.6040  153.8405 C   0  0  0  0  0  0  0  0  0  0  0  0
  147.3923  141.2953  153.9126 C   0  0  0  0  0  0  0  0  0  0  0  0
  146.6930  142.5458  154.4553 C   0  0  0  0  0  0  0  0  0  0  0  0
  145.1945  142.7241  154.5352 C   0  0  0  0  0  0  0  0  0  0  0  0
  146.0079  143.5272  153.5380 C   0  0  0  0  0  0  0  0  0  0  0  0
  146.8302  140.6439  152.6244 C   0  0  0  0  0  0  0  0  0  0  0  0
  147.0556  139.2677  153.2489 C   0  0  0  0  0  0  0  0  0  0  0  0
  147.0112  139.9685  154.6056 C   0  0  0  0  0  0  0  0  0  0  0  0
  150.5336  142.6628  156.9502 N   0  0  0  0  0  0  0  0  0  0  0  0
  151.4183  142.5099  158.0524 C   0  0  0  0  0  0  0  0  0  0  0  0
  151.9767  141.2751  158.4631 C   0  0  0  0  0  0  0  0  0  0  0  0
  152.8558  141.2656  159.5645 C   0  0  0  0  0  0  0  0  0  0  0  0
  153.2038  142.3757  160.2491 N   0  0  0  0  0  0  0  0  0  0  0  0
  152.6793  143.5526  159.8471 C   0  0  0  0  0  0  0  0  0  0  0  0
  151.7914  143.6726  158.7594 C   0  0  0  0  0  0  0  0  0  0  0  0
  151.3040  144.8866  158.4053 F   0  0  0  0  0  0  0  0  0  0  0  0
  148.9777  143.1790  155.2414 H   0  0  0  0  0  0  0  0  0  0  0  0
  149.1114  142.2307  152.9724 H   0  0  0  0  0  0  0  0  0  0  0  0
  149.4745  140.6870  153.7020 H   0  0  0  0  0  0  0  0  0  0  0  0
  147.2181  142.9860  155.3009 H   0  0  0  0  0  0  0  0  0  0  0  0
  144.5430  141.9472  154.1450 H   0  0  0  0  0  0  0  0  0  0  0  0
  144.8021  143.2565  155.3993 H   0  0  0  0  0  0  0  0  0  0  0  0
  146.1536  144.5862  153.7404 H   0  0  0  0  0  0  0  0  0  0  0  0
  145.9143  143.2621  152.4869 H   0  0  0  0  0  0  0  0  0  0  0  0
  145.7737  140.8307  152.4379 H   0  0  0  0  0  0  0  0  0  0  0  0
  147.4186  140.8289  151.7250 H   0  0  0  0  0  0  0  0  0  0  0  0
  146.2524  138.5503  153.0789 H   0  0  0  0  0  0  0  0  0  0  0  0
  148.0348  138.8462  153.0169 H   0  0  0  0  0  0  0  0  0  0  0  0
  147.7365  139.5962  155.3298 H   0  0  0  0  0  0  0  0  0  0  0  0
  146.0058  139.9852  155.0303 H   0  0  0  0  0  0  0  0  0  0  0  0
  149.9730  143.5022  156.9668 H   0  0  0  0  0  0  0  0  0  0  0  0
  151.7625  140.3468  157.9572 H   0  0  0  0  0  0  0  0  0  0  0  0
  153.2971  140.3390  159.9011 H   0  0  0  0  0  0  0  0  0  0  0  0
  152.9780  144.4261  160.4078 H   0  0  0  0  0  0  0  0  0  0  0  0
  1  2  2  0  0  0  0
  2  3  1  0  0  0  0
  2 12  1  0  0  0  0
  3  4  1  0  0  0  0
  3 20  1  0  0  0  0
  4  5  1  0  0  0  0
  4 21  1  0  0  0  0
  4 22  1  0  0  0  0
  5 11  1  0  0  0  0
  5  6  1  0  0  0  0
  5  9  1  0  0  0  0
  6  8  1  0  0  0  0
  6  7  1  0  0  0  0
  6 23  1  0  0  0  0
  7  8  1  0  0  0  0
  7 24  1  0  0  0  0
  7 25  1  0  0  0  0
  8 26  1  0  0  0  0
  8 27  1  0  0  0  0
  9 10  1  0  0  0  0
  9 28  1  0  0  0  0
  9 29  1  0  0  0  0
 10 11  1  0  0  0  0
 10 30  1  0  0  0  0
 10 31  1  0  0  0  0
 11 32  1  0  0  0  0
 11 33  1  0  0  0  0
 12 13  1  0  0  0  0
 12 34  1  0  0  0  0
 13 18  1  0  0  0  0
 13 14  2  0  0  0  0
 14 15  1  0  0  0  0
 14 35  1  0  0  0  0
 15 16  2  0  0  0  0
 15 36  1  0  0  0  0
 16 17  1  0  0  0  0
 17 18  2  0  0  0  0
 17 37  1  0  0  0  0
 18 19  1  0  0  0  0
M  END
> <s_m_source_file>
AV-unprocessed.smi

> <i_m_source_file_index>
2423

> <i_lp_mmshare_version>
43012

> <i_f3d_flags>
0

> <s_epik_input>
W0NIMl0xW0NIMl1bQ0hdMUMyKFtDSDJdW0NIMl1bQ0gyXTIpW0NIMl1bTkhdQyg9TylbTkhdYzNbY0hdW2NIXW5bY0hdYzNG

> <s_epik_cmdline>
J2VwaWtfcHl0aG9uJywgJy1waCcsICc3LjAnLCAnLXRuJywgJzgnLCAnLW1hJywgJzIwMCcsICctbWV0YWxfYmluZGluZycsICctaW1hZScsICc8aW5maWxlLm1hZT4nLCAnLW9tYWUnLCAnPG91dGZpbGUubWFlPic=

> <r_epik_Ionization_Penalty>
0.00332314

> <r_epik_Ionization_Penalty_Charging>
0

> <r_epik_Ionization_Penalty_Neutral>
0.00332314

> <r_epik_State_Penalty>
0.00231995

> <r_epik_Charging_Adjusted_Penalty>
0.00231995

> <i_epik_Tot_Q>
0

> <i_epik_Tot_abs_Q>
0

> <r_epik_Metal_State_Penalty>
-0

> <b_epik_Metal_Only>
0

> <s_lp_Force_Field>
OPLS_2005

> <r_lp_Energy>
40.5055

> <b_lp_Chiralities_Consistent>
1

> <s_lp_Variant>
AV-unprocessed.smi:2423-1

> <Gold.Version>
5.8.1

> <Gold.Id.Protein>
6NUR|6NUR_protein|mol2

> <Gold.PLP.Fitness>
46.5400

> <Gold.PLP.PLP>
-40.8985

> <Gold.PLP.part.hbond>
-2.8047

> <Gold.PLP.part.metal>
0.0000

> <Gold.PLP.part.buried>
-0.1866

> <Gold.PLP.part.nonpolar>
-35.8715

> <Gold.PLP.part.repulsive>
0.3131

> <Gold.PLP.ligand.clash>
0.0000

> <Gold.PLP.ligand.torsion>
1.1707

> <Gold.PLP.Chemscore.Hbond>
2.0956

> <Gold.PLP.Chemscore.CHOScore>
0.0000

> <Gold.PLP.Chemscore.Metal>
0.0000

> <Gold.Chemscore.Hbonds>
donor molecule, donor type, donor heavy atom, donor atom, acceptor molecule, acceptor atom, score
      L1  H     3    20       P1  8028  1.00
      L1  H    12    34       P1  8028  0.72

> <Gold.PLP.Chemscore.Internal.Correction>
1.6960

> <Gold.Rescore>
     Score         DG    S(hbond)    S(metal)    S(lipo)     H(rot)  DE(clash)    DE(int)     intcor
     16.20     -20.66       1.91        0.00     105.91       1.40       2.17       2.29       ----

> <Gold.Chemscore.Fitness>
16.1978

> <Gold.Chemscore.DG>
-20.6632

> <Gold.Chemscore.ZeroCoef>
-5.4800

> <Gold.Chemscore.Hbond>
1.9081

> <Gold.Chemscore.Metal>
0.0000

> <Gold.Chemscore.Lipo>
105.9121

> <Gold.Chemscore.Internal_Hbond>
0.0000

> <Gold.Chemscore.DEClash>
2.1711

> <Gold.Chemscore.DEInternal>
2.2943

> <Gold.Chemscore.Rot>
1.3990

> <Gold.Chemscore.Internal.Correction>
   9.000000E+99

> <Gold.Chemscore.Hbonds>
donor molecule, donor type, donor heavy atom, donor atom, acceptor molecule, acceptor atom, score
      L1  H     3    20       P1  8028  0.97
      L1  H    12    34       P1  8028  0.69
      P1  H  7989  7998       L1     1  0.02

> <Gold.Chemscore.Hbond.Weighted>
-6.3729

> <Gold.Chemscore.Metal.Weighted>
-0.0000

> <Gold.Chemscore.Lipo.Weighted>
-12.3917

> <Gold.Chemscore.Internal_Hbond.Weighted>
0.0000

> <Gold.Chemscore.DEClash.Weighted>
2.1711

> <Gold.Chemscore.DEInternal.Weighted>
2.2943

> <Gold.Chemscore.Rot.Weighted>
3.5814

> <Gold.Chemscore.Internal.Correction.Weighted>
   9.000000E+99

> <Gold.Protein.RotatedTorsions>
[ 6907 6896 6895 6894 ] final  172.72 input  -60.11 | X-H torsion
[ 7974 7965 7964 7962 ] final  -96.47 input  175.53 | X-H torsion
[ 8008 7997 7996 7995 ] final -103.23 input   59.86 | X-H torsion
[ 10167 10162 10161 10158 ] final    0.21 input  -65.29 | X-H torsion
[ 10718 10713 10712 10709 ] final   36.01 input   66.30 | X-H torsion
[ 10763 10752 10751 10750 ] final  -61.03 input  -60.55 | X-H torsion
[ 11005 11000 10999 10996 ] final  -93.81 input  -57.11 | X-H torsion

> <Gold.Protein.ActiveResidues>
 VAL166  LYS551  ARG553  GLY616  TRP617  ASP618  TYR619  PRO620  LYS621  CYS622 
 ASP623  PHE694  ASN695  SER759  ASP760  ASP761  ALA762  ILE779  LEU786  VAL792 
 PHE793  MET794  SER795  GLU796  ALA797  LYS798  CYS799  TRP800  GLU811  SER814 

> <Gold.Protein.RotatedAtoms>
  151.7798  133.3348  159.3468 H   0  0  0  0  0  0  0  0  0  0  0  0  # atno 6907 bound_to 6896
  150.7430  134.5941  159.6012 H   0  0  0  0  0  0  0  0  0  0  0  0  # atno 6908 bound_to 6896
  152.3284  134.7293  160.0347 H   0  0  0  0  0  0  0  0  0  0  0  0  # atno 6909 bound_to 6896
  145.3464  140.9469  143.2579 H   0  0  0  0  0  0  0  0  0  0  0  0  # atno 7974 bound_to 7965
  154.8679  140.0424  157.1706 H   0  0  0  0  0  0  0  0  0  0  0  0  # atno 8008 bound_to 7997
  154.8770  140.2967  155.5427 H   0  0  0  0  0  0  0  0  0  0  0  0  # atno 8009 bound_to 7997
  156.2999  140.2418  156.3767 H   0  0  0  0  0  0  0  0  0  0  0  0  # atno 8010 bound_to 7997
  140.6739  143.6972  150.7980 H   0  0  0  0  0  0  0  0  0  0  0  0  # atno 10167 bound_to 10162
  157.3296  130.7491  149.6838 H   0  0  0  0  0  0  0  0  0  0  0  0  # atno 10718 bound_to 10713
  154.2783  135.6277  153.5337 H   0  0  0  0  0  0  0  0  0  0  0  0  # atno 10763 bound_to 10752
  152.9869  135.5627  154.5524 H   0  0  0  0  0  0  0  0  0  0  0  0  # atno 10764 bound_to 10752
  154.5109  135.2877  155.1319 H   0  0  0  0  0  0  0  0  0  0  0  0  # atno 10765 bound_to 10752
  141.1487  133.7913  157.0212 H   0  0  0  0  0  0  0  0  0  0  0  0  # atno 11005 bound_to 11000
  144.8751  139.4983  143.6749 LP  0  0  0  0  0  0  0  0  0  0  0  0  # atno 17320 bound_to 7965
  146.2986  139.7355  142.9108 LP  0  0  0  0  0  0  0  0  0  0  0  0  # atno 17321 bound_to 7965
  140.0662  143.5106  152.2603 LP  0  0  0  0  0  0  0  0  0  0  0  0  # atno 17342 bound_to 10162
  139.6020  144.7585  151.3149 LP  0  0  0  0  0  0  0  0  0  0  0  0  # atno 17343 bound_to 10162
  155.9694  130.4199  150.4397 LP  0  0  0  0  0  0  0  0  0  0  0  0  # atno 17370 bound_to 10713
  157.2427  131.0529  151.2427 LP  0  0  0  0  0  0  0  0  0  0  0  0  # atno 17371 bound_to 10713
  140.0815  134.9645  157.1631 LP  0  0  0  0  0  0  0  0  0  0  0  0  # atno 17394 bound_to 11000
  140.3571  134.2535  155.7191 LP  0  0  0  0  0  0  0  0  0  0  0  0  # atno 17395 bound_to 11000

$$$$
