AV-unprocessed.smi:2746|AV-procd|sdf|10576|dock2
  -GOLD-   2272015 33D 1   1.00000     0.00000
 Structure written by MMmdl.
 38 39  0  0  0  0  0  0  0  0  3 V2000
  146.9955  139.2751  153.6727 C   0  0  0  0  0  0  0  0  0  0  0  0
  147.9943  139.7584  154.4301 C   0  0  0  0  0  0  0  0  0  0  0  0
  148.3899  141.2214  154.5336 C   0  0  1  0  0  0  0  0  0  0  0  0
  147.1483  142.1155  154.4094 C   0  0  0  0  0  0  0  0  0  0  0  0
  149.0840  141.5628  155.7749 N   0  5  0  0  0  0  0  0  0  0  0  0
  150.3603  141.1798  156.0750 C   0  0  0  0  0  0  0  0  0  0  0  0
  151.0063  140.2165  155.6474 O   0  0  0  0  0  0  0  0  0  0  0  0
  151.0326  142.0967  157.0699 C   0  0  0  0  0  0  0  0  0  0  0  0
  151.9297  141.5956  158.0432 C   0  0  0  0  0  0  0  0  0  0  0  0
  152.5452  142.4806  158.9600 C   0  0  0  0  0  0  0  0  0  0  0  0
  153.4429  142.0290  159.9372 N   0  0  0  0  0  0  0  0  0  0  0  0
  152.9671  142.2231  161.3013 C   0  0  0  0  0  0  0  0  0  0  0  0
  154.0618  141.8146  162.3022 C   0  0  0  0  0  0  0  0  0  0  0  0
  154.4579  140.4688  162.0529 O   0  0  0  0  0  0  0  0  0  0  0  0
  154.9900  140.3012  160.7417 C   0  0  0  0  0  0  0  0  0  0  0  0
  153.9210  140.6728  159.6993 C   0  0  0  0  0  0  0  0  0  0  0  0
  152.2476  143.8574  158.8838 C   0  0  0  0  0  0  0  0  0  0  0  0
  151.3490  144.3123  157.9000 C   0  0  0  0  0  0  0  0  0  0  0  0
  150.7876  143.4307  157.0466 N   0  3  0  0  0  0  0  0  0  0  0  0
  146.3760  139.9122  153.0562 H   0  0  0  0  0  0  0  0  0  0  0  0
  146.7835  138.2164  153.6601 H   0  0  0  0  0  0  0  0  0  0  0  0
  148.5786  139.0683  155.0209 H   0  0  0  0  0  0  0  0  0  0  0  0
  149.0190  141.4406  153.6689 H   0  0  0  0  0  0  0  0  0  0  0  0
  146.6206  141.9234  153.4748 H   0  0  0  0  0  0  0  0  0  0  0  0
  147.4193  143.1720  154.4183 H   0  0  0  0  0  0  0  0  0  0  0  0
  146.4468  141.9434  155.2269 H   0  0  0  0  0  0  0  0  0  0  0  0
  152.1491  140.5387  158.0872 H   0  0  0  0  0  0  0  0  0  0  0  0
  152.6920  143.2675  161.4527 H   0  0  0  0  0  0  0  0  0  0  0  0
  152.0714  141.6246  161.4726 H   0  0  0  0  0  0  0  0  0  0  0  0
  154.9244  142.4788  162.2285 H   0  0  0  0  0  0  0  0  0  0  0  0
  153.6867  141.8914  163.3227 H   0  0  0  0  0  0  0  0  0  0  0  0
  155.8836  140.9154  160.6190 H   0  0  0  0  0  0  0  0  0  0  0  0
  155.2966  139.2632  160.6126 H   0  0  0  0  0  0  0  0  0  0  0  0
  153.0888  139.9700  159.7585 H   0  0  0  0  0  0  0  0  0  0  0  0
  154.3370  140.5971  158.6938 H   0  0  0  0  0  0  0  0  0  0  0  0
  152.7025  144.5572  159.5697 H   0  0  0  0  0  0  0  0  0  0  0  0
  151.0641  145.3456  157.7684 H   0  0  0  0  0  0  0  0  0  0  0  0
  150.1395  143.7736  156.3361 H   0  0  0  0  0  0  0  0  0  0  0  0
  1  2  2  0  0  0  0
  1 20  1  0  0  0  0
  1 21  1  0  0  0  0
  2  3  1  0  0  0  0
  2 22  1  0  0  0  0
  3  4  1  0  0  0  0
  3  5  1  0  0  0  0
  3 23  1  0  0  0  0
  4 24  1  0  0  0  0
  4 25  1  0  0  0  0
  4 26  1  0  0  0  0
  5  6  1  0  0  0  0
  6  7  2  0  0  0  0
  6  8  1  0  0  0  0
  8 19  1  0  0  0  0
  8  9  2  0  0  0  0
  9 10  1  0  0  0  0
  9 27  1  0  0  0  0
 10 11  1  0  0  0  0
 10 17  2  0  0  0  0
 11 16  1  0  0  0  0
 11 12  1  0  0  0  0
 12 13  1  0  0  0  0
 12 28  1  0  0  0  0
 12 29  1  0  0  0  0
 13 14  1  0  0  0  0
 13 30  1  0  0  0  0
 13 31  1  0  0  0  0
 14 15  1  0  0  0  0
 15 16  1  0  0  0  0
 15 32  1  0  0  0  0
 15 33  1  0  0  0  0
 16 34  1  0  0  0  0
 16 35  1  0  0  0  0
 17 18  1  0  0  0  0
 17 36  1  0  0  0  0
 18 19  2  0  0  0  0
 18 37  1  0  0  0  0
 19 38  1  0  0  0  0
M  CHG  1   5  -1
M  CHG  1  19   1
M  END
> <s_m_source_file>
AV-unprocessed.smi

> <i_m_source_file_index>
2746

> <i_lp_mmshare_version>
43012

> <i_f3d_flags>
0

> <s_epik_input>
W0NIMl09W0NIXVtDQEhdKFtDSDNdKVtOSF1DKD1PKWMxW2NIXWMoW2NIXVtjSF1uMSlOMltDSDJdW0NIMl1PW0NIMl1bQ0gyXTI=

> <s_epik_cmdline>
J2VwaWtfcHl0aG9uJywgJy1waCcsICc3LjAnLCAnLXRuJywgJzgnLCAnLW1hJywgJzIwMCcsICctbWV0YWxfYmluZGluZycsICctaW1hZScsICc8aW5maWxlLm1hZT4nLCAnLW9tYWUnLCAnPG91dGZpbGUubWFlPic=

> <r_lp_tautomer_probability>
1

> <r_epik_Ionization_Penalty>
4.23471

> <r_epik_Ionization_Penalty_Charging>
4.23471

> <r_epik_Ionization_Penalty_Neutral>
3.18831e-12

> <r_epik_State_Penalty>
4.68748

> <r_epik_Charging_Adjusted_Penalty>
8.92219

> <i_epik_Tot_Q>
0

> <i_epik_Tot_abs_Q>
2

> <r_epik_Metal_State_Penalty>
1.16626

> <b_epik_Metal_Only>
1

> <s_lp_Force_Field>
OPLS_2005

> <r_lp_Energy>
17.3094

> <b_lp_Chiralities_Consistent>
1

> <s_lp_Variant>
AV-unprocessed.smi:2746-6

> <Gold.Version>
5.8.1

> <Gold.Id.Protein>
6NUR|6NUR_protein|mol2

> <Gold.PLP.Fitness>
50.3463

> <Gold.PLP.PLP>
-43.8429

> <Gold.PLP.part.hbond>
-2.0000

> <Gold.PLP.part.metal>
0.0000

> <Gold.PLP.part.buried>
-5.1405

> <Gold.PLP.part.nonpolar>
-36.8013

> <Gold.PLP.part.repulsive>
0.7726

> <Gold.PLP.ligand.clash>
0.0208

> <Gold.PLP.ligand.torsion>
1.3350

> <Gold.PLP.Chemscore.Hbond>
2.9600

> <Gold.PLP.Chemscore.CHOScore>
0.0000

> <Gold.PLP.Chemscore.Metal>
0.0000

> <Gold.Chemscore.Hbonds>
donor molecule, donor type, donor heavy atom, donor atom, acceptor molecule, acceptor atom, score
      L1  H    19    38       P1  8028  2.00
      P1  H  7989  7998       L1     7  0.26

> <Gold.PLP.Chemscore.Internal.Correction>
0.3141

> <Gold.Rescore>
     Score         DG    S(hbond)    S(metal)    S(lipo)     H(rot)  DE(clash)    DE(int)     intcor
     19.72     -20.75       1.78        0.00     107.45       1.27       0.08       0.95       ----

> <Gold.Chemscore.Fitness>
19.7160

> <Gold.Chemscore.DG>
-20.7463

> <Gold.Chemscore.ZeroCoef>
-5.4800

> <Gold.Chemscore.Hbond>
1.7832

> <Gold.Chemscore.Metal>
0.0000

> <Gold.Chemscore.Lipo>
107.4550

> <Gold.Chemscore.Internal_Hbond>
0.0000

> <Gold.Chemscore.DEClash>
0.0805

> <Gold.Chemscore.DEInternal>
0.9499

> <Gold.Chemscore.Rot>
1.2742

> <Gold.Chemscore.Internal.Correction>
   9.000000E+99

> <Gold.Chemscore.Hbonds>
donor molecule, donor type, donor heavy atom, donor atom, acceptor molecule, acceptor atom, score
      L1  H    19    38       P1  8028  0.99
      P1  H  7989  7998       L1     7  0.12

> <Gold.Chemscore.Hbond.Weighted>
-5.9560

> <Gold.Chemscore.Metal.Weighted>
-0.0000

> <Gold.Chemscore.Lipo.Weighted>
-12.5722

> <Gold.Chemscore.Internal_Hbond.Weighted>
0.0000

> <Gold.Chemscore.DEClash.Weighted>
0.0805

> <Gold.Chemscore.DEInternal.Weighted>
0.9499

> <Gold.Chemscore.Rot.Weighted>
3.2619

> <Gold.Chemscore.Internal.Correction.Weighted>
   9.000000E+99

> <Gold.Protein.RotatedTorsions>
[ 6907 6896 6895 6894 ] final  -49.09 input  -60.11 | X-H torsion
[ 7974 7965 7964 7962 ] final  175.48 input  175.53 | X-H torsion
[ 8008 7997 7996 7995 ] final  -43.62 input   59.86 | X-H torsion
[ 10167 10162 10161 10158 ] final  -32.16 input  -65.29 | X-H torsion
[ 10718 10713 10712 10709 ] final   -0.52 input   66.30 | X-H torsion
[ 10763 10752 10751 10750 ] final   20.95 input  -60.55 | X-H torsion
[ 11005 11000 10999 10996 ] final   -2.94 input  -57.11 | X-H torsion

> <Gold.Protein.ActiveResidues>
 VAL166  LYS551  ARG553  GLY616  TRP617  ASP618  TYR619  PRO620  LYS621  CYS622 
 ASP623  PHE694  ASN695  SER759  ASP760  ASP761  ALA762  ILE779  LEU786  VAL792 
 PHE793  MET794  SER795  GLU796  ALA797  LYS798  CYS799  TRP800  GLU811  SER814 

> <Gold.Protein.RotatedAtoms>
  150.8840  134.8235  159.7245 H   0  0  0  0  0  0  0  0  0  0  0  0  # atno 6907 bound_to 6896
  152.4796  134.4751  159.9658 H   0  0  0  0  0  0  0  0  0  0  0  0  # atno 6908 bound_to 6896
  151.4822  133.3505  159.2875 H   0  0  0  0  0  0  0  0  0  0  0  0  # atno 6909 bound_to 6896
  144.7201  139.9953  143.6440 H   0  0  0  0  0  0  0  0  0  0  0  0  # atno 7974 bound_to 7965
  154.3997  140.1443  156.3549 H   0  0  0  0  0  0  0  0  0  0  0  0  # atno 8008 bound_to 7997
  155.8235  140.3468  155.5507 H   0  0  0  0  0  0  0  0  0  0  0  0  # atno 8009 bound_to 7997
  155.8263  140.0905  157.1809 H   0  0  0  0  0  0  0  0  0  0  0  0  # atno 8010 bound_to 7997
  140.7225  143.3715  151.1768 H   0  0  0  0  0  0  0  0  0  0  0  0  # atno 10167 bound_to 10162
  156.8191  130.5450  149.5699 H   0  0  0  0  0  0  0  0  0  0  0  0  # atno 10718 bound_to 10713
  153.1035  135.6678  153.9629 H   0  0  0  0  0  0  0  0  0  0  0  0  # atno 10763 bound_to 10752
  153.9193  135.3016  155.3449 H   0  0  0  0  0  0  0  0  0  0  0  0  # atno 10764 bound_to 10752
  154.7456  135.5059  153.9274 H   0  0  0  0  0  0  0  0  0  0  0  0  # atno 10765 bound_to 10752
  140.6639  133.9296  155.8453 H   0  0  0  0  0  0  0  0  0  0  0  0  # atno 11005 bound_to 11000
  146.0379  139.3394  143.0715 LP  0  0  0  0  0  0  0  0  0  0  0  0  # atno 17320 bound_to 7965
  145.8371  140.9600  143.0818 LP  0  0  0  0  0  0  0  0  0  0  0  0  # atno 17321 bound_to 7965
  139.7288  143.9106  152.3012 LP  0  0  0  0  0  0  0  0  0  0  0  0  # atno 17342 bound_to 10162
  139.8888  144.6977  150.8794 LP  0  0  0  0  0  0  0  0  0  0  0  0  # atno 17343 bound_to 10162
  156.0999  130.5961  150.9876 LP  0  0  0  0  0  0  0  0  0  0  0  0  # atno 17370 bound_to 10713
  157.6466  131.0903  150.8140 LP  0  0  0  0  0  0  0  0  0  0  0  0  # atno 17371 bound_to 10713
  141.0444  134.0575  157.3862 LP  0  0  0  0  0  0  0  0  0  0  0  0  # atno 17394 bound_to 11000
  139.9004  135.0162  156.7239 LP  0  0  0  0  0  0  0  0  0  0  0  0  # atno 17395 bound_to 11000

$$$$
