AV-unprocessed.smi:1653|AV-procd|sdf|6641|dock10
  -GOLD-   22720 7343D 1   1.00000     0.00000
 Structure written by MMmdl.
 41 42  0  0  0  0  0  0  0  0  3 V2000
  152.7598  136.4204  156.3586 N   0  0  0  0  0  0  0  0  0  0  0  0
  151.8580  137.1455  156.3557 C   0  0  0  0  0  0  0  0  0  0  0  0
  150.7070  138.0699  156.3508 C   0  0  0  0  0  0  0  0  0  0  0  0
  149.4837  137.3490  156.7219 N   0  0  0  0  0  0  0  0  0  0  0  0
  149.2557  136.6639  157.8543 C   0  0  0  0  0  0  0  0  0  0  0  0
  150.0752  136.5702  158.7682 O   0  0  0  0  0  0  0  0  0  0  0  0
  147.8743  136.0059  157.9730 C   0  0  0  0  0  0  0  0  0  0  0  0
  147.6599  135.3445  159.2714 N   0  0  0  0  0  0  0  0  0  0  0  0
  147.3891  133.9636  159.2476 C   0  0  0  0  0  0  0  0  0  0  0  0
  147.1717  133.2648  160.3708 C   0  0  0  0  0  0  0  0  0  0  0  0
  147.2263  133.9639  161.6313 C   0  0  0  0  0  0  0  0  0  0  0  0
  147.4828  135.2915  161.6793 C   0  0  0  0  0  0  0  0  0  0  0  0
  147.5299  135.9287  162.9751 N   0  3  0  0  0  0  0  0  0  0  0  0
  147.3250  135.2503  163.9770 O   0  0  0  0  0  0  0  0  0  0  0  0
  147.7601  137.1331  163.0277 O   0  5  0  0  0  0  0  0  0  0  0  0
  147.7092  136.0604  160.4379 C   0  0  0  0  0  0  0  0  0  0  0  0
  147.9227  137.2744  160.4322 O   0  0  0  0  0  0  0  0  0  0  0  0
  151.0050  139.2349  157.3358 C   0  0  0  0  0  0  0  0  0  0  0  0
  149.8308  140.1975  157.6124 C   0  0  0  0  0  0  0  0  0  0  0  0
  149.6737  141.3618  156.6192 C   0  0  0  0  0  0  0  0  0  0  0  0
  149.9272  141.0445  155.1356 C   0  0  0  0  0  0  0  0  0  0  0  0
  149.4705  139.6538  154.6678 C   0  0  0  0  0  0  0  0  0  0  0  0
  150.5402  138.5689  154.8986 C   0  0  0  0  0  0  0  0  0  0  0  0
  148.7397  137.3670  156.0397 H   0  0  0  0  0  0  0  0  0  0  0  0
  147.1188  136.7742  157.8029 H   0  0  0  0  0  0  0  0  0  0  0  0
  147.7373  135.2883  157.1615 H   0  0  0  0  0  0  0  0  0  0  0  0
  147.3592  133.5159  158.2647 H   0  0  0  0  0  0  0  0  0  0  0  0
  146.9595  132.2065  160.3330 H   0  0  0  0  0  0  0  0  0  0  0  0
  147.0674  133.4057  162.5426 H   0  0  0  0  0  0  0  0  0  0  0  0
  151.3055  138.8027  158.2908 H   0  0  0  0  0  0  0  0  0  0  0  0
  151.8756  139.7995  156.9998 H   0  0  0  0  0  0  0  0  0  0  0  0
  148.8914  139.6504  157.6785 H   0  0  0  0  0  0  0  0  0  0  0  0
  149.9659  140.6308  158.6039 H   0  0  0  0  0  0  0  0  0  0  0  0
  148.6660  141.7641  156.7293 H   0  0  0  0  0  0  0  0  0  0  0  0
  150.3423  142.1728  156.9102 H   0  0  0  0  0  0  0  0  0  0  0  0
  149.4189  141.8036  154.5399 H   0  0  0  0  0  0  0  0  0  0  0  0
  150.9873  141.1715  154.9127 H   0  0  0  0  0  0  0  0  0  0  0  0
  148.5135  139.3815  155.1136 H   0  0  0  0  0  0  0  0  0  0  0  0
  149.2889  139.7095  153.5940 H   0  0  0  0  0  0  0  0  0  0  0  0
  151.4996  138.9306  154.5255 H   0  0  0  0  0  0  0  0  0  0  0  0
  150.2981  137.7121  154.2676 H   0  0  0  0  0  0  0  0  0  0  0  0
  1  2  3  0  0  0  0
  2  3  1  0  0  0  0
  3 23  1  0  0  0  0
  3  4  1  0  0  0  0
  3 18  1  0  0  0  0
  4  5  1  0  0  0  0
  4 24  1  0  0  0  0
  5  6  2  0  0  0  0
  5  7  1  0  0  0  0
  7  8  1  0  0  0  0
  7 25  1  0  0  0  0
  7 26  1  0  0  0  0
  8 16  1  0  0  0  0
  8  9  1  0  0  0  0
  9 10  2  0  0  0  0
  9 27  1  0  0  0  0
 10 11  1  0  0  0  0
 10 28  1  0  0  0  0
 11 12  2  0  0  0  0
 11 29  1  0  0  0  0
 12 13  1  0  0  0  0
 12 16  1  0  0  0  0
 13 14  2  0  0  0  0
 13 15  1  0  0  0  0
 16 17  2  0  0  0  0
 18 19  1  0  0  0  0
 18 30  1  0  0  0  0
 18 31  1  0  0  0  0
 19 20  1  0  0  0  0
 19 32  1  0  0  0  0
 19 33  1  0  0  0  0
 20 21  1  0  0  0  0
 20 34  1  0  0  0  0
 20 35  1  0  0  0  0
 21 22  1  0  0  0  0
 21 36  1  0  0  0  0
 21 37  1  0  0  0  0
 22 23  1  0  0  0  0
 22 38  1  0  0  0  0
 22 39  1  0  0  0  0
 23 40  1  0  0  0  0
 23 41  1  0  0  0  0
M  CHG  1  13   1
M  CHG  1  15  -1
M  END
> <s_m_source_file>
AV-unprocessed.smi

> <i_m_source_file_index>
1653

> <i_lp_mmshare_version>
43012

> <i_f3d_flags>
0

> <s_epik_input>
W0NIMl0xW0NIMl1bQ0gyXVtDSDJdW0NIMl1bQ0gyXUMxKEMjTilbTkhdQyg9TylbQ0gyXW4yW2NIXVtjSF1bY0hdYyhbTitdKD1PKVtPLV0pYzI9Tw==

> <s_epik_cmdline>
J2VwaWtfcHl0aG9uJywgJy1waCcsICc3LjAnLCAnLXRuJywgJzgnLCAnLW1hJywgJzIwMCcsICctbWV0YWxfYmluZGluZycsICctaW1hZScsICc8aW5maWxlLm1hZT4nLCAnLW9tYWUnLCAnPG91dGZpbGUubWFlPic=

> <r_lp_tautomer_probability>
1

> <r_epik_Ionization_Penalty>
4.51252e-07

> <r_epik_Ionization_Penalty_Charging>
1.09758e-10

> <r_epik_Ionization_Penalty_Neutral>
4.51142e-07

> <r_epik_State_Penalty>
-0

> <r_epik_Charging_Adjusted_Penalty>
1.09758e-10

> <i_epik_Tot_Q>
0

> <i_epik_Tot_abs_Q>
2

> <r_epik_Metal_State_Penalty>
-0

> <b_epik_Metal_Only>
0

> <s_lp_Force_Field>
OPLS_2005

> <r_lp_Energy>
31.6459

> <b_lp_Chiralities_Consistent>
1

> <s_lp_Variant>
AV-unprocessed.smi:1653-1

> <Gold.Version>
5.8.1

> <Gold.Id.Protein>
6NUR|6NUR_protein|mol2

> <Gold.PLP.Fitness>
44.7161

> <Gold.PLP.PLP>
-33.5761

> <Gold.PLP.part.hbond>
-7.0000

> <Gold.PLP.part.metal>
0.0000

> <Gold.PLP.part.buried>
-2.2951

> <Gold.PLP.part.nonpolar>
-24.8006

> <Gold.PLP.part.repulsive>
0.1050

> <Gold.PLP.ligand.clash>
0.0000

> <Gold.PLP.ligand.torsion>
0.0319

> <Gold.PLP.Chemscore.Hbond>
3.7291

> <Gold.PLP.Chemscore.CHOScore>
0.0000

> <Gold.PLP.Chemscore.Metal>
0.0000

> <Gold.Chemscore.Hbonds>
donor molecule, donor type, donor heavy atom, donor atom, acceptor molecule, acceptor atom, score
      P1  H  6888  6897       L1    14  0.23
      P1  H  6896  6907       L1     6  0.88
      P1  H  6931  6943       L1    15  0.70
      P1  H  6934  6947       L1    17  0.78
      P1  H 10752 10764       L1     1  1.00

> <Gold.PLP.Chemscore.Internal.Correction>
0.0164

> <Gold.Rescore>
     Score         DG    S(hbond)    S(metal)    S(lipo)     H(rot)  DE(clash)    DE(int)     intcor
     12.16     -20.00       3.46        0.00      60.90       1.63       1.49       6.35       ----

> <Gold.Chemscore.Fitness>
12.1607

> <Gold.Chemscore.DG>
-20.0041

> <Gold.Chemscore.ZeroCoef>
-5.4800

> <Gold.Chemscore.Hbond>
3.4636

> <Gold.Chemscore.Metal>
0.0000

> <Gold.Chemscore.Lipo>
60.8987

> <Gold.Chemscore.Internal_Hbond>
0.0000

> <Gold.Chemscore.DEClash>
1.4908

> <Gold.Chemscore.DEInternal>
6.3526

> <Gold.Chemscore.Rot>
1.6287

> <Gold.Chemscore.Internal.Correction>
   9.000000E+99

> <Gold.Chemscore.Hbonds>
donor molecule, donor type, donor heavy atom, donor atom, acceptor molecule, acceptor atom, score
      P1  H  6888  6897       L1    14  0.23
      P1  H  6896  6907       L1     6  0.85
      P1  H  6931  6943       L1    15  0.67
      P1  H  6934  6947       L1    17  0.77
      P1  H 10752 10764       L1     1  0.96

> <Gold.Chemscore.Hbond.Weighted>
-11.5684

> <Gold.Chemscore.Metal.Weighted>
-0.0000

> <Gold.Chemscore.Lipo.Weighted>
-7.1251

> <Gold.Chemscore.Internal_Hbond.Weighted>
0.0000

> <Gold.Chemscore.DEClash.Weighted>
1.4908

> <Gold.Chemscore.DEInternal.Weighted>
6.3526

> <Gold.Chemscore.Rot.Weighted>
4.1694

> <Gold.Chemscore.Internal.Correction.Weighted>
   9.000000E+99

> <Gold.Protein.RotatedTorsions>
[ 6907 6896 6895 6894 ] final  -35.90 input  -60.11 | X-H torsion
[ 7974 7965 7964 7962 ] final   77.93 input  175.53 | X-H torsion
[ 8008 7997 7996 7995 ] final   22.36 input   59.86 | X-H torsion
[ 10167 10162 10161 10158 ] final  -49.88 input  -65.29 | X-H torsion
[ 10718 10713 10712 10709 ] final -123.50 input   66.30 | X-H torsion
[ 10763 10752 10751 10750 ] final   -8.05 input  -60.55 | X-H torsion
[ 11005 11000 10999 10996 ] final   62.39 input  -57.11 | X-H torsion

> <Gold.Protein.ActiveResidues>
 VAL166  LYS551  ARG553  GLY616  TRP617  ASP618  TYR619  PRO620  LYS621  CYS622 
 ASP623  PHE694  ASN695  SER759  ASP760  ASP761  ALA762  ILE779  LEU786  VAL792 
 PHE793  MET794  SER795  GLU796  ALA797  LYS798  CYS799  TRP800  GLU811  SER814 

> <Gold.Protein.RotatedAtoms>
  151.0340  134.9559  159.8125 H   0  0  0  0  0  0  0  0  0  0  0  0  # atno 6907 bound_to 6896
  152.5351  134.2744  159.8994 H   0  0  0  0  0  0  0  0  0  0  0  0  # atno 6908 bound_to 6896
  151.2754  133.4192  159.2657 H   0  0  0  0  0  0  0  0  0  0  0  0  # atno 6909 bound_to 6896
  145.6837  139.2531  143.1800 H   0  0  0  0  0  0  0  0  0  0  0  0  # atno 7974 bound_to 7965
  154.9646  140.3082  155.5015 H   0  0  0  0  0  0  0  0  0  0  0  0  # atno 8008 bound_to 7997
  156.2973  140.2295  156.4672 H   0  0  0  0  0  0  0  0  0  0  0  0  # atno 8009 bound_to 7997
  154.7933  140.0438  157.1206 H   0  0  0  0  0  0  0  0  0  0  0  0  # atno 8010 bound_to 7997
  140.6664  143.2679  151.4279 H   0  0  0  0  0  0  0  0  0  0  0  0  # atno 10167 bound_to 10162
  156.1507  130.6532  150.9909 H   0  0  0  0  0  0  0  0  0  0  0  0  # atno 10718 bound_to 10713
  153.4350  135.7012  153.6206 H   0  0  0  0  0  0  0  0  0  0  0  0  # atno 10763 bound_to 10752
  153.4604  135.3737  155.2335 H   0  0  0  0  0  0  0  0  0  0  0  0  # atno 10764 bound_to 10752
  154.8726  135.4018  154.3740 H   0  0  0  0  0  0  0  0  0  0  0  0  # atno 10765 bound_to 10752
  140.0095  134.6317  155.9802 H   0  0  0  0  0  0  0  0  0  0  0  0  # atno 11005 bound_to 11000
  146.0942  140.7620  142.9580 LP  0  0  0  0  0  0  0  0  0  0  0  0  # atno 17320 bound_to 7965
  144.7018  140.3685  143.7150 LP  0  0  0  0  0  0  0  0  0  0  0  0  # atno 17321 bound_to 7965
  139.5914  144.1490  152.2093 LP  0  0  0  0  0  0  0  0  0  0  0  0  # atno 17342 bound_to 10162
  140.0846  144.5672  150.7098 LP  0  0  0  0  0  0  0  0  0  0  0  0  # atno 17343 bound_to 10162
  157.6654  131.0872  150.7739 LP  0  0  0  0  0  0  0  0  0  0  0  0  # atno 17370 bound_to 10713
  156.7808  130.4858  149.5401 LP  0  0  0  0  0  0  0  0  0  0  0  0  # atno 17371 bound_to 10713
  141.1701  133.6537  156.4621 LP  0  0  0  0  0  0  0  0  0  0  0  0  # atno 17394 bound_to 11000
  140.4579  134.6868  157.5071 LP  0  0  0  0  0  0  0  0  0  0  0  0  # atno 17395 bound_to 11000

$$$$
