AV-unprocessed.smi:1356|AV-procd|sdf|5542|dock1
  -GOLD-   22720 5133D 1   1.00000     0.00000
 Structure written by MMmdl.
 41 42  0  0  0  0  0  0  0  0  1 V2000
  147.2897  132.8882  155.7877 C   0  0  0  0  0  0  0  0  0  0  0  0
  148.1665  132.6362  154.5735 C   0  0  2  0  0  0  0  0  0  0  0  0
  149.5365  132.0283  154.7494 C   0  0  0  0  0  0  0  0  0  0  0  0
  149.4107  133.4463  154.2309 C   0  0  2  0  0  0  0  0  0  0  0  0
  149.8180  134.5646  155.1299 C   0  0  0  0  0  0  0  0  0  0  0  0
  150.1157  134.3872  156.3112 O   0  0  0  0  0  0  0  0  0  0  0  0
  149.7707  135.7769  154.5567 N   0  0  0  0  0  0  0  0  0  0  0  0
  150.0795  137.0335  155.2294 C   0  0  0  0  0  0  0  0  0  0  0  0
  151.5355  137.4697  154.9756 C   0  0  0  0  0  0  0  0  0  0  0  0
  151.7995  138.9207  155.3881 C   0  0  0  0  0  0  0  0  0  0  0  0
  152.8198  139.5007  155.0155 O   0  0  0  0  0  0  0  0  0  0  0  0
  150.8638  139.5013  156.1549 N   0  0  0  0  0  0  0  0  0  0  0  0
  150.9190  140.8738  156.6452 C   0  0  0  0  0  0  0  0  0  0  0  0
  151.2219  140.9234  158.1520 C   0  0  0  0  0  0  0  0  0  0  0  0
  151.2088  142.3394  158.6952 C   0  0  0  0  0  0  0  0  0  0  0  0
  152.3539  142.8830  159.3155 C   0  0  0  0  0  0  0  0  0  0  0  0
  152.2885  144.2013  159.8069 C   0  0  0  0  0  0  0  0  0  0  0  0
  151.0868  144.9207  159.6614 C   0  0  0  0  0  0  0  0  0  0  0  0
  149.9990  144.2870  159.0281 C   0  0  0  0  0  0  0  0  0  0  0  0
  150.0510  143.0237  158.5533 N   0  0  0  0  0  0  0  0  0  0  0  0
  147.8892  133.1033  156.6726 H   0  0  0  0  0  0  0  0  0  0  0  0
  146.6801  132.0085  155.9945 H   0  0  0  0  0  0  0  0  0  0  0  0
  146.6260  133.7326  155.6009 H   0  0  0  0  0  0  0  0  0  0  0  0
  147.5956  132.3033  153.7089 H   0  0  0  0  0  0  0  0  0  0  0  0
  149.8963  131.8826  155.7669 H   0  0  0  0  0  0  0  0  0  0  0  0
  149.8534  131.2685  154.0382 H   0  0  0  0  0  0  0  0  0  0  0  0
  149.5773  133.6197  153.1695 H   0  0  0  0  0  0  0  0  0  0  0  0
  149.4944  135.8326  153.5868 H   0  0  0  0  0  0  0  0  0  0  0  0
  149.3914  137.7912  154.8526 H   0  0  0  0  0  0  0  0  0  0  0  0
  149.8811  136.9373  156.2985 H   0  0  0  0  0  0  0  0  0  0  0  0
  152.2233  136.8293  155.5292 H   0  0  0  0  0  0  0  0  0  0  0  0
  151.7752  137.3459  153.9183 H   0  0  0  0  0  0  0  0  0  0  0  0
  150.0541  138.9561  156.4137 H   0  0  0  0  0  0  0  0  0  0  0  0
  151.6967  141.3999  156.0907 H   0  0  0  0  0  0  0  0  0  0  0  0
  149.9811  141.3875  156.4273 H   0  0  0  0  0  0  0  0  0  0  0  0
  150.4942  140.3266  158.7033 H   0  0  0  0  0  0  0  0  0  0  0  0
  152.1972  140.4771  158.3517 H   0  0  0  0  0  0  0  0  0  0  0  0
  153.2612  142.3051  159.4139 H   0  0  0  0  0  0  0  0  0  0  0  0
  153.1445  144.6521  160.2871 H   0  0  0  0  0  0  0  0  0  0  0  0
  151.0005  145.9336  160.0262 H   0  0  0  0  0  0  0  0  0  0  0  0
  149.0620  144.8086  158.8999 H   0  0  0  0  0  0  0  0  0  0  0  0
  1  2  1  0  0  0  0
  1 21  1  0  0  0  0
  1 22  1  0  0  0  0
  1 23  1  0  0  0  0
  2  4  1  0  0  0  0
  2  3  1  0  0  0  0
  2 24  1  0  0  0  0
  3  4  1  0  0  0  0
  3 25  1  0  0  0  0
  3 26  1  0  0  0  0
  4  5  1  0  0  0  0
  4 27  1  0  0  0  0
  5  6  2  0  0  0  0
  5  7  1  0  0  0  0
  7  8  1  0  0  0  0
  7 28  1  0  0  0  0
  8  9  1  0  0  0  0
  8 29  1  0  0  0  0
  8 30  1  0  0  0  0
  9 10  1  0  0  0  0
  9 31  1  0  0  0  0
  9 32  1  0  0  0  0
 10 11  2  0  0  0  0
 10 12  1  0  0  0  0
 12 13  1  0  0  0  0
 12 33  1  0  0  0  0
 13 14  1  0  0  0  0
 13 34  1  0  0  0  0
 13 35  1  0  0  0  0
 14 15  1  0  0  0  0
 14 36  1  0  0  0  0
 14 37  1  0  0  0  0
 15 20  1  0  0  0  0
 15 16  2  0  0  0  0
 16 17  1  0  0  0  0
 16 38  1  0  0  0  0
 17 18  2  0  0  0  0
 17 39  1  0  0  0  0
 18 19  1  0  0  0  0
 18 40  1  0  0  0  0
 19 20  2  0  0  0  0
 19 41  1  0  0  0  0
M  END
> <s_m_source_file>
AV-unprocessed.smi

> <i_m_source_file_index>
1356

> <i_lp_mmshare_version>
43012

> <i_f3d_flags>
0

> <s_epik_input>
W0NIM11bQ0BASF0xW0NIMl1bQ0BIXTFDKD1PKVtOSF1bQ0gyXVtDSDJdQyg9TylbTkhdW0NIMl1bQ0gyXWMyW2NIXVtjSF1bY0hdW2NIXW4y

> <s_epik_cmdline>
J2VwaWtfcHl0aG9uJywgJy1waCcsICc3LjAnLCAnLXRuJywgJzgnLCAnLW1hJywgJzIwMCcsICctbWV0YWxfYmluZGluZycsICctaW1hZScsICc8aW5maWxlLm1hZT4nLCAnLW9tYWUnLCAnPG91dGZpbGUubWFlPic=

> <r_epik_Ionization_Penalty>
0.0258005

> <r_epik_Ionization_Penalty_Charging>
0

> <r_epik_Ionization_Penalty_Neutral>
0.0258005

> <r_epik_State_Penalty>
0.0210245

> <r_epik_Charging_Adjusted_Penalty>
0.0210245

> <i_epik_Tot_Q>
0

> <i_epik_Tot_abs_Q>
0

> <r_epik_Metal_State_Penalty>
0.0201445

> <b_epik_Metal_Only>
0

> <s_lp_Force_Field>
OPLS_2005

> <r_lp_Energy>
6.96632

> <b_lp_Chiralities_Consistent>
1

> <s_lp_Variant>
AV-unprocessed.smi:1356-3

> <Gold.Version>
5.8.1

> <Gold.Id.Protein>
6NUR|6NUR_protein|mol2

> <Gold.PLP.Fitness>
49.3163

> <Gold.PLP.PLP>
-40.1255

> <Gold.PLP.part.hbond>
-3.5025

> <Gold.PLP.part.metal>
0.0000

> <Gold.PLP.part.buried>
-6.1162

> <Gold.PLP.part.nonpolar>
-32.6633

> <Gold.PLP.part.repulsive>
0.3121

> <Gold.PLP.ligand.clash>
0.0059

> <Gold.PLP.ligand.torsion>
0.5055

> <Gold.PLP.Chemscore.Hbond>
2.3027

> <Gold.PLP.Chemscore.CHOScore>
1.0000

> <Gold.PLP.Chemscore.Metal>
0.0000

> <Gold.Chemscore.Hbonds>
donor molecule, donor type, donor heavy atom, donor atom, acceptor molecule, acceptor atom, score
      L1  H     7    28       P1  7948  1.00
      P1  H  7989  7998       L1    11  0.09
      P1  H  7997  8010       L1    11  1.00
      L1  C    19    41       P1  8029  1.00

> <Gold.PLP.Chemscore.Internal.Correction>
0.2996

> <Gold.Rescore>
     Score         DG    S(hbond)    S(metal)    S(lipo)     H(rot)  DE(clash)    DE(int)     intcor
     17.12     -17.81       1.96        0.00      97.04       2.18       0.13       0.56       ----

> <Gold.Chemscore.Fitness>
17.1175

> <Gold.Chemscore.DG>
-17.8073

> <Gold.Chemscore.ZeroCoef>
-5.4800

> <Gold.Chemscore.Hbond>
1.9588

> <Gold.Chemscore.Metal>
0.0000

> <Gold.Chemscore.Lipo>
97.0402

> <Gold.Chemscore.Internal_Hbond>
0.0000

> <Gold.Chemscore.DEClash>
0.1301

> <Gold.Chemscore.DEInternal>
0.5597

> <Gold.Chemscore.Rot>
2.1753

> <Gold.Chemscore.Internal.Correction>
   9.000000E+99

> <Gold.Chemscore.Hbonds>
donor molecule, donor type, donor heavy atom, donor atom, acceptor molecule, acceptor atom, score
      L1  H     7    28       P1  7948  0.35
      P1  H  7989  7998       L1    11  0.01
      P1  H  7997  8010       L1    11  0.98

> <Gold.Chemscore.Hbond.Weighted>
-6.5423

> <Gold.Chemscore.Metal.Weighted>
-0.0000

> <Gold.Chemscore.Lipo.Weighted>
-11.3537

> <Gold.Chemscore.Internal_Hbond.Weighted>
0.0000

> <Gold.Chemscore.DEClash.Weighted>
0.1301

> <Gold.Chemscore.DEInternal.Weighted>
0.5597

> <Gold.Chemscore.Rot.Weighted>
5.5687

> <Gold.Chemscore.Internal.Correction.Weighted>
   9.000000E+99

> <Gold.Protein.RotatedTorsions>
[ 6907 6896 6895 6894 ] final   81.21 input  -60.11 | X-H torsion
[ 7974 7965 7964 7962 ] final -159.80 input  175.53 | X-H torsion
[ 8008 7997 7996 7995 ] final  104.97 input   59.86 | X-H torsion
[ 10167 10162 10161 10158 ] final  -23.64 input  -65.29 | X-H torsion
[ 10718 10713 10712 10709 ] final   22.81 input   66.30 | X-H torsion
[ 10763 10752 10751 10750 ] final  -65.10 input  -60.55 | X-H torsion
[ 11005 11000 10999 10996 ] final  -14.16 input  -57.11 | X-H torsion

> <Gold.Protein.ActiveResidues>
 VAL166  LYS551  ARG553  GLY616  TRP617  ASP618  TYR619  PRO620  LYS621  CYS622 
 ASP623  PHE694  ASN695  SER759  ASP760  ASP761  ALA762  ILE779  LEU786  VAL792 
 PHE793  MET794  SER795  GLU796  ALA797  LYS798  CYS799  TRP800  GLU811  SER814 

> <Gold.Protein.RotatedAtoms>
  152.5261  134.3239  159.9158 H   0  0  0  0  0  0  0  0  0  0  0  0  # atno 6907 bound_to 6896
  151.3188  133.4042  159.2660 H   0  0  0  0  0  0  0  0  0  0  0  0  # atno 6908 bound_to 6896
  150.9976  134.9313  159.7993 H   0  0  0  0  0  0  0  0  0  0  0  0  # atno 6909 bound_to 6896
  144.7451  140.3633  143.6091 H   0  0  0  0  0  0  0  0  0  0  0  0  # atno 7974 bound_to 7965
  156.1619  140.3138  155.8822 H   0  0  0  0  0  0  0  0  0  0  0  0  # atno 8008 bound_to 7997
  155.3765  140.0485  157.3061 H   0  0  0  0  0  0  0  0  0  0  0  0  # atno 8009 bound_to 7997
  154.5155  140.2179  155.9086 H   0  0  0  0  0  0  0  0  0  0  0  0  # atno 8010 bound_to 7997
  140.7288  143.4425  151.0635 H   0  0  0  0  0  0  0  0  0  0  0  0  # atno 10167 bound_to 10162
  157.1575  130.6702  149.6032 H   0  0  0  0  0  0  0  0  0  0  0  0  # atno 10718 bound_to 10713
  154.3399  135.6159  153.5591 H   0  0  0  0  0  0  0  0  0  0  0  0  # atno 10763 bound_to 10752
  152.9805  135.5767  154.4864 H   0  0  0  0  0  0  0  0  0  0  0  0  # atno 10764 bound_to 10752
  154.4566  135.2854  155.1720 H   0  0  0  0  0  0  0  0  0  0  0  0  # atno 10765 bound_to 10752
  140.7835  133.8344  155.9314 H   0  0  0  0  0  0  0  0  0  0  0  0  # atno 11005 bound_to 11000
  145.7155  139.1696  143.2514 LP  0  0  0  0  0  0  0  0  0  0  0  0  # atno 17320 bound_to 7965
  146.1316  140.7178  142.9409 LP  0  0  0  0  0  0  0  0  0  0  0  0  # atno 17321 bound_to 7965
  139.8094  143.7973  152.3170 LP  0  0  0  0  0  0  0  0  0  0  0  0  # atno 17342 bound_to 10162
  139.8017  144.7371  150.9816 LP  0  0  0  0  0  0  0  0  0  0  0  0  # atno 17343 bound_to 10162
  155.9759  130.4723  150.6495 LP  0  0  0  0  0  0  0  0  0  0  0  0  # atno 17370 bound_to 10713
  157.4163  131.0830  151.1173 LP  0  0  0  0  0  0  0  0  0  0  0  0  # atno 17371 bound_to 10713
  140.9459  134.1841  157.4764 LP  0  0  0  0  0  0  0  0  0  0  0  0  # atno 17394 bound_to 11000
  139.8739  134.9890  156.5438 LP  0  0  0  0  0  0  0  0  0  0  0  0  # atno 17395 bound_to 11000

$$$$
