AV-unprocessed.smi:3298|AV-procd|sdf|12643|dock9
  -GOLD-   2272018573D 1   1.00000     0.00000
 Structure written by MMmdl.
 35 36  0  0  0  0  0  0  0  0  1 V2000
  151.5612  140.1039  155.7638 C   0  0  0  0  0  0  0  0  0  0  0  0
  150.2085  140.2245  155.0934 C   0  0  0  0  0  0  0  0  0  0  0  0
  149.6240  139.1200  154.4388 C   0  0  0  0  0  0  0  0  0  0  0  0
  148.3678  139.2833  153.8188 C   0  0  0  0  0  0  0  0  0  0  0  0
  147.7927  138.1501  153.1827 N   0  0  0  0  0  0  0  0  0  0  0  0
  146.5024  137.7753  153.1386 C   0  0  0  0  0  0  0  0  0  0  0  0
  145.5586  138.4037  153.6184 O   0  0  0  0  0  0  0  0  0  0  0  0
  146.3575  136.6169  152.4798 N   0  0  0  0  0  0  0  0  0  0  0  0
  145.0883  135.9313  152.2656 C   0  0  1  0  0  0  0  0  0  0  0  0
  144.8583  135.7056  150.7953 C   0  0  0  0  0  0  0  0  0  0  0  0
  144.7230  134.4178  150.4863 C   0  0  0  0  0  0  0  0  0  0  0  0
  144.8463  133.5171  151.6880 C   0  0  1  0  0  0  0  0  0  0  0  0
  145.9465  132.4495  151.5323 C   0  0  0  0  0  0  0  0  0  0  0  0
  147.1692  133.0153  151.1012 O   0  0  0  0  0  0  0  0  0  0  0  0
  145.0736  134.4997  152.8655 C   0  0  0  0  0  0  0  0  0  0  0  0
  147.7414  140.5499  153.9048 C   0  0  0  0  0  0  0  0  0  0  0  0
  148.4108  141.5878  154.5828 C   0  0  0  0  0  0  0  0  0  0  0  0
  149.6196  141.4378  155.1645 N   0  0  0  0  0  0  0  0  0  0  0  0
  144.2650  136.5288  152.6608 H   0  0  0  0  0  0  0  0  0  0  0  0
  143.8871  133.0151  151.8201 H   0  0  0  0  0  0  0  0  0  0  0  0
  151.8871  139.0644  155.8119 H   0  0  0  0  0  0  0  0  0  0  0  0
  151.5200  140.4930  156.7816 H   0  0  0  0  0  0  0  0  0  0  0  0
  152.3089  140.6709  155.2086 H   0  0  0  0  0  0  0  0  0  0  0  0
  150.1328  138.1673  154.4085 H   0  0  0  0  0  0  0  0  0  0  0  0
  148.4388  137.5722  152.6657 H   0  0  0  0  0  0  0  0  0  0  0  0
  147.1842  136.1665  152.1155 H   0  0  0  0  0  0  0  0  0  0  0  0
  144.8034  136.5217  150.0900 H   0  0  0  0  0  0  0  0  0  0  0  0
  144.5445  134.0319  149.4936 H   0  0  0  0  0  0  0  0  0  0  0  0
  146.1109  131.9368  152.4804 H   0  0  0  0  0  0  0  0  0  0  0  0
  145.6384  131.6926  150.8099 H   0  0  0  0  0  0  0  0  0  0  0  0
  147.6830  132.3393  150.6862 H   0  0  0  0  0  0  0  0  0  0  0  0
  145.9972  134.2741  153.4013 H   0  0  0  0  0  0  0  0  0  0  0  0
  144.2670  134.4074  153.5940 H   0  0  0  0  0  0  0  0  0  0  0  0
  146.7677  140.7417  153.4815 H   0  0  0  0  0  0  0  0  0  0  0  0
  147.9588  142.5649  154.6655 H   0  0  0  0  0  0  0  0  0  0  0  0
  1  2  1  0  0  0  0
  1 21  1  0  0  0  0
  1 22  1  0  0  0  0
  1 23  1  0  0  0  0
  2 18  1  0  0  0  0
  2  3  2  0  0  0  0
  3  4  1  0  0  0  0
  3 24  1  0  0  0  0
  4  5  1  0  0  0  0
  4 16  2  0  0  0  0
  5  6  1  0  0  0  0
  5 25  1  0  0  0  0
  6  7  2  0  0  0  0
  6  8  1  0  0  0  0
  8  9  1  0  0  0  0
  8 26  1  0  0  0  0
  9 19  1  0  0  0  0
  9 15  1  0  0  0  0
  9 10  1  0  0  0  0
 10 11  2  0  0  0  0
 10 27  1  0  0  0  0
 11 12  1  0  0  0  0
 11 28  1  0  0  0  0
 12 20  1  0  0  0  0
 12 13  1  0  0  0  0
 12 15  1  0  0  0  0
 13 14  1  0  0  0  0
 13 29  1  0  0  0  0
 13 30  1  0  0  0  0
 14 31  1  0  0  0  0
 15 32  1  0  0  0  0
 15 33  1  0  0  0  0
 16 17  1  0  0  0  0
 16 34  1  0  0  0  0
 17 18  2  0  0  0  0
 17 35  1  0  0  0  0
M  END
> <s_m_source_file>
AV-unprocessed.smi

> <i_m_source_file_index>
3298

> <i_lp_mmshare_version>
43012

> <i_f3d_flags>
0

> <s_epik_input>
W0NIM11jMVtjSF1jKFtjSF1bY0hdbjEpW05IXUMoPU8pW05IXVtDQEBIXTJbQ0hdPVtDSF1bQ0BASF0oW0NIMl0yKVtDSDJdW09IXQ==

> <s_epik_cmdline>
J2VwaWtfcHl0aG9uJywgJy1waCcsICc3LjAnLCAnLXRuJywgJzgnLCAnLW1hJywgJzIwMCcsICctbWV0YWxfYmluZGluZycsICctaW1hZScsICc8aW5maWxlLm1hZT4nLCAnLW9tYWUnLCAnPG91dGZpbGUubWFlPic=

> <r_epik_Ionization_Penalty>
0.379275

> <r_epik_Ionization_Penalty_Charging>
0

> <r_epik_Ionization_Penalty_Neutral>
0.379275

> <r_epik_State_Penalty>
0.377195

> <r_epik_Charging_Adjusted_Penalty>
0.377195

> <i_epik_Tot_Q>
0

> <i_epik_Tot_abs_Q>
0

> <r_epik_Metal_State_Penalty>
0.22815

> <b_epik_Metal_Only>
0

> <s_lp_Force_Field>
OPLS_2005

> <r_lp_Energy>
21.2721

> <b_lp_Chiralities_Consistent>
1

> <s_lp_Variant>
AV-unprocessed.smi:3298-4

> <Gold.Version>
5.8.1

> <Gold.Id.Protein>
6NUR|6NUR_protein|mol2

> <Gold.PLP.Fitness>
41.5761

> <Gold.PLP.PLP>
-30.3346

> <Gold.PLP.part.hbond>
-3.2402

> <Gold.PLP.part.metal>
0.0000

> <Gold.PLP.part.buried>
-1.2526

> <Gold.PLP.part.nonpolar>
-25.9134

> <Gold.PLP.part.repulsive>
0.8754

> <Gold.PLP.ligand.clash>
0.0000

> <Gold.PLP.ligand.torsion>
0.3241

> <Gold.PLP.Chemscore.Hbond>
2.9600

> <Gold.PLP.Chemscore.CHOScore>
0.9989

> <Gold.PLP.Chemscore.Metal>
0.0000

> <Gold.Chemscore.Hbonds>
donor molecule, donor type, donor heavy atom, donor atom, acceptor molecule, acceptor atom, score
      L1  H     5    25       P1  7948  1.00
      L1  H     8    26       P1  7948  0.98
      L1  H    14    31       P1 10747  1.00
      L1  C    17    35       P1  8028  1.00

> <Gold.PLP.Chemscore.Internal.Correction>
0.0129

> <Gold.Rescore>
     Score         DG    S(hbond)    S(metal)    S(lipo)     H(rot)  DE(clash)    DE(int)     intcor
     17.86     -18.88       2.94        0.00      69.60       1.78       0.03       0.99       ----

> <Gold.Chemscore.Fitness>
17.8577

> <Gold.Chemscore.DG>
-18.8790

> <Gold.Chemscore.ZeroCoef>
-5.4800

> <Gold.Chemscore.Hbond>
2.9376

> <Gold.Chemscore.Metal>
0.0000

> <Gold.Chemscore.Lipo>
69.6018

> <Gold.Chemscore.Internal_Hbond>
0.0000

> <Gold.Chemscore.DEClash>
0.0305

> <Gold.Chemscore.DEInternal>
0.9908

> <Gold.Chemscore.Rot>
1.7796

> <Gold.Chemscore.Internal.Correction>
   9.000000E+99

> <Gold.Chemscore.Hbonds>
donor molecule, donor type, donor heavy atom, donor atom, acceptor molecule, acceptor atom, score
      L1  H     5    25       P1  7948  0.99
      L1  H     8    26       P1  7948  0.93
      L1  H    14    31       P1 10747  0.96

> <Gold.Chemscore.Hbond.Weighted>
-9.8115

> <Gold.Chemscore.Metal.Weighted>
-0.0000

> <Gold.Chemscore.Lipo.Weighted>
-8.1434

> <Gold.Chemscore.Internal_Hbond.Weighted>
0.0000

> <Gold.Chemscore.DEClash.Weighted>
0.0305

> <Gold.Chemscore.DEInternal.Weighted>
0.9908

> <Gold.Chemscore.Rot.Weighted>
4.5558

> <Gold.Chemscore.Internal.Correction.Weighted>
   9.000000E+99

> <Gold.Protein.RotatedTorsions>
[ 6907 6896 6895 6894 ] final  120.00 input  -60.11 | X-H torsion
[ 7974 7965 7964 7962 ] final -114.31 input  175.53 | X-H torsion
[ 8008 7997 7996 7995 ] final  177.64 input   59.86 | X-H torsion
[ 10167 10162 10161 10158 ] final    3.54 input  -65.29 | X-H torsion
[ 10718 10713 10712 10709 ] final   -5.26 input   66.30 | X-H torsion
[ 10763 10752 10751 10750 ] final -139.03 input  -60.55 | X-H torsion
[ 11005 11000 10999 10996 ] final  -58.43 input  -57.11 | X-H torsion

> <Gold.Protein.ActiveResidues>
 VAL166  LYS551  ARG553  GLY616  TRP617  ASP618  TYR619  PRO620  LYS621  CYS622 
 ASP623  PHE694  ASN695  SER759  ASP760  ASP761  ALA762  ILE779  LEU786  VAL792 
 PHE793  MET794  SER795  GLU796  ALA797  LYS798  CYS799  TRP800  GLU811  SER814 

> <Gold.Protein.RotatedAtoms>
  152.4430  133.7484  159.6679 H   0  0  0  0  0  0  0  0  0  0  0  0  # atno 6907 bound_to 6896
  150.8325  133.8058  159.3099 H   0  0  0  0  0  0  0  0  0  0  0  0  # atno 6908 bound_to 6896
  151.5707  135.1065  160.0046 H   0  0  0  0  0  0  0  0  0  0  0  0  # atno 6909 bound_to 6896
  145.1217  140.8673  143.3810 H   0  0  0  0  0  0  0  0  0  0  0  0  # atno 7974 bound_to 7965
  156.0635  140.1353  156.9914 H   0  0  0  0  0  0  0  0  0  0  0  0  # atno 8008 bound_to 7997
  154.4494  140.0986  156.6623 H   0  0  0  0  0  0  0  0  0  0  0  0  # atno 8009 bound_to 7997
  155.5341  140.3459  155.4435 H   0  0  0  0  0  0  0  0  0  0  0  0  # atno 8010 bound_to 7997
  140.6580  143.7377  150.7688 H   0  0  0  0  0  0  0  0  0  0  0  0  # atno 10167 bound_to 10162
  156.7492  130.5234  149.5807 H   0  0  0  0  0  0  0  0  0  0  0  0  # atno 10718 bound_to 10713
  154.8621  135.3594  154.5481 H   0  0  0  0  0  0  0  0  0  0  0  0  # atno 10763 bound_to 10752
  153.6100  135.7010  153.5355 H   0  0  0  0  0  0  0  0  0  0  0  0  # atno 10764 bound_to 10752
  153.3218  135.4149  155.1383 H   0  0  0  0  0  0  0  0  0  0  0  0  # atno 10765 bound_to 10752
  141.1207  133.6612  156.4919 H   0  0  0  0  0  0  0  0  0  0  0  0  # atno 11005 bound_to 11000
  145.0733  139.3015  143.5821 LP  0  0  0  0  0  0  0  0  0  0  0  0  # atno 17320 bound_to 7965
  146.3520  140.0215  142.8658 LP  0  0  0  0  0  0  0  0  0  0  0  0  # atno 17321 bound_to 7965
  140.1040  143.4761  152.2409 LP  0  0  0  0  0  0  0  0  0  0  0  0  # atno 17342 bound_to 10162
  139.5807  144.7509  151.3647 LP  0  0  0  0  0  0  0  0  0  0  0  0  # atno 17343 bound_to 10162
  156.1413  130.6246  151.0471 LP  0  0  0  0  0  0  0  0  0  0  0  0  # atno 17370 bound_to 10713
  157.6785  131.0844  150.7433 LP  0  0  0  0  0  0  0  0  0  0  0  0  # atno 17371 bound_to 10713
  140.4516  134.6923  157.5042 LP  0  0  0  0  0  0  0  0  0  0  0  0  # atno 17394 bound_to 11000
  140.0162  134.6616  155.9307 LP  0  0  0  0  0  0  0  0  0  0  0  0  # atno 17395 bound_to 11000

$$$$
