AV-unprocessed.smi:24|AV-procd|sdf|178|dock10
  -GOLD-   2262015443D 1   1.00000     0.00000
 Structure written by MMmdl.
 61 65  0  0  0  0  0  0  0  0  1 V2000
  137.6985  140.0262  153.3018 C   0  0  0  0  0  0  0  0  0  0  0  0
  139.0994  140.1097  153.5195 O   0  0  0  0  0  0  0  0  0  0  0  0
  139.7990  138.9351  153.6945 C   0  0  0  0  0  0  0  0  0  0  0  0
  141.1879  139.0422  153.9091 C   0  0  0  0  0  0  0  0  0  0  0  0
  141.9817  137.8933  154.0886 C   0  0  0  0  0  0  0  0  0  0  0  0
  141.3974  136.6113  154.0540 C   0  0  0  0  0  0  0  0  0  0  0  0
  142.2798  135.3782  154.2440 C   0  0  1  0  0  0  0  0  0  0  0  0
  142.3276  134.5007  152.9900 C   0  0  0  0  0  0  0  0  0  0  0  0
  143.7942  134.4365  152.7227 C   0  0  0  0  0  0  0  0  0  0  0  0
  144.3452  133.6760  151.5788 C   0  0  0  0  0  0  0  0  0  0  0  0
  143.4721  132.9234  150.7604 C   0  0  0  0  0  0  0  0  0  0  0  0
  143.9941  132.2054  149.6667 C   0  0  0  0  0  0  0  0  0  0  0  0
  145.3756  132.2391  149.3923 C   0  0  0  0  0  0  0  0  0  0  0  0
  146.2420  132.9901  150.2114 C   0  0  0  0  0  0  0  0  0  0  0  0
  145.7320  133.7121  151.3086 C   0  0  0  0  0  0  0  0  0  0  0  0
  144.5031  135.0913  153.5659 N   0  0  0  0  0  0  0  0  0  0  0  0
  143.6987  135.6647  154.4955 N   0  0  0  0  0  0  0  0  0  0  0  0
  144.1703  136.3248  155.5765 C   0  0  0  0  0  0  0  0  0  0  0  0
  143.4250  136.7172  156.4762 O   0  0  0  0  0  0  0  0  0  0  0  0
  145.6894  136.5790  155.6725 C   0  0  0  0  0  0  0  0  0  0  0  0
  146.3102  135.9766  156.8722 N   0  0  0  0  0  0  0  0  0  0  0  0
  147.1727  134.8643  156.7110 C   0  0  0  0  0  0  0  0  0  0  0  0
  147.4168  134.4008  155.5960 O   0  0  0  0  0  0  0  0  0  0  0  0
  147.7313  134.3175  157.9425 C   0  0  0  0  0  0  0  0  0  0  0  0
  148.5702  133.2693  157.8846 F   0  0  0  0  0  0  0  0  0  0  0  0
  147.4197  134.8475  159.1434 C   0  0  0  0  0  0  0  0  0  0  0  0
  146.5625  135.9239  159.2865 N   0  0  0  0  0  0  0  0  0  0  0  0
  146.2094  136.4967  160.6422 C   0  0  1  0  0  0  0  0  0  0  0  0
  145.5927  135.4108  161.5430 C   0  0  0  0  0  0  0  0  0  0  0  0
  146.3978  135.5425  162.8200 C   0  0  0  0  0  0  0  0  0  0  0  0
  147.7401  136.0297  162.2954 C   0  0  0  0  0  0  0  0  0  0  0  0
  147.3671  136.9547  161.2820 O   0  0  0  0  0  0  0  0  0  0  0  0
  145.9878  136.5147  158.1408 C   0  0  0  0  0  0  0  0  0  0  0  0
  145.2163  137.4710  158.2475 O   0  0  0  0  0  0  0  0  0  0  0  0
  140.0038  136.4964  153.8548 C   0  0  0  0  0  0  0  0  0  0  0  0
  139.2109  137.6457  153.6724 C   0  0  0  0  0  0  0  0  0  0  0  0
  137.2961  141.0295  153.1628 H   0  0  0  0  0  0  0  0  0  0  0  0
  137.1883  139.5818  154.1576 H   0  0  0  0  0  0  0  0  0  0  0  0
  137.4675  139.4513  152.4039 H   0  0  0  0  0  0  0  0  0  0  0  0
  141.6514  140.0176  153.9327 H   0  0  0  0  0  0  0  0  0  0  0  0
  143.0448  138.0004  154.2477 H   0  0  0  0  0  0  0  0  0  0  0  0
  141.8983  134.7928  155.0830 H   0  0  0  0  0  0  0  0  0  0  0  0
  141.9118  133.5104  153.1796 H   0  0  0  0  0  0  0  0  0  0  0  0
  141.7985  134.9487  152.1476 H   0  0  0  0  0  0  0  0  0  0  0  0
  142.4095  132.8858  150.9533 H   0  0  0  0  0  0  0  0  0  0  0  0
  143.3332  131.6286  149.0365 H   0  0  0  0  0  0  0  0  0  0  0  0
  145.7712  131.6880  148.5518 H   0  0  0  0  0  0  0  0  0  0  0  0
  147.3004  133.0131  149.9969 H   0  0  0  0  0  0  0  0  0  0  0  0
  146.4163  134.2814  151.9199 H   0  0  0  0  0  0  0  0  0  0  0  0
  146.1579  136.2163  154.7564 H   0  0  0  0  0  0  0  0  0  0  0  0
  145.8755  137.6545  155.6602 H   0  0  0  0  0  0  0  0  0  0  0  0
  147.8687  134.3972  160.0151 H   0  0  0  0  0  0  0  0  0  0  0  0
  145.5491  137.3433  160.4458 H   0  0  0  0  0  0  0  0  0  0  0  0
  144.5249  135.5788  161.6853 H   0  0  0  0  0  0  0  0  0  0  0  0
  145.7410  134.4243  161.1005 H   0  0  0  0  0  0  0  0  0  0  0  0
  145.9531  136.2980  163.4689 H   0  0  0  0  0  0  0  0  0  0  0  0
  146.4708  134.6089  163.3786 H   0  0  0  0  0  0  0  0  0  0  0  0
  148.3491  136.5027  163.0658 H   0  0  0  0  0  0  0  0  0  0  0  0
  148.3089  135.2058  161.8625 H   0  0  0  0  0  0  0  0  0  0  0  0
  139.5329  135.5244  153.8361 H   0  0  0  0  0  0  0  0  0  0  0  0
  138.1514  137.5104  153.5166 H   0  0  0  0  0  0  0  0  0  0  0  0
  1  2  1  0  0  0  0
  1 37  1  0  0  0  0
  1 38  1  0  0  0  0
  1 39  1  0  0  0  0
  2  3  1  0  0  0  0
  3 36  1  0  0  0  0
  3  4  2  0  0  0  0
  4  5  1  0  0  0  0
  4 40  1  0  0  0  0
  5  6  2  0  0  0  0
  5 41  1  0  0  0  0
  6  7  1  0  0  0  0
  6 35  1  0  0  0  0
  7 17  1  0  0  0  0
  7  8  1  0  0  0  0
  7 42  1  0  0  0  0
  8  9  1  0  0  0  0
  8 43  1  0  0  0  0
  8 44  1  0  0  0  0
  9 10  1  0  0  0  0
  9 16  2  0  0  0  0
 10 15  1  0  0  0  0
 10 11  2  0  0  0  0
 11 12  1  0  0  0  0
 11 45  1  0  0  0  0
 12 13  2  0  0  0  0
 12 46  1  0  0  0  0
 13 14  1  0  0  0  0
 13 47  1  0  0  0  0
 14 15  2  0  0  0  0
 14 48  1  0  0  0  0
 15 49  1  0  0  0  0
 16 17  1  0  0  0  0
 17 18  1  0  0  0  0
 18 19  2  0  0  0  0
 18 20  1  0  0  0  0
 20 21  1  0  0  0  0
 20 50  1  0  0  0  0
 20 51  1  0  0  0  0
 21 33  1  0  0  0  0
 21 22  1  0  0  0  0
 22 23  2  0  0  0  0
 22 24  1  0  0  0  0
 24 25  1  0  0  0  0
 24 26  2  0  0  0  0
 26 27  1  0  0  0  0
 26 52  1  0  0  0  0
 27 28  1  0  0  0  0
 27 33  1  0  0  0  0
 28 32  1  0  0  0  0
 28 29  1  0  0  0  0
 28 53  1  0  0  0  0
 29 30  1  0  0  0  0
 29 54  1  0  0  0  0
 29 55  1  0  0  0  0
 30 31  1  0  0  0  0
 30 56  1  0  0  0  0
 30 57  1  0  0  0  0
 31 32  1  0  0  0  0
 31 58  1  0  0  0  0
 31 59  1  0  0  0  0
 33 34  2  0  0  0  0
 35 36  2  0  0  0  0
 35 60  1  0  0  0  0
 36 61  1  0  0  0  0
M  END
> <s_m_source_file>
AV-unprocessed.smi

> <i_m_source_file_index>
24

> <i_lp_mmshare_version>
43012

> <i_f3d_flags>
0

> <s_epik_input>
W0NIM11PYzFbY0hdW2NIXWMoW2NIXVtjSF0xKVtDQEBIXTJbQ0gyXUMoYzNbY0hdW2NIXVtjSF1bY0hdW2NIXTMpPU5OMkMoPU8pW0NIMl1uNGMoPU8pYyhGKVtjSF1uKGM0PU8pW0NAQEhdNVtDSDJdW0NIMl1bQ0gyXU81

> <s_epik_cmdline>
J2VwaWtfcHl0aG9uJywgJy1waCcsICc3LjAnLCAnLXRuJywgJzgnLCAnLW1hJywgJzIwMCcsICctbWV0YWxfYmluZGluZycsICctaW1hZScsICc8aW5maWxlLm1hZT4nLCAnLW9tYWUnLCAnPG91dGZpbGUubWFlPic=

> <r_lp_tautomer_probability>
1

> <r_epik_Ionization_Penalty>
1.46326e-08

> <r_epik_Ionization_Penalty_Charging>
4.53232e-09

> <r_epik_Ionization_Penalty_Neutral>
1.01002e-08

> <r_epik_State_Penalty>
-0

> <r_epik_Charging_Adjusted_Penalty>
4.53232e-09

> <i_epik_Tot_Q>
0

> <i_epik_Tot_abs_Q>
0

> <r_epik_Metal_State_Penalty>
-0

> <b_epik_Metal_Only>
0

> <s_epik_Chemistry_Notes>
This compound has an imine and may undergo hydrolysis. This compound contains an acetal/aminal-like group ( X-CH(R)-Y where X, Y are N, S, or O) that may be acid/base labile, releasing an aldehyde.

> <s_lp_Force_Field>
OPLS_2005

> <r_lp_Energy>
49.9994

> <b_lp_Chiralities_Consistent>
1

> <s_lp_Variant>
AV-unprocessed.smi:24-4

> <Gold.Version>
5.8.1

> <Gold.Id.Protein>
6NUR|6NUR_protein|mol2

> <Gold.PLP.Fitness>
51.3913

> <Gold.PLP.PLP>
-47.8395

> <Gold.PLP.part.hbond>
-2.0000

> <Gold.PLP.part.metal>
0.0000

> <Gold.PLP.part.buried>
-4.5069

> <Gold.PLP.part.nonpolar>
-42.3914

> <Gold.PLP.part.repulsive>
1.0790

> <Gold.PLP.ligand.clash>
0.0000

> <Gold.PLP.ligand.torsion>
0.1455

> <Gold.PLP.Chemscore.Hbond>
1.2541

> <Gold.PLP.Chemscore.CHOScore>
0.0000

> <Gold.PLP.Chemscore.Metal>
0.0000

> <Gold.Chemscore.Hbonds>
donor molecule, donor type, donor heavy atom, donor atom, acceptor molecule, acceptor atom, score
      P1  H  6931  6943       L1    32  0.26
      P1  H  6934  6947       L1    32  0.81

> <Gold.PLP.Chemscore.Internal.Correction>
0.0805

> <Gold.Rescore>
     Score         DG    S(hbond)    S(metal)    S(lipo)     H(rot)  DE(clash)    DE(int)     intcor
     17.28     -19.80       0.86        0.00     141.15       1.98       0.45       2.07       ----

> <Gold.Chemscore.Fitness>
17.2791

> <Gold.Chemscore.DG>
-19.8020

> <Gold.Chemscore.ZeroCoef>
-5.4800

> <Gold.Chemscore.Hbond>
0.8574

> <Gold.Chemscore.Metal>
0.0000

> <Gold.Chemscore.Lipo>
141.1489

> <Gold.Chemscore.Internal_Hbond>
0.0000

> <Gold.Chemscore.DEClash>
0.4530

> <Gold.Chemscore.DEInternal>
2.0700

> <Gold.Chemscore.Rot>
1.9750

> <Gold.Chemscore.Internal.Correction>
   9.000000E+99

> <Gold.Chemscore.Hbonds>
donor molecule, donor type, donor heavy atom, donor atom, acceptor molecule, acceptor atom, score
      P1  H  6931  6943       L1    32  0.01
      P1  H  6934  6947       L1    32  0.20

> <Gold.Chemscore.Hbond.Weighted>
-2.8637

> <Gold.Chemscore.Metal.Weighted>
-0.0000

> <Gold.Chemscore.Lipo.Weighted>
-16.5144

> <Gold.Chemscore.Internal_Hbond.Weighted>
0.0000

> <Gold.Chemscore.DEClash.Weighted>
0.4530

> <Gold.Chemscore.DEInternal.Weighted>
2.0700

> <Gold.Chemscore.Rot.Weighted>
5.0561

> <Gold.Chemscore.Internal.Correction.Weighted>
   9.000000E+99

> <Gold.Protein.RotatedTorsions>
[ 6907 6896 6895 6894 ] final  -72.88 input  -60.11 | X-H torsion
[ 7974 7965 7964 7962 ] final -140.42 input  175.53 | X-H torsion
[ 8008 7997 7996 7995 ] final  -25.66 input   59.86 | X-H torsion
[ 10167 10162 10161 10158 ] final   41.23 input  -65.29 | X-H torsion
[ 10718 10713 10712 10709 ] final   61.43 input   66.30 | X-H torsion
[ 10763 10752 10751 10750 ] final   25.17 input  -60.55 | X-H torsion
[ 11005 11000 10999 10996 ] final  -61.12 input  -57.11 | X-H torsion

> <Gold.Protein.ActiveResidues>
 VAL166  LYS551  ARG553  GLY616  TRP617  ASP618  TYR619  PRO620  LYS621  CYS622 
 ASP623  PHE694  ASN695  SER759  ASP760  ASP761  ALA762  ILE779  LEU786  VAL792 
 PHE793  MET794  SER795  GLU796  ALA797  LYS798  CYS799  TRP800  GLU811  SER814 

> <Gold.Protein.RotatedAtoms>
  150.7152  134.5097  159.5601 H   0  0  0  0  0  0  0  0  0  0  0  0  # atno 6907 bound_to 6896
  152.2677  134.7964  160.0429 H   0  0  0  0  0  0  0  0  0  0  0  0  # atno 6908 bound_to 6896
  151.8655  133.3430  159.3754 H   0  0  0  0  0  0  0  0  0  0  0  0  # atno 6909 bound_to 6896
  144.8598  140.6201  143.5335 H   0  0  0  0  0  0  0  0  0  0  0  0  # atno 7974 bound_to 7965
  154.4464  140.1920  156.0654 H   0  0  0  0  0  0  0  0  0  0  0  0  # atno 8008 bound_to 7997
  156.0551  140.3303  155.7369 H   0  0  0  0  0  0  0  0  0  0  0  0  # atno 8009 bound_to 7997
  155.5497  140.0594  157.2843 H   0  0  0  0  0  0  0  0  0  0  0  0  # atno 8010 bound_to 7997
  140.3664  144.2162  150.6135 H   0  0  0  0  0  0  0  0  0  0  0  0  # atno 10167 bound_to 10162
  157.5828  130.8994  149.9461 H   0  0  0  0  0  0  0  0  0  0  0  0  # atno 10718 bound_to 10713
  153.0711  135.6589  154.0246 H   0  0  0  0  0  0  0  0  0  0  0  0  # atno 10763 bound_to 10752
  153.9891  135.2948  155.3415 H   0  0  0  0  0  0  0  0  0  0  0  0  # atno 10764 bound_to 10752
  154.7086  135.5215  153.8702 H   0  0  0  0  0  0  0  0  0  0  0  0  # atno 10765 bound_to 10752
  141.1313  133.6627  156.5327 H   0  0  0  0  0  0  0  0  0  0  0  0  # atno 11005 bound_to 11000
  145.4334  139.1546  143.4010 LP  0  0  0  0  0  0  0  0  0  0  0  0  # atno 17320 bound_to 7965
  146.2852  140.4451  142.8761 LP  0  0  0  0  0  0  0  0  0  0  0  0  # atno 17321 bound_to 7965
  140.5077  143.2299  151.8583 LP  0  0  0  0  0  0  0  0  0  0  0  0  # atno 17342 bound_to 10162
  139.4808  144.4986  151.9090 LP  0  0  0  0  0  0  0  0  0  0  0  0  # atno 17343 bound_to 10162
  156.0874  130.3666  150.0460 LP  0  0  0  0  0  0  0  0  0  0  0  0  # atno 17370 bound_to 10713
  156.8597  130.9487  151.3619 LP  0  0  0  0  0  0  0  0  0  0  0  0  # atno 17371 bound_to 10713
  140.4203  134.7193  157.4886 LP  0  0  0  0  0  0  0  0  0  0  0  0  # atno 17394 bound_to 11000
  140.0365  134.6330  155.9037 LP  0  0  0  0  0  0  0  0  0  0  0  0  # atno 17395 bound_to 11000

$$$$
