AV-unprocessed.smi:2824|AV-procd|sdf|10886|dock5
  -GOLD-   2272015323D 1   1.00000     0.00000
 Structure written by MMmdl.
 38 39  0  0  0  0  0  0  0  0  1 V2000
  153.8744  140.9231  159.7484 C   0  0  0  0  0  0  0  0  0  0  0  0
  152.8833  141.9872  159.3156 C   0  0  0  0  0  0  0  0  0  0  0  0
  152.8685  143.2347  159.9744 C   0  0  0  0  0  0  0  0  0  0  0  0
  151.9567  144.2320  159.5841 C   0  0  0  0  0  0  0  0  0  0  0  0
  151.0555  143.9834  158.5338 C   0  0  0  0  0  0  0  0  0  0  0  0
  151.0663  142.7404  157.8728 C   0  0  0  0  0  0  0  0  0  0  0  0
  151.9824  141.7274  158.2561 C   0  0  0  0  0  0  0  0  0  0  0  0
  152.0501  140.4877  157.6535 O   0  0  0  0  0  0  0  0  0  0  0  0
  151.1346  140.1903  156.6076 C   0  0  0  0  0  0  0  0  0  0  0  0
  151.7338  139.0862  155.7205 C   0  0  2  0  0  0  0  0  0  0  0  0
  152.9683  139.5680  155.2256 O   0  0  0  0  0  0  0  0  0  0  0  0
  150.8270  138.7723  154.5094 C   0  0  0  0  0  0  0  0  0  0  0  0
  149.8236  137.7462  154.8177 N   0  0  0  0  0  0  0  0  0  0  0  0
  148.5213  138.1394  154.5637 N   0  0  0  0  0  0  0  0  0  0  0  0
  147.5239  137.3434  154.7788 C   0  0  0  0  0  0  0  0  0  0  0  0
  146.1413  137.8618  154.4680 C   0  0  0  0  0  0  0  0  0  0  0  0
  145.2175  136.9244  154.6821 F   0  0  0  0  0  0  0  0  0  0  0  0
  145.8626  138.9141  155.2382 F   0  0  0  0  0  0  0  0  0  0  0  0
  146.0708  138.2421  153.1920 F   0  0  0  0  0  0  0  0  0  0  0  0
  147.7835  136.0122  155.3018 C   0  0  0  0  0  0  0  0  0  0  0  0
  149.0549  135.6318  155.5510 C   0  0  0  0  0  0  0  0  0  0  0  0
  150.1853  136.5246  155.3080 C   0  0  0  0  0  0  0  0  0  0  0  0
  151.3549  136.2068  155.5222 O   0  0  0  0  0  0  0  0  0  0  0  0
  154.5061  141.2728  160.5655 H   0  0  0  0  0  0  0  0  0  0  0  0
  154.5211  140.6472  158.9151 H   0  0  0  0  0  0  0  0  0  0  0  0
  153.3476  140.0299  160.0855 H   0  0  0  0  0  0  0  0  0  0  0  0
  153.5579  143.4322  160.7822 H   0  0  0  0  0  0  0  0  0  0  0  0
  151.9480  145.1859  160.0902 H   0  0  0  0  0  0  0  0  0  0  0  0
  150.3536  144.7476  158.2340 H   0  0  0  0  0  0  0  0  0  0  0  0
  150.3576  142.5894  157.0731 H   0  0  0  0  0  0  0  0  0  0  0  0
  150.2095  139.8287  157.0594 H   0  0  0  0  0  0  0  0  0  0  0  0
  150.8948  141.0762  156.0166 H   0  0  0  0  0  0  0  0  0  0  0  0
  151.8974  138.1891  156.3190 H   0  0  0  0  0  0  0  0  0  0  0  0
  153.0277  139.3565  154.3067 H   0  0  0  0  0  0  0  0  0  0  0  0
  150.3052  139.6770  154.1916 H   0  0  0  0  0  0  0  0  0  0  0  0
  151.4300  138.4818  153.6466 H   0  0  0  0  0  0  0  0  0  0  0  0
  146.9635  135.3347  155.4882 H   0  0  0  0  0  0  0  0  0  0  0  0
  149.2431  134.6416  155.9391 H   0  0  0  0  0  0  0  0  0  0  0  0
  1  2  1  0  0  0  0
  1 24  1  0  0  0  0
  1 25  1  0  0  0  0
  1 26  1  0  0  0  0
  2  7  1  0  0  0  0
  2  3  2  0  0  0  0
  3  4  1  0  0  0  0
  3 27  1  0  0  0  0
  4  5  2  0  0  0  0
  4 28  1  0  0  0  0
  5  6  1  0  0  0  0
  5 29  1  0  0  0  0
  6  7  2  0  0  0  0
  6 30  1  0  0  0  0
  7  8  1  0  0  0  0
  8  9  1  0  0  0  0
  9 10  1  0  0  0  0
  9 31  1  0  0  0  0
  9 32  1  0  0  0  0
 10 11  1  0  0  0  0
 10 12  1  0  0  0  0
 10 33  1  0  0  0  0
 11 34  1  0  0  0  0
 12 13  1  0  0  0  0
 12 35  1  0  0  0  0
 12 36  1  0  0  0  0
 13 22  1  0  0  0  0
 13 14  1  0  0  0  0
 14 15  2  0  0  0  0
 15 16  1  0  0  0  0
 15 20  1  0  0  0  0
 16 17  1  0  0  0  0
 16 18  1  0  0  0  0
 16 19  1  0  0  0  0
 20 21  2  0  0  0  0
 20 37  1  0  0  0  0
 21 22  1  0  0  0  0
 21 38  1  0  0  0  0
 22 23  2  0  0  0  0
M  END
> <s_m_source_file>
AV-unprocessed.smi

> <i_m_source_file_index>
2824

> <i_lp_mmshare_version>
43012

> <i_f3d_flags>
0

> <s_epik_input>
W0NIM11jMVtjSF1bY0hdW2NIXVtjSF1jMU9bQ0gyXVtDQEhdKFtPSF0pW0NIMl1uMm5jKEMoRikoRilGKVtjSF1bY0hdYzI9Tw==

> <s_epik_cmdline>
J2VwaWtfcHl0aG9uJywgJy1waCcsICc3LjAnLCAnLXRuJywgJzgnLCAnLW1hJywgJzIwMCcsICctbWV0YWxfYmluZGluZycsICctaW1hZScsICc8aW5maWxlLm1hZT4nLCAnLW9tYWUnLCAnPG91dGZpbGUubWFlPic=

> <r_lp_tautomer_probability>
1

> <r_epik_Ionization_Penalty>
1.2156e-07

> <r_epik_Ionization_Penalty_Charging>
4.38548e-09

> <r_epik_Ionization_Penalty_Neutral>
1.17174e-07

> <r_epik_State_Penalty>
-0

> <r_epik_Charging_Adjusted_Penalty>
4.38548e-09

> <i_epik_Tot_Q>
0

> <i_epik_Tot_abs_Q>
0

> <r_epik_Metal_State_Penalty>
-0

> <b_epik_Metal_Only>
0

> <s_lp_Force_Field>
OPLS_2005

> <r_lp_Energy>
34.0835

> <b_lp_Chiralities_Consistent>
1

> <s_lp_Variant>
AV-unprocessed.smi:2824-1

> <Gold.Version>
5.8.1

> <Gold.Id.Protein>
6NUR|6NUR_protein|mol2

> <Gold.PLP.Fitness>
45.9563

> <Gold.PLP.PLP>
-40.9123

> <Gold.PLP.part.hbond>
-1.7884

> <Gold.PLP.part.metal>
0.0000

> <Gold.PLP.part.buried>
-5.4111

> <Gold.PLP.part.nonpolar>
-35.4439

> <Gold.PLP.part.repulsive>
0.2873

> <Gold.PLP.ligand.clash>
0.0000

> <Gold.PLP.ligand.torsion>
0.4970

> <Gold.PLP.Chemscore.Hbond>
1.9663

> <Gold.PLP.Chemscore.CHOScore>
0.0000

> <Gold.PLP.Chemscore.Metal>
0.0000

> <Gold.Chemscore.Hbonds>
donor molecule, donor type, donor heavy atom, donor atom, acceptor molecule, acceptor atom, score
      P1  H  7997  8010       L1    11  1.00
      P1  H 10752 10765       L1    23  1.00

> <Gold.PLP.Chemscore.Internal.Correction>
0.1392

> <Gold.Rescore>
     Score         DG    S(hbond)    S(metal)    S(lipo)     H(rot)  DE(clash)    DE(int)     intcor
     16.70     -17.25       1.95        0.00     101.67       2.60       0.03       0.51       ----

> <Gold.Chemscore.Fitness>
16.7022

> <Gold.Chemscore.DG>
-17.2460

> <Gold.Chemscore.ZeroCoef>
-5.4800

> <Gold.Chemscore.Hbond>
1.9523

> <Gold.Chemscore.Metal>
0.0000

> <Gold.Chemscore.Lipo>
101.6721

> <Gold.Chemscore.Internal_Hbond>
0.0000

> <Gold.Chemscore.DEClash>
0.0329

> <Gold.Chemscore.DEInternal>
0.5109

> <Gold.Chemscore.Rot>
2.5978

> <Gold.Chemscore.Internal.Correction>
   9.000000E+99

> <Gold.Chemscore.Hbonds>
donor molecule, donor type, donor heavy atom, donor atom, acceptor molecule, acceptor atom, score
      P1  H  7997  8010       L1    11  0.99
      P1  H 10752 10765       L1    23  1.00

> <Gold.Chemscore.Hbond.Weighted>
-6.5207

> <Gold.Chemscore.Metal.Weighted>
-0.0000

> <Gold.Chemscore.Lipo.Weighted>
-11.8956

> <Gold.Chemscore.Internal_Hbond.Weighted>
0.0000

> <Gold.Chemscore.DEClash.Weighted>
0.0329

> <Gold.Chemscore.DEInternal.Weighted>
0.5109

> <Gold.Chemscore.Rot.Weighted>
6.6504

> <Gold.Chemscore.Internal.Correction.Weighted>
   9.000000E+99

> <Gold.Protein.RotatedTorsions>
[ 6907 6896 6895 6894 ] final  -54.81 input  -60.11 | X-H torsion
[ 7974 7965 7964 7962 ] final  -55.09 input  175.53 | X-H torsion
[ 8008 7997 7996 7995 ] final   84.71 input   59.86 | X-H torsion
[ 10167 10162 10161 10158 ] final   36.73 input  -65.29 | X-H torsion
[ 10718 10713 10712 10709 ] final   72.35 input   66.30 | X-H torsion
[ 10763 10752 10751 10750 ] final -169.76 input  -60.55 | X-H torsion
[ 11005 11000 10999 10996 ] final -116.88 input  -57.11 | X-H torsion

> <Gold.Protein.ActiveResidues>
 VAL166  LYS551  ARG553  GLY616  TRP617  ASP618  TYR619  PRO620  LYS621  CYS622 
 ASP623  PHE694  ASN695  SER759  ASP760  ASP761  ALA762  ILE779  LEU786  VAL792 
 PHE793  MET794  SER795  GLU796  ALA797  LYS798  CYS799  TRP800  GLU811  SER814 

> <Gold.Protein.RotatedAtoms>
  150.8305  134.7556  159.6849 H   0  0  0  0  0  0  0  0  0  0  0  0  # atno 6907 bound_to 6896
  152.4410  134.5587  159.9897 H   0  0  0  0  0  0  0  0  0  0  0  0  # atno 6908 bound_to 6896
  151.5749  133.3347  159.3033 H   0  0  0  0  0  0  0  0  0  0  0  0  # atno 6909 bound_to 6896
  145.8782  140.8165  142.9853 H   0  0  0  0  0  0  0  0  0  0  0  0  # atno 7974 bound_to 7965
  155.9406  140.3408  155.6324 H   0  0  0  0  0  0  0  0  0  0  0  0  # atno 8008 bound_to 7997
  155.7044  140.0764  157.2415 H   0  0  0  0  0  0  0  0  0  0  0  0  # atno 8009 bound_to 7997
  154.4102  140.1634  156.2214 H   0  0  0  0  0  0  0  0  0  0  0  0  # atno 8010 bound_to 7997
  140.4100  144.1606  150.6139 H   0  0  0  0  0  0  0  0  0  0  0  0  # atno 10167 bound_to 10162
  157.6496  130.9574  150.0916 H   0  0  0  0  0  0  0  0  0  0  0  0  # atno 10718 bound_to 10713
  154.6489  135.2908  155.0012 H   0  0  0  0  0  0  0  0  0  0  0  0  # atno 10763 bound_to 10752
  154.1112  135.6562  153.4889 H   0  0  0  0  0  0  0  0  0  0  0  0  # atno 10764 bound_to 10752
  153.0365  135.5265  154.7388 H   0  0  0  0  0  0  0  0  0  0  0  0  # atno 10765 bound_to 10752
  141.0392  133.9862  157.3021 H   0  0  0  0  0  0  0  0  0  0  0  0  # atno 11005 bound_to 11000
  144.6726  140.1343  143.7441 LP  0  0  0  0  0  0  0  0  0  0  0  0  # atno 17320 bound_to 7965
  145.9055  139.2456  143.1468 LP  0  0  0  0  0  0  0  0  0  0  0  0  # atno 17321 bound_to 7965
  140.4648  143.2435  151.9170 LP  0  0  0  0  0  0  0  0  0  0  0  0  # atno 17342 bound_to 10162
  139.4783  144.5430  151.8500 LP  0  0  0  0  0  0  0  0  0  0  0  0  # atno 17343 bound_to 10162
  156.1863  130.3652  149.8968 LP  0  0  0  0  0  0  0  0  0  0  0  0  # atno 17370 bound_to 10713
  156.6907  130.8895  151.3588 LP  0  0  0  0  0  0  0  0  0  0  0  0  # atno 17371 bound_to 10713
  139.9263  135.0201  156.8246 LP  0  0  0  0  0  0  0  0  0  0  0  0  # atno 17394 bound_to 11000
  140.6265  133.9945  155.7642 LP  0  0  0  0  0  0  0  0  0  0  0  0  # atno 17395 bound_to 11000

$$$$
