AV-unprocessed.smi:3314|AV-procd|sdf|12732|dock4
  -GOLD-   2272019 73D 1   1.00000     0.00000
 Structure written by MMmdl.
 38 39  0  0  0  0  0  0  0  0  2 V2000
  151.9858  145.6211  159.2634 C   0  0  0  0  0  0  0  0  0  0  0  0
  152.0442  144.1098  159.1860 C   0  0  0  0  0  0  0  0  0  0  0  0
  153.1002  143.3947  159.7824 C   0  0  0  0  0  0  0  0  0  0  0  0
  153.0980  141.9904  159.6725 C   0  0  0  0  0  0  0  0  0  0  0  0
  154.2019  141.1588  160.2912 C   0  0  0  0  0  0  0  0  0  0  0  0
  152.1334  141.3037  159.0232 N   0  0  0  0  0  0  0  0  0  0  0  0
  151.1129  141.9826  158.4431 C   0  0  0  0  0  0  0  0  0  0  0  0
  150.0519  141.3558  157.7383 N   0  0  0  0  0  0  0  0  0  0  0  0
  148.7600  141.7280  157.6720 C   0  0  0  0  0  0  0  0  0  0  0  0
  148.2840  142.7053  158.2518 O   0  0  0  0  0  0  0  0  0  0  0  0
  147.8624  140.8300  156.7989 C   0  0  1  0  0  0  0  0  0  0  0  0
  146.8400  141.5911  155.9209 C   0  0  0  0  0  0  0  0  0  0  0  0
  147.5072  142.2923  154.7979 N   0  3  2  0  0  0  0  0  0  0  0  0
  146.5619  143.0660  153.9655 C   0  0  0  0  0  0  0  0  0  0  0  0
  148.3314  141.3527  154.0054 C   0  0  0  0  0  0  0  0  0  0  0  0
  149.3447  140.6359  154.9122 C   0  0  0  0  0  0  0  0  0  0  0  0
  148.6568  139.9731  155.9733 O   0  0  0  0  0  0  0  0  0  0  0  0
  151.0376  143.3918  158.5097 C   0  0  0  0  0  0  0  0  0  0  0  0
  152.8215  146.0218  159.8379 H   0  0  0  0  0  0  0  0  0  0  0  0
  151.0595  145.9402  159.7416 H   0  0  0  0  0  0  0  0  0  0  0  0
  152.0223  146.0516  158.2625 H   0  0  0  0  0  0  0  0  0  0  0  0
  153.8910  143.9085  160.3098 H   0  0  0  0  0  0  0  0  0  0  0  0
  154.9729  141.7904  160.7335 H   0  0  0  0  0  0  0  0  0  0  0  0
  154.6720  140.5286  159.5356 H   0  0  0  0  0  0  0  0  0  0  0  0
  153.7979  140.5155  161.0733 H   0  0  0  0  0  0  0  0  0  0  0  0
  150.3039  140.5217  157.2279 H   0  0  0  0  0  0  0  0  0  0  0  0
  147.3044  140.1886  157.4824 H   0  0  0  0  0  0  0  0  0  0  0  0
  146.1090  140.8870  155.5201 H   0  0  0  0  0  0  0  0  0  0  0  0
  146.2808  142.3081  156.5241 H   0  0  0  0  0  0  0  0  0  0  0  0
  145.8443  142.4087  153.4725 H   0  0  0  0  0  0  0  0  0  0  0  0
  147.0967  143.6266  153.1983 H   0  0  0  0  0  0  0  0  0  0  0  0
  146.0090  143.7807  154.5760 H   0  0  0  0  0  0  0  0  0  0  0  0
  147.6859  140.6223  153.5151 H   0  0  0  0  0  0  0  0  0  0  0  0
  148.8572  141.8947  153.2186 H   0  0  0  0  0  0  0  0  0  0  0  0
  149.8969  139.8923  154.3375 H   0  0  0  0  0  0  0  0  0  0  0  0
  150.0839  141.3377  155.3004 H   0  0  0  0  0  0  0  0  0  0  0  0
  150.2183  143.9212  158.0446 H   0  0  0  0  0  0  0  0  0  0  0  0
  148.1427  142.9600  155.2124 H   0  0  0  0  0  0  0  0  0  0  0  0
  1  2  1  0  0  0  0
  1 19  1  0  0  0  0
  1 20  1  0  0  0  0
  1 21  1  0  0  0  0
  2 18  1  0  0  0  0
  2  3  2  0  0  0  0
  3  4  1  0  0  0  0
  3 22  1  0  0  0  0
  4  5  1  0  0  0  0
  4  6  2  0  0  0  0
  5 23  1  0  0  0  0
  5 24  1  0  0  0  0
  5 25  1  0  0  0  0
  6  7  1  0  0  0  0
  7  8  1  0  0  0  0
  7 18  2  0  0  0  0
  8  9  1  0  0  0  0
  8 26  1  0  0  0  0
  9 10  2  0  0  0  0
  9 11  1  0  0  0  0
 11 17  1  0  0  0  0
 11 12  1  0  0  0  0
 11 27  1  0  0  0  0
 12 13  1  0  0  0  0
 12 28  1  0  0  0  0
 12 29  1  0  0  0  0
 13 14  1  0  0  0  0
 13 15  1  0  0  0  0
 13 38  1  0  0  0  0
 14 30  1  0  0  0  0
 14 31  1  0  0  0  0
 14 32  1  0  0  0  0
 15 16  1  0  0  0  0
 15 33  1  0  0  0  0
 15 34  1  0  0  0  0
 16 17  1  0  0  0  0
 16 35  1  0  0  0  0
 16 36  1  0  0  0  0
 18 37  1  0  0  0  0
M  CHG  1  13   1
M  END
> <s_m_source_file>
AV-unprocessed.smi

> <i_m_source_file_index>
3314

> <i_lp_mmshare_version>
43012

> <i_f3d_flags>
0

> <s_epik_input>
W0NIM11jMVtjSF1jKFtDSDNdKW5jKFtjSF0xKVtOSF1DKD1PKVtDQEBIXTJbQ0gyXU4oW0NIM10pW0NIMl1bQ0gyXU8y

> <s_epik_cmdline>
J2VwaWtfcHl0aG9uJywgJy1waCcsICc3LjAnLCAnLXRuJywgJzgnLCAnLW1hJywgJzIwMCcsICctbWV0YWxfYmluZGluZycsICctaW1hZScsICc8aW5maWxlLm1hZT4nLCAnLW9tYWUnLCAnPG91dGZpbGUubWFlPic=

> <r_epik_Ionization_Penalty>
0.32442

> <r_epik_Ionization_Penalty_Charging>
0.314023

> <r_epik_Ionization_Penalty_Neutral>
0.0103972

> <r_epik_State_Penalty>
0.29453

> <r_epik_Charging_Adjusted_Penalty>
0.608553

> <i_epik_Tot_Q>
1

> <i_epik_Tot_abs_Q>
1

> <r_epik_Metal_State_Penalty>
0.286909

> <b_epik_Metal_Only>
0

> <s_lp_Force_Field>
OPLS_2005

> <r_lp_Energy>
14.9445

> <b_lp_Chiralities_Consistent>
1

> <s_lp_Variant>
AV-unprocessed.smi:3314-2

> <Gold.Version>
5.8.1

> <Gold.Id.Protein>
6NUR|6NUR_protein|mol2

> <Gold.PLP.Fitness>
42.2114

> <Gold.PLP.PLP>
-37.5402

> <Gold.PLP.part.hbond>
-1.0000

> <Gold.PLP.part.metal>
0.0000

> <Gold.PLP.part.buried>
-4.4084

> <Gold.PLP.part.nonpolar>
-32.6313

> <Gold.PLP.part.repulsive>
0.3741

> <Gold.PLP.ligand.clash>
0.0000

> <Gold.PLP.ligand.torsion>
0.6752

> <Gold.PLP.Chemscore.Hbond>
2.0000

> <Gold.PLP.Chemscore.CHOScore>
0.0000

> <Gold.PLP.Chemscore.Metal>
0.0000

> <Gold.Chemscore.Hbonds>
donor molecule, donor type, donor heavy atom, donor atom, acceptor molecule, acceptor atom, score
      L1  H    13    38       P1  8028  2.00

> <Gold.PLP.Chemscore.Internal.Correction>
0.0217

> <Gold.Rescore>
     Score         DG    S(hbond)    S(metal)    S(lipo)     H(rot)  DE(clash)    DE(int)     intcor
     13.16     -16.22       0.86        0.00      89.07       1.00       0.02       3.04       ----

> <Gold.Chemscore.Fitness>
13.1586

> <Gold.Chemscore.DG>
-16.2174

> <Gold.Chemscore.ZeroCoef>
-5.4800

> <Gold.Chemscore.Hbond>
0.8613

> <Gold.Chemscore.Metal>
0.0000

> <Gold.Chemscore.Lipo>
89.0653

> <Gold.Chemscore.Internal_Hbond>
0.0000

> <Gold.Chemscore.DEClash>
0.0234

> <Gold.Chemscore.DEInternal>
3.0354

> <Gold.Chemscore.Rot>
1.0000

> <Gold.Chemscore.Internal.Correction>
   9.000000E+99

> <Gold.Chemscore.Hbonds>
donor molecule, donor type, donor heavy atom, donor atom, acceptor molecule, acceptor atom, score
      L1  H    13    38       P1  8028  0.94

> <Gold.Chemscore.Hbond.Weighted>
-2.8768

> <Gold.Chemscore.Metal.Weighted>
-0.0000

> <Gold.Chemscore.Lipo.Weighted>
-10.4206

> <Gold.Chemscore.Internal_Hbond.Weighted>
0.0000

> <Gold.Chemscore.DEClash.Weighted>
0.0234

> <Gold.Chemscore.DEInternal.Weighted>
3.0354

> <Gold.Chemscore.Rot.Weighted>
2.5600

> <Gold.Chemscore.Internal.Correction.Weighted>
   9.000000E+99

> <Gold.Protein.RotatedTorsions>
[ 6907 6896 6895 6894 ] final -107.61 input  -60.11 | X-H torsion
[ 7974 7965 7964 7962 ] final   50.60 input  175.53 | X-H torsion
[ 8008 7997 7996 7995 ] final   36.05 input   59.86 | X-H torsion
[ 10167 10162 10161 10158 ] final  -93.31 input  -65.29 | X-H torsion
[ 10718 10713 10712 10709 ] final -156.74 input   66.30 | X-H torsion
[ 10763 10752 10751 10750 ] final   79.33 input  -60.55 | X-H torsion
[ 11005 11000 10999 10996 ] final   94.03 input  -57.11 | X-H torsion

> <Gold.Protein.ActiveResidues>
 VAL166  LYS551  ARG553  GLY616  TRP617  ASP618  TYR619  PRO620  LYS621  CYS622 
 ASP623  PHE694  ASN695  SER759  ASP760  ASP761  ALA762  ILE779  LEU786  VAL792 
 PHE793  MET794  SER795  GLU796  ALA797  LYS798  CYS799  TRP800  GLU811  SER814 

> <Gold.Protein.RotatedAtoms>
  150.7454  133.9801  159.3573 H   0  0  0  0  0  0  0  0  0  0  0  0  # atno 6907 bound_to 6896
  151.7741  135.0776  160.0373 H   0  0  0  0  0  0  0  0  0  0  0  0  # atno 6908 bound_to 6896
  152.3319  133.5931  159.5851 H   0  0  0  0  0  0  0  0  0  0  0  0  # atno 6909 bound_to 6896
  145.9996  139.4425  143.0023 H   0  0  0  0  0  0  0  0  0  0  0  0  # atno 7974 bound_to 7965
  155.1811  140.3300  155.4375 H   0  0  0  0  0  0  0  0  0  0  0  0  # atno 8008 bound_to 7997
  156.2476  140.1927  156.6859 H   0  0  0  0  0  0  0  0  0  0  0  0  # atno 8009 bound_to 7997
  154.6271  140.0587  156.9672 H   0  0  0  0  0  0  0  0  0  0  0  0  # atno 8010 bound_to 7997
  140.3259  143.3022  151.9995 H   0  0  0  0  0  0  0  0  0  0  0  0  # atno 10167 bound_to 10162
  156.5307  130.8519  151.2715 H   0  0  0  0  0  0  0  0  0  0  0  0  # atno 10718 bound_to 10713
  153.0944  135.4844  154.8751 H   0  0  0  0  0  0  0  0  0  0  0  0  # atno 10763 bound_to 10752
  154.7307  135.3059  154.8898 H   0  0  0  0  0  0  0  0  0  0  0  0  # atno 10764 bound_to 10752
  153.9535  135.6820  153.4797 H   0  0  0  0  0  0  0  0  0  0  0  0  # atno 10765 bound_to 10752
  139.8803  134.8823  156.3804 H   0  0  0  0  0  0  0  0  0  0  0  0  # atno 11005 bound_to 11000
  145.7507  140.9973  143.1252 LP  0  0  0  0  0  0  0  0  0  0  0  0  # atno 17320 bound_to 7965
  144.6915  139.9211  143.7468 LP  0  0  0  0  0  0  0  0  0  0  0  0  # atno 17321 bound_to 7965
  139.4865  144.6274  151.7138 LP  0  0  0  0  0  0  0  0  0  0  0  0  # atno 17342 bound_to 10162
  140.5441  144.0531  150.6100 LP  0  0  0  0  0  0  0  0  0  0  0  0  # atno 17343 bound_to 10162
  157.7422  130.9886  150.2500 LP  0  0  0  0  0  0  0  0  0  0  0  0  # atno 17370 bound_to 10713
  156.3063  130.3765  149.7703 LP  0  0  0  0  0  0  0  0  0  0  0  0  # atno 17371 bound_to 10713
  140.9403  133.7519  156.0137 LP  0  0  0  0  0  0  0  0  0  0  0  0  # atno 17394 bound_to 11000
  140.8228  134.3270  157.5376 LP  0  0  0  0  0  0  0  0  0  0  0  0  # atno 17395 bound_to 11000

$$$$
