AV-unprocessed.smi:1467|AV-procd|sdf|5955|dock3
  -GOLD-   22720 6 43D 1   1.00000     0.00000
 Structure written by MMmdl.
 40 41  0  0  0  0  0  0  0  0  1 V2000
  152.2233  141.2110  158.1266 C   0  0  0  0  0  0  0  0  0  0  0  0
  152.1121  140.2738  156.9221 C   0  0  0  0  0  0  0  0  0  0  0  0
  152.7475  139.2197  156.9485 O   0  0  0  0  0  0  0  0  0  0  0  0
  151.3287  140.6303  155.8766 N   0  0  0  0  0  0  0  0  0  0  0  0
  150.4987  141.8360  155.7940 C   0  0  0  0  0  0  0  0  0  0  0  0
  149.0165  141.4194  155.7235 C   0  0  0  0  0  0  0  0  0  0  0  0
  148.7832  140.5613  154.5547 N   0  0  0  0  0  0  0  0  0  0  0  0
  147.3867  140.1349  154.4810 C   0  0  0  0  0  0  0  0  0  0  0  0
  147.1550  139.0798  153.3815 C   0  0  0  0  0  0  0  0  0  0  0  0
  145.7486  138.7053  153.2979 N   0  0  0  0  0  0  0  0  0  0  0  0
  145.2441  137.5283  153.6946 C   0  0  0  0  0  0  0  0  0  0  0  0
  145.9257  136.6254  154.1803 O   0  0  0  0  0  0  0  0  0  0  0  0
  143.9180  137.4711  153.4905 N   0  0  0  0  0  0  0  0  0  0  0  0
  143.0521  136.3867  153.7795 C   0  0  0  0  0  0  0  0  0  0  0  0
  141.6747  136.4051  154.1476 C   0  0  0  0  0  0  0  0  0  0  0  0
  141.2124  135.1770  154.3359 N   0  0  0  0  0  0  0  0  0  0  0  0
  142.2763  134.3786  154.0935 N   0  0  0  0  0  0  0  0  0  0  0  0
  143.4153  135.0735  153.7512 C   0  0  0  0  0  0  0  0  0  0  0  0
  149.6386  139.3728  154.6344 C   0  0  0  0  0  0  0  0  0  0  0  0
  151.1226  139.7824  154.6995 C   0  0  0  0  0  0  0  0  0  0  0  0
  142.2093  133.3732  154.1646 H   0  0  0  0  0  0  0  0  0  0  0  0
  151.2486  141.3597  158.5917 H   0  0  0  0  0  0  0  0  0  0  0  0
  152.6259  142.1790  157.8273 H   0  0  0  0  0  0  0  0  0  0  0  0
  152.8907  140.7915  158.8799 H   0  0  0  0  0  0  0  0  0  0  0  0
  150.6400  142.5204  156.6288 H   0  0  0  0  0  0  0  0  0  0  0  0
  150.7736  142.4004  154.9017 H   0  0  0  0  0  0  0  0  0  0  0  0
  148.7294  140.8965  156.6373 H   0  0  0  0  0  0  0  0  0  0  0  0
  148.4042  142.3181  155.6632 H   0  0  0  0  0  0  0  0  0  0  0  0
  147.1049  139.6897  155.4365 H   0  0  0  0  0  0  0  0  0  0  0  0
  146.7375  141.0003  154.3372 H   0  0  0  0  0  0  0  0  0  0  0  0
  147.4865  139.4321  152.4045 H   0  0  0  0  0  0  0  0  0  0  0  0
  147.7312  138.1806  153.6011 H   0  0  0  0  0  0  0  0  0  0  0  0
  145.1166  139.3906  152.9107 H   0  0  0  0  0  0  0  0  0  0  0  0
  143.4833  138.2868  153.0849 H   0  0  0  0  0  0  0  0  0  0  0  0
  141.0036  137.2402  154.2830 H   0  0  0  0  0  0  0  0  0  0  0  0
  144.3528  134.5868  153.5254 H   0  0  0  0  0  0  0  0  0  0  0  0
  149.3741  138.7773  155.5098 H   0  0  0  0  0  0  0  0  0  0  0  0
  149.4753  138.7450  153.7576 H   0  0  0  0  0  0  0  0  0  0  0  0
  151.4048  140.3330  153.8009 H   0  0  0  0  0  0  0  0  0  0  0  0
  151.7460  138.8876  154.7104 H   0  0  0  0  0  0  0  0  0  0  0  0
  1  2  1  0  0  0  0
  1 22  1  0  0  0  0
  1 23  1  0  0  0  0
  1 24  1  0  0  0  0
  2  3  2  0  0  0  0
  2  4  1  0  0  0  0
  4 20  1  0  0  0  0
  4  5  1  0  0  0  0
  5  6  1  0  0  0  0
  5 25  1  0  0  0  0
  5 26  1  0  0  0  0
  6  7  1  0  0  0  0
  6 27  1  0  0  0  0
  6 28  1  0  0  0  0
  7  8  1  0  0  0  0
  7 19  1  0  0  0  0
  8  9  1  0  0  0  0
  8 29  1  0  0  0  0
  8 30  1  0  0  0  0
  9 10  1  0  0  0  0
  9 31  1  0  0  0  0
  9 32  1  0  0  0  0
 10 11  1  0  0  0  0
 10 33  1  0  0  0  0
 11 12  2  0  0  0  0
 11 13  1  0  0  0  0
 13 14  1  0  0  0  0
 13 34  1  0  0  0  0
 14 18  2  0  0  0  0
 14 15  1  0  0  0  0
 15 16  2  0  0  0  0
 15 35  1  0  0  0  0
 16 17  1  0  0  0  0
 17 21  1  0  0  0  0
 17 18  1  0  0  0  0
 18 36  1  0  0  0  0
 19 20  1  0  0  0  0
 19 37  1  0  0  0  0
 19 38  1  0  0  0  0
 20 39  1  0  0  0  0
 20 40  1  0  0  0  0
M  END
> <s_m_source_file>
AV-unprocessed.smi

> <i_m_source_file_index>
1467

> <i_lp_mmshare_version>
43012

> <i_f3d_flags>
0

> <s_epik_input>
W0NIM11DKD1PKU4xW0NIMl1bQ0gyXU4oW0NIMl1bQ0gyXTEpW0NIMl1bQ0gyXVtOSF1DKD1PKVtOSF1jMltjSF1uW25IXVtjSF0y

> <s_epik_cmdline>
J2VwaWtfcHl0aG9uJywgJy1waCcsICc3LjAnLCAnLXRuJywgJzgnLCAnLW1hJywgJzIwMCcsICctbWV0YWxfYmluZGluZycsICctaW1hZScsICc8aW5maWxlLm1hZT4nLCAnLW9tYWUnLCAnPG91dGZpbGUubWFlPic=

> <r_lp_tautomer_probability>
0.5

> <r_epik_Ionization_Penalty>
0.251012

> <r_epik_Ionization_Penalty_Charging>
0

> <r_epik_Ionization_Penalty_Neutral>
0.251012

> <r_epik_State_Penalty>
0.242297

> <r_epik_Charging_Adjusted_Penalty>
0.242297

> <i_epik_Tot_Q>
0

> <i_epik_Tot_abs_Q>
0

> <r_epik_Metal_State_Penalty>
0.242296

> <b_epik_Metal_Only>
0

> <s_lp_Force_Field>
OPLS_2005

> <r_lp_Energy>
35.2163

> <b_lp_Chiralities_Consistent>
1

> <s_lp_Variant>
AV-unprocessed.smi:1467-1

> <Gold.Version>
5.8.1

> <Gold.Id.Protein>
6NUR|6NUR_protein|mol2

> <Gold.PLP.Fitness>
42.0113

> <Gold.PLP.PLP>
-29.4078

> <Gold.PLP.part.hbond>
-5.0000

> <Gold.PLP.part.metal>
0.0000

> <Gold.PLP.part.buried>
-3.1594

> <Gold.PLP.part.nonpolar>
-21.4496

> <Gold.PLP.part.repulsive>
0.3790

> <Gold.PLP.ligand.clash>
0.0000

> <Gold.PLP.ligand.torsion>
0.2959

> <Gold.PLP.Chemscore.Hbond>
4.3923

> <Gold.PLP.Chemscore.CHOScore>
0.0000

> <Gold.PLP.Chemscore.Metal>
0.0000

> <Gold.Chemscore.Hbonds>
donor molecule, donor type, donor heavy atom, donor atom, acceptor molecule, acceptor atom, score
      L1  H    10    33       P1 10175  1.00
      L1  H    13    34       P1 10175  0.47
      L1  H    17    21       P1 10957  1.00
      P1  H  7997  8008       L1     3  0.80
      P1  H 11000 11005       L1    16  0.88

> <Gold.PLP.Chemscore.Internal.Correction>
0.0184

> <Gold.Rescore>
     Score         DG    S(hbond)    S(metal)    S(lipo)     H(rot)  DE(clash)    DE(int)     intcor
     17.16     -20.28       3.70        0.00      58.45       1.72       1.71       1.40       ----

> <Gold.Chemscore.Fitness>
17.1635

> <Gold.Chemscore.DG>
-20.2770

> <Gold.Chemscore.ZeroCoef>
-5.4800

> <Gold.Chemscore.Hbond>
3.6986

> <Gold.Chemscore.Metal>
0.0000

> <Gold.Chemscore.Lipo>
58.4468

> <Gold.Chemscore.Internal_Hbond>
0.0000

> <Gold.Chemscore.DEClash>
1.7124

> <Gold.Chemscore.DEInternal>
1.4010

> <Gold.Chemscore.Rot>
1.7167

> <Gold.Chemscore.Internal.Correction>
   9.000000E+99

> <Gold.Chemscore.Hbonds>
donor molecule, donor type, donor heavy atom, donor atom, acceptor molecule, acceptor atom, score
      L1  H    10    33       P1 10175  1.00
      L1  H    13    34       P1 10175  0.45
      L1  H    17    21       P1 10957  0.99
      P1  H  7997  8008       L1     3  0.11
      P1  H 11000 11005       L1    16  0.39

> <Gold.Chemscore.Hbond.Weighted>
-12.3534

> <Gold.Chemscore.Metal.Weighted>
-0.0000

> <Gold.Chemscore.Lipo.Weighted>
-6.8383

> <Gold.Chemscore.Internal_Hbond.Weighted>
0.0000

> <Gold.Chemscore.DEClash.Weighted>
1.7124

> <Gold.Chemscore.DEInternal.Weighted>
1.4010

> <Gold.Chemscore.Rot.Weighted>
4.3947

> <Gold.Chemscore.Internal.Correction.Weighted>
   9.000000E+99

> <Gold.Protein.RotatedTorsions>
[ 6907 6896 6895 6894 ] final -128.98 input  -60.11 | X-H torsion
[ 7974 7965 7964 7962 ] final  140.04 input  175.53 | X-H torsion
[ 8008 7997 7996 7995 ] final  -78.25 input   59.86 | X-H torsion
[ 10167 10162 10161 10158 ] final  169.80 input  -65.29 | X-H torsion
[ 10718 10713 10712 10709 ] final  -73.30 input   66.30 | X-H torsion
[ 10763 10752 10751 10750 ] final -162.02 input  -60.55 | X-H torsion
[ 11005 11000 10999 10996 ] final   30.88 input  -57.11 | X-H torsion

> <Gold.Protein.ActiveResidues>
 VAL166  LYS551  ARG553  GLY616  TRP617  ASP618  TYR619  PRO620  LYS621  CYS622 
 ASP623  PHE694  ASN695  SER759  ASP760  ASP761  ALA762  ILE779  LEU786  VAL792 
 PHE793  MET794  SER795  GLU796  ALA797  LYS798  CYS799  TRP800  GLU811  SER814 

> <Gold.Protein.RotatedAtoms>
  150.9237  133.6849  159.2825 H   0  0  0  0  0  0  0  0  0  0  0  0  # atno 6907 bound_to 6896
  151.4295  135.1006  159.9647 H   0  0  0  0  0  0  0  0  0  0  0  0  # atno 6908 bound_to 6896
  152.4992  133.8671  159.7334 H   0  0  0  0  0  0  0  0  0  0  0  0  # atno 6909 bound_to 6896
  144.9223  139.5151  143.5657 H   0  0  0  0  0  0  0  0  0  0  0  0  # atno 7974 bound_to 7965
  154.5672  140.0697  156.8909 H   0  0  0  0  0  0  0  0  0  0  0  0  # atno 8008 bound_to 7997
  155.2701  140.3364  155.4248 H   0  0  0  0  0  0  0  0  0  0  0  0  # atno 8009 bound_to 7997
  156.2090  140.1751  156.7723 H   0  0  0  0  0  0  0  0  0  0  0  0  # atno 8010 bound_to 7997
  139.5002  144.3666  151.9769 H   0  0  0  0  0  0  0  0  0  0  0  0  # atno 10167 bound_to 10162
  156.0286  130.4391  150.2721 H   0  0  0  0  0  0  0  0  0  0  0  0  # atno 10718 bound_to 10713
  154.7252  135.3034  154.8982 H   0  0  0  0  0  0  0  0  0  0  0  0  # atno 10763 bound_to 10752
  153.9842  135.6726  153.4755 H   0  0  0  0  0  0  0  0  0  0  0  0  # atno 10764 bound_to 10752
  153.0869  135.4979  154.8532 H   0  0  0  0  0  0  0  0  0  0  0  0  # atno 10765 bound_to 10752
  140.2897  134.2878  155.7779 H   0  0  0  0  0  0  0  0  0  0  0  0  # atno 11005 bound_to 11000
  146.3210  139.8112  142.8945 LP  0  0  0  0  0  0  0  0  0  0  0  0  # atno 17320 bound_to 7965
  145.3275  141.0259  143.3465 LP  0  0  0  0  0  0  0  0  0  0  0  0  # atno 17321 bound_to 7965
  140.3102  144.3547  150.6036 LP  0  0  0  0  0  0  0  0  0  0  0  0  # atno 17342 bound_to 10162
  140.5805  143.2173  151.7437 LP  0  0  0  0  0  0  0  0  0  0  0  0  # atno 17343 bound_to 10162
  157.0824  131.0147  151.3151 LP  0  0  0  0  0  0  0  0  0  0  0  0  # atno 17370 bound_to 10713
  157.4917  130.7826  149.7514 LP  0  0  0  0  0  0  0  0  0  0  0  0  # atno 17371 bound_to 10713
  141.2148  133.7577  156.9606 LP  0  0  0  0  0  0  0  0  0  0  0  0  # atno 17394 bound_to 11000
  140.1206  134.9419  157.2198 LP  0  0  0  0  0  0  0  0  0  0  0  0  # atno 17395 bound_to 11000

$$$$
