AV-unprocessed.smi:683|AV-procd|sdf|3331|dock7
  -GOLD-   22720 0303D 1   1.00000     0.00000
 Structure written by MMmdl.
 29 30  0  0  0  0  0  0  0  0  2 V2000
  154.6603  141.1684  161.2060 N   0  0  0  0  0  0  0  0  0  0  0  0
  153.9432  141.7200  160.4847 C   0  0  0  0  0  0  0  0  0  0  0  0
  153.0426  142.4131  159.5787 C   0  0  0  0  0  0  0  0  0  0  0  0
  152.7859  143.7873  159.7545 C   0  0  0  0  0  0  0  0  0  0  0  0
  151.9135  144.4552  158.8754 C   0  0  0  0  0  0  0  0  0  0  0  0
  151.2998  143.7514  157.8219 C   0  0  0  0  0  0  0  0  0  0  0  0
  151.5471  142.3764  157.6314 C   0  0  0  0  0  0  0  0  0  0  0  0
  150.9059  141.7668  156.5742 O   0  0  0  0  0  0  0  0  0  0  0  0
  151.3847  140.5021  156.1383 C   0  0  0  0  0  0  0  0  0  0  0  0
  150.4414  139.9646  155.0529 C   0  0  0  0  0  0  0  0  0  0  0  0
  150.3861  138.4971  155.0735 N   0  0  0  0  0  0  0  0  0  0  0  0
  149.1405  137.8959  155.3203 C   0  0  0  0  0  0  0  0  0  0  0  0
  148.9893  136.5581  155.3678 C   0  0  0  0  0  0  0  0  0  0  0  0
  147.4449  135.8468  155.6743 Cl  0  0  0  0  0  0  0  0  0  0  0  0
  150.1722  135.7262  155.1556 C   0  0  0  0  0  0  0  0  0  0  0  0
  150.0690  134.5007  155.1884 O   0  0  0  0  0  0  0  0  0  0  0  0
  151.3601  136.3595  154.9279 N   0  5  0  0  0  0  0  0  0  0  0  0
  151.4945  137.7209  154.8865 C   0  0  0  0  0  0  0  0  0  0  0  0
  152.5789  138.2698  154.6897 O   0  0  0  0  0  0  0  0  0  0  0  0
  152.4264  141.7098  158.5227 C   0  0  0  0  0  0  0  0  0  0  0  0
  153.2544  144.3344  160.5602 H   0  0  0  0  0  0  0  0  0  0  0  0
  151.7154  145.5084  159.0087 H   0  0  0  0  0  0  0  0  0  0  0  0
  150.6326  144.2729  157.1512 H   0  0  0  0  0  0  0  0  0  0  0  0
  152.3945  140.6015  155.7367 H   0  0  0  0  0  0  0  0  0  0  0  0
  151.4173  139.8041  156.9764 H   0  0  0  0  0  0  0  0  0  0  0  0
  149.4433  140.3803  155.1993 H   0  0  0  0  0  0  0  0  0  0  0  0
  150.7580  140.3219  154.0715 H   0  0  0  0  0  0  0  0  0  0  0  0
  148.3220  138.5844  155.4718 H   0  0  0  0  0  0  0  0  0  0  0  0
  152.6411  140.6571  158.4114 H   0  0  0  0  0  0  0  0  0  0  0  0
  1  2  3  0  0  0  0
  2  3  1  0  0  0  0
  3 20  1  0  0  0  0
  3  4  2  0  0  0  0
  4  5  1  0  0  0  0
  4 21  1  0  0  0  0
  5  6  2  0  0  0  0
  5 22  1  0  0  0  0
  6  7  1  0  0  0  0
  6 23  1  0  0  0  0
  7  8  1  0  0  0  0
  7 20  2  0  0  0  0
  8  9  1  0  0  0  0
  9 10  1  0  0  0  0
  9 24  1  0  0  0  0
  9 25  1  0  0  0  0
 10 11  1  0  0  0  0
 10 26  1  0  0  0  0
 10 27  1  0  0  0  0
 11 18  1  0  0  0  0
 11 12  1  0  0  0  0
 12 13  2  0  0  0  0
 12 28  1  0  0  0  0
 13 14  1  0  0  0  0
 13 15  1  0  0  0  0
 15 16  2  0  0  0  0
 15 17  1  0  0  0  0
 17 18  1  0  0  0  0
 18 19  2  0  0  0  0
 20 29  1  0  0  0  0
M  CHG  1  17  -1
M  END
> <s_m_source_file>
AV-unprocessed.smi

> <i_m_source_file_index>
683

> <i_lp_mmshare_version>
43012

> <i_f3d_flags>
0

> <s_epik_input>
TiNDYzFbY0hdW2NIXVtjSF1jKFtjSF0xKU9bQ0gyXVtDSDJdbjJbY0hdYyhDbCljKD1PKVtuSF1jMj1P

> <s_epik_cmdline>
J2VwaWtfcHl0aG9uJywgJy1waCcsICc3LjAnLCAnLXRuJywgJzgnLCAnLW1hJywgJzIwMCcsICctbWV0YWxfYmluZGluZycsICctaW1hZScsICc8aW5maWxlLm1hZT4nLCAnLW9tYWUnLCAnPG91dGZpbGUubWFlPic=

> <r_epik_Ionization_Penalty>
1.49102

> <r_epik_Ionization_Penalty_Charging>
6.47896e-09

> <r_epik_Ionization_Penalty_Neutral>
1.49102

> <r_epik_State_Penalty>
1.58045

> <r_epik_Charging_Adjusted_Penalty>
1.58045

> <i_epik_Tot_Q>
-1

> <i_epik_Tot_abs_Q>
1

> <r_epik_Metal_State_Penalty>
0.00788874

> <b_epik_Metal_Only>
0

> <s_lp_Force_Field>
OPLS_2005

> <r_lp_Energy>
20.1006

> <b_lp_Chiralities_Consistent>
1

> <s_lp_Variant>
AV-unprocessed.smi:683-2

> <Gold.Version>
5.8.1

> <Gold.Id.Protein>
6NUR|6NUR_protein|mol2

> <Gold.PLP.Fitness>
45.2031

> <Gold.PLP.PLP>
-40.0073

> <Gold.PLP.part.hbond>
-2.1163

> <Gold.PLP.part.metal>
0.0000

> <Gold.PLP.part.buried>
-6.0406

> <Gold.PLP.part.nonpolar>
-32.4848

> <Gold.PLP.part.repulsive>
0.3596

> <Gold.PLP.ligand.clash>
0.0000

> <Gold.PLP.ligand.torsion>
0.4143

> <Gold.PLP.Chemscore.Hbond>
2.0000

> <Gold.PLP.Chemscore.CHOScore>
0.0000

> <Gold.PLP.Chemscore.Metal>
0.0000

> <Gold.Chemscore.Hbonds>
donor molecule, donor type, donor heavy atom, donor atom, acceptor molecule, acceptor atom, score
      P1  H 10752 10765       L1    17  2.00

> <Gold.PLP.Chemscore.Internal.Correction>
0.0244

> <Gold.Rescore>
     Score         DG    S(hbond)    S(metal)    S(lipo)     H(rot)  DE(clash)    DE(int)     intcor
     13.89     -15.66       1.53        0.00      86.41       1.97       0.06       1.71       ----

> <Gold.Chemscore.Fitness>
13.8944

> <Gold.Chemscore.DG>
-15.6644

> <Gold.Chemscore.ZeroCoef>
-5.4800

> <Gold.Chemscore.Hbond>
1.5335

> <Gold.Chemscore.Metal>
0.0000

> <Gold.Chemscore.Lipo>
86.4093

> <Gold.Chemscore.Internal_Hbond>
0.0000

> <Gold.Chemscore.DEClash>
0.0604

> <Gold.Chemscore.DEInternal>
1.7096

> <Gold.Chemscore.Rot>
1.9717

> <Gold.Chemscore.Internal.Correction>
   9.000000E+99

> <Gold.Chemscore.Hbonds>
donor molecule, donor type, donor heavy atom, donor atom, acceptor molecule, acceptor atom, score
      P1  H 10752 10765       L1    17  0.74

> <Gold.Chemscore.Hbond.Weighted>
-5.1220

> <Gold.Chemscore.Metal.Weighted>
-0.0000

> <Gold.Chemscore.Lipo.Weighted>
-10.1099

> <Gold.Chemscore.Internal_Hbond.Weighted>
0.0000

> <Gold.Chemscore.DEClash.Weighted>
0.0604

> <Gold.Chemscore.DEInternal.Weighted>
1.7096

> <Gold.Chemscore.Rot.Weighted>
5.0475

> <Gold.Chemscore.Internal.Correction.Weighted>
   9.000000E+99

> <Gold.Protein.RotatedTorsions>
[ 6907 6896 6895 6894 ] final   41.00 input  -60.11 | X-H torsion
[ 7974 7965 7964 7962 ] final  -89.89 input  175.53 | X-H torsion
[ 8008 7997 7996 7995 ] final   90.28 input   59.86 | X-H torsion
[ 10167 10162 10161 10158 ] final  149.84 input  -65.29 | X-H torsion
[ 10718 10713 10712 10709 ] final  -65.53 input   66.30 | X-H torsion
[ 10763 10752 10751 10750 ] final -178.97 input  -60.55 | X-H torsion
[ 11005 11000 10999 10996 ] final  129.99 input  -57.11 | X-H torsion

> <Gold.Protein.ActiveResidues>
 VAL166  LYS551  ARG553  GLY616  TRP617  ASP618  TYR619  PRO620  LYS621  CYS622 
 ASP623  PHE694  ASN695  SER759  ASP760  ASP761  ALA762  ILE779  LEU786  VAL792 
 PHE793  MET794  SER795  GLU796  ALA797  LYS798  CYS799  TRP800  GLU811  SER814 

> <Gold.Protein.RotatedAtoms>
  152.1897  134.8683  160.0518 H   0  0  0  0  0  0  0  0  0  0  0  0  # atno 6907 bound_to 6896
  151.9577  133.3680  159.4031 H   0  0  0  0  0  0  0  0  0  0  0  0  # atno 6908 bound_to 6896
  150.6933  134.4197  159.5243 H   0  0  0  0  0  0  0  0  0  0  0  0  # atno 6909 bound_to 6896
  145.4338  140.9557  143.2113 H   0  0  0  0  0  0  0  0  0  0  0  0  # atno 7974 bound_to 7965
  156.0101  140.3351  155.6932 H   0  0  0  0  0  0  0  0  0  0  0  0  # atno 8008 bound_to 7997
  155.6169  140.0671  157.2707 H   0  0  0  0  0  0  0  0  0  0  0  0  # atno 8009 bound_to 7997
  154.4278  140.1783  156.1319 H   0  0  0  0  0  0  0  0  0  0  0  0  # atno 8010 bound_to 7997
  139.4857  144.5569  151.7300 H   0  0  0  0  0  0  0  0  0  0  0  0  # atno 10167 bound_to 10162
  156.0664  130.4248  150.1577 H   0  0  0  0  0  0  0  0  0  0  0  0  # atno 10718 bound_to 10713
  154.5410  135.2806  155.1095 H   0  0  0  0  0  0  0  0  0  0  0  0  # atno 10763 bound_to 10752
  154.2578  135.6327  153.5267 H   0  0  0  0  0  0  0  0  0  0  0  0  # atno 10764 bound_to 10752
  152.9979  135.5598  154.5950 H   0  0  0  0  0  0  0  0  0  0  0  0  # atno 10765 bound_to 10752
  139.9646  134.9594  156.9228 H   0  0  0  0  0  0  0  0  0  0  0  0  # atno 11005 bound_to 11000
  144.8166  139.5867  143.7006 LP  0  0  0  0  0  0  0  0  0  0  0  0  # atno 17320 bound_to 7965
  146.2593  139.6373  142.9373 LP  0  0  0  0  0  0  0  0  0  0  0  0  # atno 17321 bound_to 7965
  140.5133  144.0992  150.6001 LP  0  0  0  0  0  0  0  0  0  0  0  0  # atno 17342 bound_to 10162
  140.3925  143.2745  152.0043 LP  0  0  0  0  0  0  0  0  0  0  0  0  # atno 17343 bound_to 10162
  156.9636  130.9813  151.3474 LP  0  0  0  0  0  0  0  0  0  0  0  0  # atno 17370 bound_to 10713
  157.5708  130.8309  149.8389 LP  0  0  0  0  0  0  0  0  0  0  0  0  # atno 17371 bound_to 10713
  140.5424  134.0707  155.7345 LP  0  0  0  0  0  0  0  0  0  0  0  0  # atno 17394 bound_to 11000
  141.1325  133.9277  157.2504 LP  0  0  0  0  0  0  0  0  0  0  0  0  # atno 17395 bound_to 11000

$$$$
