AV-unprocessed.smi:3243|AV-procd|sdf|12395|dock8
  -GOLD-   2272018263D 1   1.00000     0.00000
 Structure written by MMmdl.
 37 38  0  0  0  0  0  0  0  0  1 V2000
  153.8877  140.9617  160.5927 C   0  0  0  0  0  0  0  0  0  0  0  0
  153.4724  142.4280  160.7797 C   0  0  0  0  0  0  0  0  0  0  0  0
  152.7910  142.6764  162.1331 C   0  0  0  0  0  0  0  0  0  0  0  0
  152.6406  142.9204  159.6359 C   0  0  0  0  0  0  0  0  0  0  0  0
  152.2164  142.1322  158.6439 N   0  0  0  0  0  0  0  0  0  0  0  0
  151.4510  142.8185  157.6957 C   0  0  0  0  0  0  0  0  0  0  0  0
  150.8889  142.0862  156.5152 C   0  0  0  0  0  0  0  0  0  0  0  0
  149.9479  140.9443  156.9341 C   0  0  0  0  0  0  0  0  0  0  0  0
  148.9596  140.6555  155.9012 N   0  0  0  0  0  0  0  0  0  0  0  0
  149.2429  140.3027  154.6382 C   0  0  0  0  0  0  0  0  0  0  0  0
  150.3957  140.1982  154.2171 O   0  0  0  0  0  0  0  0  0  0  0  0
  148.0296  140.0492  153.7985 C   0  0  1  0  0  0  0  0  0  0  0  0
  146.6774  140.0213  154.4842 C   0  0  0  0  0  0  0  0  0  0  0  0
  147.0226  141.1671  153.5632 C   0  0  1  0  0  0  0  0  0  0  0  0
  147.1744  142.5792  154.1015 C   0  0  0  0  0  0  0  0  0  0  0  0
  151.2982  144.1513  157.9853 C   0  0  0  0  0  0  0  0  0  0  0  0
  152.1108  144.5923  159.4614 S   0  0  0  0  0  0  0  0  0  0  0  0
  154.4353  140.8261  159.6596 H   0  0  0  0  0  0  0  0  0  0  0  0
  153.0202  140.3016  160.5693 H   0  0  0  0  0  0  0  0  0  0  0  0
  154.5344  140.6303  161.4055 H   0  0  0  0  0  0  0  0  0  0  0  0
  154.3916  143.0161  160.7801 H   0  0  0  0  0  0  0  0  0  0  0  0
  152.5658  143.7345  162.2700 H   0  0  0  0  0  0  0  0  0  0  0  0
  153.4332  142.3671  162.9579 H   0  0  0  0  0  0  0  0  0  0  0  0
  151.8555  142.1226  162.2165 H   0  0  0  0  0  0  0  0  0  0  0  0
  150.3543  142.7851  155.8706 H   0  0  0  0  0  0  0  0  0  0  0  0
  151.7012  141.6841  155.9086 H   0  0  0  0  0  0  0  0  0  0  0  0
  150.5227  140.0350  157.1125 H   0  0  0  0  0  0  0  0  0  0  0  0
  149.4487  141.1849  157.8743 H   0  0  0  0  0  0  0  0  0  0  0  0
  147.9881  140.7217  156.1684 H   0  0  0  0  0  0  0  0  0  0  0  0
  148.1709  139.3653  152.9627 H   0  0  0  0  0  0  0  0  0  0  0  0
  145.9602  139.2833  154.1308 H   0  0  0  0  0  0  0  0  0  0  0  0
  146.6285  140.2285  155.5519 H   0  0  0  0  0  0  0  0  0  0  0  0
  146.5671  141.1496  152.5750 H   0  0  0  0  0  0  0  0  0  0  0  0
  147.4179  142.5811  155.1633 H   0  0  0  0  0  0  0  0  0  0  0  0
  146.2408  143.1263  153.9717 H   0  0  0  0  0  0  0  0  0  0  0  0
  147.9606  143.1046  153.5594 H   0  0  0  0  0  0  0  0  0  0  0  0
  150.7567  144.8972  157.4224 H   0  0  0  0  0  0  0  0  0  0  0  0
  1  2  1  0  0  0  0
  1 18  1  0  0  0  0
  1 19  1  0  0  0  0
  1 20  1  0  0  0  0
  2  3  1  0  0  0  0
  2  4  1  0  0  0  0
  2 21  1  0  0  0  0
  3 22  1  0  0  0  0
  3 23  1  0  0  0  0
  3 24  1  0  0  0  0
  4 17  1  0  0  0  0
  4  5  2  0  0  0  0
  5  6  1  0  0  0  0
  6  7  1  0  0  0  0
  6 16  2  0  0  0  0
  7  8  1  0  0  0  0
  7 25  1  0  0  0  0
  7 26  1  0  0  0  0
  8  9  1  0  0  0  0
  8 27  1  0  0  0  0
  8 28  1  0  0  0  0
  9 10  1  0  0  0  0
  9 29  1  0  0  0  0
 10 11  2  0  0  0  0
 10 12  1  0  0  0  0
 12 14  1  0  0  0  0
 12 13  1  0  0  0  0
 12 30  1  0  0  0  0
 13 14  1  0  0  0  0
 13 31  1  0  0  0  0
 13 32  1  0  0  0  0
 14 15  1  0  0  0  0
 14 33  1  0  0  0  0
 15 34  1  0  0  0  0
 15 35  1  0  0  0  0
 15 36  1  0  0  0  0
 16 17  1  0  0  0  0
 16 37  1  0  0  0  0
M  END
> <s_m_source_file>
AV-unprocessed.smi

> <i_m_source_file_index>
3243

> <i_lp_mmshare_version>
43012

> <i_f3d_flags>
0

> <s_epik_input>
W0NIM11bQ0hdKFtDSDNdKWMxbmMoW2NIXXMxKVtDSDJdW0NIMl1bTkhdQyg9TylbQ0BASF0yW0NIMl1bQ0BIXTJbQ0gzXQ==

> <s_epik_cmdline>
J2VwaWtfcHl0aG9uJywgJy1waCcsICc3LjAnLCAnLXRuJywgJzgnLCAnLW1hJywgJzIwMCcsICctbWV0YWxfYmluZGluZycsICctaW1hZScsICc8aW5maWxlLm1hZT4nLCAnLW9tYWUnLCAnPG91dGZpbGUubWFlPic=

> <r_epik_Ionization_Penalty>
0.00084212

> <r_epik_Ionization_Penalty_Charging>
0

> <r_epik_Ionization_Penalty_Neutral>
0.00084212

> <r_epik_State_Penalty>
0.000542609

> <r_epik_Charging_Adjusted_Penalty>
0.000542609

> <i_epik_Tot_Q>
0

> <i_epik_Tot_abs_Q>
0

> <r_epik_Metal_State_Penalty>
-0

> <b_epik_Metal_Only>
0

> <s_lp_Force_Field>
OPLS_2005

> <r_lp_Energy>
-2.57645

> <b_lp_Chiralities_Consistent>
1

> <s_lp_Variant>
AV-unprocessed.smi:3243-2

> <Gold.Version>
5.8.1

> <Gold.Id.Protein>
6NUR|6NUR_protein|mol2

> <Gold.PLP.Fitness>
48.4119

> <Gold.PLP.PLP>
-42.7960

> <Gold.PLP.part.hbond>
-0.9634

> <Gold.PLP.part.metal>
0.0000

> <Gold.PLP.part.buried>
-4.0111

> <Gold.PLP.part.nonpolar>
-37.8976

> <Gold.PLP.part.repulsive>
0.1639

> <Gold.PLP.ligand.clash>
0.0000

> <Gold.PLP.ligand.torsion>
0.2613

> <Gold.PLP.Chemscore.Hbond>
1.0000

> <Gold.PLP.Chemscore.CHOScore>
0.9932

> <Gold.PLP.Chemscore.Metal>
0.0000

> <Gold.Chemscore.Hbonds>
donor molecule, donor type, donor heavy atom, donor atom, acceptor molecule, acceptor atom, score
      P1  H  7989  7998       L1    11  1.00
      L1  C    16    37       P1  8028  1.00

> <Gold.PLP.Chemscore.Internal.Correction>
0.1589

> <Gold.Rescore>
     Score         DG    S(hbond)    S(metal)    S(lipo)     H(rot)  DE(clash)    DE(int)     intcor
     18.51     -18.82       1.00        0.00     118.05       1.49       0.06       0.26       ----

> <Gold.Chemscore.Fitness>
18.5058

> <Gold.Chemscore.DG>
-18.8230

> <Gold.Chemscore.ZeroCoef>
-5.4800

> <Gold.Chemscore.Hbond>
0.9994

> <Gold.Chemscore.Metal>
0.0000

> <Gold.Chemscore.Lipo>
118.0470

> <Gold.Chemscore.Internal_Hbond>
0.0000

> <Gold.Chemscore.DEClash>
0.0611

> <Gold.Chemscore.DEInternal>
0.2560

> <Gold.Chemscore.Rot>
1.4870

> <Gold.Chemscore.Internal.Correction>
   9.000000E+99

> <Gold.Chemscore.Hbonds>
donor molecule, donor type, donor heavy atom, donor atom, acceptor molecule, acceptor atom, score
      P1  H  7989  7998       L1    11  0.94

> <Gold.Chemscore.Hbond.Weighted>
-3.3381

> <Gold.Chemscore.Metal.Weighted>
-0.0000

> <Gold.Chemscore.Lipo.Weighted>
-13.8115

> <Gold.Chemscore.Internal_Hbond.Weighted>
0.0000

> <Gold.Chemscore.DEClash.Weighted>
0.0611

> <Gold.Chemscore.DEInternal.Weighted>
0.2560

> <Gold.Chemscore.Rot.Weighted>
3.8067

> <Gold.Chemscore.Internal.Correction.Weighted>
   9.000000E+99

> <Gold.Protein.RotatedTorsions>
[ 6907 6896 6895 6894 ] final  127.13 input  -60.11 | X-H torsion
[ 7974 7965 7964 7962 ] final -101.41 input  175.53 | X-H torsion
[ 8008 7997 7996 7995 ] final -112.03 input   59.86 | X-H torsion
[ 10167 10162 10161 10158 ] final  171.94 input  -65.29 | X-H torsion
[ 10718 10713 10712 10709 ] final -155.02 input   66.30 | X-H torsion
[ 10763 10752 10751 10750 ] final   16.72 input  -60.55 | X-H torsion
[ 11005 11000 10999 10996 ] final   20.62 input  -57.11 | X-H torsion

> <Gold.Protein.ActiveResidues>
 VAL166  LYS551  ARG553  GLY616  TRP617  ASP618  TYR619  PRO620  LYS621  CYS622 
 ASP623  PHE694  ASN695  SER759  ASP760  ASP761  ALA762  ILE779  LEU786  VAL792 
 PHE793  MET794  SER795  GLU796  ALA797  LYS798  CYS799  TRP800  GLU811  SER814 

> <Gold.Protein.RotatedAtoms>
  152.3841  133.6586  159.6184 H   0  0  0  0  0  0  0  0  0  0  0  0  # atno 6907 bound_to 6896
  150.7764  133.9065  159.3365 H   0  0  0  0  0  0  0  0  0  0  0  0  # atno 6908 bound_to 6896
  151.6865  135.0955  160.0277 H   0  0  0  0  0  0  0  0  0  0  0  0  # atno 6909 bound_to 6896
  145.2820  140.9329  143.2926 H   0  0  0  0  0  0  0  0  0  0  0  0  # atno 7974 bound_to 7965
  154.9988  140.0394  157.2351 H   0  0  0  0  0  0  0  0  0  0  0  0  # atno 8008 bound_to 7997
  154.7562  140.2776  155.6229 H   0  0  0  0  0  0  0  0  0  0  0  0  # atno 8009 bound_to 7997
  156.2895  140.2637  156.2328 H   0  0  0  0  0  0  0  0  0  0  0  0  # atno 8010 bound_to 7997
  139.5061  144.3430  151.9999 H   0  0  0  0  0  0  0  0  0  0  0  0  # atno 10167 bound_to 10162
  156.5072  130.8418  151.2632 H   0  0  0  0  0  0  0  0  0  0  0  0  # atno 10718 bound_to 10713
  153.1405  135.6759  153.9035 H   0  0  0  0  0  0  0  0  0  0  0  0  # atno 10763 bound_to 10752
  153.8493  135.3095  155.3432 H   0  0  0  0  0  0  0  0  0  0  0  0  # atno 10764 bound_to 10752
  154.7783  135.4902  153.9875 H   0  0  0  0  0  0  0  0  0  0  0  0  # atno 10765 bound_to 10752
  140.4006  134.1722  155.7664 H   0  0  0  0  0  0  0  0  0  0  0  0  # atno 11005 bound_to 11000
  144.9245  139.4372  143.6525 LP  0  0  0  0  0  0  0  0  0  0  0  0  # atno 17320 bound_to 7965
  146.3213  139.8123  142.8943 LP  0  0  0  0  0  0  0  0  0  0  0  0  # atno 17321 bound_to 7965
  140.2867  144.3799  150.6101 LP  0  0  0  0  0  0  0  0  0  0  0  0  # atno 17342 bound_to 10162
  140.5977  143.2167  151.7132 LP  0  0  0  0  0  0  0  0  0  0  0  0  # atno 17343 bound_to 10162
  157.7455  130.9962  150.2770 LP  0  0  0  0  0  0  0  0  0  0  0  0  # atno 17370 bound_to 10713
  156.3275  130.3795  149.7520 LP  0  0  0  0  0  0  0  0  0  0  0  0  # atno 17371 bound_to 10713
  141.1858  133.8316  157.1092 LP  0  0  0  0  0  0  0  0  0  0  0  0  # atno 17394 bound_to 11000
  140.0339  134.9888  157.0833 LP  0  0  0  0  0  0  0  0  0  0  0  0  # atno 17395 bound_to 11000

$$$$
