AV-unprocessed.smi:261|AV-procd|sdf|1994|dock6
  -GOLD-   2262021183D 1   1.00000     0.00000
 Structure written by MMmdl.
 51 54  0  0  0  0  0  0  0  0  1 V2000
  148.6210  133.3600  153.1589 C   0  0  0  0  0  0  0  0  0  0  0  0
  147.3793  133.9125  152.7528 O   0  0  0  0  0  0  0  0  0  0  0  0
  146.6302  134.4898  153.8153 C   0  0  2  0  0  0  0  0  0  0  0  0
  145.2744  135.0271  153.3372 C   0  0  0  0  0  0  0  0  0  0  0  0
  145.5750  136.4279  152.7794 C   0  0  2  0  0  0  0  0  0  0  0  0
  145.8729  136.3855  151.2650 C   0  0  0  0  0  0  0  0  0  0  0  0
  145.6304  135.2570  150.5897 N   0  0  0  0  0  0  0  0  0  0  0  0
  146.3355  137.3789  150.7086 O   0  0  0  0  0  0  0  0  0  0  0  0
  146.7003  136.8700  153.6044 N   0  0  0  0  0  0  0  0  0  0  0  0
  147.0871  138.1637  153.7866 C   0  0  0  0  0  0  0  0  0  0  0  0
  146.2865  139.1401  153.2822 N   0  0  0  0  0  0  0  0  0  0  0  0
  146.6014  140.4292  153.4298 C   0  0  0  0  0  0  0  0  0  0  0  0
  147.6585  140.9625  154.0410 N   0  0  0  0  0  0  0  0  0  0  0  0
  148.4726  139.9958  154.5507 C   0  0  0  0  0  0  0  0  0  0  0  0
  148.2679  138.5864  154.4716 C   0  0  0  0  0  0  0  0  0  0  0  0
  149.3168  137.9353  155.1132 N   0  0  0  0  0  0  0  0  0  0  0  0
  150.0869  138.8947  155.5448 C   0  0  0  0  0  0  0  0  0  0  0  0
  149.6581  140.1660  155.2437 N   0  0  0  0  0  0  0  0  0  0  0  0
  150.3211  141.4117  155.5969 C   0  0  0  0  0  0  0  0  0  0  0  0
  150.2736  141.7378  157.1064 C   0  0  2  0  0  0  0  0  0  0  0  0
  149.0960  142.4695  157.3833 O   0  0  0  0  0  0  0  0  0  0  0  0
  151.4844  142.5479  157.6139 C   0  0  1  0  0  0  0  0  0  0  0  0
  151.4369  144.0390  157.2778 C   0  0  0  0  0  0  0  0  0  0  0  0
  152.2903  144.6786  158.3624 C   0  0  0  0  0  0  0  0  0  0  0  0
  152.4342  143.5811  159.4205 C   0  0  0  0  0  0  0  0  0  0  0  0
  151.5138  142.5717  159.0323 O   0  0  0  0  0  0  0  0  0  0  0  0
  147.3583  135.7552  154.2800 C   0  0  0  0  0  0  0  0  0  0  0  0
  146.5287  133.7784  154.6367 H   0  0  0  0  0  0  0  0  0  0  0  0
  144.7008  137.0569  152.9457 H   0  0  0  0  0  0  0  0  0  0  0  0
  149.1319  132.9407  152.2923 H   0  0  0  0  0  0  0  0  0  0  0  0
  148.4924  132.5598  153.8877 H   0  0  0  0  0  0  0  0  0  0  0  0
  149.2684  134.1242  153.5906 H   0  0  0  0  0  0  0  0  0  0  0  0
  144.7693  134.3716  152.6275 H   0  0  0  0  0  0  0  0  0  0  0  0
  144.6101  135.1256  154.1970 H   0  0  0  0  0  0  0  0  0  0  0  0
  145.8281  135.2124  149.6006 H   0  0  0  0  0  0  0  0  0  0  0  0
  145.2587  134.4525  151.0730 H   0  0  0  0  0  0  0  0  0  0  0  0
  145.9063  141.1335  152.9970 H   0  0  0  0  0  0  0  0  0  0  0  0
  150.9987  138.6997  156.0909 H   0  0  0  0  0  0  0  0  0  0  0  0
  151.3536  141.3702  155.2474 H   0  0  0  0  0  0  0  0  0  0  0  0
  149.8446  142.2160  155.0353 H   0  0  0  0  0  0  0  0  0  0  0  0
  150.2120  140.7985  157.6571 H   0  0  0  0  0  0  0  0  0  0  0  0
  148.9395  143.0674  156.6681 H   0  0  0  0  0  0  0  0  0  0  0  0
  152.4209  142.1213  157.2492 H   0  0  0  0  0  0  0  0  0  0  0  0
  151.7982  144.2543  156.2719 H   0  0  0  0  0  0  0  0  0  0  0  0
  150.4144  144.4113  157.3536 H   0  0  0  0  0  0  0  0  0  0  0  0
  153.2679  144.9753  157.9808 H   0  0  0  0  0  0  0  0  0  0  0  0
  151.8034  145.5671  158.7659 H   0  0  0  0  0  0  0  0  0  0  0  0
  153.4439  143.1677  159.4102 H   0  0  0  0  0  0  0  0  0  0  0  0
  152.2230  143.9390  160.4283 H   0  0  0  0  0  0  0  0  0  0  0  0
  147.2416  135.8797  155.3575 H   0  0  0  0  0  0  0  0  0  0  0  0
  148.4257  135.7137  154.0579 H   0  0  0  0  0  0  0  0  0  0  0  0
  1  2  1  0  0  0  0
  1 30  1  0  0  0  0
  1 31  1  0  0  0  0
  1 32  1  0  0  0  0
  2  3  1  0  0  0  0
  3 28  1  0  0  0  0
  3 27  1  0  0  0  0
  3  4  1  0  0  0  0
  4  5  1  0  0  0  0
  4 33  1  0  0  0  0
  4 34  1  0  0  0  0
  5 29  1  0  0  0  0
  5  6  1  0  0  0  0
  5  9  1  0  0  0  0
  6  7  1  0  0  0  0
  6  8  2  0  0  0  0
  7 35  1  0  0  0  0
  7 36  1  0  0  0  0
  9 10  1  0  0  0  0
  9 27  1  0  0  0  0
 10 15  1  0  0  0  0
 10 11  2  0  0  0  0
 11 12  1  0  0  0  0
 12 13  2  0  0  0  0
 12 37  1  0  0  0  0
 13 14  1  0  0  0  0
 14 18  1  0  0  0  0
 14 15  2  0  0  0  0
 15 16  1  0  0  0  0
 16 17  2  0  0  0  0
 17 18  1  0  0  0  0
 17 38  1  0  0  0  0
 18 19  1  0  0  0  0
 19 20  1  0  0  0  0
 19 39  1  0  0  0  0
 19 40  1  0  0  0  0
 20 21  1  0  0  0  0
 20 22  1  0  0  0  0
 20 41  1  0  0  0  0
 21 42  1  0  0  0  0
 22 26  1  0  0  0  0
 22 23  1  0  0  0  0
 22 43  1  0  0  0  0
 23 24  1  0  0  0  0
 23 44  1  0  0  0  0
 23 45  1  0  0  0  0
 24 25  1  0  0  0  0
 24 46  1  0  0  0  0
 24 47  1  0  0  0  0
 25 26  1  0  0  0  0
 25 48  1  0  0  0  0
 25 49  1  0  0  0  0
 27 50  1  0  0  0  0
 27 51  1  0  0  0  0
M  END
> <s_m_source_file>
AV-unprocessed.smi

> <i_m_source_file_index>
261

> <i_lp_mmshare_version>
43012

> <i_f3d_flags>
0

> <s_epik_input>
W0NIM11PW0NASF0xW0NIMl1bQ0BASF0oQyg9TylbTkgyXSlOKFtDSDJdMSljKG5bY0hdbjIpYyhjMjMpbltjSF1uM1tDSDJdW0NASF0oW09IXSlbQ0BASF00W0NIMl1bQ0gyXVtDSDJdTzQ=

> <s_epik_cmdline>
J2VwaWtfcHl0aG9uJywgJy1waCcsICc3LjAnLCAnLXRuJywgJzgnLCAnLW1hJywgJzIwMCcsICctbWV0YWxfYmluZGluZycsICctaW1hZScsICc8aW5maWxlLm1hZT4nLCAnLW9tYWUnLCAnPG91dGZpbGUubWFlPic=

> <r_lp_tautomer_probability>
1

> <r_epik_Ionization_Penalty>
0.000713824

> <r_epik_Ionization_Penalty_Charging>
0

> <r_epik_Ionization_Penalty_Neutral>
0.000713824

> <r_epik_State_Penalty>
0.000402132

> <r_epik_Charging_Adjusted_Penalty>
0.000402132

> <i_epik_Tot_Q>
0

> <i_epik_Tot_abs_Q>
0

> <r_epik_Metal_State_Penalty>
-0

> <b_epik_Metal_Only>
0

> <s_lp_Force_Field>
OPLS_2005

> <r_lp_Energy>
42.3495

> <b_lp_Chiralities_Consistent>
1

> <s_lp_Variant>
AV-unprocessed.smi:261-12

> <Gold.Version>
5.8.1

> <Gold.Id.Protein>
6NUR|6NUR_protein|mol2

> <Gold.PLP.Fitness>
42.2198

> <Gold.PLP.PLP>
-33.3000

> <Gold.PLP.part.hbond>
-2.9991

> <Gold.PLP.part.metal>
0.0000

> <Gold.PLP.part.buried>
-1.7190

> <Gold.PLP.part.nonpolar>
-32.7734

> <Gold.PLP.part.repulsive>
4.0443

> <Gold.PLP.ligand.clash>
0.0000

> <Gold.PLP.ligand.torsion>
0.8824

> <Gold.PLP.Chemscore.Hbond>
3.0000

> <Gold.PLP.Chemscore.CHOScore>
0.5294

> <Gold.PLP.Chemscore.Metal>
0.0000

> <Gold.Chemscore.Hbonds>
donor molecule, donor type, donor heavy atom, donor atom, acceptor molecule, acceptor atom, score
      L1  H     7    35       P1  7921  1.00
      L1  H    21    42       P1  8028  1.00
      P1  H  7954  7966       L1     8  0.94
      L1  C    12    37       P1 10175  0.79

> <Gold.PLP.Chemscore.Internal.Correction>
0.0963

> <Gold.Rescore>
     Score         DG    S(hbond)    S(metal)    S(lipo)     H(rot)  DE(clash)    DE(int)     intcor
     11.77     -15.36       2.64        0.00      78.82       3.18       2.03       1.56       ----

> <Gold.Chemscore.Fitness>
11.7699

> <Gold.Chemscore.DG>
-15.3613

> <Gold.Chemscore.ZeroCoef>
-5.4800

> <Gold.Chemscore.Hbond>
2.6371

> <Gold.Chemscore.Metal>
0.0000

> <Gold.Chemscore.Lipo>
78.8202

> <Gold.Chemscore.Internal_Hbond>
0.0000

> <Gold.Chemscore.DEClash>
2.0324

> <Gold.Chemscore.DEInternal>
1.5590

> <Gold.Chemscore.Rot>
3.1831

> <Gold.Chemscore.Internal.Correction>
   9.000000E+99

> <Gold.Chemscore.Hbonds>
donor molecule, donor type, donor heavy atom, donor atom, acceptor molecule, acceptor atom, score
      L1  H     7    35       P1  7921  0.90
      L1  H    21    42       P1  8028  0.95
      P1  H  7954  7966       L1     8  0.85

> <Gold.Chemscore.Hbond.Weighted>
-8.8080

> <Gold.Chemscore.Metal.Weighted>
-0.0000

> <Gold.Chemscore.Lipo.Weighted>
-9.2220

> <Gold.Chemscore.Internal_Hbond.Weighted>
0.0000

> <Gold.Chemscore.DEClash.Weighted>
2.0324

> <Gold.Chemscore.DEInternal.Weighted>
1.5590

> <Gold.Chemscore.Rot.Weighted>
8.1486

> <Gold.Chemscore.Internal.Correction.Weighted>
   9.000000E+99

> <Gold.Protein.RotatedTorsions>
[ 6907 6896 6895 6894 ] final  -55.93 input  -60.11 | X-H torsion
[ 7974 7965 7964 7962 ] final  163.02 input  175.53 | X-H torsion
[ 8008 7997 7996 7995 ] final  -64.80 input   59.86 | X-H torsion
[ 10167 10162 10161 10158 ] final  -37.27 input  -65.29 | X-H torsion
[ 10718 10713 10712 10709 ] final  158.64 input   66.30 | X-H torsion
[ 10763 10752 10751 10750 ] final  109.51 input  -60.55 | X-H torsion
[ 11005 11000 10999 10996 ] final  170.03 input  -57.11 | X-H torsion

> <Gold.Protein.ActiveResidues>
 VAL166  LYS551  ARG553  GLY616  TRP617  ASP618  TYR619  PRO620  LYS621  CYS622 
 ASP623  PHE694  ASN695  SER759  ASP760  ASP761  ALA762  ILE779  LEU786  VAL792 
 PHE793  MET794  SER795  GLU796  ALA797  LYS798  CYS799  TRP800  GLU811  SER814 

> <Gold.Protein.RotatedAtoms>
  150.8210  134.7417  159.6771 H   0  0  0  0  0  0  0  0  0  0  0  0  # atno 6907 bound_to 6896
  152.4325  134.5746  159.9940 H   0  0  0  0  0  0  0  0  0  0  0  0  # atno 6908 bound_to 6896
  151.5930  133.3327  159.3067 H   0  0  0  0  0  0  0  0  0  0  0  0  # atno 6909 bound_to 6896
  144.7609  139.8123  143.6333 H   0  0  0  0  0  0  0  0  0  0  0  0  # atno 7974 bound_to 7965
  154.4633  140.0946  156.6952 H   0  0  0  0  0  0  0  0  0  0  0  0  # atno 8008 bound_to 7997
  155.4931  140.3471  155.4340 H   0  0  0  0  0  0  0  0  0  0  0  0  # atno 8009 bound_to 7997
  156.0910  140.1397  156.9580 H   0  0  0  0  0  0  0  0  0  0  0  0  # atno 8010 bound_to 7997
  140.7122  143.3353  151.2477 H   0  0  0  0  0  0  0  0  0  0  0  0  # atno 10167 bound_to 10162
  157.1751  131.0619  151.2162 H   0  0  0  0  0  0  0  0  0  0  0  0  # atno 10718 bound_to 10713
  153.4358  135.3777  155.2198 H   0  0  0  0  0  0  0  0  0  0  0  0  # atno 10763 bound_to 10752
  154.8752  135.3851  154.4212 H   0  0  0  0  0  0  0  0  0  0  0  0  # atno 10764 bound_to 10752
  153.4751  135.7087  153.6034 H   0  0  0  0  0  0  0  0  0  0  0  0  # atno 10765 bound_to 10752
  140.3040  134.7571  157.3939 H   0  0  0  0  0  0  0  0  0  0  0  0  # atno 11005 bound_to 11000
  146.1670  139.4806  142.9952 LP  0  0  0  0  0  0  0  0  0  0  0  0  # atno 17320 bound_to 7965
  145.6623  141.0237  143.1702 LP  0  0  0  0  0  0  0  0  0  0  0  0  # atno 17321 bound_to 7965
  139.6846  143.9796  152.2827 LP  0  0  0  0  0  0  0  0  0  0  0  0  # atno 17342 bound_to 10162
  139.9437  144.6665  150.8241 LP  0  0  0  0  0  0  0  0  0  0  0  0  # atno 17343 bound_to 10162
  157.4006  130.7331  149.6764 LP  0  0  0  0  0  0  0  0  0  0  0  0  # atno 17370 bound_to 10713
  155.9732  130.4121  150.4018 LP  0  0  0  0  0  0  0  0  0  0  0  0  # atno 17371 bound_to 10713
  140.1083  134.5379  155.8289 LP  0  0  0  0  0  0  0  0  0  0  0  0  # atno 17394 bound_to 11000
  141.2122  133.6716  156.6641 LP  0  0  0  0  0  0  0  0  0  0  0  0  # atno 17395 bound_to 11000

$$$$
