AV-unprocessed.smi:635|AV-procd|sdf|3139|dock4
  -GOLD-   22720 0 63D 1   1.00000     0.00000
 Structure written by MMmdl.
 37 38  0  0  0  0  0  0  0  0  1 V2000
  149.0597  132.6852  153.7094 C   0  0  0  0  0  0  0  0  0  0  0  0
  149.4400  133.5438  154.9206 C   0  0  0  0  0  0  0  0  0  0  0  0
  150.1985  134.8201  154.5248 C   0  0  0  0  0  0  0  0  0  0  0  0
  150.7435  135.5930  155.7324 C   0  0  0  0  0  0  0  0  0  0  0  0
  151.6685  136.5747  155.2790 O   0  0  0  0  0  0  0  0  0  0  0  0
  151.0980  137.6226  154.5002 C   0  0  0  0  0  0  0  0  0  0  0  0
  151.1919  138.9721  155.2211 C   0  0  0  0  0  0  0  0  0  0  0  0
  150.6869  139.9678  154.7034 O   0  0  0  0  0  0  0  0  0  0  0  0
  151.8489  138.9675  156.3962 N   0  0  0  0  0  0  0  0  0  0  0  0
  152.1013  140.0607  157.2650 C   0  0  0  0  0  0  0  0  0  0  0  0
  151.2322  141.1620  157.1191 C   0  0  0  0  0  0  0  0  0  0  0  0
  151.4229  142.2768  157.9530 C   0  0  0  0  0  0  0  0  0  0  0  0
  152.4772  142.2176  158.8832 C   0  0  0  0  0  0  0  0  0  0  0  0
  152.7710  143.3352  159.8348 C   0  0  0  0  0  0  0  0  0  0  0  0
  152.7693  143.1149  161.3313 C   0  0  0  0  0  0  0  0  0  0  0  0
  151.6757  143.9316  160.6890 C   0  0  0  0  0  0  0  0  0  0  0  0
  153.2800  141.1354  158.9894 N   0  0  0  0  0  0  0  0  0  0  0  0
  153.0949  140.0791  158.1909 N   0  0  0  0  0  0  0  0  0  0  0  0
  148.5214  131.7901  154.0219 H   0  0  0  0  0  0  0  0  0  0  0  0
  149.9453  132.3661  153.1591 H   0  0  0  0  0  0  0  0  0  0  0  0
  148.4174  133.2365  153.0220 H   0  0  0  0  0  0  0  0  0  0  0  0
  148.5349  133.8081  155.4685 H   0  0  0  0  0  0  0  0  0  0  0  0
  150.0509  132.9515  155.6026 H   0  0  0  0  0  0  0  0  0  0  0  0
  151.0303  134.5524  153.8722 H   0  0  0  0  0  0  0  0  0  0  0  0
  149.5481  135.4720  153.9403 H   0  0  0  0  0  0  0  0  0  0  0  0
  149.9252  136.0655  156.2777 H   0  0  0  0  0  0  0  0  0  0  0  0
  151.2288  134.8956  156.4159 H   0  0  0  0  0  0  0  0  0  0  0  0
  151.6511  137.6964  153.5636 H   0  0  0  0  0  0  0  0  0  0  0  0
  150.0632  137.3926  154.2411 H   0  0  0  0  0  0  0  0  0  0  0  0
  152.1990  138.0726  156.7061 H   0  0  0  0  0  0  0  0  0  0  0  0
  150.4370  141.1556  156.3878 H   0  0  0  0  0  0  0  0  0  0  0  0
  150.7818  143.1430  157.8816 H   0  0  0  0  0  0  0  0  0  0  0  0
  153.5196  144.0109  159.4253 H   0  0  0  0  0  0  0  0  0  0  0  0
  152.4965  142.1309  161.7076 H   0  0  0  0  0  0  0  0  0  0  0  0
  153.5011  143.6577  161.9263 H   0  0  0  0  0  0  0  0  0  0  0  0
  151.6958  145.0056  160.8625 H   0  0  0  0  0  0  0  0  0  0  0  0
  150.6855  143.4835  160.6328 H   0  0  0  0  0  0  0  0  0  0  0  0
  1  2  1  0  0  0  0
  1 19  1  0  0  0  0
  1 20  1  0  0  0  0
  1 21  1  0  0  0  0
  2  3  1  0  0  0  0
  2 22  1  0  0  0  0
  2 23  1  0  0  0  0
  3  4  1  0  0  0  0
  3 24  1  0  0  0  0
  3 25  1  0  0  0  0
  4  5  1  0  0  0  0
  4 26  1  0  0  0  0
  4 27  1  0  0  0  0
  5  6  1  0  0  0  0
  6  7  1  0  0  0  0
  6 28  1  0  0  0  0
  6 29  1  0  0  0  0
  7  8  2  0  0  0  0
  7  9  1  0  0  0  0
  9 10  1  0  0  0  0
  9 30  1  0  0  0  0
 10 18  1  0  0  0  0
 10 11  2  0  0  0  0
 11 12  1  0  0  0  0
 11 31  1  0  0  0  0
 12 13  2  0  0  0  0
 12 32  1  0  0  0  0
 13 14  1  0  0  0  0
 13 17  1  0  0  0  0
 14 16  1  0  0  0  0
 14 15  1  0  0  0  0
 14 33  1  0  0  0  0
 15 16  1  0  0  0  0
 15 34  1  0  0  0  0
 15 35  1  0  0  0  0
 16 36  1  0  0  0  0
 16 37  1  0  0  0  0
 17 18  2  0  0  0  0
M  END
> <s_m_source_file>
AV-unprocessed.smi

> <i_m_source_file_index>
635

> <i_lp_mmshare_version>
43012

> <i_f3d_flags>
0

> <s_epik_input>
W0NIM11bQ0gyXVtDSDJdW0NIMl1PW0NIMl1DKD1PKVtOSF1jMVtjSF1bY0hdYyhubjEpW0NIXTJbQ0gyXVtDSDJdMg==

> <s_epik_cmdline>
J2VwaWtfcHl0aG9uJywgJy1waCcsICc3LjAnLCAnLXRuJywgJzgnLCAnLW1hJywgJzIwMCcsICctbWV0YWxfYmluZGluZycsICctaW1hZScsICc8aW5maWxlLm1hZT4nLCAnLW9tYWUnLCAnPG91dGZpbGUubWFlPic=

> <r_lp_tautomer_probability>
1

> <r_epik_Ionization_Penalty>
0.00559584

> <r_epik_Ionization_Penalty_Charging>
0

> <r_epik_Ionization_Penalty_Neutral>
0.00559584

> <r_epik_State_Penalty>
-0

> <r_epik_Charging_Adjusted_Penalty>
0

> <i_epik_Tot_Q>
0

> <i_epik_Tot_abs_Q>
0

> <r_epik_Metal_State_Penalty>
-0

> <b_epik_Metal_Only>
0

> <s_lp_Force_Field>
OPLS_2005

> <r_lp_Energy>
16.6483

> <b_lp_Chiralities_Consistent>
1

> <s_lp_Variant>
AV-unprocessed.smi:635-1

> <Gold.Version>
5.8.1

> <Gold.Id.Protein>
6NUR|6NUR_protein|mol2

> <Gold.PLP.Fitness>
45.5187

> <Gold.PLP.PLP>
-37.6324

> <Gold.PLP.part.hbond>
-3.0000

> <Gold.PLP.part.metal>
0.0000

> <Gold.PLP.part.buried>
-4.8223

> <Gold.PLP.part.nonpolar>
-30.6467

> <Gold.PLP.part.repulsive>
0.2665

> <Gold.PLP.ligand.clash>
0.0222

> <Gold.PLP.ligand.torsion>
0.6295

> <Gold.PLP.Chemscore.Hbond>
2.9920

> <Gold.PLP.Chemscore.CHOScore>
0.0000

> <Gold.PLP.Chemscore.Metal>
0.0000

> <Gold.Chemscore.Hbonds>
donor molecule, donor type, donor heavy atom, donor atom, acceptor molecule, acceptor atom, score
      P1  H  7989  7998       L1     8  1.00
      P1  H  7997  8010       L1    18  0.98
      P1  H 10752 10764       L1     5  1.00

> <Gold.PLP.Chemscore.Internal.Correction>
0.1915

> <Gold.Rescore>
     Score         DG    S(hbond)    S(metal)    S(lipo)     H(rot)  DE(clash)    DE(int)     intcor
     15.31     -17.38       1.84        0.00      88.81       1.82       0.00       2.07       ----

> <Gold.Chemscore.Fitness>
15.3133

> <Gold.Chemscore.DG>
-17.3845

> <Gold.Chemscore.ZeroCoef>
-5.4800

> <Gold.Chemscore.Hbond>
1.8447

> <Gold.Chemscore.Metal>
0.0000

> <Gold.Chemscore.Lipo>
88.8054

> <Gold.Chemscore.Internal_Hbond>
0.0000

> <Gold.Chemscore.DEClash>
0.0038

> <Gold.Chemscore.DEInternal>
2.0674

> <Gold.Chemscore.Rot>
1.8153

> <Gold.Chemscore.Internal.Correction>
   9.000000E+99

> <Gold.Chemscore.Hbonds>
donor molecule, donor type, donor heavy atom, donor atom, acceptor molecule, acceptor atom, score
      P1  H  7989  7998       L1     8  0.97
      P1  H  7997  8010       L1    18  0.14
      P1  H 10752 10764       L1     5  0.30

> <Gold.Chemscore.Hbond.Weighted>
-6.1615

> <Gold.Chemscore.Metal.Weighted>
-0.0000

> <Gold.Chemscore.Lipo.Weighted>
-10.3902

> <Gold.Chemscore.Internal_Hbond.Weighted>
0.0000

> <Gold.Chemscore.DEClash.Weighted>
0.0038

> <Gold.Chemscore.DEInternal.Weighted>
2.0674

> <Gold.Chemscore.Rot.Weighted>
4.6472

> <Gold.Chemscore.Internal.Correction.Weighted>
   9.000000E+99

> <Gold.Protein.RotatedTorsions>
[ 6907 6896 6895 6894 ] final   45.96 input  -60.11 | X-H torsion
[ 7974 7965 7964 7962 ] final -140.85 input  175.53 | X-H torsion
[ 8008 7997 7996 7995 ] final   28.47 input   59.86 | X-H torsion
[ 10167 10162 10161 10158 ] final  150.43 input  -65.29 | X-H torsion
[ 10718 10713 10712 10709 ] final  154.69 input   66.30 | X-H torsion
[ 10763 10752 10751 10750 ] final  -54.85 input  -60.55 | X-H torsion
[ 11005 11000 10999 10996 ] final -149.51 input  -57.11 | X-H torsion

> <Gold.Protein.ActiveResidues>
 VAL166  LYS551  ARG553  GLY616  TRP617  ASP618  TYR619  PRO620  LYS621  CYS622 
 ASP623  PHE694  ASN695  SER759  ASP760  ASP761  ALA762  ILE779  LEU786  VAL792 
 PHE793  MET794  SER795  GLU796  ALA797  LYS798  CYS799  TRP800  GLU811  SER814 

> <Gold.Protein.RotatedAtoms>
  152.2508  134.8135  160.0446 H   0  0  0  0  0  0  0  0  0  0  0  0  # atno 6907 bound_to 6896
  151.8816  133.3491  159.3776 H   0  0  0  0  0  0  0  0  0  0  0  0  # atno 6908 bound_to 6896
  150.7083  134.4940  159.5573 H   0  0  0  0  0  0  0  0  0  0  0  0  # atno 6909 bound_to 6896
  144.8565  140.6151  143.5356 H   0  0  0  0  0  0  0  0  0  0  0  0  # atno 7974 bound_to 7965
  155.0591  140.3188  155.4666 H   0  0  0  0  0  0  0  0  0  0  0  0  # atno 8008 bound_to 7997
  156.2817  140.2132  156.5662 H   0  0  0  0  0  0  0  0  0  0  0  0  # atno 8009 bound_to 7997
  154.7147  140.0495  157.0571 H   0  0  0  0  0  0  0  0  0  0  0  0  # atno 8010 bound_to 7997
  139.4850  144.5522  151.7380 H   0  0  0  0  0  0  0  0  0  0  0  0  # atno 10167 bound_to 10162
  157.2283  131.0733  151.1869 H   0  0  0  0  0  0  0  0  0  0  0  0  # atno 10718 bound_to 10713
  154.1815  135.6442  153.5035 H   0  0  0  0  0  0  0  0  0  0  0  0  # atno 10763 bound_to 10752
  153.0058  135.5407  154.6509 H   0  0  0  0  0  0  0  0  0  0  0  0  # atno 10764 bound_to 10752
  154.5875  135.2931  155.0643 H   0  0  0  0  0  0  0  0  0  0  0  0  # atno 10765 bound_to 10752
  140.7500  134.3417  157.5128 H   0  0  0  0  0  0  0  0  0  0  0  0  # atno 11005 bound_to 11000
  145.4396  139.1537  143.3978 LP  0  0  0  0  0  0  0  0  0  0  0  0  # atno 17320 bound_to 7965
  146.2827  140.4516  142.8770 LP  0  0  0  0  0  0  0  0  0  0  0  0  # atno 17321 bound_to 7965
  140.5078  144.1071  150.5987 LP  0  0  0  0  0  0  0  0  0  0  0  0  # atno 17342 bound_to 10162
  140.3986  143.2715  151.9974 LP  0  0  0  0  0  0  0  0  0  0  0  0  # atno 17343 bound_to 10162
  157.3505  130.7079  149.6437 LP  0  0  0  0  0  0  0  0  0  0  0  0  # atno 17370 bound_to 10713
  155.9677  130.4254  150.4651 LP  0  0  0  0  0  0  0  0  0  0  0  0  # atno 17371 bound_to 10713
  139.8789  134.9136  156.3087 LP  0  0  0  0  0  0  0  0  0  0  0  0  # atno 17394 bound_to 11000
  140.9759  133.7298  156.0601 LP  0  0  0  0  0  0  0  0  0  0  0  0  # atno 17395 bound_to 11000

$$$$
