AV-unprocessed.smi:107|AV-procd|sdf|1016|dock3
  -GOLD-   2262018 13D 1   1.00000     0.00000
 Structure written by MMmdl.
 31 32  0  0  0  0  0  0  0  0  1 V2000
  152.1656  141.5811  159.4429 C   0  0  0  0  0  0  0  0  0  0  0  0
  152.3484  140.3341  158.5938 C   0  0  0  0  0  0  0  0  0  0  0  0
  151.9002  140.2527  157.3151 C   0  0  0  0  0  0  0  0  0  0  0  0
  152.0486  139.1283  156.5153 N   0  0  0  0  0  0  0  0  0  0  0  0
  151.5231  139.1122  155.0972 C   0  0  1  0  0  0  0  0  0  0  0  0
  150.5736  137.9296  154.8800 C   0  0  0  0  0  0  0  0  0  0  0  0
  149.2144  138.6035  154.8600 C   0  0  2  0  0  0  0  0  0  0  0  0
  148.3058  137.8888  154.0474 O   0  0  0  0  0  0  0  0  0  0  0  0
  149.5415  139.9873  154.2932 C   0  0  1  0  0  0  0  0  0  0  0  0
  148.5188  141.0669  154.6779 C   0  0  0  0  0  0  0  0  0  0  0  0
  148.8746  142.2996  154.0893 O   0  0  0  0  0  0  0  0  0  0  0  0
  150.8053  140.2893  154.8774 O   0  0  0  0  0  0  0  0  0  0  0  0
  152.6912  137.9872  157.0407 C   0  0  0  0  0  0  0  0  0  0  0  0
  152.8435  136.9460  156.4031 O   0  0  0  0  0  0  0  0  0  0  0  0
  153.1558  138.0719  158.3522 N   0  0  0  0  0  0  0  0  0  0  0  0
  153.0328  139.1835  159.1894 C   0  0  0  0  0  0  0  0  0  0  0  0
  153.4851  139.1361  160.3321 O   0  0  0  0  0  0  0  0  0  0  0  0
  153.6185  137.2585  158.7309 H   0  0  0  0  0  0  0  0  0  0  0  0
  151.6576  142.3739  158.8933 H   0  0  0  0  0  0  0  0  0  0  0  0
  153.1324  141.9665  159.7679 H   0  0  0  0  0  0  0  0  0  0  0  0
  151.5714  141.3547  160.3288 H   0  0  0  0  0  0  0  0  0  0  0  0
  151.3991  141.1141  156.8995 H   0  0  0  0  0  0  0  0  0  0  0  0
  152.3797  139.0998  154.4221 H   0  0  0  0  0  0  0  0  0  0  0  0
  150.8065  137.4808  153.9132 H   0  0  0  0  0  0  0  0  0  0  0  0
  150.6751  137.1677  155.6544 H   0  0  0  0  0  0  0  0  0  0  0  0
  148.8203  138.6831  155.8738 H   0  0  0  0  0  0  0  0  0  0  0  0
  148.7838  137.2289  153.5685 H   0  0  0  0  0  0  0  0  0  0  0  0
  149.6596  139.9197  153.2096 H   0  0  0  0  0  0  0  0  0  0  0  0
  147.5307  140.7992  154.3024 H   0  0  0  0  0  0  0  0  0  0  0  0
  148.4376  141.1697  155.7605 H   0  0  0  0  0  0  0  0  0  0  0  0
  148.7461  142.9855  154.7264 H   0  0  0  0  0  0  0  0  0  0  0  0
  1  2  1  0  0  0  0
  1 19  1  0  0  0  0
  1 20  1  0  0  0  0
  1 21  1  0  0  0  0
  2 16  1  0  0  0  0
  2  3  2  0  0  0  0
  3  4  1  0  0  0  0
  3 22  1  0  0  0  0
  4  5  1  0  0  0  0
  4 13  1  0  0  0  0
  5 12  1  0  0  0  0
  5  6  1  0  0  0  0
  5 23  1  0  0  0  0
  6  7  1  0  0  0  0
  6 24  1  0  0  0  0
  6 25  1  0  0  0  0
  7  8  1  0  0  0  0
  7  9  1  0  0  0  0
  7 26  1  0  0  0  0
  8 27  1  0  0  0  0
  9 10  1  0  0  0  0
  9 12  1  0  0  0  0
  9 28  1  0  0  0  0
 10 11  1  0  0  0  0
 10 29  1  0  0  0  0
 10 30  1  0  0  0  0
 11 31  1  0  0  0  0
 13 14  2  0  0  0  0
 13 15  1  0  0  0  0
 15 18  1  0  0  0  0
 15 16  1  0  0  0  0
 16 17  2  0  0  0  0
M  END
> <s_m_source_file>
AV-unprocessed.smi

> <i_m_source_file_index>
107

> <i_lp_mmshare_version>
43012

> <i_f3d_flags>
0

> <s_epik_input>
Tz1jMVtuSF1jKD1PKW4oW2NIXWMxW0NIM10pW0NAQEhdMltDSDJdW0NAQEhdKFtPSF0pW0NASF0oTzIpW0NIMl1bT0hd

> <s_epik_cmdline>
J2VwaWtfcHl0aG9uJywgJy1waCcsICc3LjAnLCAnLXRuJywgJzgnLCAnLW1hJywgJzIwMCcsICctbWV0YWxfYmluZGluZycsICctaW1hZScsICc8aW5maWxlLm1hZT4nLCAnLW9tYWUnLCAnPG91dGZpbGUubWFlPic=

> <r_lp_tautomer_probability>
0.999537

> <r_epik_Ionization_Penalty>
0.00121888

> <r_epik_Ionization_Penalty_Charging>
0.00121876

> <r_epik_Ionization_Penalty_Neutral>
1.19946e-07

> <r_epik_State_Penalty>
0.000805124

> <r_epik_Charging_Adjusted_Penalty>
0.00202389

> <i_epik_Tot_Q>
0

> <i_epik_Tot_abs_Q>
0

> <r_epik_Metal_State_Penalty>
0.662472

> <b_epik_Metal_Only>
0

> <s_epik_Chemistry_Notes>
This compound contains an acetal/aminal-like group ( X-CH(R)-Y where X, Y are N, S, or O) that may be acid/base labile, releasing an aldehyde.

> <s_lp_Force_Field>
OPLS_2005

> <r_lp_Energy>
24.9253

> <b_lp_Chiralities_Consistent>
1

> <s_lp_Variant>
AV-unprocessed.smi:107-4

> <Gold.Version>
5.8.1

> <Gold.Id.Protein>
6NUR|6NUR_protein|mol2

> <Gold.PLP.Fitness>
39.6328

> <Gold.PLP.PLP>
-27.4163

> <Gold.PLP.part.hbond>
-5.0000

> <Gold.PLP.part.metal>
0.0000

> <Gold.PLP.part.buried>
-3.3847

> <Gold.PLP.part.nonpolar>
-19.3708

> <Gold.PLP.part.repulsive>
0.1704

> <Gold.PLP.ligand.clash>
0.0000

> <Gold.PLP.ligand.torsion>
0.0762

> <Gold.PLP.Chemscore.Hbond>
4.1200

> <Gold.PLP.Chemscore.CHOScore>
0.0000

> <Gold.PLP.Chemscore.Metal>
0.0000

> <Gold.Chemscore.Hbonds>
donor molecule, donor type, donor heavy atom, donor atom, acceptor molecule, acceptor atom, score
      L1  H     8    27       P1  7948  0.93
      L1  H    11    31       P1  8028  1.00
      P1  H  7989  7998       L1    12  1.00
      P1  H  8011  8017       L1    11  0.24
      P1  H 10752 10765       L1    14  0.86

> <Gold.PLP.Chemscore.Internal.Correction>
0.0089

> <Gold.Rescore>
     Score         DG    S(hbond)    S(metal)    S(lipo)     H(rot)  DE(clash)    DE(int)     intcor
     13.24     -14.88       3.33        0.00      44.98       2.73       0.36       1.29       ----

> <Gold.Chemscore.Fitness>
13.2422

> <Gold.Chemscore.DG>
-14.8839

> <Gold.Chemscore.ZeroCoef>
-5.4800

> <Gold.Chemscore.Hbond>
3.3289

> <Gold.Chemscore.Metal>
0.0000

> <Gold.Chemscore.Lipo>
44.9754

> <Gold.Chemscore.Internal_Hbond>
0.0000

> <Gold.Chemscore.DEClash>
0.3559

> <Gold.Chemscore.DEInternal>
1.2858

> <Gold.Chemscore.Rot>
2.7253

> <Gold.Chemscore.Internal.Correction>
   9.000000E+99

> <Gold.Chemscore.Hbonds>
donor molecule, donor type, donor heavy atom, donor atom, acceptor molecule, acceptor atom, score
      L1  H     8    27       P1  7948  0.89
      L1  H    11    31       P1  8028  0.99
      P1  H  7989  7998       L1    12  0.07
      P1  H  8011  8017       L1    11  0.24
      P1  H 10752 10765       L1    14  0.83

> <Gold.Chemscore.Hbond.Weighted>
-11.1187

> <Gold.Chemscore.Metal.Weighted>
-0.0000

> <Gold.Chemscore.Lipo.Weighted>
-5.2621

> <Gold.Chemscore.Internal_Hbond.Weighted>
0.0000

> <Gold.Chemscore.DEClash.Weighted>
0.3559

> <Gold.Chemscore.DEInternal.Weighted>
1.2858

> <Gold.Chemscore.Rot.Weighted>
6.9769

> <Gold.Chemscore.Internal.Correction.Weighted>
   9.000000E+99

> <Gold.Protein.RotatedTorsions>
[ 6907 6896 6895 6894 ] final  102.34 input  -60.11 | X-H torsion
[ 7974 7965 7964 7962 ] final  -32.73 input  175.53 | X-H torsion
[ 8008 7997 7996 7995 ] final  -75.60 input   59.86 | X-H torsion
[ 10167 10162 10161 10158 ] final    5.14 input  -65.29 | X-H torsion
[ 10718 10713 10712 10709 ] final -144.23 input   66.30 | X-H torsion
[ 10763 10752 10751 10750 ] final -142.18 input  -60.55 | X-H torsion
[ 11005 11000 10999 10996 ] final  145.10 input  -57.11 | X-H torsion

> <Gold.Protein.ActiveResidues>
 VAL166  LYS551  ARG553  GLY616  TRP617  ASP618  TYR619  PRO620  LYS621  CYS622 
 ASP623  PHE694  ASN695  SER759  ASP760  ASP761  ALA762  ILE779  LEU786  VAL792 
 PHE793  MET794  SER795  GLU796  ALA797  LYS798  CYS799  TRP800  GLU811  SER814 

> <Gold.Protein.RotatedAtoms>
  152.5326  133.9990  159.7885 H   0  0  0  0  0  0  0  0  0  0  0  0  # atno 6907 bound_to 6896
  151.0212  133.5867  159.2678 H   0  0  0  0  0  0  0  0  0  0  0  0  # atno 6908 bound_to 6896
  151.2906  135.0747  159.9256 H   0  0  0  0  0  0  0  0  0  0  0  0  # atno 6909 bound_to 6896
  146.0967  140.5829  142.8840 H   0  0  0  0  0  0  0  0  0  0  0  0  # atno 7974 bound_to 7965
  154.5431  140.0741  156.8543 H   0  0  0  0  0  0  0  0  0  0  0  0  # atno 8008 bound_to 7997
  155.3142  140.3392  155.4225 H   0  0  0  0  0  0  0  0  0  0  0  0  # atno 8009 bound_to 7997
  156.1893  140.1680  156.8111 H   0  0  0  0  0  0  0  0  0  0  0  0  # atno 8010 bound_to 7997
  140.6498  143.7573  150.7556 H   0  0  0  0  0  0  0  0  0  0  0  0  # atno 10167 bound_to 10162
  156.3676  130.7771  151.1947 H   0  0  0  0  0  0  0  0  0  0  0  0  # atno 10718 bound_to 10713
  154.8518  135.3503  154.5986 H   0  0  0  0  0  0  0  0  0  0  0  0  # atno 10763 bound_to 10752
  153.6595  135.6990  153.5186 H   0  0  0  0  0  0  0  0  0  0  0  0  # atno 10764 bound_to 10752
  153.2829  135.4258  155.1053 H   0  0  0  0  0  0  0  0  0  0  0  0  # atno 10765 bound_to 10752
  140.0685  134.9165  157.1305 H   0  0  0  0  0  0  0  0  0  0  0  0  # atno 11005 bound_to 11000
  144.7401  140.4917  143.6876 LP  0  0  0  0  0  0  0  0  0  0  0  0  # atno 17320 bound_to 7965
  145.5935  139.1497  143.3169 LP  0  0  0  0  0  0  0  0  0  0  0  0  # atno 17321 bound_to 7965
  140.1221  143.4602  152.2306 LP  0  0  0  0  0  0  0  0  0  0  0  0  # atno 17342 bound_to 10162
  139.5712  144.7463  151.3886 LP  0  0  0  0  0  0  0  0  0  0  0  0  # atno 17343 bound_to 10162
  157.7480  131.0382  150.4491 LP  0  0  0  0  0  0  0  0  0  0  0  0  # atno 17370 bound_to 10713
  156.4712  130.4053  149.6517 LP  0  0  0  0  0  0  0  0  0  0  0  0  # atno 17371 bound_to 10713
  140.3662  134.2440  155.7182 LP  0  0  0  0  0  0  0  0  0  0  0  0  # atno 17394 bound_to 11000
  141.2002  133.7992  157.0498 LP  0  0  0  0  0  0  0  0  0  0  0  0  # atno 17395 bound_to 11000

$$$$
