AV-unprocessed.smi:2327|AV-procd|sdf|9298|dock5
  -GOLD-   2272012523D 1   1.00000     0.00000
 Structure written by MMmdl.
 40 41  0  0  0  0  0  0  0  0  1 V2000
  146.8797  142.1613  154.1164 C   0  0  0  0  0  0  0  0  0  0  0  0
  145.8235  143.1270  154.5538 C   0  0  0  0  0  0  0  0  0  0  0  0
  144.9976  143.8686  153.7466 C   0  0  0  0  0  0  0  0  0  0  0  0
  143.9141  144.8706  154.6719 S   0  0  0  0  0  0  0  0  0  0  0  0
  144.6366  144.2382  156.1477 C   0  0  0  0  0  0  0  0  0  0  0  0
  144.1776  144.6339  157.5195 C   0  0  2  0  0  0  0  0  0  0  0  0
  144.0637  146.1565  157.6784 C   0  0  0  0  0  0  0  0  0  0  0  0
  144.9999  143.9681  158.6433 C   0  0  0  0  0  0  0  0  0  0  0  0
  146.4020  144.3682  158.6013 N   0  0  0  0  0  0  0  0  0  0  0  0
  147.4094  143.7308  159.2193 C   0  0  0  0  0  0  0  0  0  0  0  0
  147.2424  142.8026  160.0081 O   0  0  0  0  0  0  0  0  0  0  0  0
  148.6339  144.1950  158.9138 N   0  0  0  0  0  0  0  0  0  0  0  0
  149.9255  143.7196  159.4147 C   0  0  0  0  0  0  0  0  0  0  0  0
  150.9644  144.8466  159.3190 C   0  0  0  0  0  0  0  0  0  0  0  0
  152.3603  144.3325  159.7062 C   0  0  0  0  0  0  0  0  0  0  0  0
  152.7184  143.2295  158.8804 O   0  0  0  0  0  0  0  0  0  0  0  0
  151.8439  142.1163  159.0318 C   0  0  0  0  0  0  0  0  0  0  0  0
  150.4174  142.5041  158.6101 C   0  0  0  0  0  0  0  0  0  0  0  0
  145.6018  143.3428  155.9168 N   0  0  0  0  0  0  0  0  0  0  0  0
  147.0019  142.1677  153.0331 H   0  0  0  0  0  0  0  0  0  0  0  0
  146.6293  141.1430  154.4141 H   0  0  0  0  0  0  0  0  0  0  0  0
  147.8459  142.4077  154.5571 H   0  0  0  0  0  0  0  0  0  0  0  0
  144.9615  143.8876  152.6675 H   0  0  0  0  0  0  0  0  0  0  0  0
  143.1611  144.2490  157.6156 H   0  0  0  0  0  0  0  0  0  0  0  0
  143.3943  146.5802  156.9292 H   0  0  0  0  0  0  0  0  0  0  0  0
  145.0350  146.6405  157.5703 H   0  0  0  0  0  0  0  0  0  0  0  0
  143.6690  146.4194  158.6602 H   0  0  0  0  0  0  0  0  0  0  0  0
  144.6061  144.2721  159.6136 H   0  0  0  0  0  0  0  0  0  0  0  0
  144.9083  142.8816  158.5994 H   0  0  0  0  0  0  0  0  0  0  0  0
  146.6352  145.1369  157.9896 H   0  0  0  0  0  0  0  0  0  0  0  0
  148.6668  145.0312  158.3484 H   0  0  0  0  0  0  0  0  0  0  0  0
  149.8366  143.4418  160.4671 H   0  0  0  0  0  0  0  0  0  0  0  0
  150.9973  145.2379  158.3011 H   0  0  0  0  0  0  0  0  0  0  0  0
  150.6804  145.6782  159.9652 H   0  0  0  0  0  0  0  0  0  0  0  0
  153.0992  145.1235  159.5769 H   0  0  0  0  0  0  0  0  0  0  0  0
  152.3894  144.0392  160.7569 H   0  0  0  0  0  0  0  0  0  0  0  0
  152.2073  141.2969  158.4113 H   0  0  0  0  0  0  0  0  0  0  0  0
  151.8614  141.7648  160.0647 H   0  0  0  0  0  0  0  0  0  0  0  0
  149.7476  141.6547  158.7479 H   0  0  0  0  0  0  0  0  0  0  0  0
  150.4094  142.7375  157.5445 H   0  0  0  0  0  0  0  0  0  0  0  0
  1  2  1  0  0  0  0
  1 20  1  0  0  0  0
  1 21  1  0  0  0  0
  1 22  1  0  0  0  0
  2 19  1  0  0  0  0
  2  3  2  0  0  0  0
  3  4  1  0  0  0  0
  3 23  1  0  0  0  0
  4  5  1  0  0  0  0
  5  6  1  0  0  0  0
  5 19  2  0  0  0  0
  6  7  1  0  0  0  0
  6  8  1  0  0  0  0
  6 24  1  0  0  0  0
  7 25  1  0  0  0  0
  7 26  1  0  0  0  0
  7 27  1  0  0  0  0
  8  9  1  0  0  0  0
  8 28  1  0  0  0  0
  8 29  1  0  0  0  0
  9 10  1  0  0  0  0
  9 30  1  0  0  0  0
 10 11  2  0  0  0  0
 10 12  1  0  0  0  0
 12 13  1  0  0  0  0
 12 31  1  0  0  0  0
 13 18  1  0  0  0  0
 13 14  1  0  0  0  0
 13 32  1  0  0  0  0
 14 15  1  0  0  0  0
 14 33  1  0  0  0  0
 14 34  1  0  0  0  0
 15 16  1  0  0  0  0
 15 35  1  0  0  0  0
 15 36  1  0  0  0  0
 16 17  1  0  0  0  0
 17 18  1  0  0  0  0
 17 37  1  0  0  0  0
 17 38  1  0  0  0  0
 18 39  1  0  0  0  0
 18 40  1  0  0  0  0
M  END
> <s_m_source_file>
AV-unprocessed.smi

> <i_m_source_file_index>
2327

> <i_lp_mmshare_version>
43012

> <i_f3d_flags>
0

> <s_epik_input>
W0NIM11jMVtjSF1zYyhuMSlbQ0BIXShbQ0gzXSlbQ0gyXVtOSF1DKD1PKVtOSF1bQ0hdMltDSDJdW0NIMl1PW0NIMl1bQ0gyXTI=

> <s_epik_cmdline>
J2VwaWtfcHl0aG9uJywgJy1waCcsICc3LjAnLCAnLXRuJywgJzgnLCAnLW1hJywgJzIwMCcsICctbWV0YWxfYmluZGluZycsICctaW1hZScsICc8aW5maWxlLm1hZT4nLCAnLW9tYWUnLCAnPG91dGZpbGUubWFlPic=

> <r_epik_Ionization_Penalty>
0.0015425

> <r_epik_Ionization_Penalty_Charging>
0

> <r_epik_Ionization_Penalty_Neutral>
0.0015425

> <r_epik_State_Penalty>
0.000998134

> <r_epik_Charging_Adjusted_Penalty>
0.000998134

> <i_epik_Tot_Q>
0

> <i_epik_Tot_abs_Q>
0

> <r_epik_Metal_State_Penalty>
-0

> <b_epik_Metal_Only>
0

> <s_lp_Force_Field>
OPLS_2005

> <r_lp_Energy>
7.05585

> <b_lp_Chiralities_Consistent>
1

> <s_lp_Variant>
AV-unprocessed.smi:2327-1

> <Gold.Version>
5.8.1

> <Gold.Id.Protein>
6NUR|6NUR_protein|mol2

> <Gold.PLP.Fitness>
41.0306

> <Gold.PLP.PLP>
-31.8479

> <Gold.PLP.part.hbond>
-4.0649

> <Gold.PLP.part.metal>
0.0000

> <Gold.PLP.part.buried>
-2.6227

> <Gold.PLP.part.nonpolar>
-26.5427

> <Gold.PLP.part.repulsive>
0.3152

> <Gold.PLP.ligand.clash>
0.0000

> <Gold.PLP.ligand.torsion>
0.6020

> <Gold.PLP.Chemscore.Hbond>
3.3121

> <Gold.PLP.Chemscore.CHOScore>
0.1069

> <Gold.PLP.Chemscore.Metal>
0.0000

> <Gold.Chemscore.Hbonds>
donor molecule, donor type, donor heavy atom, donor atom, acceptor molecule, acceptor atom, score
      L1  H     9    30       P1  8029  0.91
      L1  H    12    31       P1  8029  0.93
      P1  H  6933  6944       L1    11  0.82
      P1  H  6934  6946       L1    11  0.66
      L1  C     3    23       P1 10174  0.14

> <Gold.PLP.Chemscore.Internal.Correction>
0.1298

> <Gold.Rescore>
     Score         DG    S(hbond)    S(metal)    S(lipo)     H(rot)  DE(clash)    DE(int)     intcor
     19.96     -21.93       3.25        0.00      81.19       1.53       0.36       1.60       ----

> <Gold.Chemscore.Fitness>
19.9644

> <Gold.Chemscore.DG>
-21.9276

> <Gold.Chemscore.ZeroCoef>
-5.4800

> <Gold.Chemscore.Hbond>
3.2549

> <Gold.Chemscore.Metal>
0.0000

> <Gold.Chemscore.Lipo>
81.1936

> <Gold.Chemscore.Internal_Hbond>
0.0000

> <Gold.Chemscore.DEClash>
0.3607

> <Gold.Chemscore.DEInternal>
1.6024

> <Gold.Chemscore.Rot>
1.5325

> <Gold.Chemscore.Internal.Correction>
   9.000000E+99

> <Gold.Chemscore.Hbonds>
donor molecule, donor type, donor heavy atom, donor atom, acceptor molecule, acceptor atom, score
      L1  H     9    30       P1  8029  0.78
      L1  H    12    31       P1  8029  0.80
      P1  H  6933  6944       L1    11  0.80
      P1  H  6934  6946       L1    11  0.63

> <Gold.Chemscore.Hbond.Weighted>
-10.8713

> <Gold.Chemscore.Metal.Weighted>
-0.0000

> <Gold.Chemscore.Lipo.Weighted>
-9.4997

> <Gold.Chemscore.Internal_Hbond.Weighted>
0.0000

> <Gold.Chemscore.DEClash.Weighted>
0.3607

> <Gold.Chemscore.DEInternal.Weighted>
1.6024

> <Gold.Chemscore.Rot.Weighted>
3.9233

> <Gold.Chemscore.Internal.Correction.Weighted>
   9.000000E+99

> <Gold.Protein.RotatedTorsions>
[ 6907 6896 6895 6894 ] final  -83.63 input  -60.11 | X-H torsion
[ 7974 7965 7964 7962 ] final   83.11 input  175.53 | X-H torsion
[ 8008 7997 7996 7995 ] final  -86.58 input   59.86 | X-H torsion
[ 10167 10162 10161 10158 ] final  135.43 input  -65.29 | X-H torsion
[ 10718 10713 10712 10709 ] final -157.95 input   66.30 | X-H torsion
[ 10763 10752 10751 10750 ] final  -77.06 input  -60.55 | X-H torsion
[ 11005 11000 10999 10996 ] final  -74.91 input  -57.11 | X-H torsion

> <Gold.Protein.ActiveResidues>
 VAL166  LYS551  ARG553  GLY616  TRP617  ASP618  TYR619  PRO620  LYS621  CYS622 
 ASP623  PHE694  ASN695  SER759  ASP760  ASP761  ALA762  ILE779  LEU786  VAL792 
 PHE793  MET794  SER795  GLU796  ALA797  LYS798  CYS799  TRP800  GLU811  SER814 

> <Gold.Protein.RotatedAtoms>
  150.6883  134.3483  159.4897 H   0  0  0  0  0  0  0  0  0  0  0  0  # atno 6907 bound_to 6896
  152.1327  134.9119  160.0567 H   0  0  0  0  0  0  0  0  0  0  0  0  # atno 6908 bound_to 6896
  152.0283  133.3892  159.4323 H   0  0  0  0  0  0  0  0  0  0  0  0  # atno 6909 bound_to 6896
  145.6162  139.2377  143.2164 H   0  0  0  0  0  0  0  0  0  0  0  0  # atno 7974 bound_to 7965
  154.6535  140.0576  156.9982 H   0  0  0  0  0  0  0  0  0  0  0  0  # atno 8008 bound_to 7997
  155.1336  140.3259  155.4450 H   0  0  0  0  0  0  0  0  0  0  0  0  # atno 8009 bound_to 7997
  156.2586  140.1976  156.6454 H   0  0  0  0  0  0  0  0  0  0  0  0  # atno 8010 bound_to 7997
  139.5217  144.6517  151.5283 H   0  0  0  0  0  0  0  0  0  0  0  0  # atno 10167 bound_to 10162
  156.5473  130.8590  151.2768 H   0  0  0  0  0  0  0  0  0  0  0  0  # atno 10718 bound_to 10713
  154.5079  135.5777  153.6582 H   0  0  0  0  0  0  0  0  0  0  0  0  # atno 10763 bound_to 10752
  152.9891  135.6151  154.2917 H   0  0  0  0  0  0  0  0  0  0  0  0  # atno 10764 bound_to 10752
  154.2829  135.2850  155.2668 H   0  0  0  0  0  0  0  0  0  0  0  0  # atno 10765 bound_to 10752
  141.1640  133.6928  156.7436 H   0  0  0  0  0  0  0  0  0  0  0  0  # atno 11005 bound_to 11000
  146.1466  140.6984  142.9342 LP  0  0  0  0  0  0  0  0  0  0  0  0  # atno 17320 bound_to 7965
  144.7249  140.4494  143.6980 LP  0  0  0  0  0  0  0  0  0  0  0  0  # atno 17321 bound_to 7965
  140.6325  143.9049  150.6618 LP  0  0  0  0  0  0  0  0  0  0  0  0  # atno 17342 bound_to 10162
  140.2357  143.3701  152.1528 LP  0  0  0  0  0  0  0  0  0  0  0  0  # atno 17343 bound_to 10162
  157.7394  130.9831  150.2312 LP  0  0  0  0  0  0  0  0  0  0  0  0  # atno 17370 bound_to 10713
  156.2916  130.3746  149.7836 LP  0  0  0  0  0  0  0  0  0  0  0  0  # atno 17371 bound_to 10713
  140.2656  134.8433  157.3799 LP  0  0  0  0  0  0  0  0  0  0  0  0  # atno 17394 bound_to 11000
  140.1570  134.4777  155.7921 LP  0  0  0  0  0  0  0  0  0  0  0  0  # atno 17395 bound_to 11000

$$$$
