AV-unprocessed.smi:2769|AV-procd|sdf|10656|dock5
  -GOLD-   2272015103D 1   1.00000     0.00000
 Structure written by MMmdl.
 20 21  0  0  0  0  0  0  0  0  2 V2000
  152.5003  140.8138  159.4987 C   0  0  0  0  0  0  0  0  0  0  0  0
  152.4389  140.1074  158.1876 C   0  0  0  0  0  0  0  0  0  0  0  0
  153.3576  139.2141  157.8420 N   0  0  0  0  0  0  0  0  0  0  0  0
  152.9479  138.8069  156.5645 O   0  0  0  0  0  0  0  0  0  0  0  0
  151.7974  139.4766  156.3139 C   0  0  0  0  0  0  0  0  0  0  0  0
  151.1578  139.3312  154.9737 C   0  0  0  0  0  0  0  0  0  0  0  0
  149.7303  138.8306  154.7945 C   0  0  0  0  0  0  0  0  0  0  0  0
  150.1590  138.3628  153.4768 N   0  3  0  0  0  0  0  0  0  0  0  0
  151.5212  138.2243  153.9903 C   0  0  0  0  0  0  0  0  0  0  0  0
  151.4550  140.3322  157.2736 N   0  0  0  0  0  0  0  0  0  0  0  0
  153.5288  140.8781  159.8558 H   0  0  0  0  0  0  0  0  0  0  0  0
  151.9081  140.2785  160.2411 H   0  0  0  0  0  0  0  0  0  0  0  0
  152.1066  141.8263  159.4056 H   0  0  0  0  0  0  0  0  0  0  0  0
  151.2637  140.2967  154.4709 H   0  0  0  0  0  0  0  0  0  0  0  0
  149.4619  138.0123  155.4664 H   0  0  0  0  0  0  0  0  0  0  0  0
  148.9680  139.6097  154.7666 H   0  0  0  0  0  0  0  0  0  0  0  0
  149.7351  137.4921  153.1890 H   0  0  0  0  0  0  0  0  0  0  0  0
  152.2984  138.4826  153.2705 H   0  0  0  0  0  0  0  0  0  0  0  0
  151.6963  137.2530  154.4581 H   0  0  0  0  0  0  0  0  0  0  0  0
  150.0955  139.0944  152.7831 H   0  0  0  0  0  0  0  0  0  0  0  0
  1  2  1  0  0  0  0
  1 11  1  0  0  0  0
  1 12  1  0  0  0  0
  1 13  1  0  0  0  0
  2 10  1  0  0  0  0
  2  3  2  0  0  0  0
  3  4  1  0  0  0  0
  4  5  1  0  0  0  0
  5  6  1  0  0  0  0
  5 10  2  0  0  0  0
  6  9  1  0  0  0  0
  6  7  1  0  0  0  0
  6 14  1  0  0  0  0
  7  8  1  0  0  0  0
  7 15  1  0  0  0  0
  7 16  1  0  0  0  0
  8  9  1  0  0  0  0
  8 17  1  0  0  0  0
  8 20  1  0  0  0  0
  9 18  1  0  0  0  0
  9 19  1  0  0  0  0
M  CHG  1   8   1
M  END
> <s_m_source_file>
AV-unprocessed.smi

> <i_m_source_file_index>
2769

> <i_lp_mmshare_version>
43012

> <i_f3d_flags>
0

> <s_epik_input>
W0NIM11jMW5vYyhuMSlbQ0hdMltDSDJdW05IXVtDSDJdMg==

> <s_epik_cmdline>
J2VwaWtfcHl0aG9uJywgJy1waCcsICc3LjAnLCAnLXRuJywgJzgnLCAnLW1hJywgJzIwMCcsICctbWV0YWxfYmluZGluZycsICctaW1hZScsICc8aW5maWxlLm1hZT4nLCAnLW9tYWUnLCAnPG91dGZpbGUubWFlPic=

> <r_lp_tautomer_probability>
1

> <r_epik_Ionization_Penalty>
0.0104968

> <r_epik_Ionization_Penalty_Charging>
0.0104968

> <r_epik_Ionization_Penalty_Neutral>
4.87029e-13

> <r_epik_State_Penalty>
0.00803009

> <r_epik_Charging_Adjusted_Penalty>
0.0185269

> <i_epik_Tot_Q>
1

> <i_epik_Tot_abs_Q>
1

> <r_epik_Metal_State_Penalty>
0.00803009

> <b_epik_Metal_Only>
0

> <s_lp_Force_Field>
OPLS_2005

> <r_lp_Energy>
11.9904

> <b_lp_Chiralities_Consistent>
1

> <s_lp_Variant>
AV-unprocessed.smi:2769-1

> <Gold.Version>
5.8.1

> <Gold.Id.Protein>
6NUR|6NUR_protein|mol2

> <Gold.PLP.Fitness>
29.2757

> <Gold.PLP.PLP>
-18.2310

> <Gold.PLP.part.hbond>
-4.0741

> <Gold.PLP.part.metal>
0.0000

> <Gold.PLP.part.buried>
-1.5205

> <Gold.PLP.part.nonpolar>
-11.7206

> <Gold.PLP.part.repulsive>
0.0853

> <Gold.PLP.ligand.clash>
0.0000

> <Gold.PLP.ligand.torsion>
0.1436

> <Gold.PLP.Chemscore.Hbond>
3.7000

> <Gold.PLP.Chemscore.CHOScore>
0.0000

> <Gold.PLP.Chemscore.Metal>
0.0000

> <Gold.Chemscore.Hbonds>
donor molecule, donor type, donor heavy atom, donor atom, acceptor molecule, acceptor atom, score
      L1  H     8    17       P1  7948  2.00
      L1  H     8    20       P1  7957  1.00
      P1  H  7997  8010       L1     3  0.60

> <Gold.PLP.Chemscore.Internal.Correction>
0.2319

> <Gold.Rescore>
     Score         DG    S(hbond)    S(metal)    S(lipo)     H(rot)  DE(clash)    DE(int)     intcor
     13.42     -13.58       2.16        0.00      29.56       1.00       0.03       0.14       ----

> <Gold.Chemscore.Fitness>
13.4190

> <Gold.Chemscore.DG>
-13.5827

> <Gold.Chemscore.ZeroCoef>
-5.4800

> <Gold.Chemscore.Hbond>
2.1570

> <Gold.Chemscore.Metal>
0.0000

> <Gold.Chemscore.Lipo>
29.5584

> <Gold.Chemscore.Internal_Hbond>
0.0000

> <Gold.Chemscore.DEClash>
0.0270

> <Gold.Chemscore.DEInternal>
0.1368

> <Gold.Chemscore.Rot>
1.0000

> <Gold.Chemscore.Internal.Correction>
   9.000000E+99

> <Gold.Chemscore.Hbonds>
donor molecule, donor type, donor heavy atom, donor atom, acceptor molecule, acceptor atom, score
      L1  H     8    17       P1  7948  0.63
      L1  H     8    20       P1  7957  0.78
      P1  H  7997  8010       L1     3  0.03

> <Gold.Chemscore.Hbond.Weighted>
-7.2044

> <Gold.Chemscore.Metal.Weighted>
-0.0000

> <Gold.Chemscore.Lipo.Weighted>
-3.4583

> <Gold.Chemscore.Internal_Hbond.Weighted>
0.0000

> <Gold.Chemscore.DEClash.Weighted>
0.0270

> <Gold.Chemscore.DEInternal.Weighted>
0.1368

> <Gold.Chemscore.Rot.Weighted>
2.5600

> <Gold.Chemscore.Internal.Correction.Weighted>
   9.000000E+99

> <Gold.Protein.RotatedTorsions>
[ 6907 6896 6895 6894 ] final  121.57 input  -60.11 | X-H torsion
[ 7974 7965 7964 7962 ] final   15.86 input  175.53 | X-H torsion
[ 8008 7997 7996 7995 ] final   17.56 input   59.86 | X-H torsion
[ 10167 10162 10161 10158 ] final  -20.18 input  -65.29 | X-H torsion
[ 10718 10713 10712 10709 ] final  -54.35 input   66.30 | X-H torsion
[ 10763 10752 10751 10750 ] final   -5.15 input  -60.55 | X-H torsion
[ 11005 11000 10999 10996 ] final -124.29 input  -57.11 | X-H torsion

> <Gold.Protein.ActiveResidues>
 VAL166  LYS551  ARG553  GLY616  TRP617  ASP618  TYR619  PRO620  LYS621  CYS622 
 ASP623  PHE694  ASN695  SER759  ASP760  ASP761  ALA762  ILE779  LEU786  VAL792 
 PHE793  MET794  SER795  GLU796  ALA797  LYS798  CYS799  TRP800  GLU811  SER814 

> <Gold.Protein.RotatedAtoms>
  152.4311  133.7280  159.6570 H   0  0  0  0  0  0  0  0  0  0  0  0  # atno 6907 bound_to 6896
  150.8191  133.8274  159.3153 H   0  0  0  0  0  0  0  0  0  0  0  0  # atno 6908 bound_to 6896
  151.5962  135.1052  160.0101 H   0  0  0  0  0  0  0  0  0  0  0  0  # atno 6909 bound_to 6896
  146.2266  139.8832  142.8567 H   0  0  0  0  0  0  0  0  0  0  0  0  # atno 7974 bound_to 7965
  154.8932  140.2990  155.5359 H   0  0  0  0  0  0  0  0  0  0  0  0  # atno 8008 bound_to 7997
  156.3020  140.2420  156.3885 H   0  0  0  0  0  0  0  0  0  0  0  0  # atno 8009 bound_to 7997
  154.8597  140.0406  157.1646 H   0  0  0  0  0  0  0  0  0  0  0  0  # atno 8010 bound_to 7997
  140.7274  143.4747  151.0198 H   0  0  0  0  0  0  0  0  0  0  0  0  # atno 10167 bound_to 10162
  156.1458  130.4153  150.0026 H   0  0  0  0  0  0  0  0  0  0  0  0  # atno 10718 bound_to 10713
  153.3946  135.7003  153.6470 H   0  0  0  0  0  0  0  0  0  0  0  0  # atno 10763 bound_to 10752
  153.5028  135.3648  155.2549 H   0  0  0  0  0  0  0  0  0  0  0  0  # atno 10764 bound_to 10752
  154.8705  135.4116  154.3269 H   0  0  0  0  0  0  0  0  0  0  0  0  # atno 10765 bound_to 10752
  140.9852  134.0616  157.3719 H   0  0  0  0  0  0  0  0  0  0  0  0  # atno 11005 bound_to 11000
  145.2492  141.0037  143.3891 LP  0  0  0  0  0  0  0  0  0  0  0  0  # atno 17320 bound_to 7965
  144.9389  139.4212  143.6459 LP  0  0  0  0  0  0  0  0  0  0  0  0  # atno 17321 bound_to 7965
  139.8442  143.7524  152.3179 LP  0  0  0  0  0  0  0  0  0  0  0  0  # atno 17342 bound_to 10162
  139.7683  144.7485  151.0262 LP  0  0  0  0  0  0  0  0  0  0  0  0  # atno 17343 bound_to 10162
  156.7898  130.9252  151.3646 LP  0  0  0  0  0  0  0  0  0  0  0  0  # atno 17370 bound_to 10713
  157.6616  130.8971  149.9841 LP  0  0  0  0  0  0  0  0  0  0  0  0  # atno 17371 bound_to 10713
  139.8967  135.0147  156.7067 LP  0  0  0  0  0  0  0  0  0  0  0  0  # atno 17394 bound_to 11000
  140.7125  133.9211  155.8093 LP  0  0  0  0  0  0  0  0  0  0  0  0  # atno 17395 bound_to 11000

$$$$
