AV-unprocessed.smi:437|AV-procd|sdf|2562|dock8
  -GOLD-   2262022533D 1   1.00000     0.00000
 Structure written by MMmdl.
 48 49  0  0  0  0  0  0  0  0  1 V2000
  149.2826  140.1503  154.1261 C   0  0  0  0  0  0  0  0  0  0  0  0
  150.1917  139.2094  154.8700 C   0  0  0  0  0  0  0  0  0  0  0  0
  150.0785  137.9524  154.5916 N   0  0  0  0  0  0  0  0  0  0  0  0
  150.8597  137.0026  155.2211 N   0  0  0  0  0  0  0  0  0  0  0  0
  150.5896  135.6236  154.7878 C   0  0  0  0  0  0  0  0  0  0  0  0
  149.1270  135.1974  154.9888 C   0  0  0  0  0  0  0  0  0  0  0  0
  148.6526  135.1125  156.1249 O   0  0  0  0  0  0  0  0  0  0  0  0
  148.4497  134.9493  153.8496 N   0  0  0  0  0  0  0  0  0  0  0  0
  147.1652  134.5646  153.7242 C   0  0  0  0  0  0  0  0  0  0  0  0
  146.3767  134.3733  154.6526 O   0  0  0  0  0  0  0  0  0  0  0  0
  146.8348  134.4126  152.4333 N   0  0  0  0  0  0  0  0  0  0  0  0
  145.6215  133.7644  151.9389 C   0  0  1  0  0  0  0  0  0  0  0  0
  145.2658  134.3099  150.5388 C   0  0  0  0  0  0  0  0  0  0  0  0
  144.0296  133.6111  149.9550 C   0  0  0  0  0  0  0  0  0  0  0  0
  144.2271  132.0901  149.9116 C   0  0  0  0  0  0  0  0  0  0  0  0
  144.5661  131.5392  151.3048 C   0  0  0  0  0  0  0  0  0  0  0  0
  145.8075  132.2263  151.9096 C   0  0  2  0  0  0  0  0  0  0  0  0
  146.1234  131.6428  153.2985 C   0  0  0  0  0  0  0  0  0  0  0  0
  151.8046  137.2764  156.1661 C   0  0  0  0  0  0  0  0  0  0  0  0
  152.4801  136.3962  156.7018 O   0  0  0  0  0  0  0  0  0  0  0  0
  151.9292  138.7026  156.4751 C   0  0  0  0  0  0  0  0  0  0  0  0
  152.9037  139.0331  157.4642 C   0  0  0  0  0  0  0  0  0  0  0  0
  153.7054  139.3108  158.2518 N   0  0  0  0  0  0  0  0  0  0  0  0
  151.1686  139.6446  155.8630 C   0  0  0  0  0  0  0  0  0  0  0  0
  151.2601  141.1376  156.1478 C   0  0  0  0  0  0  0  0  0  0  0  0
  149.8580  140.8082  153.4746 H   0  0  0  0  0  0  0  0  0  0  0  0
  148.7153  140.7715  154.8196 H   0  0  0  0  0  0  0  0  0  0  0  0
  148.5641  139.6148  153.5033 H   0  0  0  0  0  0  0  0  0  0  0  0
  150.8332  135.5107  153.7297 H   0  0  0  0  0  0  0  0  0  0  0  0
  151.2456  134.9264  155.3128 H   0  0  0  0  0  0  0  0  0  0  0  0
  148.9662  135.0685  152.9906 H   0  0  0  0  0  0  0  0  0  0  0  0
  147.4737  134.7636  151.7350 H   0  0  0  0  0  0  0  0  0  0  0  0
  144.7990  133.9923  152.6201 H   0  0  0  0  0  0  0  0  0  0  0  0
  145.0834  135.3842  150.5864 H   0  0  0  0  0  0  0  0  0  0  0  0
  146.1109  134.1717  149.8626 H   0  0  0  0  0  0  0  0  0  0  0  0
  143.1540  133.8504  150.5597 H   0  0  0  0  0  0  0  0  0  0  0  0
  143.8269  133.9890  148.9524 H   0  0  0  0  0  0  0  0  0  0  0  0
  143.3260  131.6089  149.5308 H   0  0  0  0  0  0  0  0  0  0  0  0
  145.0286  131.8436  149.2142 H   0  0  0  0  0  0  0  0  0  0  0  0
  143.7100  131.6773  151.9666 H   0  0  0  0  0  0  0  0  0  0  0  0
  144.7314  130.4634  151.2372 H   0  0  0  0  0  0  0  0  0  0  0  0
  146.6555  132.0012  151.2605 H   0  0  0  0  0  0  0  0  0  0  0  0
  145.3261  131.8617  154.0095 H   0  0  0  0  0  0  0  0  0  0  0  0
  147.0513  132.0458  153.7047 H   0  0  0  0  0  0  0  0  0  0  0  0
  146.2367  130.5594  153.2510 H   0  0  0  0  0  0  0  0  0  0  0  0
  152.0866  141.3794  156.8154 H   0  0  0  0  0  0  0  0  0  0  0  0
  150.3413  141.4920  156.6160 H   0  0  0  0  0  0  0  0  0  0  0  0
  151.4146  141.6982  155.2254 H   0  0  0  0  0  0  0  0  0  0  0  0
  1  2  1  0  0  0  0
  1 26  1  0  0  0  0
  1 27  1  0  0  0  0
  1 28  1  0  0  0  0
  2 24  1  0  0  0  0
  2  3  2  0  0  0  0
  3  4  1  0  0  0  0
  4  5  1  0  0  0  0
  4 19  1  0  0  0  0
  5  6  1  0  0  0  0
  5 29  1  0  0  0  0
  5 30  1  0  0  0  0
  6  7  2  0  0  0  0
  6  8  1  0  0  0  0
  8  9  1  0  0  0  0
  8 31  1  0  0  0  0
  9 10  2  0  0  0  0
  9 11  1  0  0  0  0
 11 12  1  0  0  0  0
 11 32  1  0  0  0  0
 12 17  1  0  0  0  0
 12 13  1  0  0  0  0
 12 33  1  0  0  0  0
 13 14  1  0  0  0  0
 13 34  1  0  0  0  0
 13 35  1  0  0  0  0
 14 15  1  0  0  0  0
 14 36  1  0  0  0  0
 14 37  1  0  0  0  0
 15 16  1  0  0  0  0
 15 38  1  0  0  0  0
 15 39  1  0  0  0  0
 16 17  1  0  0  0  0
 16 40  1  0  0  0  0
 16 41  1  0  0  0  0
 17 18  1  0  0  0  0
 17 42  1  0  0  0  0
 18 43  1  0  0  0  0
 18 44  1  0  0  0  0
 18 45  1  0  0  0  0
 19 20  2  0  0  0  0
 19 21  1  0  0  0  0
 21 22  1  0  0  0  0
 21 24  2  0  0  0  0
 22 23  3  0  0  0  0
 24 25  1  0  0  0  0
 25 46  1  0  0  0  0
 25 47  1  0  0  0  0
 25 48  1  0  0  0  0
M  END
> <s_m_source_file>
AV-unprocessed.smi

> <i_m_source_file_index>
437

> <i_lp_mmshare_version>
43012

> <i_f3d_flags>
0

> <s_epik_input>
TiNDYyhjMVtDSDNdKWMoPU8pbihuYzFbQ0gzXSlbQ0gyXUMoPU8pW05IXUMoPU8pW05IXVtDQEBIXTJbQ0gyXVtDSDJdW0NIMl1bQ0gyXVtDQEhdMltDSDNd

> <s_epik_cmdline>
J2VwaWtfcHl0aG9uJywgJy1waCcsICc3LjAnLCAnLXRuJywgJzgnLCAnLW1hJywgJzIwMCcsICctbWV0YWxfYmluZGluZycsICctaW1hZScsICc8aW5maWxlLm1hZT4nLCAnLW9tYWUnLCAnPG91dGZpbGUubWFlPic=

> <r_lp_tautomer_probability>
1

> <r_epik_Ionization_Penalty>
3.27035e-05

> <r_epik_Ionization_Penalty_Charging>
1.6965e-11

> <r_epik_Ionization_Penalty_Neutral>
3.27035e-05

> <r_epik_State_Penalty>
-0

> <r_epik_Charging_Adjusted_Penalty>
1.6965e-11

> <i_epik_Tot_Q>
0

> <i_epik_Tot_abs_Q>
0

> <r_epik_Metal_State_Penalty>
-0

> <b_epik_Metal_Only>
0

> <s_lp_Force_Field>
OPLS_2005

> <r_lp_Energy>
26.7465

> <b_lp_Chiralities_Consistent>
1

> <s_lp_Variant>
AV-unprocessed.smi:437-4

> <Gold.Version>
5.8.1

> <Gold.Id.Protein>
6NUR|6NUR_protein|mol2

> <Gold.PLP.Fitness>
44.4058

> <Gold.PLP.PLP>
-35.0138

> <Gold.PLP.part.hbond>
-3.6509

> <Gold.PLP.part.metal>
0.0000

> <Gold.PLP.part.buried>
-0.1393

> <Gold.PLP.part.nonpolar>
-30.4676

> <Gold.PLP.part.repulsive>
0.2731

> <Gold.PLP.ligand.clash>
0.0000

> <Gold.PLP.ligand.torsion>
0.4045

> <Gold.PLP.Chemscore.Hbond>
3.3952

> <Gold.PLP.Chemscore.CHOScore>
0.0000

> <Gold.PLP.Chemscore.Metal>
0.0000

> <Gold.Chemscore.Hbonds>
donor molecule, donor type, donor heavy atom, donor atom, acceptor molecule, acceptor atom, score
      L1  H     8    31       P1  7948  0.62
      L1  H    11    32       P1  7948  0.63
      P1  H  7997  8008       L1    23  0.96
      P1  H 10752 10763       L1    20  0.90

> <Gold.PLP.Chemscore.Internal.Correction>
0.0154

> <Gold.Rescore>
     Score         DG    S(hbond)    S(metal)    S(lipo)     H(rot)  DE(clash)    DE(int)     intcor
     15.40     -17.71       1.77        0.00      88.19       1.57       0.52       1.79       ----

> <Gold.Chemscore.Fitness>
15.4010

> <Gold.Chemscore.DG>
-17.7147

> <Gold.Chemscore.ZeroCoef>
-5.4800

> <Gold.Chemscore.Hbond>
1.7739

> <Gold.Chemscore.Metal>
0.0000

> <Gold.Chemscore.Lipo>
88.1868

> <Gold.Chemscore.Internal_Hbond>
0.0000

> <Gold.Chemscore.DEClash>
0.5198

> <Gold.Chemscore.DEInternal>
1.7939

> <Gold.Chemscore.Rot>
1.5656

> <Gold.Chemscore.Internal.Correction>
   9.000000E+99

> <Gold.Chemscore.Hbonds>
donor molecule, donor type, donor heavy atom, donor atom, acceptor molecule, acceptor atom, score
      L1  H     8    31       P1  7948  0.12
      L1  H    11    32       P1  7948  0.36
      P1  H  7997  8008       L1    23  0.41
      P1  H 10752 10763       L1    20  0.17

> <Gold.Chemscore.Hbond.Weighted>
-5.9247

> <Gold.Chemscore.Metal.Weighted>
-0.0000

> <Gold.Chemscore.Lipo.Weighted>
-10.3179

> <Gold.Chemscore.Internal_Hbond.Weighted>
0.0000

> <Gold.Chemscore.DEClash.Weighted>
0.5198

> <Gold.Chemscore.DEInternal.Weighted>
1.7939

> <Gold.Chemscore.Rot.Weighted>
4.0079

> <Gold.Chemscore.Internal.Correction.Weighted>
   9.000000E+99

> <Gold.Protein.RotatedTorsions>
[ 6907 6896 6895 6894 ] final   87.71 input  -60.11 | X-H torsion
[ 7974 7965 7964 7962 ] final  -49.06 input  175.53 | X-H torsion
[ 8008 7997 7996 7995 ] final -115.87 input   59.86 | X-H torsion
[ 10167 10162 10161 10158 ] final  -25.02 input  -65.29 | X-H torsion
[ 10718 10713 10712 10709 ] final -110.33 input   66.30 | X-H torsion
[ 10763 10752 10751 10750 ] final   87.27 input  -60.55 | X-H torsion
[ 11005 11000 10999 10996 ] final  -21.08 input  -57.11 | X-H torsion

> <Gold.Protein.ActiveResidues>
 VAL166  LYS551  ARG553  GLY616  TRP617  ASP618  TYR619  PRO620  LYS621  CYS622 
 ASP623  PHE694  ASN695  SER759  ASP760  ASP761  ALA762  ILE779  LEU786  VAL792 
 PHE793  MET794  SER795  GLU796  ALA797  LYS798  CYS799  TRP800  GLU811  SER814 

> <Gold.Protein.RotatedAtoms>
  152.5415  134.2233  159.8796 H   0  0  0  0  0  0  0  0  0  0  0  0  # atno 6907 bound_to 6896
  151.2209  133.4496  159.2608 H   0  0  0  0  0  0  0  0  0  0  0  0  # atno 6908 bound_to 6896
  151.0806  134.9869  159.8410 H   0  0  0  0  0  0  0  0  0  0  0  0  # atno 6909 bound_to 6896
  145.9445  140.7631  142.9535 H   0  0  0  0  0  0  0  0  0  0  0  0  # atno 7974 bound_to 7965
  155.0588  140.0393  157.2569 H   0  0  0  0  0  0  0  0  0  0  0  0  # atno 8008 bound_to 7997
  154.7077  140.2686  155.6635 H   0  0  0  0  0  0  0  0  0  0  0  0  # atno 8009 bound_to 7997
  156.2780  140.2728  156.1708 H   0  0  0  0  0  0  0  0  0  0  0  0  # atno 8010 bound_to 7997
  140.7287  143.4301  151.0815 H   0  0  0  0  0  0  0  0  0  0  0  0  # atno 10167 bound_to 10162
  156.0585  130.5810  150.8223 H   0  0  0  0  0  0  0  0  0  0  0  0  # atno 10718 bound_to 10713
  153.1652  135.4549  154.9827 H   0  0  0  0  0  0  0  0  0  0  0  0  # atno 10763 bound_to 10752
  154.7926  135.3226  154.7743 H   0  0  0  0  0  0  0  0  0  0  0  0  # atno 10764 bound_to 10752
  153.8227  135.6945  153.4879 H   0  0  0  0  0  0  0  0  0  0  0  0  # atno 10765 bound_to 10752
  140.8526  133.7845  155.9983 H   0  0  0  0  0  0  0  0  0  0  0  0  # atno 11005 bound_to 11000
  144.6785  140.2335  143.7352 LP  0  0  0  0  0  0  0  0  0  0  0  0  # atno 17320 bound_to 7965
  145.8254  139.2062  143.1913 LP  0  0  0  0  0  0  0  0  0  0  0  0  # atno 17321 bound_to 7965
  139.7957  143.8155  152.3157 LP  0  0  0  0  0  0  0  0  0  0  0  0  # atno 17342 bound_to 10162
  139.8154  144.7318  150.9642 LP  0  0  0  0  0  0  0  0  0  0  0  0  # atno 17343 bound_to 10162
  157.5575  131.0945  150.9607 LP  0  0  0  0  0  0  0  0  0  0  0  0  # atno 17370 bound_to 10713
  156.9853  130.5542  149.5299 LP  0  0  0  0  0  0  0  0  0  0  0  0  # atno 17371 bound_to 10713
  140.8773  134.2654  157.5162 LP  0  0  0  0  0  0  0  0  0  0  0  0  # atno 17394 bound_to 11000
  139.8704  134.9597  156.4341 LP  0  0  0  0  0  0  0  0  0  0  0  0  # atno 17395 bound_to 11000

$$$$
