AV-unprocessed.smi:72|AV-procd|sdf|694|dock6
  -GOLD-   2262017 13D 1   1.00000     0.00000
 Structure written by MMmdl.
 29 30  0  0  0  0  0  0  0  0  1 V2000
  139.8005  136.3093  154.7266 N   0  0  0  0  0  0  0  0  0  0  0  0
  140.9145  136.2860  154.0871 C   0  0  0  0  0  0  0  0  0  0  0  0
  141.7982  137.3678  153.9554 N   0  0  0  0  0  0  0  0  0  0  0  0
  142.8856  137.2011  153.2673 C   0  0  0  0  0  0  0  0  0  0  0  0
  143.2093  135.9372  152.6235 N   0  0  0  0  0  0  0  0  0  0  0  0
  144.4874  135.7625  151.8360 C   0  0  1  0  0  0  0  0  0  0  0  0
  145.2980  134.8252  152.4829 O   0  0  0  0  0  0  0  0  0  0  0  0
  145.8270  133.9055  151.5331 C   0  0  1  0  0  0  0  0  0  0  0  0
  146.1547  132.5737  152.2254 C   0  0  0  0  0  0  0  0  0  0  0  0
  146.4781  131.5931  151.2630 O   0  0  0  0  0  0  0  0  0  0  0  0
  144.6929  133.8024  150.5123 C   0  0  2  0  0  0  0  0  0  0  0  0
  145.1101  133.2760  149.2666 O   0  0  0  0  0  0  0  0  0  0  0  0
  144.1847  135.2379  150.4234 C   0  0  2  0  0  0  0  0  0  0  0  0
  144.8687  136.0004  149.4459 O   0  0  0  0  0  0  0  0  0  0  0  0
  142.3449  134.8262  152.7753 C   0  0  0  0  0  0  0  0  0  0  0  0
  142.5953  133.7220  152.2926 O   0  0  0  0  0  0  0  0  0  0  0  0
  141.2253  135.0548  153.4952 N   0  0  0  0  0  0  0  0  0  0  0  0
  144.9956  136.7285  151.8489 H   0  0  0  0  0  0  0  0  0  0  0  0
  146.7110  134.3389  151.0607 H   0  0  0  0  0  0  0  0  0  0  0  0
  143.8992  133.1699  150.9129 H   0  0  0  0  0  0  0  0  0  0  0  0
  143.1162  135.2754  150.2062 H   0  0  0  0  0  0  0  0  0  0  0  0
  139.6477  137.2258  155.1227 H   0  0  0  0  0  0  0  0  0  0  0  0
  143.6240  137.9924  153.1323 H   0  0  0  0  0  0  0  0  0  0  0  0
  146.9695  132.6882  152.9410 H   0  0  0  0  0  0  0  0  0  0  0  0
  145.2863  132.2144  152.7782 H   0  0  0  0  0  0  0  0  0  0  0  0
  147.4182  131.5565  151.1747 H   0  0  0  0  0  0  0  0  0  0  0  0
  145.4952  133.9744  148.7599 H   0  0  0  0  0  0  0  0  0  0  0  0
  145.4234  135.4204  148.9467 H   0  0  0  0  0  0  0  0  0  0  0  0
  140.5815  134.2869  153.6173 H   0  0  0  0  0  0  0  0  0  0  0  0
  1  2  2  0  0  0  0
  1 22  1  0  0  0  0
  2 17  1  0  0  0  0
  2  3  1  0  0  0  0
  3  4  2  0  0  0  0
  4  5  1  0  0  0  0
  4 23  1  0  0  0  0
  5  6  1  0  0  0  0
  5 15  1  0  0  0  0
  6 18  1  0  0  0  0
  6 13  1  0  0  0  0
  6  7  1  0  0  0  0
  7  8  1  0  0  0  0
  8 19  1  0  0  0  0
  8  9  1  0  0  0  0
  8 11  1  0  0  0  0
  9 10  1  0  0  0  0
  9 24  1  0  0  0  0
  9 25  1  0  0  0  0
 10 26  1  0  0  0  0
 11 20  1  0  0  0  0
 11 12  1  0  0  0  0
 11 13  1  0  0  0  0
 12 27  1  0  0  0  0
 13 21  1  0  0  0  0
 13 14  1  0  0  0  0
 14 28  1  0  0  0  0
 15 16  2  0  0  0  0
 15 17  1  0  0  0  0
 17 29  1  0  0  0  0
M  END
> <s_m_source_file>
AV-unprocessed.smi

> <i_m_source_file_index>
72

> <i_lp_mmshare_version>
43012

> <i_f3d_flags>
0

> <s_epik_input>
W05IMl1jMW5bY0hdbihjKD1PKW4xKVtDQEBIXTJPW0NASF0oW0NIMl1bT0hdKVtDQEBIXShbT0hdKVtDQEhdMltPSF0=

> <s_epik_cmdline>
J2VwaWtfcHl0aG9uJywgJy1waCcsICc3LjAnLCAnLXRuJywgJzgnLCAnLW1hJywgJzIwMCcsICctbWV0YWxfYmluZGluZycsICctaW1hZScsICc8aW5maWxlLm1hZT4nLCAnLW9tYWUnLCAnPG91dGZpbGUubWFlPic=

> <r_lp_tautomer_probability>
7.17554e-07

> <r_epik_Ionization_Penalty>
0.0066451

> <r_epik_Ionization_Penalty_Charging>
0.00663793

> <r_epik_Ionization_Penalty_Neutral>
7.17052e-06

> <r_epik_State_Penalty>
0.419231

> <r_epik_Charging_Adjusted_Penalty>
0.425868

> <i_epik_Tot_Q>
0

> <i_epik_Tot_abs_Q>
0

> <r_epik_Metal_State_Penalty>
1.44144

> <b_epik_Metal_Only>
0

> <s_epik_Chemistry_Notes>
This compound contains an acetal/aminal-like group ( X-CH(R)-Y where X, Y are N, S, or O) that may be acid/base labile, releasing an aldehyde.

> <s_lp_Force_Field>
OPLS_2005

> <r_lp_Energy>
41.633

> <b_lp_Chiralities_Consistent>
1

> <s_lp_Variant>
AV-unprocessed.smi:72-32

> <Gold.Version>
5.8.1

> <Gold.Id.Protein>
6NUR|6NUR_protein|mol2

> <Gold.PLP.Fitness>
41.2668

> <Gold.PLP.PLP>
-26.3922

> <Gold.PLP.part.hbond>
-4.7691

> <Gold.PLP.part.metal>
0.0000

> <Gold.PLP.part.buried>
-7.2025

> <Gold.PLP.part.nonpolar>
-16.2766

> <Gold.PLP.part.repulsive>
0.5567

> <Gold.PLP.ligand.clash>
0.0000

> <Gold.PLP.ligand.torsion>
0.0717

> <Gold.PLP.Chemscore.Hbond>
4.0000

> <Gold.PLP.Chemscore.CHOScore>
1.0000

> <Gold.PLP.Chemscore.Metal>
0.0000

> <Gold.Chemscore.Hbonds>
donor molecule, donor type, donor heavy atom, donor atom, acceptor molecule, acceptor atom, score
      L1  H    10    26       P1 10747  0.99
      L1  H    12    27       P1  7921  1.00
      L1  H    14    28       P1  7921  1.00
      P1  H 11000 11005       L1     1  0.99
      L1  C     4    23       P1 10175  1.00

> <Gold.PLP.Chemscore.Internal.Correction>
0.0180

> <Gold.Rescore>
     Score         DG    S(hbond)    S(metal)    S(lipo)     H(rot)  DE(clash)    DE(int)     intcor
      6.52     -10.62       3.74        0.00      25.92       4.06       0.15       3.94       ----

> <Gold.Chemscore.Fitness>
6.5242

> <Gold.Chemscore.DG>
-10.6163

> <Gold.Chemscore.ZeroCoef>
-5.4800

> <Gold.Chemscore.Hbond>
3.7416

> <Gold.Chemscore.Metal>
0.0000

> <Gold.Chemscore.Lipo>
25.9222

> <Gold.Chemscore.Internal_Hbond>
0.0000

> <Gold.Chemscore.DEClash>
0.1513

> <Gold.Chemscore.DEInternal>
3.9407

> <Gold.Chemscore.Rot>
4.0600

> <Gold.Chemscore.Internal.Correction>
   9.000000E+99

> <Gold.Chemscore.Hbonds>
donor molecule, donor type, donor heavy atom, donor atom, acceptor molecule, acceptor atom, score
      L1  H    10    26       P1 10747  0.93
      L1  H    12    27       P1  7921  0.69
      L1  H    14    28       P1  7921  0.97
      P1  H 11000 11005       L1     1  0.45

> <Gold.Chemscore.Hbond.Weighted>
-12.4970

> <Gold.Chemscore.Metal.Weighted>
-0.0000

> <Gold.Chemscore.Lipo.Weighted>
-3.0329

> <Gold.Chemscore.Internal_Hbond.Weighted>
0.0000

> <Gold.Chemscore.DEClash.Weighted>
0.1513

> <Gold.Chemscore.DEInternal.Weighted>
3.9407

> <Gold.Chemscore.Rot.Weighted>
10.3936

> <Gold.Chemscore.Internal.Correction.Weighted>
   9.000000E+99

> <Gold.Protein.RotatedTorsions>
[ 6907 6896 6895 6894 ] final   -4.73 input  -60.11 | X-H torsion
[ 7974 7965 7964 7962 ] final  108.80 input  175.53 | X-H torsion
[ 8008 7997 7996 7995 ] final  -40.64 input   59.86 | X-H torsion
[ 10167 10162 10161 10158 ] final -158.19 input  -65.29 | X-H torsion
[ 10718 10713 10712 10709 ] final   24.01 input   66.30 | X-H torsion
[ 10763 10752 10751 10750 ] final -175.15 input  -60.55 | X-H torsion
[ 11005 11000 10999 10996 ] final   77.54 input  -57.11 | X-H torsion

> <Gold.Protein.ActiveResidues>
 VAL166  LYS551  ARG553  GLY616  TRP617  ASP618  TYR619  PRO620  LYS621  CYS622 
 ASP623  PHE694  ASN695  SER759  ASP760  ASP761  ALA762  ILE779  LEU786  VAL792 
 PHE793  MET794  SER795  GLU796  ALA797  LYS798  CYS799  TRP800  GLU811  SER814 

> <Gold.Protein.RotatedAtoms>
  151.4930  135.1058  159.9808 H   0  0  0  0  0  0  0  0  0  0  0  0  # atno 6907 bound_to 6896
  152.4733  133.8075  159.6996 H   0  0  0  0  0  0  0  0  0  0  0  0  # atno 6908 bound_to 6896
  150.8755  133.7382  159.2974 H   0  0  0  0  0  0  0  0  0  0  0  0  # atno 6909 bound_to 6896
  145.2760  139.2649  143.3941 H   0  0  0  0  0  0  0  0  0  0  0  0  # atno 7974 bound_to 7965
  154.4010  140.1520  156.3061 H   0  0  0  0  0  0  0  0  0  0  0  0  # atno 8008 bound_to 7997
  155.8657  140.3451  155.5765 H   0  0  0  0  0  0  0  0  0  0  0  0  # atno 8009 bound_to 7997
  155.7830  140.0846  157.2039 H   0  0  0  0  0  0  0  0  0  0  0  0  # atno 8010 bound_to 7997
  139.6711  143.9743  152.2284 H   0  0  0  0  0  0  0  0  0  0  0  0  # atno 10167 bound_to 10162
  157.1740  130.6772  149.6088 H   0  0  0  0  0  0  0  0  0  0  0  0  # atno 10718 bound_to 10713
  154.5878  135.2842  155.0667 H   0  0  0  0  0  0  0  0  0  0  0  0  # atno 10763 bound_to 10752
  154.1979  135.6429  153.5082 H   0  0  0  0  0  0  0  0  0  0  0  0  # atno 10764 bound_to 10752
  153.0110  135.5462  154.6553 H   0  0  0  0  0  0  0  0  0  0  0  0  # atno 10765 bound_to 10752
  139.9250  134.7691  156.1535 H   0  0  0  0  0  0  0  0  0  0  0  0  # atno 11005 bound_to 11000
  146.3231  140.3215  142.8633 LP  0  0  0  0  0  0  0  0  0  0  0  0  # atno 17320 bound_to 7965
  144.9294  140.7958  143.5699 LP  0  0  0  0  0  0  0  0  0  0  0  0  # atno 17321 bound_to 7965
  139.9508  144.6621  150.8174 LP  0  0  0  0  0  0  0  0  0  0  0  0  # atno 17342 bound_to 10162
  140.7618  143.3183  151.2680 LP  0  0  0  0  0  0  0  0  0  0  0  0  # atno 17343 bound_to 10162
  155.9734  130.4669  150.6307 LP  0  0  0  0  0  0  0  0  0  0  0  0  # atno 17370 bound_to 10713
  157.4016  131.0811  151.1303 LP  0  0  0  0  0  0  0  0  0  0  0  0  # atno 17371 bound_to 10713
  141.0801  133.6758  156.2318 LP  0  0  0  0  0  0  0  0  0  0  0  0  # atno 17394 bound_to 11000
  140.6362  134.5213  157.5565 LP  0  0  0  0  0  0  0  0  0  0  0  0  # atno 17395 bound_to 11000

$$$$
