AV-unprocessed.smi:1209|AV-procd|sdf|5073|dock9
  -GOLD-   22720 4123D 1   1.00000     0.00000
 Structure written by MMmdl.
 49 51  0  0  0  0  0  0  0  0  2 V2000
  152.4418  131.0528  165.1231 C   0  0  0  0  0  0  0  0  0  0  0  0
  153.3223  132.1642  164.6643 C   0  0  0  0  0  0  0  0  0  0  0  0
  153.9223  133.2058  165.3130 C   0  0  0  0  0  0  0  0  0  0  0  0
  154.6191  133.8890  164.2787 C   0  0  0  0  0  0  0  0  0  0  0  0
  155.4640  135.1291  164.3883 C   0  0  0  0  0  0  0  0  0  0  0  0
  154.8519  136.2831  163.6798 N   0  3  1  0  0  0  0  0  0  0  0  0
  153.5724  136.7179  164.2950 C   0  0  0  0  0  0  0  0  0  0  0  0
  155.8102  137.4053  163.4946 C   0  0  0  0  0  0  0  0  0  0  0  0
  155.5994  138.1488  162.1603 C   0  0  2  0  0  0  0  0  0  0  0  0
  156.8655  138.4576  161.6082 O   0  0  0  0  0  0  0  0  0  0  0  0
  154.7899  139.4470  162.3489 C   0  0  0  0  0  0  0  0  0  0  0  0
  154.2943  139.9802  161.0923 N   0  0  0  0  0  0  0  0  0  0  0  0
  154.3456  139.3850  159.8851 C   0  0  0  0  0  0  0  0  0  0  0  0
  153.8378  140.0536  158.8542 N   0  0  0  0  0  0  0  0  0  0  0  0
  153.4044  141.2188  159.4633 C   0  0  0  0  0  0  0  0  0  0  0  0
  152.7715  142.3572  158.9182 C   0  0  0  0  0  0  0  0  0  0  0  0
  152.4136  143.4503  159.7390 C   0  0  0  0  0  0  0  0  0  0  0  0
  151.7387  144.6561  159.1092 C   0  0  0  0  0  0  0  0  0  0  0  0
  152.6855  143.4130  161.1303 C   0  0  0  0  0  0  0  0  0  0  0  0
  152.3083  144.5753  162.0315 C   0  0  0  0  0  0  0  0  0  0  0  0
  153.3175  142.2835  161.6914 C   0  0  0  0  0  0  0  0  0  0  0  0
  153.6718  141.2032  160.8637 C   0  0  0  0  0  0  0  0  0  0  0  0
  154.4470  133.3065  163.1033 N   0  0  0  0  0  0  0  0  0  0  0  0
  153.6236  132.2005  163.3407 O   0  0  0  0  0  0  0  0  0  0  0  0
  152.1024  131.2212  166.1455 H   0  0  0  0  0  0  0  0  0  0  0  0
  152.9738  130.1016  165.0955 H   0  0  0  0  0  0  0  0  0  0  0  0
  151.5614  130.9675  164.4859 H   0  0  0  0  0  0  0  0  0  0  0  0
  153.8680  133.4427  166.3655 H   0  0  0  0  0  0  0  0  0  0  0  0
  155.6448  135.3933  165.4319 H   0  0  0  0  0  0  0  0  0  0  0  0
  156.4415  134.9112  163.9564 H   0  0  0  0  0  0  0  0  0  0  0  0
  153.7252  137.0385  165.3263 H   0  0  0  0  0  0  0  0  0  0  0  0
  152.8401  135.9107  164.2967 H   0  0  0  0  0  0  0  0  0  0  0  0
  153.1230  137.5460  163.7490 H   0  0  0  0  0  0  0  0  0  0  0  0
  155.7224  138.0938  164.3365 H   0  0  0  0  0  0  0  0  0  0  0  0
  156.8361  137.0344  163.5156 H   0  0  0  0  0  0  0  0  0  0  0  0
  155.0692  137.5133  161.4517 H   0  0  0  0  0  0  0  0  0  0  0  0
  157.0208  139.3852  161.7021 H   0  0  0  0  0  0  0  0  0  0  0  0
  153.9343  139.2645  163.0006 H   0  0  0  0  0  0  0  0  0  0  0  0
  155.3946  140.2113  162.8389 H   0  0  0  0  0  0  0  0  0  0  0  0
  154.7833  138.4060  159.7552 H   0  0  0  0  0  0  0  0  0  0  0  0
  152.5638  142.3846  157.8586 H   0  0  0  0  0  0  0  0  0  0  0  0
  150.7401  144.7947  159.5237 H   0  0  0  0  0  0  0  0  0  0  0  0
  151.6399  144.5384  158.0299 H   0  0  0  0  0  0  0  0  0  0  0  0
  152.3194  145.5598  159.2941 H   0  0  0  0  0  0  0  0  0  0  0  0
  152.5479  144.3650  163.0741 H   0  0  0  0  0  0  0  0  0  0  0  0
  151.2385  144.7764  161.9692 H   0  0  0  0  0  0  0  0  0  0  0  0
  152.8483  145.4758  161.7383 H   0  0  0  0  0  0  0  0  0  0  0  0
  153.5320  142.2450  162.7489 H   0  0  0  0  0  0  0  0  0  0  0  0
  154.6349  135.9516  162.7502 H   0  0  0  0  0  0  0  0  0  0  0  0
  1  2  1  0  0  0  0
  1 25  1  0  0  0  0
  1 26  1  0  0  0  0
  1 27  1  0  0  0  0
  2 24  1  0  0  0  0
  2  3  2  0  0  0  0
  3  4  1  0  0  0  0
  3 28  1  0  0  0  0
  4  5  1  0  0  0  0
  4 23  2  0  0  0  0
  5  6  1  0  0  0  0
  5 29  1  0  0  0  0
  5 30  1  0  0  0  0
  6  7  1  0  0  0  0
  6  8  1  0  0  0  0
  6 49  1  0  0  0  0
  7 31  1  0  0  0  0
  7 32  1  0  0  0  0
  7 33  1  0  0  0  0
  8  9  1  0  0  0  0
  8 34  1  0  0  0  0
  8 35  1  0  0  0  0
  9 10  1  0  0  0  0
  9 11  1  0  0  0  0
  9 36  1  0  0  0  0
 10 37  1  0  0  0  0
 11 12  1  0  0  0  0
 11 38  1  0  0  0  0
 11 39  1  0  0  0  0
 12 22  1  0  0  0  0
 12 13  1  0  0  0  0
 13 14  2  0  0  0  0
 13 40  1  0  0  0  0
 14 15  1  0  0  0  0
 15 22  2  0  0  0  0
 15 16  1  0  0  0  0
 16 17  2  0  0  0  0
 16 41  1  0  0  0  0
 17 18  1  0  0  0  0
 17 19  1  0  0  0  0
 18 42  1  0  0  0  0
 18 43  1  0  0  0  0
 18 44  1  0  0  0  0
 19 20  1  0  0  0  0
 19 21  2  0  0  0  0
 20 45  1  0  0  0  0
 20 46  1  0  0  0  0
 20 47  1  0  0  0  0
 21 22  1  0  0  0  0
 21 48  1  0  0  0  0
 23 24  1  0  0  0  0
M  CHG  1   6   1
M  END
> <s_m_source_file>
AV-unprocessed.smi

> <i_m_source_file_index>
1209

> <i_lp_mmshare_version>
43012

> <i_f3d_flags>
0

> <s_epik_input>
W0NIM11jMVtjSF1jKG5vMSlbQ0gyXU4oW0NIM10pW0NIMl1bQ0BIXShbT0hdKVtDSDJdbihbY0hdbjIpYyhjMjMpW2NIXWMoW0NIM10pYyhbY0hdMylbQ0gzXQ==

> <s_epik_cmdline>
J2VwaWtfcHl0aG9uJywgJy1waCcsICc3LjAnLCAnLXRuJywgJzgnLCAnLW1hJywgJzIwMCcsICctbWV0YWxfYmluZGluZycsICctaW1hZScsICc8aW5maWxlLm1hZT4nLCAnLW9tYWUnLCAnPG91dGZpbGUubWFlPic=

> <r_epik_Ionization_Penalty>
2.05249

> <r_epik_Ionization_Penalty_Charging>
1.96618

> <r_epik_Ionization_Penalty_Neutral>
0.0863156

> <r_epik_State_Penalty>
2.19215

> <r_epik_Charging_Adjusted_Penalty>
4.15833

> <i_epik_Tot_Q>
1

> <i_epik_Tot_abs_Q>
1

> <r_epik_Metal_State_Penalty>
2.17654

> <b_epik_Metal_Only>
0

> <s_lp_Force_Field>
OPLS_2005

> <r_lp_Energy>
10.2768

> <b_lp_Chiralities_Consistent>
1

> <s_lp_Variant>
AV-unprocessed.smi:1209-5

> <Gold.Version>
5.8.1

> <Gold.Id.Protein>
6NUR|6NUR_protein|mol2

> <Gold.PLP.Fitness>
51.1374

> <Gold.PLP.PLP>
-50.3360

> <Gold.PLP.part.hbond>
-1.0000

> <Gold.PLP.part.metal>
0.0000

> <Gold.PLP.part.buried>
-1.9818

> <Gold.PLP.part.nonpolar>
-47.1371

> <Gold.PLP.part.repulsive>
0.0000

> <Gold.PLP.ligand.clash>
0.0000

> <Gold.PLP.ligand.torsion>
1.2171

> <Gold.PLP.Chemscore.Hbond>
0.9920

> <Gold.PLP.Chemscore.CHOScore>
0.0000

> <Gold.PLP.Chemscore.Metal>
0.0000

> <Gold.Chemscore.Hbonds>
donor molecule, donor type, donor heavy atom, donor atom, acceptor molecule, acceptor atom, score
      P1  H  7997  8010       L1    14  0.99

> <Gold.PLP.Chemscore.Internal.Correction>
0.2597

> <Gold.Rescore>
     Score         DG    S(hbond)    S(metal)    S(lipo)     H(rot)  DE(clash)    DE(int)     intcor
     18.89     -20.84       0.93        0.00     160.03       2.53       0.73       1.22       ----

> <Gold.Chemscore.Fitness>
18.8861

> <Gold.Chemscore.DG>
-20.8371

> <Gold.Chemscore.ZeroCoef>
-5.4800

> <Gold.Chemscore.Hbond>
0.9339

> <Gold.Chemscore.Metal>
0.0000

> <Gold.Chemscore.Lipo>
160.0267

> <Gold.Chemscore.Internal_Hbond>
0.0000

> <Gold.Chemscore.DEClash>
0.7271

> <Gold.Chemscore.DEInternal>
1.2239

> <Gold.Chemscore.Rot>
2.5332

> <Gold.Chemscore.Internal.Correction>
   9.000000E+99

> <Gold.Chemscore.Hbonds>
donor molecule, donor type, donor heavy atom, donor atom, acceptor molecule, acceptor atom, score
      P1  H  7997  8010       L1    14  0.85

> <Gold.Chemscore.Hbond.Weighted>
-3.1191

> <Gold.Chemscore.Metal.Weighted>
-0.0000

> <Gold.Chemscore.Lipo.Weighted>
-18.7231

> <Gold.Chemscore.Internal_Hbond.Weighted>
0.0000

> <Gold.Chemscore.DEClash.Weighted>
0.7271

> <Gold.Chemscore.DEInternal.Weighted>
1.2239

> <Gold.Chemscore.Rot.Weighted>
6.4851

> <Gold.Chemscore.Internal.Correction.Weighted>
   9.000000E+99

> <Gold.Protein.RotatedTorsions>
[ 6907 6896 6895 6894 ] final -132.72 input  -60.11 | X-H torsion
[ 7974 7965 7964 7962 ] final -147.10 input  175.53 | X-H torsion
[ 8008 7997 7996 7995 ] final   11.59 input   59.86 | X-H torsion
[ 10167 10162 10161 10158 ] final  -73.15 input  -65.29 | X-H torsion
[ 10718 10713 10712 10709 ] final  161.51 input   66.30 | X-H torsion
[ 10763 10752 10751 10750 ] final   56.74 input  -60.55 | X-H torsion
[ 11005 11000 10999 10996 ] final   84.79 input  -57.11 | X-H torsion

> <Gold.Protein.ActiveResidues>
 VAL166  LYS551  ARG553  GLY616  TRP617  ASP618  TYR619  PRO620  LYS621  CYS622 
 ASP623  PHE694  ASN695  SER759  ASP760  ASP761  ALA762  ILE779  LEU786  VAL792 
 PHE793  MET794  SER795  GLU796  ALA797  LYS798  CYS799  TRP800  GLU811  SER814 

> <Gold.Protein.RotatedAtoms>
  150.9657  133.6397  159.2746 H   0  0  0  0  0  0  0  0  0  0  0  0  # atno 6907 bound_to 6896
  151.3704  135.0920  159.9473 H   0  0  0  0  0  0  0  0  0  0  0  0  # atno 6908 bound_to 6896
  152.5164  133.9212  159.7590 H   0  0  0  0  0  0  0  0  0  0  0  0  # atno 6909 bound_to 6896
  144.8115  140.5370  143.5639 H   0  0  0  0  0  0  0  0  0  0  0  0  # atno 7974 bound_to 7965
  154.8091  140.2865  155.5866 H   0  0  0  0  0  0  0  0  0  0  0  0  # atno 8008 bound_to 7997
  156.2986  140.2572  156.2905 H   0  0  0  0  0  0  0  0  0  0  0  0  # atno 8009 bound_to 7997
  154.9469  140.0380  157.2114 H   0  0  0  0  0  0  0  0  0  0  0  0  # atno 8010 bound_to 7997
  140.5134  143.2341  151.7555 H   0  0  0  0  0  0  0  0  0  0  0  0  # atno 10167 bound_to 10162
  157.1355  131.0527  151.2351 H   0  0  0  0  0  0  0  0  0  0  0  0  # atno 10718 bound_to 10713
  152.9837  135.5666  154.5278 H   0  0  0  0  0  0  0  0  0  0  0  0  # atno 10763 bound_to 10752
  154.4755  135.2786  155.1612 H   0  0  0  0  0  0  0  0  0  0  0  0  # atno 10764 bound_to 10752
  154.3143  135.6282  153.5532 H   0  0  0  0  0  0  0  0  0  0  0  0  # atno 10765 bound_to 10752
  139.8990  134.8241  156.2493 H   0  0  0  0  0  0  0  0  0  0  0  0  # atno 11005 bound_to 11000
  145.5312  139.1475  143.3498 LP  0  0  0  0  0  0  0  0  0  0  0  0  # atno 17320 bound_to 7965
  146.2414  140.5453  142.8932 LP  0  0  0  0  0  0  0  0  0  0  0  0  # atno 17321 bound_to 7965
  139.4902  144.4358  151.9820 LP  0  0  0  0  0  0  0  0  0  0  0  0  # atno 17342 bound_to 10162
  140.3452  144.3156  150.5959 LP  0  0  0  0  0  0  0  0  0  0  0  0  # atno 17343 bound_to 10162
  157.4354  130.7514  149.7025 LP  0  0  0  0  0  0  0  0  0  0  0  0  # atno 17370 bound_to 10713
  155.9799  130.4035  150.3559 LP  0  0  0  0  0  0  0  0  0  0  0  0  # atno 17371 bound_to 10713
  141.0234  133.7028  156.1307 LP  0  0  0  0  0  0  0  0  0  0  0  0  # atno 17394 bound_to 11000
  140.7200  134.4368  157.5575 LP  0  0  0  0  0  0  0  0  0  0  0  0  # atno 17395 bound_to 11000

$$$$
