AV-unprocessed.smi:553|AV-procd|sdf|2905|dock7
  -GOLD-   2262023393D 1   1.00000     0.00000
 Structure written by MMmdl.
 43 45  0  0  0  0  0  0  0  0  1 V2000
  149.8959  135.2830  156.3350 O   0  0  0  0  0  0  0  0  0  0  0  0
  149.6913  135.5900  155.1628 C   0  0  0  0  0  0  0  0  0  0  0  0
  149.8942  136.8160  154.6414 N   0  0  0  0  0  0  0  0  0  0  0  0
  150.4063  137.9841  155.2684 C   0  0  0  0  0  0  0  0  0  0  0  0
  150.7222  139.1870  154.5924 C   0  0  0  0  0  0  0  0  0  0  0  0
  151.2060  140.2794  155.3378 C   0  0  0  0  0  0  0  0  0  0  0  0
  151.3526  140.1413  156.7332 C   0  0  0  0  0  0  0  0  0  0  0  0
  151.8350  141.2268  157.4780 N   0  0  0  0  0  0  0  0  0  0  0  0
  152.1555  140.8851  158.8582 C   0  0  0  0  0  0  0  0  0  0  0  0
  152.7976  142.0926  159.5632 C   0  0  0  0  0  0  0  0  0  0  0  0
  151.9284  143.2180  159.4711 O   0  0  0  0  0  0  0  0  0  0  0  0
  151.6762  143.5906  158.1189 C   0  0  0  0  0  0  0  0  0  0  0  0
  151.0046  142.4209  157.3787 C   0  0  0  0  0  0  0  0  0  0  0  0
  151.0426  138.9974  157.3879 N   0  0  0  0  0  0  0  0  0  0  0  0
  150.5796  137.9541  156.6677 C   0  0  0  0  0  0  0  0  0  0  0  0
  149.2037  134.6932  154.2866 N   0  0  0  0  0  0  0  0  0  0  0  0
  148.8720  133.2864  154.5184 C   0  0  1  0  0  0  0  0  0  0  0  0
  148.8546  132.4980  153.1956 C   0  0  0  0  0  0  0  0  0  0  0  0
  148.8522  130.9981  153.5173 C   0  0  0  0  0  0  0  0  0  0  0  0
  149.7696  130.8155  155.0939 S   0  0  0  0  0  0  0  0  0  0  0  0
  148.8899  130.1766  156.0844 O   0  0  0  0  0  0  0  0  0  0  0  0
  151.1167  130.2899  154.8252 O   0  0  0  0  0  0  0  0  0  0  0  0
  149.8872  132.6078  155.4524 C   0  0  0  0  0  0  0  0  0  0  0  0
  149.6067  136.9365  153.6813 H   0  0  0  0  0  0  0  0  0  0  0  0
  150.5935  139.3027  153.5279 H   0  0  0  0  0  0  0  0  0  0  0  0
  151.4542  141.2078  154.8444 H   0  0  0  0  0  0  0  0  0  0  0  0
  151.2476  140.5891  159.3859 H   0  0  0  0  0  0  0  0  0  0  0  0
  152.8352  140.0323  158.8802 H   0  0  0  0  0  0  0  0  0  0  0  0
  152.9739  141.8645  160.6145 H   0  0  0  0  0  0  0  0  0  0  0  0
  153.7664  142.3314  159.1214 H   0  0  0  0  0  0  0  0  0  0  0  0
  151.0276  144.4665  158.1061 H   0  0  0  0  0  0  0  0  0  0  0  0
  152.6089  143.8766  157.6297 H   0  0  0  0  0  0  0  0  0  0  0  0
  150.8510  142.6785  156.3300 H   0  0  0  0  0  0  0  0  0  0  0  0
  150.0222  142.2262  157.8117 H   0  0  0  0  0  0  0  0  0  0  0  0
  150.3419  137.0626  157.2299 H   0  0  0  0  0  0  0  0  0  0  0  0
  149.0240  135.0353  153.3535 H   0  0  0  0  0  0  0  0  0  0  0  0
  147.8762  133.2039  154.9581 H   0  0  0  0  0  0  0  0  0  0  0  0
  148.0051  132.7730  152.5696 H   0  0  0  0  0  0  0  0  0  0  0  0
  149.7568  132.7299  152.6275 H   0  0  0  0  0  0  0  0  0  0  0  0
  147.8353  130.6391  153.6773 H   0  0  0  0  0  0  0  0  0  0  0  0
  149.3161  130.3940  152.7374 H   0  0  0  0  0  0  0  0  0  0  0  0
  150.9055  132.9249  155.2243 H   0  0  0  0  0  0  0  0  0  0  0  0
  149.6941  132.7923  156.5092 H   0  0  0  0  0  0  0  0  0  0  0  0
  1  2  2  0  0  0  0
  2  3  1  0  0  0  0
  2 16  1  0  0  0  0
  3  4  1  0  0  0  0
  3 24  1  0  0  0  0
  4 15  1  0  0  0  0
  4  5  2  0  0  0  0
  5  6  1  0  0  0  0
  5 25  1  0  0  0  0
  6  7  2  0  0  0  0
  6 26  1  0  0  0  0
  7  8  1  0  0  0  0
  7 14  1  0  0  0  0
  8 13  1  0  0  0  0
  8  9  1  0  0  0  0
  9 10  1  0  0  0  0
  9 27  1  0  0  0  0
  9 28  1  0  0  0  0
 10 11  1  0  0  0  0
 10 29  1  0  0  0  0
 10 30  1  0  0  0  0
 11 12  1  0  0  0  0
 12 13  1  0  0  0  0
 12 31  1  0  0  0  0
 12 32  1  0  0  0  0
 13 33  1  0  0  0  0
 13 34  1  0  0  0  0
 14 15  2  0  0  0  0
 15 35  1  0  0  0  0
 16 17  1  0  0  0  0
 16 36  1  0  0  0  0
 17 23  1  0  0  0  0
 17 18  1  0  0  0  0
 17 37  1  0  0  0  0
 18 19  1  0  0  0  0
 18 38  1  0  0  0  0
 18 39  1  0  0  0  0
 19 20  1  0  0  0  0
 19 40  1  0  0  0  0
 19 41  1  0  0  0  0
 20 21  2  0  0  0  0
 20 22  2  0  0  0  0
 20 23  1  0  0  0  0
 23 42  1  0  0  0  0
 23 43  1  0  0  0  0
M  END
> <s_m_source_file>
AV-unprocessed.smi

> <i_m_source_file_index>
553

> <i_lp_mmshare_version>
43012

> <i_f3d_flags>
0

> <s_epik_input>
Tz1TMSg9TylbQ0gyXVtDSDJdW0NASF0oW0NIMl0xKVtOSF1DKD1PKVtOSF1jMltjSF1bY0hdYyhuW2NIXTIpTjNbQ0gyXVtDSDJdT1tDSDJdW0NIMl0z

> <s_epik_cmdline>
J2VwaWtfcHl0aG9uJywgJy1waCcsICc3LjAnLCAnLXRuJywgJzgnLCAnLW1hJywgJzIwMCcsICctbWV0YWxfYmluZGluZycsICctaW1hZScsICc8aW5maWxlLm1hZT4nLCAnLW9tYWUnLCAnPG91dGZpbGUubWFlPic=

> <r_lp_tautomer_probability>
1

> <r_epik_Ionization_Penalty>
0.00171806

> <r_epik_Ionization_Penalty_Charging>
0

> <r_epik_Ionization_Penalty_Neutral>
0.00171806

> <r_epik_State_Penalty>
0.00114322

> <r_epik_Charging_Adjusted_Penalty>
0.00114322

> <i_epik_Tot_Q>
0

> <i_epik_Tot_abs_Q>
0

> <r_epik_Metal_State_Penalty>
-0

> <b_epik_Metal_Only>
0

> <s_lp_Force_Field>
OPLS_2005

> <r_lp_Energy>
34.1165

> <b_lp_Chiralities_Consistent>
1

> <s_lp_Variant>
AV-unprocessed.smi:553-2

> <Gold.Version>
5.8.1

> <Gold.Id.Protein>
6NUR|6NUR_protein|mol2

> <Gold.PLP.Fitness>
40.2564

> <Gold.PLP.PLP>
-34.9782

> <Gold.PLP.part.hbond>
-2.0000

> <Gold.PLP.part.metal>
0.0000

> <Gold.PLP.part.buried>
-1.3133

> <Gold.PLP.part.nonpolar>
-31.2810

> <Gold.PLP.part.repulsive>
0.1131

> <Gold.PLP.ligand.clash>
0.0000

> <Gold.PLP.ligand.torsion>
0.4128

> <Gold.PLP.Chemscore.Hbond>
2.0000

> <Gold.PLP.Chemscore.CHOScore>
0.0000

> <Gold.PLP.Chemscore.Metal>
0.0000

> <Gold.Chemscore.Hbonds>
donor molecule, donor type, donor heavy atom, donor atom, acceptor molecule, acceptor atom, score
      L1  H     3    24       P1  7948  1.00
      L1  H    16    36       P1  7948  1.00

> <Gold.PLP.Chemscore.Internal.Correction>
0.1038

> <Gold.Rescore>
     Score         DG    S(hbond)    S(metal)    S(lipo)     H(rot)  DE(clash)    DE(int)     intcor
     13.98     -17.24       1.83        0.00      76.05       1.27       0.00       3.27       ----

> <Gold.Chemscore.Fitness>
13.9765

> <Gold.Chemscore.DG>
-17.2430

> <Gold.Chemscore.ZeroCoef>
-5.4800

> <Gold.Chemscore.Hbond>
1.8314

> <Gold.Chemscore.Metal>
0.0000

> <Gold.Chemscore.Lipo>
76.0534

> <Gold.Chemscore.Internal_Hbond>
0.0000

> <Gold.Chemscore.DEClash>
0.0000

> <Gold.Chemscore.DEInternal>
3.2665

> <Gold.Chemscore.Rot>
1.2703

> <Gold.Chemscore.Internal.Correction>
   9.000000E+99

> <Gold.Chemscore.Hbonds>
donor molecule, donor type, donor heavy atom, donor atom, acceptor molecule, acceptor atom, score
      L1  H     3    24       P1  7948  0.71
      L1  H    16    36       P1  7948  0.25

> <Gold.Chemscore.Hbond.Weighted>
-6.1167

> <Gold.Chemscore.Metal.Weighted>
-0.0000

> <Gold.Chemscore.Lipo.Weighted>
-8.8982

> <Gold.Chemscore.Internal_Hbond.Weighted>
0.0000

> <Gold.Chemscore.DEClash.Weighted>
0.0000

> <Gold.Chemscore.DEInternal.Weighted>
3.2665

> <Gold.Chemscore.Rot.Weighted>
3.2520

> <Gold.Chemscore.Internal.Correction.Weighted>
   9.000000E+99

> <Gold.Protein.RotatedTorsions>
[ 6907 6896 6895 6894 ] final  -97.78 input  -60.11 | X-H torsion
[ 7974 7965 7964 7962 ] final  162.60 input  175.53 | X-H torsion
[ 8008 7997 7996 7995 ] final -109.39 input   59.86 | X-H torsion
[ 10167 10162 10161 10158 ] final  151.88 input  -65.29 | X-H torsion
[ 10718 10713 10712 10709 ] final  137.58 input   66.30 | X-H torsion
[ 10763 10752 10751 10750 ] final  -81.56 input  -60.55 | X-H torsion
[ 11005 11000 10999 10996 ] final  -38.65 input  -57.11 | X-H torsion

> <Gold.Protein.ActiveResidues>
 VAL166  LYS551  ARG553  GLY616  TRP617  ASP618  TYR619  PRO620  LYS621  CYS622 
 ASP623  PHE694  ASN695  SER759  ASP760  ASP761  ALA762  ILE779  LEU786  VAL792 
 PHE793  MET794  SER795  GLU796  ALA797  LYS798  CYS799  TRP800  GLU811  SER814 

> <Gold.Protein.RotatedAtoms>
  150.7026  134.1296  159.4064 H   0  0  0  0  0  0  0  0  0  0  0  0  # atno 6907 bound_to 6896
  151.9282  135.0266  160.0536 H   0  0  0  0  0  0  0  0  0  0  0  0  # atno 6908 bound_to 6896
  152.2198  133.4940  159.5193 H   0  0  0  0  0  0  0  0  0  0  0  0  # atno 6909 bound_to 6896
  144.7629  139.8062  143.6326 H   0  0  0  0  0  0  0  0  0  0  0  0  # atno 7974 bound_to 7965
  154.9586  140.0399  157.2179 H   0  0  0  0  0  0  0  0  0  0  0  0  # atno 8008 bound_to 7997
  154.7910  140.2835  155.5969 H   0  0  0  0  0  0  0  0  0  0  0  0  # atno 8009 bound_to 7997
  156.2949  140.2573  156.2758 H   0  0  0  0  0  0  0  0  0  0  0  0  # atno 8010 bound_to 7997
  139.4837  144.5404  151.7574 H   0  0  0  0  0  0  0  0  0  0  0  0  # atno 10167 bound_to 10162
  157.4345  131.1052  151.0213 H   0  0  0  0  0  0  0  0  0  0  0  0  # atno 10718 bound_to 10713
  154.5651  135.5622  153.7043 H   0  0  0  0  0  0  0  0  0  0  0  0  # atno 10763 bound_to 10752
  153.0030  135.6283  154.2192 H   0  0  0  0  0  0  0  0  0  0  0  0  # atno 10764 bound_to 10752
  154.2130  135.2873  155.2931 H   0  0  0  0  0  0  0  0  0  0  0  0  # atno 10765 bound_to 10752
  141.0043  133.6939  156.2081 H   0  0  0  0  0  0  0  0  0  0  0  0  # atno 11005 bound_to 11000
  146.1710  139.4860  142.9928 LP  0  0  0  0  0  0  0  0  0  0  0  0  # atno 17320 bound_to 7965
  145.6561  141.0251  143.1734 LP  0  0  0  0  0  0  0  0  0  0  0  0  # atno 17321 bound_to 7965
  140.4942  144.1265  150.5957 LP  0  0  0  0  0  0  0  0  0  0  0  0  # atno 17342 bound_to 10162
  140.4136  143.2645  151.9803 LP  0  0  0  0  0  0  0  0  0  0  0  0  # atno 17343 bound_to 10162
  157.1097  130.6016  149.5479 LP  0  0  0  0  0  0  0  0  0  0  0  0  # atno 17370 bound_to 10713
  155.9925  130.4984  150.7344 LP  0  0  0  0  0  0  0  0  0  0  0  0  # atno 17371 bound_to 10713
  140.6838  134.4739  157.5589 LP  0  0  0  0  0  0  0  0  0  0  0  0  # atno 17394 bound_to 11000
  139.9055  134.8459  156.1723 LP  0  0  0  0  0  0  0  0  0  0  0  0  # atno 17395 bound_to 11000

$$$$
