AV-unprocessed.smi:2089|AV-procd|sdf|8528|dock8
  -GOLD-   2272011243D 1   1.00000     0.00000
 Structure written by MMmdl.
 39 40  0  0  0  0  0  0  0  0  1 V2000
  149.1898  134.7426  155.7768 C   0  0  0  0  0  0  0  0  0  0  0  0
  150.3466  135.9269  156.5766 S   0  0  0  0  0  0  0  0  0  0  0  0
  150.0178  135.9959  158.0088 O   0  0  0  0  0  0  0  0  0  0  0  0
  151.7217  135.6197  156.1545 O   0  0  0  0  0  0  0  0  0  0  0  0
  149.9001  137.4402  155.8649 N   0  0  0  0  0  0  0  0  0  0  0  0
  148.5679  137.5678  155.2568 C   0  0  0  0  0  0  0  0  0  0  0  0
  148.6970  138.6629  154.2005 C   0  0  0  0  0  0  0  0  0  0  0  0
  150.1493  138.5439  153.7603 C   0  0  0  0  0  0  0  0  0  0  0  0
  150.8956  138.1547  155.0486 C   0  0  1  0  0  0  0  0  0  0  0  0
  151.5179  139.3487  155.7883 C   0  0  0  0  0  0  0  0  0  0  0  0
  152.4448  139.9896  155.2914 O   0  0  0  0  0  0  0  0  0  0  0  0
  150.9849  139.6438  156.9823 N   0  0  0  0  0  0  0  0  0  0  0  0
  151.4195  140.7434  157.8315 C   0  0  0  0  0  0  0  0  0  0  0  0
  150.3468  141.8395  157.8887 C   0  0  0  0  0  0  0  0  0  0  0  0
  150.8613  143.1122  158.5345 C   0  0  0  0  0  0  0  0  0  0  0  0
  151.9345  143.8273  157.9615 C   0  0  0  0  0  0  0  0  0  0  0  0
  152.3665  145.0096  158.5933 C   0  0  0  0  0  0  0  0  0  0  0  0
  151.7119  145.4298  159.7672 C   0  0  0  0  0  0  0  0  0  0  0  0
  150.6492  144.6455  160.2588 C   0  0  0  0  0  0  0  0  0  0  0  0
  150.2269  143.5106  159.6604 N   0  0  0  0  0  0  0  0  0  0  0  0
  149.3508  133.7463  156.1881 H   0  0  0  0  0  0  0  0  0  0  0  0
  149.3696  134.7217  154.7023 H   0  0  0  0  0  0  0  0  0  0  0  0
  148.1625  135.0517  155.9682 H   0  0  0  0  0  0  0  0  0  0  0  0
  148.2915  136.6248  154.7839 H   0  0  0  0  0  0  0  0  0  0  0  0
  147.8179  137.8035  156.0119 H   0  0  0  0  0  0  0  0  0  0  0  0
  147.9928  138.5415  153.3771 H   0  0  0  0  0  0  0  0  0  0  0  0
  148.5222  139.6401  154.6525 H   0  0  0  0  0  0  0  0  0  0  0  0
  150.2478  137.7436  153.0256 H   0  0  0  0  0  0  0  0  0  0  0  0
  150.5173  139.4576  153.2916 H   0  0  0  0  0  0  0  0  0  0  0  0
  151.7028  137.4706  154.7804 H   0  0  0  0  0  0  0  0  0  0  0  0
  150.2155  139.0796  157.3141 H   0  0  0  0  0  0  0  0  0  0  0  0
  151.6231  140.3684  158.8359 H   0  0  0  0  0  0  0  0  0  0  0  0
  152.3539  141.1504  157.4417 H   0  0  0  0  0  0  0  0  0  0  0  0
  149.9936  142.0705  156.8823 H   0  0  0  0  0  0  0  0  0  0  0  0
  149.4779  141.4828  158.4435 H   0  0  0  0  0  0  0  0  0  0  0  0
  152.4147  143.4819  157.0576 H   0  0  0  0  0  0  0  0  0  0  0  0
  153.1840  145.5847  158.1839 H   0  0  0  0  0  0  0  0  0  0  0  0
  152.0160  146.3314  160.2777 H   0  0  0  0  0  0  0  0  0  0  0  0
  150.1241  144.9380  161.1560 H   0  0  0  0  0  0  0  0  0  0  0  0
  1  2  1  0  0  0  0
  1 21  1  0  0  0  0
  1 22  1  0  0  0  0
  1 23  1  0  0  0  0
  2  3  2  0  0  0  0
  2  4  2  0  0  0  0
  2  5  1  0  0  0  0
  5  9  1  0  0  0  0
  5  6  1  0  0  0  0
  6  7  1  0  0  0  0
  6 24  1  0  0  0  0
  6 25  1  0  0  0  0
  7  8  1  0  0  0  0
  7 26  1  0  0  0  0
  7 27  1  0  0  0  0
  8  9  1  0  0  0  0
  8 28  1  0  0  0  0
  8 29  1  0  0  0  0
  9 10  1  0  0  0  0
  9 30  1  0  0  0  0
 10 11  2  0  0  0  0
 10 12  1  0  0  0  0
 12 13  1  0  0  0  0
 12 31  1  0  0  0  0
 13 14  1  0  0  0  0
 13 32  1  0  0  0  0
 13 33  1  0  0  0  0
 14 15  1  0  0  0  0
 14 34  1  0  0  0  0
 14 35  1  0  0  0  0
 15 20  1  0  0  0  0
 15 16  2  0  0  0  0
 16 17  1  0  0  0  0
 16 36  1  0  0  0  0
 17 18  2  0  0  0  0
 17 37  1  0  0  0  0
 18 19  1  0  0  0  0
 18 38  1  0  0  0  0
 19 20  2  0  0  0  0
 19 39  1  0  0  0  0
M  END
> <s_m_source_file>
AV-unprocessed.smi

> <i_m_source_file_index>
2089

> <i_lp_mmshare_version>
43012

> <i_f3d_flags>
0

> <s_epik_input>
W0NIM11TKD1PKSg9TylOMVtDSDJdW0NIMl1bQ0gyXVtDQEhdMUMoPU8pW05IXVtDSDJdW0NIMl1jMltjSF1bY0hdW2NIXVtjSF1uMg==

> <s_epik_cmdline>
J2VwaWtfcHl0aG9uJywgJy1waCcsICc3LjAnLCAnLXRuJywgJzgnLCAnLW1hJywgJzIwMCcsICctbWV0YWxfYmluZGluZycsICctaW1hZScsICc8aW5maWxlLm1hZT4nLCAnLW9tYWUnLCAnPG91dGZpbGUubWFlPic=

> <r_epik_Ionization_Penalty>
0.0244371

> <r_epik_Ionization_Penalty_Charging>
0

> <r_epik_Ionization_Penalty_Neutral>
0.0244371

> <r_epik_State_Penalty>
0.0198365

> <r_epik_Charging_Adjusted_Penalty>
0.0198365

> <i_epik_Tot_Q>
0

> <i_epik_Tot_abs_Q>
0

> <r_epik_Metal_State_Penalty>
0.0190441

> <b_epik_Metal_Only>
0

> <s_lp_Force_Field>
OPLS_2005

> <r_lp_Energy>
6.09758

> <b_lp_Chiralities_Consistent>
1

> <s_lp_Variant>
AV-unprocessed.smi:2089-1

> <Gold.Version>
5.8.1

> <Gold.Id.Protein>
6NUR|6NUR_protein|mol2

> <Gold.PLP.Fitness>
45.5894

> <Gold.PLP.PLP>
-36.6038

> <Gold.PLP.part.hbond>
-4.9853

> <Gold.PLP.part.metal>
0.0000

> <Gold.PLP.part.buried>
-4.0457

> <Gold.PLP.part.nonpolar>
-29.3245

> <Gold.PLP.part.repulsive>
0.1938

> <Gold.PLP.ligand.clash>
0.0000

> <Gold.PLP.ligand.torsion>
0.6341

> <Gold.PLP.Chemscore.Hbond>
3.2359

> <Gold.PLP.Chemscore.CHOScore>
0.0000

> <Gold.PLP.Chemscore.Metal>
0.0000

> <Gold.Chemscore.Hbonds>
donor molecule, donor type, donor heavy atom, donor atom, acceptor molecule, acceptor atom, score
      P1  H  6896  6907       L1     3  0.62
      P1  H  7989  7998       L1    11  0.47
      P1  H  7997  8009       L1    11  0.76
      P1  H 10752 10763       L1     4  1.00

> <Gold.PLP.Chemscore.Internal.Correction>
0.5458

> <Gold.Rescore>
     Score         DG    S(hbond)    S(metal)    S(lipo)     H(rot)  DE(clash)    DE(int)     intcor
     20.94     -21.43       2.98        0.00      92.78       1.90       0.06       0.43       ----

> <Gold.Chemscore.Fitness>
20.9376

> <Gold.Chemscore.DG>
-21.4294

> <Gold.Chemscore.ZeroCoef>
-5.4800

> <Gold.Chemscore.Hbond>
2.9807

> <Gold.Chemscore.Metal>
0.0000

> <Gold.Chemscore.Lipo>
92.7794

> <Gold.Chemscore.Internal_Hbond>
0.0000

> <Gold.Chemscore.DEClash>
0.0585

> <Gold.Chemscore.DEInternal>
0.4334

> <Gold.Chemscore.Rot>
1.8990

> <Gold.Chemscore.Internal.Correction>
   9.000000E+99

> <Gold.Chemscore.Hbonds>
donor molecule, donor type, donor heavy atom, donor atom, acceptor molecule, acceptor atom, score
      P1  H  6896  6907       L1     3  0.60
      P1  H  7989  7998       L1    11  0.28
      P1  H  7997  8009       L1    11  0.75
      P1  H 10752 10763       L1     4  0.94

> <Gold.Chemscore.Hbond.Weighted>
-9.9556

> <Gold.Chemscore.Metal.Weighted>
-0.0000

> <Gold.Chemscore.Lipo.Weighted>
-10.8552

> <Gold.Chemscore.Internal_Hbond.Weighted>
0.0000

> <Gold.Chemscore.DEClash.Weighted>
0.0585

> <Gold.Chemscore.DEInternal.Weighted>
0.4334

> <Gold.Chemscore.Rot.Weighted>
4.8613

> <Gold.Chemscore.Internal.Correction.Weighted>
   9.000000E+99

> <Gold.Protein.RotatedTorsions>
[ 6907 6896 6895 6894 ] final  -57.97 input  -60.11 | X-H torsion
[ 7974 7965 7964 7962 ] final -176.55 input  175.53 | X-H torsion
[ 8008 7997 7996 7995 ] final -157.68 input   59.86 | X-H torsion
[ 10167 10162 10161 10158 ] final -146.52 input  -65.29 | X-H torsion
[ 10718 10713 10712 10709 ] final   47.10 input   66.30 | X-H torsion
[ 10763 10752 10751 10750 ] final  106.43 input  -60.55 | X-H torsion
[ 11005 11000 10999 10996 ] final   70.54 input  -57.11 | X-H torsion

> <Gold.Protein.ActiveResidues>
 VAL166  LYS551  ARG553  GLY616  TRP617  ASP618  TYR619  PRO620  LYS621  CYS622 
 ASP623  PHE694  ASN695  SER759  ASP760  ASP761  ALA762  ILE779  LEU786  VAL792 
 PHE793  MET794  SER795  GLU796  ALA797  LYS798  CYS799  TRP800  GLU811  SER814 

> <Gold.Protein.RotatedAtoms>
  150.8043  134.7158  159.6629 H   0  0  0  0  0  0  0  0  0  0  0  0  # atno 6907 bound_to 6896
  152.4162  134.6034  160.0016 H   0  0  0  0  0  0  0  0  0  0  0  0  # atno 6908 bound_to 6896
  151.6262  133.3298  159.3135 H   0  0  0  0  0  0  0  0  0  0  0  0  # atno 6909 bound_to 6896
  144.7127  140.1153  143.6408 H   0  0  0  0  0  0  0  0  0  0  0  0  # atno 7974 bound_to 7965
  155.7361  140.0808  157.2267 H   0  0  0  0  0  0  0  0  0  0  0  0  # atno 8008 bound_to 7997
  154.4027  140.1586  156.2619 H   0  0  0  0  0  0  0  0  0  0  0  0  # atno 8009 bound_to 7997
  155.9063  140.3406  155.6067 H   0  0  0  0  0  0  0  0  0  0  0  0  # atno 8010 bound_to 7997
  139.7706  143.8243  152.2624 H   0  0  0  0  0  0  0  0  0  0  0  0  # atno 10167 bound_to 10162
  157.4550  130.8161  149.7827 H   0  0  0  0  0  0  0  0  0  0  0  0  # atno 10718 bound_to 10713
  153.3929  135.3877  155.1935 H   0  0  0  0  0  0  0  0  0  0  0  0  # atno 10763 bound_to 10752
  154.8721  135.3753  154.4714 H   0  0  0  0  0  0  0  0  0  0  0  0  # atno 10764 bound_to 10752
  153.5203  135.7087  153.5796 H   0  0  0  0  0  0  0  0  0  0  0  0  # atno 10765 bound_to 10752
  139.9592  134.7091  156.0684 H   0  0  0  0  0  0  0  0  0  0  0  0  # atno 11005 bound_to 11000
  145.9419  139.2674  143.1264 LP  0  0  0  0  0  0  0  0  0  0  0  0  # atno 17320 bound_to 7965
  145.9415  140.8976  143.0305 LP  0  0  0  0  0  0  0  0  0  0  0  0  # atno 17321 bound_to 7965
  139.8277  144.7268  150.9491 LP  0  0  0  0  0  0  0  0  0  0  0  0  # atno 17342 bound_to 10162
  140.7813  143.4099  151.1009 LP  0  0  0  0  0  0  0  0  0  0  0  0  # atno 17343 bound_to 10162
  156.0003  130.3884  150.2631 LP  0  0  0  0  0  0  0  0  0  0  0  0  # atno 17370 bound_to 10713
  157.0805  131.0142  151.3158 LP  0  0  0  0  0  0  0  0  0  0  0  0  # atno 17371 bound_to 10713
  141.1267  133.6597  156.3355 LP  0  0  0  0  0  0  0  0  0  0  0  0  # atno 17394 bound_to 11000
  140.5539  134.6000  157.5415 LP  0  0  0  0  0  0  0  0  0  0  0  0  # atno 17395 bound_to 11000

$$$$
