AV-unprocessed.smi:2145|AV-procd|sdf|8737|dock1
  -GOLD-   2272011503D 1   1.00000     0.00000
 Structure written by MMmdl.
 45 47  0  0  0  0  0  0  0  0  2 V2000
  149.1477  130.4161  153.3357 C   0  0  0  0  0  0  0  0  0  0  0  0
  150.2361  130.8859  154.2994 C   0  0  0  0  0  0  0  0  0  0  0  0
  151.0877  130.0776  154.6686 O   0  0  0  0  0  0  0  0  0  0  0  0
  150.2063  132.3089  154.7421 C   0  0  0  0  0  0  0  0  0  0  0  0
  149.2867  133.2019  154.1482 C   0  0  0  0  0  0  0  0  0  0  0  0
  149.2377  134.5505  154.5485 C   0  0  0  0  0  0  0  0  0  0  0  0
  150.1003  135.0397  155.5487 C   0  0  0  0  0  0  0  0  0  0  0  0
  149.9822  136.3721  155.8800 O   0  0  0  0  0  0  0  0  0  0  0  0
  151.1000  137.0234  156.4689 C   0  0  0  0  0  0  0  0  0  0  0  0
  150.6623  138.4212  156.9324 C   0  0  1  0  0  0  0  0  0  0  0  0
  150.1719  138.3192  158.2545 O   0  0  0  0  0  0  0  0  0  0  0  0
  151.8262  139.4318  156.9005 C   0  0  0  0  0  0  0  0  0  0  0  0
  151.3753  140.8258  157.0431 N   0  0  0  0  0  0  0  0  0  0  0  0
  150.5610  141.5658  156.2378 C   0  0  0  0  0  0  0  0  0  0  0  0
  149.9137  141.1158  154.9714 C   0  0  0  0  0  0  0  0  0  0  0  0
  150.4459  142.8005  156.8027 N   0  3  0  0  0  0  0  0  0  0  0  0
  151.1914  142.8517  157.9812 C   0  0  0  0  0  0  0  0  0  0  0  0
  151.3792  143.8841  158.8952 C   0  0  0  0  0  0  0  0  0  0  0  0
  152.2047  143.6053  160.0040 C   0  0  0  0  0  0  0  0  0  0  0  0
  152.8057  142.3410  160.1720 C   0  0  0  0  0  0  0  0  0  0  0  0
  152.6084  141.3022  159.2384 C   0  0  0  0  0  0  0  0  0  0  0  0
  151.7919  141.5858  158.1434 C   0  0  0  0  0  0  0  0  0  0  0  0
  151.0249  134.1471  156.1447 C   0  0  0  0  0  0  0  0  0  0  0  0
  151.0763  132.7974  155.7446 C   0  0  0  0  0  0  0  0  0  0  0  0
  148.1618  130.5317  153.7863 H   0  0  0  0  0  0  0  0  0  0  0  0
  149.2872  129.3637  153.0870 H   0  0  0  0  0  0  0  0  0  0  0  0
  149.1823  130.9917  152.4106 H   0  0  0  0  0  0  0  0  0  0  0  0
  148.6079  132.8628  153.3788 H   0  0  0  0  0  0  0  0  0  0  0  0
  148.5272  135.2174  154.0822 H   0  0  0  0  0  0  0  0  0  0  0  0
  151.5119  136.4493  157.3012 H   0  0  0  0  0  0  0  0  0  0  0  0
  151.8795  137.1215  155.7115 H   0  0  0  0  0  0  0  0  0  0  0  0
  149.8615  138.7830  156.2862 H   0  0  0  0  0  0  0  0  0  0  0  0
  149.9092  139.1808  158.5418 H   0  0  0  0  0  0  0  0  0  0  0  0
  152.5681  139.2088  157.6677 H   0  0  0  0  0  0  0  0  0  0  0  0
  152.3506  139.3632  155.9467 H   0  0  0  0  0  0  0  0  0  0  0  0
  149.2778  141.9023  154.5644 H   0  0  0  0  0  0  0  0  0  0  0  0
  149.2996  140.2339  155.1542 H   0  0  0  0  0  0  0  0  0  0  0  0
  150.6730  140.8653  154.2304 H   0  0  0  0  0  0  0  0  0  0  0  0
  150.9177  144.8526  158.7696 H   0  0  0  0  0  0  0  0  0  0  0  0
  152.3788  144.3756  160.7413 H   0  0  0  0  0  0  0  0  0  0  0  0
  153.4298  142.1629  161.0357 H   0  0  0  0  0  0  0  0  0  0  0  0
  153.0682  140.3358  159.3819 H   0  0  0  0  0  0  0  0  0  0  0  0
  151.7095  134.4734  156.9127 H   0  0  0  0  0  0  0  0  0  0  0  0
  151.7967  132.1518  156.2243 H   0  0  0  0  0  0  0  0  0  0  0  0
  149.8948  143.5522  156.4087 H   0  0  0  0  0  0  0  0  0  0  0  0
  1  2  1  0  0  0  0
  1 25  1  0  0  0  0
  1 26  1  0  0  0  0
  1 27  1  0  0  0  0
  2  3  2  0  0  0  0
  2  4  1  0  0  0  0
  4 24  1  0  0  0  0
  4  5  2  0  0  0  0
  5  6  1  0  0  0  0
  5 28  1  0  0  0  0
  6  7  2  0  0  0  0
  6 29  1  0  0  0  0
  7  8  1  0  0  0  0
  7 23  1  0  0  0  0
  8  9  1  0  0  0  0
  9 10  1  0  0  0  0
  9 30  1  0  0  0  0
  9 31  1  0  0  0  0
 10 11  1  0  0  0  0
 10 12  1  0  0  0  0
 10 32  1  0  0  0  0
 11 33  1  0  0  0  0
 12 13  1  0  0  0  0
 12 34  1  0  0  0  0
 12 35  1  0  0  0  0
 13 22  1  0  0  0  0
 13 14  1  0  0  0  0
 14 15  1  0  0  0  0
 14 16  2  0  0  0  0
 15 36  1  0  0  0  0
 15 37  1  0  0  0  0
 15 38  1  0  0  0  0
 16 17  1  0  0  0  0
 16 45  1  0  0  0  0
 17 22  2  0  0  0  0
 17 18  1  0  0  0  0
 18 19  2  0  0  0  0
 18 39  1  0  0  0  0
 19 20  1  0  0  0  0
 19 40  1  0  0  0  0
 20 21  2  0  0  0  0
 20 41  1  0  0  0  0
 21 22  1  0  0  0  0
 21 42  1  0  0  0  0
 23 24  2  0  0  0  0
 23 43  1  0  0  0  0
 24 44  1  0  0  0  0
M  CHG  1  16   1
M  END
> <s_m_source_file>
AV-unprocessed.smi

> <i_m_source_file_index>
2145

> <i_lp_mmshare_version>
43012

> <i_f3d_flags>
0

> <s_epik_input>
W0NIM11DKD1PKWMxW2NIXVtjSF1jKFtjSF1bY0hdMSlPW0NIMl1bQ0BIXShbT0hdKVtDSDJdbihjKG4yKVtDSDNdKWMoYzIzKVtjSF1bY0hdW2NIXVtjSF0z

> <s_epik_cmdline>
J2VwaWtfcHl0aG9uJywgJy1waCcsICc3LjAnLCAnLXRuJywgJzgnLCAnLW1hJywgJzIwMCcsICctbWV0YWxfYmluZGluZycsICctaW1hZScsICc8aW5maWxlLm1hZT4nLCAnLW9tYWUnLCAnPG91dGZpbGUubWFlPic=

> <r_lp_tautomer_probability>
0.99995

> <r_epik_Ionization_Penalty>
1.05477

> <r_epik_Ionization_Penalty_Charging>
1.05477

> <r_epik_Ionization_Penalty_Neutral>
2.3993e-06

> <r_epik_State_Penalty>
1.10796

> <r_epik_Charging_Adjusted_Penalty>
2.16273

> <i_epik_Tot_Q>
1

> <i_epik_Tot_abs_Q>
1

> <r_epik_Metal_State_Penalty>
5.10164

> <b_epik_Metal_Only>
0

> <s_lp_Force_Field>
OPLS_2005

> <r_lp_Energy>
25.5273

> <b_lp_Chiralities_Consistent>
1

> <s_lp_Variant>
AV-unprocessed.smi:2145-4

> <Gold.Version>
5.8.1

> <Gold.Id.Protein>
6NUR|6NUR_protein|mol2

> <Gold.PLP.Fitness>
50.6751

> <Gold.PLP.PLP>
-45.7789

> <Gold.PLP.part.hbond>
-1.0000

> <Gold.PLP.part.metal>
0.0000

> <Gold.PLP.part.buried>
-5.9316

> <Gold.PLP.part.nonpolar>
-38.9044

> <Gold.PLP.part.repulsive>
0.1490

> <Gold.PLP.ligand.clash>
0.0000

> <Gold.PLP.ligand.torsion>
0.8209

> <Gold.PLP.Chemscore.Hbond>
2.0000

> <Gold.PLP.Chemscore.CHOScore>
0.0000

> <Gold.PLP.Chemscore.Metal>
0.0000

> <Gold.Chemscore.Hbonds>
donor molecule, donor type, donor heavy atom, donor atom, acceptor molecule, acceptor atom, score
      L1  H    16    45       P1  8028  2.00

> <Gold.PLP.Chemscore.Internal.Correction>
0.5380

> <Gold.Rescore>
     Score         DG    S(hbond)    S(metal)    S(lipo)     H(rot)  DE(clash)    DE(int)     intcor
     16.22     -17.13       1.00        0.00     121.35       2.30       0.14       0.78       ----

> <Gold.Chemscore.Fitness>
16.2209

> <Gold.Chemscore.DG>
-17.1326

> <Gold.Chemscore.ZeroCoef>
-5.4800

> <Gold.Chemscore.Hbond>
0.9995

> <Gold.Chemscore.Metal>
0.0000

> <Gold.Chemscore.Lipo>
121.3509

> <Gold.Chemscore.Internal_Hbond>
0.0000

> <Gold.Chemscore.DEClash>
0.1362

> <Gold.Chemscore.DEInternal>
0.7755

> <Gold.Chemscore.Rot>
2.2984

> <Gold.Chemscore.Internal.Correction>
   9.000000E+99

> <Gold.Chemscore.Hbonds>
donor molecule, donor type, donor heavy atom, donor atom, acceptor molecule, acceptor atom, score
      L1  H    16    45       P1  8028  1.00

> <Gold.Chemscore.Hbond.Weighted>
-3.3384

> <Gold.Chemscore.Metal.Weighted>
-0.0000

> <Gold.Chemscore.Lipo.Weighted>
-14.1981

> <Gold.Chemscore.Internal_Hbond.Weighted>
0.0000

> <Gold.Chemscore.DEClash.Weighted>
0.1362

> <Gold.Chemscore.DEInternal.Weighted>
0.7755

> <Gold.Chemscore.Rot.Weighted>
5.8839

> <Gold.Chemscore.Internal.Correction.Weighted>
   9.000000E+99

> <Gold.Protein.RotatedTorsions>
[ 6907 6896 6895 6894 ] final -176.41 input  -60.11 | X-H torsion
[ 7974 7965 7964 7962 ] final  102.52 input  175.53 | X-H torsion
[ 8008 7997 7996 7995 ] final -132.66 input   59.86 | X-H torsion
[ 10167 10162 10161 10158 ] final  -41.15 input  -65.29 | X-H torsion
[ 10718 10713 10712 10709 ] final   18.62 input   66.30 | X-H torsion
[ 10763 10752 10751 10750 ] final  103.18 input  -60.55 | X-H torsion
[ 11005 11000 10999 10996 ] final  -72.25 input  -57.11 | X-H torsion

> <Gold.Protein.ActiveResidues>
 VAL166  LYS551  ARG553  GLY616  TRP617  ASP618  TYR619  PRO620  LYS621  CYS622 
 ASP623  PHE694  ASN695  SER759  ASP760  ASP761  ALA762  ILE779  LEU786  VAL792 
 PHE793  MET794  SER795  GLU796  ALA797  LYS798  CYS799  TRP800  GLU811  SER814 

> <Gold.Protein.RotatedAtoms>
  151.6043  133.3353  159.3053 H   0  0  0  0  0  0  0  0  0  0  0  0  # atno 6907 bound_to 6896
  150.8191  134.7392  159.6767 H   0  0  0  0  0  0  0  0  0  0  0  0  # atno 6908 bound_to 6896
  152.4285  134.5828  160.0004 H   0  0  0  0  0  0  0  0  0  0  0  0  # atno 6909 bound_to 6896
  145.3580  139.2424  143.3522 H   0  0  0  0  0  0  0  0  0  0  0  0  # atno 7974 bound_to 7965
  155.3327  140.0468  157.3043 H   0  0  0  0  0  0  0  0  0  0  0  0  # atno 8008 bound_to 7997
  154.5320  140.2260  155.8754 H   0  0  0  0  0  0  0  0  0  0  0  0  # atno 8009 bound_to 7997
  156.1797  140.3076  155.9132 H   0  0  0  0  0  0  0  0  0  0  0  0  # atno 8010 bound_to 7997
  140.7012  143.3111  151.3025 H   0  0  0  0  0  0  0  0  0  0  0  0  # atno 10167 bound_to 10162
  157.0989  130.6459  149.5867 H   0  0  0  0  0  0  0  0  0  0  0  0  # atno 10718 bound_to 10713
  153.3492  135.3985  155.1633 H   0  0  0  0  0  0  0  0  0  0  0  0  # atno 10763 bound_to 10752
  154.8659  135.3652  154.5244 H   0  0  0  0  0  0  0  0  0  0  0  0  # atno 10764 bound_to 10752
  153.5694  135.7079  153.5571 H   0  0  0  0  0  0  0  0  0  0  0  0  # atno 10765 bound_to 10752
  141.1605  133.6841  156.7031 H   0  0  0  0  0  0  0  0  0  0  0  0  # atno 11005 bound_to 11000
  146.2939  140.4209  142.8729 LP  0  0  0  0  0  0  0  0  0  0  0  0  # atno 17320 bound_to 7965
  144.8668  140.7216  143.6072 LP  0  0  0  0  0  0  0  0  0  0  0  0  # atno 17321 bound_to 7965
  139.6534  144.0320  152.2643 LP  0  0  0  0  0  0  0  0  0  0  0  0  # atno 17342 bound_to 10162
  139.9864  144.6393  150.7854 LP  0  0  0  0  0  0  0  0  0  0  0  0  # atno 17343 bound_to 10162
  155.9879  130.4920  150.7144 LP  0  0  0  0  0  0  0  0  0  0  0  0  # atno 17370 bound_to 10713
  157.4658  131.0888  151.0696 LP  0  0  0  0  0  0  0  0  0  0  0  0  # atno 17371 bound_to 10713
  140.2944  134.8214  157.4044 LP  0  0  0  0  0  0  0  0  0  0  0  0  # atno 17394 bound_to 11000
  140.1318  134.5085  155.8100 LP  0  0  0  0  0  0  0  0  0  0  0  0  # atno 17395 bound_to 11000

$$$$
