AV-unprocessed.smi:3314|AV-procd|sdf|12744|dock4
  -GOLD-   2272019 83D 1   1.00000     0.00000
 Structure written by MMmdl.
 37 38  0  0  0  0  0  0  0  0  3 V2000
  151.6951  145.5902  160.0926 C   0  0  0  0  0  0  0  0  0  0  0  0
  151.9757  144.1403  159.7596 C   0  0  0  0  0  0  0  0  0  0  0  0
  152.7951  143.3526  160.5902 C   0  0  0  0  0  0  0  0  0  0  0  0
  153.0121  142.0096  160.2257 C   0  0  0  0  0  0  0  0  0  0  0  0
  153.8849  141.1107  161.0758 C   0  0  0  0  0  0  0  0  0  0  0  0
  152.4772  141.4489  159.1194 N   0  0  0  0  0  0  0  0  0  0  0  0
  151.6929  142.1983  158.3085 C   0  0  0  0  0  0  0  0  0  0  0  0
  151.1613  141.6260  157.2189 N   0  5  0  0  0  0  0  0  0  0  0  0
  151.2330  140.2825  157.0566 C   0  0  0  0  0  0  0  0  0  0  0  0
  151.0360  139.3975  157.8919 O   0  0  0  0  0  0  0  0  0  0  0  0
  151.6110  139.9060  155.6060 C   0  0  1  0  0  0  0  0  0  0  0  0
  151.7532  138.3852  155.3585 C   0  0  0  0  0  0  0  0  0  0  0  0
  150.4344  137.7111  155.4171 N   0  3  2  0  0  0  0  0  0  0  0  0
  150.5335  136.2452  155.2583 C   0  0  0  0  0  0  0  0  0  0  0  0
  149.4843  138.3276  154.4640 C   0  0  0  0  0  0  0  0  0  0  0  0
  149.3704  139.8383  154.7247 C   0  0  0  0  0  0  0  0  0  0  0  0
  150.6661  140.4336  154.6661 O   0  0  0  0  0  0  0  0  0  0  0  0
  151.4165  143.5526  158.6073 C   0  0  0  0  0  0  0  0  0  0  0  0
  152.3083  145.9311  160.9273 H   0  0  0  0  0  0  0  0  0  0  0  0
  150.6468  145.7180  160.3626 H   0  0  0  0  0  0  0  0  0  0  0  0
  151.9089  146.2243  159.2319 H   0  0  0  0  0  0  0  0  0  0  0  0
  153.2440  143.7644  161.4821 H   0  0  0  0  0  0  0  0  0  0  0  0
  153.8260  141.3966  162.1264 H   0  0  0  0  0  0  0  0  0  0  0  0
  154.9244  141.1867  160.7569 H   0  0  0  0  0  0  0  0  0  0  0  0
  153.5745  140.0685  160.9914 H   0  0  0  0  0  0  0  0  0  0  0  0
  152.5737  140.3747  155.3967 H   0  0  0  0  0  0  0  0  0  0  0  0
  152.2026  138.2142  154.3790 H   0  0  0  0  0  0  0  0  0  0  0  0
  152.4300  137.9418  156.0907 H   0  0  0  0  0  0  0  0  0  0  0  0
  150.9326  135.9837  154.2773 H   0  0  0  0  0  0  0  0  0  0  0  0
  149.5526  135.7812  155.3643 H   0  0  0  0  0  0  0  0  0  0  0  0
  151.1872  135.8200  156.0205 H   0  0  0  0  0  0  0  0  0  0  0  0
  149.8231  138.1490  153.4422 H   0  0  0  0  0  0  0  0  0  0  0  0
  148.5041  137.8601  154.5639 H   0  0  0  0  0  0  0  0  0  0  0  0
  148.7406  140.3007  153.9647 H   0  0  0  0  0  0  0  0  0  0  0  0
  148.8883  140.0327  155.6837 H   0  0  0  0  0  0  0  0  0  0  0  0
  150.7828  144.1369  157.9553 H   0  0  0  0  0  0  0  0  0  0  0  0
  150.0690  137.8811  156.3441 H   0  0  0  0  0  0  0  0  0  0  0  0
  1  2  1  0  0  0  0
  1 19  1  0  0  0  0
  1 20  1  0  0  0  0
  1 21  1  0  0  0  0
  2 18  2  0  0  0  0
  2  3  1  0  0  0  0
  3  4  2  0  0  0  0
  3 22  1  0  0  0  0
  4  5  1  0  0  0  0
  4  6  1  0  0  0  0
  5 23  1  0  0  0  0
  5 24  1  0  0  0  0
  5 25  1  0  0  0  0
  6  7  2  0  0  0  0
  7  8  1  0  0  0  0
  7 18  1  0  0  0  0
  8  9  1  0  0  0  0
  9 10  2  0  0  0  0
  9 11  1  0  0  0  0
 11 17  1  0  0  0  0
 11 12  1  0  0  0  0
 11 26  1  0  0  0  0
 12 13  1  0  0  0  0
 12 27  1  0  0  0  0
 12 28  1  0  0  0  0
 13 14  1  0  0  0  0
 13 15  1  0  0  0  0
 13 37  1  0  0  0  0
 14 29  1  0  0  0  0
 14 30  1  0  0  0  0
 14 31  1  0  0  0  0
 15 16  1  0  0  0  0
 15 32  1  0  0  0  0
 15 33  1  0  0  0  0
 16 17  1  0  0  0  0
 16 34  1  0  0  0  0
 16 35  1  0  0  0  0
 18 36  1  0  0  0  0
M  CHG  1   8  -1
M  CHG  1  13   1
M  END
> <s_m_source_file>
AV-unprocessed.smi

> <i_m_source_file_index>
3314

> <i_lp_mmshare_version>
43012

> <i_f3d_flags>
0

> <s_epik_input>
W0NIM11jMVtjSF1jKFtDSDNdKW5jKFtjSF0xKVtOSF1DKD1PKVtDQEBIXTJbQ0gyXU4oW0NIM10pW0NIMl1bQ0gyXU8y

> <s_epik_cmdline>
J2VwaWtfcHl0aG9uJywgJy1waCcsICc3LjAnLCAnLXRuJywgJzgnLCAnLW1hJywgJzIwMCcsICctbWV0YWxfYmluZGluZycsICctaW1hZScsICc8aW5maWxlLm1hZT4nLCAnLW9tYWUnLCAnPG91dGZpbGUubWFlPic=

> <r_epik_Ionization_Penalty>
13.8964

> <r_epik_Ionization_Penalty_Charging>
7.88995

> <r_epik_Ionization_Penalty_Neutral>
6.00641

> <r_epik_State_Penalty>
8.39989

> <r_epik_Charging_Adjusted_Penalty>
16.2898

> <i_epik_Tot_Q>
0

> <i_epik_Tot_abs_Q>
2

> <r_epik_Metal_State_Penalty>
4.31145

> <b_epik_Metal_Only>
1

> <s_lp_Force_Field>
OPLS_2005

> <r_lp_Energy>
7.08315

> <b_lp_Chiralities_Consistent>
1

> <s_lp_Variant>
AV-unprocessed.smi:3314-14

> <Gold.Version>
5.8.1

> <Gold.Id.Protein>
6NUR|6NUR_protein|mol2

> <Gold.PLP.Fitness>
41.3866

> <Gold.PLP.PLP>
-39.1120

> <Gold.PLP.part.hbond>
-0.8265

> <Gold.PLP.part.metal>
0.0000

> <Gold.PLP.part.buried>
-5.0493

> <Gold.PLP.part.nonpolar>
-33.7661

> <Gold.PLP.part.repulsive>
0.1754

> <Gold.PLP.ligand.clash>
0.0000

> <Gold.PLP.ligand.torsion>
0.3881

> <Gold.PLP.Chemscore.Hbond>
1.0000

> <Gold.PLP.Chemscore.CHOScore>
0.0000

> <Gold.PLP.Chemscore.Metal>
0.0000

> <Gold.Chemscore.Hbonds>
donor molecule, donor type, donor heavy atom, donor atom, acceptor molecule, acceptor atom, score
      P1  H  7989  7998       L1    17  1.00

> <Gold.PLP.Chemscore.Internal.Correction>
0.0509

> <Gold.Rescore>
     Score         DG    S(hbond)    S(metal)    S(lipo)     H(rot)  DE(clash)    DE(int)     intcor
     15.98     -17.81       0.94        0.00     100.42       1.00       0.02       1.81       ----

> <Gold.Chemscore.Fitness>
15.9816

> <Gold.Chemscore.DG>
-17.8137

> <Gold.Chemscore.ZeroCoef>
-5.4800

> <Gold.Chemscore.Hbond>
0.9413

> <Gold.Chemscore.Metal>
0.0000

> <Gold.Chemscore.Lipo>
100.4246

> <Gold.Chemscore.Internal_Hbond>
0.0000

> <Gold.Chemscore.DEClash>
0.0230

> <Gold.Chemscore.DEInternal>
1.8091

> <Gold.Chemscore.Rot>
1.0000

> <Gold.Chemscore.Internal.Correction>
   9.000000E+99

> <Gold.Chemscore.Hbonds>
donor molecule, donor type, donor heavy atom, donor atom, acceptor molecule, acceptor atom, score
      P1  H  7989  7998       L1    17  0.29

> <Gold.Chemscore.Hbond.Weighted>
-3.1440

> <Gold.Chemscore.Metal.Weighted>
-0.0000

> <Gold.Chemscore.Lipo.Weighted>
-11.7497

> <Gold.Chemscore.Internal_Hbond.Weighted>
0.0000

> <Gold.Chemscore.DEClash.Weighted>
0.0230

> <Gold.Chemscore.DEInternal.Weighted>
1.8091

> <Gold.Chemscore.Rot.Weighted>
2.5600

> <Gold.Chemscore.Internal.Correction.Weighted>
   9.000000E+99

> <Gold.Protein.RotatedTorsions>
[ 6907 6896 6895 6894 ] final  134.75 input  -60.11 | X-H torsion
[ 7974 7965 7964 7962 ] final -164.29 input  175.53 | X-H torsion
[ 8008 7997 7996 7995 ] final  -17.97 input   59.86 | X-H torsion
[ 10167 10162 10161 10158 ] final  -61.73 input  -65.29 | X-H torsion
[ 10718 10713 10712 10709 ] final   80.34 input   66.30 | X-H torsion
[ 10763 10752 10751 10750 ] final   59.73 input  -60.55 | X-H torsion
[ 11005 11000 10999 10996 ] final  122.65 input  -57.11 | X-H torsion

> <Gold.Protein.ActiveResidues>
 VAL166  LYS551  ARG553  GLY616  TRP617  ASP618  TYR619  PRO620  LYS621  CYS622 
 ASP623  PHE694  ASN695  SER759  ASP760  ASP761  ALA762  ILE779  LEU786  VAL792 
 PHE793  MET794  SER795  GLU796  ALA797  LYS798  CYS799  TRP800  GLU811  SER814 

> <Gold.Protein.RotatedAtoms>
  152.3079  133.5722  159.5660 H   0  0  0  0  0  0  0  0  0  0  0  0  # atno 6907 bound_to 6896
  150.7308  134.0196  159.3705 H   0  0  0  0  0  0  0  0  0  0  0  0  # atno 6908 bound_to 6896
  151.8091  135.0686  160.0461 H   0  0  0  0  0  0  0  0  0  0  0  0  # atno 6909 bound_to 6896
  144.7301  140.2983  143.6209 H   0  0  0  0  0  0  0  0  0  0  0  0  # atno 7974 bound_to 7965
  154.4939  140.2128  155.9488 H   0  0  0  0  0  0  0  0  0  0  0  0  # atno 8008 bound_to 7997
  156.1344  140.3191  155.8366 H   0  0  0  0  0  0  0  0  0  0  0  0  # atno 8009 bound_to 7997
  155.4237  140.0498  157.3014 H   0  0  0  0  0  0  0  0  0  0  0  0  # atno 8010 bound_to 7997
  140.5986  143.2356  151.5979 H   0  0  0  0  0  0  0  0  0  0  0  0  # atno 10167 bound_to 10162
  157.6803  130.9955  150.2065 H   0  0  0  0  0  0  0  0  0  0  0  0  # atno 10718 bound_to 10713
  152.9902  135.5561  154.5760 H   0  0  0  0  0  0  0  0  0  0  0  0  # atno 10763 bound_to 10752
  154.5151  135.2804  155.1312 H   0  0  0  0  0  0  0  0  0  0  0  0  # atno 10764 bound_to 10752
  154.2688  135.6367  153.5355 H   0  0  0  0  0  0  0  0  0  0  0  0  # atno 10765 bound_to 10752
  139.9277  134.9641  156.8140 H   0  0  0  0  0  0  0  0  0  0  0  0  # atno 11005 bound_to 11000
  145.7786  139.1883  143.2171 LP  0  0  0  0  0  0  0  0  0  0  0  0  # atno 17320 bound_to 7965
  146.0852  140.7718  142.9622 LP  0  0  0  0  0  0  0  0  0  0  0  0  # atno 17321 bound_to 7965
  139.5275  144.3014  152.1070 LP  0  0  0  0  0  0  0  0  0  0  0  0  # atno 17342 bound_to 10162
  140.2190  144.4485  150.6350 LP  0  0  0  0  0  0  0  0  0  0  0  0  # atno 17343 bound_to 10162
  156.2745  130.3726  149.7997 LP  0  0  0  0  0  0  0  0  0  0  0  0  # atno 17370 bound_to 10713
  156.5704  130.8422  151.3355 LP  0  0  0  0  0  0  0  0  0  0  0  0  # atno 17371 bound_to 10713
  140.6288  133.9925  155.7652 LP  0  0  0  0  0  0  0  0  0  0  0  0  # atno 17394 bound_to 11000
  141.0846  134.0010  157.3333 LP  0  0  0  0  0  0  0  0  0  0  0  0  # atno 17395 bound_to 11000

$$$$
