AV-unprocessed.smi:34|AV-procd|sdf|240|dock9
  -GOLD-   2262015593D 1   1.00000     0.00000
 Structure written by MMmdl.
 54 58  0  0  0  0  0  0  0  0  2 V2000
  143.3614  142.7663  159.3003 O   0  0  0  0  0  0  0  0  0  0  0  0
  143.5907  143.8388  158.7372 C   0  0  0  0  0  0  0  0  0  0  0  0
  143.1351  144.2620  157.5310 N   0  5  0  0  0  0  0  0  0  0  0  0
  143.9077  144.1321  156.4417 C   0  0  0  0  0  0  0  0  0  0  0  0
  143.7308  144.9502  155.3729 N   0  0  0  0  0  0  0  0  0  0  0  0
  144.4993  144.8176  154.2856 C   0  0  0  0  0  0  0  0  0  0  0  0
  145.4844  143.9446  154.0546 N   0  0  0  0  0  0  0  0  0  0  0  0
  145.6652  143.1084  155.1180 C   0  0  0  0  0  0  0  0  0  0  0  0
  144.9194  143.1391  156.3324 C   0  0  0  0  0  0  0  0  0  0  0  0
  145.3533  142.1487  157.2014 N   0  0  0  0  0  0  0  0  0  0  0  0
  146.3227  141.5747  156.4922 C   0  0  0  0  0  0  0  0  0  0  0  0
  146.5762  142.0753  155.2669 N   0  0  0  0  0  0  0  0  0  0  0  0
  147.6055  141.6091  154.2911 C   0  0  1  0  0  0  0  0  0  0  0  0
  148.8256  141.5316  154.9584 O   0  0  0  0  0  0  0  0  0  0  0  0
  149.5679  140.4561  154.4061 C   0  0  1  0  0  0  0  0  0  0  0  0
  150.6907  140.0185  155.3546 C   0  0  0  0  0  0  0  0  0  0  0  0
  151.1764  141.1500  156.0584 O   0  0  0  0  0  0  0  0  0  0  0  0
  152.1722  141.0092  156.9551 C   0  0  0  0  0  0  0  0  0  0  0  0
  152.9077  140.0212  157.0085 O   0  0  0  0  0  0  0  0  0  0  0  0
  152.2926  142.1754  157.8775 C   0  0  0  0  0  0  0  0  0  0  0  0
  151.5912  143.3678  157.5817 C   0  0  0  0  0  0  0  0  0  0  0  0
  151.6848  144.4855  158.4336 C   0  0  0  0  0  0  0  0  0  0  0  0
  152.4811  144.4248  159.5920 C   0  0  0  0  0  0  0  0  0  0  0  0
  153.1840  143.2446  159.8974 C   0  0  0  0  0  0  0  0  0  0  0  0
  153.0916  142.1256  159.0465 C   0  0  0  0  0  0  0  0  0  0  0  0
  148.4992  139.3898  154.1580 C   0  0  1  0  0  0  0  0  0  0  0  0
  148.2396  138.7066  155.2741 F   0  0  0  0  0  0  0  0  0  0  0  0
  147.2718  140.2022  153.7618 C   0  0  2  0  0  0  0  0  0  0  0  0
  147.1248  140.1898  152.3563 O   0  0  0  0  0  0  0  0  0  0  0  0
  144.5357  144.8121  159.3887 C   0  0  0  0  0  0  0  0  0  0  0  0
  144.4749  146.1826  159.0472 C   0  0  0  0  0  0  0  0  0  0  0  0
  145.3661  147.1055  159.6283 C   0  0  0  0  0  0  0  0  0  0  0  0
  146.3354  146.6659  160.5493 C   0  0  0  0  0  0  0  0  0  0  0  0
  146.4152  145.3016  160.8860 C   0  0  0  0  0  0  0  0  0  0  0  0
  145.5233  144.3782  160.3065 C   0  0  0  0  0  0  0  0  0  0  0  0
  144.2938  145.5110  153.4835 H   0  0  0  0  0  0  0  0  0  0  0  0
  146.8843  140.7421  156.8895 H   0  0  0  0  0  0  0  0  0  0  0  0
  147.6381  142.3764  153.5157 H   0  0  0  0  0  0  0  0  0  0  0  0
  149.9836  140.7712  153.4469 H   0  0  0  0  0  0  0  0  0  0  0  0
  150.3301  139.2573  156.0483 H   0  0  0  0  0  0  0  0  0  0  0  0
  151.5106  139.5827  154.7819 H   0  0  0  0  0  0  0  0  0  0  0  0
  150.9736  143.4384  156.6980 H   0  0  0  0  0  0  0  0  0  0  0  0
  151.1447  145.3905  158.1974 H   0  0  0  0  0  0  0  0  0  0  0  0
  152.5527  145.2820  160.2451 H   0  0  0  0  0  0  0  0  0  0  0  0
  153.7957  143.1967  160.7864 H   0  0  0  0  0  0  0  0  0  0  0  0
  153.6440  141.2355  159.3104 H   0  0  0  0  0  0  0  0  0  0  0  0
  148.8011  138.6566  153.4092 H   0  0  0  0  0  0  0  0  0  0  0  0
  146.3624  139.8091  154.2196 H   0  0  0  0  0  0  0  0  0  0  0  0
  147.9282  140.5023  151.9690 H   0  0  0  0  0  0  0  0  0  0  0  0
  143.7377  146.5355  158.3406 H   0  0  0  0  0  0  0  0  0  0  0  0
  145.3059  148.1513  159.3658 H   0  0  0  0  0  0  0  0  0  0  0  0
  147.0194  147.3734  160.9939 H   0  0  0  0  0  0  0  0  0  0  0  0
  147.1623  144.9614  161.5877 H   0  0  0  0  0  0  0  0  0  0  0  0
  145.6072  143.3340  160.5710 H   0  0  0  0  0  0  0  0  0  0  0  0
  1  2  2  0  0  0  0
  2  3  1  0  0  0  0
  2 30  1  0  0  0  0
  3  4  1  0  0  0  0
  4  9  1  0  0  0  0
  4  5  2  0  0  0  0
  5  6  1  0  0  0  0
  6  7  2  0  0  0  0
  6 36  1  0  0  0  0
  7  8  1  0  0  0  0
  8 12  1  0  0  0  0
  8  9  2  0  0  0  0
  9 10  1  0  0  0  0
 10 11  2  0  0  0  0
 11 12  1  0  0  0  0
 11 37  1  0  0  0  0
 12 13  1  0  0  0  0
 13 28  1  0  0  0  0
 13 14  1  0  0  0  0
 13 38  1  0  0  0  0
 14 15  1  0  0  0  0
 15 16  1  0  0  0  0
 15 26  1  0  0  0  0
 15 39  1  0  0  0  0
 16 17  1  0  0  0  0
 16 40  1  0  0  0  0
 16 41  1  0  0  0  0
 17 18  1  0  0  0  0
 18 19  2  0  0  0  0
 18 20  1  0  0  0  0
 20 25  1  0  0  0  0
 20 21  2  0  0  0  0
 21 22  1  0  0  0  0
 21 42  1  0  0  0  0
 22 23  2  0  0  0  0
 22 43  1  0  0  0  0
 23 24  1  0  0  0  0
 23 44  1  0  0  0  0
 24 25  2  0  0  0  0
 24 45  1  0  0  0  0
 25 46  1  0  0  0  0
 26 27  1  0  0  0  0
 26 28  1  0  0  0  0
 26 47  1  0  0  0  0
 28 29  1  0  0  0  0
 28 48  1  0  0  0  0
 29 49  1  0  0  0  0
 30 35  1  0  0  0  0
 30 31  2  0  0  0  0
 31 32  1  0  0  0  0
 31 50  1  0  0  0  0
 32 33  2  0  0  0  0
 32 51  1  0  0  0  0
 33 34  1  0  0  0  0
 33 52  1  0  0  0  0
 34 35  2  0  0  0  0
 34 53  1  0  0  0  0
 35 54  1  0  0  0  0
M  CHG  1   3  -1
M  END
> <s_m_source_file>
AV-unprocessed.smi

> <i_m_source_file_index>
34

> <i_lp_mmshare_version>
43012

> <i_f3d_flags>
0

> <s_epik_input>
W2NIXTFbY0hdW2NIXVtjSF1bY0hdYzFDKD1PKVtOSF1jKG5bY0hdbjIpYyhjMjMpbltjSF1uM1tDQEBIXTRPW0NASF0oW0NAQEhdKEYpW0NASF00W09IXSlbQ0gyXU9DKD1PKWM1W2NIXVtjSF1bY0hdW2NIXVtjSF01

> <s_epik_cmdline>
J2VwaWtfcHl0aG9uJywgJy1waCcsICc3LjAnLCAnLXRuJywgJzgnLCAnLW1hJywgJzIwMCcsICctbWV0YWxfYmluZGluZycsICctaW1hZScsICc8aW5maWxlLm1hZT4nLCAnLW9tYWUnLCAnPG91dGZpbGUubWFlPic=

> <r_lp_tautomer_probability>
1

> <r_epik_Ionization_Penalty>
4.33227

> <r_epik_Ionization_Penalty_Charging>
3.41027

> <r_epik_Ionization_Penalty_Neutral>
0.922001

> <r_epik_State_Penalty>
3.41358

> <r_epik_Charging_Adjusted_Penalty>
6.82385

> <i_epik_Tot_Q>
-1

> <i_epik_Tot_abs_Q>
1

> <r_epik_Metal_State_Penalty>
0.496292

> <b_epik_Metal_Only>
1

> <s_epik_Chemistry_Notes>
This compound has an ester and may undergo hydrolysis at high or low pH. This compound contains an acetal/aminal-like group ( X-CH(R)-Y where X, Y are N, S, or O) that may be acid/base labile, releasing an aldehyde.

> <s_lp_Force_Field>
OPLS_2005

> <r_lp_Energy>
44.0615

> <b_lp_Chiralities_Consistent>
1

> <s_lp_Variant>
AV-unprocessed.smi:34-26

> <Gold.Version>
5.8.1

> <Gold.Id.Protein>
6NUR|6NUR_protein|mol2

> <Gold.PLP.Fitness>
65.3064

> <Gold.PLP.PLP>
-62.7791

> <Gold.PLP.part.hbond>
-2.6506

> <Gold.PLP.part.metal>
0.0000

> <Gold.PLP.part.buried>
-9.2259

> <Gold.PLP.part.nonpolar>
-51.4283

> <Gold.PLP.part.repulsive>
0.5487

> <Gold.PLP.ligand.clash>
0.0000

> <Gold.PLP.ligand.torsion>
1.9038

> <Gold.PLP.Chemscore.Hbond>
2.0000

> <Gold.PLP.Chemscore.CHOScore>
0.0000

> <Gold.PLP.Chemscore.Metal>
0.0000

> <Gold.Chemscore.Hbonds>
donor molecule, donor type, donor heavy atom, donor atom, acceptor molecule, acceptor atom, score
      L1  H    29    49       P1  7957  0.94
      P1  H  7997  8009       L1    19  0.98

> <Gold.PLP.Chemscore.Internal.Correction>
0.3349

> <Gold.Rescore>
     Score         DG    S(hbond)    S(metal)    S(lipo)     H(rot)  DE(clash)    DE(int)     intcor
     14.53     -18.50       1.98        0.00     113.77       2.69       0.10       3.87       ----

> <Gold.Chemscore.Fitness>
14.5252

> <Gold.Chemscore.DG>
-18.5026

> <Gold.Chemscore.ZeroCoef>
-5.4800

> <Gold.Chemscore.Hbond>
1.9786

> <Gold.Chemscore.Metal>
0.0000

> <Gold.Chemscore.Lipo>
113.7736

> <Gold.Chemscore.Internal_Hbond>
0.0000

> <Gold.Chemscore.DEClash>
0.1042

> <Gold.Chemscore.DEInternal>
3.8731

> <Gold.Chemscore.Rot>
2.6944

> <Gold.Chemscore.Internal.Correction>
   9.000000E+99

> <Gold.Chemscore.Hbonds>
donor molecule, donor type, donor heavy atom, donor atom, acceptor molecule, acceptor atom, score
      L1  H    29    49       P1  7957  0.91
      P1  H  7997  8009       L1    19  0.90

> <Gold.Chemscore.Hbond.Weighted>
-6.6086

> <Gold.Chemscore.Metal.Weighted>
-0.0000

> <Gold.Chemscore.Lipo.Weighted>
-13.3115

> <Gold.Chemscore.Internal_Hbond.Weighted>
0.0000

> <Gold.Chemscore.DEClash.Weighted>
0.1042

> <Gold.Chemscore.DEInternal.Weighted>
3.8731

> <Gold.Chemscore.Rot.Weighted>
6.8975

> <Gold.Chemscore.Internal.Correction.Weighted>
   9.000000E+99

> <Gold.Protein.RotatedTorsions>
[ 6907 6896 6895 6894 ] final  105.25 input  -60.11 | X-H torsion
[ 7974 7965 7964 7962 ] final -138.74 input  175.53 | X-H torsion
[ 8008 7997 7996 7995 ] final  173.76 input   59.86 | X-H torsion
[ 10167 10162 10161 10158 ] final  -96.28 input  -65.29 | X-H torsion
[ 10718 10713 10712 10709 ] final  -96.05 input   66.30 | X-H torsion
[ 10763 10752 10751 10750 ] final  103.52 input  -60.55 | X-H torsion
[ 11005 11000 10999 10996 ] final  -80.46 input  -57.11 | X-H torsion

> <Gold.Protein.ActiveResidues>
 VAL166  LYS551  ARG553  GLY616  TRP617  ASP618  TYR619  PRO620  LYS621  CYS622 
 ASP623  PHE694  ASN695  SER759  ASP760  ASP761  ALA762  ILE779  LEU786  VAL792 
 PHE793  MET794  SER795  GLU796  ALA797  LYS798  CYS799  TRP800  GLU811  SER814 

> <Gold.Protein.RotatedAtoms>
  152.5237  133.9556  159.7692 H   0  0  0  0  0  0  0  0  0  0  0  0  # atno 6907 bound_to 6896
  150.9857  133.6192  159.2723 H   0  0  0  0  0  0  0  0  0  0  0  0  # atno 6908 bound_to 6896
  151.3354  135.0857  159.9406 H   0  0  0  0  0  0  0  0  0  0  0  0  # atno 6909 bound_to 6896
  144.8733  140.6400  143.5253 H   0  0  0  0  0  0  0  0  0  0  0  0  # atno 7974 bound_to 7965
  156.1043  140.1452  156.9426 H   0  0  0  0  0  0  0  0  0  0  0  0  # atno 8008 bound_to 7997
  154.4723  140.0906  156.7220 H   0  0  0  0  0  0  0  0  0  0  0  0  # atno 8009 bound_to 7997
  155.4707  140.3441  155.4327 H   0  0  0  0  0  0  0  0  0  0  0  0  # atno 8010 bound_to 7997
  140.2954  143.3195  152.0303 H   0  0  0  0  0  0  0  0  0  0  0  0  # atno 10167 bound_to 10162
  156.0054  130.5135  150.6168 H   0  0  0  0  0  0  0  0  0  0  0  0  # atno 10718 bound_to 10713
  153.3537  135.3974  155.1666 H   0  0  0  0  0  0  0  0  0  0  0  0  # atno 10763 bound_to 10752
  154.8667  135.3663  154.5189 H   0  0  0  0  0  0  0  0  0  0  0  0  # atno 10764 bound_to 10752
  153.5642  135.7080  153.5593 H   0  0  0  0  0  0  0  0  0  0  0  0  # atno 10765 bound_to 10752
  141.1668  133.7151  156.8276 H   0  0  0  0  0  0  0  0  0  0  0  0  # atno 11005 bound_to 11000
  145.4089  139.1583  143.4136 LP  0  0  0  0  0  0  0  0  0  0  0  0  # atno 17320 bound_to 7965
  146.2945  140.4192  142.8727 LP  0  0  0  0  0  0  0  0  0  0  0  0  # atno 17321 bound_to 7965
  139.4928  144.6495  151.6707 LP  0  0  0  0  0  0  0  0  0  0  0  0  # atno 17342 bound_to 10162
  140.5697  144.0130  150.6210 LP  0  0  0  0  0  0  0  0  0  0  0  0  # atno 17343 bound_to 10162
  157.3990  131.0807  151.1325 LP  0  0  0  0  0  0  0  0  0  0  0  0  # atno 17370 bound_to 10713
  157.1993  130.6387  149.5732 LP  0  0  0  0  0  0  0  0  0  0  0  0  # atno 17371 bound_to 10713
  140.2074  134.8852  157.3237 LP  0  0  0  0  0  0  0  0  0  0  0  0  # atno 17394 bound_to 11000
  140.2123  134.4124  155.7607 LP  0  0  0  0  0  0  0  0  0  0  0  0  # atno 17395 bound_to 11000

$$$$
