AV-unprocessed.smi:1389|AV-procd|sdf|5651|dock3
  -GOLD-   22720 5273D 1   1.00000     0.00000
 Structure written by MMmdl.
 52 54  0  0  0  0  0  0  0  0  2 V2000
  151.6606  138.2414  154.5078 C   0  0  0  0  0  0  0  0  0  0  0  0
  150.2667  138.3340  155.1797 C   0  0  1  0  0  0  0  0  0  0  0  0
  149.8887  136.9339  155.7454 C   0  0  0  0  0  0  0  0  0  0  0  0
  149.4770  135.9837  154.7155 N   0  0  0  0  0  0  0  0  0  0  0  0
  149.3853  134.6577  154.8869 C   0  0  0  0  0  0  0  0  0  0  0  0
  149.6517  134.0874  155.9447 O   0  0  0  0  0  0  0  0  0  0  0  0
  148.9467  134.0518  153.7712 N   0  0  0  0  0  0  0  0  0  0  0  0
  148.6939  132.6655  153.5648 C   0  0  0  0  0  0  0  0  0  0  0  0
  149.5207  131.6578  154.1251 C   0  0  0  0  0  0  0  0  0  0  0  0
  149.2297  130.3007  153.8875 C   0  0  0  0  0  0  0  0  0  0  0  0
  148.1229  129.9706  153.0857 C   0  0  0  0  0  0  0  0  0  0  0  0
  147.3669  130.9526  152.5527 N   0  3  0  0  0  0  0  0  0  0  0  0
  147.5974  132.2747  152.7478 C   0  0  0  0  0  0  0  0  0  0  0  0
  146.7530  133.2144  152.1183 N   0  0  0  0  0  0  0  0  0  0  0  0
  146.7575  133.1378  150.6591 C   0  0  0  0  0  0  0  0  0  0  0  0
  145.3109  133.3492  150.2041 C   0  0  0  0  0  0  0  0  0  0  0  0
  144.4953  132.9132  151.4148 C   0  0  0  0  0  0  0  0  0  0  0  0
  145.3739  133.3669  152.5779 C   0  0  0  0  0  0  0  0  0  0  0  0
  150.1889  139.4142  156.1904 N   0  0  0  0  0  0  0  0  0  0  0  0
  150.5220  140.7333  155.6396 C   0  0  0  0  0  0  0  0  0  0  0  0
  150.4731  141.8520  156.6947 C   0  0  0  0  0  0  0  0  0  0  0  0
  151.3461  141.5371  157.7707 O   0  0  0  0  0  0  0  0  0  0  0  0
  151.0105  140.3007  158.3847 C   0  0  0  0  0  0  0  0  0  0  0  0
  151.0677  139.1724  157.3407 C   0  0  0  0  0  0  0  0  0  0  0  0
  151.7309  137.4127  153.8045 H   0  0  0  0  0  0  0  0  0  0  0  0
  152.4475  138.1075  155.2509 H   0  0  0  0  0  0  0  0  0  0  0  0
  151.8971  139.1286  153.9224 H   0  0  0  0  0  0  0  0  0  0  0  0
  149.5497  138.5664  154.3905 H   0  0  0  0  0  0  0  0  0  0  0  0
  150.7391  136.5082  156.2789 H   0  0  0  0  0  0  0  0  0  0  0  0
  149.0722  136.9878  156.4642 H   0  0  0  0  0  0  0  0  0  0  0  0
  149.2346  136.3695  153.8145 H   0  0  0  0  0  0  0  0  0  0  0  0
  148.6740  134.6614  153.0143 H   0  0  0  0  0  0  0  0  0  0  0  0
  150.3830  131.9036  154.7260 H   0  0  0  0  0  0  0  0  0  0  0  0
  149.8504  129.5246  154.3110 H   0  0  0  0  0  0  0  0  0  0  0  0
  147.8265  128.9592  152.8484 H   0  0  0  0  0  0  0  0  0  0  0  0
  147.4190  133.8902  150.2293 H   0  0  0  0  0  0  0  0  0  0  0  0
  147.1104  132.1581  150.3332 H   0  0  0  0  0  0  0  0  0  0  0  0
  145.1363  134.4078  150.0062 H   0  0  0  0  0  0  0  0  0  0  0  0
  145.0648  132.7921  149.3000 H   0  0  0  0  0  0  0  0  0  0  0  0
  143.4968  133.3507  151.4396 H   0  0  0  0  0  0  0  0  0  0  0  0
  144.3927  131.8272  151.4242 H   0  0  0  0  0  0  0  0  0  0  0  0
  145.1382  132.8326  153.4981 H   0  0  0  0  0  0  0  0  0  0  0  0
  145.2068  134.4259  152.7778 H   0  0  0  0  0  0  0  0  0  0  0  0
  151.5144  140.7055  155.1870 H   0  0  0  0  0  0  0  0  0  0  0  0
  149.8224  141.0132  154.8548 H   0  0  0  0  0  0  0  0  0  0  0  0
  150.7806  142.8005  156.2541 H   0  0  0  0  0  0  0  0  0  0  0  0
  149.4566  141.9874  157.0675 H   0  0  0  0  0  0  0  0  0  0  0  0
  151.7133  140.1034  159.1941 H   0  0  0  0  0  0  0  0  0  0  0  0
  150.0173  140.3638  158.8321 H   0  0  0  0  0  0  0  0  0  0  0  0
  150.7888  138.2526  157.8512 H   0  0  0  0  0  0  0  0  0  0  0  0
  152.0967  139.0472  157.0001 H   0  0  0  0  0  0  0  0  0  0  0  0
  146.5775  130.6837  151.9651 H   0  0  0  0  0  0  0  0  0  0  0  0
  1  2  1  0  0  0  0
  1 25  1  0  0  0  0
  1 26  1  0  0  0  0
  1 27  1  0  0  0  0
  2  3  1  0  0  0  0
  2 19  1  0  0  0  0
  2 28  1  0  0  0  0
  3  4  1  0  0  0  0
  3 29  1  0  0  0  0
  3 30  1  0  0  0  0
  4  5  1  0  0  0  0
  4 31  1  0  0  0  0
  5  6  2  0  0  0  0
  5  7  1  0  0  0  0
  7  8  1  0  0  0  0
  7 32  1  0  0  0  0
  8 13  1  0  0  0  0
  8  9  2  0  0  0  0
  9 10  1  0  0  0  0
  9 33  1  0  0  0  0
 10 11  2  0  0  0  0
 10 34  1  0  0  0  0
 11 12  1  0  0  0  0
 11 35  1  0  0  0  0
 12 13  2  0  0  0  0
 12 52  1  0  0  0  0
 13 14  1  0  0  0  0
 14 18  1  0  0  0  0
 14 15  1  0  0  0  0
 15 16  1  0  0  0  0
 15 36  1  0  0  0  0
 15 37  1  0  0  0  0
 16 17  1  0  0  0  0
 16 38  1  0  0  0  0
 16 39  1  0  0  0  0
 17 18  1  0  0  0  0
 17 40  1  0  0  0  0
 17 41  1  0  0  0  0
 18 42  1  0  0  0  0
 18 43  1  0  0  0  0
 19 24  1  0  0  0  0
 19 20  1  0  0  0  0
 20 21  1  0  0  0  0
 20 44  1  0  0  0  0
 20 45  1  0  0  0  0
 21 22  1  0  0  0  0
 21 46  1  0  0  0  0
 21 47  1  0  0  0  0
 22 23  1  0  0  0  0
 23 24  1  0  0  0  0
 23 48  1  0  0  0  0
 23 49  1  0  0  0  0
 24 50  1  0  0  0  0
 24 51  1  0  0  0  0
M  CHG  1  12   1
M  END
> <s_m_source_file>
AV-unprocessed.smi

> <i_m_source_file_index>
1389

> <i_lp_mmshare_version>
43012

> <i_f3d_flags>
0

> <s_epik_input>
W0NIMl0xW0NIMl1PW0NIMl1bQ0gyXU4xW0NASF0oW0NIM10pW0NIMl1bTkhdQyg9TylbTkhdYzJbY0hdW2NIXVtjSF1uYzJOM1tDSDJdW0NIMl1bQ0gyXVtDSDJdMw==

> <s_epik_cmdline>
J2VwaWtfcHl0aG9uJywgJy1waCcsICc3LjAnLCAnLXRuJywgJzgnLCAnLW1hJywgJzIwMCcsICctbWV0YWxfYmluZGluZycsICctaW1hZScsICc8aW5maWxlLm1hZT4nLCAnLW9tYWUnLCAnPG91dGZpbGUubWFlPic=

> <r_epik_Ionization_Penalty>
1.37675

> <r_epik_Ionization_Penalty_Charging>
1.11074

> <r_epik_Ionization_Penalty_Neutral>
0.26601

> <r_epik_State_Penalty>
1.46015

> <r_epik_Charging_Adjusted_Penalty>
2.57089

> <i_epik_Tot_Q>
1

> <i_epik_Tot_abs_Q>
1

> <r_epik_Metal_State_Penalty>
1.54223

> <b_epik_Metal_Only>
0

> <s_lp_Force_Field>
OPLS_2005

> <r_lp_Energy>
63.8734

> <b_lp_Chiralities_Consistent>
1

> <s_lp_Variant>
AV-unprocessed.smi:1389-6

> <Gold.Version>
5.8.1

> <Gold.Id.Protein>
6NUR|6NUR_protein|mol2

> <Gold.PLP.Fitness>
44.3295

> <Gold.PLP.PLP>
-39.4656

> <Gold.PLP.part.hbond>
-3.0000

> <Gold.PLP.part.metal>
0.0000

> <Gold.PLP.part.buried>
-5.1410

> <Gold.PLP.part.nonpolar>
-31.2030

> <Gold.PLP.part.repulsive>
0.1851

> <Gold.PLP.ligand.clash>
0.0000

> <Gold.PLP.ligand.torsion>
0.6447

> <Gold.PLP.Chemscore.Hbond>
1.9920

> <Gold.PLP.Chemscore.CHOScore>
0.0000

> <Gold.PLP.Chemscore.Metal>
0.0000

> <Gold.Chemscore.Hbonds>
donor molecule, donor type, donor heavy atom, donor atom, acceptor molecule, acceptor atom, score
      L1  H     4    31       P1  7948  1.00
      L1  H     7    32       P1  7948  0.95

> <Gold.PLP.Chemscore.Internal.Correction>
0.1773

> <Gold.Rescore>
     Score         DG    S(hbond)    S(metal)    S(lipo)     H(rot)  DE(clash)    DE(int)     intcor
     14.73     -16.27       1.45        0.00      85.78       1.60       0.00       1.54       ----

> <Gold.Chemscore.Fitness>
14.7254

> <Gold.Chemscore.DG>
-16.2693

> <Gold.Chemscore.ZeroCoef>
-5.4800

> <Gold.Chemscore.Hbond>
1.4545

> <Gold.Chemscore.Metal>
0.0000

> <Gold.Chemscore.Lipo>
85.7778

> <Gold.Chemscore.Internal_Hbond>
0.0000

> <Gold.Chemscore.DEClash>
0.0009

> <Gold.Chemscore.DEInternal>
1.5429

> <Gold.Chemscore.Rot>
1.6035

> <Gold.Chemscore.Internal.Correction>
   9.000000E+99

> <Gold.Chemscore.Hbonds>
donor molecule, donor type, donor heavy atom, donor atom, acceptor molecule, acceptor atom, score
      L1  H     4    31       P1  7948  0.90
      L1  H     7    32       P1  7948  0.21

> <Gold.Chemscore.Hbond.Weighted>
-4.8582

> <Gold.Chemscore.Metal.Weighted>
-0.0000

> <Gold.Chemscore.Lipo.Weighted>
-10.0360

> <Gold.Chemscore.Internal_Hbond.Weighted>
0.0000

> <Gold.Chemscore.DEClash.Weighted>
0.0009

> <Gold.Chemscore.DEInternal.Weighted>
1.5429

> <Gold.Chemscore.Rot.Weighted>
4.1049

> <Gold.Chemscore.Internal.Correction.Weighted>
   9.000000E+99

> <Gold.Protein.RotatedTorsions>
[ 6907 6896 6895 6894 ] final    3.83 input  -60.11 | X-H torsion
[ 7974 7965 7964 7962 ] final  158.74 input  175.53 | X-H torsion
[ 8008 7997 7996 7995 ] final   66.81 input   59.86 | X-H torsion
[ 10167 10162 10161 10158 ] final   39.00 input  -65.29 | X-H torsion
[ 10718 10713 10712 10709 ] final -112.14 input   66.30 | X-H torsion
[ 10763 10752 10751 10750 ] final  141.63 input  -60.55 | X-H torsion
[ 11005 11000 10999 10996 ] final   73.01 input  -57.11 | X-H torsion

> <Gold.Protein.ActiveResidues>
 VAL166  LYS551  ARG553  GLY616  TRP617  ASP618  TYR619  PRO620  LYS621  CYS622 
 ASP623  PHE694  ASN695  SER759  ASP760  ASP761  ALA762  ILE779  LEU786  VAL792 
 PHE793  MET794  SER795  GLU796  ALA797  LYS798  CYS799  TRP800  GLU811  SER814 

> <Gold.Protein.RotatedAtoms>
  151.6314  135.1022  160.0122 H   0  0  0  0  0  0  0  0  0  0  0  0  # atno 6907 bound_to 6896
  152.4104  133.6951  159.6401 H   0  0  0  0  0  0  0  0  0  0  0  0  # atno 6908 bound_to 6896
  150.7995  133.8551  159.3257 H   0  0  0  0  0  0  0  0  0  0  0  0  # atno 6909 bound_to 6896
  144.7829  139.7520  143.6252 H   0  0  0  0  0  0  0  0  0  0  0  0  # atno 7974 bound_to 7965
  155.6832  140.3496  155.4864 H   0  0  0  0  0  0  0  0  0  0  0  0  # atno 8008 bound_to 7997
  155.9588  140.1133  157.0936 H   0  0  0  0  0  0  0  0  0  0  0  0  # atno 8009 bound_to 7997
  154.4138  140.1179  156.5138 H   0  0  0  0  0  0  0  0  0  0  0  0  # atno 8010 bound_to 7997
  140.3882  144.1888  150.6130 H   0  0  0  0  0  0  0  0  0  0  0  0  # atno 10167 bound_to 10162
  156.0688  130.5904  150.8468 H   0  0  0  0  0  0  0  0  0  0  0  0  # atno 10718 bound_to 10713
  153.9424  135.2978  155.3442 H   0  0  0  0  0  0  0  0  0  0  0  0  # atno 10763 bound_to 10752
  154.7470  135.4998  153.9224 H   0  0  0  0  0  0  0  0  0  0  0  0  # atno 10764 bound_to 10752
  153.1035  135.6741  153.9735 H   0  0  0  0  0  0  0  0  0  0  0  0  # atno 10765 bound_to 10752
  139.9462  134.7309  156.0975 H   0  0  0  0  0  0  0  0  0  0  0  0  # atno 11005 bound_to 11000
  146.2046  139.5362  142.9721 LP  0  0  0  0  0  0  0  0  0  0  0  0  # atno 17320 bound_to 7965
  145.6001  141.0356  143.2023 LP  0  0  0  0  0  0  0  0  0  0  0  0  # atno 17321 bound_to 7965
  140.4867  143.2361  151.8877 LP  0  0  0  0  0  0  0  0  0  0  0  0  # atno 17342 bound_to 10162
  139.4790  144.5211  151.8801 LP  0  0  0  0  0  0  0  0  0  0  0  0  # atno 17343 bound_to 10162
  157.5746  131.0946  150.9365 LP  0  0  0  0  0  0  0  0  0  0  0  0  # atno 17370 bound_to 10713
  156.9573  130.5442  149.5284 LP  0  0  0  0  0  0  0  0  0  0  0  0  # atno 17371 bound_to 10713
  141.1112  133.6642  156.2984 LP  0  0  0  0  0  0  0  0  0  0  0  0  # atno 17394 bound_to 11000
  140.5830  134.5727  157.5483 LP  0  0  0  0  0  0  0  0  0  0  0  0  # atno 17395 bound_to 11000

$$$$
