AV-unprocessed.smi:1687|AV-procd|sdf|6769|dock4
  -GOLD-   22720 7533D 1   1.00000     0.00000
 Structure written by MMmdl.
 45 46  0  0  0  0  0  0  0  0  2 V2000
  143.6444  134.7710  151.9128 C   0  0  0  0  0  0  0  0  0  0  0  0
  145.1404  134.7321  151.5538 C   0  0  2  0  0  0  0  0  0  0  0  0
  146.0324  134.3595  152.7527 C   0  0  0  0  0  0  0  0  0  0  0  0
  146.1601  135.5140  153.7622 C   0  0  0  0  0  0  0  0  0  0  0  0
  146.6669  136.7464  153.0981 N   0  3  2  0  0  0  0  0  0  0  0  0
  147.0378  137.8614  154.0186 C   0  0  1  0  0  0  0  0  0  0  0  0
  147.4548  139.1482  153.2729 C   0  0  0  0  0  0  0  0  0  0  0  0
  145.9188  138.1051  155.0591 C   0  0  0  0  0  0  0  0  0  0  0  0
  144.6434  138.4642  154.4464 N   0  0  0  0  0  0  0  0  0  0  0  0
  143.5168  137.7431  154.5401 C   0  0  0  0  0  0  0  0  0  0  0  0
  143.4422  136.6865  155.1682 O   0  0  0  0  0  0  0  0  0  0  0  0
  142.5070  138.3260  153.8703 N   0  0  0  0  0  0  0  0  0  0  0  0
  141.1631  137.8821  153.7480 C   0  0  0  0  0  0  0  0  0  0  0  0
  140.3385  138.6894  152.9322 C   0  0  0  0  0  0  0  0  0  0  0  0
  138.9876  138.3365  152.7480 C   0  0  0  0  0  0  0  0  0  0  0  0
  138.4954  137.1837  153.3856 C   0  0  0  0  0  0  0  0  0  0  0  0
  139.3830  136.4354  154.1806 C   0  0  0  0  0  0  0  0  0  0  0  0
  140.6782  136.7721  154.3588 N   0  0  0  0  0  0  0  0  0  0  0  0
  145.7849  137.1720  151.9794 C   0  0  0  0  0  0  0  0  0  0  0  0
  145.6376  136.0512  150.9337 C   0  0  0  0  0  0  0  0  0  0  0  0
  143.4176  135.5352  152.6557 H   0  0  0  0  0  0  0  0  0  0  0  0
  143.3147  133.8128  152.3150 H   0  0  0  0  0  0  0  0  0  0  0  0
  143.0379  134.9798  151.0314 H   0  0  0  0  0  0  0  0  0  0  0  0
  145.2560  133.9502  150.8021 H   0  0  0  0  0  0  0  0  0  0  0  0
  145.6460  133.4683  153.2488 H   0  0  0  0  0  0  0  0  0  0  0  0
  147.0269  134.0952  152.3902 H   0  0  0  0  0  0  0  0  0  0  0  0
  145.1927  135.7067  154.2265 H   0  0  0  0  0  0  0  0  0  0  0  0
  146.8350  135.2087  154.5609 H   0  0  0  0  0  0  0  0  0  0  0  0
  147.9097  137.5232  154.5803 H   0  0  0  0  0  0  0  0  0  0  0  0
  147.8609  139.8879  153.9629 H   0  0  0  0  0  0  0  0  0  0  0  0
  146.6117  139.6139  152.7623 H   0  0  0  0  0  0  0  0  0  0  0  0
  148.2289  138.9508  152.5316 H   0  0  0  0  0  0  0  0  0  0  0  0
  145.7444  137.2100  155.6551 H   0  0  0  0  0  0  0  0  0  0  0  0
  146.2170  138.8868  155.7600 H   0  0  0  0  0  0  0  0  0  0  0  0
  144.6191  139.3191  153.9096 H   0  0  0  0  0  0  0  0  0  0  0  0
  142.7222  139.1896  153.3946 H   0  0  0  0  0  0  0  0  0  0  0  0
  140.7327  139.5718  152.4492 H   0  0  0  0  0  0  0  0  0  0  0  0
  138.3412  138.9402  152.1282 H   0  0  0  0  0  0  0  0  0  0  0  0
  137.4655  136.8807  153.2687 H   0  0  0  0  0  0  0  0  0  0  0  0
  139.0446  135.5434  154.6866 H   0  0  0  0  0  0  0  0  0  0  0  0
  144.8074  137.4637  152.3641 H   0  0  0  0  0  0  0  0  0  0  0  0
  146.2048  138.0522  151.4912 H   0  0  0  0  0  0  0  0  0  0  0  0
  146.6063  135.8800  150.4622 H   0  0  0  0  0  0  0  0  0  0  0  0
  144.9669  136.3703  150.1351 H   0  0  0  0  0  0  0  0  0  0  0  0
  147.5347  136.4812  152.6541 H   0  0  0  0  0  0  0  0  0  0  0  0
  1  2  1  0  0  0  0
  1 21  1  0  0  0  0
  1 22  1  0  0  0  0
  1 23  1  0  0  0  0
  2 20  1  0  0  0  0
  2  3  1  0  0  0  0
  2 24  1  0  0  0  0
  3  4  1  0  0  0  0
  3 25  1  0  0  0  0
  3 26  1  0  0  0  0
  4  5  1  0  0  0  0
  4 27  1  0  0  0  0
  4 28  1  0  0  0  0
  5  6  1  0  0  0  0
  5 19  1  0  0  0  0
  5 45  1  0  0  0  0
  6  7  1  0  0  0  0
  6  8  1  0  0  0  0
  6 29  1  0  0  0  0
  7 30  1  0  0  0  0
  7 31  1  0  0  0  0
  7 32  1  0  0  0  0
  8  9  1  0  0  0  0
  8 33  1  0  0  0  0
  8 34  1  0  0  0  0
  9 10  1  0  0  0  0
  9 35  1  0  0  0  0
 10 11  2  0  0  0  0
 10 12  1  0  0  0  0
 12 13  1  0  0  0  0
 12 36  1  0  0  0  0
 13 18  1  0  0  0  0
 13 14  2  0  0  0  0
 14 15  1  0  0  0  0
 14 37  1  0  0  0  0
 15 16  2  0  0  0  0
 15 38  1  0  0  0  0
 16 17  1  0  0  0  0
 16 39  1  0  0  0  0
 17 18  2  0  0  0  0
 17 40  1  0  0  0  0
 19 20  1  0  0  0  0
 19 41  1  0  0  0  0
 19 42  1  0  0  0  0
 20 43  1  0  0  0  0
 20 44  1  0  0  0  0
M  CHG  1   5   1
M  END
> <s_m_source_file>
AV-unprocessed.smi

> <i_m_source_file_index>
1687

> <i_lp_mmshare_version>
43012

> <i_f3d_flags>
0

> <s_epik_input>
W0NIM11bQ0hdMVtDSDJdW0NIMl1OKFtDSDJdW0NIMl0xKVtDQEhdKFtDSDNdKVtDSDJdW05IXUMoPU8pW05IXWMyW2NIXVtjSF1bY0hdW2NIXW4y

> <s_epik_cmdline>
J2VwaWtfcHl0aG9uJywgJy1waCcsICc3LjAnLCAnLXRuJywgJzgnLCAnLW1hJywgJzIwMCcsICctbWV0YWxfYmluZGluZycsICctaW1hZScsICc8aW5maWxlLm1hZT4nLCAnLW9tYWUnLCAnPG91dGZpbGUubWFlPic=

> <r_epik_Ionization_Penalty>
0.00142891

> <r_epik_Ionization_Penalty_Charging>
0.00139388

> <r_epik_Ionization_Penalty_Neutral>
3.50347e-05

> <r_epik_State_Penalty>
0.000929204

> <r_epik_Charging_Adjusted_Penalty>
0.00232308

> <i_epik_Tot_Q>
1

> <i_epik_Tot_abs_Q>
1

> <r_epik_Metal_State_Penalty>
-0

> <b_epik_Metal_Only>
0

> <s_lp_Force_Field>
OPLS_2005

> <r_lp_Energy>
23.2941

> <b_lp_Chiralities_Consistent>
1

> <s_lp_Variant>
AV-unprocessed.smi:1687-4

> <Gold.Version>
5.8.1

> <Gold.Id.Protein>
6NUR|6NUR_protein|mol2

> <Gold.PLP.Fitness>
43.6909

> <Gold.PLP.PLP>
-29.1114

> <Gold.PLP.part.hbond>
-3.0000

> <Gold.PLP.part.metal>
0.0000

> <Gold.PLP.part.buried>
-0.3388

> <Gold.PLP.part.nonpolar>
-26.8652

> <Gold.PLP.part.repulsive>
0.0661

> <Gold.PLP.ligand.clash>
0.0000

> <Gold.PLP.ligand.torsion>
0.2339

> <Gold.PLP.Chemscore.Hbond>
3.9760

> <Gold.PLP.Chemscore.CHOScore>
1.0000

> <Gold.PLP.Chemscore.Metal>
0.0000

> <Gold.Chemscore.Hbonds>
donor molecule, donor type, donor heavy atom, donor atom, acceptor molecule, acceptor atom, score
      L1  H     5    45       P1  7948  2.00
      L1  H     9    35       P1 10175  0.89
      L1  H    12    36       P1 10175  1.00
      L1  C    17    40       P1 11000  0.52

> <Gold.PLP.Chemscore.Internal.Correction>
0.1194

> <Gold.Rescore>
     Score         DG    S(hbond)    S(metal)    S(lipo)     H(rot)  DE(clash)    DE(int)     intcor
     18.26     -20.05       2.96        0.00      72.90       1.50       0.10       1.69       ----

> <Gold.Chemscore.Fitness>
18.2566

> <Gold.Chemscore.DG>
-20.0502

> <Gold.Chemscore.ZeroCoef>
-5.4800

> <Gold.Chemscore.Hbond>
2.9551

> <Gold.Chemscore.Metal>
0.0000

> <Gold.Chemscore.Lipo>
72.8991

> <Gold.Chemscore.Internal_Hbond>
0.0000

> <Gold.Chemscore.DEClash>
0.0996

> <Gold.Chemscore.DEInternal>
1.6941

> <Gold.Chemscore.Rot>
1.4956

> <Gold.Chemscore.Internal.Correction>
   9.000000E+99

> <Gold.Chemscore.Hbonds>
donor molecule, donor type, donor heavy atom, donor atom, acceptor molecule, acceptor atom, score
      L1  H     5    45       P1  7948  1.00
      L1  H     9    35       P1 10175  0.82
      L1  H    12    36       P1 10175  1.00

> <Gold.Chemscore.Hbond.Weighted>
-9.8699

> <Gold.Chemscore.Metal.Weighted>
-0.0000

> <Gold.Chemscore.Lipo.Weighted>
-8.5292

> <Gold.Chemscore.Internal_Hbond.Weighted>
0.0000

> <Gold.Chemscore.DEClash.Weighted>
0.0996

> <Gold.Chemscore.DEInternal.Weighted>
1.6941

> <Gold.Chemscore.Rot.Weighted>
3.8289

> <Gold.Chemscore.Internal.Correction.Weighted>
   9.000000E+99

> <Gold.Protein.RotatedTorsions>
[ 6907 6896 6895 6894 ] final   67.56 input  -60.11 | X-H torsion
[ 7974 7965 7964 7962 ] final   31.23 input  175.53 | X-H torsion
[ 8008 7997 7996 7995 ] final -123.29 input   59.86 | X-H torsion
[ 10167 10162 10161 10158 ] final  -35.21 input  -65.29 | X-H torsion
[ 10718 10713 10712 10709 ] final   23.98 input   66.30 | X-H torsion
[ 10763 10752 10751 10750 ] final  144.01 input  -60.55 | X-H torsion
[ 11005 11000 10999 10996 ] final -173.62 input  -57.11 | X-H torsion

> <Gold.Protein.ActiveResidues>
 VAL166  LYS551  ARG553  GLY616  TRP617  ASP618  TYR619  PRO620  LYS621  CYS622 
 ASP623  PHE694  ASN695  SER759  ASP760  ASP761  ALA762  ILE779  LEU786  VAL792 
 PHE793  MET794  SER795  GLU796  ALA797  LYS798  CYS799  TRP800  GLU811  SER814 

> <Gold.Protein.RotatedAtoms>
  152.4560  134.5289  159.9804 H   0  0  0  0  0  0  0  0  0  0  0  0  # atno 6907 bound_to 6896
  151.5350  133.3436  159.2933 H   0  0  0  0  0  0  0  0  0  0  0  0  # atno 6908 bound_to 6896
  150.8505  134.7859  159.7068 H   0  0  0  0  0  0  0  0  0  0  0  0  # atno 6909 bound_to 6896
  146.1563  139.6684  142.9064 H   0  0  0  0  0  0  0  0  0  0  0  0  # atno 7974 bound_to 7965
  155.1781  140.0410  157.2876 H   0  0  0  0  0  0  0  0  0  0  0  0  # atno 8008 bound_to 7997
  154.6223  140.2504  155.7507 H   0  0  0  0  0  0  0  0  0  0  0  0  # atno 8009 bound_to 7997
  156.2440  140.2892  156.0536 H   0  0  0  0  0  0  0  0  0  0  0  0  # atno 8010 bound_to 7997
  140.7170  143.3493  151.2190 H   0  0  0  0  0  0  0  0  0  0  0  0  # atno 10167 bound_to 10162
  157.1735  130.6770  149.6086 H   0  0  0  0  0  0  0  0  0  0  0  0  # atno 10718 bound_to 10713
  153.9818  135.2940  155.3419 H   0  0  0  0  0  0  0  0  0  0  0  0  # atno 10763 bound_to 10752
  154.7265  135.5086  153.8897 H   0  0  0  0  0  0  0  0  0  0  0  0  # atno 10764 bound_to 10752
  153.0851  135.6691  154.0080 H   0  0  0  0  0  0  0  0  0  0  0  0  # atno 10765 bound_to 10752
  140.4837  134.6051  157.4929 H   0  0  0  0  0  0  0  0  0  0  0  0  # atno 11005 bound_to 11000
  145.4700  141.0436  143.2704 LP  0  0  0  0  0  0  0  0  0  0  0  0  # atno 17320 bound_to 7965
  144.7968  139.6219  143.7089 LP  0  0  0  0  0  0  0  0  0  0  0  0  # atno 17321 bound_to 7965
  139.7020  143.9518  152.2909 LP  0  0  0  0  0  0  0  0  0  0  0  0  # atno 17342 bound_to 10162
  139.9214  144.6797  150.8458 LP  0  0  0  0  0  0  0  0  0  0  0  0  # atno 17343 bound_to 10162
  155.9735  130.4671  150.6312 LP  0  0  0  0  0  0  0  0  0  0  0  0  # atno 17370 bound_to 10713
  157.4021  131.0811  151.1299 LP  0  0  0  0  0  0  0  0  0  0  0  0  # atno 17371 bound_to 10713
  139.9811  134.7136  155.9858 LP  0  0  0  0  0  0  0  0  0  0  0  0  # atno 17394 bound_to 11000
  141.1519  133.6547  156.4038 LP  0  0  0  0  0  0  0  0  0  0  0  0  # atno 17395 bound_to 11000

$$$$
