AV-unprocessed.smi:911|AV-procd|sdf|4136|dock10
  -GOLD-   22720 2 43D 1   1.00000     0.00000
 Structure written by MMmdl.
 47 49  0  0  0  0  0  0  0  0  3 V2000
  146.8460  139.2654  153.5570 C   0  0  0  0  0  0  0  0  0  0  0  0
  147.5633  140.1534  154.6122 C   0  0  0  0  0  0  0  0  0  0  0  0
  148.0155  141.4254  153.8414 C   0  0  0  0  0  0  0  0  0  0  0  0
  146.7245  140.4465  155.8723 C   0  0  2  0  0  0  0  0  0  0  0  0
  147.7014  141.2138  156.7911 C   0  0  0  0  0  0  0  0  0  0  0  0
  149.0531  140.5430  156.4770 C   0  0  0  0  0  0  0  0  0  0  0  0
  148.6602  139.4431  155.4517 C   0  0  2  0  0  0  0  0  0  0  0  0
  149.8616  138.9038  154.6566 C   0  0  0  0  0  0  0  0  0  0  0  0
  147.8540  138.3362  156.2041 C   0  0  1  0  0  0  0  0  0  0  0  0
  148.4832  137.8578  157.4356 N   0  0  0  0  0  0  0  0  0  0  0  0
  147.9258  137.0142  158.3169 C   0  0  0  0  0  0  0  0  0  0  0  0
  146.7988  136.5372  158.1767 O   0  0  0  0  0  0  0  0  0  0  0  0
  148.7922  136.6383  159.5270 C   0  0  0  0  0  0  0  0  0  0  0  0
  148.1225  135.7066  160.4499 N   0  0  0  0  0  0  0  0  0  0  0  0
  148.0131  134.3637  160.0373 C   0  0  0  0  0  0  0  0  0  0  0  0
  147.4088  133.4286  160.7963 C   0  0  0  0  0  0  0  0  0  0  0  0
  147.2984  132.0562  160.3535 N   0  3  0  0  0  0  0  0  0  0  0  0
  146.7226  131.2494  161.0763 O   0  0  0  0  0  0  0  0  0  0  0  0
  147.7827  131.7389  159.2713 O   0  5  0  0  0  0  0  0  0  0  0  0
  146.8652  133.8457  162.0743 C   0  0  0  0  0  0  0  0  0  0  0  0
  146.9637  135.1290  162.4728 C   0  0  0  0  0  0  0  0  0  0  0  0
  147.6167  136.1463  161.6427 C   0  0  0  0  0  0  0  0  0  0  0  0
  147.7033  137.3220  161.9979 O   0  0  0  0  0  0  0  0  0  0  0  0
  146.5172  139.0522  156.5039 C   0  0  0  0  0  0  0  0  0  0  0  0
  146.0083  139.8019  153.1104 H   0  0  0  0  0  0  0  0  0  0  0  0
  146.4413  138.3295  153.9350 H   0  0  0  0  0  0  0  0  0  0  0  0
  147.5265  139.0036  152.7461 H   0  0  0  0  0  0  0  0  0  0  0  0
  148.5343  142.1705  154.4401 H   0  0  0  0  0  0  0  0  0  0  0  0
  147.1556  141.9316  153.4019 H   0  0  0  0  0  0  0  0  0  0  0  0
  148.6848  141.1643  153.0212 H   0  0  0  0  0  0  0  0  0  0  0  0
  145.7914  140.9810  155.6912 H   0  0  0  0  0  0  0  0  0  0  0  0
  147.7236  142.2781  156.5554 H   0  0  0  0  0  0  0  0  0  0  0  0
  147.4342  141.1246  157.8447 H   0  0  0  0  0  0  0  0  0  0  0  0
  149.7507  141.2604  156.0443 H   0  0  0  0  0  0  0  0  0  0  0  0
  149.5417  140.1593  157.3723 H   0  0  0  0  0  0  0  0  0  0  0  0
  150.6033  138.4583  155.3194 H   0  0  0  0  0  0  0  0  0  0  0  0
  150.3583  139.6973  154.0986 H   0  0  0  0  0  0  0  0  0  0  0  0
  149.5542  138.1382  153.9442 H   0  0  0  0  0  0  0  0  0  0  0  0
  147.6660  137.4843  155.5492 H   0  0  0  0  0  0  0  0  0  0  0  0
  149.4152  138.1952  157.6283 H   0  0  0  0  0  0  0  0  0  0  0  0
  149.7219  136.2051  159.1561 H   0  0  0  0  0  0  0  0  0  0  0  0
  149.0929  137.5450  160.0557 H   0  0  0  0  0  0  0  0  0  0  0  0
  148.4419  134.1566  159.0672 H   0  0  0  0  0  0  0  0  0  0  0  0
  146.3749  133.1326  162.7208 H   0  0  0  0  0  0  0  0  0  0  0  0
  146.5513  135.4182  163.4282 H   0  0  0  0  0  0  0  0  0  0  0  0
  146.2951  139.1177  157.5701 H   0  0  0  0  0  0  0  0  0  0  0  0
  145.6796  138.5272  156.0446 H   0  0  0  0  0  0  0  0  0  0  0  0
  1  2  1  0  0  0  0
  1 25  1  0  0  0  0
  1 26  1  0  0  0  0
  1 27  1  0  0  0  0
  2  7  1  0  0  0  0
  2  3  1  0  0  0  0
  2  4  1  0  0  0  0
  3 28  1  0  0  0  0
  3 29  1  0  0  0  0
  3 30  1  0  0  0  0
  4 24  1  0  0  0  0
  4  5  1  0  0  0  0
  4 31  1  0  0  0  0
  5  6  1  0  0  0  0
  5 32  1  0  0  0  0
  5 33  1  0  0  0  0
  6  7  1  0  0  0  0
  6 34  1  0  0  0  0
  6 35  1  0  0  0  0
  7  8  1  0  0  0  0
  7  9  1  0  0  0  0
  8 36  1  0  0  0  0
  8 37  1  0  0  0  0
  8 38  1  0  0  0  0
  9 10  1  0  0  0  0
  9 24  1  0  0  0  0
  9 39  1  0  0  0  0
 10 11  1  0  0  0  0
 10 40  1  0  0  0  0
 11 12  2  0  0  0  0
 11 13  1  0  0  0  0
 13 14  1  0  0  0  0
 13 41  1  0  0  0  0
 13 42  1  0  0  0  0
 14 22  1  0  0  0  0
 14 15  1  0  0  0  0
 15 16  2  0  0  0  0
 15 43  1  0  0  0  0
 16 17  1  0  0  0  0
 16 20  1  0  0  0  0
 17 18  2  0  0  0  0
 17 19  1  0  0  0  0
 20 21  2  0  0  0  0
 20 44  1  0  0  0  0
 21 22  1  0  0  0  0
 21 45  1  0  0  0  0
 22 23  2  0  0  0  0
 24 46  1  0  0  0  0
 24 47  1  0  0  0  0
M  CHG  1  17   1
M  CHG  1  19  -1
M  END
> <s_m_source_file>
AV-unprocessed.smi

> <i_m_source_file_index>
911

> <i_lp_mmshare_version>
43012

> <i_f3d_flags>
0

> <s_epik_input>
W0NIM11bQ0BdMTJDKFtDSDNdKShbQ0gzXSlbQ0BIXShbQ0gyXVtDSDJdMSlbQ0gyXVtDQEBIXTJbTkhdQyg9TylbQ0gyXW4zW2NIXWMoW04rXSg9TylbTy1dKVtjSF1bY0hdYzM9Tw==

> <s_epik_cmdline>
J2VwaWtfcHl0aG9uJywgJy1waCcsICc3LjAnLCAnLXRuJywgJzgnLCAnLW1hJywgJzIwMCcsICctbWV0YWxfYmluZGluZycsICctaW1hZScsICc8aW5maWxlLm1hZT4nLCAnLW9tYWUnLCAnPG91dGZpbGUubWFlPic=

> <r_lp_tautomer_probability>
1

> <r_epik_Ionization_Penalty>
2.04092e-08

> <r_epik_Ionization_Penalty_Charging>
8.54191e-11

> <r_epik_Ionization_Penalty_Neutral>
2.03238e-08

> <r_epik_State_Penalty>
-0

> <r_epik_Charging_Adjusted_Penalty>
8.54191e-11

> <i_epik_Tot_Q>
0

> <i_epik_Tot_abs_Q>
2

> <r_epik_Metal_State_Penalty>
-0

> <b_epik_Metal_Only>
0

> <s_lp_Force_Field>
OPLS_2005

> <r_lp_Energy>
67.3082

> <b_lp_Chiralities_Consistent>
1

> <s_lp_Variant>
AV-unprocessed.smi:911-1

> <Gold.Version>
5.8.1

> <Gold.Id.Protein>
6NUR|6NUR_protein|mol2

> <Gold.PLP.Fitness>
35.8889

> <Gold.PLP.PLP>
-31.8411

> <Gold.PLP.part.hbond>
-1.8814

> <Gold.PLP.part.metal>
0.0000

> <Gold.PLP.part.buried>
-3.9894

> <Gold.PLP.part.nonpolar>
-25.8534

> <Gold.PLP.part.repulsive>
0.0591

> <Gold.PLP.ligand.clash>
0.0000

> <Gold.PLP.ligand.torsion>
0.2119

> <Gold.PLP.Chemscore.Hbond>
1.4830

> <Gold.PLP.Chemscore.CHOScore>
0.0000

> <Gold.PLP.Chemscore.Metal>
0.0000

> <Gold.Chemscore.Hbonds>
donor molecule, donor type, donor heavy atom, donor atom, acceptor molecule, acceptor atom, score
      P1  H  6931  6943       L1    23  0.93
      P1  H  6934  6947       L1    23  0.53

> <Gold.PLP.Chemscore.Internal.Correction>
0.0229

> <Gold.Rescore>
     Score         DG    S(hbond)    S(metal)    S(lipo)     H(rot)  DE(clash)    DE(int)     intcor
     14.26     -15.17       1.73        0.00      66.78       1.53       0.06       0.86       ----

> <Gold.Chemscore.Fitness>
14.2587

> <Gold.Chemscore.DG>
-15.1712

> <Gold.Chemscore.ZeroCoef>
-5.4800

> <Gold.Chemscore.Hbond>
1.7333

> <Gold.Chemscore.Metal>
0.0000

> <Gold.Chemscore.Lipo>
66.7782

> <Gold.Chemscore.Internal_Hbond>
0.0000

> <Gold.Chemscore.DEClash>
0.0574

> <Gold.Chemscore.DEInternal>
0.8551

> <Gold.Chemscore.Rot>
1.5277

> <Gold.Chemscore.Internal.Correction>
   9.000000E+99

> <Gold.Chemscore.Hbonds>
donor molecule, donor type, donor heavy atom, donor atom, acceptor molecule, acceptor atom, score
      P1  H  6931  6943       L1    23  0.90
      P1  H  6934  6947       L1    23  0.51

> <Gold.Chemscore.Hbond.Weighted>
-5.7892

> <Gold.Chemscore.Metal.Weighted>
-0.0000

> <Gold.Chemscore.Lipo.Weighted>
-7.8130

> <Gold.Chemscore.Internal_Hbond.Weighted>
0.0000

> <Gold.Chemscore.DEClash.Weighted>
0.0574

> <Gold.Chemscore.DEInternal.Weighted>
0.8551

> <Gold.Chemscore.Rot.Weighted>
3.9110

> <Gold.Chemscore.Internal.Correction.Weighted>
   9.000000E+99

> <Gold.Protein.RotatedTorsions>
[ 6907 6896 6895 6894 ] final  -51.50 input  -60.11 | X-H torsion
[ 7974 7965 7964 7962 ] final   14.03 input  175.53 | X-H torsion
[ 8008 7997 7996 7995 ] final  179.55 input   59.86 | X-H torsion
[ 10167 10162 10161 10158 ] final  126.12 input  -65.29 | X-H torsion
[ 10718 10713 10712 10709 ] final -124.95 input   66.30 | X-H torsion
[ 10763 10752 10751 10750 ] final -122.46 input  -60.55 | X-H torsion
[ 11005 11000 10999 10996 ] final -135.88 input  -57.11 | X-H torsion

> <Gold.Protein.ActiveResidues>
 VAL166  LYS551  ARG553  GLY616  TRP617  ASP618  TYR619  PRO620  LYS621  CYS622 
 ASP623  PHE694  ASN695  SER759  ASP760  ASP761  ALA762  ILE779  LEU786  VAL792 
 PHE793  MET794  SER795  GLU796  ALA797  LYS798  CYS799  TRP800  GLU811  SER814 

> <Gold.Protein.RotatedAtoms>
  150.8605  134.7955  159.7078 H   0  0  0  0  0  0  0  0  0  0  0  0  # atno 6907 bound_to 6896
  152.4643  134.5108  159.9763 H   0  0  0  0  0  0  0  0  0  0  0  0  # atno 6908 bound_to 6896
  151.5212  133.3428  159.2937 H   0  0  0  0  0  0  0  0  0  0  0  0  # atno 6909 bound_to 6896
  146.2315  139.9100  142.8526 H   0  0  0  0  0  0  0  0  0  0  0  0  # atno 7974 bound_to 7965
  156.0422  140.1306  157.0143 H   0  0  0  0  0  0  0  0  0  0  0  0  # atno 8008 bound_to 7997
  154.4396  140.1028  156.6324 H   0  0  0  0  0  0  0  0  0  0  0  0  # atno 8009 bound_to 7997
  155.5650  140.3465  155.4503 H   0  0  0  0  0  0  0  0  0  0  0  0  # atno 8010 bound_to 7997
  139.5648  144.6904  151.3941 H   0  0  0  0  0  0  0  0  0  0  0  0  # atno 10167 bound_to 10162
  156.1632  130.6616  151.0079 H   0  0  0  0  0  0  0  0  0  0  0  0  # atno 10718 bound_to 10713
  154.8690  135.4132  154.2786 H   0  0  0  0  0  0  0  0  0  0  0  0  # atno 10763 bound_to 10752
  153.3683  135.7006  153.6664 H   0  0  0  0  0  0  0  0  0  0  0  0  # atno 10764 bound_to 10752
  153.5536  135.3624  155.2742 H   0  0  0  0  0  0  0  0  0  0  0  0  # atno 10765 bound_to 10752
  140.8857  134.1875  157.4561 H   0  0  0  0  0  0  0  0  0  0  0  0  # atno 11005 bound_to 11000
  145.2238  140.9946  143.4030 LP  0  0  0  0  0  0  0  0  0  0  0  0  # atno 17320 bound_to 7965
  144.9587  139.4003  143.6366 LP  0  0  0  0  0  0  0  0  0  0  0  0  # atno 17321 bound_to 7965
  140.6931  143.7814  150.7285 LP  0  0  0  0  0  0  0  0  0  0  0  0  # atno 17342 bound_to 10162
  140.1303  143.4532  152.2259 LP  0  0  0  0  0  0  0  0  0  0  0  0  # atno 17343 bound_to 10162
  157.6748  131.0853  150.7521 LP  0  0  0  0  0  0  0  0  0  0  0  0  # atno 17370 bound_to 10713
  156.7583  130.4790  149.5442 LP  0  0  0  0  0  0  0  0  0  0  0  0  # atno 17371 bound_to 10713
  139.8724  134.9837  156.5208 LP  0  0  0  0  0  0  0  0  0  0  0  0  # atno 17394 bound_to 11000
  140.8407  133.8207  155.9073 LP  0  0  0  0  0  0  0  0  0  0  0  0  # atno 17395 bound_to 11000

$$$$
