AV-unprocessed.smi:38|AV-procd|sdf|336|dock2
  -GOLD-   2262016173D 1   1.00000     0.00000
 Structure written by MMmdl.
 28 29  0  0  0  0  0  0  0  0  1 V2000
  150.7986  145.3007  158.6890 O   0  0  0  0  0  0  0  0  0  0  0  0
  151.0932  144.1197  158.5153 C   0  0  0  0  0  0  0  0  0  0  0  0
  150.5735  143.4189  157.4232 N   0  0  0  0  0  0  0  0  0  0  0  0
  150.8317  142.0807  157.1194 C   0  0  0  0  0  0  0  0  0  0  0  0
  150.3027  141.5627  156.1370 O   0  0  0  0  0  0  0  0  0  0  0  0
  151.7005  141.3796  157.9853 N   0  0  0  0  0  0  0  0  0  0  0  0
  152.0196  139.9283  157.7075 C   0  0  2  0  0  0  0  0  0  0  0  0
  150.8907  139.0190  158.1950 C   0  0  0  0  0  0  0  0  0  0  0  0
  151.6722  137.8463  158.7494 C   0  0  2  0  0  0  0  0  0  0  0  0
  150.9213  137.1504  159.7232 O   0  0  0  0  0  0  0  0  0  0  0  0
  152.9046  138.5353  159.3408 C   0  0  1  0  0  0  0  0  0  0  0  0
  154.1242  137.6096  159.4629 C   0  0  0  0  0  0  0  0  0  0  0  0
  153.7667  136.4247  160.1411 O   0  0  0  0  0  0  0  0  0  0  0  0
  153.1798  139.5762  158.4033 O   0  0  0  0  0  0  0  0  0  0  0  0
  152.2312  142.0328  159.0897 C   0  0  0  0  0  0  0  0  0  0  0  0
  151.9698  143.3303  159.3756 C   0  0  0  0  0  0  0  0  0  0  0  0
  152.5191  143.8940  160.4647 F   0  0  0  0  0  0  0  0  0  0  0  0
  149.9558  143.9227  156.8035 H   0  0  0  0  0  0  0  0  0  0  0  0
  152.2332  139.8240  156.6427 H   0  0  0  0  0  0  0  0  0  0  0  0
  151.9578  137.1720  157.9406 H   0  0  0  0  0  0  0  0  0  0  0  0
  152.6468  138.9763  160.3056 H   0  0  0  0  0  0  0  0  0  0  0  0
  150.3275  139.5200  158.9846 H   0  0  0  0  0  0  0  0  0  0  0  0
  150.2118  138.7567  157.3831 H   0  0  0  0  0  0  0  0  0  0  0  0
  150.5339  137.7798  160.3124 H   0  0  0  0  0  0  0  0  0  0  0  0
  154.4795  137.3240  158.4723 H   0  0  0  0  0  0  0  0  0  0  0  0
  154.9502  138.1064  159.9725 H   0  0  0  0  0  0  0  0  0  0  0  0
  154.0642  135.6857  159.6324 H   0  0  0  0  0  0  0  0  0  0  0  0
  152.8800  141.4931  159.7626 H   0  0  0  0  0  0  0  0  0  0  0  0
  1  2  2  0  0  0  0
  2 16  1  0  0  0  0
  2  3  1  0  0  0  0
  3 18  1  0  0  0  0
  3  4  1  0  0  0  0
  4  5  2  0  0  0  0
  4  6  1  0  0  0  0
  6  7  1  0  0  0  0
  6 15  1  0  0  0  0
  7 19  1  0  0  0  0
  7 14  1  0  0  0  0
  7  8  1  0  0  0  0
  8  9  1  0  0  0  0
  8 22  1  0  0  0  0
  8 23  1  0  0  0  0
  9 20  1  0  0  0  0
  9 10  1  0  0  0  0
  9 11  1  0  0  0  0
 10 24  1  0  0  0  0
 11 21  1  0  0  0  0
 11 12  1  0  0  0  0
 11 14  1  0  0  0  0
 12 13  1  0  0  0  0
 12 25  1  0  0  0  0
 12 26  1  0  0  0  0
 13 27  1  0  0  0  0
 15 16  2  0  0  0  0
 15 28  1  0  0  0  0
 16 17  1  0  0  0  0
M  END
> <s_m_source_file>
AV-unprocessed.smi

> <i_m_source_file_index>
38

> <i_lp_mmshare_version>
43012

> <i_f3d_flags>
0

> <s_epik_input>
Tz1jMVtuSF1jKD1PKW4oW2NIXWMxRilbQ0BIXTJbQ0gyXVtDQEhdKFtPSF0pW0NASF0oTzIpW0NIMl1bT0hd

> <s_epik_cmdline>
J2VwaWtfcHl0aG9uJywgJy1waCcsICc3LjAnLCAnLXRuJywgJzgnLCAnLW1hJywgJzIwMCcsICctbWV0YWxfYmluZGluZycsICctaW1hZScsICc8aW5maWxlLm1hZT4nLCAnLW9tYWUnLCAnPG91dGZpbGUubWFlPic=

> <r_lp_tautomer_probability>
0.999537

> <r_epik_Ionization_Penalty>
0.0357432

> <r_epik_Ionization_Penalty_Charging>
0.0357431

> <r_epik_Ionization_Penalty_Neutral>
1.19946e-07

> <r_epik_State_Penalty>
0.0298169

> <r_epik_Charging_Adjusted_Penalty>
0.06556

> <i_epik_Tot_Q>
0

> <i_epik_Tot_abs_Q>
0

> <r_epik_Metal_State_Penalty>
2.348

> <b_epik_Metal_Only>
0

> <s_epik_Chemistry_Notes>
This compound contains an acetal/aminal-like group ( X-CH(R)-Y where X, Y are N, S, or O) that may be acid/base labile, releasing an aldehyde.

> <s_lp_Force_Field>
OPLS_2005

> <r_lp_Energy>
26.798

> <b_lp_Chiralities_Consistent>
1

> <s_lp_Variant>
AV-unprocessed.smi:38-2

> <Gold.Version>
5.8.1

> <Gold.Id.Protein>
6NUR|6NUR_protein|mol2

> <Gold.PLP.Fitness>
36.6862

> <Gold.PLP.PLP>
-29.1211

> <Gold.PLP.part.hbond>
-3.8825

> <Gold.PLP.part.metal>
0.0000

> <Gold.PLP.part.buried>
-6.1503

> <Gold.PLP.part.nonpolar>
-19.9272

> <Gold.PLP.part.repulsive>
0.2547

> <Gold.PLP.ligand.clash>
0.0000

> <Gold.PLP.ligand.torsion>
0.6119

> <Gold.PLP.Chemscore.Hbond>
2.9263

> <Gold.PLP.Chemscore.CHOScore>
0.0000

> <Gold.PLP.Chemscore.Metal>
0.0000

> <Gold.Chemscore.Hbonds>
donor molecule, donor type, donor heavy atom, donor atom, acceptor molecule, acceptor atom, score
      L1  H     3    18       P1  8028  1.00
      P1  H  6896  6907       L1    10  0.96
      P1  H  7997  8008       L1    14  1.00

> <Gold.PLP.Chemscore.Internal.Correction>
0.0102

> <Gold.Rescore>
     Score         DG    S(hbond)    S(metal)    S(lipo)     H(rot)  DE(clash)    DE(int)     intcor
     11.61     -12.07       2.90        0.00      37.30       2.91       0.00       0.46       ----

> <Gold.Chemscore.Fitness>
11.6121

> <Gold.Chemscore.DG>
-12.0744

> <Gold.Chemscore.ZeroCoef>
-5.4800

> <Gold.Chemscore.Hbond>
2.9013

> <Gold.Chemscore.Metal>
0.0000

> <Gold.Chemscore.Lipo>
37.2987

> <Gold.Chemscore.Internal_Hbond>
0.0000

> <Gold.Chemscore.DEClash>
0.0000

> <Gold.Chemscore.DEInternal>
0.4623

> <Gold.Chemscore.Rot>
2.9141

> <Gold.Chemscore.Internal.Correction>
   9.000000E+99

> <Gold.Chemscore.Hbonds>
donor molecule, donor type, donor heavy atom, donor atom, acceptor molecule, acceptor atom, score
      L1  H     3    18       P1  8028  0.98
      P1  H  6896  6907       L1    10  0.86
      P1  H  7997  8008       L1    14  0.28

> <Gold.Chemscore.Hbond.Weighted>
-9.6905

> <Gold.Chemscore.Metal.Weighted>
-0.0000

> <Gold.Chemscore.Lipo.Weighted>
-4.3639

> <Gold.Chemscore.Internal_Hbond.Weighted>
0.0000

> <Gold.Chemscore.DEClash.Weighted>
0.0000

> <Gold.Chemscore.DEInternal.Weighted>
0.4623

> <Gold.Chemscore.Rot.Weighted>
7.4601

> <Gold.Chemscore.Internal.Correction.Weighted>
   9.000000E+99

> <Gold.Protein.RotatedTorsions>
[ 6907 6896 6895 6894 ] final  -17.11 input  -60.11 | X-H torsion
[ 7974 7965 7964 7962 ] final  150.40 input  175.53 | X-H torsion
[ 8008 7997 7996 7995 ] final  -87.11 input   59.86 | X-H torsion
[ 10167 10162 10161 10158 ] final  102.43 input  -65.29 | X-H torsion
[ 10718 10713 10712 10709 ] final  -93.30 input   66.30 | X-H torsion
[ 10763 10752 10751 10750 ] final  -55.80 input  -60.55 | X-H torsion
[ 11005 11000 10999 10996 ] final   -3.56 input  -57.11 | X-H torsion

> <Gold.Protein.ActiveResidues>
 VAL166  LYS551  ARG553  GLY616  TRP617  ASP618  TYR619  PRO620  LYS621  CYS622 
 ASP623  PHE694  ASN695  SER759  ASP760  ASP761  ALA762  ILE779  LEU786  VAL792 
 PHE793  MET794  SER795  GLU796  ALA797  LYS798  CYS799  TRP800  GLU811  SER814 

> <Gold.Protein.RotatedAtoms>
  151.2984  135.0762  159.9229 H   0  0  0  0  0  0  0  0  0  0  0  0  # atno 6907 bound_to 6896
  152.5302  133.9859  159.7838 H   0  0  0  0  0  0  0  0  0  0  0  0  # atno 6908 bound_to 6896
  151.0141  133.5886  159.2709 H   0  0  0  0  0  0  0  0  0  0  0  0  # atno 6909 bound_to 6896
  144.8367  139.6404  143.6035 H   0  0  0  0  0  0  0  0  0  0  0  0  # atno 7974 bound_to 7965
  154.6595  140.0570  157.0046 H   0  0  0  0  0  0  0  0  0  0  0  0  # atno 8008 bound_to 7997
  155.1250  140.3251  155.4469 H   0  0  0  0  0  0  0  0  0  0  0  0  # atno 8009 bound_to 7997
  156.2612  140.1991  156.6371 H   0  0  0  0  0  0  0  0  0  0  0  0  # atno 8010 bound_to 7997
  139.7350  144.7026  151.0662 H   0  0  0  0  0  0  0  0  0  0  0  0  # atno 10167 bound_to 10162
  156.0012  130.5022  150.5756 H   0  0  0  0  0  0  0  0  0  0  0  0  # atno 10718 bound_to 10713
  154.1966  135.6418  153.5075 H   0  0  0  0  0  0  0  0  0  0  0  0  # atno 10763 bound_to 10752
  153.0022  135.5441  154.6359 H   0  0  0  0  0  0  0  0  0  0  0  0  # atno 10764 bound_to 10752
  154.5762  135.2921  155.0752 H   0  0  0  0  0  0  0  0  0  0  0  0  # atno 10765 bound_to 10752
  140.6707  133.9239  155.8493 H   0  0  0  0  0  0  0  0  0  0  0  0  # atno 11005 bound_to 11000
  146.2664  139.6531  142.9326 LP  0  0  0  0  0  0  0  0  0  0  0  0  # atno 17320 bound_to 7965
  145.4781  141.0437  143.2661 LP  0  0  0  0  0  0  0  0  0  0  0  0  # atno 17321 bound_to 7965
  140.7777  143.4995  150.9790 LP  0  0  0  0  0  0  0  0  0  0  0  0  # atno 17342 bound_to 10162
  139.8683  143.7225  152.3168 LP  0  0  0  0  0  0  0  0  0  0  0  0  # atno 17343 bound_to 10162
  157.3644  131.0755  151.1610 LP  0  0  0  0  0  0  0  0  0  0  0  0  # atno 17370 bound_to 10713
  157.2384  130.6557  149.5879 LP  0  0  0  0  0  0  0  0  0  0  0  0  # atno 17371 bound_to 10713
  141.0394  134.0643  157.3920 LP  0  0  0  0  0  0  0  0  0  0  0  0  # atno 17394 bound_to 11000
  139.8982  135.0154  156.7139 LP  0  0  0  0  0  0  0  0  0  0  0  0  # atno 17395 bound_to 11000

$$$$
