AV-unprocessed.smi:283|AV-procd|sdf|2146|dock1
  -GOLD-   2262021473D 1   1.00000     0.00000
 Structure written by MMmdl.
 48 51  0  0  0  0  0  0  0  0  1 V2000
  146.6414  138.7150  157.5088 C   0  0  0  0  0  0  0  0  0  0  0  0
  147.2761  138.9583  156.1330 C   0  0  1  0  0  0  0  0  0  0  0  0
  146.2290  139.2155  155.1466 N   0  0  0  0  0  0  0  0  0  0  0  0
  146.2312  138.6003  153.9432 C   0  0  0  0  0  0  0  0  0  0  0  0
  146.7848  139.3066  152.9288 N   0  0  0  0  0  0  0  0  0  0  0  0
  146.8554  138.7795  151.7036 C   0  0  0  0  0  0  0  0  0  0  0  0
  146.4371  137.5843  151.2850 N   0  0  0  0  0  0  0  0  0  0  0  0
  145.8641  136.8708  152.2973 C   0  0  0  0  0  0  0  0  0  0  0  0
  145.7156  137.3037  153.6463 C   0  0  0  0  0  0  0  0  0  0  0  0
  145.0696  136.3114  154.3756 N   0  0  0  0  0  0  0  0  0  0  0  0
  144.8704  135.3505  153.5157 C   0  0  0  0  0  0  0  0  0  0  0  0
  145.3164  135.6049  152.2394 N   0  0  0  0  0  0  0  0  0  0  0  0
  145.2425  134.7051  151.0450 C   0  0  2  0  0  0  0  0  0  0  0  0
  144.0216  134.0324  151.0978 O   0  0  0  0  0  0  0  0  0  0  0  0
  144.1879  132.6961  150.6449 C   0  0  1  0  0  0  0  0  0  0  0  0
  143.9778  132.6861  149.1140 C   0  0  0  0  0  0  0  0  0  0  0  0
  142.7295  132.1185  148.7772 O   0  0  0  0  0  0  0  0  0  0  0  0
  145.5974  132.3393  151.1448 C   0  0  1  0  0  0  0  0  0  0  0  0
  146.1951  131.2922  150.4045 O   0  0  0  0  0  0  0  0  0  0  0  0
  146.3693  133.6458  151.0020 C   0  0  2  0  0  0  0  0  0  0  0  0
  147.3431  133.7752  152.0231 O   0  0  0  0  0  0  0  0  0  0  0  0
  148.3502  140.0462  156.2284 C   0  0  0  0  0  0  0  0  0  0  0  0
  148.2654  141.0364  157.2352 C   0  0  0  0  0  0  0  0  0  0  0  0
  149.2423  142.0444  157.3365 C   0  0  0  0  0  0  0  0  0  0  0  0
  150.3224  142.0688  156.4363 C   0  0  0  0  0  0  0  0  0  0  0  0
  150.4256  141.0810  155.4398 C   0  0  0  0  0  0  0  0  0  0  0  0
  149.4502  140.0692  155.3339 C   0  0  0  0  0  0  0  0  0  0  0  0
  149.6377  138.8730  154.0995 Cl  0  0  0  0  0  0  0  0  0  0  0  0
  145.2673  135.3796  150.1882 H   0  0  0  0  0  0  0  0  0  0  0  0
  143.4321  132.0697  151.1207 H   0  0  0  0  0  0  0  0  0  0  0  0
  145.5372  132.0507  152.1954 H   0  0  0  0  0  0  0  0  0  0  0  0
  146.8508  133.7129  150.0253 H   0  0  0  0  0  0  0  0  0  0  0  0
  147.3949  138.4293  158.2432 H   0  0  0  0  0  0  0  0  0  0  0  0
  145.9051  137.9119  157.4660 H   0  0  0  0  0  0  0  0  0  0  0  0
  146.1390  139.6094  157.8788 H   0  0  0  0  0  0  0  0  0  0  0  0
  147.7449  138.0220  155.8353 H   0  0  0  0  0  0  0  0  0  0  0  0
  145.6922  140.0542  155.3126 H   0  0  0  0  0  0  0  0  0  0  0  0
  147.3151  139.4032  150.9513 H   0  0  0  0  0  0  0  0  0  0  0  0
  144.3876  134.4248  153.7925 H   0  0  0  0  0  0  0  0  0  0  0  0
  143.9788  133.7095  148.7376 H   0  0  0  0  0  0  0  0  0  0  0  0
  144.7786  132.1568  148.5974 H   0  0  0  0  0  0  0  0  0  0  0  0
  142.0528  132.7514  148.9649 H   0  0  0  0  0  0  0  0  0  0  0  0
  147.1335  131.3619  150.4929 H   0  0  0  0  0  0  0  0  0  0  0  0
  147.8187  134.5796  151.8840 H   0  0  0  0  0  0  0  0  0  0  0  0
  147.4456  141.0310  157.9383 H   0  0  0  0  0  0  0  0  0  0  0  0
  149.1632  142.7979  158.1060 H   0  0  0  0  0  0  0  0  0  0  0  0
  151.0734  142.8411  156.5127 H   0  0  0  0  0  0  0  0  0  0  0  0
  151.2600  141.0989  154.7543 H   0  0  0  0  0  0  0  0  0  0  0  0
  1  2  1  0  0  0  0
  1 33  1  0  0  0  0
  1 34  1  0  0  0  0
  1 35  1  0  0  0  0
  2  3  1  0  0  0  0
  2 22  1  0  0  0  0
  2 36  1  0  0  0  0
  3  4  1  0  0  0  0
  3 37  1  0  0  0  0
  4  9  1  0  0  0  0
  4  5  2  0  0  0  0
  5  6  1  0  0  0  0
  6  7  2  0  0  0  0
  6 38  1  0  0  0  0
  7  8  1  0  0  0  0
  8 12  1  0  0  0  0
  8  9  2  0  0  0  0
  9 10  1  0  0  0  0
 10 11  2  0  0  0  0
 11 12  1  0  0  0  0
 11 39  1  0  0  0  0
 12 13  1  0  0  0  0
 13 29  1  0  0  0  0
 13 20  1  0  0  0  0
 13 14  1  0  0  0  0
 14 15  1  0  0  0  0
 15 30  1  0  0  0  0
 15 16  1  0  0  0  0
 15 18  1  0  0  0  0
 16 17  1  0  0  0  0
 16 40  1  0  0  0  0
 16 41  1  0  0  0  0
 17 42  1  0  0  0  0
 18 31  1  0  0  0  0
 18 19  1  0  0  0  0
 18 20  1  0  0  0  0
 19 43  1  0  0  0  0
 20 32  1  0  0  0  0
 20 21  1  0  0  0  0
 21 44  1  0  0  0  0
 22 27  1  0  0  0  0
 22 23  2  0  0  0  0
 23 24  1  0  0  0  0
 23 45  1  0  0  0  0
 24 25  2  0  0  0  0
 24 46  1  0  0  0  0
 25 26  1  0  0  0  0
 25 47  1  0  0  0  0
 26 27  2  0  0  0  0
 26 48  1  0  0  0  0
 27 28  1  0  0  0  0
M  END
> <s_m_source_file>
AV-unprocessed.smi

> <i_m_source_file_index>
283

> <i_lp_mmshare_version>
43012

> <i_f3d_flags>
0

> <s_epik_input>
Q2xjMVtjSF1bY0hdW2NIXVtjSF1jMVtDQEhdKFtDSDNdKVtOSF1jKG5bY0hdbjIpYyhjMjMpbltjSF1uM1tDQEBIXTRPW0NASF0oW0NIMl1bT0hdKVtDQEBIXShbT0hdKVtDQEhdNFtPSF0=

> <s_epik_cmdline>
J2VwaWtfcHl0aG9uJywgJy1waCcsICc3LjAnLCAnLXRuJywgJzgnLCAnLW1hJywgJzIwMCcsICctbWV0YWxfYmluZGluZycsICctaW1hZScsICc8aW5maWxlLm1hZT4nLCAnLW9tYWUnLCAnPG91dGZpbGUubWFlPic=

> <r_lp_tautomer_probability>
1

> <r_epik_Ionization_Penalty>
0.000266407

> <r_epik_Ionization_Penalty_Charging>
0

> <r_epik_Ionization_Penalty_Neutral>
0.000266407

> <r_epik_State_Penalty>
-0

> <r_epik_Charging_Adjusted_Penalty>
0

> <i_epik_Tot_Q>
0

> <i_epik_Tot_abs_Q>
0

> <r_epik_Metal_State_Penalty>
-0

> <b_epik_Metal_Only>
0

> <s_epik_Chemistry_Notes>
This compound contains an acetal/aminal-like group ( X-CH(R)-Y where X, Y are N, S, or O) that may be acid/base labile, releasing an aldehyde.

> <s_lp_Force_Field>
OPLS_2005

> <r_lp_Energy>
50.6684

> <b_lp_Chiralities_Consistent>
1

> <s_lp_Variant>
AV-unprocessed.smi:283-22

> <Gold.Version>
5.8.1

> <Gold.Id.Protein>
6NUR|6NUR_protein|mol2

> <Gold.PLP.Fitness>
49.0189

> <Gold.PLP.PLP>
-39.8773

> <Gold.PLP.part.hbond>
-5.0000

> <Gold.PLP.part.metal>
0.0000

> <Gold.PLP.part.buried>
-6.6269

> <Gold.PLP.part.nonpolar>
-29.9870

> <Gold.PLP.part.repulsive>
2.1832

> <Gold.PLP.ligand.clash>
0.0000

> <Gold.PLP.ligand.torsion>
2.8770

> <Gold.PLP.Chemscore.Hbond>
4.0303

> <Gold.PLP.Chemscore.CHOScore>
0.8596

> <Gold.PLP.Chemscore.Metal>
0.0000

> <Gold.Chemscore.Hbonds>
donor molecule, donor type, donor heavy atom, donor atom, acceptor molecule, acceptor atom, score
      L1  H    17    42       P1 10186  0.98
      L1  H    19    43       P1 10747  1.00
      L1  H    21    44       P1  7948  1.00
      P1  H  7954  7966       L1     7  0.02
      P1  H 10785 10796       L1    17  1.00
      L1  C     6    38       P1  7957  0.83

> <Gold.PLP.Chemscore.Internal.Correction>
0.2260

> <Gold.Rescore>
     Score         DG    S(hbond)    S(metal)    S(lipo)     H(rot)  DE(clash)    DE(int)     intcor
     10.01     -13.02       3.20        0.00      62.79       4.10       0.12       2.89       ----

> <Gold.Chemscore.Fitness>
10.0088

> <Gold.Chemscore.DG>
-13.0168

> <Gold.Chemscore.ZeroCoef>
-5.4800

> <Gold.Chemscore.Hbond>
3.1969

> <Gold.Chemscore.Metal>
0.0000

> <Gold.Chemscore.Lipo>
62.7941

> <Gold.Chemscore.Internal_Hbond>
0.0000

> <Gold.Chemscore.DEClash>
0.1208

> <Gold.Chemscore.DEInternal>
2.8872

> <Gold.Chemscore.Rot>
4.0968

> <Gold.Chemscore.Internal.Correction>
   9.000000E+99

> <Gold.Chemscore.Hbonds>
donor molecule, donor type, donor heavy atom, donor atom, acceptor molecule, acceptor atom, score
      L1  H    17    42       P1 10186  0.92
      L1  H    19    43       P1 10747  0.98
      L1  H    21    44       P1  7948  0.25
      P1  H 10785 10796       L1    17  0.31

> <Gold.Chemscore.Hbond.Weighted>
-10.6778

> <Gold.Chemscore.Metal.Weighted>
-0.0000

> <Gold.Chemscore.Lipo.Weighted>
-7.3469

> <Gold.Chemscore.Internal_Hbond.Weighted>
0.0000

> <Gold.Chemscore.DEClash.Weighted>
0.1208

> <Gold.Chemscore.DEInternal.Weighted>
2.8872

> <Gold.Chemscore.Rot.Weighted>
10.4879

> <Gold.Chemscore.Internal.Correction.Weighted>
   9.000000E+99

> <Gold.Protein.RotatedTorsions>
[ 6907 6896 6895 6894 ] final   25.28 input  -60.11 | X-H torsion
[ 7974 7965 7964 7962 ] final  -68.70 input  175.53 | X-H torsion
[ 8008 7997 7996 7995 ] final  -81.53 input   59.86 | X-H torsion
[ 10167 10162 10161 10158 ] final   42.57 input  -65.29 | X-H torsion
[ 10718 10713 10712 10709 ] final  126.89 input   66.30 | X-H torsion
[ 10763 10752 10751 10750 ] final  -20.35 input  -60.55 | X-H torsion
[ 11005 11000 10999 10996 ] final  174.05 input  -57.11 | X-H torsion

> <Gold.Protein.ActiveResidues>
 VAL166  LYS551  ARG553  GLY616  TRP617  ASP618  TYR619  PRO620  LYS621  CYS622 
 ASP623  PHE694  ASN695  SER759  ASP760  ASP761  ALA762  ILE779  LEU786  VAL792 
 PHE793  MET794  SER795  GLU796  ALA797  LYS798  CYS799  TRP800  GLU811  SER814 

> <Gold.Protein.RotatedAtoms>
  151.9701  135.0081  160.0552 H   0  0  0  0  0  0  0  0  0  0  0  0  # atno 6907 bound_to 6896
  152.1790  133.4690  159.4957 H   0  0  0  0  0  0  0  0  0  0  0  0  # atno 6908 bound_to 6896
  150.6914  134.1774  159.4278 H   0  0  0  0  0  0  0  0  0  0  0  0  # atno 6909 bound_to 6896
  145.7132  140.9070  143.0670 H   0  0  0  0  0  0  0  0  0  0  0  0  # atno 7974 bound_to 7965
  154.5992  140.0646  156.9346 H   0  0  0  0  0  0  0  0  0  0  0  0  # atno 8008 bound_to 7997
  155.2161  140.3326  155.4304 H   0  0  0  0  0  0  0  0  0  0  0  0  # atno 8009 bound_to 7997
  156.2307  140.1840  156.7233 H   0  0  0  0  0  0  0  0  0  0  0  0  # atno 8010 bound_to 7997
  140.3531  144.2325  150.6144 H   0  0  0  0  0  0  0  0  0  0  0  0  # atno 10167 bound_to 10162
  157.5380  131.1097  150.8904 H   0  0  0  0  0  0  0  0  0  0  0  0  # atno 10718 bound_to 10713
  153.6190  135.6993  153.5318 H   0  0  0  0  0  0  0  0  0  0  0  0  # atno 10763 bound_to 10752
  153.2953  135.4145  155.1204 H   0  0  0  0  0  0  0  0  0  0  0  0  # atno 10764 bound_to 10752
  154.8547  135.3635  154.5730 H   0  0  0  0  0  0  0  0  0  0  0  0  # atno 10765 bound_to 10752
  140.3471  134.7227  157.4242 H   0  0  0  0  0  0  0  0  0  0  0  0  # atno 11005 bound_to 11000
  144.6936  139.9102  143.7463 LP  0  0  0  0  0  0  0  0  0  0  0  0  # atno 17320 bound_to 7965
  146.0694  139.3683  143.0532 LP  0  0  0  0  0  0  0  0  0  0  0  0  # atno 17321 bound_to 7965
  140.5200  143.2268  151.8404 LP  0  0  0  0  0  0  0  0  0  0  0  0  # atno 17342 bound_to 10162
  139.4823  144.4848  151.9260 LP  0  0  0  0  0  0  0  0  0  0  0  0  # atno 17343 bound_to 10162
  156.9465  130.5404  149.5281 LP  0  0  0  0  0  0  0  0  0  0  0  0  # atno 17370 bound_to 10713
  156.0474  130.5548  150.8912 LP  0  0  0  0  0  0  0  0  0  0  0  0  # atno 17371 bound_to 10713
  140.0733  134.5832  155.8618 LP  0  0  0  0  0  0  0  0  0  0  0  0  # atno 17394 bound_to 11000
  141.2022  133.6624  156.5996 LP  0  0  0  0  0  0  0  0  0  0  0  0  # atno 17395 bound_to 11000

$$$$
