AV-unprocessed.smi:2276|AV-procd|sdf|9177|dock2
  -GOLD-   2272012393D 1   1.00000     0.00000
 Structure written by MMmdl.
 52 53  0  0  0  0  0  0  0  0  1 V2000
  143.2307  132.6146  149.1082 C   0  0  0  0  0  0  0  0  0  0  0  0
  144.3364  132.6124  150.1430 C   0  0  0  0  0  0  0  0  0  0  0  0
  144.7862  131.4085  150.7181 C   0  0  0  0  0  0  0  0  0  0  0  0
  145.8191  131.4738  151.6739 C   0  0  0  0  0  0  0  0  0  0  0  0
  146.3482  130.2195  152.3370 C   0  0  0  0  0  0  0  0  0  0  0  0
  146.3956  132.6328  152.0577 N   0  0  0  0  0  0  0  0  0  0  0  0
  145.9713  133.7984  151.5096 C   0  0  0  0  0  0  0  0  0  0  0  0
  146.5076  135.0689  151.8488 N   0  0  0  0  0  0  0  0  0  0  0  0
  145.8493  136.2282  152.0247 C   0  0  0  0  0  0  0  0  0  0  0  0
  144.6298  136.3764  151.9396 O   0  0  0  0  0  0  0  0  0  0  0  0
  146.6939  137.2242  152.3242 N   0  0  0  0  0  0  0  0  0  0  0  0
  146.2886  138.5950  152.6135 C   0  0  0  0  0  0  0  0  0  0  0  0
  147.4509  139.4307  153.1918 C   0  0  1  0  0  0  0  0  0  0  0  0
  147.0955  140.9293  153.2446 C   0  0  0  0  0  0  0  0  0  0  0  0
  147.9185  138.9684  154.5928 C   0  0  0  0  0  0  0  0  0  0  0  0
  148.7071  139.9403  155.3558 N   0  0  0  0  0  0  0  0  0  0  0  0
  149.8515  140.4524  154.5913 C   0  0  0  0  0  0  0  0  0  0  0  0
  150.6508  141.4914  155.3991 C   0  0  0  0  0  0  0  0  0  0  0  0
  151.1575  140.9194  156.6446 N   0  0  0  0  0  0  0  0  0  0  0  0
  151.9124  141.8965  157.4140 C   0  0  0  0  0  0  0  0  0  0  0  0
  150.0352  140.3823  157.4108 C   0  0  0  0  0  0  0  0  0  0  0  0
  149.2350  139.3527  156.5898 C   0  0  0  0  0  0  0  0  0  0  0  0
  144.9367  133.8219  150.5474 C   0  0  0  0  0  0  0  0  0  0  0  0
  142.8290  131.6125  148.9552 H   0  0  0  0  0  0  0  0  0  0  0  0
  143.6089  132.9803  148.1533 H   0  0  0  0  0  0  0  0  0  0  0  0
  142.4147  133.2635  149.4271 H   0  0  0  0  0  0  0  0  0  0  0  0
  144.3512  130.4610  150.4351 H   0  0  0  0  0  0  0  0  0  0  0  0
  145.8014  129.3359  152.0068 H   0  0  0  0  0  0  0  0  0  0  0  0
  146.2515  130.2937  153.4205 H   0  0  0  0  0  0  0  0  0  0  0  0
  147.4020  130.0789  152.0949 H   0  0  0  0  0  0  0  0  0  0  0  0
  147.5075  135.0961  151.9815 H   0  0  0  0  0  0  0  0  0  0  0  0
  147.6813  137.0198  152.3721 H   0  0  0  0  0  0  0  0  0  0  0  0
  145.8950  139.0707  151.7135 H   0  0  0  0  0  0  0  0  0  0  0  0
  145.4761  138.5302  153.3356 H   0  0  0  0  0  0  0  0  0  0  0  0
  148.3011  139.3276  152.5157 H   0  0  0  0  0  0  0  0  0  0  0  0
  146.2274  141.1053  153.8807 H   0  0  0  0  0  0  0  0  0  0  0  0
  146.8710  141.3315  152.2567 H   0  0  0  0  0  0  0  0  0  0  0  0
  147.9226  141.5171  153.6440 H   0  0  0  0  0  0  0  0  0  0  0  0
  147.0116  138.7426  155.1561 H   0  0  0  0  0  0  0  0  0  0  0  0
  148.4492  138.0177  154.5242 H   0  0  0  0  0  0  0  0  0  0  0  0
  150.5107  139.6286  154.3124 H   0  0  0  0  0  0  0  0  0  0  0  0
  149.5293  140.9062  153.6578 H   0  0  0  0  0  0  0  0  0  0  0  0
  151.4838  141.8551  154.7962 H   0  0  0  0  0  0  0  0  0  0  0  0
  150.0185  142.3551  155.6122 H   0  0  0  0  0  0  0  0  0  0  0  0
  152.3058  141.4485  158.3272 H   0  0  0  0  0  0  0  0  0  0  0  0
  151.2880  142.7461  157.6936 H   0  0  0  0  0  0  0  0  0  0  0  0
  152.7581  142.2718  156.8368 H   0  0  0  0  0  0  0  0  0  0  0  0
  150.4041  139.9103  158.3221 H   0  0  0  0  0  0  0  0  0  0  0  0
  149.3743  141.1921  157.7241 H   0  0  0  0  0  0  0  0  0  0  0  0
  148.4131  138.9785  157.2012 H   0  0  0  0  0  0  0  0  0  0  0  0
  149.8670  138.4939  156.3567 H   0  0  0  0  0  0  0  0  0  0  0  0
  144.6070  134.7577  150.1191 H   0  0  0  0  0  0  0  0  0  0  0  0
  1  2  1  0  0  0  0
  1 24  1  0  0  0  0
  1 25  1  0  0  0  0
  1 26  1  0  0  0  0
  2 23  1  0  0  0  0
  2  3  2  0  0  0  0
  3  4  1  0  0  0  0
  3 27  1  0  0  0  0
  4  5  1  0  0  0  0
  4  6  2  0  0  0  0
  5 28  1  0  0  0  0
  5 29  1  0  0  0  0
  5 30  1  0  0  0  0
  6  7  1  0  0  0  0
  7  8  1  0  0  0  0
  7 23  2  0  0  0  0
  8  9  1  0  0  0  0
  8 31  1  0  0  0  0
  9 10  2  0  0  0  0
  9 11  1  0  0  0  0
 11 12  1  0  0  0  0
 11 32  1  0  0  0  0
 12 13  1  0  0  0  0
 12 33  1  0  0  0  0
 12 34  1  0  0  0  0
 13 14  1  0  0  0  0
 13 15  1  0  0  0  0
 13 35  1  0  0  0  0
 14 36  1  0  0  0  0
 14 37  1  0  0  0  0
 14 38  1  0  0  0  0
 15 16  1  0  0  0  0
 15 39  1  0  0  0  0
 15 40  1  0  0  0  0
 16 22  1  0  0  0  0
 16 17  1  0  0  0  0
 17 18  1  0  0  0  0
 17 41  1  0  0  0  0
 17 42  1  0  0  0  0
 18 19  1  0  0  0  0
 18 43  1  0  0  0  0
 18 44  1  0  0  0  0
 19 20  1  0  0  0  0
 19 21  1  0  0  0  0
 20 45  1  0  0  0  0
 20 46  1  0  0  0  0
 20 47  1  0  0  0  0
 21 22  1  0  0  0  0
 21 48  1  0  0  0  0
 21 49  1  0  0  0  0
 22 50  1  0  0  0  0
 22 51  1  0  0  0  0
 23 52  1  0  0  0  0
M  END
> <s_m_source_file>
AV-unprocessed.smi

> <i_m_source_file_index>
2276

> <i_lp_mmshare_version>
43012

> <i_f3d_flags>
0

> <s_epik_input>
W0NIM11jMVtjSF1jKFtDSDNdKW5jKFtjSF0xKVtOSF1DKD1PKVtOSF1bQ0gyXVtDQEhdKFtDSDNdKVtDSDJdTjJbQ0gyXVtDSDJdTihbQ0gzXSlbQ0gyXVtDSDJdMg==

> <s_epik_cmdline>
J2VwaWtfcHl0aG9uJywgJy1waCcsICc3LjAnLCAnLXRuJywgJzgnLCAnLW1hJywgJzIwMCcsICctbWV0YWxfYmluZGluZycsICctaW1hZScsICc8aW5maWxlLm1hZT4nLCAnLW9tYWUnLCAnPG91dGZpbGUubWFlPic=

> <r_epik_Ionization_Penalty>
3.46991

> <r_epik_Ionization_Penalty_Charging>
0

> <r_epik_Ionization_Penalty_Neutral>
3.46991

> <r_epik_State_Penalty>
2.28006

> <r_epik_Charging_Adjusted_Penalty>
2.28006

> <i_epik_Tot_Q>
0

> <i_epik_Tot_abs_Q>
0

> <r_epik_Metal_State_Penalty>
2.28005

> <b_epik_Metal_Only>
0

> <s_lp_Force_Field>
OPLS_2005

> <r_lp_Energy>
40.6997

> <b_lp_Chiralities_Consistent>
1

> <s_lp_Variant>
AV-unprocessed.smi:2276-6

> <Gold.Version>
5.8.1

> <Gold.Id.Protein>
6NUR|6NUR_protein|mol2

> <Gold.PLP.Fitness>
41.0676

> <Gold.PLP.PLP>
-37.3497

> <Gold.PLP.part.hbond>
-1.8178

> <Gold.PLP.part.metal>
0.0000

> <Gold.PLP.part.buried>
-2.7624

> <Gold.PLP.part.nonpolar>
-33.7384

> <Gold.PLP.part.repulsive>
1.4171

> <Gold.PLP.ligand.clash>
0.0000

> <Gold.PLP.ligand.torsion>
0.6380

> <Gold.PLP.Chemscore.Hbond>
1.6320

> <Gold.PLP.Chemscore.CHOScore>
0.0000

> <Gold.PLP.Chemscore.Metal>
0.0000

> <Gold.Chemscore.Hbonds>
donor molecule, donor type, donor heavy atom, donor atom, acceptor molecule, acceptor atom, score
      L1  H     8    31       P1  7948  0.85
      L1  H    11    32       P1  7948  1.00

> <Gold.PLP.Chemscore.Internal.Correction>
0.0979

> <Gold.Rescore>
     Score         DG    S(hbond)    S(metal)    S(lipo)     H(rot)  DE(clash)    DE(int)     intcor
     17.79     -19.85       1.77        0.00     106.51       1.57       0.19       1.87       ----

> <Gold.Chemscore.Fitness>
17.7895

> <Gold.Chemscore.DG>
-19.8458

> <Gold.Chemscore.ZeroCoef>
-5.4800

> <Gold.Chemscore.Hbond>
1.7747

> <Gold.Chemscore.Metal>
0.0000

> <Gold.Chemscore.Lipo>
106.5076

> <Gold.Chemscore.Internal_Hbond>
0.0000

> <Gold.Chemscore.DEClash>
0.1876

> <Gold.Chemscore.DEInternal>
1.8687

> <Gold.Chemscore.Rot>
1.5715

> <Gold.Chemscore.Internal.Correction>
   9.000000E+99

> <Gold.Chemscore.Hbonds>
donor molecule, donor type, donor heavy atom, donor atom, acceptor molecule, acceptor atom, score
      L1  H     8    31       P1  7948  0.77
      L1  H    11    32       P1  7948  0.91

> <Gold.Chemscore.Hbond.Weighted>
-5.9275

> <Gold.Chemscore.Metal.Weighted>
-0.0000

> <Gold.Chemscore.Lipo.Weighted>
-12.4614

> <Gold.Chemscore.Internal_Hbond.Weighted>
0.0000

> <Gold.Chemscore.DEClash.Weighted>
0.1876

> <Gold.Chemscore.DEInternal.Weighted>
1.8687

> <Gold.Chemscore.Rot.Weighted>
4.0231

> <Gold.Chemscore.Internal.Correction.Weighted>
   9.000000E+99

> <Gold.Protein.RotatedTorsions>
[ 6907 6896 6895 6894 ] final -116.77 input  -60.11 | X-H torsion
[ 7974 7965 7964 7962 ] final  -68.09 input  175.53 | X-H torsion
[ 8008 7997 7996 7995 ] final    8.76 input   59.86 | X-H torsion
[ 10167 10162 10161 10158 ] final  115.84 input  -65.29 | X-H torsion
[ 10718 10713 10712 10709 ] final -142.61 input   66.30 | X-H torsion
[ 10763 10752 10751 10750 ] final   92.42 input  -60.55 | X-H torsion
[ 11005 11000 10999 10996 ] final  165.18 input  -57.11 | X-H torsion

> <Gold.Protein.ActiveResidues>
 VAL166  LYS551  ARG553  GLY616  TRP617  ASP618  TYR619  PRO620  LYS621  CYS622 
 ASP623  PHE694  ASN695  SER759  ASP760  ASP761  ALA762  ILE779  LEU786  VAL792 
 PHE793  MET794  SER795  GLU796  ALA797  LYS798  CYS799  TRP800  GLU811  SER814 

> <Gold.Protein.RotatedAtoms>
  150.8082  133.8470  159.3194 H   0  0  0  0  0  0  0  0  0  0  0  0  # atno 6907 bound_to 6896
  151.6263  135.1025  160.0122 H   0  0  0  0  0  0  0  0  0  0  0  0  # atno 6908 bound_to 6896
  152.4174  133.7020  159.6486 H   0  0  0  0  0  0  0  0  0  0  0  0  # atno 6909 bound_to 6896
  145.7209  140.9039  143.0630 H   0  0  0  0  0  0  0  0  0  0  0  0  # atno 7974 bound_to 7965
  154.7711  140.2802  155.6137 H   0  0  0  0  0  0  0  0  0  0  0  0  # atno 8008 bound_to 7997
  156.2934  140.2641  156.2441 H   0  0  0  0  0  0  0  0  0  0  0  0  # atno 8009 bound_to 7997
  154.9899  140.0374  157.2304 H   0  0  0  0  0  0  0  0  0  0  0  0  # atno 8010 bound_to 7997
  139.6289  144.7112  151.2475 H   0  0  0  0  0  0  0  0  0  0  0  0  # atno 10167 bound_to 10162
  156.3480  130.7673  151.1821 H   0  0  0  0  0  0  0  0  0  0  0  0  # atno 10718 bound_to 10713
  153.2190  135.4362  155.0467 H   0  0  0  0  0  0  0  0  0  0  0  0  # atno 10763 bound_to 10752
  154.8240  135.3351  154.6955 H   0  0  0  0  0  0  0  0  0  0  0  0  # atno 10764 bound_to 10752
  153.7388  135.7006  153.5028 H   0  0  0  0  0  0  0  0  0  0  0  0  # atno 10765 bound_to 10752
  140.2535  134.7958  157.3524 H   0  0  0  0  0  0  0  0  0  0  0  0  # atno 11005 bound_to 11000
  144.6917  139.9201  143.7467 LP  0  0  0  0  0  0  0  0  0  0  0  0  # atno 17320 bound_to 7965
  146.0626  139.3619  143.0572 LP  0  0  0  0  0  0  0  0  0  0  0  0  # atno 17321 bound_to 7965
  140.7427  143.6517  150.8242 LP  0  0  0  0  0  0  0  0  0  0  0  0  # atno 17342 bound_to 10162
  140.0139  143.5613  152.2828 LP  0  0  0  0  0  0  0  0  0  0  0  0  # atno 17343 bound_to 10162
  157.7457  131.0435  150.4749 LP  0  0  0  0  0  0  0  0  0  0  0  0  # atno 17370 bound_to 10713
  156.4940  130.4102  149.6390 LP  0  0  0  0  0  0  0  0  0  0  0  0  # atno 17371 bound_to 10713
  140.1534  134.4820  155.7945 LP  0  0  0  0  0  0  0  0  0  0  0  0  # atno 17394 bound_to 11000
  141.2199  133.6872  156.7419 LP  0  0  0  0  0  0  0  0  0  0  0  0  # atno 17395 bound_to 11000

$$$$
