AV-unprocessed.smi:1283|AV-procd|sdf|5361|dock3
  -GOLD-   22720 4503D 1   1.00000     0.00000
 Structure written by MMmdl.
 30 31  0  0  0  0  0  0  0  0  1 V2000
  152.4664  138.3425  154.2546 C   0  0  0  0  0  0  0  0  0  0  0  0
  152.0189  139.1479  155.3901 N   0  0  0  0  0  0  0  0  0  0  0  0
  151.1205  140.1434  155.0687 N   0  0  0  0  0  0  0  0  0  0  0  0
  150.6645  140.9093  155.9991 C   0  0  0  0  0  0  0  0  0  0  0  0
  151.0608  140.7787  157.3937 C   0  0  0  0  0  0  0  0  0  0  0  0
  150.5710  141.6037  158.3988 N   0  0  0  0  0  0  0  0  0  0  0  0
  149.6226  142.7028  158.2965 C   0  0  0  0  0  0  0  0  0  0  0  0
  150.2433  144.0164  158.7887 C   0  0  2  0  0  0  0  0  0  0  0  0
  151.5516  144.3789  158.0880 C   0  0  0  0  0  0  0  0  0  0  0  0
  152.2811  145.2381  159.1101 C   0  0  0  0  0  0  0  0  0  0  0  0
  151.5126  145.0022  160.4135 C   0  0  0  0  0  0  0  0  0  0  0  0
  150.6554  143.9031  160.1414 O   0  0  0  0  0  0  0  0  0  0  0  0
  151.9411  139.7817  157.6814 C   0  0  0  0  0  0  0  0  0  0  0  0
  152.4760  139.5305  159.3100 Cl  0  0  0  0  0  0  0  0  0  0  0  0
  152.4806  138.8873  156.6467 C   0  0  0  0  0  0  0  0  0  0  0  0
  153.2796  137.9790  156.8785 O   0  0  0  0  0  0  0  0  0  0  0  0
  152.1913  137.2961  154.3943 H   0  0  0  0  0  0  0  0  0  0  0  0
  153.5502  138.4000  154.1453 H   0  0  0  0  0  0  0  0  0  0  0  0
  152.0238  138.6764  153.3146 H   0  0  0  0  0  0  0  0  0  0  0  0
  149.9458  141.6957  155.7732 H   0  0  0  0  0  0  0  0  0  0  0  0
  151.0602  141.5625  159.2817 H   0  0  0  0  0  0  0  0  0  0  0  0
  149.2706  142.8334  157.2739 H   0  0  0  0  0  0  0  0  0  0  0  0
  148.7528  142.4531  158.9044 H   0  0  0  0  0  0  0  0  0  0  0  0
  149.5327  144.8399  158.6929 H   0  0  0  0  0  0  0  0  0  0  0  0
  152.1346  143.4787  157.8882 H   0  0  0  0  0  0  0  0  0  0  0  0
  151.3910  144.8914  157.1393 H   0  0  0  0  0  0  0  0  0  0  0  0
  153.3244  144.9332  159.1978 H   0  0  0  0  0  0  0  0  0  0  0  0
  152.2617  146.2935  158.8363 H   0  0  0  0  0  0  0  0  0  0  0  0
  152.1702  144.7899  161.2566 H   0  0  0  0  0  0  0  0  0  0  0  0
  150.9073  145.8742  160.6652 H   0  0  0  0  0  0  0  0  0  0  0  0
  1  2  1  0  0  0  0
  1 17  1  0  0  0  0
  1 18  1  0  0  0  0
  1 19  1  0  0  0  0
  2 15  1  0  0  0  0
  2  3  1  0  0  0  0
  3  4  2  0  0  0  0
  4  5  1  0  0  0  0
  4 20  1  0  0  0  0
  5  6  1  0  0  0  0
  5 13  2  0  0  0  0
  6  7  1  0  0  0  0
  6 21  1  0  0  0  0
  7  8  1  0  0  0  0
  7 22  1  0  0  0  0
  7 23  1  0  0  0  0
  8 12  1  0  0  0  0
  8  9  1  0  0  0  0
  8 24  1  0  0  0  0
  9 10  1  0  0  0  0
  9 25  1  0  0  0  0
  9 26  1  0  0  0  0
 10 11  1  0  0  0  0
 10 27  1  0  0  0  0
 10 28  1  0  0  0  0
 11 12  1  0  0  0  0
 11 29  1  0  0  0  0
 11 30  1  0  0  0  0
 13 14  1  0  0  0  0
 13 15  1  0  0  0  0
 15 16  2  0  0  0  0
M  END
> <s_m_source_file>
AV-unprocessed.smi

> <i_m_source_file_index>
1283

> <i_lp_mmshare_version>
43012

> <i_f3d_flags>
0

> <s_epik_input>
W0NIM11uMW5bY0hdYyhjKENsKWMxPU8pW05IXVtDSDJdW0NAQEhdMltDSDJdW0NIMl1bQ0gyXU8y

> <s_epik_cmdline>
J2VwaWtfcHl0aG9uJywgJy1waCcsICc3LjAnLCAnLXRuJywgJzgnLCAnLW1hJywgJzIwMCcsICctbWV0YWxfYmluZGluZycsICctaW1hZScsICc8aW5maWxlLm1hZT4nLCAnLW9tYWUnLCAnPG91dGZpbGUubWFlPic=

> <r_lp_tautomer_probability>
1

> <r_epik_Ionization_Penalty>
2.40876e-05

> <r_epik_Ionization_Penalty_Charging>
4.17655e-09

> <r_epik_Ionization_Penalty_Neutral>
2.40834e-05

> <r_epik_State_Penalty>
-0

> <r_epik_Charging_Adjusted_Penalty>
4.17655e-09

> <i_epik_Tot_Q>
0

> <i_epik_Tot_abs_Q>
0

> <r_epik_Metal_State_Penalty>
-0

> <b_epik_Metal_Only>
0

> <s_lp_Force_Field>
OPLS_2005

> <r_lp_Energy>
38.2243

> <b_lp_Chiralities_Consistent>
1

> <s_lp_Variant>
AV-unprocessed.smi:1283-1

> <Gold.Version>
5.8.1

> <Gold.Id.Protein>
6NUR|6NUR_protein|mol2

> <Gold.PLP.Fitness>
36.5016

> <Gold.PLP.PLP>
-33.5075

> <Gold.PLP.part.hbond>
-1.5717

> <Gold.PLP.part.metal>
0.0000

> <Gold.PLP.part.buried>
-5.8672

> <Gold.PLP.part.nonpolar>
-26.1635

> <Gold.PLP.part.repulsive>
0.2831

> <Gold.PLP.ligand.clash>
0.0000

> <Gold.PLP.ligand.torsion>
0.0074

> <Gold.PLP.Chemscore.Hbond>
1.0000

> <Gold.PLP.Chemscore.CHOScore>
0.0000

> <Gold.PLP.Chemscore.Metal>
0.0000

> <Gold.Chemscore.Hbonds>
donor molecule, donor type, donor heavy atom, donor atom, acceptor molecule, acceptor atom, score
      P1  H  7989  7998       L1     3  1.00

> <Gold.PLP.Chemscore.Internal.Correction>
0.0088

> <Gold.Rescore>
     Score         DG    S(hbond)    S(metal)    S(lipo)     H(rot)  DE(clash)    DE(int)     intcor
     14.80     -14.84       0.81        0.00      83.63       1.22       0.01       0.02       ----

> <Gold.Chemscore.Fitness>
14.8035

> <Gold.Chemscore.DG>
-14.8378

> <Gold.Chemscore.ZeroCoef>
-5.4800

> <Gold.Chemscore.Hbond>
0.8080

> <Gold.Chemscore.Metal>
0.0000

> <Gold.Chemscore.Lipo>
83.6275

> <Gold.Chemscore.Internal_Hbond>
0.0000

> <Gold.Chemscore.DEClash>
0.0110

> <Gold.Chemscore.DEInternal>
0.0232

> <Gold.Chemscore.Rot>
1.2208

> <Gold.Chemscore.Internal.Correction>
   9.000000E+99

> <Gold.Chemscore.Hbonds>
donor molecule, donor type, donor heavy atom, donor atom, acceptor molecule, acceptor atom, score
      P1  H  7989  7998       L1     3  0.63

> <Gold.Chemscore.Hbond.Weighted>
-2.6987

> <Gold.Chemscore.Metal.Weighted>
-0.0000

> <Gold.Chemscore.Lipo.Weighted>
-9.7844

> <Gold.Chemscore.Internal_Hbond.Weighted>
0.0000

> <Gold.Chemscore.DEClash.Weighted>
0.0110

> <Gold.Chemscore.DEInternal.Weighted>
0.0232

> <Gold.Chemscore.Rot.Weighted>
3.1253

> <Gold.Chemscore.Internal.Correction.Weighted>
   9.000000E+99

> <Gold.Protein.RotatedTorsions>
[ 6907 6896 6895 6894 ] final   74.89 input  -60.11 | X-H torsion
[ 7974 7965 7964 7962 ] final  -97.08 input  175.53 | X-H torsion
[ 8008 7997 7996 7995 ] final   43.71 input   59.86 | X-H torsion
[ 10167 10162 10161 10158 ] final   37.36 input  -65.29 | X-H torsion
[ 10718 10713 10712 10709 ] final   39.53 input   66.30 | X-H torsion
[ 10763 10752 10751 10750 ] final  -32.56 input  -60.55 | X-H torsion
[ 11005 11000 10999 10996 ] final -143.28 input  -57.11 | X-H torsion

> <Gold.Protein.ActiveResidues>
 VAL166  LYS551  ARG553  GLY616  TRP617  ASP618  TYR619  PRO620  LYS621  CYS622 
 ASP623  PHE694  ASN695  SER759  ASP760  ASP761  ALA762  ILE779  LEU786  VAL792 
 PHE793  MET794  SER795  GLU796  ALA797  LYS798  CYS799  TRP800  GLU811  SER814 

> <Gold.Protein.RotatedAtoms>
  152.4999  134.4203  159.9477 H   0  0  0  0  0  0  0  0  0  0  0  0  # atno 6907 bound_to 6896
  151.4175  133.3702  159.2759 H   0  0  0  0  0  0  0  0  0  0  0  0  # atno 6908 bound_to 6896
  150.9246  134.8686  159.7571 H   0  0  0  0  0  0  0  0  0  0  0  0  # atno 6909 bound_to 6896
  145.3384  140.9455  143.2622 H   0  0  0  0  0  0  0  0  0  0  0  0  # atno 7974 bound_to 7965
  155.3073  140.3389  155.4245 H   0  0  0  0  0  0  0  0  0  0  0  0  # atno 8008 bound_to 7997
  156.1973  140.1719  156.8011 H   0  0  0  0  0  0  0  0  0  0  0  0  # atno 8009 bound_to 7997
  154.5514  140.0705  156.8658 H   0  0  0  0  0  0  0  0  0  0  0  0  # atno 8010 bound_to 7997
  140.4039  144.1685  150.6135 H   0  0  0  0  0  0  0  0  0  0  0  0  # atno 10167 bound_to 10162
  157.3717  130.7704  149.7124 H   0  0  0  0  0  0  0  0  0  0  0  0  # atno 10718 bound_to 10713
  153.8157  135.6878  153.4834 H   0  0  0  0  0  0  0  0  0  0  0  0  # atno 10763 bound_to 10752
  153.1600  135.4583  154.9757 H   0  0  0  0  0  0  0  0  0  0  0  0  # atno 10764 bound_to 10752
  154.7949  135.3315  154.7634 H   0  0  0  0  0  0  0  0  0  0  0  0  # atno 10765 bound_to 10752
  140.8140  134.2710  157.4929 H   0  0  0  0  0  0  0  0  0  0  0  0  # atno 11005 bound_to 11000
  144.8809  139.4905  143.6723 LP  0  0  0  0  0  0  0  0  0  0  0  0  # atno 17320 bound_to 7965
  146.3017  139.7449  142.9086 LP  0  0  0  0  0  0  0  0  0  0  0  0  # atno 17321 bound_to 7965
  140.4710  143.2413  151.9089 LP  0  0  0  0  0  0  0  0  0  0  0  0  # atno 17342 bound_to 10162
  139.4784  144.5370  151.8584 LP  0  0  0  0  0  0  0  0  0  0  0  0  # atno 17343 bound_to 10162
  155.9757  130.4086  150.3832 LP  0  0  0  0  0  0  0  0  0  0  0  0  # atno 17370 bound_to 10713
  157.1924  131.0418  151.2693 LP  0  0  0  0  0  0  0  0  0  0  0  0  # atno 17371 bound_to 10713
  139.8712  134.9499  156.4039 LP  0  0  0  0  0  0  0  0  0  0  0  0  # atno 17394 bound_to 11000
  140.9168  133.7673  155.9857 LP  0  0  0  0  0  0  0  0  0  0  0  0  # atno 17395 bound_to 11000

$$$$
