AV-unprocessed.smi:2830|AV-procd|sdf|10906|dock5
  -GOLD-   2272015353D 1   1.00000     0.00000
 Structure written by MMmdl.
 28 28  0  0  0  0  0  0  0  0  1 V2000
  146.4334  142.2068  154.7176 C   0  0  0  0  0  0  0  0  0  0  0  0
  146.3247  140.8630  154.2821 O   0  0  0  0  0  0  0  0  0  0  0  0
  147.5675  140.3251  153.8557 C   0  0  0  0  0  0  0  0  0  0  0  0
  147.4535  138.7972  153.6971 C   0  0  2  0  0  0  0  0  0  0  0  0
  148.7891  138.2219  153.5473 N   0  0  0  0  0  0  0  0  0  0  0  0
  149.8083  138.4537  154.4844 C   0  0  0  0  0  0  0  0  0  0  0  0
  151.1364  138.1473  154.1200 C   0  0  0  0  0  0  0  0  0  0  0  0
  152.1688  138.3807  155.0494 C   0  0  0  0  0  0  0  0  0  0  0  0
  151.8380  138.9145  156.3103 C   0  0  0  0  0  0  0  0  0  0  0  0
  152.8667  139.1748  157.3022 C   0  0  0  0  0  0  0  0  0  0  0  0
  153.6863  139.3820  158.0923 N   0  0  0  0  0  0  0  0  0  0  0  0
  150.4833  139.1907  156.5841 C   0  0  0  0  0  0  0  0  0  0  0  0
  149.4900  138.9693  155.6964 N   0  0  0  0  0  0  0  0  0  0  0  0
  146.5178  138.4541  152.5257 C   0  0  0  0  0  0  0  0  0  0  0  0
  145.2669  138.0996  152.8306 N   0  0  0  0  0  0  0  0  0  0  0  0
  146.9129  138.5197  151.3625 O   0  0  0  0  0  0  0  0  0  0  0  0
  145.4564  142.5679  155.0385 H   0  0  0  0  0  0  0  0  0  0  0  0
  146.7838  142.8546  153.9131 H   0  0  0  0  0  0  0  0  0  0  0  0
  147.1179  142.2940  155.5623 H   0  0  0  0  0  0  0  0  0  0  0  0
  147.8850  140.7891  152.9196 H   0  0  0  0  0  0  0  0  0  0  0  0
  148.3261  140.5621  154.6037 H   0  0  0  0  0  0  0  0  0  0  0  0
  147.0211  138.4100  154.6214 H   0  0  0  0  0  0  0  0  0  0  0  0
  148.8920  137.4452  152.9108 H   0  0  0  0  0  0  0  0  0  0  0  0
  151.3643  137.7384  153.1462 H   0  0  0  0  0  0  0  0  0  0  0  0
  153.1932  138.1526  154.7927 H   0  0  0  0  0  0  0  0  0  0  0  0
  150.1826  139.6010  157.5376 H   0  0  0  0  0  0  0  0  0  0  0  0
  144.6174  137.8628  152.0947 H   0  0  0  0  0  0  0  0  0  0  0  0
  144.9765  138.0673  153.7970 H   0  0  0  0  0  0  0  0  0  0  0  0
  1  2  1  0  0  0  0
  1 17  1  0  0  0  0
  1 18  1  0  0  0  0
  1 19  1  0  0  0  0
  2  3  1  0  0  0  0
  3  4  1  0  0  0  0
  3 20  1  0  0  0  0
  3 21  1  0  0  0  0
  4  5  1  0  0  0  0
  4 14  1  0  0  0  0
  4 22  1  0  0  0  0
  5  6  1  0  0  0  0
  5 23  1  0  0  0  0
  6 13  1  0  0  0  0
  6  7  2  0  0  0  0
  7  8  1  0  0  0  0
  7 24  1  0  0  0  0
  8  9  2  0  0  0  0
  8 25  1  0  0  0  0
  9 10  1  0  0  0  0
  9 12  1  0  0  0  0
 10 11  3  0  0  0  0
 12 13  2  0  0  0  0
 12 26  1  0  0  0  0
 14 15  1  0  0  0  0
 14 16  2  0  0  0  0
 15 27  1  0  0  0  0
 15 28  1  0  0  0  0
M  END
> <s_m_source_file>
AV-unprocessed.smi

> <i_m_source_file_index>
2830

> <i_lp_mmshare_version>
43012

> <i_f3d_flags>
0

> <s_epik_input>
W0NIM11PW0NIMl1bQ0BASF0oQyg9TylbTkgyXSlbTkhdYzFbY0hdW2NIXWMoQyNOKVtjSF1uMQ==

> <s_epik_cmdline>
J2VwaWtfcHl0aG9uJywgJy1waCcsICc3LjAnLCAnLXRuJywgJzgnLCAnLW1hJywgJzIwMCcsICctbWV0YWxfYmluZGluZycsICctaW1hZScsICc8aW5maWxlLm1hZT4nLCAnLW9tYWUnLCAnPG91dGZpbGUubWFlPic=

> <r_lp_tautomer_probability>
1

> <r_epik_Ionization_Penalty>
4.37908e-06

> <r_epik_Ionization_Penalty_Charging>
0

> <r_epik_Ionization_Penalty_Neutral>
4.37908e-06

> <r_epik_State_Penalty>
-0

> <r_epik_Charging_Adjusted_Penalty>
0

> <i_epik_Tot_Q>
0

> <i_epik_Tot_abs_Q>
0

> <r_epik_Metal_State_Penalty>
-0

> <b_epik_Metal_Only>
0

> <s_lp_Force_Field>
OPLS_2005

> <r_lp_Energy>
0.179783

> <b_lp_Chiralities_Consistent>
1

> <s_lp_Variant>
AV-unprocessed.smi:2830-1

> <Gold.Version>
5.8.1

> <Gold.Id.Protein>
6NUR|6NUR_protein|mol2

> <Gold.PLP.Fitness>
38.2001

> <Gold.PLP.PLP>
-27.4612

> <Gold.PLP.part.hbond>
-5.9044

> <Gold.PLP.part.metal>
0.0000

> <Gold.PLP.part.buried>
-2.9551

> <Gold.PLP.part.nonpolar>
-21.6447

> <Gold.PLP.part.repulsive>
1.9397

> <Gold.PLP.ligand.clash>
0.0000

> <Gold.PLP.ligand.torsion>
0.6373

> <Gold.PLP.Chemscore.Hbond>
3.9920

> <Gold.PLP.Chemscore.CHOScore>
0.0000

> <Gold.PLP.Chemscore.Metal>
0.0000

> <Gold.Chemscore.Hbonds>
donor molecule, donor type, donor heavy atom, donor atom, acceptor molecule, acceptor atom, score
      L1  H     5    23       P1  7948  1.00
      P1  H  7954  7966       L1    16  0.99
      P1  H  7997  8008       L1    11  1.00

> <Gold.PLP.Chemscore.Internal.Correction>
0.0375

> <Gold.Rescore>
     Score         DG    S(hbond)    S(metal)    S(lipo)     H(rot)  DE(clash)    DE(int)     intcor
     12.32     -15.65       3.30        0.00      43.38       2.32       1.58       1.75       ----

> <Gold.Chemscore.Fitness>
12.3205

> <Gold.Chemscore.DG>
-15.6499

> <Gold.Chemscore.ZeroCoef>
-5.4800

> <Gold.Chemscore.Hbond>
3.3033

> <Gold.Chemscore.Metal>
0.0000

> <Gold.Chemscore.Lipo>
43.3780

> <Gold.Chemscore.Internal_Hbond>
0.0000

> <Gold.Chemscore.DEClash>
1.5833

> <Gold.Chemscore.DEInternal>
1.7461

> <Gold.Chemscore.Rot>
2.3197

> <Gold.Chemscore.Internal.Correction>
   9.000000E+99

> <Gold.Chemscore.Hbonds>
donor molecule, donor type, donor heavy atom, donor atom, acceptor molecule, acceptor atom, score
      L1  H     5    23       P1  7948  0.98
      L1  H    15    27       P1 10171  0.01
      P1  H  7954  7966       L1    16  0.91
      P1  H  7997  8008       L1    11  0.38

> <Gold.Chemscore.Hbond.Weighted>
-11.0331

> <Gold.Chemscore.Metal.Weighted>
-0.0000

> <Gold.Chemscore.Lipo.Weighted>
-5.0752

> <Gold.Chemscore.Internal_Hbond.Weighted>
0.0000

> <Gold.Chemscore.DEClash.Weighted>
1.5833

> <Gold.Chemscore.DEInternal.Weighted>
1.7461

> <Gold.Chemscore.Rot.Weighted>
5.9384

> <Gold.Chemscore.Internal.Correction.Weighted>
   9.000000E+99

> <Gold.Protein.RotatedTorsions>
[ 6907 6896 6895 6894 ] final  120.18 input  -60.11 | X-H torsion
[ 7974 7965 7964 7962 ] final -164.94 input  175.53 | X-H torsion
[ 8008 7997 7996 7995 ] final -106.51 input   59.86 | X-H torsion
[ 10167 10162 10161 10158 ] final  172.85 input  -65.29 | X-H torsion
[ 10718 10713 10712 10709 ] final   41.91 input   66.30 | X-H torsion
[ 10763 10752 10751 10750 ] final -151.34 input  -60.55 | X-H torsion
[ 11005 11000 10999 10996 ] final  113.57 input  -57.11 | X-H torsion

> <Gold.Protein.ActiveResidues>
 VAL166  LYS551  ARG553  GLY616  TRP617  ASP618  TYR619  PRO620  LYS621  CYS622 
 ASP623  PHE694  ASN695  SER759  ASP760  ASP761  ALA762  ILE779  LEU786  VAL792 
 PHE793  MET794  SER795  GLU796  ALA797  LYS798  CYS799  TRP800  GLU811  SER814 

> <Gold.Protein.RotatedAtoms>
  152.4417  133.7460  159.6667 H   0  0  0  0  0  0  0  0  0  0  0  0  # atno 6907 bound_to 6896
  150.8309  133.8083  159.3105 H   0  0  0  0  0  0  0  0  0  0  0  0  # atno 6908 bound_to 6896
  151.5737  135.1064  160.0053 H   0  0  0  0  0  0  0  0  0  0  0  0  # atno 6909 bound_to 6896
  144.7283  140.2887  143.6224 H   0  0  0  0  0  0  0  0  0  0  0  0  # atno 7974 bound_to 7965
  154.9156  140.0409  157.1970 H   0  0  0  0  0  0  0  0  0  0  0  0  # atno 8008 bound_to 7997
  154.8305  140.2898  155.5704 H   0  0  0  0  0  0  0  0  0  0  0  0  # atno 8009 bound_to 7997
  156.2986  140.2501  156.3229 H   0  0  0  0  0  0  0  0  0  0  0  0  # atno 8010 bound_to 7997
  139.5089  144.3327  152.0096 H   0  0  0  0  0  0  0  0  0  0  0  0  # atno 10167 bound_to 10162
  157.3990  130.7849  149.7332 H   0  0  0  0  0  0  0  0  0  0  0  0  # atno 10718 bound_to 10713
  154.8064  135.3262  154.7420 H   0  0  0  0  0  0  0  0  0  0  0  0  # atno 10763 bound_to 10752
  153.8078  135.6898  153.4850 H   0  0  0  0  0  0  0  0  0  0  0  0  # atno 10764 bound_to 10752
  153.1812  135.4586  154.9975 H   0  0  0  0  0  0  0  0  0  0  0  0  # atno 10765 bound_to 10752
  139.8956  134.9552  156.6759 H   0  0  0  0  0  0  0  0  0  0  0  0  # atno 11005 bound_to 11000
  145.7877  139.1915  143.2121 LP  0  0  0  0  0  0  0  0  0  0  0  0  # atno 17320 bound_to 7965
  146.0782  140.7794  142.9655 LP  0  0  0  0  0  0  0  0  0  0  0  0  # atno 17321 bound_to 7965
  140.2766  144.3906  150.6133 LP  0  0  0  0  0  0  0  0  0  0  0  0  # atno 17342 bound_to 10162
  140.6049  143.2167  151.7000 LP  0  0  0  0  0  0  0  0  0  0  0  0  # atno 17343 bound_to 10162
  155.9818  130.4016  150.3452 LP  0  0  0  0  0  0  0  0  0  0  0  0  # atno 17370 bound_to 10713
  157.1577  131.0337  151.2855 LP  0  0  0  0  0  0  0  0  0  0  0  0  # atno 17371 bound_to 10713
  140.7337  133.9037  155.8229 LP  0  0  0  0  0  0  0  0  0  0  0  0  # atno 17394 bound_to 11000
  141.0133  134.0990  157.4199 LP  0  0  0  0  0  0  0  0  0  0  0  0  # atno 17395 bound_to 11000

$$$$
