AV-unprocessed.smi:1841|AV-procd|sdf|7496|dock4
  -GOLD-   22720 9193D 1   1.00000     0.00000
 Structure written by MMmdl.
 40 41  0  0  0  0  0  0  0  0  1 V2000
  153.0585  137.7540  156.8390 C   0  0  0  0  0  0  0  0  0  0  0  0
  153.6485  138.4377  155.7473 O   0  0  0  0  0  0  0  0  0  0  0  0
  152.7176  138.7201  154.7157 C   0  0  0  0  0  0  0  0  0  0  0  0
  151.5358  139.4962  155.3044 C   0  0  0  0  0  0  0  0  0  0  0  0
  150.6718  139.8889  154.2423 O   0  0  0  0  0  0  0  0  0  0  0  0
  149.5047  140.5555  154.5535 C   0  0  0  0  0  0  0  0  0  0  0  0
  149.0889  140.5926  155.8987 C   0  0  0  0  0  0  0  0  0  0  0  0
  147.9020  141.2749  156.2283 C   0  0  0  0  0  0  0  0  0  0  0  0
  147.1608  141.8989  155.1952 C   0  0  0  0  0  0  0  0  0  0  0  0
  145.9534  142.6295  155.3795 N   0  0  0  0  0  0  0  0  0  0  0  0
  145.3507  143.5180  154.5672 C   0  0  0  0  0  0  0  0  0  0  0  0
  145.7849  143.8824  153.4750 O   0  0  0  0  0  0  0  0  0  0  0  0
  144.0282  144.1040  155.0884 C   0  0  2  0  0  0  0  0  0  0  0  0
  143.6178  145.3611  154.2943 C   0  0  0  0  0  0  0  0  0  0  0  0
  143.7422  146.4913  155.3022 C   0  0  0  0  0  0  0  0  0  0  0  0
  143.5813  147.6737  155.0035 O   0  0  0  0  0  0  0  0  0  0  0  0
  144.0496  146.0200  156.5135 N   0  0  0  0  0  0  0  0  0  0  0  0
  144.2585  146.8224  157.7108 C   0  0  0  0  0  0  0  0  0  0  0  0
  144.1260  144.5698  156.5584 C   0  0  0  0  0  0  0  0  0  0  0  0
  147.6651  141.8021  153.8813 C   0  0  0  0  0  0  0  0  0  0  0  0
  148.8024  141.1511  153.5589 N   0  0  0  0  0  0  0  0  0  0  0  0
  153.8120  137.5656  157.6038 H   0  0  0  0  0  0  0  0  0  0  0  0
  152.6477  136.7931  156.5268 H   0  0  0  0  0  0  0  0  0  0  0  0
  152.2616  138.3458  157.2910 H   0  0  0  0  0  0  0  0  0  0  0  0
  153.2046  139.3249  153.9491 H   0  0  0  0  0  0  0  0  0  0  0  0
  152.3708  137.8021  154.2385 H   0  0  0  0  0  0  0  0  0  0  0  0
  151.0107  138.8827  156.0386 H   0  0  0  0  0  0  0  0  0  0  0  0
  151.9100  140.3851  155.8148 H   0  0  0  0  0  0  0  0  0  0  0  0
  149.6740  140.1092  156.6674 H   0  0  0  0  0  0  0  0  0  0  0  0
  147.6009  141.3037  157.2627 H   0  0  0  0  0  0  0  0  0  0  0  0
  145.4829  142.4564  156.2561 H   0  0  0  0  0  0  0  0  0  0  0  0
  143.2454  143.3481  155.0029 H   0  0  0  0  0  0  0  0  0  0  0  0
  144.2473  145.5561  153.4243 H   0  0  0  0  0  0  0  0  0  0  0  0
  142.5847  145.2914  153.9529 H   0  0  0  0  0  0  0  0  0  0  0  0
  143.3842  147.4413  157.9157 H   0  0  0  0  0  0  0  0  0  0  0  0
  145.1217  147.4770  157.5853 H   0  0  0  0  0  0  0  0  0  0  0  0
  144.4365  146.1903  158.5810 H   0  0  0  0  0  0  0  0  0  0  0  0
  143.2905  144.1832  157.1434 H   0  0  0  0  0  0  0  0  0  0  0  0
  145.0467  144.2499  157.0499 H   0  0  0  0  0  0  0  0  0  0  0  0
  147.1396  142.2634  153.0577 H   0  0  0  0  0  0  0  0  0  0  0  0
  1  2  1  0  0  0  0
  1 22  1  0  0  0  0
  1 23  1  0  0  0  0
  1 24  1  0  0  0  0
  2  3  1  0  0  0  0
  3  4  1  0  0  0  0
  3 25  1  0  0  0  0
  3 26  1  0  0  0  0
  4  5  1  0  0  0  0
  4 27  1  0  0  0  0
  4 28  1  0  0  0  0
  5  6  1  0  0  0  0
  6 21  1  0  0  0  0
  6  7  2  0  0  0  0
  7  8  1  0  0  0  0
  7 29  1  0  0  0  0
  8  9  2  0  0  0  0
  8 30  1  0  0  0  0
  9 10  1  0  0  0  0
  9 20  1  0  0  0  0
 10 11  1  0  0  0  0
 10 31  1  0  0  0  0
 11 12  2  0  0  0  0
 11 13  1  0  0  0  0
 13 19  1  0  0  0  0
 13 14  1  0  0  0  0
 13 32  1  0  0  0  0
 14 15  1  0  0  0  0
 14 33  1  0  0  0  0
 14 34  1  0  0  0  0
 15 16  2  0  0  0  0
 15 17  1  0  0  0  0
 17 18  1  0  0  0  0
 17 19  1  0  0  0  0
 18 35  1  0  0  0  0
 18 36  1  0  0  0  0
 18 37  1  0  0  0  0
 19 38  1  0  0  0  0
 19 39  1  0  0  0  0
 20 21  2  0  0  0  0
 20 40  1  0  0  0  0
M  END
> <s_m_source_file>
AV-unprocessed.smi

> <i_m_source_file_index>
1841

> <i_lp_mmshare_version>
43012

> <i_f3d_flags>
0

> <s_epik_input>
W0NIM11PW0NIMl1bQ0gyXU9jMVtjSF1bY0hdYyhbY0hdbjEpW05IXUMoPU8pW0NAQEhdMltDSDJdQyg9TylOKFtDSDNdKVtDSDJdMg==

> <s_epik_cmdline>
J2VwaWtfcHl0aG9uJywgJy1waCcsICc3LjAnLCAnLXRuJywgJzgnLCAnLW1hJywgJzIwMCcsICctbWV0YWxfYmluZGluZycsICctaW1hZScsICc8aW5maWxlLm1hZT4nLCAnLW9tYWUnLCAnPG91dGZpbGUubWFlPic=

> <r_lp_tautomer_probability>
1

> <r_epik_Ionization_Penalty>
1.70347e-05

> <r_epik_Ionization_Penalty_Charging>
0

> <r_epik_Ionization_Penalty_Neutral>
1.70347e-05

> <r_epik_State_Penalty>
-0

> <r_epik_Charging_Adjusted_Penalty>
0

> <i_epik_Tot_Q>
0

> <i_epik_Tot_abs_Q>
0

> <r_epik_Metal_State_Penalty>
-0

> <b_epik_Metal_Only>
0

> <s_lp_Force_Field>
OPLS_2005

> <r_lp_Energy>
17.4372

> <b_lp_Chiralities_Consistent>
1

> <s_lp_Variant>
AV-unprocessed.smi:1841-1

> <Gold.Version>
5.8.1

> <Gold.Id.Protein>
6NUR|6NUR_protein|mol2

> <Gold.PLP.Fitness>
43.5687

> <Gold.PLP.PLP>
-36.7950

> <Gold.PLP.part.hbond>
-4.3015

> <Gold.PLP.part.metal>
0.0000

> <Gold.PLP.part.buried>
-6.2524

> <Gold.PLP.part.nonpolar>
-28.1473

> <Gold.PLP.part.repulsive>
2.8697

> <Gold.PLP.ligand.clash>
0.1309

> <Gold.PLP.ligand.torsion>
0.5560

> <Gold.PLP.Chemscore.Hbond>
2.6640

> <Gold.PLP.Chemscore.CHOScore>
0.0000

> <Gold.PLP.Chemscore.Metal>
0.0000

> <Gold.Chemscore.Hbonds>
donor molecule, donor type, donor heavy atom, donor atom, acceptor molecule, acceptor atom, score
      P1  H  7989  7998       L1     5  1.00
      P1  H  7997  8010       L1     2  0.72
      P1  H  8011  8017       L1    21  0.94

> <Gold.PLP.Chemscore.Internal.Correction>
0.0245

> <Gold.Rescore>
     Score         DG    S(hbond)    S(metal)    S(lipo)     H(rot)  DE(clash)    DE(int)     intcor
     10.41     -12.43       1.63        0.00      55.54       1.95       0.43       1.59       ----

> <Gold.Chemscore.Fitness>
10.4069

> <Gold.Chemscore.DG>
-12.4278

> <Gold.Chemscore.ZeroCoef>
-5.4800

> <Gold.Chemscore.Hbond>
1.6266

> <Gold.Chemscore.Metal>
0.0000

> <Gold.Chemscore.Lipo>
55.5447

> <Gold.Chemscore.Internal_Hbond>
0.0000

> <Gold.Chemscore.DEClash>
0.4289

> <Gold.Chemscore.DEInternal>
1.5919

> <Gold.Chemscore.Rot>
1.9468

> <Gold.Chemscore.Internal.Correction>
   9.000000E+99

> <Gold.Chemscore.Hbonds>
donor molecule, donor type, donor heavy atom, donor atom, acceptor molecule, acceptor atom, score
      P1  H  7989  7998       L1     5  0.17
      P1  H  7997  8010       L1     2  0.33
      P1  H  8011  8017       L1    21  0.41

> <Gold.Chemscore.Hbond.Weighted>
-5.4329

> <Gold.Chemscore.Metal.Weighted>
-0.0000

> <Gold.Chemscore.Lipo.Weighted>
-6.4987

> <Gold.Chemscore.Internal_Hbond.Weighted>
0.0000

> <Gold.Chemscore.DEClash.Weighted>
0.4289

> <Gold.Chemscore.DEInternal.Weighted>
1.5919

> <Gold.Chemscore.Rot.Weighted>
4.9839

> <Gold.Chemscore.Internal.Correction.Weighted>
   9.000000E+99

> <Gold.Protein.RotatedTorsions>
[ 6907 6896 6895 6894 ] final  163.95 input  -60.11 | X-H torsion
[ 7974 7965 7964 7962 ] final  -38.60 input  175.53 | X-H torsion
[ 8008 7997 7996 7995 ] final   80.36 input   59.86 | X-H torsion
[ 10167 10162 10161 10158 ] final   47.21 input  -65.29 | X-H torsion
[ 10718 10713 10712 10709 ] final   63.09 input   66.30 | X-H torsion
[ 10763 10752 10751 10750 ] final   61.45 input  -60.55 | X-H torsion
[ 11005 11000 10999 10996 ] final   -0.28 input  -57.11 | X-H torsion

> <Gold.Protein.ActiveResidues>
 VAL166  LYS551  ARG553  GLY616  TRP617  ASP618  TYR619  PRO620  LYS621  CYS622 
 ASP623  PHE694  ASN695  SER759  ASP760  ASP761  ALA762  ILE779  LEU786  VAL792 
 PHE793  MET794  SER795  GLU796  ALA797  LYS798  CYS799  TRP800  GLU811  SER814 

> <Gold.Protein.RotatedAtoms>
  151.9173  133.3576  159.3884 H   0  0  0  0  0  0  0  0  0  0  0  0  # atno 6907 bound_to 6896
  150.7044  134.4671  159.5417 H   0  0  0  0  0  0  0  0  0  0  0  0  # atno 6908 bound_to 6896
  152.2288  134.8342  160.0527 H   0  0  0  0  0  0  0  0  0  0  0  0  # atno 6909 bound_to 6896
  146.0472  140.6530  142.9059 H   0  0  0  0  0  0  0  0  0  0  0  0  # atno 7974 bound_to 7965
  155.8824  140.3443  155.5897 H   0  0  0  0  0  0  0  0  0  0  0  0  # atno 8008 bound_to 7997
  155.7705  140.0844  157.2129 H   0  0  0  0  0  0  0  0  0  0  0  0  # atno 8009 bound_to 7997
  154.4025  140.1519  156.2923 H   0  0  0  0  0  0  0  0  0  0  0  0  # atno 8010 bound_to 7997
  140.3059  144.2878  150.6209 H   0  0  0  0  0  0  0  0  0  0  0  0  # atno 10167 bound_to 10162
  157.5947  130.9086  149.9671 H   0  0  0  0  0  0  0  0  0  0  0  0  # atno 10718 bound_to 10713
  152.9951  135.5500  154.6036 H   0  0  0  0  0  0  0  0  0  0  0  0  # atno 10763 bound_to 10752
  154.5372  135.2817  155.1130 H   0  0  0  0  0  0  0  0  0  0  0  0  # atno 10764 bound_to 10752
  154.2422  135.6414  153.5263 H   0  0  0  0  0  0  0  0  0  0  0  0  # atno 10765 bound_to 10752
  140.6346  133.9545  155.8292 H   0  0  0  0  0  0  0  0  0  0  0  0  # atno 11005 bound_to 11000
  144.7104  140.4015  143.7085 LP  0  0  0  0  0  0  0  0  0  0  0  0  # atno 17320 bound_to 7965
  145.6786  139.1614  143.2713 LP  0  0  0  0  0  0  0  0  0  0  0  0  # atno 17321 bound_to 7965
  140.5610  143.2192  151.7765 LP  0  0  0  0  0  0  0  0  0  0  0  0  # atno 17342 bound_to 10162
  139.4904  144.4348  151.9831 LP  0  0  0  0  0  0  0  0  0  0  0  0  # atno 17343 bound_to 10162
  156.1007  130.3656  150.0223 LP  0  0  0  0  0  0  0  0  0  0  0  0  # atno 17370 bound_to 10713
  156.8338  130.9402  151.3635 LP  0  0  0  0  0  0  0  0  0  0  0  0  # atno 17371 bound_to 10713
  141.0651  134.0289  157.3605 LP  0  0  0  0  0  0  0  0  0  0  0  0  # atno 17394 bound_to 11000
  139.9103  135.0188  156.7663 LP  0  0  0  0  0  0  0  0  0  0  0  0  # atno 17395 bound_to 11000

$$$$
