AV-unprocessed.smi:1141|AV-procd|sdf|4872|dock6
  -GOLD-   22720 3443D 1   1.00000     0.00000
 Structure written by MMmdl.
 45 46  0  0  0  0  0  0  0  0  1 V2000
  152.2361  136.7779  156.6561 C   0  0  0  0  0  0  0  0  0  0  0  0
  153.6359  136.7717  156.8721 O   0  0  0  0  0  0  0  0  0  0  0  0
  153.9714  136.7999  158.2513 C   0  0  0  0  0  0  0  0  0  0  0  0
  154.1194  138.2511  158.7083 C   0  0  0  0  0  0  0  0  0  0  0  0
  155.2145  138.6524  159.1001 O   0  0  0  0  0  0  0  0  0  0  0  0
  152.9977  138.9938  158.6840 N   0  0  0  0  0  0  0  0  0  0  0  0
  152.8241  140.3504  159.0803 C   0  0  0  0  0  0  0  0  0  0  0  0
  153.6945  140.9912  159.9940 C   0  0  0  0  0  0  0  0  0  0  0  0
  153.4900  142.3479  160.3029 C   0  0  0  0  0  0  0  0  0  0  0  0
  152.4281  143.0303  159.6823 C   0  0  0  0  0  0  0  0  0  0  0  0
  152.2279  144.3614  159.9855 O   0  0  0  0  0  0  0  0  0  0  0  0
  151.2019  145.0638  159.2924 C   0  0  0  0  0  0  0  0  0  0  0  0
  151.5994  142.4293  158.7956 N   0  0  0  0  0  0  0  0  0  0  0  0
  151.7868  141.1224  158.4926 C   0  0  0  0  0  0  0  0  0  0  0  0
  150.8894  140.5393  157.5758 N   0  0  0  0  0  0  0  0  0  0  0  0
  149.6142  141.2488  157.4667 C   0  0  0  0  0  0  0  0  0  0  0  0
  148.6013  140.4256  156.6483 C   0  0  0  0  0  0  0  0  0  0  0  0
  149.1987  140.0874  155.3498 N   0  0  0  0  0  0  0  0  0  0  0  0
  148.7457  140.5922  154.1775 C   0  0  0  0  0  0  0  0  0  0  0  0
  147.5077  141.4918  154.1788 C   0  0  0  0  0  0  0  0  0  0  0  0
  149.2880  140.3560  153.0980 O   0  0  0  0  0  0  0  0  0  0  0  0
  150.4039  139.2631  155.5171 C   0  0  0  0  0  0  0  0  0  0  0  0
  151.4515  140.0689  156.3077 C   0  0  0  0  0  0  0  0  0  0  0  0
  152.0307  136.7529  155.5859 H   0  0  0  0  0  0  0  0  0  0  0  0
  151.7783  137.6792  157.0661 H   0  0  0  0  0  0  0  0  0  0  0  0
  151.7631  135.9065  157.1109 H   0  0  0  0  0  0  0  0  0  0  0  0
  153.1915  136.3195  158.8443 H   0  0  0  0  0  0  0  0  0  0  0  0
  154.9052  136.2620  158.4254 H   0  0  0  0  0  0  0  0  0  0  0  0
  152.1512  138.5047  158.4302 H   0  0  0  0  0  0  0  0  0  0  0  0
  154.5252  140.4730  160.4475 H   0  0  0  0  0  0  0  0  0  0  0  0
  154.1415  142.8571  160.9976 H   0  0  0  0  0  0  0  0  0  0  0  0
  151.1702  146.0954  159.6429 H   0  0  0  0  0  0  0  0  0  0  0  0
  150.2218  144.6214  159.4775 H   0  0  0  0  0  0  0  0  0  0  0  0
  151.3878  145.0851  158.2175 H   0  0  0  0  0  0  0  0  0  0  0  0
  149.2019  141.4604  158.4533 H   0  0  0  0  0  0  0  0  0  0  0  0
  149.7865  142.2124  156.9849 H   0  0  0  0  0  0  0  0  0  0  0  0
  148.3509  139.5056  157.1789 H   0  0  0  0  0  0  0  0  0  0  0  0
  147.6669  140.9804  156.5551 H   0  0  0  0  0  0  0  0  0  0  0  0
  146.6452  140.9619  154.5839 H   0  0  0  0  0  0  0  0  0  0  0  0
  147.2588  141.8041  153.1638 H   0  0  0  0  0  0  0  0  0  0  0  0
  147.6833  142.3911  154.7697 H   0  0  0  0  0  0  0  0  0  0  0  0
  150.1404  138.3576  156.0658 H   0  0  0  0  0  0  0  0  0  0  0  0
  150.8366  138.9202  154.5786 H   0  0  0  0  0  0  0  0  0  0  0  0
  151.7837  140.9215  155.7135 H   0  0  0  0  0  0  0  0  0  0  0  0
  152.3273  139.4490  156.5030 H   0  0  0  0  0  0  0  0  0  0  0  0
  1  2  1  0  0  0  0
  1 24  1  0  0  0  0
  1 25  1  0  0  0  0
  1 26  1  0  0  0  0
  2  3  1  0  0  0  0
  3  4  1  0  0  0  0
  3 27  1  0  0  0  0
  3 28  1  0  0  0  0
  4  5  2  0  0  0  0
  4  6  1  0  0  0  0
  6  7  1  0  0  0  0
  6 29  1  0  0  0  0
  7 14  1  0  0  0  0
  7  8  2  0  0  0  0
  8  9  1  0  0  0  0
  8 30  1  0  0  0  0
  9 10  2  0  0  0  0
  9 31  1  0  0  0  0
 10 11  1  0  0  0  0
 10 13  1  0  0  0  0
 11 12  1  0  0  0  0
 12 32  1  0  0  0  0
 12 33  1  0  0  0  0
 12 34  1  0  0  0  0
 13 14  2  0  0  0  0
 14 15  1  0  0  0  0
 15 23  1  0  0  0  0
 15 16  1  0  0  0  0
 16 17  1  0  0  0  0
 16 35  1  0  0  0  0
 16 36  1  0  0  0  0
 17 18  1  0  0  0  0
 17 37  1  0  0  0  0
 17 38  1  0  0  0  0
 18 19  1  0  0  0  0
 18 22  1  0  0  0  0
 19 20  1  0  0  0  0
 19 21  2  0  0  0  0
 20 39  1  0  0  0  0
 20 40  1  0  0  0  0
 20 41  1  0  0  0  0
 22 23  1  0  0  0  0
 22 42  1  0  0  0  0
 22 43  1  0  0  0  0
 23 44  1  0  0  0  0
 23 45  1  0  0  0  0
M  END
> <s_m_source_file>
AV-unprocessed.smi

> <i_m_source_file_index>
1141

> <i_lp_mmshare_version>
43012

> <i_f3d_flags>
0

> <s_epik_input>
W0NIM11PW0NIMl1DKD1PKVtOSF1jMVtjSF1bY0hdYyhPW0NIM10pbmMxTjJbQ0gyXVtDSDJdTihDKD1PKVtDSDNdKVtDSDJdW0NIMl0y

> <s_epik_cmdline>
J2VwaWtfcHl0aG9uJywgJy1waCcsICc3LjAnLCAnLXRuJywgJzgnLCAnLW1hJywgJzIwMCcsICctbWV0YWxfYmluZGluZycsICctaW1hZScsICc8aW5maWxlLm1hZT4nLCAnLW9tYWUnLCAnPG91dGZpbGUubWFlPic=

> <r_lp_tautomer_probability>
1

> <r_epik_Ionization_Penalty>
0.000141552

> <r_epik_Ionization_Penalty_Charging>
0

> <r_epik_Ionization_Penalty_Neutral>
0.000141552

> <r_epik_State_Penalty>
-0

> <r_epik_Charging_Adjusted_Penalty>
0

> <i_epik_Tot_Q>
0

> <i_epik_Tot_abs_Q>
0

> <r_epik_Metal_State_Penalty>
-0

> <b_epik_Metal_Only>
0

> <s_lp_Force_Field>
OPLS_2005

> <r_lp_Energy>
39.8062

> <b_lp_Chiralities_Consistent>
1

> <s_lp_Variant>
AV-unprocessed.smi:1141-1

> <Gold.Version>
5.8.1

> <Gold.Id.Protein>
6NUR|6NUR_protein|mol2

> <Gold.PLP.Fitness>
42.5839

> <Gold.PLP.PLP>
-35.3201

> <Gold.PLP.part.hbond>
-3.0000

> <Gold.PLP.part.metal>
0.0000

> <Gold.PLP.part.buried>
-5.9300

> <Gold.PLP.part.nonpolar>
-30.7527

> <Gold.PLP.part.repulsive>
4.6680

> <Gold.PLP.ligand.clash>
0.0000

> <Gold.PLP.ligand.torsion>
0.7080

> <Gold.PLP.Chemscore.Hbond>
2.7613

> <Gold.PLP.Chemscore.CHOScore>
0.0000

> <Gold.PLP.Chemscore.Metal>
0.0000

> <Gold.Chemscore.Hbonds>
donor molecule, donor type, donor heavy atom, donor atom, acceptor molecule, acceptor atom, score
      P1  H  7989  7998       L1    21  0.03
      P1  H  7997  8009       L1     5  0.20
      P1  H  8011  8017       L1    21  0.46

> <Gold.PLP.Chemscore.Internal.Correction>
0.3960

> <Gold.Rescore>
     Score         DG    S(hbond)    S(metal)    S(lipo)     H(rot)  DE(clash)    DE(int)     intcor
     11.90     -16.42       2.15        0.00      70.44       1.75       1.76       2.75       ----

> <Gold.Chemscore.Fitness>
11.9046

> <Gold.Chemscore.DG>
-16.4205

> <Gold.Chemscore.ZeroCoef>
-5.4800

> <Gold.Chemscore.Hbond>
2.1520

> <Gold.Chemscore.Metal>
0.0000

> <Gold.Chemscore.Lipo>
70.4433

> <Gold.Chemscore.Internal_Hbond>
0.0000

> <Gold.Chemscore.DEClash>
1.7645

> <Gold.Chemscore.DEInternal>
2.7513

> <Gold.Chemscore.Rot>
1.7535

> <Gold.Chemscore.Internal.Correction>
   9.000000E+99

> <Gold.Chemscore.Hbonds>
donor molecule, donor type, donor heavy atom, donor atom, acceptor molecule, acceptor atom, score
      P1  H  7989  7998       L1    21  0.02
      P1  H  8011  8017       L1    21  0.20

> <Gold.Chemscore.Hbond.Weighted>
-7.1875

> <Gold.Chemscore.Metal.Weighted>
-0.0000

> <Gold.Chemscore.Lipo.Weighted>
-8.2419

> <Gold.Chemscore.Internal_Hbond.Weighted>
0.0000

> <Gold.Chemscore.DEClash.Weighted>
1.7645

> <Gold.Chemscore.DEInternal.Weighted>
2.7513

> <Gold.Chemscore.Rot.Weighted>
4.4890

> <Gold.Chemscore.Internal.Correction.Weighted>
   9.000000E+99

> <Gold.Protein.RotatedTorsions>
[ 6907 6896 6895 6894 ] final   28.68 input  -60.11 | X-H torsion
[ 7974 7965 7964 7962 ] final -135.55 input  175.53 | X-H torsion
[ 8008 7997 7996 7995 ] final  113.61 input   59.86 | X-H torsion
[ 10167 10162 10161 10158 ] final  -84.03 input  -65.29 | X-H torsion
[ 10718 10713 10712 10709 ] final  127.99 input   66.30 | X-H torsion
[ 10763 10752 10751 10750 ] final   -8.61 input  -60.55 | X-H torsion
[ 11005 11000 10999 10996 ] final   80.68 input  -57.11 | X-H torsion

> <Gold.Protein.ActiveResidues>
 VAL166  LYS551  ARG553  GLY616  TRP617  ASP618  TYR619  PRO620  LYS621  CYS622 
 ASP623  PHE694  ASN695  SER759  ASP760  ASP761  ALA762  ILE779  LEU786  VAL792 
 PHE793  MET794  SER795  GLU796  ALA797  LYS798  CYS799  TRP800  GLU811  SER814 

> <Gold.Protein.RotatedAtoms>
  152.0206  134.9825  160.0570 H   0  0  0  0  0  0  0  0  0  0  0  0  # atno 6907 bound_to 6896
  152.1341  133.4420  159.4743 H   0  0  0  0  0  0  0  0  0  0  0  0  # atno 6908 bound_to 6896
  150.6859  134.2303  159.4475 H   0  0  0  0  0  0  0  0  0  0  0  0  # atno 6909 bound_to 6896
  144.9005  140.6764  143.5088 H   0  0  0  0  0  0  0  0  0  0  0  0  # atno 7974 bound_to 7965
  156.2269  140.2976  156.0089 H   0  0  0  0  0  0  0  0  0  0  0  0  # atno 8008 bound_to 7997
  155.2332  140.0419  157.2982 H   0  0  0  0  0  0  0  0  0  0  0  0  # atno 8009 bound_to 7997
  154.5930  140.2406  155.7902 H   0  0  0  0  0  0  0  0  0  0  0  0  # atno 8010 bound_to 7997
  140.4171  143.2599  151.8940 H   0  0  0  0  0  0  0  0  0  0  0  0  # atno 10167 bound_to 10162
  157.5284  131.1098  150.9047 H   0  0  0  0  0  0  0  0  0  0  0  0  # atno 10718 bound_to 10713
  153.4430  135.7014  153.6157 H   0  0  0  0  0  0  0  0  0  0  0  0  # atno 10763 bound_to 10752
  153.4524  135.3755  155.2291 H   0  0  0  0  0  0  0  0  0  0  0  0  # atno 10764 bound_to 10752
  154.8728  135.4000  154.3831 H   0  0  0  0  0  0  0  0  0  0  0  0  # atno 10765 bound_to 10752
  139.9126  134.7938  156.1941 H   0  0  0  0  0  0  0  0  0  0  0  0  # atno 11005 bound_to 11000
  145.3626  139.1678  143.4375 LP  0  0  0  0  0  0  0  0  0  0  0  0  # atno 17320 bound_to 7965
  146.3105  140.3689  142.8672 LP  0  0  0  0  0  0  0  0  0  0  0  0  # atno 17321 bound_to 7965
  139.4782  144.5476  151.8434 LP  0  0  0  0  0  0  0  0  0  0  0  0  # atno 17342 bound_to 10162
  140.4574  144.1770  150.5903 LP  0  0  0  0  0  0  0  0  0  0  0  0  # atno 17343 bound_to 10162
  156.9635  130.5464  149.5287 LP  0  0  0  0  0  0  0  0  0  0  0  0  # atno 17370 bound_to 10713
  156.0404  130.5487  150.8757 LP  0  0  0  0  0  0  0  0  0  0  0  0  # atno 17371 bound_to 10713
  141.0566  133.6862  156.1871 LP  0  0  0  0  0  0  0  0  0  0  0  0  # atno 17394 bound_to 11000
  140.6728  134.4850  157.5587 LP  0  0  0  0  0  0  0  0  0  0  0  0  # atno 17395 bound_to 11000

$$$$
