AV-unprocessed.smi:1978|AV-procd|sdf|8009|dock10
  -GOLD-   2272010193D 1   1.00000     0.00000
 Structure written by MMmdl.
 44 45  0  0  0  0  0  0  0  0  3 V2000
  150.8187  141.6493  158.0063 C   0  0  0  0  0  0  0  0  0  0  0  0
  150.4381  141.0515  156.6953 C   0  0  0  0  0  0  0  0  0  0  0  0
  149.2911  141.0907  155.9540 C   0  0  0  0  0  0  0  0  0  0  0  0
  149.6151  140.3016  154.8180 C   0  0  0  0  0  0  0  0  0  0  0  0
  148.6605  140.0901  153.7882 N   0  0  0  0  0  0  0  0  0  0  0  0
  147.3456  140.3759  153.7854 C   0  0  0  0  0  0  0  0  0  0  0  0
  146.8117  140.8707  154.7853 O   0  0  0  0  0  0  0  0  0  0  0  0
  146.7530  140.0570  152.6024 N   0  5  0  0  0  0  0  0  0  0  0  0
  146.6603  138.7022  152.0591 C   0  0  0  0  0  0  0  0  0  0  0  0
  146.4683  137.6651  153.2105 C   0  0  1  0  0  0  0  0  0  0  0  0
  145.2013  138.0463  154.0372 C   0  0  0  0  0  0  0  0  0  0  0  0
  146.4516  136.2573  152.6659 N   0  3  1  0  0  0  0  0  0  0  0  0
  146.3503  135.1798  153.7041 C   0  0  0  0  0  0  0  0  0  0  0  0
  146.7395  133.8146  153.1123 C   0  0  0  0  0  0  0  0  0  0  0  0
  145.8740  133.4624  151.8972 C   0  0  0  0  0  0  0  0  0  0  0  0
  145.8939  134.6127  150.8788 C   0  0  0  0  0  0  0  0  0  0  0  0
  145.5287  135.9702  151.5178 C   0  0  1  0  0  0  0  0  0  0  0  0
  144.0279  136.0368  151.8933 C   0  0  0  0  0  0  0  0  0  0  0  0
  150.8500  139.8241  154.8635 N   0  0  0  0  0  0  0  0  0  0  0  0
  151.3834  140.3021  156.0663 O   0  0  0  0  0  0  0  0  0  0  0  0
  150.1425  142.4609  158.2748 H   0  0  0  0  0  0  0  0  0  0  0  0
  151.8313  142.0516  157.9705 H   0  0  0  0  0  0  0  0  0  0  0  0
  150.7795  140.9003  158.7971 H   0  0  0  0  0  0  0  0  0  0  0  0
  148.3689  141.6006  156.1889 H   0  0  0  0  0  0  0  0  0  0  0  0
  149.0198  139.6780  152.9401 H   0  0  0  0  0  0  0  0  0  0  0  0
  145.8398  138.6009  151.3477 H   0  0  0  0  0  0  0  0  0  0  0  0
  147.5569  138.4560  151.4914 H   0  0  0  0  0  0  0  0  0  0  0  0
  147.3234  137.7228  153.8865 H   0  0  0  0  0  0  0  0  0  0  0  0
  145.2437  139.0675  154.4221 H   0  0  0  0  0  0  0  0  0  0  0  0
  145.0747  137.4283  154.9227 H   0  0  0  0  0  0  0  0  0  0  0  0
  144.2834  137.9618  153.4518 H   0  0  0  0  0  0  0  0  0  0  0  0
  147.0038  135.3639  154.5551 H   0  0  0  0  0  0  0  0  0  0  0  0
  145.3438  135.1476  154.1206 H   0  0  0  0  0  0  0  0  0  0  0  0
  147.7897  133.8345  152.8183 H   0  0  0  0  0  0  0  0  0  0  0  0
  146.6469  133.0380  153.8720 H   0  0  0  0  0  0  0  0  0  0  0  0
  146.2371  132.5451  151.4327 H   0  0  0  0  0  0  0  0  0  0  0  0
  144.8525  133.2571  152.2174 H   0  0  0  0  0  0  0  0  0  0  0  0
  146.8913  134.6813  150.4419 H   0  0  0  0  0  0  0  0  0  0  0  0
  145.2178  134.3895  150.0527 H   0  0  0  0  0  0  0  0  0  0  0  0
  145.7080  136.7036  150.7331 H   0  0  0  0  0  0  0  0  0  0  0  0
  143.4086  135.9706  150.9985 H   0  0  0  0  0  0  0  0  0  0  0  0
  143.7614  136.9616  152.4013 H   0  0  0  0  0  0  0  0  0  0  0  0
  143.7228  135.2226  152.5487 H   0  0  0  0  0  0  0  0  0  0  0  0
  147.3749  136.1542  152.2697 H   0  0  0  0  0  0  0  0  0  0  0  0
  1  2  1  0  0  0  0
  1 21  1  0  0  0  0
  1 22  1  0  0  0  0
  1 23  1  0  0  0  0
  2 20  1  0  0  0  0
  2  3  2  0  0  0  0
  3  4  1  0  0  0  0
  3 24  1  0  0  0  0
  4  5  1  0  0  0  0
  4 19  2  0  0  0  0
  5  6  1  0  0  0  0
  5 25  1  0  0  0  0
  6  7  2  0  0  0  0
  6  8  1  0  0  0  0
  8  9  1  0  0  0  0
  9 10  1  0  0  0  0
  9 26  1  0  0  0  0
  9 27  1  0  0  0  0
 10 11  1  0  0  0  0
 10 12  1  0  0  0  0
 10 28  1  0  0  0  0
 11 29  1  0  0  0  0
 11 30  1  0  0  0  0
 11 31  1  0  0  0  0
 12 17  1  0  0  0  0
 12 13  1  0  0  0  0
 12 44  1  0  0  0  0
 13 14  1  0  0  0  0
 13 32  1  0  0  0  0
 13 33  1  0  0  0  0
 14 15  1  0  0  0  0
 14 34  1  0  0  0  0
 14 35  1  0  0  0  0
 15 16  1  0  0  0  0
 15 36  1  0  0  0  0
 15 37  1  0  0  0  0
 16 17  1  0  0  0  0
 16 38  1  0  0  0  0
 16 39  1  0  0  0  0
 17 18  1  0  0  0  0
 17 40  1  0  0  0  0
 18 41  1  0  0  0  0
 18 42  1  0  0  0  0
 18 43  1  0  0  0  0
 19 20  1  0  0  0  0
M  CHG  1   8  -1
M  CHG  1  12   1
M  END
> <s_m_source_file>
AV-unprocessed.smi

> <i_m_source_file_index>
1978

> <i_lp_mmshare_version>
43012

> <i_f3d_flags>
0

> <s_epik_input>
W0NIM11jMVtjSF1jKG5vMSlbTkhdQyg9TylbTkhdW0NIMl1bQ0BIXShbQ0gzXSlOMltDSDJdW0NIMl1bQ0gyXVtDSDJdW0NASF0yW0NIM10=

> <s_epik_cmdline>
J2VwaWtfcHl0aG9uJywgJy1waCcsICc3LjAnLCAnLXRuJywgJzgnLCAnLW1hJywgJzIwMCcsICctbWV0YWxfYmluZGluZycsICctaW1hZScsICc8aW5maWxlLm1hZT4nLCAnLW9tYWUnLCAnPG91dGZpbGUubWFlPic=

> <r_epik_Ionization_Penalty>
6.7666

> <r_epik_Ionization_Penalty_Charging>
6.7666

> <r_epik_Ionization_Penalty_Neutral>
5.77131e-06

> <r_epik_State_Penalty>
6.79217

> <r_epik_Charging_Adjusted_Penalty>
13.5588

> <i_epik_Tot_Q>
0

> <i_epik_Tot_abs_Q>
2

> <r_epik_Metal_State_Penalty>
2.72569

> <b_epik_Metal_Only>
1

> <s_lp_Force_Field>
OPLS_2005

> <r_lp_Energy>
25.8375

> <b_lp_Chiralities_Consistent>
1

> <s_lp_Variant>
AV-unprocessed.smi:1978-18

> <Gold.Version>
5.8.1

> <Gold.Id.Protein>
6NUR|6NUR_protein|mol2

> <Gold.PLP.Fitness>
42.2617

> <Gold.PLP.PLP>
-32.2297

> <Gold.PLP.part.hbond>
-3.8912

> <Gold.PLP.part.metal>
0.0000

> <Gold.PLP.part.buried>
-4.4448

> <Gold.PLP.part.nonpolar>
-26.2562

> <Gold.PLP.part.repulsive>
0.9996

> <Gold.PLP.ligand.clash>
0.0076

> <Gold.PLP.ligand.torsion>
0.8660

> <Gold.PLP.Chemscore.Hbond>
3.8800

> <Gold.PLP.Chemscore.CHOScore>
0.0000

> <Gold.PLP.Chemscore.Metal>
0.0000

> <Gold.Chemscore.Hbonds>
donor molecule, donor type, donor heavy atom, donor atom, acceptor molecule, acceptor atom, score
      L1  H     5    25       P1  7957  0.90
      L1  H    12    44       P1  7948  2.00
      P1  H  7989  7998       L1    19  0.95

> <Gold.PLP.Chemscore.Internal.Correction>
0.1315

> <Gold.Rescore>
     Score         DG    S(hbond)    S(metal)    S(lipo)     H(rot)  DE(clash)    DE(int)     intcor
     14.76     -17.40       2.67        0.00      59.06       1.52       0.22       2.42       ----

> <Gold.Chemscore.Fitness>
14.7583

> <Gold.Chemscore.DG>
-17.4040

> <Gold.Chemscore.ZeroCoef>
-5.4800

> <Gold.Chemscore.Hbond>
2.6655

> <Gold.Chemscore.Metal>
0.0000

> <Gold.Chemscore.Lipo>
59.0579

> <Gold.Chemscore.Internal_Hbond>
0.0000

> <Gold.Chemscore.DEClash>
0.2243

> <Gold.Chemscore.DEInternal>
2.4214

> <Gold.Chemscore.Rot>
1.5190

> <Gold.Chemscore.Internal.Correction>
   9.000000E+99

> <Gold.Chemscore.Hbonds>
donor molecule, donor type, donor heavy atom, donor atom, acceptor molecule, acceptor atom, score
      L1  H     5    25       P1  7957  0.88
      L1  H    12    44       P1  7948  0.99
      P1  H  7989  7998       L1    19  0.12

> <Gold.Chemscore.Hbond.Weighted>
-8.9029

> <Gold.Chemscore.Metal.Weighted>
-0.0000

> <Gold.Chemscore.Lipo.Weighted>
-6.9098

> <Gold.Chemscore.Internal_Hbond.Weighted>
0.0000

> <Gold.Chemscore.DEClash.Weighted>
0.2243

> <Gold.Chemscore.DEInternal.Weighted>
2.4214

> <Gold.Chemscore.Rot.Weighted>
3.8886

> <Gold.Chemscore.Internal.Correction.Weighted>
   9.000000E+99

> <Gold.Protein.RotatedTorsions>
[ 6907 6896 6895 6894 ] final   -5.58 input  -60.11 | X-H torsion
[ 7974 7965 7964 7962 ] final  -12.03 input  175.53 | X-H torsion
[ 8008 7997 7996 7995 ] final  -22.07 input   59.86 | X-H torsion
[ 10167 10162 10161 10158 ] final  120.38 input  -65.29 | X-H torsion
[ 10718 10713 10712 10709 ] final   64.97 input   66.30 | X-H torsion
[ 10763 10752 10751 10750 ] final  -50.01 input  -60.55 | X-H torsion
[ 11005 11000 10999 10996 ] final -119.99 input  -57.11 | X-H torsion

> <Gold.Protein.ActiveResidues>
 VAL166  LYS551  ARG553  GLY616  TRP617  ASP618  TYR619  PRO620  LYS621  CYS622 
 ASP623  PHE694  ASN695  SER759  ASP760  ASP761  ALA762  ILE779  LEU786  VAL792 
 PHE793  MET794  SER795  GLU796  ALA797  LYS798  CYS799  TRP800  GLU811  SER814 

> <Gold.Protein.RotatedAtoms>
  151.4792  135.1051  159.9772 H   0  0  0  0  0  0  0  0  0  0  0  0  # atno 6907 bound_to 6896
  152.4786  133.8194  159.7056 H   0  0  0  0  0  0  0  0  0  0  0  0  # atno 6908 bound_to 6896
  150.8841  133.7270  159.2950 H   0  0  0  0  0  0  0  0  0  0  0  0  # atno 6909 bound_to 6896
  146.2166  140.2998  142.8374 H   0  0  0  0  0  0  0  0  0  0  0  0  # atno 7974 bound_to 7965
  154.4666  140.2017  156.0102 H   0  0  0  0  0  0  0  0  0  0  0  0  # atno 8008 bound_to 7997
  156.0938  140.3254  155.7821 H   0  0  0  0  0  0  0  0  0  0  0  0  # atno 8009 bound_to 7997
  155.4912  140.0546  157.2944 H   0  0  0  0  0  0  0  0  0  0  0  0  # atno 8010 bound_to 7997
  139.5985  144.7049  151.3117 H   0  0  0  0  0  0  0  0  0  0  0  0  # atno 10167 bound_to 10162
  157.6075  130.9189  149.9915 H   0  0  0  0  0  0  0  0  0  0  0  0  # atno 10718 bound_to 10713
  154.1033  135.6560  153.4872 H   0  0  0  0  0  0  0  0  0  0  0  0  # atno 10763 bound_to 10752
  153.0281  135.5230  154.7264 H   0  0  0  0  0  0  0  0  0  0  0  0  # atno 10764 bound_to 10752
  154.6423  135.2990  155.0058 H   0  0  0  0  0  0  0  0  0  0  0  0  # atno 10765 bound_to 10752
  141.0176  134.0172  157.3328 H   0  0  0  0  0  0  0  0  0  0  0  0  # atno 11005 bound_to 11000
  144.9065  140.7706  143.5834 LP  0  0  0  0  0  0  0  0  0  0  0  0  # atno 17320 bound_to 7965
  145.2927  139.1878  143.4732 LP  0  0  0  0  0  0  0  0  0  0  0  0  # atno 17321 bound_to 7965
  140.7231  143.7079  150.7793 LP  0  0  0  0  0  0  0  0  0  0  0  0  # atno 17342 bound_to 10162
  140.0651  143.5117  152.2608 LP  0  0  0  0  0  0  0  0  0  0  0  0  # atno 17343 bound_to 10162
  156.1166  130.3647  149.9958 LP  0  0  0  0  0  0  0  0  0  0  0  0  # atno 17370 bound_to 10713
  156.8046  130.9303  151.3645 LP  0  0  0  0  0  0  0  0  0  0  0  0  # atno 17371 bound_to 10713
  139.9126  135.0192  156.7754 LP  0  0  0  0  0  0  0  0  0  0  0  0  # atno 17394 bound_to 11000
  140.6628  133.9630  155.7814 LP  0  0  0  0  0  0  0  0  0  0  0  0  # atno 17395 bound_to 11000

$$$$
