AV-unprocessed.smi:1095|AV-procd|sdf|4748|dock5
  -GOLD-   22720 3283D 1   1.00000     0.00000
 Structure written by MMmdl.
 50 51  0  0  0  0  0  0  0  0  1 V2000
  153.0449  142.5065  162.2464 C   0  0  0  0  0  0  0  0  0  0  0  0
  153.7026  142.3749  160.8658 C   0  0  0  0  0  0  0  0  0  0  0  0
  152.9730  143.1426  159.7446 C   0  0  2  0  0  0  0  0  0  0  0  0
  152.0269  144.2326  160.2928 C   0  0  0  0  0  0  0  0  0  0  0  0
  151.2807  144.9657  159.1638 C   0  0  0  0  0  0  0  0  0  0  0  0
  150.5015  144.0043  158.2446 C   0  0  2  0  0  0  0  0  0  0  0  0
  149.2315  143.4459  158.9286 C   0  0  0  0  0  0  0  0  0  0  0  0
  148.2318  144.4825  159.1630 N   0  0  0  0  0  0  0  0  0  0  0  0
  147.3317  144.4754  160.1581 C   0  0  0  0  0  0  0  0  0  0  0  0
  147.2295  143.5579  160.9729 O   0  0  0  0  0  0  0  0  0  0  0  0
  146.4128  145.6946  160.2561 C   0  0  0  0  0  0  0  0  0  0  0  0
  144.9901  145.2920  159.9561 C   0  0  0  0  0  0  0  0  0  0  0  0
  144.1634  144.3939  160.6950 C   0  0  0  0  0  0  0  0  0  0  0  0
  144.4957  143.6203  161.9385 C   0  0  0  0  0  0  0  0  0  0  0  0
  142.9614  144.2588  160.1608 N   0  0  0  0  0  0  0  0  0  0  0  0
  142.9758  145.0545  159.0730 N   0  0  0  0  0  0  0  0  0  0  0  0
  141.7905  145.1420  158.2422 C   0  0  0  0  0  0  0  0  0  0  0  0
  144.1923  145.6903  158.9164 C   0  0  0  0  0  0  0  0  0  0  0  0
  144.4666  146.6201  157.7782 C   0  0  0  0  0  0  0  0  0  0  0  0
  151.4510  142.9102  157.7092 C   0  0  0  0  0  0  0  0  0  0  0  0
  152.1916  142.1715  158.8370 C   0  0  0  0  0  0  0  0  0  0  0  0
  153.6453  142.0071  163.0070 H   0  0  0  0  0  0  0  0  0  0  0  0
  152.0537  142.0542  162.2668 H   0  0  0  0  0  0  0  0  0  0  0  0
  152.9455  143.5523  162.5380 H   0  0  0  0  0  0  0  0  0  0  0  0
  154.7249  142.7472  160.9442 H   0  0  0  0  0  0  0  0  0  0  0  0
  153.7868  141.3205  160.6003 H   0  0  0  0  0  0  0  0  0  0  0  0
  153.7290  143.6306  159.1273 H   0  0  0  0  0  0  0  0  0  0  0  0
  151.3094  143.7888  160.9837 H   0  0  0  0  0  0  0  0  0  0  0  0
  152.5896  144.9658  160.8701 H   0  0  0  0  0  0  0  0  0  0  0  0
  150.6076  145.7127  159.5855 H   0  0  0  0  0  0  0  0  0  0  0  0
  152.0055  145.5194  158.5655 H   0  0  0  0  0  0  0  0  0  0  0  0
  150.1647  144.5894  157.3874 H   0  0  0  0  0  0  0  0  0  0  0  0
  148.7706  142.6710  158.3171 H   0  0  0  0  0  0  0  0  0  0  0  0
  149.4926  142.9652  159.8729 H   0  0  0  0  0  0  0  0  0  0  0  0
  148.2424  145.2756  158.5383 H   0  0  0  0  0  0  0  0  0  0  0  0
  146.4921  146.1433  161.2471 H   0  0  0  0  0  0  0  0  0  0  0  0
  146.7723  146.4513  159.5588 H   0  0  0  0  0  0  0  0  0  0  0  0
  144.6716  142.5699  161.7061 H   0  0  0  0  0  0  0  0  0  0  0  0
  143.6838  143.6696  162.6644 H   0  0  0  0  0  0  0  0  0  0  0  0
  145.3926  144.0066  162.4218 H   0  0  0  0  0  0  0  0  0  0  0  0
  141.5560  146.1879  158.0437 H   0  0  0  0  0  0  0  0  0  0  0  0
  140.9367  144.6803  158.7399 H   0  0  0  0  0  0  0  0  0  0  0  0
  141.9687  144.6300  157.2965 H   0  0  0  0  0  0  0  0  0  0  0  0
  145.5374  146.7663  157.6372 H   0  0  0  0  0  0  0  0  0  0  0  0
  144.0138  147.5949  157.9595 H   0  0  0  0  0  0  0  0  0  0  0  0
  144.0640  146.2275  156.8442 H   0  0  0  0  0  0  0  0  0  0  0  0
  150.9100  142.1947  157.0910 H   0  0  0  0  0  0  0  0  0  0  0  0
  152.1870  143.3722  157.0501 H   0  0  0  0  0  0  0  0  0  0  0  0
  152.8755  141.4441  158.3981 H   0  0  0  0  0  0  0  0  0  0  0  0
  151.4809  141.5968  159.4317 H   0  0  0  0  0  0  0  0  0  0  0  0
  1  2  1  0  0  0  0
  1 22  1  0  0  0  0
  1 23  1  0  0  0  0
  1 24  1  0  0  0  0
  2  3  1  0  0  0  0
  2 25  1  0  0  0  0
  2 26  1  0  0  0  0
  3 21  1  0  0  0  0
  3  4  1  0  0  0  0
  3 27  1  0  0  0  0
  4  5  1  0  0  0  0
  4 28  1  0  0  0  0
  4 29  1  0  0  0  0
  5  6  1  0  0  0  0
  5 30  1  0  0  0  0
  5 31  1  0  0  0  0
  6  7  1  0  0  0  0
  6 20  1  0  0  0  0
  6 32  1  0  0  0  0
  7  8  1  0  0  0  0
  7 33  1  0  0  0  0
  7 34  1  0  0  0  0
  8  9  1  0  0  0  0
  8 35  1  0  0  0  0
  9 10  2  0  0  0  0
  9 11  1  0  0  0  0
 11 12  1  0  0  0  0
 11 36  1  0  0  0  0
 11 37  1  0  0  0  0
 12 18  2  0  0  0  0
 12 13  1  0  0  0  0
 13 14  1  0  0  0  0
 13 15  2  0  0  0  0
 14 38  1  0  0  0  0
 14 39  1  0  0  0  0
 14 40  1  0  0  0  0
 15 16  1  0  0  0  0
 16 17  1  0  0  0  0
 16 18  1  0  0  0  0
 17 41  1  0  0  0  0
 17 42  1  0  0  0  0
 17 43  1  0  0  0  0
 18 19  1  0  0  0  0
 19 44  1  0  0  0  0
 19 45  1  0  0  0  0
 19 46  1  0  0  0  0
 20 21  1  0  0  0  0
 20 47  1  0  0  0  0
 20 48  1  0  0  0  0
 21 49  1  0  0  0  0
 21 50  1  0  0  0  0
M  END
> <s_m_source_file>
AV-unprocessed.smi

> <i_m_source_file_index>
1095

> <i_lp_mmshare_version>
43012

> <i_f3d_flags>
0

> <s_epik_input>
W0NIM11bQ0gyXVtDQEBIXTFbQ0gyXVtDSDJdW0NASF0oW0NIMl1bQ0gyXTEpW0NIMl1bTkhdQyg9TylbQ0gyXWMyYyhbQ0gzXSlubihbQ0gzXSljMltDSDNd

> <s_epik_cmdline>
J2VwaWtfcHl0aG9uJywgJy1waCcsICc3LjAnLCAnLXRuJywgJzgnLCAnLW1hJywgJzIwMCcsICctbWV0YWxfYmluZGluZycsICctaW1hZScsICc8aW5maWxlLm1hZT4nLCAnLW9tYWUnLCAnPG91dGZpbGUubWFlPic=

> <r_lp_tautomer_probability>
1

> <r_epik_Ionization_Penalty>
0.00317479

> <r_epik_Ionization_Penalty_Charging>
0

> <r_epik_Ionization_Penalty_Neutral>
0.00317479

> <r_epik_State_Penalty>
0.00223767

> <r_epik_Charging_Adjusted_Penalty>
0.00223767

> <i_epik_Tot_Q>
0

> <i_epik_Tot_abs_Q>
0

> <r_epik_Metal_State_Penalty>
-0

> <b_epik_Metal_Only>
0

> <s_lp_Force_Field>
OPLS_2005

> <r_lp_Energy>
8.21356

> <b_lp_Chiralities_Consistent>
1

> <s_lp_Variant>
AV-unprocessed.smi:1095-2

> <Gold.Version>
5.8.1

> <Gold.Id.Protein>
6NUR|6NUR_protein|mol2

> <Gold.PLP.Fitness>
46.9321

> <Gold.PLP.PLP>
-42.7098

> <Gold.PLP.part.hbond>
-1.8638

> <Gold.PLP.part.metal>
0.0000

> <Gold.PLP.part.buried>
-6.3716

> <Gold.PLP.part.nonpolar>
-35.6379

> <Gold.PLP.part.repulsive>
0.2425

> <Gold.PLP.ligand.clash>
0.0000

> <Gold.PLP.ligand.torsion>
0.9123

> <Gold.PLP.Chemscore.Hbond>
2.0000

> <Gold.PLP.Chemscore.CHOScore>
0.0000

> <Gold.PLP.Chemscore.Metal>
0.0000

> <Gold.Chemscore.Hbonds>
donor molecule, donor type, donor heavy atom, donor atom, acceptor molecule, acceptor atom, score
      L1  H     8    35       P1  8029  0.84
      P1  H  6933  6944       L1    10  1.00

> <Gold.PLP.Chemscore.Internal.Correction>
0.0469

> <Gold.Rescore>
     Score         DG    S(hbond)    S(metal)    S(lipo)     H(rot)  DE(clash)    DE(int)     intcor
     21.09     -23.06       1.94        0.00     126.08       1.43       0.02       1.95       ----

> <Gold.Chemscore.Fitness>
21.0852

> <Gold.Chemscore.DG>
-23.0575

> <Gold.Chemscore.ZeroCoef>
-5.4800

> <Gold.Chemscore.Hbond>
1.9448

> <Gold.Chemscore.Metal>
0.0000

> <Gold.Chemscore.Lipo>
126.0844

> <Gold.Chemscore.Internal_Hbond>
0.0000

> <Gold.Chemscore.DEClash>
0.0179

> <Gold.Chemscore.DEInternal>
1.9544

> <Gold.Chemscore.Rot>
1.4336

> <Gold.Chemscore.Internal.Correction>
   9.000000E+99

> <Gold.Chemscore.Hbonds>
donor molecule, donor type, donor heavy atom, donor atom, acceptor molecule, acceptor atom, score
      L1  H     8    35       P1  8029  0.81
      P1  H  6933  6944       L1    10  1.00

> <Gold.Chemscore.Hbond.Weighted>
-6.4956

> <Gold.Chemscore.Metal.Weighted>
-0.0000

> <Gold.Chemscore.Lipo.Weighted>
-14.7519

> <Gold.Chemscore.Internal_Hbond.Weighted>
0.0000

> <Gold.Chemscore.DEClash.Weighted>
0.0179

> <Gold.Chemscore.DEInternal.Weighted>
1.9544

> <Gold.Chemscore.Rot.Weighted>
3.6700

> <Gold.Chemscore.Internal.Correction.Weighted>
   9.000000E+99

> <Gold.Protein.RotatedTorsions>
[ 6907 6896 6895 6894 ] final  -76.82 input  -60.11 | X-H torsion
[ 7974 7965 7964 7962 ] final  107.92 input  175.53 | X-H torsion
[ 8008 7997 7996 7995 ] final  -11.76 input   59.86 | X-H torsion
[ 10167 10162 10161 10158 ] final -162.42 input  -65.29 | X-H torsion
[ 10718 10713 10712 10709 ] final   47.91 input   66.30 | X-H torsion
[ 10763 10752 10751 10750 ] final  -68.15 input  -60.55 | X-H torsion
[ 11005 11000 10999 10996 ] final   82.89 input  -57.11 | X-H torsion

> <Gold.Protein.ActiveResidues>
 VAL166  LYS551  ARG553  GLY616  TRP617  ASP618  TYR619  PRO620  LYS621  CYS622 
 ASP623  PHE694  ASN695  SER759  ASP760  ASP761  ALA762  ILE779  LEU786  VAL792 
 PHE793  MET794  SER795  GLU796  ALA797  LYS798  CYS799  TRP800  GLU811  SER814 

> <Gold.Protein.RotatedAtoms>
  150.7016  134.4515  159.5338 H   0  0  0  0  0  0  0  0  0  0  0  0  # atno 6907 bound_to 6896
  152.2207  134.8413  160.0495 H   0  0  0  0  0  0  0  0  0  0  0  0  # atno 6908 bound_to 6896
  151.9264  133.3564  159.3952 H   0  0  0  0  0  0  0  0  0  0  0  0  # atno 6909 bound_to 6896
  145.2873  139.2612  143.3883 H   0  0  0  0  0  0  0  0  0  0  0  0  # atno 7974 bound_to 7965
  154.5436  140.2294  155.8599 H   0  0  0  0  0  0  0  0  0  0  0  0  # atno 8008 bound_to 7997
  156.1882  140.3083  155.9242 H   0  0  0  0  0  0  0  0  0  0  0  0  # atno 8009 bound_to 7997
  155.3208  140.0440  157.3030 H   0  0  0  0  0  0  0  0  0  0  0  0  # atno 8010 bound_to 7997
  139.6393  144.0290  152.2079 H   0  0  0  0  0  0  0  0  0  0  0  0  # atno 10167 bound_to 10162
  157.4633  130.8210  149.7909 H   0  0  0  0  0  0  0  0  0  0  0  0  # atno 10718 bound_to 10713
  154.3848  135.6066  153.5810 H   0  0  0  0  0  0  0  0  0  0  0  0  # atno 10763 bound_to 10752
  152.9788  135.5869  154.4367 H   0  0  0  0  0  0  0  0  0  0  0  0  # atno 10764 bound_to 10752
  154.4142  135.2844  155.1995 H   0  0  0  0  0  0  0  0  0  0  0  0  # atno 10765 bound_to 10752
  139.9049  134.8104  156.2235 H   0  0  0  0  0  0  0  0  0  0  0  0  # atno 11005 bound_to 11000
  146.3196  140.3356  142.8644 LP  0  0  0  0  0  0  0  0  0  0  0  0  # atno 17320 bound_to 7965
  144.9202  140.7859  143.5753 LP  0  0  0  0  0  0  0  0  0  0  0  0  # atno 17321 bound_to 7965
  139.9975  144.6317  150.7759 LP  0  0  0  0  0  0  0  0  0  0  0  0  # atno 17342 bound_to 10162
  140.7482  143.2919  151.3308 LP  0  0  0  0  0  0  0  0  0  0  0  0  # atno 17343 bound_to 10162
  156.0038  130.3866  150.2504 LP  0  0  0  0  0  0  0  0  0  0  0  0  # atno 17370 bound_to 10713
  157.0683  131.0109  151.3199 LP  0  0  0  0  0  0  0  0  0  0  0  0  # atno 17371 bound_to 10713
  141.0390  133.6947  156.1565 LP  0  0  0  0  0  0  0  0  0  0  0  0  # atno 17394 bound_to 11000
  140.6983  134.4591  157.5587 LP  0  0  0  0  0  0  0  0  0  0  0  0  # atno 17395 bound_to 11000

$$$$
