AV-unprocessed.smi:674|AV-procd|sdf|3302|dock9
  -GOLD-   22720 0263D 1   1.00000     0.00000
 Structure written by MMmdl.
 47 48  0  0  0  0  0  0  0  0  1 V2000
  151.0392  141.9586  157.3668 C   0  0  0  0  0  0  0  0  0  0  0  0
  150.3820  142.1505  155.9952 C   0  0  0  0  0  0  0  0  0  0  0  0
  150.1161  140.8403  155.3090 C   0  0  0  0  0  0  0  0  0  0  0  0
  148.8719  140.3454  154.8218 C   0  0  0  0  0  0  0  0  0  0  0  0
  149.2129  139.1253  154.3047 C   0  0  0  0  0  0  0  0  0  0  0  0
  148.4148  138.2005  153.7076 N   0  0  0  0  0  0  0  0  0  0  0  0
  147.0757  138.0911  153.7528 C   0  0  0  0  0  0  0  0  0  0  0  0
  146.3136  138.8676  154.3288 O   0  0  0  0  0  0  0  0  0  0  0  0
  146.6560  137.0091  153.0830 N   0  0  0  0  0  0  0  0  0  0  0  0
  145.2588  136.6034  152.9669 C   0  0  1  0  0  0  0  0  0  0  0  0
  144.9159  136.0609  151.5808 C   0  0  0  0  0  0  0  0  0  0  0  0
  144.0139  135.0311  152.2879 C   0  0  2  0  0  0  0  0  0  0  0  0
  143.8437  133.6344  151.6766 C   0  0  0  0  0  0  0  0  0  0  0  0
  142.7358  135.6128  152.5799 O   0  0  0  0  0  0  0  0  0  0  0  0
  141.7614  134.7747  153.1892 C   0  0  0  0  0  0  0  0  0  0  0  0
  144.9322  135.2005  153.5421 C   0  0  0  0  0  0  0  0  0  0  0  0
  146.1057  134.2088  153.6575 C   0  0  0  0  0  0  0  0  0  0  0  0
  144.2358  135.1803  154.9076 C   0  0  0  0  0  0  0  0  0  0  0  0
  150.5645  138.9269  154.4887 N   0  0  0  0  0  0  0  0  0  0  0  0
  151.4029  137.8011  154.1242 C   0  0  0  0  0  0  0  0  0  0  0  0
  151.1186  139.9923  155.1055 N   0  0  0  0  0  0  0  0  0  0  0  0
  151.2190  142.9193  157.8493 H   0  0  0  0  0  0  0  0  0  0  0  0
  151.9980  141.4473  157.2768 H   0  0  0  0  0  0  0  0  0  0  0  0
  150.4040  141.3674  158.0271 H   0  0  0  0  0  0  0  0  0  0  0  0
  149.4476  142.6990  156.1174 H   0  0  0  0  0  0  0  0  0  0  0  0
  151.0196  142.7770  155.3702 H   0  0  0  0  0  0  0  0  0  0  0  0
  147.9041  140.8217  154.8594 H   0  0  0  0  0  0  0  0  0  0  0  0
  148.9001  137.4972  153.1707 H   0  0  0  0  0  0  0  0  0  0  0  0
  147.3437  136.4218  152.6347 H   0  0  0  0  0  0  0  0  0  0  0  0
  144.5490  137.3701  153.2866 H   0  0  0  0  0  0  0  0  0  0  0  0
  144.4112  136.7772  150.9331 H   0  0  0  0  0  0  0  0  0  0  0  0
  145.7631  135.6008  151.0692 H   0  0  0  0  0  0  0  0  0  0  0  0
  144.8001  133.1304  151.5432 H   0  0  0  0  0  0  0  0  0  0  0  0
  143.3843  133.6741  150.6894 H   0  0  0  0  0  0  0  0  0  0  0  0
  143.2249  132.9983  152.3097 H   0  0  0  0  0  0  0  0  0  0  0  0
  140.8031  135.2933  153.1997 H   0  0  0  0  0  0  0  0  0  0  0  0
  142.0165  134.5513  154.2250 H   0  0  0  0  0  0  0  0  0  0  0  0
  141.6240  133.8369  152.6518 H   0  0  0  0  0  0  0  0  0  0  0  0
  145.7560  133.2010  153.8836 H   0  0  0  0  0  0  0  0  0  0  0  0
  146.7972  134.4931  154.4513 H   0  0  0  0  0  0  0  0  0  0  0  0
  146.6865  134.1489  152.7371 H   0  0  0  0  0  0  0  0  0  0  0  0
  143.7582  134.2185  155.0969 H   0  0  0  0  0  0  0  0  0  0  0  0
  143.4639  135.9463  154.9834 H   0  0  0  0  0  0  0  0  0  0  0  0
  144.9388  135.3656  155.7203 H   0  0  0  0  0  0  0  0  0  0  0  0
  150.7931  136.9389  153.8548 H   0  0  0  0  0  0  0  0  0  0  0  0
  152.0406  137.5277  154.9655 H   0  0  0  0  0  0  0  0  0  0  0  0
  152.0301  138.0723  153.2746 H   0  0  0  0  0  0  0  0  0  0  0  0
  1  2  1  0  0  0  0
  1 22  1  0  0  0  0
  1 23  1  0  0  0  0
  1 24  1  0  0  0  0
  2  3  1  0  0  0  0
  2 25  1  0  0  0  0
  2 26  1  0  0  0  0
  3 21  2  0  0  0  0
  3  4  1  0  0  0  0
  4  5  2  0  0  0  0
  4 27  1  0  0  0  0
  5  6  1  0  0  0  0
  5 19  1  0  0  0  0
  6  7  1  0  0  0  0
  6 28  1  0  0  0  0
  7  8  2  0  0  0  0
  7  9  1  0  0  0  0
  9 10  1  0  0  0  0
  9 29  1  0  0  0  0
 10 16  1  0  0  0  0
 10 11  1  0  0  0  0
 10 30  1  0  0  0  0
 11 12  1  0  0  0  0
 11 31  1  0  0  0  0
 11 32  1  0  0  0  0
 12 13  1  0  0  0  0
 12 14  1  0  0  0  0
 12 16  1  0  0  0  0
 13 33  1  0  0  0  0
 13 34  1  0  0  0  0
 13 35  1  0  0  0  0
 14 15  1  0  0  0  0
 15 36  1  0  0  0  0
 15 37  1  0  0  0  0
 15 38  1  0  0  0  0
 16 17  1  0  0  0  0
 16 18  1  0  0  0  0
 17 39  1  0  0  0  0
 17 40  1  0  0  0  0
 17 41  1  0  0  0  0
 18 42  1  0  0  0  0
 18 43  1  0  0  0  0
 18 44  1  0  0  0  0
 19 20  1  0  0  0  0
 19 21  1  0  0  0  0
 20 45  1  0  0  0  0
 20 46  1  0  0  0  0
 20 47  1  0  0  0  0
M  END
> <s_m_source_file>
AV-unprocessed.smi

> <i_m_source_file_index>
674

> <i_lp_mmshare_version>
43012

> <i_f3d_flags>
0

> <s_epik_input>
W0NIM11bQ0gyXWMxW2NIXWMobihuMSlbQ0gzXSlbTkhdQyg9TylbTkhdW0NAQEhdKEMyKFtDSDNdKVtDSDNdKVtDSDJdW0NAQF0yKFtDSDNdKU9bQ0gzXQ==

> <s_epik_cmdline>
J2VwaWtfcHl0aG9uJywgJy1waCcsICc3LjAnLCAnLXRuJywgJzgnLCAnLW1hJywgJzIwMCcsICctbWV0YWxfYmluZGluZycsICctaW1hZScsICc8aW5maWxlLm1hZT4nLCAnLW9tYWUnLCAnPG91dGZpbGUubWFlPic=

> <r_lp_tautomer_probability>
1

> <r_epik_Ionization_Penalty>
0.000101626

> <r_epik_Ionization_Penalty_Charging>
0

> <r_epik_Ionization_Penalty_Neutral>
0.000101626

> <r_epik_State_Penalty>
-0

> <r_epik_Charging_Adjusted_Penalty>
0

> <i_epik_Tot_Q>
0

> <i_epik_Tot_abs_Q>
0

> <r_epik_Metal_State_Penalty>
-0

> <b_epik_Metal_Only>
0

> <s_lp_Force_Field>
OPLS_2005

> <r_lp_Energy>
22.7899

> <b_lp_Chiralities_Consistent>
1

> <s_lp_Variant>
AV-unprocessed.smi:674-4

> <Gold.Version>
5.8.1

> <Gold.Id.Protein>
6NUR|6NUR_protein|mol2

> <Gold.PLP.Fitness>
39.5703

> <Gold.PLP.PLP>
-32.5811

> <Gold.PLP.part.hbond>
-3.0000

> <Gold.PLP.part.metal>
0.0000

> <Gold.PLP.part.buried>
-3.0036

> <Gold.PLP.part.nonpolar>
-26.6670

> <Gold.PLP.part.repulsive>
0.3793

> <Gold.PLP.ligand.clash>
0.0000

> <Gold.PLP.ligand.torsion>
0.4757

> <Gold.PLP.Chemscore.Hbond>
2.5200

> <Gold.PLP.Chemscore.CHOScore>
0.0000

> <Gold.PLP.Chemscore.Metal>
0.0000

> <Gold.Chemscore.Hbonds>
donor molecule, donor type, donor heavy atom, donor atom, acceptor molecule, acceptor atom, score
      L1  H     6    28       P1  7948  1.00
      L1  H     9    29       P1  7948  1.00
      P1  H  7989  7998       L1    21  0.45

> <Gold.PLP.Chemscore.Internal.Correction>
0.3806

> <Gold.Rescore>
     Score         DG    S(hbond)    S(metal)    S(lipo)     H(rot)  DE(clash)    DE(int)     intcor
     14.88     -16.49       1.95        0.00      68.37       1.37       0.04       1.56       ----

> <Gold.Chemscore.Fitness>
14.8798

> <Gold.Chemscore.DG>
-16.4853

> <Gold.Chemscore.ZeroCoef>
-5.4800

> <Gold.Chemscore.Hbond>
1.9469

> <Gold.Chemscore.Metal>
0.0000

> <Gold.Chemscore.Lipo>
68.3665

> <Gold.Chemscore.Internal_Hbond>
0.0000

> <Gold.Chemscore.DEClash>
0.0425

> <Gold.Chemscore.DEInternal>
1.5630

> <Gold.Chemscore.Rot>
1.3658

> <Gold.Chemscore.Internal.Correction>
   9.000000E+99

> <Gold.Chemscore.Hbonds>
donor molecule, donor type, donor heavy atom, donor atom, acceptor molecule, acceptor atom, score
      L1  H     6    28       P1  7948  0.97
      L1  H     9    29       P1  7948  0.94

> <Gold.Chemscore.Hbond.Weighted>
-6.5027

> <Gold.Chemscore.Metal.Weighted>
-0.0000

> <Gold.Chemscore.Lipo.Weighted>
-7.9989

> <Gold.Chemscore.Internal_Hbond.Weighted>
0.0000

> <Gold.Chemscore.DEClash.Weighted>
0.0425

> <Gold.Chemscore.DEInternal.Weighted>
1.5630

> <Gold.Chemscore.Rot.Weighted>
3.4963

> <Gold.Chemscore.Internal.Correction.Weighted>
   9.000000E+99

> <Gold.Protein.RotatedTorsions>
[ 6907 6896 6895 6894 ] final   76.15 input  -60.11 | X-H torsion
[ 7974 7965 7964 7962 ] final -153.50 input  175.53 | X-H torsion
[ 8008 7997 7996 7995 ] final   91.03 input   59.86 | X-H torsion
[ 10167 10162 10161 10158 ] final  173.14 input  -65.29 | X-H torsion
[ 10718 10713 10712 10709 ] final  -82.95 input   66.30 | X-H torsion
[ 10763 10752 10751 10750 ] final -166.01 input  -60.55 | X-H torsion
[ 11005 11000 10999 10996 ] final -127.09 input  -57.11 | X-H torsion

> <Gold.Protein.ActiveResidues>
 VAL166  LYS551  ARG553  GLY616  TRP617  ASP618  TYR619  PRO620  LYS621  CYS622 
 ASP623  PHE694  ASN695  SER759  ASP760  ASP761  ALA762  ILE779  LEU786  VAL792 
 PHE793  MET794  SER795  GLU796  ALA797  LYS798  CYS799  TRP800  GLU811  SER814 

> <Gold.Protein.RotatedAtoms>
  152.5060  134.4012  159.9416 H   0  0  0  0  0  0  0  0  0  0  0  0  # atno 6907 bound_to 6896
  151.3976  133.3762  159.2736 H   0  0  0  0  0  0  0  0  0  0  0  0  # atno 6908 bound_to 6896
  150.9385  134.8817  159.7656 H   0  0  0  0  0  0  0  0  0  0  0  0  # atno 6909 bound_to 6896
  144.7738  140.4518  143.5888 H   0  0  0  0  0  0  0  0  0  0  0  0  # atno 7974 bound_to 7965
  156.0190  140.3342  155.7019 H   0  0  0  0  0  0  0  0  0  0  0  0  # atno 8008 bound_to 7997
  155.6050  140.0659  157.2740 H   0  0  0  0  0  0  0  0  0  0  0  0  # atno 8009 bound_to 7997
  154.4309  140.1803  156.1200 H   0  0  0  0  0  0  0  0  0  0  0  0  # atno 8010 bound_to 7997
  139.5099  144.3294  152.0126 H   0  0  0  0  0  0  0  0  0  0  0  0  # atno 10167 bound_to 10162
  156.0025  130.4650  150.4183 H   0  0  0  0  0  0  0  0  0  0  0  0  # atno 10718 bound_to 10713
  154.6875  135.2965  154.9526 H   0  0  0  0  0  0  0  0  0  0  0  0  # atno 10763 bound_to 10752
  154.0501  135.6645  153.4803 H   0  0  0  0  0  0  0  0  0  0  0  0  # atno 10764 bound_to 10752
  153.0589  135.5127  154.7950 H   0  0  0  0  0  0  0  0  0  0  0  0  # atno 10765 bound_to 10752
  140.9628  134.0913  157.3951 H   0  0  0  0  0  0  0  0  0  0  0  0  # atno 11005 bound_to 11000
  145.6247  139.1528  143.3003 LP  0  0  0  0  0  0  0  0  0  0  0  0  # atno 17320 bound_to 7965
  146.1903  140.6354  142.9149 LP  0  0  0  0  0  0  0  0  0  0  0  0  # atno 17321 bound_to 7965
  140.2734  144.3939  150.6143 LP  0  0  0  0  0  0  0  0  0  0  0  0  # atno 17342 bound_to 10162
  140.6071  143.2168  151.6959 LP  0  0  0  0  0  0  0  0  0  0  0  0  # atno 17343 bound_to 10162
  157.2241  131.0489  151.2530 LP  0  0  0  0  0  0  0  0  0  0  0  0  # atno 17370 bound_to 10713
  157.3773  130.7212  149.6605 LP  0  0  0  0  0  0  0  0  0  0  0  0  # atno 17371 bound_to 10713
  139.8884  135.0097  156.6618 LP  0  0  0  0  0  0  0  0  0  0  0  0  # atno 17394 bound_to 11000
  140.7442  133.8952  155.8300 LP  0  0  0  0  0  0  0  0  0  0  0  0  # atno 17395 bound_to 11000

$$$$
