AV-unprocessed.smi:1911|AV-procd|sdf|7743|dock6
  -GOLD-   22720 9483D 1   1.00000     0.00000
 Structure written by MMmdl.
 53 55  0  0  0  0  0  0  0  0  3 V2000
  146.3137  131.0104  150.2073 N   0  0  0  0  0  0  0  0  0  0  0  0
  145.3076  131.6069  150.8508 C   0  0  0  0  0  0  0  0  0  0  0  0
  144.1355  131.4701  150.5047 O   0  0  0  0  0  0  0  0  0  0  0  0
  145.6762  132.4638  152.0663 C   0  0  0  0  0  0  0  0  0  0  0  0
  145.1594  133.8541  151.9778 N   0  3  2  0  0  0  0  0  0  0  0  0
  145.7462  134.6236  150.8481 C   0  0  0  0  0  0  0  0  0  0  0  0
  145.0798  136.0035  150.7114 C   0  0  0  0  0  0  0  0  0  0  0  0
  145.1598  136.8158  152.0194 C   0  0  2  0  0  0  0  0  0  0  0  0
  146.5236  137.2639  152.3017 N   0  0  0  0  0  0  0  0  0  0  0  0
  146.8655  138.1672  153.2321 C   0  0  0  0  0  0  0  0  0  0  0  0
  146.0489  138.7425  153.9507 O   0  0  0  0  0  0  0  0  0  0  0  0
  148.1945  138.3666  153.2527 N   0  0  0  0  0  0  0  0  0  0  0  0
  148.9440  139.2353  154.0910 C   0  0  0  0  0  0  0  0  0  0  0  0
  148.4657  140.4786  154.5749 C   0  0  0  0  0  0  0  0  0  0  0  0
  149.2848  141.2570  155.4185 C   0  0  0  0  0  0  0  0  0  0  0  0
  150.5720  140.7862  155.7688 C   0  0  0  0  0  0  0  0  0  0  0  0
  151.4547  141.4723  156.6169 N   0  0  0  0  0  0  0  0  0  0  0  0
  151.0013  142.7583  157.1439 C   0  0  0  0  0  0  0  0  0  0  0  0
  151.4509  142.8082  158.6052 C   0  0  0  0  0  0  0  0  0  0  0  0
  151.4900  141.3384  159.0033 C   0  0  0  0  0  0  0  0  0  0  0  0
  151.9521  140.6545  157.7173 C   0  0  0  0  0  0  0  0  0  0  0  0
  150.9781  139.5841  155.3047 N   0  3  0  0  0  0  0  0  0  0  0  0
  150.2251  138.8070  154.4971 C   0  0  0  0  0  0  0  0  0  0  0  0
  144.6172  135.9722  153.1861 C   0  0  0  0  0  0  0  0  0  0  0  0
  145.2874  134.5878  153.2629 C   0  0  0  0  0  0  0  0  0  0  0  0
  146.1200  130.4320  149.4018 H   0  0  0  0  0  0  0  0  0  0  0  0
  147.2646  131.1325  150.5247 H   0  0  0  0  0  0  0  0  0  0  0  0
  145.2463  131.9675  152.9374 H   0  0  0  0  0  0  0  0  0  0  0  0
  146.7575  132.4751  152.2146 H   0  0  0  0  0  0  0  0  0  0  0  0
  146.8207  134.7367  151.0002 H   0  0  0  0  0  0  0  0  0  0  0  0
  145.6195  134.0750  149.9143 H   0  0  0  0  0  0  0  0  0  0  0  0
  145.5292  136.5559  149.8855 H   0  0  0  0  0  0  0  0  0  0  0  0
  144.0317  135.8652  150.4423 H   0  0  0  0  0  0  0  0  0  0  0  0
  144.5295  137.7018  151.9224 H   0  0  0  0  0  0  0  0  0  0  0  0
  147.2628  136.8417  151.7590 H   0  0  0  0  0  0  0  0  0  0  0  0
  148.7278  137.8804  152.5468 H   0  0  0  0  0  0  0  0  0  0  0  0
  147.4800  140.8443  154.3323 H   0  0  0  0  0  0  0  0  0  0  0  0
  148.9135  142.1970  155.7995 H   0  0  0  0  0  0  0  0  0  0  0  0
  151.4393  143.5771  156.5724 H   0  0  0  0  0  0  0  0  0  0  0  0
  149.9189  142.8671  157.0822 H   0  0  0  0  0  0  0  0  0  0  0  0
  152.4530  143.2345  158.6714 H   0  0  0  0  0  0  0  0  0  0  0  0
  150.7881  143.4041  159.2332 H   0  0  0  0  0  0  0  0  0  0  0  0
  152.1483  141.1407  159.8496 H   0  0  0  0  0  0  0  0  0  0  0  0
  150.4872  140.9987  159.2661 H   0  0  0  0  0  0  0  0  0  0  0  0
  151.6085  139.6198  157.6701 H   0  0  0  0  0  0  0  0  0  0  0  0
  153.0411  140.6412  157.6651 H   0  0  0  0  0  0  0  0  0  0  0  0
  150.6735  137.8703  154.1986 H   0  0  0  0  0  0  0  0  0  0  0  0
  144.7449  136.5037  154.1301 H   0  0  0  0  0  0  0  0  0  0  0  0
  143.5421  135.8379  153.0587 H   0  0  0  0  0  0  0  0  0  0  0  0
  144.8192  134.0123  154.0625 H   0  0  0  0  0  0  0  0  0  0  0  0
  146.3423  134.6881  153.5225 H   0  0  0  0  0  0  0  0  0  0  0  0
  144.1690  133.7717  151.7950 H   0  0  0  0  0  0  0  0  0  0  0  0
  151.9018  139.2471  155.5774 H   0  0  0  0  0  0  0  0  0  0  0  0
  1  2  1  0  0  0  0
  1 26  1  0  0  0  0
  1 27  1  0  0  0  0
  2  3  2  0  0  0  0
  2  4  1  0  0  0  0
  4  5  1  0  0  0  0
  4 28  1  0  0  0  0
  4 29  1  0  0  0  0
  5 25  1  0  0  0  0
  5  6  1  0  0  0  0
  5 52  1  0  0  0  0
  6  7  1  0  0  0  0
  6 30  1  0  0  0  0
  6 31  1  0  0  0  0
  7  8  1  0  0  0  0
  7 32  1  0  0  0  0
  7 33  1  0  0  0  0
  8  9  1  0  0  0  0
  8 24  1  0  0  0  0
  8 34  1  0  0  0  0
  9 10  1  0  0  0  0
  9 35  1  0  0  0  0
 10 11  2  0  0  0  0
 10 12  1  0  0  0  0
 12 13  1  0  0  0  0
 12 36  1  0  0  0  0
 13 23  1  0  0  0  0
 13 14  2  0  0  0  0
 14 15  1  0  0  0  0
 14 37  1  0  0  0  0
 15 16  2  0  0  0  0
 15 38  1  0  0  0  0
 16 17  1  0  0  0  0
 16 22  1  0  0  0  0
 17 21  1  0  0  0  0
 17 18  1  0  0  0  0
 18 19  1  0  0  0  0
 18 39  1  0  0  0  0
 18 40  1  0  0  0  0
 19 20  1  0  0  0  0
 19 41  1  0  0  0  0
 19 42  1  0  0  0  0
 20 21  1  0  0  0  0
 20 43  1  0  0  0  0
 20 44  1  0  0  0  0
 21 45  1  0  0  0  0
 21 46  1  0  0  0  0
 22 23  2  0  0  0  0
 22 53  1  0  0  0  0
 23 47  1  0  0  0  0
 24 25  1  0  0  0  0
 24 48  1  0  0  0  0
 24 49  1  0  0  0  0
 25 50  1  0  0  0  0
 25 51  1  0  0  0  0
M  CHG  1   5   1
M  CHG  1  22   1
M  END
> <s_m_source_file>
AV-unprocessed.smi

> <i_m_source_file_index>
1911

> <i_lp_mmshare_version>
43012

> <i_f3d_flags>
0

> <s_epik_input>
W05IMl1DKD1PKVtDSDJdTjFbQ0gyXVtDSDJdW0NIXShbQ0gyXVtDSDJdMSlbTkhdQyg9TylbTkhdYzJbY0hdW2NIXWMobltjSF0yKU4zW0NIMl1bQ0gyXVtDSDJdW0NIMl0z

> <s_epik_cmdline>
J2VwaWtfcHl0aG9uJywgJy1waCcsICc3LjAnLCAnLXRuJywgJzgnLCAnLW1hJywgJzIwMCcsICctbWV0YWxfYmluZGluZycsICctaW1hZScsICc8aW5maWxlLm1hZT4nLCAnLW9tYWUnLCAnPG91dGZpbGUubWFlPic=

> <r_lp_tautomer_probability>
0.999994

> <r_epik_Ionization_Penalty>
2.11361

> <r_epik_Ionization_Penalty_Charging>
2.11355

> <r_epik_Ionization_Penalty_Neutral>
5.99226e-05

> <r_epik_State_Penalty>
2.13444

> <r_epik_Charging_Adjusted_Penalty>
4.24799

> <i_epik_Tot_Q>
2

> <i_epik_Tot_abs_Q>
2

> <r_epik_Metal_State_Penalty>
2.23538

> <b_epik_Metal_Only>
0

> <s_lp_Force_Field>
OPLS_2005

> <r_lp_Energy>
50.1523

> <b_lp_Chiralities_Consistent>
1

> <s_lp_Variant>
AV-unprocessed.smi:1911-6

> <Gold.Version>
5.8.1

> <Gold.Id.Protein>
6NUR|6NUR_protein|mol2

> <Gold.PLP.Fitness>
43.7021

> <Gold.PLP.PLP>
-35.9827

> <Gold.PLP.part.hbond>
-4.7485

> <Gold.PLP.part.metal>
0.0000

> <Gold.PLP.part.buried>
-1.5990

> <Gold.PLP.part.nonpolar>
-31.0731

> <Gold.PLP.part.repulsive>
0.7053

> <Gold.PLP.ligand.clash>
0.0000

> <Gold.PLP.ligand.torsion>
0.4686

> <Gold.PLP.Chemscore.Hbond>
2.8438

> <Gold.PLP.Chemscore.CHOScore>
0.0000

> <Gold.PLP.Chemscore.Metal>
0.0000

> <Gold.Chemscore.Hbonds>
donor molecule, donor type, donor heavy atom, donor atom, acceptor molecule, acceptor atom, score
      L1  H     1    27       P1 10747  0.96
      L1  H     9    35       P1  7948  0.90
      L1  H    12    36       P1  7948  0.85
      P1  H 10785 10796       L1     3  0.07

> <Gold.PLP.Chemscore.Internal.Correction>
0.1252

> <Gold.Rescore>
     Score         DG    S(hbond)    S(metal)    S(lipo)     H(rot)  DE(clash)    DE(int)     intcor
     17.91     -19.29       2.98        0.00      81.52       2.22       0.13       1.26       ----

> <Gold.Chemscore.Fitness>
17.9121

> <Gold.Chemscore.DG>
-19.2949

> <Gold.Chemscore.ZeroCoef>
-5.4800

> <Gold.Chemscore.Hbond>
2.9825

> <Gold.Chemscore.Metal>
0.0000

> <Gold.Chemscore.Lipo>
81.5243

> <Gold.Chemscore.Internal_Hbond>
0.0000

> <Gold.Chemscore.DEClash>
0.1276

> <Gold.Chemscore.DEInternal>
1.2552

> <Gold.Chemscore.Rot>
2.2207

> <Gold.Chemscore.Internal.Correction>
   9.000000E+99

> <Gold.Chemscore.Hbonds>
donor molecule, donor type, donor heavy atom, donor atom, acceptor molecule, acceptor atom, score
      L1  H     1    27       P1 10747  0.92
      L1  H     9    35       P1  7948  0.88
      L1  H    12    36       P1  7948  0.83
      P1  H 10785 10796       L1     3  0.09

> <Gold.Chemscore.Hbond.Weighted>
-9.9614

> <Gold.Chemscore.Metal.Weighted>
-0.0000

> <Gold.Chemscore.Lipo.Weighted>
-9.5383

> <Gold.Chemscore.Internal_Hbond.Weighted>
0.0000

> <Gold.Chemscore.DEClash.Weighted>
0.1276

> <Gold.Chemscore.DEInternal.Weighted>
1.2552

> <Gold.Chemscore.Rot.Weighted>
5.6849

> <Gold.Chemscore.Internal.Correction.Weighted>
   9.000000E+99

> <Gold.Protein.RotatedTorsions>
[ 6907 6896 6895 6894 ] final  131.38 input  -60.11 | X-H torsion
[ 7974 7965 7964 7962 ] final -171.72 input  175.53 | X-H torsion
[ 8008 7997 7996 7995 ] final  171.23 input   59.86 | X-H torsion
[ 10167 10162 10161 10158 ] final  -13.28 input  -65.29 | X-H torsion
[ 10718 10713 10712 10709 ] final   55.20 input   66.30 | X-H torsion
[ 10763 10752 10751 10750 ] final -136.84 input  -60.55 | X-H torsion
[ 11005 11000 10999 10996 ] final   48.54 input  -57.11 | X-H torsion

> <Gold.Protein.ActiveResidues>
 VAL166  LYS551  ARG553  GLY616  TRP617  ASP618  TYR619  PRO620  LYS621  CYS622 
 ASP623  PHE694  ASN695  SER759  ASP760  ASP761  ALA762  ILE779  LEU786  VAL792 
 PHE793  MET794  SER795  GLU796  ALA797  LYS798  CYS799  TRP800  GLU811  SER814 

> <Gold.Protein.RotatedAtoms>
  152.3432  133.6091  159.5890 H   0  0  0  0  0  0  0  0  0  0  0  0  # atno 6907 bound_to 6896
  150.7491  133.9690  159.3548 H   0  0  0  0  0  0  0  0  0  0  0  0  # atno 6908 bound_to 6896
  151.7552  135.0824  160.0388 H   0  0  0  0  0  0  0  0  0  0  0  0  # atno 6909 bound_to 6896
  144.7154  140.1880  143.6351 H   0  0  0  0  0  0  0  0  0  0  0  0  # atno 7974 bound_to 7965
  156.1291  140.1517  156.9092 H   0  0  0  0  0  0  0  0  0  0  0  0  # atno 8008 bound_to 7997
  154.4895  140.0855  156.7602 H   0  0  0  0  0  0  0  0  0  0  0  0  # atno 8009 bound_to 7997
  155.4289  140.3426  155.4280 H   0  0  0  0  0  0  0  0  0  0  0  0  # atno 8010 bound_to 7997
  140.7179  143.5443  150.9373 H   0  0  0  0  0  0  0  0  0  0  0  0  # atno 10167 bound_to 10162
  157.5324  130.8640  149.8706 H   0  0  0  0  0  0  0  0  0  0  0  0  # atno 10718 bound_to 10713
  154.8675  135.3660  154.5127 H   0  0  0  0  0  0  0  0  0  0  0  0  # atno 10763 bound_to 10752
  153.5761  135.7019  153.5488 H   0  0  0  0  0  0  0  0  0  0  0  0  # atno 10764 bound_to 10752
  153.3498  135.4075  155.1600 H   0  0  0  0  0  0  0  0  0  0  0  0  # atno 10765 bound_to 10752
  140.1181  134.4865  155.8620 H   0  0  0  0  0  0  0  0  0  0  0  0  # atno 11005 bound_to 11000
  145.8795  139.2315  143.1614 LP  0  0  0  0  0  0  0  0  0  0  0  0  # atno 17320 bound_to 7965
  146.0008  140.8521  143.0019 LP  0  0  0  0  0  0  0  0  0  0  0  0  # atno 17321 bound_to 7965
  139.9166  143.6656  152.3105 LP  0  0  0  0  0  0  0  0  0  0  0  0  # atno 17342 bound_to 10162
  139.7058  144.7628  151.1196 LP  0  0  0  0  0  0  0  0  0  0  0  0  # atno 17343 bound_to 10162
  156.0433  130.3734  150.1381 LP  0  0  0  0  0  0  0  0  0  0  0  0  # atno 17370 bound_to 10713
  156.9565  130.9791  151.3488 LP  0  0  0  0  0  0  0  0  0  0  0  0  # atno 17371 bound_to 10713
  141.2146  133.6751  156.6836 LP  0  0  0  0  0  0  0  0  0  0  0  0  # atno 17394 bound_to 11000
  140.3001  134.8171  157.4090 LP  0  0  0  0  0  0  0  0  0  0  0  0  # atno 17395 bound_to 11000

$$$$
