AV-unprocessed.smi:235|AV-procd|sdf|1806|dock6
  -GOLD-   2262020383D 1   1.00000     0.00000
 Structure written by MMmdl.
 54 58  0  0  0  0  0  0  0  0  1 V2000
  151.6460  141.2414  156.6797 O   0  0  0  0  0  0  0  0  0  0  0  0
  150.6292  141.9317  156.5945 C   0  0  0  0  0  0  0  0  0  0  0  0
  150.5886  143.2317  156.9203 N   0  0  0  0  0  0  0  0  0  0  0  0
  151.6860  143.9960  157.4172 C   0  0  0  0  0  0  0  0  0  0  0  0
  152.3523  143.5217  158.6904 C   0  0  0  0  0  0  0  0  0  0  0  0
  151.4864  144.7511  158.7134 C   0  0  0  0  0  0  0  0  0  0  0  0
  149.3118  141.3190  156.0926 C   0  0  1  0  0  0  0  0  0  0  0  0
  148.3012  142.4047  155.6882 C   0  0  0  0  0  0  0  0  0  0  0  0
  147.4385  141.7193  154.6337 C   0  0  0  0  0  0  0  0  0  0  0  0
  148.4289  140.8129  153.9040 C   0  0  0  0  0  0  0  0  0  0  0  0
  149.4920  140.5408  154.8637 N   0  0  0  0  0  0  0  0  0  0  0  0
  150.1144  139.3311  154.8483 C   0  0  0  0  0  0  0  0  0  0  0  0
  151.4661  139.2772  154.7063 N   0  0  0  0  0  0  0  0  0  0  0  0
  152.1014  138.1025  154.6864 C   0  0  0  0  0  0  0  0  0  0  0  0
  151.5887  136.8757  154.7878 N   0  0  0  0  0  0  0  0  0  0  0  0
  150.2330  136.9189  154.9247 C   0  0  0  0  0  0  0  0  0  0  0  0
  149.4231  138.0899  154.9650 C   0  0  0  0  0  0  0  0  0  0  0  0
  148.0865  137.7297  155.1025 N   0  0  0  0  0  0  0  0  0  0  0  0
  148.1069  136.4258  155.1497 C   0  0  0  0  0  0  0  0  0  0  0  0
  149.3564  135.8572  155.0553 N   0  0  0  0  0  0  0  0  0  0  0  0
  149.6740  134.4413  155.0826 C   0  0  0  0  0  0  0  0  0  0  0  0
  150.1603  133.9564  156.4648 C   0  0  2  0  0  0  0  0  0  0  0  0
  151.3907  134.6018  156.7247 O   0  0  0  0  0  0  0  0  0  0  0  0
  150.3600  132.4280  156.5686 C   0  0  1  0  0  0  0  0  0  0  0  0
  151.2706  131.8322  155.4934 C   0  0  0  0  0  0  0  0  0  0  0  0
  151.7594  130.5361  156.1190 C   0  0  0  0  0  0  0  0  0  0  0  0
  151.5025  130.7301  157.6155 C   0  0  0  0  0  0  0  0  0  0  0  0
  151.0705  132.0769  157.7472 O   0  0  0  0  0  0  0  0  0  0  0  0
  149.7079  143.7148  156.8188 H   0  0  0  0  0  0  0  0  0  0  0  0
  152.3344  144.4742  156.6844 H   0  0  0  0  0  0  0  0  0  0  0  0
  151.9624  142.6227  159.1644 H   0  0  0  0  0  0  0  0  0  0  0  0
  153.4280  143.6625  158.7743 H   0  0  0  0  0  0  0  0  0  0  0  0
  151.9847  145.7130  158.8157 H   0  0  0  0  0  0  0  0  0  0  0  0
  150.5182  144.6740  159.2047 H   0  0  0  0  0  0  0  0  0  0  0  0
  148.8645  140.6835  156.8595 H   0  0  0  0  0  0  0  0  0  0  0  0
  147.7145  142.7649  156.5336 H   0  0  0  0  0  0  0  0  0  0  0  0
  148.8019  143.2650  155.2397 H   0  0  0  0  0  0  0  0  0  0  0  0
  146.6755  141.1132  155.1242 H   0  0  0  0  0  0  0  0  0  0  0  0
  146.9352  142.4220  153.9690 H   0  0  0  0  0  0  0  0  0  0  0  0
  147.9369  139.9056  153.5501 H   0  0  0  0  0  0  0  0  0  0  0  0
  148.8580  141.3273  153.0433 H   0  0  0  0  0  0  0  0  0  0  0  0
  153.1741  138.1533  154.5732 H   0  0  0  0  0  0  0  0  0  0  0  0
  147.2060  135.8402  155.2616 H   0  0  0  0  0  0  0  0  0  0  0  0
  148.7883  133.8826  154.7764 H   0  0  0  0  0  0  0  0  0  0  0  0
  150.4371  134.2539  154.3260 H   0  0  0  0  0  0  0  0  0  0  0  0
  149.4559  134.2785  157.2326 H   0  0  0  0  0  0  0  0  0  0  0  0
  151.2876  135.1447  157.4913 H   0  0  0  0  0  0  0  0  0  0  0  0
  149.3957  131.9155  156.5650 H   0  0  0  0  0  0  0  0  0  0  0  0
  150.7581  131.6762  154.5436 H   0  0  0  0  0  0  0  0  0  0  0  0
  152.1198  132.4928  155.3129 H   0  0  0  0  0  0  0  0  0  0  0  0
  151.1955  129.6810  155.7444 H   0  0  0  0  0  0  0  0  0  0  0  0
  152.8143  130.3652  155.9025 H   0  0  0  0  0  0  0  0  0  0  0  0
  150.7115  130.0629  157.9603 H   0  0  0  0  0  0  0  0  0  0  0  0
  152.3907  130.5469  158.2205 H   0  0  0  0  0  0  0  0  0  0  0  0
  1  2  2  0  0  0  0
  2  3  1  0  0  0  0
  2  7  1  0  0  0  0
  3  4  1  0  0  0  0
  3 29  1  0  0  0  0
  4  6  1  0  0  0  0
  4  5  1  0  0  0  0
  4 30  1  0  0  0  0
  5  6  1  0  0  0  0
  5 31  1  0  0  0  0
  5 32  1  0  0  0  0
  6 33  1  0  0  0  0
  6 34  1  0  0  0  0
  7 11  1  0  0  0  0
  7  8  1  0  0  0  0
  7 35  1  0  0  0  0
  8  9  1  0  0  0  0
  8 36  1  0  0  0  0
  8 37  1  0  0  0  0
  9 10  1  0  0  0  0
  9 38  1  0  0  0  0
  9 39  1  0  0  0  0
 10 11  1  0  0  0  0
 10 40  1  0  0  0  0
 10 41  1  0  0  0  0
 11 12  1  0  0  0  0
 12 17  1  0  0  0  0
 12 13  2  0  0  0  0
 13 14  1  0  0  0  0
 14 15  2  0  0  0  0
 14 42  1  0  0  0  0
 15 16  1  0  0  0  0
 16 20  1  0  0  0  0
 16 17  2  0  0  0  0
 17 18  1  0  0  0  0
 18 19  2  0  0  0  0
 19 20  1  0  0  0  0
 19 43  1  0  0  0  0
 20 21  1  0  0  0  0
 21 22  1  0  0  0  0
 21 44  1  0  0  0  0
 21 45  1  0  0  0  0
 22 23  1  0  0  0  0
 22 24  1  0  0  0  0
 22 46  1  0  0  0  0
 23 47  1  0  0  0  0
 24 28  1  0  0  0  0
 24 25  1  0  0  0  0
 24 48  1  0  0  0  0
 25 26  1  0  0  0  0
 25 49  1  0  0  0  0
 25 50  1  0  0  0  0
 26 27  1  0  0  0  0
 26 51  1  0  0  0  0
 26 52  1  0  0  0  0
 27 28  1  0  0  0  0
 27 53  1  0  0  0  0
 27 54  1  0  0  0  0
M  END
> <s_m_source_file>
AV-unprocessed.smi

> <i_m_source_file_index>
235

> <i_lp_mmshare_version>
43012

> <i_f3d_flags>
0

> <s_epik_input>
W0NIMl0xW0NIMl1bQ0hdMVtOSF1DKD1PKVtDQEBIXTJbQ0gyXVtDSDJdW0NIMl1OMmMobltjSF1uMyljKGMzNCluW2NIXW40W0NIMl1bQ0BIXShbT0hdKVtDQEBIXTVbQ0gyXVtDSDJdW0NIMl1PNQ==

> <s_epik_cmdline>
J2VwaWtfcHl0aG9uJywgJy1waCcsICc3LjAnLCAnLXRuJywgJzgnLCAnLW1hJywgJzIwMCcsICctbWV0YWxfYmluZGluZycsICctaW1hZScsICc8aW5maWxlLm1hZT4nLCAnLW9tYWUnLCAnPG91dGZpbGUubWFlPic=

> <r_lp_tautomer_probability>
1

> <r_epik_Ionization_Penalty>
0.000526714

> <r_epik_Ionization_Penalty_Charging>
0

> <r_epik_Ionization_Penalty_Neutral>
0.000526714

> <r_epik_State_Penalty>
0.000272704

> <r_epik_Charging_Adjusted_Penalty>
0.000272704

> <i_epik_Tot_Q>
0

> <i_epik_Tot_abs_Q>
0

> <r_epik_Metal_State_Penalty>
-0

> <b_epik_Metal_Only>
0

> <s_lp_Force_Field>
OPLS_2005

> <r_lp_Energy>
59.6109

> <b_lp_Chiralities_Consistent>
1

> <s_lp_Variant>
AV-unprocessed.smi:235-6

> <Gold.Version>
5.8.1

> <Gold.Id.Protein>
6NUR|6NUR_protein|mol2

> <Gold.PLP.Fitness>
50.1530

> <Gold.PLP.PLP>
-43.6151

> <Gold.PLP.part.hbond>
-4.5195

> <Gold.PLP.part.metal>
0.0000

> <Gold.PLP.part.buried>
0.3127

> <Gold.PLP.part.nonpolar>
-40.7804

> <Gold.PLP.part.repulsive>
0.3341

> <Gold.PLP.ligand.clash>
0.8467

> <Gold.PLP.ligand.torsion>
2.0330

> <Gold.PLP.Chemscore.Hbond>
3.7000

> <Gold.PLP.Chemscore.CHOScore>
0.0000

> <Gold.PLP.Chemscore.Metal>
0.0000

> <Gold.Chemscore.Hbonds>
donor molecule, donor type, donor heavy atom, donor atom, acceptor molecule, acceptor atom, score
      L1  H     3    29       P1  8028  0.78
      P1  H  6896  6908       L1    28  1.00
      P1  H  7989  7998       L1    13  0.85
      P1  H 10752 10764       L1    15  1.00

> <Gold.PLP.Chemscore.Internal.Correction>
0.3506

> <Gold.Rescore>
     Score         DG    S(hbond)    S(metal)    S(lipo)     H(rot)  DE(clash)    DE(int)     intcor
     13.92     -18.85       2.78        0.00      93.42       2.68       1.83       3.10       ----

> <Gold.Chemscore.Fitness>
13.9171

> <Gold.Chemscore.DG>
-18.8493

> <Gold.Chemscore.ZeroCoef>
-5.4800

> <Gold.Chemscore.Hbond>
2.7815

> <Gold.Chemscore.Metal>
0.0000

> <Gold.Chemscore.Lipo>
93.4166

> <Gold.Chemscore.Internal_Hbond>
0.0000

> <Gold.Chemscore.DEClash>
1.8277

> <Gold.Chemscore.DEInternal>
3.1045

> <Gold.Chemscore.Rot>
2.6760

> <Gold.Chemscore.Internal.Correction>
   9.000000E+99

> <Gold.Chemscore.Hbonds>
donor molecule, donor type, donor heavy atom, donor atom, acceptor molecule, acceptor atom, score
      L1  H     3    29       P1  8028  0.76
      P1  H  6896  6908       L1    28  0.95
      P1  H  7989  7998       L1    13  0.14
      P1  H 10752 10764       L1    15  0.65

> <Gold.Chemscore.Hbond.Weighted>
-9.2902

> <Gold.Chemscore.Metal.Weighted>
-0.0000

> <Gold.Chemscore.Lipo.Weighted>
-10.9297

> <Gold.Chemscore.Internal_Hbond.Weighted>
0.0000

> <Gold.Chemscore.DEClash.Weighted>
1.8277

> <Gold.Chemscore.DEInternal.Weighted>
3.1045

> <Gold.Chemscore.Rot.Weighted>
6.8506

> <Gold.Chemscore.Internal.Correction.Weighted>
   9.000000E+99

> <Gold.Protein.RotatedTorsions>
[ 6907 6896 6895 6894 ] final   87.65 input  -60.11 | X-H torsion
[ 7974 7965 7964 7962 ] final  -93.07 input  175.53 | X-H torsion
[ 8008 7997 7996 7995 ] final  160.17 input   59.86 | X-H torsion
[ 10167 10162 10161 10158 ] final   86.60 input  -65.29 | X-H torsion
[ 10718 10713 10712 10709 ] final    8.59 input   66.30 | X-H torsion
[ 10763 10752 10751 10750 ] final  -76.28 input  -60.55 | X-H torsion
[ 11005 11000 10999 10996 ] final  -78.55 input  -57.11 | X-H torsion

> <Gold.Protein.ActiveResidues>
 VAL166  LYS551  ARG553  GLY616  TRP617  ASP618  TYR619  PRO620  LYS621  CYS622 
 ASP623  PHE694  ASN695  SER759  ASP760  ASP761  ALA762  ILE779  LEU786  VAL792 
 PHE793  MET794  SER795  GLU796  ALA797  LYS798  CYS799  TRP800  GLU811  SER814 

> <Gold.Protein.RotatedAtoms>
  152.5414  134.2243  159.8799 H   0  0  0  0  0  0  0  0  0  0  0  0  # atno 6907 bound_to 6896
  151.2218  133.4491  159.2608 H   0  0  0  0  0  0  0  0  0  0  0  0  # atno 6908 bound_to 6896
  151.0798  134.9864  159.8406 H   0  0  0  0  0  0  0  0  0  0  0  0  # atno 6909 bound_to 6896
  145.3915  140.9528  143.2338 H   0  0  0  0  0  0  0  0  0  0  0  0  # atno 7974 bound_to 7965
  156.2190  140.1811  156.7522 H   0  0  0  0  0  0  0  0  0  0  0  0  # atno 8008 bound_to 7997
  154.5835  140.0662  156.9167 H   0  0  0  0  0  0  0  0  0  0  0  0  # atno 8009 bound_to 7997
  155.2460  140.3325  155.4289 H   0  0  0  0  0  0  0  0  0  0  0  0  # atno 8010 bound_to 7997
  139.8859  144.6413  150.8791 H   0  0  0  0  0  0  0  0  0  0  0  0  # atno 10167 bound_to 10162
  156.9539  130.5907  149.5658 H   0  0  0  0  0  0  0  0  0  0  0  0  # atno 10718 bound_to 10713
  154.4977  135.5803  153.6507 H   0  0  0  0  0  0  0  0  0  0  0  0  # atno 10763 bound_to 10752
  152.9873  135.6128  154.3042 H   0  0  0  0  0  0  0  0  0  0  0  0  # atno 10764 bound_to 10752
  154.2947  135.2848  155.2618 H   0  0  0  0  0  0  0  0  0  0  0  0  # atno 10765 bound_to 10752
  141.1665  133.7068  156.7988 H   0  0  0  0  0  0  0  0  0  0  0  0  # atno 11005 bound_to 11000
  144.8437  139.5431  143.6888 LP  0  0  0  0  0  0  0  0  0  0  0  0  # atno 17320 bound_to 7965
  146.2795  139.6841  142.9239 LP  0  0  0  0  0  0  0  0  0  0  0  0  # atno 17321 bound_to 7965
  140.7736  143.3548  151.1942 LP  0  0  0  0  0  0  0  0  0  0  0  0  # atno 17342 bound_to 10162
  139.7153  143.9310  152.2964 LP  0  0  0  0  0  0  0  0  0  0  0  0  # atno 17343 bound_to 10162
  156.0351  130.5439  150.8632 LP  0  0  0  0  0  0  0  0  0  0  0  0  # atno 17370 bound_to 10713
  157.5703  131.0946  150.9427 LP  0  0  0  0  0  0  0  0  0  0  0  0  # atno 17371 bound_to 10713
  140.2271  134.8713  157.3438 LP  0  0  0  0  0  0  0  0  0  0  0  0  # atno 17394 bound_to 11000
  140.1928  134.4350  155.7706 LP  0  0  0  0  0  0  0  0  0  0  0  0  # atno 17395 bound_to 11000

$$$$
