AV-unprocessed.smi:2295|AV-procd|sdf|9218|dock8
  -GOLD-   2272012433D 1   1.00000     0.00000
 Structure written by MMmdl.
 37 38  0  0  0  0  0  0  0  0  1 V2000
  151.8814  145.8975  160.3944 C   0  0  0  0  0  0  0  0  0  0  0  0
  151.9748  144.5437  159.7222 C   0  0  0  0  0  0  0  0  0  0  0  0
  152.8332  143.5458  160.2218 C   0  0  0  0  0  0  0  0  0  0  0  0
  152.8739  142.3074  159.5515 C   0  0  0  0  0  0  0  0  0  0  0  0
  153.7780  141.1908  160.0296 C   0  0  0  0  0  0  0  0  0  0  0  0
  152.1294  142.0369  158.4583 N   0  0  0  0  0  0  0  0  0  0  0  0
  151.2988  142.9902  157.9681 C   0  0  0  0  0  0  0  0  0  0  0  0
  150.4787  142.8068  156.8231 N   0  0  0  0  0  0  0  0  0  0  0  0
  150.3391  141.7012  156.0703 C   0  0  0  0  0  0  0  0  0  0  0  0
  150.8992  140.6240  156.2764 O   0  0  0  0  0  0  0  0  0  0  0  0
  149.4951  141.9143  155.0499 N   0  0  0  0  0  0  0  0  0  0  0  0
  149.1118  140.9267  154.0448 C   0  0  0  0  0  0  0  0  0  0  0  0
  147.5965  140.6511  154.0542 C   0  0  2  0  0  0  0  0  0  0  0  0
  147.0927  140.1929  155.4301 C   0  0  0  0  0  0  0  0  0  0  0  0
  145.7775  139.4468  155.2033 C   0  0  0  0  0  0  0  0  0  0  0  0
  146.0176  138.5050  154.0238 C   0  0  0  0  0  0  0  0  0  0  0  0
  147.1028  139.3700  152.8614 S   0  0  0  0  0  0  0  0  0  0  0  0
  151.2002  144.2606  158.5792 C   0  0  0  0  0  0  0  0  0  0  0  0
  152.4999  145.9383  161.2916 H   0  0  0  0  0  0  0  0  0  0  0  0
  150.8510  146.1067  160.6821 H   0  0  0  0  0  0  0  0  0  0  0  0
  152.2150  146.6806  159.7133 H   0  0  0  0  0  0  0  0  0  0  0  0
  153.4444  143.7240  161.0946 H   0  0  0  0  0  0  0  0  0  0  0  0
  154.2763  141.4563  160.9623 H   0  0  0  0  0  0  0  0  0  0  0  0
  154.5431  140.9789  159.2823 H   0  0  0  0  0  0  0  0  0  0  0  0
  153.2019  140.2807  160.1991 H   0  0  0  0  0  0  0  0  0  0  0  0
  149.9381  143.6113  156.5431 H   0  0  0  0  0  0  0  0  0  0  0  0
  149.0846  142.8320  154.9599 H   0  0  0  0  0  0  0  0  0  0  0  0
  149.4402  141.2233  153.0471 H   0  0  0  0  0  0  0  0  0  0  0  0
  149.6483  140.0064  154.2773 H   0  0  0  0  0  0  0  0  0  0  0  0
  147.0586  141.5601  153.7816 H   0  0  0  0  0  0  0  0  0  0  0  0
  147.8145  139.5123  155.8845 H   0  0  0  0  0  0  0  0  0  0  0  0
  146.9682  141.0335  156.1135 H   0  0  0  0  0  0  0  0  0  0  0  0
  145.4556  138.9067  156.0942 H   0  0  0  0  0  0  0  0  0  0  0  0
  144.9909  140.1592  154.9513 H   0  0  0  0  0  0  0  0  0  0  0  0
  146.5314  137.6048  154.3624 H   0  0  0  0  0  0  0  0  0  0  0  0
  145.0887  138.1989  153.5424 H   0  0  0  0  0  0  0  0  0  0  0  0
  150.5358  145.0124  158.1780 H   0  0  0  0  0  0  0  0  0  0  0  0
  1  2  1  0  0  0  0
  1 19  1  0  0  0  0
  1 20  1  0  0  0  0
  1 21  1  0  0  0  0
  2 18  1  0  0  0  0
  2  3  2  0  0  0  0
  3  4  1  0  0  0  0
  3 22  1  0  0  0  0
  4  5  1  0  0  0  0
  4  6  2  0  0  0  0
  5 23  1  0  0  0  0
  5 24  1  0  0  0  0
  5 25  1  0  0  0  0
  6  7  1  0  0  0  0
  7  8  1  0  0  0  0
  7 18  2  0  0  0  0
  8  9  1  0  0  0  0
  8 26  1  0  0  0  0
  9 10  2  0  0  0  0
  9 11  1  0  0  0  0
 11 12  1  0  0  0  0
 11 27  1  0  0  0  0
 12 13  1  0  0  0  0
 12 28  1  0  0  0  0
 12 29  1  0  0  0  0
 13 17  1  0  0  0  0
 13 14  1  0  0  0  0
 13 30  1  0  0  0  0
 14 15  1  0  0  0  0
 14 31  1  0  0  0  0
 14 32  1  0  0  0  0
 15 16  1  0  0  0  0
 15 33  1  0  0  0  0
 15 34  1  0  0  0  0
 16 17  1  0  0  0  0
 16 35  1  0  0  0  0
 16 36  1  0  0  0  0
 18 37  1  0  0  0  0
M  END
> <s_m_source_file>
AV-unprocessed.smi

> <i_m_source_file_index>
2295

> <i_lp_mmshare_version>
43012

> <i_f3d_flags>
0

> <s_epik_input>
W0NIM11jMVtjSF1jKFtDSDNdKW5jKFtjSF0xKVtOSF1DKD1PKVtOSF1bQ0gyXVtDQEBIXTJbQ0gyXVtDSDJdW0NIMl1TMg==

> <s_epik_cmdline>
J2VwaWtfcHl0aG9uJywgJy1waCcsICc3LjAnLCAnLXRuJywgJzgnLCAnLW1hJywgJzIwMCcsICctbWV0YWxfYmluZGluZycsICctaW1hZScsICc8aW5maWxlLm1hZT4nLCAnLW9tYWUnLCAnPG91dGZpbGUubWFlPic=

> <r_lp_tautomer_probability>
1

> <r_epik_Ionization_Penalty>
0.000247769

> <r_epik_Ionization_Penalty_Charging>
0

> <r_epik_Ionization_Penalty_Neutral>
0.000247769

> <r_epik_State_Penalty>
-0

> <r_epik_Charging_Adjusted_Penalty>
0

> <i_epik_Tot_Q>
0

> <i_epik_Tot_abs_Q>
0

> <r_epik_Metal_State_Penalty>
-0

> <b_epik_Metal_Only>
0

> <s_lp_Force_Field>
OPLS_2005

> <r_lp_Energy>
13.4664

> <b_lp_Chiralities_Consistent>
1

> <s_lp_Variant>
AV-unprocessed.smi:2295-1

> <Gold.Version>
5.8.1

> <Gold.Id.Protein>
6NUR|6NUR_protein|mol2

> <Gold.PLP.Fitness>
44.0561

> <Gold.PLP.PLP>
-38.0676

> <Gold.PLP.part.hbond>
-2.0000

> <Gold.PLP.part.metal>
0.0000

> <Gold.PLP.part.buried>
-3.2836

> <Gold.PLP.part.nonpolar>
-33.3916

> <Gold.PLP.part.repulsive>
0.2601

> <Gold.PLP.ligand.clash>
0.0000

> <Gold.PLP.ligand.torsion>
0.0061

> <Gold.PLP.Chemscore.Hbond>
2.0000

> <Gold.PLP.Chemscore.CHOScore>
0.0000

> <Gold.PLP.Chemscore.Metal>
0.0000

> <Gold.Chemscore.Hbonds>
donor molecule, donor type, donor heavy atom, donor atom, acceptor molecule, acceptor atom, score
      L1  H     8    26       P1  8028  1.00
      L1  H    11    27       P1  8028  1.00

> <Gold.PLP.Chemscore.Internal.Correction>
0.0006

> <Gold.Rescore>
     Score         DG    S(hbond)    S(metal)    S(lipo)     H(rot)  DE(clash)    DE(int)     intcor
     18.97     -20.27       1.93        0.00      97.04       1.17       0.01       1.29       ----

> <Gold.Chemscore.Fitness>
18.9737

> <Gold.Chemscore.DG>
-20.2726

> <Gold.Chemscore.ZeroCoef>
-5.4800

> <Gold.Chemscore.Hbond>
1.9271

> <Gold.Chemscore.Metal>
0.0000

> <Gold.Chemscore.Lipo>
97.0401

> <Gold.Chemscore.Internal_Hbond>
0.0000

> <Gold.Chemscore.DEClash>
0.0050

> <Gold.Chemscore.DEInternal>
1.2939

> <Gold.Chemscore.Rot>
1.1709

> <Gold.Chemscore.Internal.Correction>
   9.000000E+99

> <Gold.Chemscore.Hbonds>
donor molecule, donor type, donor heavy atom, donor atom, acceptor molecule, acceptor atom, score
      L1  H     8    26       P1  8028  1.00
      L1  H    11    27       P1  8028  0.90

> <Gold.Chemscore.Hbond.Weighted>
-6.4364

> <Gold.Chemscore.Metal.Weighted>
-0.0000

> <Gold.Chemscore.Lipo.Weighted>
-11.3537

> <Gold.Chemscore.Internal_Hbond.Weighted>
0.0000

> <Gold.Chemscore.DEClash.Weighted>
0.0050

> <Gold.Chemscore.DEInternal.Weighted>
1.2939

> <Gold.Chemscore.Rot.Weighted>
2.9975

> <Gold.Chemscore.Internal.Correction.Weighted>
   9.000000E+99

> <Gold.Protein.RotatedTorsions>
[ 6907 6896 6895 6894 ] final  -21.71 input  -60.11 | X-H torsion
[ 7974 7965 7964 7962 ] final  166.47 input  175.53 | X-H torsion
[ 8008 7997 7996 7995 ] final   97.92 input   59.86 | X-H torsion
[ 10167 10162 10161 10158 ] final -132.10 input  -65.29 | X-H torsion
[ 10718 10713 10712 10709 ] final  130.74 input   66.30 | X-H torsion
[ 10763 10752 10751 10750 ] final -175.39 input  -60.55 | X-H torsion
[ 11005 11000 10999 10996 ] final    1.90 input  -57.11 | X-H torsion

> <Gold.Protein.ActiveResidues>
 VAL166  LYS551  ARG553  GLY616  TRP617  ASP618  TYR619  PRO620  LYS621  CYS622 
 ASP623  PHE694  ASN695  SER759  ASP760  ASP761  ALA762  ILE779  LEU786  VAL792 
 PHE793  MET794  SER795  GLU796  ALA797  LYS798  CYS799  TRP800  GLU811  SER814 

> <Gold.Protein.RotatedAtoms>
  151.2294  135.0548  159.8981 H   0  0  0  0  0  0  0  0  0  0  0  0  # atno 6907 bound_to 6896
  152.5406  134.0554  159.8138 H   0  0  0  0  0  0  0  0  0  0  0  0  # atno 6908 bound_to 6896
  151.0731  133.5401  159.2657 H   0  0  0  0  0  0  0  0  0  0  0  0  # atno 6909 bound_to 6896
  144.7461  139.8620  143.6381 H   0  0  0  0  0  0  0  0  0  0  0  0  # atno 7974 bound_to 7965
  156.0951  140.3251  155.7867 H   0  0  0  0  0  0  0  0  0  0  0  0  # atno 8008 bound_to 7997
  155.4931  140.0563  157.2968 H   0  0  0  0  0  0  0  0  0  0  0  0  # atno 8009 bound_to 7997
  154.4662  140.1990  156.0129 H   0  0  0  0  0  0  0  0  0  0  0  0  # atno 8010 bound_to 7997
  139.9120  143.6483  152.2573 H   0  0  0  0  0  0  0  0  0  0  0  0  # atno 10167 bound_to 10162
  157.5034  131.1095  150.9395 H   0  0  0  0  0  0  0  0  0  0  0  0  # atno 10718 bound_to 10713
  154.5850  135.2839  155.0694 H   0  0  0  0  0  0  0  0  0  0  0  0  # atno 10763 bound_to 10752
  154.2016  135.6423  153.5092 H   0  0  0  0  0  0  0  0  0  0  0  0  # atno 10764 bound_to 10752
  153.0101  135.5470  154.6517 H   0  0  0  0  0  0  0  0  0  0  0  0  # atno 10765 bound_to 10752
  140.6102  133.9755  155.8174 H   0  0  0  0  0  0  0  0  0  0  0  0  # atno 11005 bound_to 11000
  146.1341  139.4383  143.0150 LP  0  0  0  0  0  0  0  0  0  0  0  0  # atno 17320 bound_to 7965
  145.7118  141.0104  143.1449 LP  0  0  0  0  0  0  0  0  0  0  0  0  # atno 17321 bound_to 7965
  139.6934  144.7644  151.1398 LP  0  0  0  0  0  0  0  0  0  0  0  0  # atno 17342 bound_to 10162
  140.7683  143.5557  150.9155 LP  0  0  0  0  0  0  0  0  0  0  0  0  # atno 17343 bound_to 10162
  157.0059  130.5618  149.5316 LP  0  0  0  0  0  0  0  0  0  0  0  0  # atno 17370 bound_to 10713
  156.0243  130.5337  150.8363 LP  0  0  0  0  0  0  0  0  0  0  0  0  # atno 17371 bound_to 10713
  141.0813  134.0058  157.3382 LP  0  0  0  0  0  0  0  0  0  0  0  0  # atno 17394 bound_to 11000
  139.9195  135.0199  156.8011 LP  0  0  0  0  0  0  0  0  0  0  0  0  # atno 17395 bound_to 11000

$$$$
