AV-unprocessed.smi:3284|AV-procd|sdf|12574|dock7
  -GOLD-   2272018493D 1   1.00000     0.00000
 Structure written by MMmdl.
 44 45  0  0  0  0  0  0  0  0  2 V2000
  151.9644  140.0938  158.2471 C   0  0  0  0  0  0  0  0  0  0  0  0
  152.0535  141.3715  159.0653 C   0  0  0  0  0  0  0  0  0  0  0  0
  152.8141  141.4011  160.1762 C   0  0  0  0  0  0  0  0  0  0  0  0
  153.0370  142.6320  161.0235 C   0  0  0  0  0  0  0  0  0  0  0  0
  152.7435  143.9054  160.2275 C   0  0  0  0  0  0  0  0  0  0  0  0
  151.3780  143.8265  159.5257 C   0  0  1  0  0  0  0  0  0  0  0  0
  151.0906  145.1632  158.8149 C   0  0  0  0  0  0  0  0  0  0  0  0
  151.2731  142.6036  158.5623 C   0  0  2  0  0  0  0  0  0  0  0  0
  149.7825  142.2896  158.2656 C   0  0  0  0  0  0  0  0  0  0  0  0
  149.4231  142.4852  156.8460 N   0  3  0  0  0  0  0  0  0  0  0  0
  150.2544  141.7139  155.9023 C   0  0  0  0  0  0  0  0  0  0  0  0
  149.6326  140.3416  155.6155 C   0  0  0  0  0  0  0  0  0  0  0  0
  150.6312  139.3667  155.0742 C   0  0  0  0  0  0  0  0  0  0  0  0
  151.9116  139.6629  154.8757 N   0  0  0  0  0  0  0  0  0  0  0  0
  152.4777  138.4874  154.3942 C   0  0  0  0  0  0  0  0  0  0  0  0
  151.5128  137.5116  154.3265 C   0  0  0  0  0  0  0  0  0  0  0  0
  150.3312  138.0884  154.7727 N   0  0  0  0  0  0  0  0  0  0  0  0
  149.0476  137.4230  154.8821 C   0  0  0  0  0  0  0  0  0  0  0  0
  152.1711  140.2967  157.1960 H   0  0  0  0  0  0  0  0  0  0  0  0
  150.9764  139.6428  158.3356 H   0  0  0  0  0  0  0  0  0  0  0  0
  152.6896  139.3539  158.5881 H   0  0  0  0  0  0  0  0  0  0  0  0
  153.3251  140.5073  160.5040 H   0  0  0  0  0  0  0  0  0  0  0  0
  152.4010  142.5695  161.9070 H   0  0  0  0  0  0  0  0  0  0  0  0
  154.0703  142.6451  161.3712 H   0  0  0  0  0  0  0  0  0  0  0  0
  152.7812  144.7656  160.8969 H   0  0  0  0  0  0  0  0  0  0  0  0
  153.5276  144.0587  159.4844 H   0  0  0  0  0  0  0  0  0  0  0  0
  150.6295  143.7020  160.3104 H   0  0  0  0  0  0  0  0  0  0  0  0
  151.8001  145.3407  158.0060 H   0  0  0  0  0  0  0  0  0  0  0  0
  151.1726  145.9993  159.5101 H   0  0  0  0  0  0  0  0  0  0  0  0
  150.0886  145.2035  158.3908 H   0  0  0  0  0  0  0  0  0  0  0  0
  151.7558  142.8892  157.6263 H   0  0  0  0  0  0  0  0  0  0  0  0
  149.5575  141.2646  158.5639 H   0  0  0  0  0  0  0  0  0  0  0  0
  149.1218  142.9287  158.8492 H   0  0  0  0  0  0  0  0  0  0  0  0
  148.4563  142.2222  156.7191 H   0  0  0  0  0  0  0  0  0  0  0  0
  150.3569  142.2763  154.9732 H   0  0  0  0  0  0  0  0  0  0  0  0
  151.2550  141.5919  156.3189 H   0  0  0  0  0  0  0  0  0  0  0  0
  149.1738  139.9350  156.5172 H   0  0  0  0  0  0  0  0  0  0  0  0
  148.8276  140.4462  154.8868 H   0  0  0  0  0  0  0  0  0  0  0  0
  153.5255  138.4345  154.1376 H   0  0  0  0  0  0  0  0  0  0  0  0
  151.5702  136.4809  154.0084 H   0  0  0  0  0  0  0  0  0  0  0  0
  149.1534  136.3619  154.6545 H   0  0  0  0  0  0  0  0  0  0  0  0
  148.3421  137.8654  154.1786 H   0  0  0  0  0  0  0  0  0  0  0  0
  148.6606  137.5281  155.8957 H   0  0  0  0  0  0  0  0  0  0  0  0
  149.5224  143.4664  156.6276 H   0  0  0  0  0  0  0  0  0  0  0  0
  1  2  1  0  0  0  0
  1 19  1  0  0  0  0
  1 20  1  0  0  0  0
  1 21  1  0  0  0  0
  2  8  1  0  0  0  0
  2  3  2  0  0  0  0
  3  4  1  0  0  0  0
  3 22  1  0  0  0  0
  4  5  1  0  0  0  0
  4 23  1  0  0  0  0
  4 24  1  0  0  0  0
  5  6  1  0  0  0  0
  5 25  1  0  0  0  0
  5 26  1  0  0  0  0
  6  7  1  0  0  0  0
  6  8  1  0  0  0  0
  6 27  1  0  0  0  0
  7 28  1  0  0  0  0
  7 29  1  0  0  0  0
  7 30  1  0  0  0  0
  8  9  1  0  0  0  0
  8 31  1  0  0  0  0
  9 10  1  0  0  0  0
  9 32  1  0  0  0  0
  9 33  1  0  0  0  0
 10 11  1  0  0  0  0
 10 34  1  0  0  0  0
 10 44  1  0  0  0  0
 11 12  1  0  0  0  0
 11 35  1  0  0  0  0
 11 36  1  0  0  0  0
 12 13  1  0  0  0  0
 12 37  1  0  0  0  0
 12 38  1  0  0  0  0
 13 17  1  0  0  0  0
 13 14  2  0  0  0  0
 14 15  1  0  0  0  0
 15 16  2  0  0  0  0
 15 39  1  0  0  0  0
 16 17  1  0  0  0  0
 16 40  1  0  0  0  0
 17 18  1  0  0  0  0
 18 41  1  0  0  0  0
 18 42  1  0  0  0  0
 18 43  1  0  0  0  0
M  CHG  1  10   1
M  END
> <s_m_source_file>
AV-unprocessed.smi

> <i_m_source_file_index>
3284

> <i_lp_mmshare_version>
43012

> <i_f3d_flags>
0

> <s_epik_input>
W0NIM11DMT1bQ0hdW0NIMl1bQ0gyXVtDQEBIXShbQ0gzXSlbQ0BIXTFbQ0gyXVtOSF1bQ0gyXVtDSDJdYzJuW2NIXVtjSF1uMltDSDNd

> <s_epik_cmdline>
J2VwaWtfcHl0aG9uJywgJy1waCcsICc3LjAnLCAnLXRuJywgJzgnLCAnLW1hJywgJzIwMCcsICctbWV0YWxfYmluZGluZycsICctaW1hZScsICc8aW5maWxlLm1hZT4nLCAnLW9tYWUnLCAnPG91dGZpbGUubWFlPic=

> <r_lp_tautomer_probability>
1

> <r_epik_Ionization_Penalty>
0.150779

> <r_epik_Ionization_Penalty_Charging>
0.150779

> <r_epik_Ionization_Penalty_Neutral>
1.39452e-13

> <r_epik_State_Penalty>
0.349447

> <r_epik_Charging_Adjusted_Penalty>
0.500226

> <i_epik_Tot_Q>
1

> <i_epik_Tot_abs_Q>
1

> <r_epik_Metal_State_Penalty>
0.000470967

> <b_epik_Metal_Only>
0

> <s_lp_Force_Field>
OPLS_2005

> <r_lp_Energy>
12.7203

> <b_lp_Chiralities_Consistent>
1

> <s_lp_Variant>
AV-unprocessed.smi:3284-3

> <Gold.Version>
5.8.1

> <Gold.Id.Protein>
6NUR|6NUR_protein|mol2

> <Gold.PLP.Fitness>
49.4007

> <Gold.PLP.PLP>
-40.9008

> <Gold.PLP.part.hbond>
-2.0000

> <Gold.PLP.part.metal>
0.0000

> <Gold.PLP.part.buried>
-5.8978

> <Gold.PLP.part.nonpolar>
-33.7557

> <Gold.PLP.part.repulsive>
0.0537

> <Gold.PLP.ligand.clash>
0.0000

> <Gold.PLP.ligand.torsion>
1.0382

> <Gold.PLP.Chemscore.Hbond>
2.7280

> <Gold.PLP.Chemscore.CHOScore>
0.7689

> <Gold.PLP.Chemscore.Metal>
0.0000

> <Gold.Chemscore.Hbonds>
donor molecule, donor type, donor heavy atom, donor atom, acceptor molecule, acceptor atom, score
      L1  H    10    44       P1  8028  1.76
      P1  H  7989  7998       L1    14  0.86
      L1  C    16    40       P1  7949  0.64

> <Gold.PLP.Chemscore.Internal.Correction>
0.0856

> <Gold.Rescore>
     Score         DG    S(hbond)    S(metal)    S(lipo)     H(rot)  DE(clash)    DE(int)     intcor
     19.58     -20.75       1.85        0.00     113.06       1.61       0.06       1.11       ----

> <Gold.Chemscore.Fitness>
19.5819

> <Gold.Chemscore.DG>
-20.7524

> <Gold.Chemscore.ZeroCoef>
-5.4800

> <Gold.Chemscore.Hbond>
1.8466

> <Gold.Chemscore.Metal>
0.0000

> <Gold.Chemscore.Lipo>
113.0579

> <Gold.Chemscore.Internal_Hbond>
0.0000

> <Gold.Chemscore.DEClash>
0.0573

> <Gold.Chemscore.DEInternal>
1.1133

> <Gold.Chemscore.Rot>
1.6105

> <Gold.Chemscore.Internal.Correction>
   9.000000E+99

> <Gold.Chemscore.Hbonds>
donor molecule, donor type, donor heavy atom, donor atom, acceptor molecule, acceptor atom, score
      L1  H    10    44       P1  8028  0.86
      P1  H  7989  7998       L1    14  0.12

> <Gold.Chemscore.Hbond.Weighted>
-6.1676

> <Gold.Chemscore.Metal.Weighted>
-0.0000

> <Gold.Chemscore.Lipo.Weighted>
-13.2278

> <Gold.Chemscore.Internal_Hbond.Weighted>
0.0000

> <Gold.Chemscore.DEClash.Weighted>
0.0573

> <Gold.Chemscore.DEInternal.Weighted>
1.1133

> <Gold.Chemscore.Rot.Weighted>
4.1230

> <Gold.Chemscore.Internal.Correction.Weighted>
   9.000000E+99

> <Gold.Protein.RotatedTorsions>
[ 6907 6896 6895 6894 ] final   57.54 input  -60.11 | X-H torsion
[ 7974 7965 7964 7962 ] final  139.41 input  175.53 | X-H torsion
[ 8008 7997 7996 7995 ] final   78.81 input   59.86 | X-H torsion
[ 10167 10162 10161 10158 ] final  -26.56 input  -65.29 | X-H torsion
[ 10718 10713 10712 10709 ] final  -40.94 input   66.30 | X-H torsion
[ 10763 10752 10751 10750 ] final -179.70 input  -60.55 | X-H torsion
[ 11005 11000 10999 10996 ] final   66.85 input  -57.11 | X-H torsion

> <Gold.Protein.ActiveResidues>
 VAL166  LYS551  ARG553  GLY616  TRP617  ASP618  TYR619  PRO620  LYS621  CYS622 
 ASP623  PHE694  ASN695  SER759  ASP760  ASP761  ALA762  ILE779  LEU786  VAL792 
 PHE793  MET794  SER795  GLU796  ALA797  LYS798  CYS799  TRP800  GLU811  SER814 

> <Gold.Protein.RotatedAtoms>
  152.3741  134.6690  160.0165 H   0  0  0  0  0  0  0  0  0  0  0  0  # atno 6907 bound_to 6896
  151.6974  133.3305  159.3266 H   0  0  0  0  0  0  0  0  0  0  0  0  # atno 6908 bound_to 6896
  150.7696  134.6581  159.6369 H   0  0  0  0  0  0  0  0  0  0  0  0  # atno 6909 bound_to 6896
  144.9281  139.5082  143.5631 H   0  0  0  0  0  0  0  0  0  0  0  0  # atno 7974 bound_to 7965
  155.8609  140.3454  155.5755 H   0  0  0  0  0  0  0  0  0  0  0  0  # atno 8008 bound_to 7997
  155.7934  140.0875  157.2016 H   0  0  0  0  0  0  0  0  0  0  0  0  # atno 8009 bound_to 7997
  154.4012  140.1479  156.3177 H   0  0  0  0  0  0  0  0  0  0  0  0  # atno 8010 bound_to 7997
  140.7282  143.4168  151.1016 H   0  0  0  0  0  0  0  0  0  0  0  0  # atno 10167 bound_to 10162
  156.2758  130.4211  149.8389 H   0  0  0  0  0  0  0  0  0  0  0  0  # atno 10718 bound_to 10713
  154.5317  135.2800  155.1174 H   0  0  0  0  0  0  0  0  0  0  0  0  # atno 10763 bound_to 10752
  154.2692  135.6307  153.5307 H   0  0  0  0  0  0  0  0  0  0  0  0  # atno 10764 bound_to 10752
  152.9958  135.5624  154.5832 H   0  0  0  0  0  0  0  0  0  0  0  0  # atno 10765 bound_to 10752
  139.9806  134.6750  156.0269 H   0  0  0  0  0  0  0  0  0  0  0  0  # atno 11005 bound_to 11000
  146.3235  139.8211  142.8926 LP  0  0  0  0  0  0  0  0  0  0  0  0  # atno 17320 bound_to 7965
  145.3187  141.0238  143.3513 LP  0  0  0  0  0  0  0  0  0  0  0  0  # atno 17321 bound_to 7965
  139.7808  143.8358  152.3137 LP  0  0  0  0  0  0  0  0  0  0  0  0  # atno 17342 bound_to 10162
  139.8308  144.7254  150.9453 LP  0  0  0  0  0  0  0  0  0  0  0  0  # atno 17343 bound_to 10162
  156.5854  130.8483  151.3394 LP  0  0  0  0  0  0  0  0  0  0  0  0  # atno 17370 bound_to 10713
  157.7299  130.9677  150.1807 LP  0  0  0  0  0  0  0  0  0  0  0  0  # atno 17371 bound_to 10713
  141.1479  133.6553  156.3922 LP  0  0  0  0  0  0  0  0  0  0  0  0  # atno 17394 bound_to 11000
  140.5104  134.6401  157.5282 LP  0  0  0  0  0  0  0  0  0  0  0  0  # atno 17395 bound_to 11000

$$$$
