AV-unprocessed.smi:99|AV-procd|sdf|894|dock6
  -GOLD-   2262017383D 1   1.00000     0.00000
 Structure written by MMmdl.
 52 55  0  0  0  0  0  0  0  0  2 V2000
  148.6935  134.1325  158.7053 O   0  0  0  0  0  0  0  0  0  0  0  0
  147.6436  134.4747  159.2528 C   0  0  0  0  0  0  0  0  0  0  0  0
  146.5510  134.8864  158.5825 O   0  0  0  0  0  0  0  0  0  0  0  0
  146.4598  134.7235  157.1764 C   0  0  0  0  0  0  0  0  0  0  0  0
  145.4642  135.7530  156.6275 C   0  0  1  0  0  0  0  0  0  0  0  0
  145.5324  136.9614  157.3806 O   0  0  0  0  0  0  0  0  0  0  0  0
  145.2573  138.0652  156.5610 C   0  0  1  0  0  0  0  0  0  0  0  0
  146.4388  139.0110  156.5851 N   0  0  0  0  0  0  0  0  0  0  0  0
  147.0263  139.4500  155.4099 C   0  0  0  0  0  0  0  0  0  0  0  0
  148.0708  140.3033  155.4230 C   0  0  0  0  0  0  0  0  0  0  0  0
  148.5927  140.7782  156.7014 C   0  0  0  0  0  0  0  0  0  0  0  0
  149.5512  141.5480  156.7042 O   0  0  0  0  0  0  0  0  0  0  0  0
  147.9865  140.3440  157.8439 N   0  5  0  0  0  0  0  0  0  0  0  0
  146.9250  139.4858  157.8337 C   0  0  0  0  0  0  0  0  0  0  0  0
  146.3577  139.1049  158.8579 O   0  0  0  0  0  0  0  0  0  0  0  0
  145.0259  137.5454  155.1336 C   0  0  2  0  0  0  0  0  0  0  0  0
  143.6389  137.4101  154.8832 O   0  0  0  0  0  0  0  0  0  0  0  0
  145.7420  136.2069  155.1954 C   0  0  2  0  0  0  0  0  0  0  0  0
  145.2844  135.3106  154.1870 O   0  0  0  0  0  0  0  0  0  0  0  0
  146.0243  134.2449  153.8093 C   0  0  0  0  0  0  0  0  0  0  0  0
  147.0067  133.8347  154.4306 O   0  0  0  0  0  0  0  0  0  0  0  0
  145.5017  133.5864  152.5783 C   0  0  0  0  0  0  0  0  0  0  0  0
  144.4184  134.1750  151.8851 C   0  0  0  0  0  0  0  0  0  0  0  0
  143.9202  133.5912  150.7043 C   0  0  0  0  0  0  0  0  0  0  0  0
  144.4984  132.4102  150.2036 C   0  0  0  0  0  0  0  0  0  0  0  0
  145.5743  131.8132  150.8859 C   0  0  0  0  0  0  0  0  0  0  0  0
  146.0747  132.3962  152.0664 C   0  0  0  0  0  0  0  0  0  0  0  0
  147.4377  134.4563  160.7301 C   0  0  0  0  0  0  0  0  0  0  0  0
  147.7362  133.2812  161.4582 C   0  0  0  0  0  0  0  0  0  0  0  0
  147.5302  133.2286  162.8506 C   0  0  0  0  0  0  0  0  0  0  0  0
  147.0228  134.3502  163.5322 C   0  0  0  0  0  0  0  0  0  0  0  0
  146.7258  135.5266  162.8202 C   0  0  0  0  0  0  0  0  0  0  0  0
  146.9340  135.5818  161.4285 C   0  0  0  0  0  0  0  0  0  0  0  0
  147.4466  134.8801  156.7400 H   0  0  0  0  0  0  0  0  0  0  0  0
  146.1383  133.7148  156.9129 H   0  0  0  0  0  0  0  0  0  0  0  0
  144.4440  135.3741  156.7106 H   0  0  0  0  0  0  0  0  0  0  0  0
  144.4184  138.6246  156.9788 H   0  0  0  0  0  0  0  0  0  0  0  0
  146.6485  139.1156  154.4558 H   0  0  0  0  0  0  0  0  0  0  0  0
  148.5157  140.6360  154.4968 H   0  0  0  0  0  0  0  0  0  0  0  0
  145.4566  138.2127  154.3859 H   0  0  0  0  0  0  0  0  0  0  0  0
  143.1766  137.5109  155.7008 H   0  0  0  0  0  0  0  0  0  0  0  0
  146.8098  136.4057  155.0932 H   0  0  0  0  0  0  0  0  0  0  0  0
  143.9632  135.0862  152.2459 H   0  0  0  0  0  0  0  0  0  0  0  0
  143.0961  134.0530  150.1809 H   0  0  0  0  0  0  0  0  0  0  0  0
  144.1175  131.9633  149.2972 H   0  0  0  0  0  0  0  0  0  0  0  0
  146.0192  130.9067  150.5025 H   0  0  0  0  0  0  0  0  0  0  0  0
  146.9044  131.9146  152.5634 H   0  0  0  0  0  0  0  0  0  0  0  0
  148.1208  132.4054  160.9557 H   0  0  0  0  0  0  0  0  0  0  0  0
  147.7591  132.3247  163.3958 H   0  0  0  0  0  0  0  0  0  0  0  0
  146.8612  134.3080  164.5992 H   0  0  0  0  0  0  0  0  0  0  0  0
  146.3325  136.3875  163.3403 H   0  0  0  0  0  0  0  0  0  0  0  0
  146.6890  136.4987  160.9128 H   0  0  0  0  0  0  0  0  0  0  0  0
  1  2  2  0  0  0  0
  2  3  1  0  0  0  0
  2 28  1  0  0  0  0
  3  4  1  0  0  0  0
  4  5  1  0  0  0  0
  4 34  1  0  0  0  0
  4 35  1  0  0  0  0
  5 18  1  0  0  0  0
  5  6  1  0  0  0  0
  5 36  1  0  0  0  0
  6  7  1  0  0  0  0
  7  8  1  0  0  0  0
  7 16  1  0  0  0  0
  7 37  1  0  0  0  0
  8 14  1  0  0  0  0
  8  9  1  0  0  0  0
  9 10  2  0  0  0  0
  9 38  1  0  0  0  0
 10 11  1  0  0  0  0
 10 39  1  0  0  0  0
 11 12  2  0  0  0  0
 11 13  1  0  0  0  0
 13 14  1  0  0  0  0
 14 15  2  0  0  0  0
 16 17  1  0  0  0  0
 16 18  1  0  0  0  0
 16 40  1  0  0  0  0
 17 41  1  0  0  0  0
 18 19  1  0  0  0  0
 18 42  1  0  0  0  0
 19 20  1  0  0  0  0
 20 21  2  0  0  0  0
 20 22  1  0  0  0  0
 22 27  1  0  0  0  0
 22 23  2  0  0  0  0
 23 24  1  0  0  0  0
 23 43  1  0  0  0  0
 24 25  2  0  0  0  0
 24 44  1  0  0  0  0
 25 26  1  0  0  0  0
 25 45  1  0  0  0  0
 26 27  2  0  0  0  0
 26 46  1  0  0  0  0
 27 47  1  0  0  0  0
 28 33  1  0  0  0  0
 28 29  2  0  0  0  0
 29 30  1  0  0  0  0
 29 48  1  0  0  0  0
 30 31  2  0  0  0  0
 30 49  1  0  0  0  0
 31 32  1  0  0  0  0
 31 50  1  0  0  0  0
 32 33  2  0  0  0  0
 32 51  1  0  0  0  0
 33 52  1  0  0  0  0
M  CHG  1  13  -1
M  END
> <s_m_source_file>
AV-unprocessed.smi

> <i_m_source_file_index>
99

> <i_lp_mmshare_version>
43012

> <i_f3d_flags>
0

> <s_epik_input>
W2NIXTFbY0hdW2NIXVtjSF1bY0hdYzFDKD1PKU9bQ0gyXVtDQEBIXTJPW0NAQEhdKG4zW2NIXVtjSF1jKD1PKVtuSF1jMz1PKVtDQEBIXShbT0hdKVtDQEhdMk9DKD1PKWM0W2NIXVtjSF1bY0hdW2NIXVtjSF00

> <s_epik_cmdline>
J2VwaWtfcHl0aG9uJywgJy1waCcsICc3LjAnLCAnLXRuJywgJzgnLCAnLW1hJywgJzIwMCcsICctbWV0YWxfYmluZGluZycsICctaW1hZScsICc8aW5maWxlLm1hZT4nLCAnLW9tYWUnLCAnPG91dGZpbGUubWFlPic=

> <r_lp_tautomer_probability>
1

> <r_epik_Ionization_Penalty>
2.89159

> <r_epik_Ionization_Penalty_Charging>
2.1077e-08

> <r_epik_Ionization_Penalty_Neutral>
2.89159

> <r_epik_State_Penalty>
2.88671

> <r_epik_Charging_Adjusted_Penalty>
2.88671

> <i_epik_Tot_Q>
-1

> <i_epik_Tot_abs_Q>
1

> <r_epik_Metal_State_Penalty>
0.0727308

> <b_epik_Metal_Only>
1

> <s_epik_Chemistry_Notes>
This compound has an ester and may undergo hydrolysis at high or low pH. This compound contains an acetal/aminal-like group ( X-CH(R)-Y where X, Y are N, S, or O) that may be acid/base labile, releasing an aldehyde.

> <s_lp_Force_Field>
OPLS_2005

> <r_lp_Energy>
45.2634

> <b_lp_Chiralities_Consistent>
1

> <s_lp_Variant>
AV-unprocessed.smi:99-30

> <Gold.Version>
5.8.1

> <Gold.Id.Protein>
6NUR|6NUR_protein|mol2

> <Gold.PLP.Fitness>
53.1099

> <Gold.PLP.PLP>
-47.1009

> <Gold.PLP.part.hbond>
-3.0297

> <Gold.PLP.part.metal>
0.0000

> <Gold.PLP.part.buried>
-4.1703

> <Gold.PLP.part.nonpolar>
-38.8128

> <Gold.PLP.part.repulsive>
0.1537

> <Gold.PLP.ligand.clash>
0.0000

> <Gold.PLP.ligand.torsion>
1.9574

> <Gold.PLP.Chemscore.Hbond>
2.0000

> <Gold.PLP.Chemscore.CHOScore>
1.2747

> <Gold.PLP.Chemscore.Metal>
0.0000

> <Gold.Chemscore.Hbonds>
donor molecule, donor type, donor heavy atom, donor atom, acceptor molecule, acceptor atom, score
      P1  H  6896  6908       L1     1  0.88
      P1  H  6934  6947       L1    15  0.05

> <Gold.PLP.Chemscore.Internal.Correction>
0.0996

> <Gold.Rescore>
     Score         DG    S(hbond)    S(metal)    S(lipo)     H(rot)  DE(clash)    DE(int)     intcor
     14.10     -17.00       1.99        0.00     110.38       3.13       0.05       2.86       ----

> <Gold.Chemscore.Fitness>
14.0999

> <Gold.Chemscore.DG>
-17.0026

> <Gold.Chemscore.ZeroCoef>
-5.4800

> <Gold.Chemscore.Hbond>
1.9859

> <Gold.Chemscore.Metal>
0.0000

> <Gold.Chemscore.Lipo>
110.3780

> <Gold.Chemscore.Internal_Hbond>
0.0000

> <Gold.Chemscore.DEClash>
0.0474

> <Gold.Chemscore.DEInternal>
2.8553

> <Gold.Chemscore.Rot>
3.1346

> <Gold.Chemscore.Internal.Correction>
   9.000000E+99

> <Gold.Chemscore.Hbonds>
donor molecule, donor type, donor heavy atom, donor atom, acceptor molecule, acceptor atom, score
      P1  H  6896  6908       L1     1  0.85
      P1  H  6934  6947       L1    15  0.07

> <Gold.Chemscore.Hbond.Weighted>
-6.6329

> <Gold.Chemscore.Metal.Weighted>
-0.0000

> <Gold.Chemscore.Lipo.Weighted>
-12.9142

> <Gold.Chemscore.Internal_Hbond.Weighted>
0.0000

> <Gold.Chemscore.DEClash.Weighted>
0.0474

> <Gold.Chemscore.DEInternal.Weighted>
2.8553

> <Gold.Chemscore.Rot.Weighted>
8.0246

> <Gold.Chemscore.Internal.Correction.Weighted>
   9.000000E+99

> <Gold.Protein.RotatedTorsions>
[ 6907 6896 6895 6894 ] final  134.68 input  -60.11 | X-H torsion
[ 7974 7965 7964 7962 ] final   54.38 input  175.53 | X-H torsion
[ 8008 7997 7996 7995 ] final   87.14 input   59.86 | X-H torsion
[ 10167 10162 10161 10158 ] final   89.07 input  -65.29 | X-H torsion
[ 10718 10713 10712 10709 ] final -101.50 input   66.30 | X-H torsion
[ 10763 10752 10751 10750 ] final   53.30 input  -60.55 | X-H torsion
[ 11005 11000 10999 10996 ] final  -74.35 input  -57.11 | X-H torsion

> <Gold.Protein.ActiveResidues>
 VAL166  LYS551  ARG553  GLY616  TRP617  ASP618  TYR619  PRO620  LYS621  CYS622 
 ASP623  PHE694  ASN695  SER759  ASP760  ASP761  ALA762  ILE779  LEU786  VAL792 
 PHE793  MET794  SER795  GLU796  ALA797  LYS798  CYS799  TRP800  GLU811  SER814 

> <Gold.Protein.RotatedAtoms>
  152.3087  133.5730  159.5665 H   0  0  0  0  0  0  0  0  0  0  0  0  # atno 6907 bound_to 6896
  150.7312  134.0185  159.3702 H   0  0  0  0  0  0  0  0  0  0  0  0  # atno 6908 bound_to 6896
  151.8079  135.0690  160.0460 H   0  0  0  0  0  0  0  0  0  0  0  0  # atno 6909 bound_to 6896
  145.9614  139.4063  143.0245 H   0  0  0  0  0  0  0  0  0  0  0  0  # atno 7974 bound_to 7965
  155.9717  140.3385  155.6581 H   0  0  0  0  0  0  0  0  0  0  0  0  # atno 8008 bound_to 7997
  155.6666  140.0722  157.2553 H   0  0  0  0  0  0  0  0  0  0  0  0  # atno 8009 bound_to 7997
  154.4168  140.1699  156.1821 H   0  0  0  0  0  0  0  0  0  0  0  0  # atno 8010 bound_to 7997
  139.8609  144.6544  150.9060 H   0  0  0  0  0  0  0  0  0  0  0  0  # atno 10167 bound_to 10162
  156.0197  130.5376  150.6972 H   0  0  0  0  0  0  0  0  0  0  0  0  # atno 10718 bound_to 10713
  152.9794  135.5783  154.4718 H   0  0  0  0  0  0  0  0  0  0  0  0  # atno 10763 bound_to 10752
  154.4280  135.2773  155.1933 H   0  0  0  0  0  0  0  0  0  0  0  0  # atno 10764 bound_to 10752
  154.3654  135.6179  153.5766 H   0  0  0  0  0  0  0  0  0  0  0  0  # atno 10765 bound_to 10752
  141.1634  133.6908  156.7350 H   0  0  0  0  0  0  0  0  0  0  0  0  # atno 11005 bound_to 11000
  145.8034  140.9760  143.0987 LP  0  0  0  0  0  0  0  0  0  0  0  0  # atno 17320 bound_to 7965
  144.6816  139.9830  143.7483 LP  0  0  0  0  0  0  0  0  0  0  0  0  # atno 17321 bound_to 7965
  140.7775  143.3745  151.1588 LP  0  0  0  0  0  0  0  0  0  0  0  0  # atno 17342 bound_to 10162
  139.7375  143.8976  152.3039 LP  0  0  0  0  0  0  0  0  0  0  0  0  # atno 17343 bound_to 10162
  157.4640  131.0886  151.0714 LP  0  0  0  0  0  0  0  0  0  0  0  0  # atno 17370 bound_to 10713
  157.1194  130.6055  149.5501 LP  0  0  0  0  0  0  0  0  0  0  0  0  # atno 17371 bound_to 10713
  140.2716  134.8387  157.3853 LP  0  0  0  0  0  0  0  0  0  0  0  0  # atno 17394 bound_to 11000
  140.1516  134.4843  155.7957 LP  0  0  0  0  0  0  0  0  0  0  0  0  # atno 17395 bound_to 11000

$$$$
