AV-unprocessed.smi:2061|AV-procd|sdf|8364|dock5
  -GOLD-   2272011 33D 1   1.00000     0.00000
 Structure written by MMmdl.
 45 46  0  0  0  0  0  0  0  0  1 V2000
  145.8527  131.5886  149.8922 C   0  0  0  0  0  0  0  0  0  0  0  0
  145.7143  132.9006  150.5859 C   0  0  0  0  0  0  0  0  0  0  0  0
  146.6090  133.7150  151.2215 C   0  0  0  0  0  0  0  0  0  0  0  0
  145.8015  134.7999  151.6557 C   0  0  0  0  0  0  0  0  0  0  0  0
  146.3641  135.8831  152.3779 N   0  0  0  0  0  0  0  0  0  0  0  0
  145.7170  136.7895  153.1302 C   0  0  0  0  0  0  0  0  0  0  0  0
  144.4975  136.8303  153.2979 O   0  0  0  0  0  0  0  0  0  0  0  0
  146.5722  137.6624  153.6819 N   0  0  0  0  0  0  0  0  0  0  0  0
  146.2057  138.7852  154.5434 C   0  0  0  0  0  0  0  0  0  0  0  0
  147.0634  140.0482  154.2675 C   0  0  2  0  0  0  0  0  0  0  0  0
  147.1856  140.2300  152.7376 C   0  0  0  0  0  0  0  0  0  0  0  0
  148.3660  140.0575  154.9695 N   0  0  0  0  0  0  0  0  0  0  0  0
  149.0126  141.3730  154.9366 C   0  0  0  0  0  0  0  0  0  0  0  0
  150.3766  141.4011  155.6538 C   0  0  1  0  0  0  0  0  0  0  0  0
  150.2586  141.3510  157.1870 C   0  0  0  0  0  0  0  0  0  0  0  0
  151.2214  140.3684  155.1502 O   0  0  0  0  0  0  0  0  0  0  0  0
  150.6511  139.0635  155.1721 C   0  0  2  0  0  0  0  0  0  0  0  0
  151.6548  138.0970  154.5345 C   0  0  0  0  0  0  0  0  0  0  0  0
  149.3056  139.0759  154.4240 C   0  0  0  0  0  0  0  0  0  0  0  0
  144.5292  134.6608  151.3147 N   0  0  0  0  0  0  0  0  0  0  0  0
  144.4670  133.4427  150.6277 O   0  0  0  0  0  0  0  0  0  0  0  0
  146.8834  131.4207  149.5792 H   0  0  0  0  0  0  0  0  0  0  0  0
  145.2204  131.5490  149.0049 H   0  0  0  0  0  0  0  0  0  0  0  0
  145.5618  130.7714  150.5522 H   0  0  0  0  0  0  0  0  0  0  0  0
  147.6690  133.5563  151.3541 H   0  0  0  0  0  0  0  0  0  0  0  0
  147.3677  135.9730  152.3217 H   0  0  0  0  0  0  0  0  0  0  0  0
  147.5552  137.5547  153.4795 H   0  0  0  0  0  0  0  0  0  0  0  0
  145.1457  139.0234  154.4400 H   0  0  0  0  0  0  0  0  0  0  0  0
  146.3072  138.4652  155.5797 H   0  0  0  0  0  0  0  0  0  0  0  0
  146.4814  140.8968  154.6306 H   0  0  0  0  0  0  0  0  0  0  0  0
  146.2238  140.0879  152.2440 H   0  0  0  0  0  0  0  0  0  0  0  0
  147.8857  139.5148  152.3042 H   0  0  0  0  0  0  0  0  0  0  0  0
  147.5183  141.2319  152.4688 H   0  0  0  0  0  0  0  0  0  0  0  0
  149.1520  141.6802  153.8989 H   0  0  0  0  0  0  0  0  0  0  0  0
  148.3801  142.1281  155.4003 H   0  0  0  0  0  0  0  0  0  0  0  0
  150.8659  142.3431  155.4041 H   0  0  0  0  0  0  0  0  0  0  0  0
  149.7129  142.2170  157.5619 H   0  0  0  0  0  0  0  0  0  0  0  0
  151.2442  141.3550  157.6527 H   0  0  0  0  0  0  0  0  0  0  0  0
  149.7301  140.4616  157.5294 H   0  0  0  0  0  0  0  0  0  0  0  0
  150.4898  138.7554  156.2054 H   0  0  0  0  0  0  0  0  0  0  0  0
  151.2758  137.0747  154.5444 H   0  0  0  0  0  0  0  0  0  0  0  0
  152.6014  138.1057  155.0755 H   0  0  0  0  0  0  0  0  0  0  0  0
  151.8608  138.3682  153.4986 H   0  0  0  0  0  0  0  0  0  0  0  0
  148.8893  138.0718  154.4896 H   0  0  0  0  0  0  0  0  0  0  0  0
  149.4759  139.2778  153.3652 H   0  0  0  0  0  0  0  0  0  0  0  0
  1  2  1  0  0  0  0
  1 22  1  0  0  0  0
  1 23  1  0  0  0  0
  1 24  1  0  0  0  0
  2 21  1  0  0  0  0
  2  3  2  0  0  0  0
  3  4  1  0  0  0  0
  3 25  1  0  0  0  0
  4  5  1  0  0  0  0
  4 20  2  0  0  0  0
  5  6  1  0  0  0  0
  5 26  1  0  0  0  0
  6  7  2  0  0  0  0
  6  8  1  0  0  0  0
  8  9  1  0  0  0  0
  8 27  1  0  0  0  0
  9 10  1  0  0  0  0
  9 28  1  0  0  0  0
  9 29  1  0  0  0  0
 10 11  1  0  0  0  0
 10 12  1  0  0  0  0
 10 30  1  0  0  0  0
 11 31  1  0  0  0  0
 11 32  1  0  0  0  0
 11 33  1  0  0  0  0
 12 19  1  0  0  0  0
 12 13  1  0  0  0  0
 13 14  1  0  0  0  0
 13 34  1  0  0  0  0
 13 35  1  0  0  0  0
 14 15  1  0  0  0  0
 14 16  1  0  0  0  0
 14 36  1  0  0  0  0
 15 37  1  0  0  0  0
 15 38  1  0  0  0  0
 15 39  1  0  0  0  0
 16 17  1  0  0  0  0
 17 18  1  0  0  0  0
 17 19  1  0  0  0  0
 17 40  1  0  0  0  0
 18 41  1  0  0  0  0
 18 42  1  0  0  0  0
 18 43  1  0  0  0  0
 19 44  1  0  0  0  0
 19 45  1  0  0  0  0
 20 21  1  0  0  0  0
M  END
> <s_m_source_file>
AV-unprocessed.smi

> <i_m_source_file_index>
2061

> <i_lp_mmshare_version>
43012

> <i_f3d_flags>
0

> <s_epik_input>
W0NIM11jMVtjSF1jKG5vMSlbTkhdQyg9TylbTkhdW0NIMl1bQ0BIXShbQ0gzXSlOMltDSDJdW0NAQEhdKFtDSDNdKU9bQ0BASF0oW0NIM10pW0NIMl0y

> <s_epik_cmdline>
J2VwaWtfcHl0aG9uJywgJy1waCcsICc3LjAnLCAnLXRuJywgJzgnLCAnLW1hJywgJzIwMCcsICctbWV0YWxfYmluZGluZycsICctaW1hZScsICc8aW5maWxlLm1hZT4nLCAnLW9tYWUnLCAnPG91dGZpbGUubWFlPic=

> <r_epik_Ionization_Penalty>
0.214073

> <r_epik_Ionization_Penalty_Charging>
0

> <r_epik_Ionization_Penalty_Neutral>
0.214073

> <r_epik_State_Penalty>
0.204211

> <r_epik_Charging_Adjusted_Penalty>
0.204211

> <i_epik_Tot_Q>
0

> <i_epik_Tot_abs_Q>
0

> <r_epik_Metal_State_Penalty>
0.217067

> <b_epik_Metal_Only>
0

> <s_lp_Force_Field>
OPLS_2005

> <r_lp_Energy>
31.479

> <b_lp_Chiralities_Consistent>
1

> <s_lp_Variant>
AV-unprocessed.smi:2061-5

> <Gold.Version>
5.8.1

> <Gold.Id.Protein>
6NUR|6NUR_protein|mol2

> <Gold.PLP.Fitness>
38.4469

> <Gold.PLP.PLP>
-33.4172

> <Gold.PLP.part.hbond>
-2.0243

> <Gold.PLP.part.metal>
0.0000

> <Gold.PLP.part.buried>
-4.0907

> <Gold.PLP.part.nonpolar>
-27.1624

> <Gold.PLP.part.repulsive>
0.6340

> <Gold.PLP.ligand.clash>
0.0000

> <Gold.PLP.ligand.torsion>
0.5047

> <Gold.PLP.Chemscore.Hbond>
2.0000

> <Gold.PLP.Chemscore.CHOScore>
0.0000

> <Gold.PLP.Chemscore.Metal>
0.0000

> <Gold.Chemscore.Hbonds>
donor molecule, donor type, donor heavy atom, donor atom, acceptor molecule, acceptor atom, score
      L1  H     5    26       P1  7948  1.00
      P1  H  7989  7998       L1    16  1.00

> <Gold.PLP.Chemscore.Internal.Correction>
0.0390

> <Gold.Rescore>
     Score         DG    S(hbond)    S(metal)    S(lipo)     H(rot)  DE(clash)    DE(int)     intcor
     15.15     -16.99       1.78        0.00      81.59       1.55       0.07       1.77       ----

> <Gold.Chemscore.Fitness>
15.1487

> <Gold.Chemscore.DG>
-16.9943

> <Gold.Chemscore.ZeroCoef>
-5.4800

> <Gold.Chemscore.Hbond>
1.7752

> <Gold.Chemscore.Metal>
0.0000

> <Gold.Chemscore.Lipo>
81.5923

> <Gold.Chemscore.Internal_Hbond>
0.0000

> <Gold.Chemscore.DEClash>
0.0725

> <Gold.Chemscore.DEInternal>
1.7730

> <Gold.Chemscore.Rot>
1.5474

> <Gold.Chemscore.Internal.Correction>
   9.000000E+99

> <Gold.Chemscore.Hbonds>
donor molecule, donor type, donor heavy atom, donor atom, acceptor molecule, acceptor atom, score
      L1  H     5    26       P1  7948  1.00
      L1  H     8    27       P1  7948  0.01
      P1  H  7989  7998       L1    16  0.39

> <Gold.Chemscore.Hbond.Weighted>
-5.9292

> <Gold.Chemscore.Metal.Weighted>
-0.0000

> <Gold.Chemscore.Lipo.Weighted>
-9.5463

> <Gold.Chemscore.Internal_Hbond.Weighted>
0.0000

> <Gold.Chemscore.DEClash.Weighted>
0.0725

> <Gold.Chemscore.DEInternal.Weighted>
1.7730

> <Gold.Chemscore.Rot.Weighted>
3.9612

> <Gold.Chemscore.Internal.Correction.Weighted>
   9.000000E+99

> <Gold.Protein.RotatedTorsions>
[ 6907 6896 6895 6894 ] final   87.53 input  -60.11 | X-H torsion
[ 7974 7965 7964 7962 ] final  -60.14 input  175.53 | X-H torsion
[ 8008 7997 7996 7995 ] final  -94.00 input   59.86 | X-H torsion
[ 10167 10162 10161 10158 ] final   48.52 input  -65.29 | X-H torsion
[ 10718 10713 10712 10709 ] final -127.53 input   66.30 | X-H torsion
[ 10763 10752 10751 10750 ] final  128.59 input  -60.55 | X-H torsion
[ 11005 11000 10999 10996 ] final  170.01 input  -57.11 | X-H torsion

> <Gold.Protein.ActiveResidues>
 VAL166  LYS551  ARG553  GLY616  TRP617  ASP618  TYR619  PRO620  LYS621  CYS622 
 ASP623  PHE694  ASN695  SER759  ASP760  ASP761  ALA762  ILE779  LEU786  VAL792 
 PHE793  MET794  SER795  GLU796  ALA797  LYS798  CYS799  TRP800  GLU811  SER814 

> <Gold.Protein.RotatedAtoms>
  152.5412  134.2261  159.8806 H   0  0  0  0  0  0  0  0  0  0  0  0  # atno 6907 bound_to 6896
  151.2236  133.4482  159.2609 H   0  0  0  0  0  0  0  0  0  0  0  0  # atno 6908 bound_to 6896
  151.0782  134.9855  159.8399 H   0  0  0  0  0  0  0  0  0  0  0  0  # atno 6909 bound_to 6896
  145.8191  140.8551  143.0142 H   0  0  0  0  0  0  0  0  0  0  0  0  # atno 7974 bound_to 7965
  154.7428  140.0493  157.0826 H   0  0  0  0  0  0  0  0  0  0  0  0  # atno 8008 bound_to 7997
  155.0157  140.3141  155.4793 H   0  0  0  0  0  0  0  0  0  0  0  0  # atno 8009 bound_to 7997
  156.2868  140.2176  156.5273 H   0  0  0  0  0  0  0  0  0  0  0  0  # atno 8010 bound_to 7997
  140.2924  144.3030  150.6237 H   0  0  0  0  0  0  0  0  0  0  0  0  # atno 10167 bound_to 10162
  156.1866  130.6767  151.0371 H   0  0  0  0  0  0  0  0  0  0  0  0  # atno 10718 bound_to 10713
  153.7280  135.3243  155.3280 H   0  0  0  0  0  0  0  0  0  0  0  0  # atno 10763 bound_to 10752
  154.8335  135.4515  154.1150 H   0  0  0  0  0  0  0  0  0  0  0  0  # atno 10764 bound_to 10752
  153.2290  135.6957  153.7993 H   0  0  0  0  0  0  0  0  0  0  0  0  # atno 10765 bound_to 10752
  140.3038  134.7573  157.3937 H   0  0  0  0  0  0  0  0  0  0  0  0  # atno 11005 bound_to 11000
  144.6749  140.0507  143.7479 LP  0  0  0  0  0  0  0  0  0  0  0  0  # atno 17320 bound_to 7965
  145.9694  139.2859  143.1107 LP  0  0  0  0  0  0  0  0  0  0  0  0  # atno 17321 bound_to 7965
  140.5721  143.2180  151.7581 LP  0  0  0  0  0  0  0  0  0  0  0  0  # atno 17342 bound_to 10162
  139.4934  144.4202  151.9986 LP  0  0  0  0  0  0  0  0  0  0  0  0  # atno 17343 bound_to 10162
  157.6902  131.0812  150.7128 LP  0  0  0  0  0  0  0  0  0  0  0  0  # atno 17370 bound_to 10713
  156.7185  130.4673  149.5529 LP  0  0  0  0  0  0  0  0  0  0  0  0  # atno 17371 bound_to 10713
  140.1085  134.5377  155.8287 LP  0  0  0  0  0  0  0  0  0  0  0  0  # atno 17394 bound_to 11000
  141.2122  133.6717  156.6644 LP  0  0  0  0  0  0  0  0  0  0  0  0  # atno 17395 bound_to 11000

$$$$
