AV-unprocessed.smi:1768|AV-procd|sdf|7144|dock3
  -GOLD-   22720 8383D 1   1.00000     0.00000
 Structure written by MMmdl.
 33 34  0  0  0  0  0  0  0  0  1 V2000
  147.3102  140.6965  153.5585 C   0  0  0  0  0  0  0  0  0  0  0  0
  148.6065  140.5524  154.2797 C   0  0  0  0  0  0  0  0  0  0  0  0
  149.6010  139.7729  153.8375 N   0  0  0  0  0  0  0  0  0  0  0  0
  150.7066  139.8052  154.6754 N   0  0  0  0  0  0  0  0  0  0  0  0
  150.5125  140.6111  155.7283 C   0  0  0  0  0  0  0  0  0  0  0  0
  151.4825  140.8352  156.7403 N   0  0  0  0  0  0  0  0  0  0  0  0
  151.3276  141.4643  157.9183 C   0  0  0  0  0  0  0  0  0  0  0  0
  150.2848  141.9858  158.3138 O   0  0  0  0  0  0  0  0  0  0  0  0
  152.4690  141.4546  158.6219 N   0  0  0  0  0  0  0  0  0  0  0  0
  152.6689  142.0605  159.9366 C   0  0  1  0  0  0  0  0  0  0  0  0
  153.9226  141.4452  160.5775 C   0  0  0  0  0  0  0  0  0  0  0  0
  152.7711  143.5906  159.7827 C   0  0  2  0  0  0  0  0  0  0  0  0
  152.2079  144.3888  160.9603 C   0  0  0  0  0  0  0  0  0  0  0  0
  151.8646  145.7057  160.3035 C   0  0  0  0  0  0  0  0  0  0  0  0
  151.3293  145.2446  158.9524 C   0  0  0  0  0  0  0  0  0  0  0  0
  152.0133  144.0302  158.6559 O   0  0  0  0  0  0  0  0  0  0  0  0
  148.9458  141.4006  155.7832 S   0  0  0  0  0  0  0  0  0  0  0  0
  147.2972  140.0768  152.6611 H   0  0  0  0  0  0  0  0  0  0  0  0
  147.1605  141.7362  153.2677 H   0  0  0  0  0  0  0  0  0  0  0  0
  146.4881  140.3917  154.2060 H   0  0  0  0  0  0  0  0  0  0  0  0
  152.4013  140.4638  156.5488 H   0  0  0  0  0  0  0  0  0  0  0  0
  153.2723  141.0037  158.2095 H   0  0  0  0  0  0  0  0  0  0  0  0
  151.8206  141.8407  160.5873 H   0  0  0  0  0  0  0  0  0  0  0  0
  154.0880  141.8349  161.5819 H   0  0  0  0  0  0  0  0  0  0  0  0
  154.8151  141.6547  159.9869 H   0  0  0  0  0  0  0  0  0  0  0  0
  153.8259  140.3623  160.6625 H   0  0  0  0  0  0  0  0  0  0  0  0
  153.8087  143.8857  159.6164 H   0  0  0  0  0  0  0  0  0  0  0  0
  151.3019  143.9197  161.3470 H   0  0  0  0  0  0  0  0  0  0  0  0
  152.9170  144.4948  161.7818 H   0  0  0  0  0  0  0  0  0  0  0  0
  151.1435  146.2956  160.8700 H   0  0  0  0  0  0  0  0  0  0  0  0
  152.7671  146.3033  160.1677 H   0  0  0  0  0  0  0  0  0  0  0  0
  150.2616  145.0322  159.0179 H   0  0  0  0  0  0  0  0  0  0  0  0
  151.4792  145.9884  158.1695 H   0  0  0  0  0  0  0  0  0  0  0  0
  1  2  1  0  0  0  0
  1 18  1  0  0  0  0
  1 19  1  0  0  0  0
  1 20  1  0  0  0  0
  2 17  1  0  0  0  0
  2  3  2  0  0  0  0
  3  4  1  0  0  0  0
  4  5  2  0  0  0  0
  5  6  1  0  0  0  0
  5 17  1  0  0  0  0
  6  7  1  0  0  0  0
  6 21  1  0  0  0  0
  7  8  2  0  0  0  0
  7  9  1  0  0  0  0
  9 10  1  0  0  0  0
  9 22  1  0  0  0  0
 10 11  1  0  0  0  0
 10 12  1  0  0  0  0
 10 23  1  0  0  0  0
 11 24  1  0  0  0  0
 11 25  1  0  0  0  0
 11 26  1  0  0  0  0
 12 16  1  0  0  0  0
 12 13  1  0  0  0  0
 12 27  1  0  0  0  0
 13 14  1  0  0  0  0
 13 28  1  0  0  0  0
 13 29  1  0  0  0  0
 14 15  1  0  0  0  0
 14 30  1  0  0  0  0
 14 31  1  0  0  0  0
 15 16  1  0  0  0  0
 15 32  1  0  0  0  0
 15 33  1  0  0  0  0
M  END
> <s_m_source_file>
AV-unprocessed.smi

> <i_m_source_file_index>
1768

> <i_lp_mmshare_version>
43012

> <i_f3d_flags>
0

> <s_epik_input>
W0NIM11jMW5uYyhzMSlbTkhdQyg9TylbTkhdW0NASF0oW0NIM10pW0NAQEhdMltDSDJdW0NIMl1bQ0gyXU8y

> <s_epik_cmdline>
J2VwaWtfcHl0aG9uJywgJy1waCcsICc3LjAnLCAnLXRuJywgJzgnLCAnLW1hJywgJzIwMCcsICctbWV0YWxfYmluZGluZycsICctaW1hZScsICc8aW5maWxlLm1hZT4nLCAnLW9tYWUnLCAnPG91dGZpbGUubWFlPic=

> <r_lp_tautomer_probability>
1

> <r_epik_Ionization_Penalty>
0.000523083

> <r_epik_Ionization_Penalty_Charging>
0

> <r_epik_Ionization_Penalty_Neutral>
0.000523083

> <r_epik_State_Penalty>
-0

> <r_epik_Charging_Adjusted_Penalty>
0

> <i_epik_Tot_Q>
0

> <i_epik_Tot_abs_Q>
0

> <r_epik_Metal_State_Penalty>
0.223408

> <b_epik_Metal_Only>
0

> <s_lp_Force_Field>
OPLS_2005

> <r_lp_Energy>
16.97

> <b_lp_Chiralities_Consistent>
1

> <s_lp_Variant>
AV-unprocessed.smi:1768-2

> <Gold.Version>
5.8.1

> <Gold.Id.Protein>
6NUR|6NUR_protein|mol2

> <Gold.PLP.Fitness>
36.3309

> <Gold.PLP.PLP>
-36.6124

> <Gold.PLP.part.hbond>
-1.6428

> <Gold.PLP.part.metal>
0.0000

> <Gold.PLP.part.buried>
-7.6090

> <Gold.PLP.part.nonpolar>
-31.4532

> <Gold.PLP.part.repulsive>
3.5486

> <Gold.PLP.ligand.clash>
0.0000

> <Gold.PLP.ligand.torsion>
1.0469

> <Gold.PLP.Chemscore.Hbond>
0.6000

> <Gold.PLP.Chemscore.CHOScore>
0.0000

> <Gold.PLP.Chemscore.Metal>
0.0000

> <Gold.Chemscore.Hbonds>
donor molecule, donor type, donor heavy atom, donor atom, acceptor molecule, acceptor atom, score
      P1  H  7989  7998       L1     4  0.55

> <Gold.PLP.Chemscore.Internal.Correction>
0.0124

> <Gold.Rescore>
     Score         DG    S(hbond)    S(metal)    S(lipo)     H(rot)  DE(clash)    DE(int)     intcor
      7.75     -12.57       0.00        0.00      88.81       1.29       0.25       4.57       ----

> <Gold.Chemscore.Fitness>
7.7456

> <Gold.Chemscore.DG>
-12.5681

> <Gold.Chemscore.ZeroCoef>
-5.4800

> <Gold.Chemscore.Hbond>
0.0013

> <Gold.Chemscore.Metal>
0.0000

> <Gold.Chemscore.Lipo>
88.8111

> <Gold.Chemscore.Internal_Hbond>
0.0000

> <Gold.Chemscore.DEClash>
0.2531

> <Gold.Chemscore.DEInternal>
4.5693

> <Gold.Chemscore.Rot>
1.2919

> <Gold.Chemscore.Internal.Correction>
   9.000000E+99

> <Gold.Chemscore.Hbonds>
donor molecule, donor type, donor heavy atom, donor atom, acceptor molecule, acceptor atom, score
      P1  H  7989  7998       L1     4  0.01

> <Gold.Chemscore.Hbond.Weighted>
-0.0044

> <Gold.Chemscore.Metal.Weighted>
-0.0000

> <Gold.Chemscore.Lipo.Weighted>
-10.3909

> <Gold.Chemscore.Internal_Hbond.Weighted>
0.0000

> <Gold.Chemscore.DEClash.Weighted>
0.2531

> <Gold.Chemscore.DEInternal.Weighted>
4.5693

> <Gold.Chemscore.Rot.Weighted>
3.3072

> <Gold.Chemscore.Internal.Correction.Weighted>
   9.000000E+99

> <Gold.Protein.RotatedTorsions>
[ 6907 6896 6895 6894 ] final  162.31 input  -60.11 | X-H torsion
[ 7974 7965 7964 7962 ] final  117.19 input  175.53 | X-H torsion
[ 8008 7997 7996 7995 ] final   73.33 input   59.86 | X-H torsion
[ 10167 10162 10161 10158 ] final   77.95 input  -65.29 | X-H torsion
[ 10718 10713 10712 10709 ] final   99.27 input   66.30 | X-H torsion
[ 10763 10752 10751 10750 ] final   27.16 input  -60.55 | X-H torsion
[ 11005 11000 10999 10996 ] final -149.76 input  -57.11 | X-H torsion

> <Gold.Protein.ActiveResidues>
 VAL166  LYS551  ARG553  GLY616  TRP617  ASP618  TYR619  PRO620  LYS621  CYS622 
 ASP623  PHE694  ASN695  SER759  ASP760  ASP761  ALA762  ILE779  LEU786  VAL792 
 PHE793  MET794  SER795  GLU796  ALA797  LYS798  CYS799  TRP800  GLU811  SER814 

> <Gold.Protein.RotatedAtoms>
  151.9424  133.3642  159.3969 H   0  0  0  0  0  0  0  0  0  0  0  0  # atno 6907 bound_to 6896
  150.6996  134.4425  159.5308 H   0  0  0  0  0  0  0  0  0  0  0  0  # atno 6908 bound_to 6896
  152.2084  134.8524  160.0551 H   0  0  0  0  0  0  0  0  0  0  0  0  # atno 6909 bound_to 6896
  145.1704  139.3104  143.4470 H   0  0  0  0  0  0  0  0  0  0  0  0  # atno 7974 bound_to 7965
  155.7821  140.3481  155.5303 H   0  0  0  0  0  0  0  0  0  0  0  0  # atno 8008 bound_to 7997
  155.8718  140.0988  157.1566 H   0  0  0  0  0  0  0  0  0  0  0  0  # atno 8009 bound_to 7997
  154.4018  140.1339  156.4074 H   0  0  0  0  0  0  0  0  0  0  0  0  # atno 8010 bound_to 7997
  139.9761  144.5860  150.7942 H   0  0  0  0  0  0  0  0  0  0  0  0  # atno 10167 bound_to 10162
  157.6879  131.0665  150.4923 H   0  0  0  0  0  0  0  0  0  0  0  0  # atno 10718 bound_to 10713
  153.0574  135.6543  154.0544 H   0  0  0  0  0  0  0  0  0  0  0  0  # atno 10763 bound_to 10752
  154.0219  135.2919  155.3381 H   0  0  0  0  0  0  0  0  0  0  0  0  # atno 10764 bound_to 10752
  154.6896  135.5288  153.8442 H   0  0  0  0  0  0  0  0  0  0  0  0  # atno 10765 bound_to 10752
  140.7474  134.3446  157.5134 H   0  0  0  0  0  0  0  0  0  0  0  0  # atno 11005 bound_to 11000
  146.3469  140.1848  142.8589 LP  0  0  0  0  0  0  0  0  0  0  0  0  # atno 17320 bound_to 7965
  145.0238  140.8815  143.5150 LP  0  0  0  0  0  0  0  0  0  0  0  0  # atno 17321 bound_to 7965
  140.7505  143.2957  151.3211 LP  0  0  0  0  0  0  0  0  0  0  0  0  # atno 17342 bound_to 10162
  139.6445  144.0478  152.2580 LP  0  0  0  0  0  0  0  0  0  0  0  0  # atno 17343 bound_to 10162
  156.5249  130.4171  149.6231 LP  0  0  0  0  0  0  0  0  0  0  0  0  # atno 17370 bound_to 10713
  156.3121  130.7234  151.2129 LP  0  0  0  0  0  0  0  0  0  0  0  0  # atno 17371 bound_to 10713
  139.8794  134.9120  156.3049 LP  0  0  0  0  0  0  0  0  0  0  0  0  # atno 17394 bound_to 11000
  140.9782  133.7284  156.0633 LP  0  0  0  0  0  0  0  0  0  0  0  0  # atno 17395 bound_to 11000

$$$$
