AV-unprocessed.smi:1809|AV-procd|sdf|7314|dock1
  -GOLD-   22720 8573D 1   1.00000     0.00000
 Structure written by MMmdl.
 40 42  0  0  0  0  0  0  0  0  2 V2000
  150.9153  141.9726  156.3986 C   0  0  0  0  0  0  0  0  0  0  0  0
  150.4245  140.8148  155.5985 C   0  0  0  0  0  0  0  0  0  0  0  0
  151.2265  140.0795  154.8176 N   0  0  0  0  0  0  0  0  0  0  0  0
  150.5429  139.0607  154.1676 N   0  0  0  0  0  0  0  0  0  0  0  0
  149.2433  139.0551  154.4774 C   0  0  0  0  0  0  0  0  0  0  0  0
  148.4198  138.0684  153.8804 N   0  0  0  0  0  0  0  0  0  0  0  0
  147.0846  137.9500  153.9574 C   0  0  0  0  0  0  0  0  0  0  0  0
  146.3375  138.6906  154.5966 O   0  0  0  0  0  0  0  0  0  0  0  0
  146.6483  136.8997  153.2482 N   0  0  0  0  0  0  0  0  0  0  0  0
  145.2537  136.4849  153.1390 C   0  0  0  0  0  0  0  0  0  0  0  0
  145.1001  135.2170  152.2807 C   0  0  1  0  0  0  0  0  0  0  0  0
  145.3166  135.5057  150.7827 C   0  0  0  0  0  0  0  0  0  0  0  0
  145.3037  134.2648  149.9728 N   0  3  2  0  0  0  0  0  0  0  0  0
  143.9733  133.7166  149.6277 C   0  0  0  0  0  0  0  0  0  0  0  0
  144.1472  132.1927  149.5281 C   0  0  0  0  0  0  0  0  0  0  0  0
  145.6405  131.9356  149.7545 C   0  0  0  0  0  0  0  0  0  0  0  0
  146.1190  133.1649  150.5282 C   0  0  2  0  0  0  0  0  0  0  0  0
  145.9044  133.0167  152.0514 C   0  0  0  0  0  0  0  0  0  0  0  0
  146.0774  134.2700  152.6967 O   0  0  0  0  0  0  0  0  0  0  0  0
  148.7390  140.3124  155.6069 S   0  0  0  0  0  0  0  0  0  0  0  0
  152.0024  142.0424  156.3487 H   0  0  0  0  0  0  0  0  0  0  0  0
  150.6207  141.8577  157.4417 H   0  0  0  0  0  0  0  0  0  0  0  0
  150.4875  142.8983  156.0136 H   0  0  0  0  0  0  0  0  0  0  0  0
  148.9048  137.3763  153.3282 H   0  0  0  0  0  0  0  0  0  0  0  0
  147.3288  136.3420  152.7528 H   0  0  0  0  0  0  0  0  0  0  0  0
  144.8429  136.3197  154.1366 H   0  0  0  0  0  0  0  0  0  0  0  0
  144.6849  137.3065  152.7028 H   0  0  0  0  0  0  0  0  0  0  0  0
  144.1013  134.8047  152.4332 H   0  0  0  0  0  0  0  0  0  0  0  0
  144.5683  136.2037  150.4050 H   0  0  0  0  0  0  0  0  0  0  0  0
  146.2875  135.9828  150.6434 H   0  0  0  0  0  0  0  0  0  0  0  0
  143.2350  133.9586  150.3931 H   0  0  0  0  0  0  0  0  0  0  0  0
  143.6295  134.1487  148.6877 H   0  0  0  0  0  0  0  0  0  0  0  0
  143.5603  131.7027  150.3061 H   0  0  0  0  0  0  0  0  0  0  0  0
  143.8102  131.8004  148.5682 H   0  0  0  0  0  0  0  0  0  0  0  0
  145.8368  130.9965  150.2733 H   0  0  0  0  0  0  0  0  0  0  0  0
  146.1503  131.8919  148.7910 H   0  0  0  0  0  0  0  0  0  0  0  0
  147.1735  133.3648  150.3336 H   0  0  0  0  0  0  0  0  0  0  0  0
  144.9130  132.6224  152.2808 H   0  0  0  0  0  0  0  0  0  0  0  0
  146.6227  132.3066  152.4612 H   0  0  0  0  0  0  0  0  0  0  0  0
  145.7251  134.4953  149.0840 H   0  0  0  0  0  0  0  0  0  0  0  0
  1  2  1  0  0  0  0
  1 21  1  0  0  0  0
  1 22  1  0  0  0  0
  1 23  1  0  0  0  0
  2 20  1  0  0  0  0
  2  3  2  0  0  0  0
  3  4  1  0  0  0  0
  4  5  2  0  0  0  0
  5  6  1  0  0  0  0
  5 20  1  0  0  0  0
  6  7  1  0  0  0  0
  6 24  1  0  0  0  0
  7  8  2  0  0  0  0
  7  9  1  0  0  0  0
  9 10  1  0  0  0  0
  9 25  1  0  0  0  0
 10 11  1  0  0  0  0
 10 26  1  0  0  0  0
 10 27  1  0  0  0  0
 11 19  1  0  0  0  0
 11 12  1  0  0  0  0
 11 28  1  0  0  0  0
 12 13  1  0  0  0  0
 12 29  1  0  0  0  0
 12 30  1  0  0  0  0
 13 17  1  0  0  0  0
 13 14  1  0  0  0  0
 13 40  1  0  0  0  0
 14 15  1  0  0  0  0
 14 31  1  0  0  0  0
 14 32  1  0  0  0  0
 15 16  1  0  0  0  0
 15 33  1  0  0  0  0
 15 34  1  0  0  0  0
 16 17  1  0  0  0  0
 16 35  1  0  0  0  0
 16 36  1  0  0  0  0
 17 18  1  0  0  0  0
 17 37  1  0  0  0  0
 18 19  1  0  0  0  0
 18 38  1  0  0  0  0
 18 39  1  0  0  0  0
M  CHG  1  13   1
M  END
> <s_m_source_file>
AV-unprocessed.smi

> <i_m_source_file_index>
1809

> <i_lp_mmshare_version>
43012

> <i_f3d_flags>
0

> <s_epik_input>
W0NIM11jMW5uYyhzMSlbTkhdQyg9TylbTkhdW0NIMl1bQ0BIXShbQ0gyXTIpT1tDSDJdW0NAQEhdKE4yMylbQ0gyXVtDSDJdW0NIMl0z

> <s_epik_cmdline>
J2VwaWtfcHl0aG9uJywgJy1waCcsICc3LjAnLCAnLXRuJywgJzgnLCAnLW1hJywgJzIwMCcsICctbWV0YWxfYmluZGluZycsICctaW1hZScsICc8aW5maWxlLm1hZT4nLCAnLW9tYWUnLCAnPG91dGZpbGUubWFlPic=

> <r_lp_tautomer_probability>
1

> <r_epik_Ionization_Penalty>
0.112474

> <r_epik_Ionization_Penalty_Charging>
0.108916

> <r_epik_Ionization_Penalty_Neutral>
0.00355844

> <r_epik_State_Penalty>
0.0565397

> <r_epik_Charging_Adjusted_Penalty>
0.165456

> <i_epik_Tot_Q>
1

> <i_epik_Tot_abs_Q>
1

> <r_epik_Metal_State_Penalty>
0.422831

> <b_epik_Metal_Only>
0

> <s_lp_Force_Field>
OPLS_2005

> <r_lp_Energy>
33.7816

> <b_lp_Chiralities_Consistent>
1

> <s_lp_Variant>
AV-unprocessed.smi:1809-6

> <Gold.Version>
5.8.1

> <Gold.Id.Protein>
6NUR|6NUR_protein|mol2

> <Gold.PLP.Fitness>
43.1538

> <Gold.PLP.PLP>
-31.7867

> <Gold.PLP.part.hbond>
-4.6333

> <Gold.PLP.part.metal>
0.0000

> <Gold.PLP.part.buried>
-2.6672

> <Gold.PLP.part.nonpolar>
-25.2266

> <Gold.PLP.part.repulsive>
0.5566

> <Gold.PLP.ligand.clash>
0.0000

> <Gold.PLP.ligand.torsion>
0.0955

> <Gold.PLP.Chemscore.Hbond>
3.8500

> <Gold.PLP.Chemscore.CHOScore>
0.0000

> <Gold.PLP.Chemscore.Metal>
0.0000

> <Gold.Chemscore.Hbonds>
donor molecule, donor type, donor heavy atom, donor atom, acceptor molecule, acceptor atom, score
      L1  H     6    24       P1  7948  1.00
      L1  H     9    25       P1  7948  0.99
      L1  H    13    40       P1  7921  1.00
      P1  H  7989  7998       L1     3  0.80

> <Gold.PLP.Chemscore.Internal.Correction>
0.0082

> <Gold.Rescore>
     Score         DG    S(hbond)    S(metal)    S(lipo)     H(rot)  DE(clash)    DE(int)     intcor
     19.90     -20.83       2.94        0.00      76.46       1.34       0.13       0.81       ----

> <Gold.Chemscore.Fitness>
19.8974

> <Gold.Chemscore.DG>
-20.8298

> <Gold.Chemscore.ZeroCoef>
-5.4800

> <Gold.Chemscore.Hbond>
2.9438

> <Gold.Chemscore.Metal>
0.0000

> <Gold.Chemscore.Lipo>
76.4580

> <Gold.Chemscore.Internal_Hbond>
0.0000

> <Gold.Chemscore.DEClash>
0.1267

> <Gold.Chemscore.DEInternal>
0.8057

> <Gold.Chemscore.Rot>
1.3391

> <Gold.Chemscore.Internal.Correction>
   9.000000E+99

> <Gold.Chemscore.Hbonds>
donor molecule, donor type, donor heavy atom, donor atom, acceptor molecule, acceptor atom, score
      L1  H     6    24       P1  7948  0.95
      L1  H     9    25       P1  7948  0.94
      L1  H    13    40       P1  7921  0.82
      P1  H  7989  7998       L1     3  0.09

> <Gold.Chemscore.Hbond.Weighted>
-9.8323

> <Gold.Chemscore.Metal.Weighted>
-0.0000

> <Gold.Chemscore.Lipo.Weighted>
-8.9456

> <Gold.Chemscore.Internal_Hbond.Weighted>
0.0000

> <Gold.Chemscore.DEClash.Weighted>
0.1267

> <Gold.Chemscore.DEInternal.Weighted>
0.8057

> <Gold.Chemscore.Rot.Weighted>
3.4281

> <Gold.Chemscore.Internal.Correction.Weighted>
   9.000000E+99

> <Gold.Protein.RotatedTorsions>
[ 6907 6896 6895 6894 ] final  144.91 input  -60.11 | X-H torsion
[ 7974 7965 7964 7962 ] final   54.92 input  175.53 | X-H torsion
[ 8008 7997 7996 7995 ] final   58.69 input   59.86 | X-H torsion
[ 10167 10162 10161 10158 ] final  -62.61 input  -65.29 | X-H torsion
[ 10718 10713 10712 10709 ] final  149.32 input   66.30 | X-H torsion
[ 10763 10752 10751 10750 ] final -154.64 input  -60.55 | X-H torsion
[ 11005 11000 10999 10996 ] final -137.68 input  -57.11 | X-H torsion

> <Gold.Protein.ActiveResidues>
 VAL166  LYS551  ARG553  GLY616  TRP617  ASP618  TYR619  PRO620  LYS621  CYS622 
 ASP623  PHE694  ASN695  SER759  ASP760  ASP761  ALA762  ILE779  LEU786  VAL792 
 PHE793  MET794  SER795  GLU796  ALA797  LYS798  CYS799  TRP800  GLU811  SER814 

> <Gold.Protein.RotatedAtoms>
  152.1877  133.4751  159.4990 H   0  0  0  0  0  0  0  0  0  0  0  0  # atno 6907 bound_to 6896
  150.6945  134.1753  159.4237 H   0  0  0  0  0  0  0  0  0  0  0  0  # atno 6908 bound_to 6896
  151.9666  135.0097  160.0601 H   0  0  0  0  0  0  0  0  0  0  0  0  # atno 6909 bound_to 6896
  145.9558  139.4014  143.0278 H   0  0  0  0  0  0  0  0  0  0  0  0  # atno 7974 bound_to 7965
  155.5541  140.3487  155.4475 H   0  0  0  0  0  0  0  0  0  0  0  0  # atno 8008 bound_to 7997
  156.0562  140.1329  157.0020 H   0  0  0  0  0  0  0  0  0  0  0  0  # atno 8009 bound_to 7997
  154.4457  140.0994  156.6434 H   0  0  0  0  0  0  0  0  0  0  0  0  # atno 8010 bound_to 7997
  140.5927  143.2345  151.6103 H   0  0  0  0  0  0  0  0  0  0  0  0  # atno 10167 bound_to 10162
  157.2976  131.0865  151.1415 H   0  0  0  0  0  0  0  0  0  0  0  0  # atno 10718 bound_to 10713
  154.7844  135.3185  154.7918 H   0  0  0  0  0  0  0  0  0  0  0  0  # atno 10763 bound_to 10752
  153.8621  135.6852  153.4786 H   0  0  0  0  0  0  0  0  0  0  0  0  # atno 10764 bound_to 10752
  153.1491  135.4707  154.9549 H   0  0  0  0  0  0  0  0  0  0  0  0  # atno 10765 bound_to 10752
  140.8688  134.2077  157.4663 H   0  0  0  0  0  0  0  0  0  0  0  0  # atno 11005 bound_to 11000
  145.8108  140.9727  143.0950 LP  0  0  0  0  0  0  0  0  0  0  0  0  # atno 17320 bound_to 7965
  144.6805  139.9919  143.7484 LP  0  0  0  0  0  0  0  0  0  0  0  0  # atno 17321 bound_to 7965
  139.5238  144.3122  152.0983 LP  0  0  0  0  0  0  0  0  0  0  0  0  # atno 17342 bound_to 10162
  140.2289  144.4389  150.6309 LP  0  0  0  0  0  0  0  0  0  0  0  0  # atno 17343 bound_to 10162
  157.2787  130.6739  149.6055 LP  0  0  0  0  0  0  0  0  0  0  0  0  # atno 17370 bound_to 10713
  155.9670  130.4456  150.5510 LP  0  0  0  0  0  0  0  0  0  0  0  0  # atno 17371 bound_to 10713
  139.8711  134.9764  156.4921 LP  0  0  0  0  0  0  0  0  0  0  0  0  # atno 17394 bound_to 11000
  140.8597  133.8069  155.9252 LP  0  0  0  0  0  0  0  0  0  0  0  0  # atno 17395 bound_to 11000

$$$$
