AV-unprocessed.smi:612|AV-procd|sdf|3063|dock10
  -GOLD-   2262023583D 1   1.00000     0.00000
 Structure written by MMmdl.
 50 52  0  0  0  0  0  0  0  0  2 V2000
  153.8211  139.1447  160.5158 C   0  0  0  0  0  0  0  0  0  0  0  0
  153.2992  140.4603  160.1368 N   0  0  0  0  0  0  0  0  0  0  0  0
  153.6441  141.5543  160.9479 C   0  0  0  0  0  0  0  0  0  0  0  0
  153.2099  142.7932  160.6791 C   0  0  0  0  0  0  0  0  0  0  0  0
  152.3680  142.9902  159.5235 C   0  0  0  0  0  0  0  0  0  0  0  0
  152.0269  141.9488  158.7225 C   0  0  0  0  0  0  0  0  0  0  0  0
  151.2083  142.0442  157.5824 N   0  0  0  0  0  0  0  0  0  0  0  0
  150.0567  141.4096  157.2938 C   0  0  0  0  0  0  0  0  0  0  0  0
  149.4745  140.6037  158.0187 O   0  0  0  0  0  0  0  0  0  0  0  0
  149.5966  141.7829  156.0904 N   0  0  0  0  0  0  0  0  0  0  0  0
  148.3649  141.3095  155.4632 C   0  0  2  0  0  0  0  0  0  0  0  0
  148.2009  141.9415  154.0697 C   0  0  0  0  0  0  0  0  0  0  0  0
  146.8441  141.5632  153.4439 C   0  0  0  0  0  0  0  0  0  0  0  0
  145.6992  141.9298  154.3238 N   0  3  2  0  0  0  0  0  0  0  0  0
  145.4015  143.3930  154.3746 C   0  0  0  0  0  0  0  0  0  0  0  0
  144.0750  143.7299  155.0695 C   0  0  0  0  0  0  0  0  0  0  0  0
  143.7270  145.1432  154.5946 C   0  0  0  0  0  0  0  0  0  0  0  0
  144.4140  145.3147  153.2332 C   0  0  0  0  0  0  0  0  0  0  0  0
  145.2103  144.0278  152.9896 C   0  0  0  0  0  0  0  0  0  0  0  0
  145.8348  141.2780  155.6562 C   0  0  0  0  0  0  0  0  0  0  0  0
  147.1571  141.6543  156.3508 C   0  0  0  0  0  0  0  0  0  0  0  0
  152.5053  140.5866  159.0319 C   0  0  0  0  0  0  0  0  0  0  0  0
  152.2132  139.6070  158.3410 O   0  0  0  0  0  0  0  0  0  0  0  0
  154.4623  139.1832  161.3972 H   0  0  0  0  0  0  0  0  0  0  0  0
  154.4122  138.7173  159.7045 H   0  0  0  0  0  0  0  0  0  0  0  0
  153.0024  138.4589  160.7387 H   0  0  0  0  0  0  0  0  0  0  0  0
  154.2757  141.3259  161.7940 H   0  0  0  0  0  0  0  0  0  0  0  0
  153.4825  143.6245  161.3122 H   0  0  0  0  0  0  0  0  0  0  0  0
  152.0198  143.9931  159.3411 H   0  0  0  0  0  0  0  0  0  0  0  0
  151.5316  142.7117  156.8972 H   0  0  0  0  0  0  0  0  0  0  0  0
  150.1426  142.4520  155.5670 H   0  0  0  0  0  0  0  0  0  0  0  0
  148.3912  140.2250  155.3428 H   0  0  0  0  0  0  0  0  0  0  0  0
  148.2913  143.0265  154.1344 H   0  0  0  0  0  0  0  0  0  0  0  0
  149.0087  141.6090  153.4167 H   0  0  0  0  0  0  0  0  0  0  0  0
  146.7422  142.0074  152.4546 H   0  0  0  0  0  0  0  0  0  0  0  0
  146.8155  140.4849  153.2817 H   0  0  0  0  0  0  0  0  0  0  0  0
  146.2047  143.9201  154.8905 H   0  0  0  0  0  0  0  0  0  0  0  0
  143.2963  143.0369  154.7469 H   0  0  0  0  0  0  0  0  0  0  0  0
  144.1391  143.6774  156.1568 H   0  0  0  0  0  0  0  0  0  0  0  0
  142.6486  145.2936  154.5335 H   0  0  0  0  0  0  0  0  0  0  0  0
  144.1190  145.8786  155.2983 H   0  0  0  0  0  0  0  0  0  0  0  0
  143.6923  145.4871  152.4340 H   0  0  0  0  0  0  0  0  0  0  0  0
  145.0810  146.1772  153.2607 H   0  0  0  0  0  0  0  0  0  0  0  0
  146.1546  144.2292  152.4827 H   0  0  0  0  0  0  0  0  0  0  0  0
  144.6278  143.3614  152.3515 H   0  0  0  0  0  0  0  0  0  0  0  0
  144.9856  141.5056  156.2991 H   0  0  0  0  0  0  0  0  0  0  0  0
  145.8045  140.1975  155.5097 H   0  0  0  0  0  0  0  0  0  0  0  0
  147.2342  141.1239  157.3007 H   0  0  0  0  0  0  0  0  0  0  0  0
  147.1592  142.7171  156.5958 H   0  0  0  0  0  0  0  0  0  0  0  0
  144.8828  141.5137  153.8984 H   0  0  0  0  0  0  0  0  0  0  0  0
  1  2  1  0  0  0  0
  1 24  1  0  0  0  0
  1 25  1  0  0  0  0
  1 26  1  0  0  0  0
  2 22  1  0  0  0  0
  2  3  1  0  0  0  0
  3  4  2  0  0  0  0
  3 27  1  0  0  0  0
  4  5  1  0  0  0  0
  4 28  1  0  0  0  0
  5  6  2  0  0  0  0
  5 29  1  0  0  0  0
  6  7  1  0  0  0  0
  6 22  1  0  0  0  0
  7  8  1  0  0  0  0
  7 30  1  0  0  0  0
  8  9  2  0  0  0  0
  8 10  1  0  0  0  0
 10 11  1  0  0  0  0
 10 31  1  0  0  0  0
 11 21  1  0  0  0  0
 11 12  1  0  0  0  0
 11 32  1  0  0  0  0
 12 13  1  0  0  0  0
 12 33  1  0  0  0  0
 12 34  1  0  0  0  0
 13 14  1  0  0  0  0
 13 35  1  0  0  0  0
 13 36  1  0  0  0  0
 14 15  1  0  0  0  0
 14 20  1  0  0  0  0
 14 50  1  0  0  0  0
 15 19  1  0  0  0  0
 15 16  1  0  0  0  0
 15 37  1  0  0  0  0
 16 17  1  0  0  0  0
 16 38  1  0  0  0  0
 16 39  1  0  0  0  0
 17 18  1  0  0  0  0
 17 40  1  0  0  0  0
 17 41  1  0  0  0  0
 18 19  1  0  0  0  0
 18 42  1  0  0  0  0
 18 43  1  0  0  0  0
 19 44  1  0  0  0  0
 19 45  1  0  0  0  0
 20 21  1  0  0  0  0
 20 46  1  0  0  0  0
 20 47  1  0  0  0  0
 21 48  1  0  0  0  0
 21 49  1  0  0  0  0
 22 23  2  0  0  0  0
M  CHG  1  14   1
M  END
> <s_m_source_file>
AV-unprocessed.smi

> <i_m_source_file_index>
612

> <i_lp_mmshare_version>
43012

> <i_f3d_flags>
0

> <s_epik_input>
W0NIM11uMVtjSF1bY0hdW2NIXWMoYzE9TylbTkhdQyg9TylbTkhdW0NIXTJbQ0gyXVtDSDJdTihbQ0gyXVtDSDJdMilbQ0hdM1tDSDJdW0NIMl1bQ0gyXVtDSDJdMw==

> <s_epik_cmdline>
J2VwaWtfcHl0aG9uJywgJy1waCcsICc3LjAnLCAnLXRuJywgJzgnLCAnLW1hJywgJzIwMCcsICctbWV0YWxfYmluZGluZycsICctaW1hZScsICc8aW5maWxlLm1hZT4nLCAnLW9tYWUnLCAnPG91dGZpbGUubWFlPic=

> <r_lp_tautomer_probability>
1

> <r_epik_Ionization_Penalty>
0.00200366

> <r_epik_Ionization_Penalty_Charging>
0.00198522

> <r_epik_Ionization_Penalty_Neutral>
1.84356e-05

> <r_epik_State_Penalty>
0.00135242

> <r_epik_Charging_Adjusted_Penalty>
0.00333764

> <i_epik_Tot_Q>
1

> <i_epik_Tot_abs_Q>
1

> <r_epik_Metal_State_Penalty>
-0

> <b_epik_Metal_Only>
0

> <s_lp_Force_Field>
OPLS_2005

> <r_lp_Energy>
52.136

> <b_lp_Chiralities_Consistent>
1

> <s_lp_Variant>
AV-unprocessed.smi:612-2

> <Gold.Version>
5.8.1

> <Gold.Id.Protein>
6NUR|6NUR_protein|mol2

> <Gold.PLP.Fitness>
46.6355

> <Gold.PLP.PLP>
-42.7567

> <Gold.PLP.part.hbond>
-1.7998

> <Gold.PLP.part.metal>
0.0000

> <Gold.PLP.part.buried>
-4.0234

> <Gold.PLP.part.nonpolar>
-39.1427

> <Gold.PLP.part.repulsive>
0.1513

> <Gold.PLP.ligand.clash>
0.0000

> <Gold.PLP.ligand.torsion>
0.5748

> <Gold.PLP.Chemscore.Hbond>
1.6575

> <Gold.PLP.Chemscore.CHOScore>
0.0000

> <Gold.PLP.Chemscore.Metal>
0.0000

> <Gold.Chemscore.Hbonds>
donor molecule, donor type, donor heavy atom, donor atom, acceptor molecule, acceptor atom, score
      L1  H    14    50       P1 10175  1.54

> <Gold.PLP.Chemscore.Internal.Correction>
0.0558

> <Gold.Rescore>
     Score         DG    S(hbond)    S(metal)    S(lipo)     H(rot)  DE(clash)    DE(int)     intcor
     15.65     -18.63       1.21        0.00     104.32       1.21       1.59       1.39       ----

> <Gold.Chemscore.Fitness>
15.6536

> <Gold.Chemscore.DG>
-18.6319

> <Gold.Chemscore.ZeroCoef>
-5.4800

> <Gold.Chemscore.Hbond>
1.2073

> <Gold.Chemscore.Metal>
0.0000

> <Gold.Chemscore.Lipo>
104.3217

> <Gold.Chemscore.Internal_Hbond>
0.0000

> <Gold.Chemscore.DEClash>
1.5872

> <Gold.Chemscore.DEInternal>
1.3912

> <Gold.Chemscore.Rot>
1.2056

> <Gold.Chemscore.Internal.Correction>
   9.000000E+99

> <Gold.Chemscore.Hbonds>
donor molecule, donor type, donor heavy atom, donor atom, acceptor molecule, acceptor atom, score
      L1  H    14    50       P1 10175  0.17

> <Gold.Chemscore.Hbond.Weighted>
-4.0325

> <Gold.Chemscore.Metal.Weighted>
-0.0000

> <Gold.Chemscore.Lipo.Weighted>
-12.2056

> <Gold.Chemscore.Internal_Hbond.Weighted>
0.0000

> <Gold.Chemscore.DEClash.Weighted>
1.5872

> <Gold.Chemscore.DEInternal.Weighted>
1.3912

> <Gold.Chemscore.Rot.Weighted>
3.0862

> <Gold.Chemscore.Internal.Correction.Weighted>
   9.000000E+99

> <Gold.Protein.RotatedTorsions>
[ 6907 6896 6895 6894 ] final   74.73 input  -60.11 | X-H torsion
[ 7974 7965 7964 7962 ] final  149.11 input  175.53 | X-H torsion
[ 8008 7997 7996 7995 ] final   18.91 input   59.86 | X-H torsion
[ 10167 10162 10161 10158 ] final  -57.21 input  -65.29 | X-H torsion
[ 10718 10713 10712 10709 ] final -105.50 input   66.30 | X-H torsion
[ 10763 10752 10751 10750 ] final  -44.14 input  -60.55 | X-H torsion
[ 11005 11000 10999 10996 ] final  172.42 input  -57.11 | X-H torsion

> <Gold.Protein.ActiveResidues>
 VAL166  LYS551  ARG553  GLY616  TRP617  ASP618  TYR619  PRO620  LYS621  CYS622 
 ASP623  PHE694  ASN695  SER759  ASP760  ASP761  ALA762  ILE779  LEU786  VAL792 
 PHE793  MET794  SER795  GLU796  ALA797  LYS798  CYS799  TRP800  GLU811  SER814 

> <Gold.Protein.RotatedAtoms>
  152.4991  134.4227  159.9485 H   0  0  0  0  0  0  0  0  0  0  0  0  # atno 6907 bound_to 6896
  151.4201  133.3695  159.2763 H   0  0  0  0  0  0  0  0  0  0  0  0  # atno 6908 bound_to 6896
  150.9229  134.8668  159.7560 H   0  0  0  0  0  0  0  0  0  0  0  0  # atno 6909 bound_to 6896
  144.8463  139.6238  143.5994 H   0  0  0  0  0  0  0  0  0  0  0  0  # atno 7974 bound_to 7965
  154.9129  140.3016  155.5256 H   0  0  0  0  0  0  0  0  0  0  0  0  # atno 8008 bound_to 7997
  156.3014  140.2385  156.4106 H   0  0  0  0  0  0  0  0  0  0  0  0  # atno 8009 bound_to 7997
  154.8407  140.0414  157.1528 H   0  0  0  0  0  0  0  0  0  0  0  0  # atno 8010 bound_to 7997
  140.6272  143.2443  151.5334 H   0  0  0  0  0  0  0  0  0  0  0  0  # atno 10167 bound_to 10162
  156.0349  130.5567  150.7548 H   0  0  0  0  0  0  0  0  0  0  0  0  # atno 10718 bound_to 10713
  154.0071  135.6686  153.4763 H   0  0  0  0  0  0  0  0  0  0  0  0  # atno 10763 bound_to 10752
  153.0637  135.5013  154.8147 H   0  0  0  0  0  0  0  0  0  0  0  0  # atno 10764 bound_to 10752
  154.7018  135.3080  154.9293 H   0  0  0  0  0  0  0  0  0  0  0  0  # atno 10765 bound_to 10752
  140.3295  134.7369  157.4124 H   0  0  0  0  0  0  0  0  0  0  0  0  # atno 11005 bound_to 11000
  146.2747  139.6722  142.9271 LP  0  0  0  0  0  0  0  0  0  0  0  0  # atno 17320 bound_to 7965
  145.4591  141.0432  143.2762 LP  0  0  0  0  0  0  0  0  0  0  0  0  # atno 17321 bound_to 7965
  139.5490  144.2444  152.1496 LP  0  0  0  0  0  0  0  0  0  0  0  0  # atno 17342 bound_to 10162
  140.1678  144.4964  150.6596 LP  0  0  0  0  0  0  0  0  0  0  0  0  # atno 17343 bound_to 10162
  157.5083  131.0923  151.0230 LP  0  0  0  0  0  0  0  0  0  0  0  0  # atno 17370 bound_to 10713
  157.0592  130.5818  149.5383 LP  0  0  0  0  0  0  0  0  0  0  0  0  # atno 17371 bound_to 10713
  140.0873  134.5649  155.8480 LP  0  0  0  0  0  0  0  0  0  0  0  0  # atno 17394 bound_to 11000
  141.2067  133.6657  156.6258 LP  0  0  0  0  0  0  0  0  0  0  0  0  # atno 17395 bound_to 11000

$$$$
