AV-unprocessed.smi:21|AV-procd|sdf|156|dock6
  -GOLD-   2262015383D 1   1.00000     0.00000
 Structure written by MMmdl.
 61 64  0  0  0  0  0  0  0  0  1 V2000
  154.5819  140.2501  161.3053 C   0  0  0  0  0  0  0  0  0  0  0  0
  154.0665  140.3354  159.9864 O   0  0  0  0  0  0  0  0  0  0  0  0
  152.7122  140.7632  159.9409 C   0  0  2  0  0  0  0  0  0  0  0  0
  152.0174  140.3012  158.6492 C   0  0  0  0  0  0  0  0  0  0  0  0
  151.4011  141.5813  158.0666 C   0  0  2  0  0  0  0  0  0  0  0  0
  151.1661  141.5211  156.5394 C   0  0  0  0  0  0  0  0  0  0  0  0
  150.1845  140.5121  156.1376 N   0  0  0  0  0  0  0  0  0  0  0  0
  148.9326  140.4583  156.8875 C   0  0  0  0  0  0  0  0  0  0  0  0
  150.6351  139.3658  155.5576 C   0  0  0  0  0  0  0  0  0  0  0  0
  151.8353  139.3798  154.9161 N   0  0  0  0  0  0  0  0  0  0  0  0
  152.2888  138.2881  154.2947 C   0  0  0  0  0  0  0  0  0  0  0  0
  151.7148  137.0894  154.1908 N   0  0  0  0  0  0  0  0  0  0  0  0
  150.5205  137.0581  154.8473 C   0  0  0  0  0  0  0  0  0  0  0  0
  149.9149  138.1343  155.5577 C   0  0  0  0  0  0  0  0  0  0  0  0
  148.7132  137.7058  156.1124 N   0  0  0  0  0  0  0  0  0  0  0  0
  148.6035  136.4628  155.7323 C   0  0  0  0  0  0  0  0  0  0  0  0
  149.6401  135.9974  154.9575 N   0  0  0  0  0  0  0  0  0  0  0  0
  149.7765  134.6703  154.3860 C   0  0  0  0  0  0  0  0  0  0  0  0
  149.7404  133.5305  155.4394 C   0  0  2  0  0  0  0  0  0  0  0  0
  151.1511  133.1846  155.9821 C   0  0  0  0  0  0  0  0  0  0  0  0
  151.0932  132.3197  157.0976 O   0  0  0  0  0  0  0  0  0  0  0  0
  149.0444  132.2739  154.8543 C   0  0  2  0  0  0  0  0  0  0  0  0
  149.9775  131.2808  154.1804 C   0  0  0  0  0  0  0  0  0  0  0  0
  149.0164  130.4616  153.3293 C   0  0  0  0  0  0  0  0  0  0  0  0
  148.0243  131.3830  152.8974 O   0  0  0  0  0  0  0  0  0  0  0  0
  148.0640  132.5550  153.7065 C   0  0  0  0  0  0  0  0  0  0  0  0
  152.3154  142.6308  158.4879 N   0  0  0  0  0  0  0  0  0  0  0  0
  151.7682  143.9762  158.3714 C   0  0  0  0  0  0  0  0  0  0  0  0
  152.6479  142.2932  159.8601 C   0  0  0  0  0  0  0  0  0  0  0  0
  152.1729  140.4287  160.8292 H   0  0  0  0  0  0  0  0  0  0  0  0
  150.4426  141.7444  158.5628 H   0  0  0  0  0  0  0  0  0  0  0  0
  155.6076  139.8833  161.2733 H   0  0  0  0  0  0  0  0  0  0  0  0
  154.0001  139.5653  161.9231 H   0  0  0  0  0  0  0  0  0  0  0  0
  154.5902  141.2289  161.7866 H   0  0  0  0  0  0  0  0  0  0  0  0
  152.7526  139.8919  157.9542 H   0  0  0  0  0  0  0  0  0  0  0  0
  151.2719  139.5285  158.8384 H   0  0  0  0  0  0  0  0  0  0  0  0
  150.7863  142.4813  156.1920 H   0  0  0  0  0  0  0  0  0  0  0  0
  152.1155  141.3937  156.0253 H   0  0  0  0  0  0  0  0  0  0  0  0
  148.1450  139.9924  156.2939 H   0  0  0  0  0  0  0  0  0  0  0  0
  148.5990  141.4622  157.1509 H   0  0  0  0  0  0  0  0  0  0  0  0
  149.0557  139.8900  157.8103 H   0  0  0  0  0  0  0  0  0  0  0  0
  153.2463  138.3922  153.8059 H   0  0  0  0  0  0  0  0  0  0  0  0
  147.7532  135.8523  155.9987 H   0  0  0  0  0  0  0  0  0  0  0  0
  148.9717  134.5535  153.6607 H   0  0  0  0  0  0  0  0  0  0  0  0
  150.7086  134.6300  153.8209 H   0  0  0  0  0  0  0  0  0  0  0  0
  149.1330  133.8669  156.2813 H   0  0  0  0  0  0  0  0  0  0  0  0
  151.7498  132.6705  155.2319 H   0  0  0  0  0  0  0  0  0  0  0  0
  151.6959  134.0903  156.2498 H   0  0  0  0  0  0  0  0  0  0  0  0
  150.3799  131.7122  156.9723 H   0  0  0  0  0  0  0  0  0  0  0  0
  148.5076  131.7536  155.6495 H   0  0  0  0  0  0  0  0  0  0  0  0
  150.6931  131.8010  153.5417 H   0  0  0  0  0  0  0  0  0  0  0  0
  150.5333  130.6604  154.8838 H   0  0  0  0  0  0  0  0  0  0  0  0
  149.5092  129.9783  152.4856 H   0  0  0  0  0  0  0  0  0  0  0  0
  148.5378  129.6896  153.9330 H   0  0  0  0  0  0  0  0  0  0  0  0
  147.0655  132.8055  154.0661 H   0  0  0  0  0  0  0  0  0  0  0  0
  148.4155  133.3813  153.0872 H   0  0  0  0  0  0  0  0  0  0  0  0
  152.4754  144.7110  158.7572 H   0  0  0  0  0  0  0  0  0  0  0  0
  150.8374  144.0753  158.9315 H   0  0  0  0  0  0  0  0  0  0  0  0
  151.5683  144.2306  157.3309 H   0  0  0  0  0  0  0  0  0  0  0  0
  151.8597  142.6446  160.5283 H   0  0  0  0  0  0  0  0  0  0  0  0
  153.5770  142.7703  160.1742 H   0  0  0  0  0  0  0  0  0  0  0  0
  1  2  1  0  0  0  0
  1 32  1  0  0  0  0
  1 33  1  0  0  0  0
  1 34  1  0  0  0  0
  2  3  1  0  0  0  0
  3 30  1  0  0  0  0
  3 29  1  0  0  0  0
  3  4  1  0  0  0  0
  4  5  1  0  0  0  0
  4 35  1  0  0  0  0
  4 36  1  0  0  0  0
  5 31  1  0  0  0  0
  5  6  1  0  0  0  0
  5 27  1  0  0  0  0
  6  7  1  0  0  0  0
  6 37  1  0  0  0  0
  6 38  1  0  0  0  0
  7  8  1  0  0  0  0
  7  9  1  0  0  0  0
  8 39  1  0  0  0  0
  8 40  1  0  0  0  0
  8 41  1  0  0  0  0
  9 14  1  0  0  0  0
  9 10  2  0  0  0  0
 10 11  1  0  0  0  0
 11 12  2  0  0  0  0
 11 42  1  0  0  0  0
 12 13  1  0  0  0  0
 13 17  1  0  0  0  0
 13 14  2  0  0  0  0
 14 15  1  0  0  0  0
 15 16  2  0  0  0  0
 16 17  1  0  0  0  0
 16 43  1  0  0  0  0
 17 18  1  0  0  0  0
 18 19  1  0  0  0  0
 18 44  1  0  0  0  0
 18 45  1  0  0  0  0
 19 20  1  0  0  0  0
 19 22  1  0  0  0  0
 19 46  1  0  0  0  0
 20 21  1  0  0  0  0
 20 47  1  0  0  0  0
 20 48  1  0  0  0  0
 21 49  1  0  0  0  0
 22 26  1  0  0  0  0
 22 23  1  0  0  0  0
 22 50  1  0  0  0  0
 23 24  1  0  0  0  0
 23 51  1  0  0  0  0
 23 52  1  0  0  0  0
 24 25  1  0  0  0  0
 24 53  1  0  0  0  0
 24 54  1  0  0  0  0
 25 26  1  0  0  0  0
 26 55  1  0  0  0  0
 26 56  1  0  0  0  0
 27 28  1  0  0  0  0
 27 29  1  0  0  0  0
 28 57  1  0  0  0  0
 28 58  1  0  0  0  0
 28 59  1  0  0  0  0
 29 60  1  0  0  0  0
 29 61  1  0  0  0  0
M  END
> <s_m_source_file>
AV-unprocessed.smi

> <i_m_source_file_index>
21

> <i_lp_mmshare_version>
43012

> <i_f3d_flags>
0

> <s_epik_input>
W0NIM11PW0NASF0xW0NIMl1bQ0BIXShOKFtDSDNdKVtDSDJdMSlbQ0gyXU4oW0NIM10pYyhuW2NIXW4yKWMoYzIzKW5bY0hdbjNbQ0gyXVtDQEhdKFtDSDJdW09IXSlbQ0BASF00W0NIMl1bQ0gyXU9bQ0gyXTQ=

> <s_epik_cmdline>
J2VwaWtfcHl0aG9uJywgJy1waCcsICc3LjAnLCAnLXRuJywgJzgnLCAnLW1hJywgJzIwMCcsICctbWV0YWxfYmluZGluZycsICctaW1hZScsICc8aW5maWxlLm1hZT4nLCAnLW9tYWUnLCAnPG91dGZpbGUubWFlPic=

> <r_lp_tautomer_probability>
1

> <r_epik_Ionization_Penalty>
2.17574

> <r_epik_Ionization_Penalty_Charging>
0

> <r_epik_Ionization_Penalty_Neutral>
2.17574

> <r_epik_State_Penalty>
2.31336

> <r_epik_Charging_Adjusted_Penalty>
2.31336

> <i_epik_Tot_Q>
0

> <i_epik_Tot_abs_Q>
0

> <r_epik_Metal_State_Penalty>
2.31025

> <b_epik_Metal_Only>
0

> <s_lp_Force_Field>
OPLS_2005

> <r_lp_Energy>
68.7045

> <b_lp_Chiralities_Consistent>
1

> <s_lp_Variant>
AV-unprocessed.smi:21-36

> <Gold.Version>
5.8.1

> <Gold.Id.Protein>
6NUR|6NUR_protein|mol2

> <Gold.PLP.Fitness>
56.7840

> <Gold.PLP.PLP>
-51.2112

> <Gold.PLP.part.hbond>
-3.0000

> <Gold.PLP.part.metal>
0.0000

> <Gold.PLP.part.buried>
-8.8081

> <Gold.PLP.part.nonpolar>
-40.0269

> <Gold.PLP.part.repulsive>
0.3341

> <Gold.PLP.ligand.clash>
0.0000

> <Gold.PLP.ligand.torsion>
1.8524

> <Gold.PLP.Chemscore.Hbond>
2.8560

> <Gold.PLP.Chemscore.CHOScore>
0.0000

> <Gold.PLP.Chemscore.Metal>
0.0000

> <Gold.Chemscore.Hbonds>
donor molecule, donor type, donor heavy atom, donor atom, acceptor molecule, acceptor atom, score
      P1  H  6896  6908       L1    21  0.15
      P1  H  7989  7998       L1    10  0.94
      P1  H 10752 10765       L1    12  1.00

> <Gold.PLP.Chemscore.Internal.Correction>
0.7096

> <Gold.Rescore>
     Score         DG    S(hbond)    S(metal)    S(lipo)     H(rot)  DE(clash)    DE(int)     intcor
     14.83     -18.41       2.50        0.00     104.74       3.00       0.27       3.32       ----

> <Gold.Chemscore.Fitness>
14.8267

> <Gold.Chemscore.DG>
-18.4094

> <Gold.Chemscore.ZeroCoef>
-5.4800

> <Gold.Chemscore.Hbond>
2.5038

> <Gold.Chemscore.Metal>
0.0000

> <Gold.Chemscore.Lipo>
104.7416

> <Gold.Chemscore.Internal_Hbond>
0.0000

> <Gold.Chemscore.DEClash>
0.2650

> <Gold.Chemscore.DEInternal>
3.3177

> <Gold.Chemscore.Rot>
3.0031

> <Gold.Chemscore.Internal.Correction>
   9.000000E+99

> <Gold.Chemscore.Hbonds>
donor molecule, donor type, donor heavy atom, donor atom, acceptor molecule, acceptor atom, score
      P1  H  6896  6908       L1    21  0.14
      P1  H  7989  7998       L1    10  0.26
      P1  H 10752 10765       L1    12  0.77

> <Gold.Chemscore.Hbond.Weighted>
-8.3627

> <Gold.Chemscore.Metal.Weighted>
-0.0000

> <Gold.Chemscore.Lipo.Weighted>
-12.2548

> <Gold.Chemscore.Internal_Hbond.Weighted>
0.0000

> <Gold.Chemscore.DEClash.Weighted>
0.2650

> <Gold.Chemscore.DEInternal.Weighted>
3.3177

> <Gold.Chemscore.Rot.Weighted>
7.6880

> <Gold.Chemscore.Internal.Correction.Weighted>
   9.000000E+99

> <Gold.Protein.RotatedTorsions>
[ 6907 6896 6895 6894 ] final   74.02 input  -60.11 | X-H torsion
[ 7974 7965 7964 7962 ] final   93.01 input  175.53 | X-H torsion
[ 8008 7997 7996 7995 ] final -116.73 input   59.86 | X-H torsion
[ 10167 10162 10161 10158 ] final   63.77 input  -65.29 | X-H torsion
[ 10718 10713 10712 10709 ] final  -98.84 input   66.30 | X-H torsion
[ 10763 10752 10751 10750 ] final  147.87 input  -60.55 | X-H torsion
[ 11005 11000 10999 10996 ] final   23.33 input  -57.11 | X-H torsion

> <Gold.Protein.ActiveResidues>
 VAL166  LYS551  ARG553  GLY616  TRP617  ASP618  TYR619  PRO620  LYS621  CYS622 
 ASP623  PHE694  ASN695  SER759  ASP760  ASP761  ALA762  ILE779  LEU786  VAL792 
 PHE793  MET794  SER795  GLU796  ALA797  LYS798  CYS799  TRP800  GLU811  SER814 

> <Gold.Protein.RotatedAtoms>
  152.4954  134.4334  159.9519 H   0  0  0  0  0  0  0  0  0  0  0  0  # atno 6907 bound_to 6896
  151.4313  133.3663  159.2777 H   0  0  0  0  0  0  0  0  0  0  0  0  # atno 6908 bound_to 6896
  150.9152  134.8593  159.7512 H   0  0  0  0  0  0  0  0  0  0  0  0  # atno 6909 bound_to 6896
  145.4846  139.2277  143.2863 H   0  0  0  0  0  0  0  0  0  0  0  0  # atno 7974 bound_to 7965
  155.0724  140.0393  157.2613 H   0  0  0  0  0  0  0  0  0  0  0  0  # atno 8008 bound_to 7997
  154.6972  140.2665  155.6730 H   0  0  0  0  0  0  0  0  0  0  0  0  # atno 8009 bound_to 7997
  156.2748  140.2748  156.1570 H   0  0  0  0  0  0  0  0  0  0  0  0  # atno 8010 bound_to 7997
  140.1294  144.4657  150.6874 H   0  0  0  0  0  0  0  0  0  0  0  0  # atno 10167 bound_to 10162
  156.0118  130.5256  150.6581 H   0  0  0  0  0  0  0  0  0  0  0  0  # atno 10718 bound_to 10713
  154.0455  135.2886  155.3348 H   0  0  0  0  0  0  0  0  0  0  0  0  # atno 10763 bound_to 10752
  154.6902  135.5229  153.8385 H   0  0  0  0  0  0  0  0  0  0  0  0  # atno 10764 bound_to 10752
  153.0582  135.6603  154.0655 H   0  0  0  0  0  0  0  0  0  0  0  0  # atno 10765 bound_to 10752
  140.3708  134.2025  155.7667 H   0  0  0  0  0  0  0  0  0  0  0  0  # atno 11005 bound_to 11000
  146.2320  140.5636  142.8971 LP  0  0  0  0  0  0  0  0  0  0  0  0  # atno 17320 bound_to 7965
  144.7869  140.5954  143.6568 LP  0  0  0  0  0  0  0  0  0  0  0  0  # atno 17321 bound_to 7965
  140.6826  143.2334  151.5345 LP  0  0  0  0  0  0  0  0  0  0  0  0  # atno 17342 bound_to 10162
  139.5527  144.2353  152.1559 LP  0  0  0  0  0  0  0  0  0  0  0  0  # atno 17343 bound_to 10162
  157.4329  131.0851  151.1020 LP  0  0  0  0  0  0  0  0  0  0  0  0  # atno 17370 bound_to 10713
  157.1588  130.6216  149.5604 LP  0  0  0  0  0  0  0  0  0  0  0  0  # atno 17371 bound_to 10713
  141.1955  133.8104  157.0712 LP  0  0  0  0  0  0  0  0  0  0  0  0  # atno 17394 bound_to 11000
  140.0553  134.9784  157.1210 LP  0  0  0  0  0  0  0  0  0  0  0  0  # atno 17395 bound_to 11000

$$$$
