AV-unprocessed.smi:287|AV-procd|sdf|2202|dock9
  -GOLD-   2262022 23D 1   1.00000     0.00000
 Structure written by MMmdl.
 55 58  0  0  0  0  0  0  0  0  1 V2000
  153.7527  141.7895  161.6481 C   0  0  0  0  0  0  0  0  0  0  0  0
  153.0985  142.0562  160.3356 C   0  0  0  0  0  0  0  0  0  0  0  0
  152.2956  141.3199  159.5141 C   0  0  0  0  0  0  0  0  0  0  0  0
  151.9820  142.1325  158.3836 C   0  0  0  0  0  0  0  0  0  0  0  0
  151.1156  141.7230  157.2003 C   0  0  2  0  0  0  0  0  0  0  0  0
  151.7914  140.5730  156.4356 C   0  0  0  0  0  0  0  0  0  0  0  0
  150.9522  142.7602  156.2523 O   0  0  0  0  0  0  0  0  0  0  0  0
  149.6892  141.3098  157.6279 C   0  0  0  0  0  0  0  0  0  0  0  0
  149.6546  140.0394  158.3409 N   0  0  0  0  0  0  0  0  0  0  0  0
  148.6257  139.1806  158.1827 C   0  0  0  0  0  0  0  0  0  0  0  0
  148.2385  138.5250  159.3027 N   0  0  0  0  0  0  0  0  0  0  0  0
  147.2306  137.6504  159.2542 C   0  0  0  0  0  0  0  0  0  0  0  0
  146.4899  137.2905  158.2055 N   0  0  0  0  0  0  0  0  0  0  0  0
  146.8713  137.9453  157.0708 C   0  0  0  0  0  0  0  0  0  0  0  0
  147.9225  138.9026  156.9722 C   0  0  0  0  0  0  0  0  0  0  0  0
  148.0092  139.3518  155.6582 N   0  0  0  0  0  0  0  0  0  0  0  0
  147.0716  138.6994  155.0279 C   0  0  0  0  0  0  0  0  0  0  0  0
  146.3420  137.8262  155.8011 N   0  0  0  0  0  0  0  0  0  0  0  0
  145.2185  136.9401  155.3601 C   0  0  2  0  0  0  0  0  0  0  0  0
  145.6900  136.0997  154.3550 O   0  0  0  0  0  0  0  0  0  0  0  0
  144.6519  135.8772  153.4087 C   0  0  2  0  0  0  0  0  0  0  0  0
  145.2219  135.3561  152.0777 C   0  0  0  0  0  0  0  0  0  0  0  0
  145.9813  134.1873  152.3009 O   0  0  0  0  0  0  0  0  0  0  0  0
  143.9421  137.2377  153.3419 C   0  0  2  0  0  0  0  0  0  0  0  0
  144.5951  138.1104  152.4354 O   0  0  0  0  0  0  0  0  0  0  0  0
  144.0160  137.7225  154.7894 C   0  0  2  0  0  0  0  0  0  0  0  0
  144.0812  139.1340  154.9183 O   0  0  0  0  0  0  0  0  0  0  0  0
  152.6432  143.3164  158.6088 C   0  0  0  0  0  0  0  0  0  0  0  0
  152.7734  144.5936  157.8458 C   0  0  0  0  0  0  0  0  0  0  0  0
  153.3184  143.2795  159.7916 O   0  0  0  0  0  0  0  0  0  0  0  0
  144.9600  136.3598  156.2470 H   0  0  0  0  0  0  0  0  0  0  0  0
  143.9527  135.1508  153.8282 H   0  0  0  0  0  0  0  0  0  0  0  0
  142.9089  137.1300  153.0099 H   0  0  0  0  0  0  0  0  0  0  0  0
  143.1317  137.3746  155.3250 H   0  0  0  0  0  0  0  0  0  0  0  0
  153.3201  140.9109  162.1272 H   0  0  0  0  0  0  0  0  0  0  0  0
  153.6295  142.6366  162.3230 H   0  0  0  0  0  0  0  0  0  0  0  0
  154.8203  141.6121  161.5178 H   0  0  0  0  0  0  0  0  0  0  0  0
  151.9657  140.3091  159.7038 H   0  0  0  0  0  0  0  0  0  0  0  0
  151.9293  139.7007  157.0755 H   0  0  0  0  0  0  0  0  0  0  0  0
  152.7748  140.8666  156.0656 H   0  0  0  0  0  0  0  0  0  0  0  0
  151.1960  140.2578  155.5777 H   0  0  0  0  0  0  0  0  0  0  0  0
  150.0867  143.1255  156.3543 H   0  0  0  0  0  0  0  0  0  0  0  0
  149.2232  142.0935  158.2268 H   0  0  0  0  0  0  0  0  0  0  0  0
  149.0810  141.1910  156.7302 H   0  0  0  0  0  0  0  0  0  0  0  0
  150.4446  139.8541  158.9425 H   0  0  0  0  0  0  0  0  0  0  0  0
  146.9823  137.1695  160.1890 H   0  0  0  0  0  0  0  0  0  0  0  0
  146.8894  138.8346  153.9718 H   0  0  0  0  0  0  0  0  0  0  0  0
  144.4107  135.0926  151.3984 H   0  0  0  0  0  0  0  0  0  0  0  0
  145.8306  136.1134  151.5821 H   0  0  0  0  0  0  0  0  0  0  0  0
  146.8466  134.4413  152.5834 H   0  0  0  0  0  0  0  0  0  0  0  0
  144.0933  138.1351  151.6336 H   0  0  0  0  0  0  0  0  0  0  0  0
  143.8715  139.5224  154.0830 H   0  0  0  0  0  0  0  0  0  0  0  0
  153.0860  144.4006  156.8194 H   0  0  0  0  0  0  0  0  0  0  0  0
  153.5128  145.2528  158.3012 H   0  0  0  0  0  0  0  0  0  0  0  0
  151.8216  145.1243  157.8172 H   0  0  0  0  0  0  0  0  0  0  0  0
  1  2  1  0  0  0  0
  1 35  1  0  0  0  0
  1 36  1  0  0  0  0
  1 37  1  0  0  0  0
  2 30  1  0  0  0  0
  2  3  2  0  0  0  0
  3  4  1  0  0  0  0
  3 38  1  0  0  0  0
  4  5  1  0  0  0  0
  4 28  2  0  0  0  0
  5  6  1  0  0  0  0
  5  7  1  0  0  0  0
  5  8  1  0  0  0  0
  6 39  1  0  0  0  0
  6 40  1  0  0  0  0
  6 41  1  0  0  0  0
  7 42  1  0  0  0  0
  8  9  1  0  0  0  0
  8 43  1  0  0  0  0
  8 44  1  0  0  0  0
  9 10  1  0  0  0  0
  9 45  1  0  0  0  0
 10 15  1  0  0  0  0
 10 11  2  0  0  0  0
 11 12  1  0  0  0  0
 12 13  2  0  0  0  0
 12 46  1  0  0  0  0
 13 14  1  0  0  0  0
 14 18  1  0  0  0  0
 14 15  2  0  0  0  0
 15 16  1  0  0  0  0
 16 17  2  0  0  0  0
 17 18  1  0  0  0  0
 17 47  1  0  0  0  0
 18 19  1  0  0  0  0
 19 31  1  0  0  0  0
 19 26  1  0  0  0  0
 19 20  1  0  0  0  0
 20 21  1  0  0  0  0
 21 32  1  0  0  0  0
 21 22  1  0  0  0  0
 21 24  1  0  0  0  0
 22 23  1  0  0  0  0
 22 48  1  0  0  0  0
 22 49  1  0  0  0  0
 23 50  1  0  0  0  0
 24 33  1  0  0  0  0
 24 25  1  0  0  0  0
 24 26  1  0  0  0  0
 25 51  1  0  0  0  0
 26 34  1  0  0  0  0
 26 27  1  0  0  0  0
 27 52  1  0  0  0  0
 28 29  1  0  0  0  0
 28 30  1  0  0  0  0
 29 53  1  0  0  0  0
 29 54  1  0  0  0  0
 29 55  1  0  0  0  0
M  END
> <s_m_source_file>
AV-unprocessed.smi

> <i_m_source_file_index>
287

> <i_lp_mmshare_version>
43012

> <i_f3d_flags>
0

> <s_epik_input>
W0NIM11jMVtjSF1jKGMobzEpW0NIM10pW0NAQF0oW0NIM10pKFtPSF0pW0NIMl1bTkhdYyhuW2NIXW4yKWMoYzIzKW5bY0hdbjNbQ0BASF00T1tDQEhdKFtDSDJdW09IXSlbQ0BASF0oW09IXSlbQ0BIXTRbT0hd

> <s_epik_cmdline>
J2VwaWtfcHl0aG9uJywgJy1waCcsICc3LjAnLCAnLXRuJywgJzgnLCAnLW1hJywgJzIwMCcsICctbWV0YWxfYmluZGluZycsICctaW1hZScsICc8aW5maWxlLm1hZT4nLCAnLW9tYWUnLCAnPG91dGZpbGUubWFlPic=

> <r_lp_tautomer_probability>
1

> <r_epik_Ionization_Penalty>
0.000992612

> <r_epik_Ionization_Penalty_Charging>
0

> <r_epik_Ionization_Penalty_Neutral>
0.000992612

> <r_epik_State_Penalty>
-0

> <r_epik_Charging_Adjusted_Penalty>
0

> <i_epik_Tot_Q>
0

> <i_epik_Tot_abs_Q>
0

> <r_epik_Metal_State_Penalty>
-0

> <b_epik_Metal_Only>
0

> <s_epik_Chemistry_Notes>
This compound contains an acetal/aminal-like group ( X-CH(R)-Y where X, Y are N, S, or O) that may be acid/base labile, releasing an aldehyde.

> <s_lp_Force_Field>
OPLS_2005

> <r_lp_Energy>
48.118

> <b_lp_Chiralities_Consistent>
1

> <s_lp_Variant>
AV-unprocessed.smi:287-26

> <Gold.Version>
5.8.1

> <Gold.Id.Protein>
6NUR|6NUR_protein|mol2

> <Gold.PLP.Fitness>
50.4798

> <Gold.PLP.PLP>
-40.9318

> <Gold.PLP.part.hbond>
-5.8267

> <Gold.PLP.part.metal>
0.0000

> <Gold.PLP.part.buried>
-7.1946

> <Gold.PLP.part.nonpolar>
-28.3201

> <Gold.PLP.part.repulsive>
0.2982

> <Gold.PLP.ligand.clash>
0.0000

> <Gold.PLP.ligand.torsion>
0.6056

> <Gold.PLP.Chemscore.Hbond>
3.5551

> <Gold.PLP.Chemscore.CHOScore>
0.0000

> <Gold.PLP.Chemscore.Metal>
0.0000

> <Gold.Chemscore.Hbonds>
donor molecule, donor type, donor heavy atom, donor atom, acceptor molecule, acceptor atom, score
      L1  H     7    42       P1  8028  0.65
      L1  H    25    51       P1 10171  1.00
      L1  H    27    52       P1 10175  1.00

> <Gold.PLP.Chemscore.Internal.Correction>
0.0939

> <Gold.Rescore>
     Score         DG    S(hbond)    S(metal)    S(lipo)     H(rot)  DE(clash)    DE(int)     intcor
     12.09     -15.90       3.60        0.00     101.40       5.27       1.18       2.63       ----

> <Gold.Chemscore.Fitness>
12.0925

> <Gold.Chemscore.DG>
-15.8968

> <Gold.Chemscore.ZeroCoef>
-5.4800

> <Gold.Chemscore.Hbond>
3.6040

> <Gold.Chemscore.Metal>
0.0000

> <Gold.Chemscore.Lipo>
101.3965

> <Gold.Chemscore.Internal_Hbond>
0.0000

> <Gold.Chemscore.DEClash>
1.1787

> <Gold.Chemscore.DEInternal>
2.6256

> <Gold.Chemscore.Rot>
5.2672

> <Gold.Chemscore.Internal.Correction>
   9.000000E+99

> <Gold.Chemscore.Hbonds>
donor molecule, donor type, donor heavy atom, donor atom, acceptor molecule, acceptor atom, score
      L1  H     7    42       P1  8028  0.64
      L1  H    25    51       P1 10171  0.97
      L1  H    27    52       P1 10175  1.00

> <Gold.Chemscore.Hbond.Weighted>
-12.0374

> <Gold.Chemscore.Metal.Weighted>
-0.0000

> <Gold.Chemscore.Lipo.Weighted>
-11.8634

> <Gold.Chemscore.Internal_Hbond.Weighted>
0.0000

> <Gold.Chemscore.DEClash.Weighted>
1.1787

> <Gold.Chemscore.DEInternal.Weighted>
2.6256

> <Gold.Chemscore.Rot.Weighted>
13.4839

> <Gold.Chemscore.Internal.Correction.Weighted>
   9.000000E+99

> <Gold.Protein.RotatedTorsions>
[ 6907 6896 6895 6894 ] final  111.74 input  -60.11 | X-H torsion
[ 7974 7965 7964 7962 ] final   40.05 input  175.53 | X-H torsion
[ 8008 7997 7996 7995 ] final  134.77 input   59.86 | X-H torsion
[ 10167 10162 10161 10158 ] final  -81.08 input  -65.29 | X-H torsion
[ 10718 10713 10712 10709 ] final  -26.59 input   66.30 | X-H torsion
[ 10763 10752 10751 10750 ] final   66.30 input  -60.55 | X-H torsion
[ 11005 11000 10999 10996 ] final    6.89 input  -57.11 | X-H torsion

> <Gold.Protein.ActiveResidues>
 VAL166  LYS551  ARG553  GLY616  TRP617  ASP618  TYR619  PRO620  LYS621  CYS622 
 ASP623  PHE694  ASN695  SER759  ASP760  ASP761  ALA762  ILE779  LEU786  VAL792 
 PHE793  MET794  SER795  GLU796  ALA797  LYS798  CYS799  TRP800  GLU811  SER814 

> <Gold.Protein.RotatedAtoms>
  152.4954  133.8615  159.7252 H   0  0  0  0  0  0  0  0  0  0  0  0  # atno 6907 bound_to 6896
  150.9126  133.6970  159.2858 H   0  0  0  0  0  0  0  0  0  0  0  0  # atno 6908 bound_to 6896
  151.4374  135.1021  159.9712 H   0  0  0  0  0  0  0  0  0  0  0  0  # atno 6909 bound_to 6896
  146.0936  139.5579  142.9460 H   0  0  0  0  0  0  0  0  0  0  0  0  # atno 7974 bound_to 7965
  156.3000  140.2488  156.3471 H   0  0  0  0  0  0  0  0  0  0  0  0  # atno 8008 bound_to 7997
  154.9000  140.0406  157.1907 H   0  0  0  0  0  0  0  0  0  0  0  0  # atno 8009 bound_to 7997
  154.8510  140.2906  155.5602 H   0  0  0  0  0  0  0  0  0  0  0  0  # atno 8010 bound_to 7997
  140.4444  143.2503  151.8579 H   0  0  0  0  0  0  0  0  0  0  0  0  # atno 10167 bound_to 10162
  156.4492  130.4480  149.7001 H   0  0  0  0  0  0  0  0  0  0  0  0  # atno 10718 bound_to 10713
  153.0134  135.5325  154.6802 H   0  0  0  0  0  0  0  0  0  0  0  0  # atno 10763 bound_to 10752
  154.5964  135.2864  155.0584 H   0  0  0  0  0  0  0  0  0  0  0  0  # atno 10764 bound_to 10752
  154.1657  135.6540  153.5049 H   0  0  0  0  0  0  0  0  0  0  0  0  # atno 10765 bound_to 10752
  140.5544  134.0252  155.7948 H   0  0  0  0  0  0  0  0  0  0  0  0  # atno 11005 bound_to 11000
  145.5992  141.0358  143.2027 LP  0  0  0  0  0  0  0  0  0  0  0  0  # atno 17320 bound_to 7965
  144.7378  139.7535  143.7322 LP  0  0  0  0  0  0  0  0  0  0  0  0  # atno 17321 bound_to 7965
  139.4792  144.5192  151.8825 LP  0  0  0  0  0  0  0  0  0  0  0  0  # atno 17342 bound_to 10162
  140.4280  144.2154  150.5887 LP  0  0  0  0  0  0  0  0  0  0  0  0  # atno 17343 bound_to 10162
  156.3835  130.7591  151.2586 LP  0  0  0  0  0  0  0  0  0  0  0  0  # atno 17370 bound_to 10713
  157.7503  131.0289  150.4068 LP  0  0  0  0  0  0  0  0  0  0  0  0  # atno 17371 bound_to 10713
  141.1152  133.9551  157.2835 LP  0  0  0  0  0  0  0  0  0  0  0  0  # atno 17394 bound_to 11000
  139.9439  135.0187  156.8792 LP  0  0  0  0  0  0  0  0  0  0  0  0  # atno 17395 bound_to 11000

$$$$
