AV-unprocessed.smi:2537|AV-procd|sdf|9980|dock4
  -GOLD-   2272014 23D 1   1.00000     0.00000
 Structure written by MMmdl.
 17 17  0  0  0  0  0  0  0  0  2 V2000
  147.5892  139.0539  151.5004 N   0  0  0  0  0  0  0  0  0  0  0  0
  147.0299  138.8661  152.6980 C   0  0  0  0  0  0  0  0  0  0  0  0
  146.2666  137.9267  152.9182 O   0  0  0  0  0  0  0  0  0  0  0  0
  147.3913  139.8862  153.7858 C   0  0  0  0  0  0  0  0  0  0  0  0
  148.7696  139.7736  154.2341 N   0  0  0  0  0  0  0  0  0  0  0  0
  149.6058  138.6777  154.1748 C   0  0  0  0  0  0  0  0  0  0  0  0
  150.7699  139.1344  154.7271 C   0  0  0  0  0  0  0  0  0  0  0  0
  152.0229  138.3558  154.9133 C   0  0  0  0  0  0  0  0  0  0  0  0
  152.8632  138.7504  155.7521 O   0  0  0  0  0  0  0  0  0  0  0  0
  152.2098  137.3261  154.2280 O   0  5  0  0  0  0  0  0  0  0  0  0
  150.5938  140.4698  155.0958 N   0  0  0  0  0  0  0  0  0  0  0  0
  149.3894  140.8411  154.7935 N   0  0  0  0  0  0  0  0  0  0  0  0
  147.3846  138.4124  150.7479 H   0  0  0  0  0  0  0  0  0  0  0  0
  148.2120  139.8340  151.3496 H   0  0  0  0  0  0  0  0  0  0  0  0
  147.2189  140.8967  153.4120 H   0  0  0  0  0  0  0  0  0  0  0  0
  146.7366  139.7453  154.6466 H   0  0  0  0  0  0  0  0  0  0  0  0
  149.3204  137.7205  153.7647 H   0  0  0  0  0  0  0  0  0  0  0  0
  1  2  1  0  0  0  0
  1 13  1  0  0  0  0
  1 14  1  0  0  0  0
  2  3  2  0  0  0  0
  2  4  1  0  0  0  0
  4  5  1  0  0  0  0
  4 15  1  0  0  0  0
  4 16  1  0  0  0  0
  5 12  1  0  0  0  0
  5  6  1  0  0  0  0
  6  7  2  0  0  0  0
  6 17  1  0  0  0  0
  7  8  1  0  0  0  0
  7 11  1  0  0  0  0
  8  9  2  0  0  0  0
  8 10  1  0  0  0  0
 11 12  2  0  0  0  0
M  CHG  1  10  -1
M  END
> <s_m_source_file>
AV-unprocessed.smi

> <i_m_source_file_index>
2537

> <i_lp_mmshare_version>
43012

> <i_f3d_flags>
0

> <s_epik_input>
W05IMl1DKD1PKVtDSDJdbjFbY0hdYyhubjEpQyg9TylbT0hd

> <s_epik_cmdline>
J2VwaWtfcHl0aG9uJywgJy1waCcsICc3LjAnLCAnLXRuJywgJzgnLCAnLW1hJywgJzIwMCcsICctbWV0YWxfYmluZGluZycsICctaW1hZScsICc8aW5maWxlLm1hZT4nLCAnLW9tYWUnLCAnPG91dGZpbGUubWFlPic=

> <r_epik_Ionization_Penalty>
0.000900147

> <r_epik_Ionization_Penalty_Charging>
0.00089877

> <r_epik_Ionization_Penalty_Neutral>
1.37672e-06

> <r_epik_State_Penalty>
0.000581682

> <r_epik_Charging_Adjusted_Penalty>
0.00148045

> <i_epik_Tot_Q>
-1

> <i_epik_Tot_abs_Q>
1

> <r_epik_Metal_State_Penalty>
-0

> <b_epik_Metal_Only>
0

> <s_lp_Force_Field>
OPLS_2005

> <r_lp_Energy>
4.32314

> <b_lp_Chiralities_Consistent>
1

> <s_lp_Variant>
AV-unprocessed.smi:2537-1

> <Gold.Version>
5.8.1

> <Gold.Id.Protein>
6NUR|6NUR_protein|mol2

> <Gold.PLP.Fitness>
39.8659

> <Gold.PLP.PLP>
-21.9849

> <Gold.PLP.part.hbond>
-5.7788

> <Gold.PLP.part.metal>
0.0000

> <Gold.PLP.part.buried>
-3.2319

> <Gold.PLP.part.nonpolar>
-14.4365

> <Gold.PLP.part.repulsive>
1.2559

> <Gold.PLP.ligand.clash>
0.0000

> <Gold.PLP.ligand.torsion>
0.6071

> <Gold.PLP.Chemscore.Hbond>
5.4960

> <Gold.PLP.Chemscore.CHOScore>
0.8683

> <Gold.PLP.Chemscore.Metal>
0.0000

> <Gold.Chemscore.Hbonds>
donor molecule, donor type, donor heavy atom, donor atom, acceptor molecule, acceptor atom, score
      L1  H     1    14       P1  7957  0.46
      P1  H  7989  7998       L1    11  0.30
      P1  H  7997  8009       L1     9  1.66
      P1  H 10752 10765       L1    10  1.66
      L1  C     6    17       P1  7948  1.00

> <Gold.PLP.Chemscore.Internal.Correction>
0.0022

> <Gold.Rescore>
     Score         DG    S(hbond)    S(metal)    S(lipo)     H(rot)  DE(clash)    DE(int)     intcor
     11.76     -12.73       2.73        0.00      21.20       1.70       0.14       0.83       ----

> <Gold.Chemscore.Fitness>
11.7583

> <Gold.Chemscore.DG>
-12.7274

> <Gold.Chemscore.ZeroCoef>
-5.4800

> <Gold.Chemscore.Hbond>
2.7286

> <Gold.Chemscore.Metal>
0.0000

> <Gold.Chemscore.Lipo>
21.2011

> <Gold.Chemscore.Internal_Hbond>
0.0000

> <Gold.Chemscore.DEClash>
0.1362

> <Gold.Chemscore.DEInternal>
0.8328

> <Gold.Chemscore.Rot>
1.6979

> <Gold.Chemscore.Internal.Correction>
   9.000000E+99

> <Gold.Chemscore.Hbonds>
donor molecule, donor type, donor heavy atom, donor atom, acceptor molecule, acceptor atom, score
      L1  H     1    14       P1  7957  0.47
      P1  H  7997  8009       L1     9  0.81
      P1  H 10752 10765       L1    10  0.83

> <Gold.Chemscore.Hbond.Weighted>
-9.1135

> <Gold.Chemscore.Metal.Weighted>
-0.0000

> <Gold.Chemscore.Lipo.Weighted>
-2.4805

> <Gold.Chemscore.Internal_Hbond.Weighted>
0.0000

> <Gold.Chemscore.DEClash.Weighted>
0.1362

> <Gold.Chemscore.DEInternal.Weighted>
0.8328

> <Gold.Chemscore.Rot.Weighted>
4.3467

> <Gold.Chemscore.Internal.Correction.Weighted>
   9.000000E+99

> <Gold.Protein.RotatedTorsions>
[ 6907 6896 6895 6894 ] final   92.24 input  -60.11 | X-H torsion
[ 7974 7965 7964 7962 ] final  -63.11 input  175.53 | X-H torsion
[ 8008 7997 7996 7995 ] final -165.36 input   59.86 | X-H torsion
[ 10167 10162 10161 10158 ] final  -69.64 input  -65.29 | X-H torsion
[ 10718 10713 10712 10709 ] final  111.89 input   66.30 | X-H torsion
[ 10763 10752 10751 10750 ] final  146.93 input  -60.55 | X-H torsion
[ 11005 11000 10999 10996 ] final  118.14 input  -57.11 | X-H torsion

> <Gold.Protein.ActiveResidues>
 VAL166  LYS551  ARG553  GLY616  TRP617  ASP618  TYR619  PRO620  LYS621  CYS622 
 ASP623  PHE694  ASN695  SER759  ASP760  ASP761  ALA762  ILE779  LEU786  VAL792 
 PHE793  MET794  SER795  GLU796  ALA797  LYS798  CYS799  TRP800  GLU811  SER814 

> <Gold.Protein.RotatedAtoms>
  152.5452  134.1533  159.8527 H   0  0  0  0  0  0  0  0  0  0  0  0  # atno 6907 bound_to 6896
  151.1558  133.4870  159.2602 H   0  0  0  0  0  0  0  0  0  0  0  0  # atno 6908 bound_to 6896
  151.1424  135.0197  159.8686 H   0  0  0  0  0  0  0  0  0  0  0  0  # atno 6909 bound_to 6896
  145.7831  140.8751  143.0320 H   0  0  0  0  0  0  0  0  0  0  0  0  # atno 7974 bound_to 7965
  155.8487  140.0959  157.1688 H   0  0  0  0  0  0  0  0  0  0  0  0  # atno 8008 bound_to 7997
  154.3984  140.1387  156.3879 H   0  0  0  0  0  0  0  0  0  0  0  0  # atno 8009 bound_to 7997
  155.7985  140.3453  155.5391 H   0  0  0  0  0  0  0  0  0  0  0  0  # atno 8010 bound_to 7997
  140.5415  143.2315  151.7080 H   0  0  0  0  0  0  0  0  0  0  0  0  # atno 10167 bound_to 10162
  157.6421  131.0958  150.6814 H   0  0  0  0  0  0  0  0  0  0  0  0  # atno 10718 bound_to 10713
  154.0299  135.2898  155.3370 H   0  0  0  0  0  0  0  0  0  0  0  0  # atno 10763 bound_to 10752
  154.6994  135.5194  153.8508 H   0  0  0  0  0  0  0  0  0  0  0  0  # atno 10764 bound_to 10752
  153.0644  135.6625  154.0513 H   0  0  0  0  0  0  0  0  0  0  0  0  # atno 10765 bound_to 10752
  139.9099  134.9617  156.7458 H   0  0  0  0  0  0  0  0  0  0  0  0  # atno 11005 bound_to 11000
  144.6793  140.0017  143.7484 LP  0  0  0  0  0  0  0  0  0  0  0  0  # atno 17320 bound_to 7965
  146.0053  139.3125  143.0903 LP  0  0  0  0  0  0  0  0  0  0  0  0  # atno 17321 bound_to 7965
  139.4990  144.3961  152.0230 LP  0  0  0  0  0  0  0  0  0  0  0  0  # atno 17342 bound_to 10162
  140.3070  144.3581  150.6044 LP  0  0  0  0  0  0  0  0  0  0  0  0  # atno 17343 bound_to 10162
  156.7137  130.4659  149.5540 LP  0  0  0  0  0  0  0  0  0  0  0  0  # atno 17370 bound_to 10713
  156.1712  130.6438  151.0840 LP  0  0  0  0  0  0  0  0  0  0  0  0  # atno 17371 bound_to 10713
  140.6813  133.9472  155.7912 LP  0  0  0  0  0  0  0  0  0  0  0  0  # atno 17394 bound_to 11000
  141.0508  134.0487  157.3786 LP  0  0  0  0  0  0  0  0  0  0  0  0  # atno 17395 bound_to 11000

$$$$
