AV-unprocessed.smi:513|AV-procd|sdf|2773|dock2
  -GOLD-   2262023243D 1   1.00000     0.00000
 Structure written by MMmdl.
 42 44  0  0  0  0  0  0  0  0  1 V2000
  150.4984  135.8957  155.0980 C   0  0  0  0  0  0  0  0  0  0  0  0
  151.6459  136.6236  155.4952 O   0  0  0  0  0  0  0  0  0  0  0  0
  151.3298  137.7431  156.3070 C   0  0  0  0  0  0  0  0  0  0  0  0
  151.2362  139.0001  155.4315 C   0  0  0  0  0  0  0  0  0  0  0  0
  150.7869  140.1616  156.1969 N   0  0  0  0  0  0  0  0  0  0  0  0
  149.7343  140.9952  155.9624 C   0  0  0  0  0  0  0  0  0  0  0  0
  148.8481  140.8050  154.9014 N   0  0  0  0  0  0  0  0  0  0  0  0
  148.4796  139.5007  154.3580 C   0  0  0  0  0  0  0  0  0  0  0  0
  146.9515  139.3895  154.1805 C   0  0  0  0  0  0  0  0  0  0  0  0
  146.4834  140.4173  153.2563 N   0  0  0  0  0  0  0  0  0  0  0  0
  146.8338  141.7257  153.7981 C   0  0  0  0  0  0  0  0  0  0  0  0
  148.3637  141.8170  153.9650 C   0  0  0  0  0  0  0  0  0  0  0  0
  149.6481  142.0307  156.8032 N   0  0  0  0  0  0  0  0  0  0  0  0
  150.7142  141.8251  157.6638 C   0  0  0  0  0  0  0  0  0  0  0  0
  151.4109  140.7147  157.3164 C   0  0  0  0  0  0  0  0  0  0  0  0
  152.6141  140.2844  158.0406 C   0  0  0  0  0  0  0  0  0  0  0  0
  153.2710  139.2912  157.7359 O   0  0  0  0  0  0  0  0  0  0  0  0
  152.9302  141.0989  159.0767 N   0  0  0  0  0  0  0  0  0  0  0  0
  152.2697  142.2271  159.4808 C   0  0  0  0  0  0  0  0  0  0  0  0
  152.6887  142.8653  160.4459 O   0  0  0  0  0  0  0  0  0  0  0  0
  151.1527  142.5986  158.7740 N   0  0  0  0  0  0  0  0  0  0  0  0
  150.3776  143.7916  159.1199 C   0  0  0  0  0  0  0  0  0  0  0  0
  153.7498  140.8467  159.6097 H   0  0  0  0  0  0  0  0  0  0  0  0
  150.7989  135.0491  154.4807 H   0  0  0  0  0  0  0  0  0  0  0  0
  149.8209  136.5175  154.5114 H   0  0  0  0  0  0  0  0  0  0  0  0
  149.9592  135.5071  155.9629 H   0  0  0  0  0  0  0  0  0  0  0  0
  150.3808  137.5774  156.8186 H   0  0  0  0  0  0  0  0  0  0  0  0
  152.0947  137.8763  157.0736 H   0  0  0  0  0  0  0  0  0  0  0  0
  152.2014  139.1926  154.9753 H   0  0  0  0  0  0  0  0  0  0  0  0
  150.5552  138.8358  154.5975 H   0  0  0  0  0  0  0  0  0  0  0  0
  148.9910  139.3399  153.4077 H   0  0  0  0  0  0  0  0  0  0  0  0
  148.8232  138.7170  155.0339 H   0  0  0  0  0  0  0  0  0  0  0  0
  146.6901  138.4093  153.7816 H   0  0  0  0  0  0  0  0  0  0  0  0
  146.4422  139.4917  155.1399 H   0  0  0  0  0  0  0  0  0  0  0  0
  145.4811  140.3498  153.1516 H   0  0  0  0  0  0  0  0  0  0  0  0
  146.4830  142.4969  153.1119 H   0  0  0  0  0  0  0  0  0  0  0  0
  146.3253  141.8842  154.7501 H   0  0  0  0  0  0  0  0  0  0  0  0
  148.6591  142.8125  154.2935 H   0  0  0  0  0  0  0  0  0  0  0  0
  148.8526  141.6718  153.0006 H   0  0  0  0  0  0  0  0  0  0  0  0
  150.7309  144.3080  160.0131 H   0  0  0  0  0  0  0  0  0  0  0  0
  149.3355  143.5212  159.2928 H   0  0  0  0  0  0  0  0  0  0  0  0
  150.4060  144.5046  158.2954 H   0  0  0  0  0  0  0  0  0  0  0  0
  1  2  1  0  0  0  0
  1 24  1  0  0  0  0
  1 25  1  0  0  0  0
  1 26  1  0  0  0  0
  2  3  1  0  0  0  0
  3  4  1  0  0  0  0
  3 27  1  0  0  0  0
  3 28  1  0  0  0  0
  4  5  1  0  0  0  0
  4 29  1  0  0  0  0
  4 30  1  0  0  0  0
  5 15  1  0  0  0  0
  5  6  1  0  0  0  0
  6  7  1  0  0  0  0
  6 13  2  0  0  0  0
  7 12  1  0  0  0  0
  7  8  1  0  0  0  0
  8  9  1  0  0  0  0
  8 31  1  0  0  0  0
  8 32  1  0  0  0  0
  9 10  1  0  0  0  0
  9 33  1  0  0  0  0
  9 34  1  0  0  0  0
 10 11  1  0  0  0  0
 10 35  1  0  0  0  0
 11 12  1  0  0  0  0
 11 36  1  0  0  0  0
 11 37  1  0  0  0  0
 12 38  1  0  0  0  0
 12 39  1  0  0  0  0
 13 14  1  0  0  0  0
 14 21  1  0  0  0  0
 14 15  2  0  0  0  0
 15 16  1  0  0  0  0
 16 17  2  0  0  0  0
 16 18  1  0  0  0  0
 18 23  1  0  0  0  0
 18 19  1  0  0  0  0
 19 20  2  0  0  0  0
 19 21  1  0  0  0  0
 21 22  1  0  0  0  0
 22 40  1  0  0  0  0
 22 41  1  0  0  0  0
 22 42  1  0  0  0  0
M  END
> <s_m_source_file>
AV-unprocessed.smi

> <i_m_source_file_index>
513

> <i_lp_mmshare_version>
43012

> <i_f3d_flags>
0

> <s_epik_input>
W0NIM11uMWMoPU8pW25IXWMoPU8pYyhjMTIpbihbQ0gyXVtDSDJdT1tDSDNdKWMobjIpTjNbQ0gyXVtDSDJdW05IXVtDSDJdW0NIMl0z

> <s_epik_cmdline>
J2VwaWtfcHl0aG9uJywgJy1waCcsICc3LjAnLCAnLXRuJywgJzgnLCAnLW1hJywgJzIwMCcsICctbWV0YWxfYmluZGluZycsICctaW1hZScsICc8aW5maWxlLm1hZT4nLCAnLW9tYWUnLCAnPG91dGZpbGUubWFlPic=

> <r_epik_Ionization_Penalty>
2.51416

> <r_epik_Ionization_Penalty_Charging>
1.6225e-05

> <r_epik_Ionization_Penalty_Neutral>
2.51414

> <r_epik_State_Penalty>
2.67993

> <r_epik_Charging_Adjusted_Penalty>
2.67995

> <i_epik_Tot_Q>
0

> <i_epik_Tot_abs_Q>
0

> <r_epik_Metal_State_Penalty>
2.70812

> <b_epik_Metal_Only>
0

> <s_lp_Force_Field>
OPLS_2005

> <r_lp_Energy>
48.0947

> <b_lp_Chiralities_Consistent>
1

> <s_lp_Variant>
AV-unprocessed.smi:513-2

> <Gold.Version>
5.8.1

> <Gold.Id.Protein>
6NUR|6NUR_protein|mol2

> <Gold.PLP.Fitness>
41.1147

> <Gold.PLP.PLP>
-33.4675

> <Gold.PLP.part.hbond>
-3.0000

> <Gold.PLP.part.metal>
0.0000

> <Gold.PLP.part.buried>
-4.9025

> <Gold.PLP.part.nonpolar>
-26.8870

> <Gold.PLP.part.repulsive>
1.0022

> <Gold.PLP.ligand.clash>
0.0000

> <Gold.PLP.ligand.torsion>
0.8307

> <Gold.PLP.Chemscore.Hbond>
3.0000

> <Gold.PLP.Chemscore.CHOScore>
0.0000

> <Gold.PLP.Chemscore.Metal>
0.0000

> <Gold.Chemscore.Hbonds>
donor molecule, donor type, donor heavy atom, donor atom, acceptor molecule, acceptor atom, score
      L1  H    10    35       P1 10175  1.00
      P1  H  7997  8008       L1    17  1.00
      P1  H 10752 10765       L1     2  1.00

> <Gold.PLP.Chemscore.Internal.Correction>
0.3086

> <Gold.Rescore>
     Score         DG    S(hbond)    S(metal)    S(lipo)     H(rot)  DE(clash)    DE(int)     intcor
     11.22     -13.93       1.92        0.00      51.46       1.55       0.10       2.61       ----

> <Gold.Chemscore.Fitness>
11.2219

> <Gold.Chemscore.DG>
-13.9251

> <Gold.Chemscore.ZeroCoef>
-5.4800

> <Gold.Chemscore.Hbond>
1.9158

> <Gold.Chemscore.Metal>
0.0000

> <Gold.Chemscore.Lipo>
51.4598

> <Gold.Chemscore.Internal_Hbond>
0.0000

> <Gold.Chemscore.DEClash>
0.0981

> <Gold.Chemscore.DEInternal>
2.6050

> <Gold.Chemscore.Rot>
1.5526

> <Gold.Chemscore.Internal.Correction>
   9.000000E+99

> <Gold.Chemscore.Hbonds>
donor molecule, donor type, donor heavy atom, donor atom, acceptor molecule, acceptor atom, score
      L1  H    10    35       P1 10175  0.96
      P1  H  7997  8008       L1    17  0.26
      P1  H 10752 10765       L1     2  0.43

> <Gold.Chemscore.Hbond.Weighted>
-6.3988

> <Gold.Chemscore.Metal.Weighted>
-0.0000

> <Gold.Chemscore.Lipo.Weighted>
-6.0208

> <Gold.Chemscore.Internal_Hbond.Weighted>
0.0000

> <Gold.Chemscore.DEClash.Weighted>
0.0981

> <Gold.Chemscore.DEInternal.Weighted>
2.6050

> <Gold.Chemscore.Rot.Weighted>
3.9745

> <Gold.Chemscore.Internal.Correction.Weighted>
   9.000000E+99

> <Gold.Protein.RotatedTorsions>
[ 6907 6896 6895 6894 ] final -138.84 input  -60.11 | X-H torsion
[ 7974 7965 7964 7962 ] final  127.91 input  175.53 | X-H torsion
[ 8008 7997 7996 7995 ] final  -83.65 input   59.86 | X-H torsion
[ 10167 10162 10161 10158 ] final -131.92 input  -65.29 | X-H torsion
[ 10718 10713 10712 10709 ] final   51.19 input   66.30 | X-H torsion
[ 10763 10752 10751 10750 ] final -152.85 input  -60.55 | X-H torsion
[ 11005 11000 10999 10996 ] final -110.21 input  -57.11 | X-H torsion

> <Gold.Protein.ActiveResidues>
 VAL166  LYS551  ARG553  GLY616  TRP617  ASP618  TYR619  PRO620  LYS621  CYS622 
 ASP623  PHE694  ASN695  SER759  ASP760  ASP761  ALA762  ILE779  LEU786  VAL792 
 PHE793  MET794  SER795  GLU796  ALA797  LYS798  CYS799  TRP800  GLU811  SER814 

> <Gold.Protein.RotatedAtoms>
  151.0401  133.5714  159.2651 H   0  0  0  0  0  0  0  0  0  0  0  0  # atno 6907 bound_to 6896
  151.2763  135.0699  159.9162 H   0  0  0  0  0  0  0  0  0  0  0  0  # atno 6908 bound_to 6896
  152.5362  134.0123  159.7998 H   0  0  0  0  0  0  0  0  0  0  0  0  # atno 6909 bound_to 6896
  145.0453  139.3928  143.5081 H   0  0  0  0  0  0  0  0  0  0  0  0  # atno 7974 bound_to 7965
  154.6213  140.0616  156.9619 H   0  0  0  0  0  0  0  0  0  0  0  0  # atno 8008 bound_to 7997
  155.1812  140.3299  155.4356 H   0  0  0  0  0  0  0  0  0  0  0  0  # atno 8009 bound_to 7997
  156.2433  140.1897  156.6909 H   0  0  0  0  0  0  0  0  0  0  0  0  # atno 8010 bound_to 7997
  139.9139  143.6461  152.2569 H   0  0  0  0  0  0  0  0  0  0  0  0  # atno 10167 bound_to 10162
  157.4957  130.8405  149.8256 H   0  0  0  0  0  0  0  0  0  0  0  0  # atno 10718 bound_to 10713
  154.7967  135.3226  154.7649 H   0  0  0  0  0  0  0  0  0  0  0  0  # atno 10763 bound_to 10752
  153.8326  135.6878  153.4817 H   0  0  0  0  0  0  0  0  0  0  0  0  # atno 10764 bound_to 10752
  153.1662  135.4641  154.9782 H   0  0  0  0  0  0  0  0  0  0  0  0  # atno 10765 bound_to 10752
  141.0804  133.9229  157.2300 H   0  0  0  0  0  0  0  0  0  0  0  0  # atno 11005 bound_to 11000
  146.3513  140.0075  142.8670 LP  0  0  0  0  0  0  0  0  0  0  0  0  # atno 17320 bound_to 7965
  145.1595  140.9665  143.4385 LP  0  0  0  0  0  0  0  0  0  0  0  0  # atno 17321 bound_to 7965
  139.6919  144.7646  151.1424 LP  0  0  0  0  0  0  0  0  0  0  0  0  # atno 17342 bound_to 10162
  140.7679  143.5578  150.9133 LP  0  0  0  0  0  0  0  0  0  0  0  0  # atno 17343 bound_to 10162
  156.0199  130.3799  150.1994 LP  0  0  0  0  0  0  0  0  0  0  0  0  # atno 17370 bound_to 10713
  157.0183  130.9972  151.3347 LP  0  0  0  0  0  0  0  0  0  0  0  0  # atno 17371 bound_to 10713
  139.9618  135.0152  156.9281 LP  0  0  0  0  0  0  0  0  0  0  0  0  # atno 17394 bound_to 11000
  140.5480  134.0655  155.7361 LP  0  0  0  0  0  0  0  0  0  0  0  0  # atno 17395 bound_to 11000

$$$$
