AV-unprocessed.smi:1496|AV-procd|sdf|6057|dock6
  -GOLD-   22720 6173D 1   1.00000     0.00000
 Structure written by MMmdl.
 43 44  0  0  0  0  0  0  0  0  2 V2000
  144.6933  133.7668  150.6896 C   0  0  0  0  0  0  0  0  0  0  0  0
  145.6477  132.5954  150.9719 C   0  0  0  0  0  0  0  0  0  0  0  0
  146.1608  132.0278  149.6308 C   0  0  0  0  0  0  0  0  0  0  0  0
  146.8062  133.0704  151.8805 C   0  0  0  0  0  0  0  0  0  0  0  0
  147.5940  131.9291  152.4047 N   0  3  1  0  0  0  0  0  0  0  0  0
  148.7536  132.3696  153.2193 C   0  0  0  0  0  0  0  0  0  0  0  0
  148.3411  133.3112  154.3669 C   0  0  0  0  0  0  0  0  0  0  0  0
  148.7523  134.6856  154.1044 N   0  0  0  0  0  0  0  0  0  0  0  0
  149.5861  135.3955  154.8779 C   0  0  0  0  0  0  0  0  0  0  0  0
  150.0966  134.9502  155.9056 O   0  0  0  0  0  0  0  0  0  0  0  0
  149.7910  136.6249  154.3748 N   0  0  0  0  0  0  0  0  0  0  0  0
  150.5926  137.6737  154.9014 C   0  0  0  0  0  0  0  0  0  0  0  0
  151.4664  137.5320  156.0068 C   0  0  0  0  0  0  0  0  0  0  0  0
  152.1934  138.6549  156.4469 C   0  0  0  0  0  0  0  0  0  0  0  0
  152.0165  139.8781  155.7718 C   0  0  0  0  0  0  0  0  0  0  0  0
  151.1775  140.0310  154.7257 N   0  0  0  0  0  0  0  0  0  0  0  0
  150.4830  138.9505  154.3101 C   0  0  0  0  0  0  0  0  0  0  0  0
  146.7046  130.9767  153.1110 C   0  0  0  0  0  0  0  0  0  0  0  0
  145.5796  130.5073  152.1780 C   0  0  0  0  0  0  0  0  0  0  0  0
  144.8610  131.6291  151.6737 O   0  0  0  0  0  0  0  0  0  0  0  0
  145.2008  134.5743  150.1612 H   0  0  0  0  0  0  0  0  0  0  0  0
  144.2885  134.1799  151.6143 H   0  0  0  0  0  0  0  0  0  0  0  0
  143.8489  133.4493  150.0766 H   0  0  0  0  0  0  0  0  0  0  0  0
  146.6644  132.8000  149.0485 H   0  0  0  0  0  0  0  0  0  0  0  0
  145.3382  131.6453  149.0256 H   0  0  0  0  0  0  0  0  0  0  0  0
  146.8762  131.2171  149.7657 H   0  0  0  0  0  0  0  0  0  0  0  0
  147.4563  133.7479  151.3248 H   0  0  0  0  0  0  0  0  0  0  0  0
  146.4128  133.6371  152.7263 H   0  0  0  0  0  0  0  0  0  0  0  0
  149.2351  131.4947  153.6590 H   0  0  0  0  0  0  0  0  0  0  0  0
  149.4974  132.8368  152.5720 H   0  0  0  0  0  0  0  0  0  0  0  0
  147.2644  133.2884  154.5370 H   0  0  0  0  0  0  0  0  0  0  0  0
  148.8088  132.9888  155.2977 H   0  0  0  0  0  0  0  0  0  0  0  0
  148.3813  135.1245  153.2739 H   0  0  0  0  0  0  0  0  0  0  0  0
  149.3660  136.8154  153.4790 H   0  0  0  0  0  0  0  0  0  0  0  0
  151.5823  136.5969  156.5321 H   0  0  0  0  0  0  0  0  0  0  0  0
  152.8687  138.5809  157.2865 H   0  0  0  0  0  0  0  0  0  0  0  0
  152.5589  140.7582  156.0840 H   0  0  0  0  0  0  0  0  0  0  0  0
  149.8197  139.1106  153.4725 H   0  0  0  0  0  0  0  0  0  0  0  0
  147.2652  130.1100  153.4588 H   0  0  0  0  0  0  0  0  0  0  0  0
  146.2801  131.4566  153.9944 H   0  0  0  0  0  0  0  0  0  0  0  0
  145.9737  129.8998  151.3634 H   0  0  0  0  0  0  0  0  0  0  0  0
  144.8854  129.8706  152.7266 H   0  0  0  0  0  0  0  0  0  0  0  0
  147.9695  131.4490  151.5992 H   0  0  0  0  0  0  0  0  0  0  0  0
  1  2  1  0  0  0  0
  1 21  1  0  0  0  0
  1 22  1  0  0  0  0
  1 23  1  0  0  0  0
  2 20  1  0  0  0  0
  2  3  1  0  0  0  0
  2  4  1  0  0  0  0
  3 24  1  0  0  0  0
  3 25  1  0  0  0  0
  3 26  1  0  0  0  0
  4  5  1  0  0  0  0
  4 27  1  0  0  0  0
  4 28  1  0  0  0  0
  5  6  1  0  0  0  0
  5 18  1  0  0  0  0
  5 43  1  0  0  0  0
  6  7  1  0  0  0  0
  6 29  1  0  0  0  0
  6 30  1  0  0  0  0
  7  8  1  0  0  0  0
  7 31  1  0  0  0  0
  7 32  1  0  0  0  0
  8  9  1  0  0  0  0
  8 33  1  0  0  0  0
  9 10  2  0  0  0  0
  9 11  1  0  0  0  0
 11 12  1  0  0  0  0
 11 34  1  0  0  0  0
 12 17  1  0  0  0  0
 12 13  2  0  0  0  0
 13 14  1  0  0  0  0
 13 35  1  0  0  0  0
 14 15  2  0  0  0  0
 14 36  1  0  0  0  0
 15 16  1  0  0  0  0
 15 37  1  0  0  0  0
 16 17  2  0  0  0  0
 17 38  1  0  0  0  0
 18 19  1  0  0  0  0
 18 39  1  0  0  0  0
 18 40  1  0  0  0  0
 19 20  1  0  0  0  0
 19 41  1  0  0  0  0
 19 42  1  0  0  0  0
M  CHG  1   5   1
M  END
> <s_m_source_file>
AV-unprocessed.smi

> <i_m_source_file_index>
1496

> <i_lp_mmshare_version>
43012

> <i_f3d_flags>
0

> <s_epik_input>
W0NIM11DMShbQ0gzXSlbQ0gyXU4oW0NIMl1bQ0gyXU8xKVtDSDJdW0NIMl1bTkhdQyg9TylbTkhdYzJbY0hdW2NIXVtjSF1uW2NIXTI=

> <s_epik_cmdline>
J2VwaWtfcHl0aG9uJywgJy1waCcsICc3LjAnLCAnLXRuJywgJzgnLCAnLW1hJywgJzIwMCcsICctbWV0YWxfYmluZGluZycsICctaW1hZScsICc8aW5maWxlLm1hZT4nLCAnLW9tYWUnLCAnPG91dGZpbGUubWFlPic=

> <r_epik_Ionization_Penalty>
0.606681

> <r_epik_Ionization_Penalty_Charging>
0.602531

> <r_epik_Ionization_Penalty_Neutral>
0.00415082

> <r_epik_State_Penalty>
0.607427

> <r_epik_Charging_Adjusted_Penalty>
1.20996

> <i_epik_Tot_Q>
1

> <i_epik_Tot_abs_Q>
1

> <r_epik_Metal_State_Penalty>
0.604583

> <b_epik_Metal_Only>
0

> <s_lp_Force_Field>
OPLS_2005

> <r_lp_Energy>
21.2927

> <b_lp_Chiralities_Consistent>
1

> <s_lp_Variant>
AV-unprocessed.smi:1496-3

> <Gold.Version>
5.8.1

> <Gold.Id.Protein>
6NUR|6NUR_protein|mol2

> <Gold.PLP.Fitness>
49.8047

> <Gold.PLP.PLP>
-36.3887

> <Gold.PLP.part.hbond>
-4.5146

> <Gold.PLP.part.metal>
0.0000

> <Gold.PLP.part.buried>
-3.5667

> <Gold.PLP.part.nonpolar>
-28.2914

> <Gold.PLP.part.repulsive>
0.3283

> <Gold.PLP.ligand.clash>
0.0000

> <Gold.PLP.ligand.torsion>
0.3946

> <Gold.PLP.Chemscore.Hbond>
3.7280

> <Gold.PLP.Chemscore.CHOScore>
1.0000

> <Gold.PLP.Chemscore.Metal>
0.0000

> <Gold.Chemscore.Hbonds>
donor molecule, donor type, donor heavy atom, donor atom, acceptor molecule, acceptor atom, score
      L1  H     5    43       P1 10747  1.00
      L1  H     8    33       P1  7948  0.78
      L1  H    11    34       P1  7948  0.94
      P1  H  7989  7998       L1    16  1.00
      L1  C    17    38       P1  7957  1.00

> <Gold.PLP.Chemscore.Internal.Correction>
0.0213

> <Gold.Rescore>
     Score         DG    S(hbond)    S(metal)    S(lipo)     H(rot)  DE(clash)    DE(int)     intcor
     21.26     -23.05       3.28        0.00      89.37       1.50       0.19       1.60       ----

> <Gold.Chemscore.Fitness>
21.2632

> <Gold.Chemscore.DG>
-23.0518

> <Gold.Chemscore.ZeroCoef>
-5.4800

> <Gold.Chemscore.Hbond>
3.2808

> <Gold.Chemscore.Metal>
0.0000

> <Gold.Chemscore.Lipo>
89.3718

> <Gold.Chemscore.Internal_Hbond>
0.0000

> <Gold.Chemscore.DEClash>
0.1918

> <Gold.Chemscore.DEInternal>
1.5968

> <Gold.Chemscore.Rot>
1.5010

> <Gold.Chemscore.Internal.Correction>
   9.000000E+99

> <Gold.Chemscore.Hbonds>
donor molecule, donor type, donor heavy atom, donor atom, acceptor molecule, acceptor atom, score
      L1  H     5    43       P1 10747  1.00
      L1  H     8    33       P1  7948  0.72
      L1  H    11    34       P1  7948  0.84
      P1  H  7989  7998       L1    16  0.69

> <Gold.Chemscore.Hbond.Weighted>
-10.9579

> <Gold.Chemscore.Metal.Weighted>
-0.0000

> <Gold.Chemscore.Lipo.Weighted>
-10.4565

> <Gold.Chemscore.Internal_Hbond.Weighted>
0.0000

> <Gold.Chemscore.DEClash.Weighted>
0.1918

> <Gold.Chemscore.DEInternal.Weighted>
1.5968

> <Gold.Chemscore.Rot.Weighted>
3.8426

> <Gold.Chemscore.Internal.Correction.Weighted>
   9.000000E+99

> <Gold.Protein.RotatedTorsions>
[ 6907 6896 6895 6894 ] final -174.46 input  -60.11 | X-H torsion
[ 7974 7965 7964 7962 ] final   63.57 input  175.53 | X-H torsion
[ 8008 7997 7996 7995 ] final  152.84 input   59.86 | X-H torsion
[ 10167 10162 10161 10158 ] final -158.64 input  -65.29 | X-H torsion
[ 10718 10713 10712 10709 ] final   82.03 input   66.30 | X-H torsion
[ 10763 10752 10751 10750 ] final   37.82 input  -60.55 | X-H torsion
[ 11005 11000 10999 10996 ] final   95.54 input  -57.11 | X-H torsion

> <Gold.Protein.ActiveResidues>
 VAL166  LYS551  ARG553  GLY616  TRP617  ASP618  TYR619  PRO620  LYS621  CYS622 
 ASP623  PHE694  ASN695  SER759  ASP760  ASP761  ALA762  ILE779  LEU786  VAL792 
 PHE793  MET794  SER795  GLU796  ALA797  LYS798  CYS799  TRP800  GLU811  SER814 

> <Gold.Protein.RotatedAtoms>
  151.5727  133.3388  159.2992 H   0  0  0  0  0  0  0  0  0  0  0  0  # atno 6907 bound_to 6896
  150.8358  134.7634  159.6903 H   0  0  0  0  0  0  0  0  0  0  0  0  # atno 6908 bound_to 6896
  152.4435  134.5550  159.9929 H   0  0  0  0  0  0  0  0  0  0  0  0  # atno 6909 bound_to 6896
  145.8603  139.3310  143.0823 H   0  0  0  0  0  0  0  0  0  0  0  0  # atno 7974 bound_to 7965
  156.2610  140.2010  156.6397 H   0  0  0  0  0  0  0  0  0  0  0  0  # atno 8008 bound_to 7997
  154.6619  140.0560  157.0096 H   0  0  0  0  0  0  0  0  0  0  0  0  # atno 8009 bound_to 7997
  155.1264  140.3229  155.4487 H   0  0  0  0  0  0  0  0  0  0  0  0  # atno 8010 bound_to 7997
  139.6676  143.9801  152.2264 H   0  0  0  0  0  0  0  0  0  0  0  0  # atno 10167 bound_to 10162
  157.6847  131.0030  150.2314 H   0  0  0  0  0  0  0  0  0  0  0  0  # atno 10718 bound_to 10713
  153.0023  135.6267  154.2206 H   0  0  0  0  0  0  0  0  0  0  0  0  # atno 10763 bound_to 10752
  154.1949  135.2807  155.3012 H   0  0  0  0  0  0  0  0  0  0  0  0  # atno 10764 bound_to 10752
  154.5730  135.5670  153.7172 H   0  0  0  0  0  0  0  0  0  0  0  0  # atno 10765 bound_to 10752
  139.8788  134.8904  156.4026 H   0  0  0  0  0  0  0  0  0  0  0  0  # atno 11005 bound_to 11000
  145.9256  140.9084  143.0382 LP  0  0  0  0  0  0  0  0  0  0  0  0  # atno 17320 bound_to 7965
  144.6727  140.1348  143.7441 LP  0  0  0  0  0  0  0  0  0  0  0  0  # atno 17321 bound_to 7965
  139.9557  144.6591  150.8128 LP  0  0  0  0  0  0  0  0  0  0  0  0  # atno 17342 bound_to 10162
  140.7605  143.3154  151.2747 LP  0  0  0  0  0  0  0  0  0  0  0  0  # atno 17343 bound_to 10162
  156.2946  130.3750  149.7809 LP  0  0  0  0  0  0  0  0  0  0  0  0  # atno 17370 bound_to 10713
  156.5458  130.8320  151.3283 LP  0  0  0  0  0  0  0  0  0  0  0  0  # atno 17371 bound_to 10713
  140.9256  133.7614  155.9961 LP  0  0  0  0  0  0  0  0  0  0  0  0  # atno 17394 bound_to 11000
  140.8389  134.3090  157.5321 LP  0  0  0  0  0  0  0  0  0  0  0  0  # atno 17395 bound_to 11000

$$$$
