AV-unprocessed.smi:3056|AV-procd|sdf|11645|dock5
  -GOLD-   2272017 43D 1   1.00000     0.00000
 Structure written by MMmdl.
 48 49  0  0  0  0  0  0  0  0  2 V2000
  151.2510  142.6710  159.0519 C   0  0  0  0  0  0  0  0  0  0  0  0
  151.1436  141.8522  157.7975 C   0  0  0  0  0  0  0  0  0  0  0  0
  151.9643  140.7636  157.3895 C   0  0  0  0  0  0  0  0  0  0  0  0
  151.5973  140.2526  156.2257 N   0  0  0  0  0  0  0  0  0  0  0  0
  150.5426  141.0025  155.8370 N   0  0  0  0  0  0  0  0  0  0  0  0
  149.8671  140.6840  154.5815 C   0  0  2  0  0  0  0  0  0  0  0  0
  148.6156  141.5574  154.3753 C   0  0  0  0  0  0  0  0  0  0  0  0
  149.5587  139.1670  154.4396 C   0  0  2  0  0  0  0  0  0  0  0  0
  150.8110  138.2729  154.4824 C   0  0  0  0  0  0  0  0  0  0  0  0
  148.8147  138.8869  153.1874 N   0  3  0  0  0  0  0  0  0  0  0  0
  147.3365  138.9296  153.2865 C   0  0  0  0  0  0  0  0  0  0  0  0
  146.6248  138.1970  152.1352 C   0  0  0  0  0  0  0  0  0  0  0  0
  146.8356  138.5643  150.9778 O   0  0  0  0  0  0  0  0  0  0  0  0
  145.7859  137.1740  152.4262 N   0  0  0  0  0  0  0  0  0  0  0  0
  145.4894  136.6528  153.7641 C   0  0  0  0  0  0  0  0  0  0  0  0
  145.9873  135.1988  153.8383 C   0  0  0  0  0  0  0  0  0  0  0  0
  145.3655  134.4267  152.8138 O   0  0  0  0  0  0  0  0  0  0  0  0
  145.6162  134.9216  151.4994 C   0  0  1  0  0  0  0  0  0  0  0  0
  144.9210  133.9940  150.4970 C   0  0  0  0  0  0  0  0  0  0  0  0
  145.1078  136.3744  151.4016 C   0  0  0  0  0  0  0  0  0  0  0  0
  150.2401  141.9672  156.7798 C   0  0  0  0  0  0  0  0  0  0  0  0
  152.1809  142.4752  159.5866 H   0  0  0  0  0  0  0  0  0  0  0  0
  150.4331  142.4602  159.7408 H   0  0  0  0  0  0  0  0  0  0  0  0
  151.2246  143.7398  158.8382 H   0  0  0  0  0  0  0  0  0  0  0  0
  152.8087  140.3293  157.9045 H   0  0  0  0  0  0  0  0  0  0  0  0
  150.5486  140.9722  153.7801 H   0  0  0  0  0  0  0  0  0  0  0  0
  148.1806  141.3876  153.3902 H   0  0  0  0  0  0  0  0  0  0  0  0
  148.8631  142.6173  154.4426 H   0  0  0  0  0  0  0  0  0  0  0  0
  147.8412  141.3515  155.1139 H   0  0  0  0  0  0  0  0  0  0  0  0
  148.9263  138.8669  155.2763 H   0  0  0  0  0  0  0  0  0  0  0  0
  151.3831  138.4278  155.3969 H   0  0  0  0  0  0  0  0  0  0  0  0
  151.4743  138.4587  153.6372 H   0  0  0  0  0  0  0  0  0  0  0  0
  150.5338  137.2189  154.4509 H   0  0  0  0  0  0  0  0  0  0  0  0
  149.1169  139.5585  152.4956 H   0  0  0  0  0  0  0  0  0  0  0  0
  147.0133  138.5314  154.2481 H   0  0  0  0  0  0  0  0  0  0  0  0
  147.0404  139.9785  153.2538 H   0  0  0  0  0  0  0  0  0  0  0  0
  145.9293  137.2327  154.5734 H   0  0  0  0  0  0  0  0  0  0  0  0
  144.4115  136.6859  153.9292 H   0  0  0  0  0  0  0  0  0  0  0  0
  147.0726  135.1525  153.7346 H   0  0  0  0  0  0  0  0  0  0  0  0
  145.7393  134.7636  154.8066 H   0  0  0  0  0  0  0  0  0  0  0  0
  146.6909  134.8955  151.3100 H   0  0  0  0  0  0  0  0  0  0  0  0
  145.1010  134.3187  149.4719 H   0  0  0  0  0  0  0  0  0  0  0  0
  143.8428  133.9745  150.6581 H   0  0  0  0  0  0  0  0  0  0  0  0
  145.2902  132.9724  150.5914 H   0  0  0  0  0  0  0  0  0  0  0  0
  144.0301  136.4129  151.5691 H   0  0  0  0  0  0  0  0  0  0  0  0
  145.2699  136.7546  150.3922 H   0  0  0  0  0  0  0  0  0  0  0  0
  149.4150  142.6528  156.6556 H   0  0  0  0  0  0  0  0  0  0  0  0
  149.0655  137.9620  152.8678 H   0  0  0  0  0  0  0  0  0  0  0  0
  1  2  1  0  0  0  0
  1 22  1  0  0  0  0
  1 23  1  0  0  0  0
  1 24  1  0  0  0  0
  2 21  2  0  0  0  0
  2  3  1  0  0  0  0
  3  4  2  0  0  0  0
  3 25  1  0  0  0  0
  4  5  1  0  0  0  0
  5  6  1  0  0  0  0
  5 21  1  0  0  0  0
  6  7  1  0  0  0  0
  6  8  1  0  0  0  0
  6 26  1  0  0  0  0
  7 27  1  0  0  0  0
  7 28  1  0  0  0  0
  7 29  1  0  0  0  0
  8  9  1  0  0  0  0
  8 10  1  0  0  0  0
  8 30  1  0  0  0  0
  9 31  1  0  0  0  0
  9 32  1  0  0  0  0
  9 33  1  0  0  0  0
 10 11  1  0  0  0  0
 10 34  1  0  0  0  0
 10 48  1  0  0  0  0
 11 12  1  0  0  0  0
 11 35  1  0  0  0  0
 11 36  1  0  0  0  0
 12 13  2  0  0  0  0
 12 14  1  0  0  0  0
 14 20  1  0  0  0  0
 14 15  1  0  0  0  0
 15 16  1  0  0  0  0
 15 37  1  0  0  0  0
 15 38  1  0  0  0  0
 16 17  1  0  0  0  0
 16 39  1  0  0  0  0
 16 40  1  0  0  0  0
 17 18  1  0  0  0  0
 18 19  1  0  0  0  0
 18 20  1  0  0  0  0
 18 41  1  0  0  0  0
 19 42  1  0  0  0  0
 19 43  1  0  0  0  0
 19 44  1  0  0  0  0
 20 45  1  0  0  0  0
 20 46  1  0  0  0  0
 21 47  1  0  0  0  0
M  CHG  1  10   1
M  END
> <s_m_source_file>
AV-unprocessed.smi

> <i_m_source_file_index>
3056

> <i_lp_mmshare_version>
43012

> <i_f3d_flags>
0

> <s_epik_input>
W0NIM11jMVtjSF1ubihbY0hdMSlbQ0BIXShbQ0gzXSlbQ0BIXShbQ0gzXSlbTkhdW0NIMl1DKD1PKU4yW0NIMl1bQ0gyXU9bQ0BASF0oW0NIM10pW0NIMl0y

> <s_epik_cmdline>
J2VwaWtfcHl0aG9uJywgJy1waCcsICc3LjAnLCAnLXRuJywgJzgnLCAnLW1hJywgJzIwMCcsICctbWV0YWxfYmluZGluZycsICctaW1hZScsICc8aW5maWxlLm1hZT4nLCAnLW9tYWUnLCAnPG91dGZpbGUubWFlPic=

> <r_lp_tautomer_probability>
1

> <r_epik_Ionization_Penalty>
0.233715

> <r_epik_Ionization_Penalty_Charging>
0.233698

> <r_epik_Ionization_Penalty_Neutral>
1.68157e-05

> <r_epik_State_Penalty>
0.225221

> <r_epik_Charging_Adjusted_Penalty>
0.458919

> <i_epik_Tot_Q>
1

> <i_epik_Tot_abs_Q>
1

> <r_epik_Metal_State_Penalty>
0.225535

> <b_epik_Metal_Only>
0

> <s_lp_Force_Field>
OPLS_2005

> <r_lp_Energy>
27.9094

> <b_lp_Chiralities_Consistent>
1

> <s_lp_Variant>
AV-unprocessed.smi:3056-1

> <Gold.Version>
5.8.1

> <Gold.Id.Protein>
6NUR|6NUR_protein|mol2

> <Gold.PLP.Fitness>
51.1599

> <Gold.PLP.PLP>
-37.4268

> <Gold.PLP.part.hbond>
-2.8084

> <Gold.PLP.part.metal>
0.0000

> <Gold.PLP.part.buried>
-2.0434

> <Gold.PLP.part.nonpolar>
-33.4938

> <Gold.PLP.part.repulsive>
0.5253

> <Gold.PLP.ligand.clash>
0.0000

> <Gold.PLP.ligand.torsion>
0.6983

> <Gold.PLP.Chemscore.Hbond>
3.9913

> <Gold.PLP.Chemscore.CHOScore>
1.0000

> <Gold.PLP.Chemscore.Metal>
0.0000

> <Gold.Chemscore.Hbonds>
donor molecule, donor type, donor heavy atom, donor atom, acceptor molecule, acceptor atom, score
      L1  H    10    34       P1  7957  0.93
      L1  H    10    48       P1  7948  2.00
      P1  H  7954  7966       L1    13  1.00
      L1  C    21    47       P1  8028  1.00

> <Gold.PLP.Chemscore.Internal.Correction>
0.1560

> <Gold.Rescore>
     Score         DG    S(hbond)    S(metal)    S(lipo)     H(rot)  DE(clash)    DE(int)     intcor
     17.36     -20.72       2.92        0.00      84.89       1.74       1.21       2.15       ----

> <Gold.Chemscore.Fitness>
17.3648

> <Gold.Chemscore.DG>
-20.7227

> <Gold.Chemscore.ZeroCoef>
-5.4800

> <Gold.Chemscore.Hbond>
2.9200

> <Gold.Chemscore.Metal>
0.0000

> <Gold.Chemscore.Lipo>
84.8939

> <Gold.Chemscore.Internal_Hbond>
0.0000

> <Gold.Chemscore.DEClash>
1.2075

> <Gold.Chemscore.DEInternal>
2.1503

> <Gold.Chemscore.Rot>
1.7354

> <Gold.Chemscore.Internal.Correction>
   9.000000E+99

> <Gold.Chemscore.Hbonds>
donor molecule, donor type, donor heavy atom, donor atom, acceptor molecule, acceptor atom, score
      L1  H    10    34       P1  7957  0.87
      L1  H    10    48       P1  7948  0.97
      P1  H  7954  7966       L1    13  0.94

> <Gold.Chemscore.Hbond.Weighted>
-9.7527

> <Gold.Chemscore.Metal.Weighted>
-0.0000

> <Gold.Chemscore.Lipo.Weighted>
-9.9326

> <Gold.Chemscore.Internal_Hbond.Weighted>
0.0000

> <Gold.Chemscore.DEClash.Weighted>
1.2075

> <Gold.Chemscore.DEInternal.Weighted>
2.1503

> <Gold.Chemscore.Rot.Weighted>
4.4426

> <Gold.Chemscore.Internal.Correction.Weighted>
   9.000000E+99

> <Gold.Protein.RotatedTorsions>
[ 6907 6896 6895 6894 ] final  134.20 input  -60.11 | X-H torsion
[ 7974 7965 7964 7962 ] final -127.94 input  175.53 | X-H torsion
[ 8008 7997 7996 7995 ] final -113.51 input   59.86 | X-H torsion
[ 10167 10162 10161 10158 ] final    6.34 input  -65.29 | X-H torsion
[ 10718 10713 10712 10709 ] final   98.21 input   66.30 | X-H torsion
[ 10763 10752 10751 10750 ] final   10.29 input  -60.55 | X-H torsion
[ 11005 11000 10999 10996 ] final  119.99 input  -57.11 | X-H torsion

> <Gold.Protein.ActiveResidues>
 VAL166  LYS551  ARG553  GLY616  TRP617  ASP618  TYR619  PRO620  LYS621  CYS622 
 ASP623  PHE694  ASN695  SER759  ASP760  ASP761  ALA762  ILE779  LEU786  VAL792 
 PHE793  MET794  SER795  GLU796  ALA797  LYS798  CYS799  TRP800  GLU811  SER814 

> <Gold.Protein.RotatedAtoms>
  152.3138  133.5781  159.5698 H   0  0  0  0  0  0  0  0  0  0  0  0  # atno 6907 bound_to 6896
  150.7336  134.0113  159.3679 H   0  0  0  0  0  0  0  0  0  0  0  0  # atno 6908 bound_to 6896
  151.8003  135.0711  160.0450 H   0  0  0  0  0  0  0  0  0  0  0  0  # atno 6909 bound_to 6896
  144.9720  140.7555  143.4665 H   0  0  0  0  0  0  0  0  0  0  0  0  # atno 7974 bound_to 7965
  155.0218  140.0393  157.2440 H   0  0  0  0  0  0  0  0  0  0  0  0  # atno 8008 bound_to 7997
  154.7371  140.2742  155.6382 H   0  0  0  0  0  0  0  0  0  0  0  0  # atno 8009 bound_to 7997
  156.2855  140.2672  156.2088 H   0  0  0  0  0  0  0  0  0  0  0  0  # atno 8010 bound_to 7997
  140.6433  143.7723  150.7460 H   0  0  0  0  0  0  0  0  0  0  0  0  # atno 10167 bound_to 10162
  157.6899  131.0633  150.4762 H   0  0  0  0  0  0  0  0  0  0  0  0  # atno 10718 bound_to 10713
  153.2048  135.6861  153.8187 H   0  0  0  0  0  0  0  0  0  0  0  0  # atno 10763 bound_to 10752
  153.7440  135.3234  155.3310 H   0  0  0  0  0  0  0  0  0  0  0  0  # atno 10764 bound_to 10752
  154.8191  135.4665  154.0830 H   0  0  0  0  0  0  0  0  0  0  0  0  # atno 10765 bound_to 10752
  139.9167  134.9632  156.7738 H   0  0  0  0  0  0  0  0  0  0  0  0  # atno 11005 bound_to 11000
  145.2545  139.2018  143.4925 LP  0  0  0  0  0  0  0  0  0  0  0  0  # atno 17320 bound_to 7965
  146.3385  140.2464  142.8597 LP  0  0  0  0  0  0  0  0  0  0  0  0  # atno 17321 bound_to 7965
  140.1359  143.4484  152.2225 LP  0  0  0  0  0  0  0  0  0  0  0  0  # atno 17342 bound_to 10162
  139.5642  144.7425  151.4068 LP  0  0  0  0  0  0  0  0  0  0  0  0  # atno 17343 bound_to 10162
  156.5097  130.4136  149.6308 LP  0  0  0  0  0  0  0  0  0  0  0  0  # atno 17370 bound_to 10713
  156.3252  130.7302  151.2221 LP  0  0  0  0  0  0  0  0  0  0  0  0  # atno 17371 bound_to 10713
  140.6599  133.9654  155.7799 LP  0  0  0  0  0  0  0  0  0  0  0  0  # atno 17394 bound_to 11000
  141.0650  134.0289  157.3606 LP  0  0  0  0  0  0  0  0  0  0  0  0  # atno 17395 bound_to 11000

$$$$
