AV-unprocessed.smi:199|AV-procd|sdf|1561|dock8
  -GOLD-   2262019433D 1   1.00000     0.00000
 Structure written by MMmdl.
 51 55  0  0  0  0  0  0  0  0  1 V2000
  149.3292  132.8528  157.4924 C   0  0  0  0  0  0  0  0  0  0  0  0
  150.5322  132.1034  156.8966 C   0  0  1  0  0  0  0  0  0  0  0  0
  151.5527  131.9410  157.8709 O   0  0  0  0  0  0  0  0  0  0  0  0
  152.4273  130.9366  157.3898 C   0  0  0  0  0  0  0  0  0  0  0  0
  151.4667  129.8729  156.8722 C   0  0  0  0  0  0  0  0  0  0  0  0
  150.2744  130.6763  156.3429 C   0  0  1  0  0  0  0  0  0  0  0  0
  149.0889  130.1114  156.8786 O   0  0  0  0  0  0  0  0  0  0  0  0
  150.1784  130.6256  154.7981 C   0  0  0  0  0  0  0  0  0  0  0  0
  149.2372  131.5870  154.2434 N   0  0  0  0  0  0  0  0  0  0  0  0
  149.3424  132.9588  154.2739 C   0  0  0  0  0  0  0  0  0  0  0  0
  148.3654  133.6038  153.6985 N   0  0  0  0  0  0  0  0  0  0  0  0
  147.5169  132.6039  153.2369 C   0  0  0  0  0  0  0  0  0  0  0  0
  146.2804  132.5930  152.5283 C   0  0  0  0  0  0  0  0  0  0  0  0
  145.6377  133.7197  152.1161 N   0  0  0  0  0  0  0  0  0  0  0  0
  145.5080  134.0073  150.6972 C   0  0  1  0  0  0  0  0  0  0  0  0
  144.4233  133.0246  150.2132 C   0  0  0  0  0  0  0  0  0  0  0  0
  143.5005  132.9670  151.4403 C   0  0  0  0  0  0  0  0  0  0  0  0
  144.2252  133.9279  152.4082 C   0  0  2  0  0  0  0  0  0  0  0  0
  143.9880  135.3782  151.9318 C   0  0  1  0  0  0  0  0  0  0  0  0
  144.3257  136.4388  152.9957 C   0  0  0  0  0  0  0  0  0  0  0  0
  144.0826  137.7355  152.4929 O   0  0  0  0  0  0  0  0  0  0  0  0
  144.9305  135.4325  150.7115 C   0  0  0  0  0  0  0  0  0  0  0  0
  145.7141  131.3805  152.2860 N   0  0  0  0  0  0  0  0  0  0  0  0
  146.3218  130.2569  152.6751 C   0  0  0  0  0  0  0  0  0  0  0  0
  147.4796  130.1172  153.3217 N   0  0  0  0  0  0  0  0  0  0  0  0
  148.0455  131.3286  153.5884 C   0  0  0  0  0  0  0  0  0  0  0  0
  148.5355  132.9736  156.7549 H   0  0  0  0  0  0  0  0  0  0  0  0
  149.6234  133.8478  157.8263 H   0  0  0  0  0  0  0  0  0  0  0  0
  148.9154  132.3277  158.3534 H   0  0  0  0  0  0  0  0  0  0  0  0
  150.9675  132.7216  156.1107 H   0  0  0  0  0  0  0  0  0  0  0  0
  153.0418  131.3377  156.5822 H   0  0  0  0  0  0  0  0  0  0  0  0
  153.0862  130.5646  158.1745 H   0  0  0  0  0  0  0  0  0  0  0  0
  151.9294  129.2329  156.1200 H   0  0  0  0  0  0  0  0  0  0  0  0
  151.1709  129.2329  157.7054 H   0  0  0  0  0  0  0  0  0  0  0  0
  148.9601  130.4545  157.7495 H   0  0  0  0  0  0  0  0  0  0  0  0
  151.1586  130.8157  154.3589 H   0  0  0  0  0  0  0  0  0  0  0  0
  149.8859  129.6287  154.4652 H   0  0  0  0  0  0  0  0  0  0  0  0
  150.1755  133.4702  154.7334 H   0  0  0  0  0  0  0  0  0  0  0  0
  146.4268  133.9475  150.1163 H   0  0  0  0  0  0  0  0  0  0  0  0
  143.9134  133.3711  149.3135 H   0  0  0  0  0  0  0  0  0  0  0  0
  144.8492  132.0420  150.0060 H   0  0  0  0  0  0  0  0  0  0  0  0
  142.4793  133.2799  151.2197 H   0  0  0  0  0  0  0  0  0  0  0  0
  143.4596  131.9542  151.8426 H   0  0  0  0  0  0  0  0  0  0  0  0
  143.9467  133.7741  153.4515 H   0  0  0  0  0  0  0  0  0  0  0  0
  142.9528  135.5181  151.6159 H   0  0  0  0  0  0  0  0  0  0  0  0
  143.7398  136.2873  153.9029 H   0  0  0  0  0  0  0  0  0  0  0  0
  145.3776  136.3721  153.2748 H   0  0  0  0  0  0  0  0  0  0  0  0
  144.0111  137.6841  151.5519 H   0  0  0  0  0  0  0  0  0  0  0  0
  145.7274  136.1634  150.8564 H   0  0  0  0  0  0  0  0  0  0  0  0
  144.4105  135.6846  149.7864 H   0  0  0  0  0  0  0  0  0  0  0  0
  145.8061  129.3392  152.4338 H   0  0  0  0  0  0  0  0  0  0  0  0
  1  2  1  0  0  0  0
  1 27  1  0  0  0  0
  1 28  1  0  0  0  0
  1 29  1  0  0  0  0
  2  6  1  0  0  0  0
  2  3  1  0  0  0  0
  2 30  1  0  0  0  0
  3  4  1  0  0  0  0
  4  5  1  0  0  0  0
  4 31  1  0  0  0  0
  4 32  1  0  0  0  0
  5  6  1  0  0  0  0
  5 33  1  0  0  0  0
  5 34  1  0  0  0  0
  6  7  1  0  0  0  0
  6  8  1  0  0  0  0
  7 35  1  0  0  0  0
  8  9  1  0  0  0  0
  8 36  1  0  0  0  0
  8 37  1  0  0  0  0
  9 26  1  0  0  0  0
  9 10  1  0  0  0  0
 10 11  2  0  0  0  0
 10 38  1  0  0  0  0
 11 12  1  0  0  0  0
 12 26  2  0  0  0  0
 12 13  1  0  0  0  0
 13 14  1  0  0  0  0
 13 23  2  0  0  0  0
 14 18  1  0  0  0  0
 14 15  1  0  0  0  0
 15 22  1  0  0  0  0
 15 16  1  0  0  0  0
 15 39  1  0  0  0  0
 16 17  1  0  0  0  0
 16 40  1  0  0  0  0
 16 41  1  0  0  0  0
 17 18  1  0  0  0  0
 17 42  1  0  0  0  0
 17 43  1  0  0  0  0
 18 19  1  0  0  0  0
 18 44  1  0  0  0  0
 19 20  1  0  0  0  0
 19 22  1  0  0  0  0
 19 45  1  0  0  0  0
 20 21  1  0  0  0  0
 20 46  1  0  0  0  0
 20 47  1  0  0  0  0
 21 48  1  0  0  0  0
 22 49  1  0  0  0  0
 22 50  1  0  0  0  0
 23 24  1  0  0  0  0
 24 25  2  0  0  0  0
 24 51  1  0  0  0  0
 25 26  1  0  0  0  0
M  END
> <s_m_source_file>
AV-unprocessed.smi

> <i_m_source_file_index>
199

> <i_lp_mmshare_version>
43012

> <i_f3d_flags>
0

> <s_epik_input>
W0NIMl0xW0NIMl1PW0NAQEhdKFtDSDNdKVtDQEBdMShbT0hdKVtDSDJdbihbY0hdbjIpYyhjMjMpbltjSF1uYzNOKFtDQEBIXTQ1KVtDQEhdKFtDSDJdW0NIMl00KVtDQEhdKFtDSDJdNSlbQ0gyXVtPSF0=

> <s_epik_cmdline>
J2VwaWtfcHl0aG9uJywgJy1waCcsICc3LjAnLCAnLXRuJywgJzgnLCAnLW1hJywgJzIwMCcsICctbWV0YWxfYmluZGluZycsICctaW1hZScsICc8aW5maWxlLm1hZT4nLCAnLW9tYWUnLCAnPG91dGZpbGUubWFlPic=

> <r_lp_tautomer_probability>
1

> <r_epik_Ionization_Penalty>
0.00583903

> <r_epik_Ionization_Penalty_Charging>
0

> <r_epik_Ionization_Penalty_Neutral>
0.00583903

> <r_epik_State_Penalty>
-0

> <r_epik_Charging_Adjusted_Penalty>
0

> <i_epik_Tot_Q>
0

> <i_epik_Tot_abs_Q>
0

> <r_epik_Metal_State_Penalty>
-0

> <b_epik_Metal_Only>
0

> <s_lp_Force_Field>
OPLS_2005

> <r_lp_Energy>
83.4271

> <b_lp_Chiralities_Consistent>
1

> <s_lp_Variant>
AV-unprocessed.smi:199-2

> <Gold.Version>
5.8.1

> <Gold.Id.Protein>
6NUR|6NUR_protein|mol2

> <Gold.PLP.Fitness>
46.1655

> <Gold.PLP.PLP>
-40.7914

> <Gold.PLP.part.hbond>
-3.0000

> <Gold.PLP.part.metal>
0.0000

> <Gold.PLP.part.buried>
-6.7529

> <Gold.PLP.part.nonpolar>
-32.5128

> <Gold.PLP.part.repulsive>
1.4224

> <Gold.PLP.ligand.clash>
0.0000

> <Gold.PLP.ligand.torsion>
0.3010

> <Gold.PLP.Chemscore.Hbond>
1.9760

> <Gold.PLP.Chemscore.CHOScore>
0.0000

> <Gold.PLP.Chemscore.Metal>
0.0000

> <Gold.Chemscore.Hbonds>
donor molecule, donor type, donor heavy atom, donor atom, acceptor molecule, acceptor atom, score
      L1  H    21    48       P1 10171  0.99
      P1  H  6896  6909       L1     3  1.00

> <Gold.PLP.Chemscore.Internal.Correction>
0.0481

> <Gold.Rescore>
     Score         DG    S(hbond)    S(metal)    S(lipo)     H(rot)  DE(clash)    DE(int)     intcor
      8.68     -11.65       1.76        0.00      69.56       3.07       0.02       2.95       ----

> <Gold.Chemscore.Fitness>
8.6785

> <Gold.Chemscore.DG>
-11.6462

> <Gold.Chemscore.ZeroCoef>
-5.4800

> <Gold.Chemscore.Hbond>
1.7649

> <Gold.Chemscore.Metal>
0.0000

> <Gold.Chemscore.Lipo>
69.5562

> <Gold.Chemscore.Internal_Hbond>
0.0000

> <Gold.Chemscore.DEClash>
0.0183

> <Gold.Chemscore.DEInternal>
2.9494

> <Gold.Chemscore.Rot>
3.0729

> <Gold.Chemscore.Internal.Correction>
   9.000000E+99

> <Gold.Chemscore.Hbonds>
donor molecule, donor type, donor heavy atom, donor atom, acceptor molecule, acceptor atom, score
      L1  H    21    48       P1 10171  0.92
      P1  H  6896  6909       L1     3  0.85

> <Gold.Chemscore.Hbond.Weighted>
-5.8948

> <Gold.Chemscore.Metal.Weighted>
-0.0000

> <Gold.Chemscore.Lipo.Weighted>
-8.1381

> <Gold.Chemscore.Internal_Hbond.Weighted>
0.0000

> <Gold.Chemscore.DEClash.Weighted>
0.0183

> <Gold.Chemscore.DEInternal.Weighted>
2.9494

> <Gold.Chemscore.Rot.Weighted>
7.8667

> <Gold.Chemscore.Internal.Correction.Weighted>
   9.000000E+99

> <Gold.Protein.RotatedTorsions>
[ 6907 6896 6895 6894 ] final  -51.00 input  -60.11 | X-H torsion
[ 7974 7965 7964 7962 ] final  -58.83 input  175.53 | X-H torsion
[ 8008 7997 7996 7995 ] final  179.90 input   59.86 | X-H torsion
[ 10167 10162 10161 10158 ] final  163.06 input  -65.29 | X-H torsion
[ 10718 10713 10712 10709 ] final -147.51 input   66.30 | X-H torsion
[ 10763 10752 10751 10750 ] final   80.32 input  -60.55 | X-H torsion
[ 11005 11000 10999 10996 ] final   94.38 input  -57.11 | X-H torsion

> <Gold.Protein.ActiveResidues>
 VAL166  LYS551  ARG553  GLY616  TRP617  ASP618  TYR619  PRO620  LYS621  CYS622 
 ASP623  PHE694  ASN695  SER759  ASP760  ASP761  ALA762  ILE779  LEU786  VAL792 
 PHE793  MET794  SER795  GLU796  ALA797  LYS798  CYS799  TRP800  GLU811  SER814 

> <Gold.Protein.RotatedAtoms>
  150.8653  134.8015  159.7113 H   0  0  0  0  0  0  0  0  0  0  0  0  # atno 6907 bound_to 6896
  152.4676  134.5034  159.9741 H   0  0  0  0  0  0  0  0  0  0  0  0  # atno 6908 bound_to 6896
  151.5131  133.3442  159.2924 H   0  0  0  0  0  0  0  0  0  0  0  0  # atno 6909 bound_to 6896
  145.8346  140.8457  143.0066 H   0  0  0  0  0  0  0  0  0  0  0  0  # atno 7974 bound_to 7965
  156.0382  140.1297  157.0185 H   0  0  0  0  0  0  0  0  0  0  0  0  # atno 8008 bound_to 7997
  154.4379  140.1036  156.6268 H   0  0  0  0  0  0  0  0  0  0  0  0  # atno 8009 bound_to 7997
  155.5707  140.3466  155.4516 H   0  0  0  0  0  0  0  0  0  0  0  0  # atno 8010 bound_to 7997
  139.4868  144.4375  151.8993 H   0  0  0  0  0  0  0  0  0  0  0  0  # atno 10167 bound_to 10162
  156.4085  130.7969  151.2185 H   0  0  0  0  0  0  0  0  0  0  0  0  # atno 10718 bound_to 10713
  153.1024  135.4807  154.8891 H   0  0  0  0  0  0  0  0  0  0  0  0  # atno 10763 bound_to 10752
  154.7393  135.3078  154.8758 H   0  0  0  0  0  0  0  0  0  0  0  0  # atno 10764 bound_to 10752
  153.9371  135.6838  153.4798 H   0  0  0  0  0  0  0  0  0  0  0  0  # atno 10765 bound_to 10752
  139.8799  134.8842  156.3856 H   0  0  0  0  0  0  0  0  0  0  0  0  # atno 11005 bound_to 11000
  144.6737  140.0723  143.7472 LP  0  0  0  0  0  0  0  0  0  0  0  0  # atno 17320 bound_to 7965
  145.9533  139.2749  143.1199 LP  0  0  0  0  0  0  0  0  0  0  0  0  # atno 17321 bound_to 7965
  140.3826  144.2717  150.5907 LP  0  0  0  0  0  0  0  0  0  0  0  0  # atno 17342 bound_to 10162
  140.5220  143.2263  151.8374 LP  0  0  0  0  0  0  0  0  0  0  0  0  # atno 17343 bound_to 10162
  157.7506  131.0265  150.3965 LP  0  0  0  0  0  0  0  0  0  0  0  0  # atno 17370 bound_to 10713
  156.4258  130.3962  149.6794 LP  0  0  0  0  0  0  0  0  0  0  0  0  # atno 17371 bound_to 10713
  140.9368  133.7541  156.0095 LP  0  0  0  0  0  0  0  0  0  0  0  0  # atno 17394 bound_to 11000
  140.8266  134.3227  157.5363 LP  0  0  0  0  0  0  0  0  0  0  0  0  # atno 17395 bound_to 11000

$$$$
