AV-unprocessed.smi:52|AV-procd|sdf|511|dock10
  -GOLD-   2262016383D 1   1.00000     0.00000
 Structure written by MMmdl.
 26 27  0  0  0  0  0  0  0  0  2 V2000
  152.9347  139.1247  156.0115 O   0  0  0  0  0  0  0  0  0  0  0  0
  152.5481  138.6837  154.9064 C   0  0  0  0  0  0  0  0  0  0  0  0
  153.1860  137.8031  154.2883 O   0  5  0  0  0  0  0  0  0  0  0  0
  151.2963  139.2215  154.3128 C   0  0  0  0  0  0  0  0  0  0  0  0
  150.7336  138.8584  153.1154 C   0  0  0  0  0  0  0  0  0  0  0  0
  149.5852  139.5773  152.9208 O   0  0  0  0  0  0  0  0  0  0  0  0
  149.4926  140.3654  154.0262 C   0  0  0  0  0  0  0  0  0  0  0  0
  148.3420  141.3091  154.1501 C   0  0  0  0  0  0  0  0  0  0  0  0
  147.0635  140.6308  154.3348 N   0  0  0  0  0  0  0  0  0  0  0  0
  146.8388  139.5372  153.4032 C   0  0  0  0  0  0  0  0  0  0  0  0
  145.3246  139.2854  153.3829 C   0  0  0  0  0  0  0  0  0  0  0  0
  144.7276  140.5511  154.0199 C   0  0  2  0  0  0  0  0  0  0  0  0
  143.6804  141.1088  153.2545 O   0  0  0  0  0  0  0  0  0  0  0  0
  145.9233  141.4982  154.1259 C   0  0  0  0  0  0  0  0  0  0  0  0
  150.4892  140.1933  154.8916 N   0  0  0  0  0  0  0  0  0  0  0  0
  144.3565  140.3181  155.0188 H   0  0  0  0  0  0  0  0  0  0  0  0
  151.0074  138.1558  152.3425 H   0  0  0  0  0  0  0  0  0  0  0  0
  148.5365  141.9614  155.0020 H   0  0  0  0  0  0  0  0  0  0  0  0
  148.3111  141.9482  153.2665 H   0  0  0  0  0  0  0  0  0  0  0  0
  147.1635  139.8282  152.4027 H   0  0  0  0  0  0  0  0  0  0  0  0
  147.4031  138.6482  153.6866 H   0  0  0  0  0  0  0  0  0  0  0  0
  144.9769  139.1244  152.3616 H   0  0  0  0  0  0  0  0  0  0  0  0
  145.0628  138.4032  153.9682 H   0  0  0  0  0  0  0  0  0  0  0  0
  143.8890  141.0024  152.3390 H   0  0  0  0  0  0  0  0  0  0  0  0
  145.8114  142.2220  154.9338 H   0  0  0  0  0  0  0  0  0  0  0  0
  146.0444  142.0519  153.1927 H   0  0  0  0  0  0  0  0  0  0  0  0
  1  2  2  0  0  0  0
  2  3  1  0  0  0  0
  2  4  1  0  0  0  0
  4 15  1  0  0  0  0
  4  5  2  0  0  0  0
  5  6  1  0  0  0  0
  5 17  1  0  0  0  0
  6  7  1  0  0  0  0
  7  8  1  0  0  0  0
  7 15  2  0  0  0  0
  8  9  1  0  0  0  0
  8 18  1  0  0  0  0
  8 19  1  0  0  0  0
  9 14  1  0  0  0  0
  9 10  1  0  0  0  0
 10 11  1  0  0  0  0
 10 20  1  0  0  0  0
 10 21  1  0  0  0  0
 11 12  1  0  0  0  0
 11 22  1  0  0  0  0
 11 23  1  0  0  0  0
 12 16  1  0  0  0  0
 12 13  1  0  0  0  0
 12 14  1  0  0  0  0
 13 24  1  0  0  0  0
 14 25  1  0  0  0  0
 14 26  1  0  0  0  0
M  CHG  1   3  -1
M  END
> <s_m_source_file>
AV-unprocessed.smi

> <i_m_source_file_index>
52

> <i_lp_mmshare_version>
43012

> <i_f3d_flags>
0

> <s_epik_input>
Tz1DKFtPSF0pYzFbY0hdb2MobjEpW0NIMl1OMltDSDJdW0NIMl1bQ0BIXShbT0hdKVtDSDJdMg==

> <s_epik_cmdline>
J2VwaWtfcHl0aG9uJywgJy1waCcsICc3LjAnLCAnLXRuJywgJzgnLCAnLW1hJywgJzIwMCcsICctbWV0YWxfYmluZGluZycsICctaW1hZScsICc8aW5maWxlLm1hZT4nLCAnLW9tYWUnLCAnPG91dGZpbGUubWFlPic=

> <r_epik_Ionization_Penalty>
1.6537

> <r_epik_Ionization_Penalty_Charging>
0.000221913

> <r_epik_Ionization_Penalty_Neutral>
1.65348

> <r_epik_State_Penalty>
1.75577

> <r_epik_Charging_Adjusted_Penalty>
1.75599

> <i_epik_Tot_Q>
-1

> <i_epik_Tot_abs_Q>
1

> <r_epik_Metal_State_Penalty>
1.75577

> <b_epik_Metal_Only>
0

> <s_lp_Force_Field>
OPLS_2005

> <r_lp_Energy>
35.4981

> <b_lp_Chiralities_Consistent>
1

> <s_lp_Variant>
AV-unprocessed.smi:52-5

> <Gold.Version>
5.8.1

> <Gold.Id.Protein>
6NUR|6NUR_protein|mol2

> <Gold.PLP.Fitness>
41.2292

> <Gold.PLP.PLP>
-23.9142

> <Gold.PLP.part.hbond>
-4.8683

> <Gold.PLP.part.metal>
0.0000

> <Gold.PLP.part.buried>
-4.1873

> <Gold.PLP.part.nonpolar>
-17.2426

> <Gold.PLP.part.repulsive>
0.4222

> <Gold.PLP.ligand.clash>
0.0000

> <Gold.PLP.ligand.torsion>
0.1518

> <Gold.PLP.Chemscore.Hbond>
5.0581

> <Gold.PLP.Chemscore.CHOScore>
0.8144

> <Gold.PLP.Chemscore.Metal>
0.0000

> <Gold.Chemscore.Hbonds>
donor molecule, donor type, donor heavy atom, donor atom, acceptor molecule, acceptor atom, score
      P1  H  7997  8010       L1     1  2.00
      P1  H 10752 10764       L1     3  0.10
      L1  C     5    17       P1  7949  0.96

> <Gold.PLP.Chemscore.Internal.Correction>
0.0012

> <Gold.Rescore>
     Score         DG    S(hbond)    S(metal)    S(lipo)     H(rot)  DE(clash)    DE(int)     intcor
     12.52     -14.43       3.07        0.00      31.40       1.95       0.14       1.78       ----

> <Gold.Chemscore.Fitness>
12.5168

> <Gold.Chemscore.DG>
-14.4321

> <Gold.Chemscore.ZeroCoef>
-5.4800

> <Gold.Chemscore.Hbond>
3.0746

> <Gold.Chemscore.Metal>
0.0000

> <Gold.Chemscore.Lipo>
31.4025

> <Gold.Chemscore.Internal_Hbond>
0.0000

> <Gold.Chemscore.DEClash>
0.1378

> <Gold.Chemscore.DEInternal>
1.7776

> <Gold.Chemscore.Rot>
1.9497

> <Gold.Chemscore.Internal.Correction>
   9.000000E+99

> <Gold.Chemscore.Hbonds>
donor molecule, donor type, donor heavy atom, donor atom, acceptor molecule, acceptor atom, score
      P1  H  7997  8010       L1     1  1.00
      P1  H 10752 10764       L1     3  0.06

> <Gold.Chemscore.Hbond.Weighted>
-10.2693

> <Gold.Chemscore.Metal.Weighted>
-0.0000

> <Gold.Chemscore.Lipo.Weighted>
-3.6741

> <Gold.Chemscore.Internal_Hbond.Weighted>
0.0000

> <Gold.Chemscore.DEClash.Weighted>
0.1378

> <Gold.Chemscore.DEInternal.Weighted>
1.7776

> <Gold.Chemscore.Rot.Weighted>
4.9912

> <Gold.Chemscore.Internal.Correction.Weighted>
   9.000000E+99

> <Gold.Protein.RotatedTorsions>
[ 6907 6896 6895 6894 ] final -156.46 input  -60.11 | X-H torsion
[ 7974 7965 7964 7962 ] final  -92.55 input  175.53 | X-H torsion
[ 8008 7997 7996 7995 ] final   81.20 input   59.86 | X-H torsion
[ 10167 10162 10161 10158 ] final   25.80 input  -65.29 | X-H torsion
[ 10718 10713 10712 10709 ] final -168.07 input   66.30 | X-H torsion
[ 10763 10752 10751 10750 ] final  -55.31 input  -60.55 | X-H torsion
[ 11005 11000 10999 10996 ] final   46.49 input  -57.11 | X-H torsion

> <Gold.Protein.ActiveResidues>
 VAL166  LYS551  ARG553  GLY616  TRP617  ASP618  TYR619  PRO620  LYS621  CYS622 
 ASP623  PHE694  ASN695  SER759  ASP760  ASP761  ALA762  ILE779  LEU786  VAL792 
 PHE793  MET794  SER795  GLU796  ALA797  LYS798  CYS799  TRP800  GLU811  SER814 

> <Gold.Protein.RotatedAtoms>
  151.2879  133.4179  159.2630 H   0  0  0  0  0  0  0  0  0  0  0  0  # atno 6907 bound_to 6896
  151.0303  134.9534  159.8117 H   0  0  0  0  0  0  0  0  0  0  0  0  # atno 6908 bound_to 6896
  152.5344  134.2840  159.9071 H   0  0  0  0  0  0  0  0  0  0  0  0  # atno 6909 bound_to 6896
  145.3984  140.9535  143.2301 H   0  0  0  0  0  0  0  0  0  0  0  0  # atno 7974 bound_to 7965
  155.8938  140.3437  155.5976 H   0  0  0  0  0  0  0  0  0  0  0  0  # atno 8008 bound_to 7997
  155.7579  140.0828  157.2188 H   0  0  0  0  0  0  0  0  0  0  0  0  # atno 8009 bound_to 7997
  154.4036  140.1541  156.2786 H   0  0  0  0  0  0  0  0  0  0  0  0  # atno 8010 bound_to 7997
  140.5076  144.0214  150.6358 H   0  0  0  0  0  0  0  0  0  0  0  0  # atno 10167 bound_to 10162
  156.6916  130.9161  151.3069 H   0  0  0  0  0  0  0  0  0  0  0  0  # atno 10718 bound_to 10713
  154.1887  135.6431  153.5054 H   0  0  0  0  0  0  0  0  0  0  0  0  # atno 10763 bound_to 10752
  153.0040  135.5423  154.6438 H   0  0  0  0  0  0  0  0  0  0  0  0  # atno 10764 bound_to 10752
  154.5821  135.2926  155.0695 H   0  0  0  0  0  0  0  0  0  0  0  0  # atno 10765 bound_to 10752
  140.1364  134.4639  155.8482 H   0  0  0  0  0  0  0  0  0  0  0  0  # atno 11005 bound_to 11000
  144.8391  139.5501  143.6908 LP  0  0  0  0  0  0  0  0  0  0  0  0  # atno 17320 bound_to 7965
  146.2764  139.6763  142.9260 LP  0  0  0  0  0  0  0  0  0  0  0  0  # atno 17321 bound_to 7965
  140.3527  143.2953  152.0469 LP  0  0  0  0  0  0  0  0  0  0  0  0  # atno 17342 bound_to 10162
  139.4887  144.6362  151.6971 LP  0  0  0  0  0  0  0  0  0  0  0  0  # atno 17343 bound_to 10162
  157.7007  130.9329  150.0776 LP  0  0  0  0  0  0  0  0  0  0  0  0  # atno 17370 bound_to 10713
  156.1793  130.3649  149.9057 LP  0  0  0  0  0  0  0  0  0  0  0  0  # atno 17371 bound_to 10713
  141.2179  133.6816  156.7166 LP  0  0  0  0  0  0  0  0  0  0  0  0  # atno 17394 bound_to 11000
  140.2776  134.8342  157.3904 LP  0  0  0  0  0  0  0  0  0  0  0  0  # atno 17395 bound_to 11000

$$$$
