AV-unprocessed.smi:3272|AV-procd|sdf|12518|dock9
  -GOLD-   2272018433D 1   1.00000     0.00000
 Structure written by MMmdl.
 35 36  0  0  0  0  0  0  0  0  1 V2000
  145.6066  128.8761  151.9592 C   0  0  0  0  0  0  0  0  0  0  0  0
  145.4882  130.3746  151.6565 C   0  0  0  0  0  0  0  0  0  0  0  0
  146.4844  131.1469  152.3726 N   0  0  0  0  0  0  0  0  0  0  0  0
  146.7694  132.4927  152.2530 C   0  0  0  0  0  0  0  0  0  0  0  0
  147.7754  132.7373  153.1445 C   0  0  0  0  0  0  0  0  0  0  0  0
  148.4401  133.9544  153.4398 N   0  0  0  0  0  0  0  0  0  0  0  0
  149.1013  134.2704  154.5652 C   0  0  0  0  0  0  0  0  0  0  0  0
  149.2115  133.5399  155.5499 O   0  0  0  0  0  0  0  0  0  0  0  0
  149.6276  135.5012  154.4889 N   0  0  0  0  0  0  0  0  0  0  0  0
  150.3919  136.1640  155.5407 C   0  0  0  0  0  0  0  0  0  0  0  0
  151.1025  137.4259  155.0178 C   0  0  2  0  0  0  0  0  0  0  0  0
  151.9243  138.1457  156.0671 C   0  0  0  0  0  0  0  0  0  0  0  0
  152.1056  139.5245  155.4389 C   0  0  0  0  0  0  0  0  0  0  0  0
  150.9481  139.7453  154.6377 O   0  0  0  0  0  0  0  0  0  0  0  0
  150.1752  138.5516  154.5559 C   0  0  0  0  0  0  0  0  0  0  0  0
  148.0498  131.4934  153.7698 C   0  0  0  0  0  0  0  0  0  0  0  0
  147.2669  130.5361  153.2965 N   0  0  0  0  0  0  0  0  0  0  0  0
  144.8432  128.3111  151.4243 H   0  0  0  0  0  0  0  0  0  0  0  0
  145.4822  128.6794  153.0245 H   0  0  0  0  0  0  0  0  0  0  0  0
  146.5798  128.4877  151.6573 H   0  0  0  0  0  0  0  0  0  0  0  0
  145.6027  130.5572  150.5872 H   0  0  0  0  0  0  0  0  0  0  0  0
  144.4986  130.7378  151.9360 H   0  0  0  0  0  0  0  0  0  0  0  0
  146.2379  133.1331  151.5645 H   0  0  0  0  0  0  0  0  0  0  0  0
  148.4095  134.6581  152.7168 H   0  0  0  0  0  0  0  0  0  0  0  0
  149.4834  136.0248  153.6380 H   0  0  0  0  0  0  0  0  0  0  0  0
  149.7572  136.4052  156.3954 H   0  0  0  0  0  0  0  0  0  0  0  0
  151.1343  135.4540  155.9059 H   0  0  0  0  0  0  0  0  0  0  0  0
  151.7621  137.1547  154.1916 H   0  0  0  0  0  0  0  0  0  0  0  0
  151.3625  138.2312  156.9986 H   0  0  0  0  0  0  0  0  0  0  0  0
  152.8715  137.6513  156.2843 H   0  0  0  0  0  0  0  0  0  0  0  0
  152.2281  140.3085  156.1866 H   0  0  0  0  0  0  0  0  0  0  0  0
  152.9824  139.5354  154.7902 H   0  0  0  0  0  0  0  0  0  0  0  0
  149.7946  138.3940  153.5465 H   0  0  0  0  0  0  0  0  0  0  0  0
  149.3212  138.6491  155.2276 H   0  0  0  0  0  0  0  0  0  0  0  0
  148.7746  131.2577  154.5351 H   0  0  0  0  0  0  0  0  0  0  0  0
  1  2  1  0  0  0  0
  1 18  1  0  0  0  0
  1 19  1  0  0  0  0
  1 20  1  0  0  0  0
  2  3  1  0  0  0  0
  2 21  1  0  0  0  0
  2 22  1  0  0  0  0
  3 17  1  0  0  0  0
  3  4  1  0  0  0  0
  4  5  2  0  0  0  0
  4 23  1  0  0  0  0
  5  6  1  0  0  0  0
  5 16  1  0  0  0  0
  6  7  1  0  0  0  0
  6 24  1  0  0  0  0
  7  8  2  0  0  0  0
  7  9  1  0  0  0  0
  9 10  1  0  0  0  0
  9 25  1  0  0  0  0
 10 11  1  0  0  0  0
 10 26  1  0  0  0  0
 10 27  1  0  0  0  0
 11 15  1  0  0  0  0
 11 12  1  0  0  0  0
 11 28  1  0  0  0  0
 12 13  1  0  0  0  0
 12 29  1  0  0  0  0
 12 30  1  0  0  0  0
 13 14  1  0  0  0  0
 13 31  1  0  0  0  0
 13 32  1  0  0  0  0
 14 15  1  0  0  0  0
 15 33  1  0  0  0  0
 15 34  1  0  0  0  0
 16 17  2  0  0  0  0
 16 35  1  0  0  0  0
M  END
> <s_m_source_file>
AV-unprocessed.smi

> <i_m_source_file_index>
3272

> <i_lp_mmshare_version>
43012

> <i_f3d_flags>
0

> <s_epik_input>
W0NIM11bQ0gyXW4xW2NIXWMoW2NIXW4xKVtOSF1DKD1PKVtOSF1bQ0gyXVtDQEBIXTJbQ0gyXVtDSDJdT1tDSDJdMg==

> <s_epik_cmdline>
J2VwaWtfcHl0aG9uJywgJy1waCcsICc3LjAnLCAnLXRuJywgJzgnLCAnLW1hJywgJzIwMCcsICctbWV0YWxfYmluZGluZycsICctaW1hZScsICc8aW5maWxlLm1hZT4nLCAnLW9tYWUnLCAnPG91dGZpbGUubWFlPic=

> <r_lp_tautomer_probability>
1

> <r_epik_Ionization_Penalty>
0.000182896

> <r_epik_Ionization_Penalty_Charging>
0

> <r_epik_Ionization_Penalty_Neutral>
0.000182896

> <r_epik_State_Penalty>
-0

> <r_epik_Charging_Adjusted_Penalty>
0

> <i_epik_Tot_Q>
0

> <i_epik_Tot_abs_Q>
0

> <r_epik_Metal_State_Penalty>
-0

> <b_epik_Metal_Only>
0

> <s_lp_Force_Field>
OPLS_2005

> <r_lp_Energy>
22.7112

> <b_lp_Chiralities_Consistent>
1

> <s_lp_Variant>
AV-unprocessed.smi:3272-1

> <Gold.Version>
5.8.1

> <Gold.Id.Protein>
6NUR|6NUR_protein|mol2

> <Gold.PLP.Fitness>
41.4964

> <Gold.PLP.PLP>
-32.9575

> <Gold.PLP.part.hbond>
-3.2143

> <Gold.PLP.part.metal>
0.0000

> <Gold.PLP.part.buried>
-3.2505

> <Gold.PLP.part.nonpolar>
-26.7518

> <Gold.PLP.part.repulsive>
0.2759

> <Gold.PLP.ligand.clash>
0.0000

> <Gold.PLP.ligand.torsion>
0.2341

> <Gold.PLP.Chemscore.Hbond>
3.0000

> <Gold.PLP.Chemscore.CHOScore>
0.0000

> <Gold.PLP.Chemscore.Metal>
0.0000

> <Gold.Chemscore.Hbonds>
donor molecule, donor type, donor heavy atom, donor atom, acceptor molecule, acceptor atom, score
      L1  H     6    24       P1  7948  1.00
      L1  H     9    25       P1  7948  1.00
      P1  H  7989  7998       L1    14  0.90

> <Gold.PLP.Chemscore.Internal.Correction>
0.0071

> <Gold.Rescore>
     Score         DG    S(hbond)    S(metal)    S(lipo)     H(rot)  DE(clash)    DE(int)     intcor
     16.25     -17.75       2.38        0.00      67.73       1.41       0.03       1.46       ----

> <Gold.Chemscore.Fitness>
16.2536

> <Gold.Chemscore.DG>
-17.7476

> <Gold.Chemscore.ZeroCoef>
-5.4800

> <Gold.Chemscore.Hbond>
2.3782

> <Gold.Chemscore.Metal>
0.0000

> <Gold.Chemscore.Lipo>
67.7341

> <Gold.Chemscore.Internal_Hbond>
0.0000

> <Gold.Chemscore.DEClash>
0.0344

> <Gold.Chemscore.DEInternal>
1.4596

> <Gold.Chemscore.Rot>
1.4064

> <Gold.Chemscore.Internal.Correction>
   9.000000E+99

> <Gold.Chemscore.Hbonds>
donor molecule, donor type, donor heavy atom, donor atom, acceptor molecule, acceptor atom, score
      L1  H     6    24       P1  7948  0.29
      L1  H     9    25       P1  7948  0.49
      P1  H  7989  7998       L1    14  0.18

> <Gold.Chemscore.Hbond.Weighted>
-7.9431

> <Gold.Chemscore.Metal.Weighted>
-0.0000

> <Gold.Chemscore.Lipo.Weighted>
-7.9249

> <Gold.Chemscore.Internal_Hbond.Weighted>
0.0000

> <Gold.Chemscore.DEClash.Weighted>
0.0344

> <Gold.Chemscore.DEInternal.Weighted>
1.4596

> <Gold.Chemscore.Rot.Weighted>
3.6004

> <Gold.Chemscore.Internal.Correction.Weighted>
   9.000000E+99

> <Gold.Protein.RotatedTorsions>
[ 6907 6896 6895 6894 ] final -119.76 input  -60.11 | X-H torsion
[ 7974 7965 7964 7962 ] final  166.17 input  175.53 | X-H torsion
[ 8008 7997 7996 7995 ] final   76.51 input   59.86 | X-H torsion
[ 10167 10162 10161 10158 ] final -109.10 input  -65.29 | X-H torsion
[ 10718 10713 10712 10709 ] final  -46.91 input   66.30 | X-H torsion
[ 10763 10752 10751 10750 ] final  -90.46 input  -60.55 | X-H torsion
[ 11005 11000 10999 10996 ] final  -84.62 input  -57.11 | X-H torsion

> <Gold.Protein.ActiveResidues>
 VAL166  LYS551  ARG553  GLY616  TRP617  ASP618  TYR619  PRO620  LYS621  CYS622 
 ASP623  PHE694  ASN695  SER759  ASP760  ASP761  ALA762  ILE779  LEU786  VAL792 
 PHE793  MET794  SER795  GLU796  ALA797  LYS798  CYS799  TRP800  GLU811  SER814 

> <Gold.Protein.RotatedAtoms>
  150.8333  133.8054  159.3089 H   0  0  0  0  0  0  0  0  0  0  0  0  # atno 6907 bound_to 6896
  151.5778  135.1058  160.0019 H   0  0  0  0  0  0  0  0  0  0  0  0  # atno 6908 bound_to 6896
  152.4410  133.7405  159.6695 H   0  0  0  0  0  0  0  0  0  0  0  0  # atno 6909 bound_to 6896
  144.7473  139.8576  143.6378 H   0  0  0  0  0  0  0  0  0  0  0  0  # atno 7974 bound_to 7965
  155.8284  140.3467  155.5557 H   0  0  0  0  0  0  0  0  0  0  0  0  # atno 8008 bound_to 7997
  155.8268  140.0921  157.1836 H   0  0  0  0  0  0  0  0  0  0  0  0  # atno 8009 bound_to 7997
  154.4004  140.1419  156.3553 H   0  0  0  0  0  0  0  0  0  0  0  0  # atno 8010 bound_to 7997
  140.1589  143.4136  152.1440 H   0  0  0  0  0  0  0  0  0  0  0  0  # atno 10167 bound_to 10162
  156.2137  130.4162  149.9082 H   0  0  0  0  0  0  0  0  0  0  0  0  # atno 10718 bound_to 10713
  154.6660  135.5303  153.8077 H   0  0  0  0  0  0  0  0  0  0  0  0  # atno 10763 bound_to 10752
  153.0471  135.6517  154.0799 H   0  0  0  0  0  0  0  0  0  0  0  0  # atno 10764 bound_to 10752
  154.0703  135.2955  155.3289 H   0  0  0  0  0  0  0  0  0  0  0  0  # atno 10765 bound_to 10752
  141.1649  133.7355  156.8894 H   0  0  0  0  0  0  0  0  0  0  0  0  # atno 11005 bound_to 11000
  146.1371  139.4419  143.0132 LP  0  0  0  0  0  0  0  0  0  0  0  0  # atno 17320 bound_to 7965
  145.7075  141.0117  143.1471 LP  0  0  0  0  0  0  0  0  0  0  0  0  # atno 17321 bound_to 7965
  139.5390  144.7238  151.4796 LP  0  0  0  0  0  0  0  0  0  0  0  0  # atno 17342 bound_to 10162
  140.6655  143.8406  150.6937 LP  0  0  0  0  0  0  0  0  0  0  0  0  # atno 17343 bound_to 10162
  156.6752  130.8836  151.3568 LP  0  0  0  0  0  0  0  0  0  0  0  0  # atno 17370 bound_to 10713
  157.7052  130.9377  150.0908 LP  0  0  0  0  0  0  0  0  0  0  0  0  # atno 17371 bound_to 10713
  140.1659  134.9134  157.2773 LP  0  0  0  0  0  0  0  0  0  0  0  0  # atno 17394 bound_to 11000
  140.2558  134.3629  155.7425 LP  0  0  0  0  0  0  0  0  0  0  0  0  # atno 17395 bound_to 11000

$$$$
