AV-unprocessed.smi:1399|AV-procd|sdf|5683|dock2
  -GOLD-   22720 5303D 1   1.00000     0.00000
 Structure written by MMmdl.
 38 39  0  0  0  0  0  0  0  0  2 V2000
  144.2560  133.7578  148.2296 N   0  0  0  0  0  0  0  0  0  0  0  0
  144.1360  132.9680  149.2989 C   0  0  0  0  0  0  0  0  0  0  0  0
  143.1660  132.2301  149.4632 O   0  0  0  0  0  0  0  0  0  0  0  0
  145.2614  133.0328  150.3365 C   0  0  0  0  0  0  0  0  0  0  0  0
  144.9346  133.9023  151.4962 N   0  3  2  0  0  0  0  0  0  0  0  0
  144.8671  135.3388  151.1250 C   0  0  0  0  0  0  0  0  0  0  0  0
  144.3756  136.1958  152.3056 C   0  0  0  0  0  0  0  0  0  0  0  0
  145.2366  135.9953  153.5649 C   0  0  2  0  0  0  0  0  0  0  0  0
  146.5568  136.6022  153.3896 N   0  0  0  0  0  0  0  0  0  0  0  0
  147.0136  137.6932  154.0220 C   0  0  0  0  0  0  0  0  0  0  0  0
  146.3613  138.3286  154.8495 O   0  0  0  0  0  0  0  0  0  0  0  0
  148.2637  137.9901  153.6324 N   0  0  0  0  0  0  0  0  0  0  0  0
  149.0640  139.0750  154.0699 C   0  0  0  0  0  0  0  0  0  0  0  0
  150.4511  139.0984  154.4003 C   0  0  0  0  0  0  0  0  0  0  0  0
  150.8344  140.3116  154.7722 N   0  0  0  0  0  0  0  0  0  0  0  0
  149.7111  141.0589  154.6844 N   0  0  0  0  0  0  0  0  0  0  0  0
  148.6111  140.3462  154.2616 C   0  0  0  0  0  0  0  0  0  0  0  0
  145.3638  134.4953  153.8835 C   0  0  0  0  0  0  0  0  0  0  0  0
  145.8310  133.6822  152.6629 C   0  0  0  0  0  0  0  0  0  0  0  0
  149.7119  142.0426  154.9140 H   0  0  0  0  0  0  0  0  0  0  0  0
  143.5351  133.7533  147.5218 H   0  0  0  0  0  0  0  0  0  0  0  0
  145.0589  134.3621  148.1289 H   0  0  0  0  0  0  0  0  0  0  0  0
  145.5241  132.0313  150.6816 H   0  0  0  0  0  0  0  0  0  0  0  0
  146.1374  133.4257  149.8187 H   0  0  0  0  0  0  0  0  0  0  0  0
  145.8495  135.6765  150.7910 H   0  0  0  0  0  0  0  0  0  0  0  0
  144.1859  135.4705  150.2837 H   0  0  0  0  0  0  0  0  0  0  0  0
  144.3573  137.2495  152.0237 H   0  0  0  0  0  0  0  0  0  0  0  0
  143.3432  135.9266  152.5333 H   0  0  0  0  0  0  0  0  0  0  0  0
  144.7224  136.4728  154.4005 H   0  0  0  0  0  0  0  0  0  0  0  0
  147.1747  136.1562  152.7280 H   0  0  0  0  0  0  0  0  0  0  0  0
  148.6874  137.3790  152.9498 H   0  0  0  0  0  0  0  0  0  0  0  0
  151.1810  138.3027  154.3879 H   0  0  0  0  0  0  0  0  0  0  0  0
  147.6357  140.7935  154.1391 H   0  0  0  0  0  0  0  0  0  0  0  0
  146.0466  134.3429  154.7205 H   0  0  0  0  0  0  0  0  0  0  0  0
  144.3949  134.1162  154.2112 H   0  0  0  0  0  0  0  0  0  0  0  0
  145.8503  132.6252  152.9290 H   0  0  0  0  0  0  0  0  0  0  0  0
  146.8530  133.9547  152.3951 H   0  0  0  0  0  0  0  0  0  0  0  0
  144.0028  133.6401  151.7865 H   0  0  0  0  0  0  0  0  0  0  0  0
  1  2  1  0  0  0  0
  1 21  1  0  0  0  0
  1 22  1  0  0  0  0
  2  3  2  0  0  0  0
  2  4  1  0  0  0  0
  4  5  1  0  0  0  0
  4 23  1  0  0  0  0
  4 24  1  0  0  0  0
  5 19  1  0  0  0  0
  5  6  1  0  0  0  0
  5 38  1  0  0  0  0
  6  7  1  0  0  0  0
  6 25  1  0  0  0  0
  6 26  1  0  0  0  0
  7  8  1  0  0  0  0
  7 27  1  0  0  0  0
  7 28  1  0  0  0  0
  8  9  1  0  0  0  0
  8 18  1  0  0  0  0
  8 29  1  0  0  0  0
  9 10  1  0  0  0  0
  9 30  1  0  0  0  0
 10 11  2  0  0  0  0
 10 12  1  0  0  0  0
 12 13  1  0  0  0  0
 12 31  1  0  0  0  0
 13 17  2  0  0  0  0
 13 14  1  0  0  0  0
 14 15  2  0  0  0  0
 14 32  1  0  0  0  0
 15 16  1  0  0  0  0
 16 20  1  0  0  0  0
 16 17  1  0  0  0  0
 17 33  1  0  0  0  0
 18 19  1  0  0  0  0
 18 34  1  0  0  0  0
 18 35  1  0  0  0  0
 19 36  1  0  0  0  0
 19 37  1  0  0  0  0
M  CHG  1   5   1
M  END
> <s_m_source_file>
AV-unprocessed.smi

> <i_m_source_file_index>
1399

> <i_lp_mmshare_version>
43012

> <i_f3d_flags>
0

> <s_epik_input>
W05IMl1DKD1PKVtDSDJdTjFbQ0gyXVtDSDJdW0NIXShbQ0gyXVtDSDJdMSlbTkhdQyg9TylbTkhdYzJbY0hdbltuSF1bY0hdMg==

> <s_epik_cmdline>
J2VwaWtfcHl0aG9uJywgJy1waCcsICc3LjAnLCAnLXRuJywgJzgnLCAnLW1hJywgJzIwMCcsICctbWV0YWxfYmluZGluZycsICctaW1hZScsICc8aW5maWxlLm1hZT4nLCAnLW9tYWUnLCAnPG91dGZpbGUubWFlPic=

> <r_lp_tautomer_probability>
0.5

> <r_epik_Ionization_Penalty>
0.838927

> <r_epik_Ionization_Penalty_Charging>
0.838844

> <r_epik_Ionization_Penalty_Neutral>
8.28742e-05

> <r_epik_State_Penalty>
0.8734

> <r_epik_Charging_Adjusted_Penalty>
1.71224

> <i_epik_Tot_Q>
1

> <i_epik_Tot_abs_Q>
1

> <r_epik_Metal_State_Penalty>
0.890702

> <b_epik_Metal_Only>
0

> <s_lp_Force_Field>
OPLS_2005

> <r_lp_Energy>
14.6422

> <b_lp_Chiralities_Consistent>
1

> <s_lp_Variant>
AV-unprocessed.smi:1399-3

> <Gold.Version>
5.8.1

> <Gold.Id.Protein>
6NUR|6NUR_protein|mol2

> <Gold.PLP.Fitness>
38.7822

> <Gold.PLP.PLP>
-25.4851

> <Gold.PLP.part.hbond>
-4.8977

> <Gold.PLP.part.metal>
0.0000

> <Gold.PLP.part.buried>
-5.4299

> <Gold.PLP.part.nonpolar>
-16.5170

> <Gold.PLP.part.repulsive>
1.4856

> <Gold.PLP.ligand.clash>
0.0000

> <Gold.PLP.ligand.torsion>
0.7818

> <Gold.PLP.Chemscore.Hbond>
4.9440

> <Gold.PLP.Chemscore.CHOScore>
0.0000

> <Gold.PLP.Chemscore.Metal>
0.0000

> <Gold.Chemscore.Hbonds>
donor molecule, donor type, donor heavy atom, donor atom, acceptor molecule, acceptor atom, score
      L1  H     1    22       P1  7921  0.31
      L1  H     9    30       P1  7948  0.91
      L1  H    12    31       P1  7948  1.00
      P1  H  7989  7998       L1    15  0.95
      P1  H 10785 10796       L1     3  0.55

> <Gold.PLP.Chemscore.Internal.Correction>
0.0286

> <Gold.Rescore>
     Score         DG    S(hbond)    S(metal)    S(lipo)     H(rot)  DE(clash)    DE(int)     intcor
     17.34     -18.36       3.95        0.00      43.14       2.09       0.28       0.74       ----

> <Gold.Chemscore.Fitness>
17.3359

> <Gold.Chemscore.DG>
-18.3629

> <Gold.Chemscore.ZeroCoef>
-5.4800

> <Gold.Chemscore.Hbond>
3.9453

> <Gold.Chemscore.Metal>
0.0000

> <Gold.Chemscore.Lipo>
43.1377

> <Gold.Chemscore.Internal_Hbond>
0.0000

> <Gold.Chemscore.DEClash>
0.2842

> <Gold.Chemscore.DEInternal>
0.7428

> <Gold.Chemscore.Rot>
2.0865

> <Gold.Chemscore.Internal.Correction>
   9.000000E+99

> <Gold.Chemscore.Hbonds>
donor molecule, donor type, donor heavy atom, donor atom, acceptor molecule, acceptor atom, score
      L1  H     1    22       P1  7921  0.31
      L1  H     9    30       P1  7948  0.88
      L1  H    12    31       P1  7948  0.98
      P1  H  7989  7998       L1    15  0.09
      P1  H 10785 10796       L1     3  0.55

> <Gold.Chemscore.Hbond.Weighted>
-13.1772

> <Gold.Chemscore.Metal.Weighted>
-0.0000

> <Gold.Chemscore.Lipo.Weighted>
-5.0471

> <Gold.Chemscore.Internal_Hbond.Weighted>
0.0000

> <Gold.Chemscore.DEClash.Weighted>
0.2842

> <Gold.Chemscore.DEInternal.Weighted>
0.7428

> <Gold.Chemscore.Rot.Weighted>
5.3415

> <Gold.Chemscore.Internal.Correction.Weighted>
   9.000000E+99

> <Gold.Protein.RotatedTorsions>
[ 6907 6896 6895 6894 ] final -144.17 input  -60.11 | X-H torsion
[ 7974 7965 7964 7962 ] final  -98.09 input  175.53 | X-H torsion
[ 8008 7997 7996 7995 ] final  -50.07 input   59.86 | X-H torsion
[ 10167 10162 10161 10158 ] final  114.96 input  -65.29 | X-H torsion
[ 10718 10713 10712 10709 ] final -146.20 input   66.30 | X-H torsion
[ 10763 10752 10751 10750 ] final -111.09 input  -60.55 | X-H torsion
[ 11005 11000 10999 10996 ] final  -66.52 input  -57.11 | X-H torsion

> <Gold.Protein.ActiveResidues>
 VAL166  LYS551  ARG553  GLY616  TRP617  ASP618  TYR619  PRO620  LYS621  CYS622 
 ASP623  PHE694  ASN695  SER759  ASP760  ASP761  ALA762  ILE779  LEU786  VAL792 
 PHE793  MET794  SER795  GLU796  ALA797  LYS798  CYS799  TRP800  GLU811  SER814 

> <Gold.Protein.RotatedAtoms>
  151.1104  133.5177  159.2605 H   0  0  0  0  0  0  0  0  0  0  0  0  # atno 6907 bound_to 6896
  151.1973  135.0427  159.8867 H   0  0  0  0  0  0  0  0  0  0  0  0  # atno 6908 bound_to 6896
  152.5449  134.0937  159.8341 H   0  0  0  0  0  0  0  0  0  0  0  0  # atno 6909 bound_to 6896
  145.3252  140.9430  143.2693 H   0  0  0  0  0  0  0  0  0  0  0  0  # atno 7974 bound_to 7965
  154.4055  140.1281  156.4605 H   0  0  0  0  0  0  0  0  0  0  0  0  # atno 8008 bound_to 7997
  155.7277  140.3492  155.5025 H   0  0  0  0  0  0  0  0  0  0  0  0  # atno 8009 bound_to 7997
  155.9156  140.1043  157.1236 H   0  0  0  0  0  0  0  0  0  0  0  0  # atno 8010 bound_to 7997
  139.6351  144.7119  151.2351 H   0  0  0  0  0  0  0  0  0  0  0  0  # atno 10167 bound_to 10162
  156.3919  130.7890  151.2093 H   0  0  0  0  0  0  0  0  0  0  0  0  # atno 10718 bound_to 10713
  154.8282  135.4540  154.0985 H   0  0  0  0  0  0  0  0  0  0  0  0  # atno 10763 bound_to 10752
  153.2281  135.6902  153.7928 H   0  0  0  0  0  0  0  0  0  0  0  0  # atno 10764 bound_to 10752
  153.7321  135.3325  155.3264 H   0  0  0  0  0  0  0  0  0  0  0  0  # atno 10765 bound_to 10752
  141.1484  133.6701  156.6151 H   0  0  0  0  0  0  0  0  0  0  0  0  # atno 11005 bound_to 11000
  144.8907  139.4778  143.6679 LP  0  0  0  0  0  0  0  0  0  0  0  0  # atno 17320 bound_to 7965
  146.3067  139.7604  142.9051 LP  0  0  0  0  0  0  0  0  0  0  0  0  # atno 17321 bound_to 7965
  140.7461  143.6410  150.8335 LP  0  0  0  0  0  0  0  0  0  0  0  0  # atno 17342 bound_to 10162
  140.0040  143.5713  152.2864 LP  0  0  0  0  0  0  0  0  0  0  0  0  # atno 17343 bound_to 10162
  157.7499  131.0313  150.4175 LP  0  0  0  0  0  0  0  0  0  0  0  0  # atno 17370 bound_to 10713
  156.4438  130.3997  149.6680 LP  0  0  0  0  0  0  0  0  0  0  0  0  # atno 17371 bound_to 10713
  140.3584  134.7709  157.4516 LP  0  0  0  0  0  0  0  0  0  0  0  0  # atno 17394 bound_to 11000
  140.0805  134.5738  155.8546 LP  0  0  0  0  0  0  0  0  0  0  0  0  # atno 17395 bound_to 11000

$$$$
