AV-unprocessed.smi:2139|AV-procd|sdf|8713|dock5
  -GOLD-   2272011473D 1   1.00000     0.00000
 Structure written by MMmdl.
 40 41  0  0  0  0  0  0  0  0  1 V2000
  151.4514  144.9463  160.5906 C   0  0  0  0  0  0  0  0  0  0  0  0
  150.8508  144.0113  159.5309 C   0  0  0  0  0  0  0  0  0  0  0  0
  151.1567  144.4337  158.0809 C   0  0  1  0  0  0  0  0  0  0  0  0
  152.6587  144.6610  157.8614 C   0  0  0  0  0  0  0  0  0  0  0  0
  150.6823  143.4228  157.1370 N   0  0  0  0  0  0  0  0  0  0  0  0
  151.0149  142.1210  157.1424 C   0  0  0  0  0  0  0  0  0  0  0  0
  151.7988  141.6193  157.9487 O   0  0  0  0  0  0  0  0  0  0  0  0
  150.3836  141.2972  156.0496 C   0  0  0  0  0  0  0  0  0  0  0  0
  149.4294  141.8954  155.1940 C   0  0  0  0  0  0  0  0  0  0  0  0
  148.7997  141.1202  154.2044 C   0  0  0  0  0  0  0  0  0  0  0  0
  149.1413  139.7607  154.1082 C   0  0  0  0  0  0  0  0  0  0  0  0
  150.0459  139.1698  154.9140 N   0  0  0  0  0  0  0  0  0  0  0  0
  150.6623  139.9093  155.8696 C   0  0  0  0  0  0  0  0  0  0  0  0
  151.6319  139.2467  156.6482 N   0  0  0  0  0  0  0  0  0  0  0  0
  151.1588  138.3629  157.7079 C   0  0  0  0  0  0  0  0  0  0  0  0
  152.3423  137.9364  158.5936 C   0  0  0  0  0  0  0  0  0  0  0  0
  153.3506  137.3324  157.7871 O   0  0  0  0  0  0  0  0  0  0  0  0
  153.8556  138.2265  156.7985 C   0  0  0  0  0  0  0  0  0  0  0  0
  152.7135  138.6631  155.8657 C   0  0  0  0  0  0  0  0  0  0  0  0
  151.2722  144.5591  161.5936 H   0  0  0  0  0  0  0  0  0  0  0  0
  151.0112  145.9416  160.5405 H   0  0  0  0  0  0  0  0  0  0  0  0
  152.5292  145.0486  160.4608 H   0  0  0  0  0  0  0  0  0  0  0  0
  151.2403  143.0062  159.6978 H   0  0  0  0  0  0  0  0  0  0  0  0
  149.7722  143.9455  159.6784 H   0  0  0  0  0  0  0  0  0  0  0  0
  150.6553  145.3855  157.8974 H   0  0  0  0  0  0  0  0  0  0  0  0
  153.0417  145.4292  158.5336 H   0  0  0  0  0  0  0  0  0  0  0  0
  152.8606  144.9880  156.8408 H   0  0  0  0  0  0  0  0  0  0  0  0
  153.2299  143.7491  158.0385 H   0  0  0  0  0  0  0  0  0  0  0  0
  150.0449  143.7396  156.4209 H   0  0  0  0  0  0  0  0  0  0  0  0
  149.1678  142.9389  155.2960 H   0  0  0  0  0  0  0  0  0  0  0  0
  148.0670  141.5555  153.5410 H   0  0  0  0  0  0  0  0  0  0  0  0
  148.6770  139.1305  153.3641 H   0  0  0  0  0  0  0  0  0  0  0  0
  150.4045  138.8724  158.3081 H   0  0  0  0  0  0  0  0  0  0  0  0
  150.6888  137.4809  157.2711 H   0  0  0  0  0  0  0  0  0  0  0  0
  152.7552  138.7927  159.1290 H   0  0  0  0  0  0  0  0  0  0  0  0
  152.0106  137.2198  159.3449 H   0  0  0  0  0  0  0  0  0  0  0  0
  154.3176  139.0920  157.2768 H   0  0  0  0  0  0  0  0  0  0  0  0
  154.6361  137.7228  156.2279 H   0  0  0  0  0  0  0  0  0  0  0  0
  152.3316  137.8037  155.3130 H   0  0  0  0  0  0  0  0  0  0  0  0
  153.0841  139.3754  155.1295 H   0  0  0  0  0  0  0  0  0  0  0  0
  1  2  1  0  0  0  0
  1 20  1  0  0  0  0
  1 21  1  0  0  0  0
  1 22  1  0  0  0  0
  2  3  1  0  0  0  0
  2 23  1  0  0  0  0
  2 24  1  0  0  0  0
  3  4  1  0  0  0  0
  3  5  1  0  0  0  0
  3 25  1  0  0  0  0
  4 26  1  0  0  0  0
  4 27  1  0  0  0  0
  4 28  1  0  0  0  0
  5  6  1  0  0  0  0
  5 29  1  0  0  0  0
  6  7  2  0  0  0  0
  6  8  1  0  0  0  0
  8 13  1  0  0  0  0
  8  9  2  0  0  0  0
  9 10  1  0  0  0  0
  9 30  1  0  0  0  0
 10 11  2  0  0  0  0
 10 31  1  0  0  0  0
 11 12  1  0  0  0  0
 11 32  1  0  0  0  0
 12 13  2  0  0  0  0
 13 14  1  0  0  0  0
 14 19  1  0  0  0  0
 14 15  1  0  0  0  0
 15 16  1  0  0  0  0
 15 33  1  0  0  0  0
 15 34  1  0  0  0  0
 16 17  1  0  0  0  0
 16 35  1  0  0  0  0
 16 36  1  0  0  0  0
 17 18  1  0  0  0  0
 18 19  1  0  0  0  0
 18 37  1  0  0  0  0
 18 38  1  0  0  0  0
 19 39  1  0  0  0  0
 19 40  1  0  0  0  0
M  END
> <s_m_source_file>
AV-unprocessed.smi

> <i_m_source_file_index>
2139

> <i_lp_mmshare_version>
43012

> <i_f3d_flags>
0

> <s_epik_input>
W0NIM11bQ0gyXVtDQEhdKFtDSDNdKVtOSF1DKD1PKWMxW2NIXVtjSF1bY0hdbmMxTjJbQ0gyXVtDSDJdT1tDSDJdW0NIMl0y

> <s_epik_cmdline>
J2VwaWtfcHl0aG9uJywgJy1waCcsICc3LjAnLCAnLXRuJywgJzgnLCAnLW1hJywgJzIwMCcsICctbWV0YWxfYmluZGluZycsICctaW1hZScsICc8aW5maWxlLm1hZT4nLCAnLW9tYWUnLCAnPG91dGZpbGUubWFlPic=

> <r_lp_tautomer_probability>
1

> <r_epik_Ionization_Penalty>
1.73125e-05

> <r_epik_Ionization_Penalty_Charging>
0

> <r_epik_Ionization_Penalty_Neutral>
1.73125e-05

> <r_epik_State_Penalty>
-0

> <r_epik_Charging_Adjusted_Penalty>
0

> <i_epik_Tot_Q>
0

> <i_epik_Tot_abs_Q>
0

> <r_epik_Metal_State_Penalty>
-0

> <b_epik_Metal_Only>
0

> <s_lp_Force_Field>
OPLS_2005

> <r_lp_Energy>
25.2402

> <b_lp_Chiralities_Consistent>
1

> <s_lp_Variant>
AV-unprocessed.smi:2139-2

> <Gold.Version>
5.8.1

> <Gold.Id.Protein>
6NUR|6NUR_protein|mol2

> <Gold.PLP.Fitness>
37.6617

> <Gold.PLP.PLP>
-33.7347

> <Gold.PLP.part.hbond>
-1.0000

> <Gold.PLP.part.metal>
0.0000

> <Gold.PLP.part.buried>
-0.0896

> <Gold.PLP.part.nonpolar>
-32.3395

> <Gold.PLP.part.repulsive>
0.1126

> <Gold.PLP.ligand.clash>
0.0000

> <Gold.PLP.ligand.torsion>
0.2889

> <Gold.PLP.Chemscore.Hbond>
0.9920

> <Gold.PLP.Chemscore.CHOScore>
0.4249

> <Gold.PLP.Chemscore.Metal>
0.0000

> <Gold.Chemscore.Hbonds>
donor molecule, donor type, donor heavy atom, donor atom, acceptor molecule, acceptor atom, score
      L1  H     5    29       P1  8028  1.00
      L1  C    11    32       P1  7957  0.45

> <Gold.PLP.Chemscore.Internal.Correction>
0.2541

> <Gold.Rescore>
     Score         DG    S(hbond)    S(metal)    S(lipo)     H(rot)  DE(clash)    DE(int)     intcor
     12.81     -16.88       0.98        0.00      97.91       1.30       1.35       2.73       ----

> <Gold.Chemscore.Fitness>
12.8062

> <Gold.Chemscore.DG>
-16.8817

> <Gold.Chemscore.ZeroCoef>
-5.4800

> <Gold.Chemscore.Hbond>
0.9836

> <Gold.Chemscore.Metal>
0.0000

> <Gold.Chemscore.Lipo>
97.9061

> <Gold.Chemscore.Internal_Hbond>
0.0000

> <Gold.Chemscore.DEClash>
1.3455

> <Gold.Chemscore.DEInternal>
2.7300

> <Gold.Chemscore.Rot>
1.3041

> <Gold.Chemscore.Internal.Correction>
   9.000000E+99

> <Gold.Chemscore.Hbonds>
donor molecule, donor type, donor heavy atom, donor atom, acceptor molecule, acceptor atom, score
      L1  H     5    29       P1  8028  0.99

> <Gold.Chemscore.Hbond.Weighted>
-3.2852

> <Gold.Chemscore.Metal.Weighted>
-0.0000

> <Gold.Chemscore.Lipo.Weighted>
-11.4550

> <Gold.Chemscore.Internal_Hbond.Weighted>
0.0000

> <Gold.Chemscore.DEClash.Weighted>
1.3455

> <Gold.Chemscore.DEInternal.Weighted>
2.7300

> <Gold.Chemscore.Rot.Weighted>
3.3385

> <Gold.Chemscore.Internal.Correction.Weighted>
   9.000000E+99

> <Gold.Protein.RotatedTorsions>
[ 6907 6896 6895 6894 ] final -124.65 input  -60.11 | X-H torsion
[ 7974 7965 7964 7962 ] final  -51.80 input  175.53 | X-H torsion
[ 8008 7997 7996 7995 ] final -157.28 input   59.86 | X-H torsion
[ 10167 10162 10161 10158 ] final   99.61 input  -65.29 | X-H torsion
[ 10718 10713 10712 10709 ] final  174.92 input   66.30 | X-H torsion
[ 10763 10752 10751 10750 ] final   45.61 input  -60.55 | X-H torsion
[ 11005 11000 10999 10996 ] final   25.55 input  -57.11 | X-H torsion

> <Gold.Protein.ActiveResidues>
 VAL166  LYS551  ARG553  GLY616  TRP617  ASP618  TYR619  PRO620  LYS621  CYS622 
 ASP623  PHE694  ASN695  SER759  ASP760  ASP761  ALA762  ILE779  LEU786  VAL792 
 PHE793  MET794  SER795  GLU796  ALA797  LYS798  CYS799  TRP800  GLU811  SER814 

> <Gold.Protein.RotatedAtoms>
  150.8789  133.7400  159.2938 H   0  0  0  0  0  0  0  0  0  0  0  0  # atno 6907 bound_to 6896
  151.4988  135.1059  159.9833 H   0  0  0  0  0  0  0  0  0  0  0  0  # atno 6908 bound_to 6896
  152.4746  133.8063  159.7035 H   0  0  0  0  0  0  0  0  0  0  0  0  # atno 6909 bound_to 6896
  145.9149  140.7883  142.9676 H   0  0  0  0  0  0  0  0  0  0  0  0  # atno 7974 bound_to 7965
  155.7301  140.0801  157.2293 H   0  0  0  0  0  0  0  0  0  0  0  0  # atno 8008 bound_to 7997
  154.4034  140.1597  156.2553 H   0  0  0  0  0  0  0  0  0  0  0  0  # atno 8009 bound_to 7997
  155.9117  140.3403  155.6107 H   0  0  0  0  0  0  0  0  0  0  0  0  # atno 8010 bound_to 7997
  139.7602  144.6957  151.0304 H   0  0  0  0  0  0  0  0  0  0  0  0  # atno 10167 bound_to 10162
  156.9425  131.0005  151.2965 H   0  0  0  0  0  0  0  0  0  0  0  0  # atno 10718 bound_to 10713
  152.9822  135.6034  154.3464 H   0  0  0  0  0  0  0  0  0  0  0  0  # atno 10763 bound_to 10752
  154.3157  135.2770  155.2546 H   0  0  0  0  0  0  0  0  0  0  0  0  # atno 10764 bound_to 10752
  154.4735  135.5935  153.6394 H   0  0  0  0  0  0  0  0  0  0  0  0  # atno 10765 bound_to 10752
  140.3466  134.2274  155.7684 H   0  0  0  0  0  0  0  0  0  0  0  0  # atno 11005 bound_to 11000
  144.6747  140.1884  143.7399 LP  0  0  0  0  0  0  0  0  0  0  0  0  # atno 17320 bound_to 7965
  145.8624  139.2229  143.1709 LP  0  0  0  0  0  0  0  0  0  0  0  0  # atno 17321 bound_to 7965
  140.7806  143.4706  151.0151 LP  0  0  0  0  0  0  0  0  0  0  0  0  # atno 17342 bound_to 10162
  139.8392  143.7586  152.3180 LP  0  0  0  0  0  0  0  0  0  0  0  0  # atno 17343 bound_to 10162
  157.5775  130.8353  149.8477 LP  0  0  0  0  0  0  0  0  0  0  0  0  # atno 17370 bound_to 10713
  156.0398  130.3742  150.1465 LP  0  0  0  0  0  0  0  0  0  0  0  0  # atno 17371 bound_to 10713
  141.2024  133.7939  157.0394 LP  0  0  0  0  0  0  0  0  0  0  0  0  # atno 17394 bound_to 11000
  140.0737  134.9688  157.1510 LP  0  0  0  0  0  0  0  0  0  0  0  0  # atno 17395 bound_to 11000

$$$$
