AV-unprocessed.smi:1997|AV-procd|sdf|8087|dock3
  -GOLD-   2272010303D 1   1.00000     0.00000
 Structure written by MMmdl.
 37 39  0  0  0  0  0  0  0  0  1 V2000
  146.2977  136.9628  153.6940 O   0  0  0  0  0  0  0  0  0  0  0  0
  145.5458  137.8569  153.3052 C   0  0  0  0  0  0  0  0  0  0  0  0
  145.7135  139.1708  153.5362 N   0  0  0  0  0  0  0  0  0  0  0  0
  146.7432  139.8104  154.2755 C   0  0  0  0  0  0  0  0  0  0  0  0
  146.8104  141.1349  154.4680 N   0  0  0  0  0  0  0  0  0  0  0  0
  147.9218  141.4934  155.2181 N   0  0  0  0  0  0  0  0  0  0  0  0
  148.6615  140.4344  155.5686 C   0  0  0  0  0  0  0  0  0  0  0  0
  149.9126  140.5672  156.3713 C   0  0  0  0  0  0  0  0  0  0  0  0
  150.9489  141.6096  156.0192 C   0  0  0  0  0  0  0  0  0  0  0  0
  151.2573  140.1481  155.8179 C   0  0  0  0  0  0  0  0  0  0  0  0
  148.0420  138.8848  155.0075 S   0  0  0  0  0  0  0  0  0  0  0  0
  144.4367  137.6297  152.5847 N   0  0  0  0  0  0  0  0  0  0  0  0
  143.9601  136.3144  152.1505 C   0  0  1  0  0  0  0  0  0  0  0  0
  145.0543  135.6961  151.2500 C   0  0  0  0  0  0  0  0  0  0  0  0
  144.5323  134.6074  150.2962 C   0  0  0  0  0  0  0  0  0  0  0  0
  143.9967  133.3431  150.9852 C   0  0  0  0  0  0  0  0  0  0  0  0
  142.7781  133.6000  151.8880 C   0  0  0  0  0  0  0  0  0  0  0  0
  143.1569  134.1874  153.1664 N   0  0  0  0  0  0  0  0  0  0  0  0
  143.7200  135.3886  153.3663 C   0  0  0  0  0  0  0  0  0  0  0  0
  144.0446  135.7423  154.4997 O   0  0  0  0  0  0  0  0  0  0  0  0
  145.0147  139.7863  153.1473 H   0  0  0  0  0  0  0  0  0  0  0  0
  149.7153  140.3796  157.4250 H   0  0  0  0  0  0  0  0  0  0  0  0
  150.7779  142.2130  155.1298 H   0  0  0  0  0  0  0  0  0  0  0  0
  151.4458  142.1206  156.8412 H   0  0  0  0  0  0  0  0  0  0  0  0
  151.9604  139.6839  156.5063 H   0  0  0  0  0  0  0  0  0  0  0  0
  151.3040  139.7881  154.7922 H   0  0  0  0  0  0  0  0  0  0  0  0
  143.8845  138.4253  152.3007 H   0  0  0  0  0  0  0  0  0  0  0  0
  143.0343  136.4402  151.5861 H   0  0  0  0  0  0  0  0  0  0  0  0
  145.4878  136.4811  150.6280 H   0  0  0  0  0  0  0  0  0  0  0  0
  145.8815  135.3094  151.8481 H   0  0  0  0  0  0  0  0  0  0  0  0
  143.7551  135.0290  149.6574 H   0  0  0  0  0  0  0  0  0  0  0  0
  145.3416  134.3178  149.6250 H   0  0  0  0  0  0  0  0  0  0  0  0
  143.7078  132.6326  150.2101 H   0  0  0  0  0  0  0  0  0  0  0  0
  144.7911  132.8574  151.5536 H   0  0  0  0  0  0  0  0  0  0  0  0
  142.0363  134.2219  151.3847 H   0  0  0  0  0  0  0  0  0  0  0  0
  142.2865  132.6512  152.1044 H   0  0  0  0  0  0  0  0  0  0  0  0
  143.0034  133.6128  153.9825 H   0  0  0  0  0  0  0  0  0  0  0  0
  1  2  2  0  0  0  0
  2  3  1  0  0  0  0
  2 12  1  0  0  0  0
  3  4  1  0  0  0  0
  3 21  1  0  0  0  0
  4 11  1  0  0  0  0
  4  5  2  0  0  0  0
  5  6  1  0  0  0  0
  6  7  2  0  0  0  0
  7  8  1  0  0  0  0
  7 11  1  0  0  0  0
  8 10  1  0  0  0  0
  8  9  1  0  0  0  0
  8 22  1  0  0  0  0
  9 10  1  0  0  0  0
  9 23  1  0  0  0  0
  9 24  1  0  0  0  0
 10 25  1  0  0  0  0
 10 26  1  0  0  0  0
 12 13  1  0  0  0  0
 12 27  1  0  0  0  0
 13 19  1  0  0  0  0
 13 14  1  0  0  0  0
 13 28  1  0  0  0  0
 14 15  1  0  0  0  0
 14 29  1  0  0  0  0
 14 30  1  0  0  0  0
 15 16  1  0  0  0  0
 15 31  1  0  0  0  0
 15 32  1  0  0  0  0
 16 17  1  0  0  0  0
 16 33  1  0  0  0  0
 16 34  1  0  0  0  0
 17 18  1  0  0  0  0
 17 35  1  0  0  0  0
 17 36  1  0  0  0  0
 18 19  1  0  0  0  0
 18 37  1  0  0  0  0
 19 20  2  0  0  0  0
M  END
> <s_m_source_file>
AV-unprocessed.smi

> <i_m_source_file_index>
1997

> <i_lp_mmshare_version>
43012

> <i_f3d_flags>
0

> <s_epik_input>
W0NIMl0xW0NIMl1bQ0hdMWMoczIpbm5jMltOSF1DKD1PKVtOSF1bQ0BASF0zW0NIMl1bQ0gyXVtDSDJdW0NIMl1bTkhdQzM9Tw==

> <s_epik_cmdline>
J2VwaWtfcHl0aG9uJywgJy1waCcsICc3LjAnLCAnLXRuJywgJzgnLCAnLW1hJywgJzIwMCcsICctbWV0YWxfYmluZGluZycsICctaW1hZScsICc8aW5maWxlLm1hZT4nLCAnLW9tYWUnLCAnPG91dGZpbGUubWFlPic=

> <r_lp_tautomer_probability>
1

> <r_epik_Ionization_Penalty>
0.000421558

> <r_epik_Ionization_Penalty_Charging>
0

> <r_epik_Ionization_Penalty_Neutral>
0.000421558

> <r_epik_State_Penalty>
-0

> <r_epik_Charging_Adjusted_Penalty>
0

> <i_epik_Tot_Q>
0

> <i_epik_Tot_abs_Q>
0

> <r_epik_Metal_State_Penalty>
0.200761

> <b_epik_Metal_Only>
0

> <s_lp_Force_Field>
OPLS_2005

> <r_lp_Energy>
8.5849

> <b_lp_Chiralities_Consistent>
1

> <s_lp_Variant>
AV-unprocessed.smi:1997-2

> <Gold.Version>
5.8.1

> <Gold.Id.Protein>
6NUR|6NUR_protein|mol2

> <Gold.PLP.Fitness>
34.9065

> <Gold.PLP.PLP>
-26.3254

> <Gold.PLP.part.hbond>
-4.0000

> <Gold.PLP.part.metal>
0.0000

> <Gold.PLP.part.buried>
-1.9342

> <Gold.PLP.part.nonpolar>
-19.9604

> <Gold.PLP.part.repulsive>
0.4109

> <Gold.PLP.ligand.clash>
0.0000

> <Gold.PLP.ligand.torsion>
0.1647

> <Gold.PLP.Chemscore.Hbond>
2.9280

> <Gold.PLP.Chemscore.CHOScore>
0.0000

> <Gold.PLP.Chemscore.Metal>
0.0000

> <Gold.Chemscore.Hbonds>
donor molecule, donor type, donor heavy atom, donor atom, acceptor molecule, acceptor atom, score
      L1  H     3    21       P1 10175  1.00
      L1  H    12    27       P1 10175  0.93
      L1  H    18    37       P1 10957  0.95

> <Gold.PLP.Chemscore.Internal.Correction>
0.1265

> <Gold.Rescore>
     Score         DG    S(hbond)    S(metal)    S(lipo)     H(rot)  DE(clash)    DE(int)     intcor
     12.49     -17.80       2.72        0.00      55.73       1.29       0.11       5.20       ----

> <Gold.Chemscore.Fitness>
12.4927

> <Gold.Chemscore.DG>
-17.8036

> <Gold.Chemscore.ZeroCoef>
-5.4800

> <Gold.Chemscore.Hbond>
2.7232

> <Gold.Chemscore.Metal>
0.0000

> <Gold.Chemscore.Lipo>
55.7291

> <Gold.Chemscore.Internal_Hbond>
0.0000

> <Gold.Chemscore.DEClash>
0.1078

> <Gold.Chemscore.DEInternal>
5.2030

> <Gold.Chemscore.Rot>
1.2860

> <Gold.Chemscore.Internal.Correction>
   9.000000E+99

> <Gold.Chemscore.Hbonds>
donor molecule, donor type, donor heavy atom, donor atom, acceptor molecule, acceptor atom, score
      L1  H     3    21       P1 10175  1.00
      L1  H    12    27       P1 10175  0.84
      L1  H    18    37       P1 10957  0.85

> <Gold.Chemscore.Hbond.Weighted>
-9.0955

> <Gold.Chemscore.Metal.Weighted>
-0.0000

> <Gold.Chemscore.Lipo.Weighted>
-6.5203

> <Gold.Chemscore.Internal_Hbond.Weighted>
0.0000

> <Gold.Chemscore.DEClash.Weighted>
0.1078

> <Gold.Chemscore.DEInternal.Weighted>
5.2030

> <Gold.Chemscore.Rot.Weighted>
3.2923

> <Gold.Chemscore.Internal.Correction.Weighted>
   9.000000E+99

> <Gold.Protein.RotatedTorsions>
[ 6907 6896 6895 6894 ] final  172.73 input  -60.11 | X-H torsion
[ 7974 7965 7964 7962 ] final   28.18 input  175.53 | X-H torsion
[ 8008 7997 7996 7995 ] final  -67.56 input   59.86 | X-H torsion
[ 10167 10162 10161 10158 ] final  109.60 input  -65.29 | X-H torsion
[ 10718 10713 10712 10709 ] final -102.90 input   66.30 | X-H torsion
[ 10763 10752 10751 10750 ] final   46.40 input  -60.55 | X-H torsion
[ 11005 11000 10999 10996 ] final  -91.00 input  -57.11 | X-H torsion

> <Gold.Protein.ActiveResidues>
 VAL166  LYS551  ARG553  GLY616  TRP617  ASP618  TYR619  PRO620  LYS621  CYS622 
 ASP623  PHE694  ASN695  SER759  ASP760  ASP761  ALA762  ILE779  LEU786  VAL792 
 PHE793  MET794  SER795  GLU796  ALA797  LYS798  CYS799  TRP800  GLU811  SER814 

> <Gold.Protein.RotatedAtoms>
  151.7797  133.3348  159.3467 H   0  0  0  0  0  0  0  0  0  0  0  0  # atno 6907 bound_to 6896
  150.7431  134.5942  159.6012 H   0  0  0  0  0  0  0  0  0  0  0  0  # atno 6908 bound_to 6896
  152.3285  134.7292  160.0347 H   0  0  0  0  0  0  0  0  0  0  0  0  # atno 6909 bound_to 6896
  146.1743  139.7090  142.8945 H   0  0  0  0  0  0  0  0  0  0  0  0  # atno 7974 bound_to 7965
  154.4808  140.0890  156.7372 H   0  0  0  0  0  0  0  0  0  0  0  0  # atno 8008 bound_to 7997
  155.4476  140.3456  155.4279 H   0  0  0  0  0  0  0  0  0  0  0  0  # atno 8009 bound_to 7997
  156.1188  140.1468  156.9222 H   0  0  0  0  0  0  0  0  0  0  0  0  # atno 8010 bound_to 7997
  139.6754  144.7122  151.1612 H   0  0  0  0  0  0  0  0  0  0  0  0  # atno 10167 bound_to 10162
  156.0245  130.5442  150.7175 H   0  0  0  0  0  0  0  0  0  0  0  0  # atno 10718 bound_to 10713
  152.9811  135.6009  154.3594 H   0  0  0  0  0  0  0  0  0  0  0  0  # atno 10763 bound_to 10752
  154.3277  135.2769  155.2489 H   0  0  0  0  0  0  0  0  0  0  0  0  # atno 10764 bound_to 10752
  154.4628  135.5961  153.6323 H   0  0  0  0  0  0  0  0  0  0  0  0  # atno 10765 bound_to 10752
  141.1554  133.7728  156.9818 H   0  0  0  0  0  0  0  0  0  0  0  0  # atno 11005 bound_to 11000
  145.4255  141.0410  143.2940 LP  0  0  0  0  0  0  0  0  0  0  0  0  # atno 17320 bound_to 7965
  144.8211  139.5790  143.6986 LP  0  0  0  0  0  0  0  0  0  0  0  0  # atno 17321 bound_to 7965
  140.7633  143.5780  150.8925 LP  0  0  0  0  0  0  0  0  0  0  0  0  # atno 17342 bound_to 10162
  139.9449  143.6339  152.3044 LP  0  0  0  0  0  0  0  0  0  0  0  0  # atno 17343 bound_to 10162
  157.4799  131.0901  151.0548 LP  0  0  0  0  0  0  0  0  0  0  0  0  # atno 17370 bound_to 10713
  157.0985  130.5972  149.5455 LP  0  0  0  0  0  0  0  0  0  0  0  0  # atno 17371 bound_to 10713
  140.1061  134.9506  157.1996 LP  0  0  0  0  0  0  0  0  0  0  0  0  # atno 17394 bound_to 11000
  140.3255  134.2868  155.7238 LP  0  0  0  0  0  0  0  0  0  0  0  0  # atno 17395 bound_to 11000

$$$$
