AV-unprocessed.smi:2923|AV-procd|sdf|11213|dock5
  -GOLD-   2272016103D 1   1.00000     0.00000
 Structure written by MMmdl.
 46 48  0  0  0  0  0  0  0  0  1 V2000
  150.4243  123.1860  152.8531 C   0  0  0  0  0  0  0  0  0  0  0  0
  149.3497  123.2765  151.8770 N   0  0  0  0  0  0  0  0  0  0  0  0
  148.2333  122.3624  152.0630 C   0  0  0  0  0  0  0  0  0  0  0  0
  148.9462  124.5964  151.6359 C   0  0  0  0  0  0  0  0  0  0  0  0
  149.1871  125.2233  150.3923 C   0  0  0  0  0  0  0  0  0  0  0  0
  148.7560  126.5506  150.2068 C   0  0  0  0  0  0  0  0  0  0  0  0
  148.0904  127.2079  151.2689 C   0  0  0  0  0  0  0  0  0  0  0  0
  147.6224  128.5484  151.2148 N   0  0  0  0  0  0  0  0  0  0  0  0
  146.5566  129.0901  151.8285 C   0  0  0  0  0  0  0  0  0  0  0  0
  145.7799  128.4904  152.5713 O   0  0  0  0  0  0  0  0  0  0  0  0
  146.4497  130.3936  151.5413 N   0  0  0  0  0  0  0  0  0  0  0  0
  145.4069  131.2898  152.0451 C   0  0  1  0  0  0  0  0  0  0  0  0
  145.9314  132.2897  153.1003 C   0  0  1  0  0  0  0  0  0  0  0  0
  147.2934  132.1694  153.7396 C   0  0  0  0  0  0  0  0  0  0  0  0
  148.1457  133.1285  152.9034 C   0  0  0  0  0  0  0  0  0  0  0  0
  147.4333  133.2745  151.6765 O   0  0  0  0  0  0  0  0  0  0  0  0
  146.0414  133.3151  151.9835 C   0  0  1  0  0  0  0  0  0  0  0  0
  145.1130  132.4717  151.0841 C   0  0  0  0  0  0  0  0  0  0  0  0
  145.5212  132.3449  149.6099 C   0  0  0  0  0  0  0  0  0  0  0  0
  143.6524  132.9327  151.0871 C   0  0  0  0  0  0  0  0  0  0  0  0
  147.9132  126.4951  152.4729 C   0  0  0  0  0  0  0  0  0  0  0  0
  148.3219  125.2219  152.6568 N   0  0  0  0  0  0  0  0  0  0  0  0
  151.2158  123.9019  152.6276 H   0  0  0  0  0  0  0  0  0  0  0  0
  150.8609  122.1871  152.8400 H   0  0  0  0  0  0  0  0  0  0  0  0
  150.0550  123.3847  153.8597 H   0  0  0  0  0  0  0  0  0  0  0  0
  147.4892  122.4951  151.2765 H   0  0  0  0  0  0  0  0  0  0  0  0
  147.7499  122.5234  153.0273 H   0  0  0  0  0  0  0  0  0  0  0  0
  148.5826  121.3304  152.0245 H   0  0  0  0  0  0  0  0  0  0  0  0
  149.6947  124.7016  149.5941 H   0  0  0  0  0  0  0  0  0  0  0  0
  148.9562  127.0361  149.2646 H   0  0  0  0  0  0  0  0  0  0  0  0
  148.2044  129.1874  150.6931 H   0  0  0  0  0  0  0  0  0  0  0  0
  147.1360  130.8034  150.9244 H   0  0  0  0  0  0  0  0  0  0  0  0
  144.4999  130.7815  152.3773 H   0  0  0  0  0  0  0  0  0  0  0  0
  145.1412  132.5609  153.8023 H   0  0  0  0  0  0  0  0  0  0  0  0
  147.2837  132.4663  154.7887 H   0  0  0  0  0  0  0  0  0  0  0  0
  147.6808  131.1516  153.6947 H   0  0  0  0  0  0  0  0  0  0  0  0
  148.2148  134.1024  153.3903 H   0  0  0  0  0  0  0  0  0  0  0  0
  149.1572  132.7575  152.7377 H   0  0  0  0  0  0  0  0  0  0  0  0
  145.6814  134.3091  152.2531 H   0  0  0  0  0  0  0  0  0  0  0  0
  145.3446  133.2728  149.0652 H   0  0  0  0  0  0  0  0  0  0  0  0
  144.9596  131.5566  149.1078 H   0  0  0  0  0  0  0  0  0  0  0  0
  146.5796  132.1116  149.4925 H   0  0  0  0  0  0  0  0  0  0  0  0
  143.5368  133.9011  150.5994 H   0  0  0  0  0  0  0  0  0  0  0  0
  143.2644  133.0363  152.1008 H   0  0  0  0  0  0  0  0  0  0  0  0
  143.0081  132.2225  150.5677 H   0  0  0  0  0  0  0  0  0  0  0  0
  147.4228  126.9581  153.3168 H   0  0  0  0  0  0  0  0  0  0  0  0
  1  2  1  0  0  0  0
  1 23  1  0  0  0  0
  1 24  1  0  0  0  0
  1 25  1  0  0  0  0
  2  3  1  0  0  0  0
  2  4  1  0  0  0  0
  3 26  1  0  0  0  0
  3 27  1  0  0  0  0
  3 28  1  0  0  0  0
  4 22  1  0  0  0  0
  4  5  2  0  0  0  0
  5  6  1  0  0  0  0
  5 29  1  0  0  0  0
  6  7  2  0  0  0  0
  6 30  1  0  0  0  0
  7  8  1  0  0  0  0
  7 21  1  0  0  0  0
  8  9  1  0  0  0  0
  8 31  1  0  0  0  0
  9 10  2  0  0  0  0
  9 11  1  0  0  0  0
 11 12  1  0  0  0  0
 11 32  1  0  0  0  0
 12 18  1  0  0  0  0
 12 13  1  0  0  0  0
 12 33  1  0  0  0  0
 13 17  1  0  0  0  0
 13 14  1  0  0  0  0
 13 34  1  0  0  0  0
 14 15  1  0  0  0  0
 14 35  1  0  0  0  0
 14 36  1  0  0  0  0
 15 16  1  0  0  0  0
 15 37  1  0  0  0  0
 15 38  1  0  0  0  0
 16 17  1  0  0  0  0
 17 18  1  0  0  0  0
 17 39  1  0  0  0  0
 18 19  1  0  0  0  0
 18 20  1  0  0  0  0
 19 40  1  0  0  0  0
 19 41  1  0  0  0  0
 19 42  1  0  0  0  0
 20 43  1  0  0  0  0
 20 44  1  0  0  0  0
 20 45  1  0  0  0  0
 21 22  2  0  0  0  0
 21 46  1  0  0  0  0
M  END
> <s_m_source_file>
AV-unprocessed.smi

> <i_m_source_file_index>
2923

> <i_lp_mmshare_version>
43012

> <i_f3d_flags>
0

> <s_epik_input>
W0NIM11OKFtDSDNdKWMxW2NIXVtjSF1jKFtjSF1uMSlbTkhdQyg9TylbTkhdW0NASF0yQyhbQ0gzXSkoW0NIM10pW0NAQEhdKFtDQEhdMjMpT1tDSDJdW0NIMl0z

> <s_epik_cmdline>
J2VwaWtfcHl0aG9uJywgJy1waCcsICc3LjAnLCAnLXRuJywgJzgnLCAnLW1hJywgJzIwMCcsICctbWV0YWxfYmluZGluZycsICctaW1hZScsICc8aW5maWxlLm1hZT4nLCAnLW9tYWUnLCAnPG91dGZpbGUubWFlPic=

> <r_lp_tautomer_probability>
1

> <r_epik_Ionization_Penalty>
0.628785

> <r_epik_Ionization_Penalty_Charging>
0

> <r_epik_Ionization_Penalty_Neutral>
0.628785

> <r_epik_State_Penalty>
0.644286

> <r_epik_Charging_Adjusted_Penalty>
0.644286

> <i_epik_Tot_Q>
0

> <i_epik_Tot_abs_Q>
0

> <r_epik_Metal_State_Penalty>
0.308404

> <b_epik_Metal_Only>
0

> <s_lp_Force_Field>
OPLS_2005

> <r_lp_Energy>
44.9089

> <b_lp_Chiralities_Consistent>
1

> <s_lp_Variant>
AV-unprocessed.smi:2923-12

> <Gold.Version>
5.8.1

> <Gold.Id.Protein>
6NUR|6NUR_protein|mol2

> <Gold.PLP.Fitness>
44.5412

> <Gold.PLP.PLP>
-39.8508

> <Gold.PLP.part.hbond>
-2.0000

> <Gold.PLP.part.metal>
0.0000

> <Gold.PLP.part.buried>
-6.1858

> <Gold.PLP.part.nonpolar>
-30.7501

> <Gold.PLP.part.repulsive>
0.5173

> <Gold.PLP.ligand.clash>
0.0000

> <Gold.PLP.ligand.torsion>
0.5678

> <Gold.PLP.Chemscore.Hbond>
1.8100

> <Gold.PLP.Chemscore.CHOScore>
0.0000

> <Gold.PLP.Chemscore.Metal>
0.0000

> <Gold.Chemscore.Hbonds>
donor molecule, donor type, donor heavy atom, donor atom, acceptor molecule, acceptor atom, score
      L1  H     8    31       P1 10747  0.85
      L1  H    11    32       P1 10747  0.98

> <Gold.PLP.Chemscore.Internal.Correction>
0.3960

> <Gold.Rescore>
     Score         DG    S(hbond)    S(metal)    S(lipo)     H(rot)  DE(clash)    DE(int)     intcor
     14.43     -16.82       0.95        0.00      95.99       1.19       0.28       2.11       ----

> <Gold.Chemscore.Fitness>
14.4268

> <Gold.Chemscore.DG>
-16.8246

> <Gold.Chemscore.ZeroCoef>
-5.4800

> <Gold.Chemscore.Hbond>
0.9490

> <Gold.Chemscore.Metal>
0.0000

> <Gold.Chemscore.Lipo>
95.9890

> <Gold.Chemscore.Internal_Hbond>
0.0000

> <Gold.Chemscore.DEClash>
0.2840

> <Gold.Chemscore.DEInternal>
2.1137

> <Gold.Chemscore.Rot>
1.1937

> <Gold.Chemscore.Internal.Correction>
   9.000000E+99

> <Gold.Chemscore.Hbonds>
donor molecule, donor type, donor heavy atom, donor atom, acceptor molecule, acceptor atom, score
      L1  H     8    31       P1 10747  0.15
      L1  H    11    32       P1 10747  0.91

> <Gold.Chemscore.Hbond.Weighted>
-3.1697

> <Gold.Chemscore.Metal.Weighted>
-0.0000

> <Gold.Chemscore.Lipo.Weighted>
-11.2307

> <Gold.Chemscore.Internal_Hbond.Weighted>
0.0000

> <Gold.Chemscore.DEClash.Weighted>
0.2840

> <Gold.Chemscore.DEInternal.Weighted>
2.1137

> <Gold.Chemscore.Rot.Weighted>
3.0559

> <Gold.Chemscore.Internal.Correction.Weighted>
   9.000000E+99

> <Gold.Protein.RotatedTorsions>
[ 6907 6896 6895 6894 ] final  153.71 input  -60.11 | X-H torsion
[ 7974 7965 7964 7962 ] final   95.97 input  175.53 | X-H torsion
[ 8008 7997 7996 7995 ] final -177.64 input   59.86 | X-H torsion
[ 10167 10162 10161 10158 ] final   90.20 input  -65.29 | X-H torsion
[ 10718 10713 10712 10709 ] final  -71.59 input   66.30 | X-H torsion
[ 10763 10752 10751 10750 ] final  -39.62 input  -60.55 | X-H torsion
[ 11005 11000 10999 10996 ] final  148.50 input  -57.11 | X-H torsion

> <Gold.Protein.ActiveResidues>
 VAL166  LYS551  ARG553  GLY616  TRP617  ASP618  TYR619  PRO620  LYS621  CYS622 
 ASP623  PHE694  ASN695  SER759  ASP760  ASP761  ALA762  ILE779  LEU786  VAL792 
 PHE793  MET794  SER795  GLU796  ALA797  LYS798  CYS799  TRP800  GLU811  SER814 

> <Gold.Protein.RotatedAtoms>
  152.0689  133.4097  159.4449 H   0  0  0  0  0  0  0  0  0  0  0  0  # atno 6907 bound_to 6896
  150.6864  134.3115  159.4757 H   0  0  0  0  0  0  0  0  0  0  0  0  # atno 6908 bound_to 6896
  152.0944  134.9384  160.0622 H   0  0  0  0  0  0  0  0  0  0  0  0  # atno 6909 bound_to 6896
  145.4451  139.2298  143.3070 H   0  0  0  0  0  0  0  0  0  0  0  0  # atno 7974 bound_to 7965
  156.0093  140.1237  157.0470 H   0  0  0  0  0  0  0  0  0  0  0  0  # atno 8008 bound_to 7997
  154.4270  140.1091  156.5876 H   0  0  0  0  0  0  0  0  0  0  0  0  # atno 8009 bound_to 7997
  155.6102  140.3471  155.4622 H   0  0  0  0  0  0  0  0  0  0  0  0  # atno 8010 bound_to 7997
  139.8497  144.6600  150.9185 H   0  0  0  0  0  0  0  0  0  0  0  0  # atno 10167 bound_to 10162
  156.0356  130.4354  150.2466 H   0  0  0  0  0  0  0  0  0  0  0  0  # atno 10718 bound_to 10713
  153.9324  135.6770  153.4745 H   0  0  0  0  0  0  0  0  0  0  0  0  # atno 10763 bound_to 10752
  153.0972  135.4845  154.8798 H   0  0  0  0  0  0  0  0  0  0  0  0  # atno 10764 bound_to 10752
  154.7421  135.3163  154.8668 H   0  0  0  0  0  0  0  0  0  0  0  0  # atno 10765 bound_to 10752
  140.0965  134.9009  157.1730 H   0  0  0  0  0  0  0  0  0  0  0  0  # atno 11005 bound_to 11000
  146.2535  140.5204  142.8883 LP  0  0  0  0  0  0  0  0  0  0  0  0  # atno 17320 bound_to 7965
  144.8097  140.6363  143.6424 LP  0  0  0  0  0  0  0  0  0  0  0  0  # atno 17321 bound_to 7965
  140.7789  143.3839  151.1429 LP  0  0  0  0  0  0  0  0  0  0  0  0  # atno 17342 bound_to 10162
  139.7478  143.8825  152.3068 LP  0  0  0  0  0  0  0  0  0  0  0  0  # atno 17343 bound_to 10162
  157.0566  131.0078  151.3236 LP  0  0  0  0  0  0  0  0  0  0  0  0  # atno 17370 bound_to 10713
  157.5102  130.7933  149.7696 LP  0  0  0  0  0  0  0  0  0  0  0  0  # atno 17371 bound_to 10713
  140.3280  134.2842  155.7233 LP  0  0  0  0  0  0  0  0  0  0  0  0  # atno 17394 bound_to 11000
  141.2093  133.7752  157.0003 LP  0  0  0  0  0  0  0  0  0  0  0  0  # atno 17395 bound_to 11000

$$$$
