AV-unprocessed.smi:102|AV-procd|sdf|959|dock5
  -GOLD-   2262017493D 1   1.00000     0.00000
 Structure written by MMmdl.
 44 45  0  0  0  0  0  0  0  0  1 V2000
  146.4536  142.4016  157.8362 C   0  0  0  0  0  0  0  0  0  0  0  0
  147.6924  142.4205  158.7217 C   0  0  0  0  0  0  0  0  0  0  0  0
  147.6106  142.5414  159.9438 O   0  0  0  0  0  0  0  0  0  0  0  0
  148.8222  142.2967  158.0154 O   0  0  0  0  0  0  0  0  0  0  0  0
  150.0767  142.2846  158.6755 C   0  0  0  0  0  0  0  0  0  0  0  0
  151.2325  142.1503  157.6650 C   0  0  2  0  0  0  0  0  0  0  0  0
  150.6881  142.1496  156.3477 O   0  0  0  0  0  0  0  0  0  0  0  0
  151.0772  141.0058  155.6464 C   0  0  2  0  0  0  0  0  0  0  0  0
  149.9015  140.4850  154.8485 N   0  0  0  0  0  0  0  0  0  0  0  0
  148.7105  141.1932  154.7441 C   0  0  0  0  0  0  0  0  0  0  0  0
  147.6338  140.7250  154.0703 C   0  0  0  0  0  0  0  0  0  0  0  0
  146.5124  141.4632  154.0180 F   0  0  0  0  0  0  0  0  0  0  0  0
  147.6766  139.4237  153.4093 C   0  0  0  0  0  0  0  0  0  0  0  0
  146.7552  138.9172  152.7725 O   0  0  0  0  0  0  0  0  0  0  0  0
  148.8897  138.7434  153.5518 N   0  0  0  0  0  0  0  0  0  0  0  0
  150.0045  139.2116  154.2493 C   0  0  0  0  0  0  0  0  0  0  0  0
  151.0185  138.5198  154.3309 O   0  0  0  0  0  0  0  0  0  0  0  0
  151.5943  139.9790  156.6690 C   0  0  2  0  0  0  0  0  0  0  0  0
  150.5376  139.1213  157.0997 O   0  0  0  0  0  0  0  0  0  0  0  0
  150.8000  137.9959  157.7831 C   0  0  0  0  0  0  0  0  0  0  0  0
  149.5309  137.2823  158.2278 C   0  0  0  0  0  0  0  0  0  0  0  0
  151.9161  137.5527  158.0525 O   0  0  0  0  0  0  0  0  0  0  0  0
  152.1106  140.8908  157.7739 C   0  0  2  0  0  0  0  0  0  0  0  0
  152.1080  140.2562  159.0491 O   0  0  0  0  0  0  0  0  0  0  0  0
  153.1906  139.5865  159.4777 C   0  0  0  0  0  0  0  0  0  0  0  0
  153.0254  139.0708  160.9006 C   0  0  0  0  0  0  0  0  0  0  0  0
  154.2244  139.3941  158.8378 O   0  0  0  0  0  0  0  0  0  0  0  0
  148.9623  137.8342  153.1188 H   0  0  0  0  0  0  0  0  0  0  0  0
  146.6307  142.9657  156.9198 H   0  0  0  0  0  0  0  0  0  0  0  0
  145.6054  142.8468  158.3565 H   0  0  0  0  0  0  0  0  0  0  0  0
  146.1976  141.3763  157.5688 H   0  0  0  0  0  0  0  0  0  0  0  0
  150.2017  143.2028  159.2513 H   0  0  0  0  0  0  0  0  0  0  0  0
  150.1004  141.4558  159.3840 H   0  0  0  0  0  0  0  0  0  0  0  0
  151.8691  143.0294  157.7674 H   0  0  0  0  0  0  0  0  0  0  0  0
  151.8382  141.3070  154.9236 H   0  0  0  0  0  0  0  0  0  0  0  0
  148.6137  142.1567  155.2210 H   0  0  0  0  0  0  0  0  0  0  0  0
  152.3996  139.4040  156.2091 H   0  0  0  0  0  0  0  0  0  0  0  0
  149.1174  137.7662  159.1128 H   0  0  0  0  0  0  0  0  0  0  0  0
  149.7426  136.2405  158.4692 H   0  0  0  0  0  0  0  0  0  0  0  0
  148.7814  137.3075  157.4364 H   0  0  0  0  0  0  0  0  0  0  0  0
  153.1315  141.1644  157.5016 H   0  0  0  0  0  0  0  0  0  0  0  0
  152.1259  138.4599  160.9801 H   0  0  0  0  0  0  0  0  0  0  0  0
  152.9415  139.9052  161.5971 H   0  0  0  0  0  0  0  0  0  0  0  0
  153.8829  138.4629  161.1904 H   0  0  0  0  0  0  0  0  0  0  0  0
  1  2  1  0  0  0  0
  1 29  1  0  0  0  0
  1 30  1  0  0  0  0
  1 31  1  0  0  0  0
  2  3  2  0  0  0  0
  2  4  1  0  0  0  0
  4  5  1  0  0  0  0
  5  6  1  0  0  0  0
  5 32  1  0  0  0  0
  5 33  1  0  0  0  0
  6 23  1  0  0  0  0
  6  7  1  0  0  0  0
  6 34  1  0  0  0  0
  7  8  1  0  0  0  0
  8  9  1  0  0  0  0
  8 18  1  0  0  0  0
  8 35  1  0  0  0  0
  9 16  1  0  0  0  0
  9 10  1  0  0  0  0
 10 11  2  0  0  0  0
 10 36  1  0  0  0  0
 11 12  1  0  0  0  0
 11 13  1  0  0  0  0
 13 14  2  0  0  0  0
 13 15  1  0  0  0  0
 15 28  1  0  0  0  0
 15 16  1  0  0  0  0
 16 17  2  0  0  0  0
 18 19  1  0  0  0  0
 18 23  1  0  0  0  0
 18 37  1  0  0  0  0
 19 20  1  0  0  0  0
 20 21  1  0  0  0  0
 20 22  2  0  0  0  0
 21 38  1  0  0  0  0
 21 39  1  0  0  0  0
 21 40  1  0  0  0  0
 23 24  1  0  0  0  0
 23 41  1  0  0  0  0
 24 25  1  0  0  0  0
 25 26  1  0  0  0  0
 25 27  2  0  0  0  0
 26 42  1  0  0  0  0
 26 43  1  0  0  0  0
 26 44  1  0  0  0  0
M  END
> <s_m_source_file>
AV-unprocessed.smi

> <i_m_source_file_index>
102

> <i_lp_mmshare_version>
43012

> <i_f3d_flags>
0

> <s_epik_input>
W0NIM11DKD1PKU9bQ0gyXVtDQEBIXTFPW0NASF0oW0NAQEhdKE9DKD1PKVtDSDNdKVtDQEhdMU9DKD1PKVtDSDNdKW4yW2NIXWMoRiljKD1PKVtuSF1jMj1P

> <s_epik_cmdline>
J2VwaWtfcHl0aG9uJywgJy1waCcsICc3LjAnLCAnLXRuJywgJzgnLCAnLW1hJywgJzIwMCcsICctbWV0YWxfYmluZGluZycsICctaW1hZScsICc8aW5maWxlLm1hZT4nLCAnLW9tYWUnLCAnPG91dGZpbGUubWFlPic=

> <r_lp_tautomer_probability>
0.999537

> <r_epik_Ionization_Penalty>
0.058267

> <r_epik_Ionization_Penalty_Charging>
0.058267

> <r_epik_Ionization_Penalty_Neutral>
6.57791e-16

> <r_epik_State_Penalty>
0.0503774

> <r_epik_Charging_Adjusted_Penalty>
0.108644

> <i_epik_Tot_Q>
0

> <i_epik_Tot_abs_Q>
0

> <r_epik_Metal_State_Penalty>
2.6644

> <b_epik_Metal_Only>
0

> <s_epik_Chemistry_Notes>
This compound has an ester and may undergo hydrolysis at high or low pH. This compound contains an acetal/aminal-like group ( X-CH(R)-Y where X, Y are N, S, or O) that may be acid/base labile, releasing an aldehyde.

> <s_lp_Force_Field>
OPLS_2005

> <r_lp_Energy>
17.4488

> <b_lp_Chiralities_Consistent>
1

> <s_lp_Variant>
AV-unprocessed.smi:102-15

> <Gold.Version>
5.8.1

> <Gold.Id.Protein>
6NUR|6NUR_protein|mol2

> <Gold.PLP.Fitness>
39.7347

> <Gold.PLP.PLP>
-31.0067

> <Gold.PLP.part.hbond>
-4.8297

> <Gold.PLP.part.metal>
0.0000

> <Gold.PLP.part.buried>
-3.3762

> <Gold.PLP.part.nonpolar>
-23.4340

> <Gold.PLP.part.repulsive>
1.2241

> <Gold.PLP.ligand.clash>
0.0000

> <Gold.PLP.ligand.torsion>
1.4579

> <Gold.PLP.Chemscore.Hbond>
2.8115

> <Gold.PLP.Chemscore.CHOScore>
1.0000

> <Gold.PLP.Chemscore.Metal>
0.0000

> <Gold.Chemscore.Hbonds>
donor molecule, donor type, donor heavy atom, donor atom, acceptor molecule, acceptor atom, score
      L1  H    15    28       P1  7948  1.00
      P1  H  6933  6944       L1     3  0.61
      P1  H  6934  6946       L1     3  0.53
      P1  H  7997  8009       L1    27  1.00
      L1  C    10    36       P1  8028  0.82

> <Gold.PLP.Chemscore.Internal.Correction>
0.2092

> <Gold.Rescore>
     Score         DG    S(hbond)    S(metal)    S(lipo)     H(rot)  DE(clash)    DE(int)     intcor
      4.37     -11.30       3.11        0.00      49.72       4.05       2.62       4.32       ----

> <Gold.Chemscore.Fitness>
4.3689

> <Gold.Chemscore.DG>
-11.3018

> <Gold.Chemscore.ZeroCoef>
-5.4800

> <Gold.Chemscore.Hbond>
3.1070

> <Gold.Chemscore.Metal>
0.0000

> <Gold.Chemscore.Lipo>
49.7233

> <Gold.Chemscore.Internal_Hbond>
0.0000

> <Gold.Chemscore.DEClash>
2.6176

> <Gold.Chemscore.DEInternal>
4.3153

> <Gold.Chemscore.Rot>
4.0520

> <Gold.Chemscore.Internal.Correction>
   9.000000E+99

> <Gold.Chemscore.Hbonds>
donor molecule, donor type, donor heavy atom, donor atom, acceptor molecule, acceptor atom, score
      L1  H    15    28       P1  7948  0.95
      P1  H  6933  6944       L1     3  0.62
      P1  H  6934  6946       L1     3  0.36
      P1  H  7997  8009       L1    27  1.00

> <Gold.Chemscore.Hbond.Weighted>
-10.3774

> <Gold.Chemscore.Metal.Weighted>
-0.0000

> <Gold.Chemscore.Lipo.Weighted>
-5.8176

> <Gold.Chemscore.Internal_Hbond.Weighted>
0.0000

> <Gold.Chemscore.DEClash.Weighted>
2.6176

> <Gold.Chemscore.DEInternal.Weighted>
4.3153

> <Gold.Chemscore.Rot.Weighted>
10.3732

> <Gold.Chemscore.Internal.Correction.Weighted>
   9.000000E+99

> <Gold.Protein.RotatedTorsions>
[ 6907 6896 6895 6894 ] final   79.03 input  -60.11 | X-H torsion
[ 7974 7965 7964 7962 ] final   44.90 input  175.53 | X-H torsion
[ 8008 7997 7996 7995 ] final  135.91 input   59.86 | X-H torsion
[ 10167 10162 10161 10158 ] final  -64.08 input  -65.29 | X-H torsion
[ 10718 10713 10712 10709 ] final  117.42 input   66.30 | X-H torsion
[ 10763 10752 10751 10750 ] final   73.75 input  -60.55 | X-H torsion
[ 11005 11000 10999 10996 ] final  164.28 input  -57.11 | X-H torsion

> <Gold.Protein.ActiveResidues>
 VAL166  LYS551  ARG553  GLY616  TRP617  ASP618  TYR619  PRO620  LYS621  CYS622 
 ASP623  PHE694  ASN695  SER759  ASP760  ASP761  ALA762  ILE779  LEU786  VAL792 
 PHE793  MET794  SER795  GLU796  ALA797  LYS798  CYS799  TRP800  GLU811  SER814 

> <Gold.Protein.RotatedAtoms>
  152.5183  134.3573  159.9272 H   0  0  0  0  0  0  0  0  0  0  0  0  # atno 6907 bound_to 6896
  151.3525  133.3913  159.2689 H   0  0  0  0  0  0  0  0  0  0  0  0  # atno 6908 bound_to 6896
  150.9716  134.9106  159.7849 H   0  0  0  0  0  0  0  0  0  0  0  0  # atno 6909 bound_to 6896
  146.0528  139.5023  142.9708 H   0  0  0  0  0  0  0  0  0  0  0  0  # atno 7974 bound_to 7965
  156.3004  140.2458  156.3659 H   0  0  0  0  0  0  0  0  0  0  0  0  # atno 8008 bound_to 7997
  154.8834  140.0412  157.1815 H   0  0  0  0  0  0  0  0  0  0  0  0  # atno 8009 bound_to 7997
  154.8672  140.2929  155.5507 H   0  0  0  0  0  0  0  0  0  0  0  0  # atno 8010 bound_to 7997
  140.5826  143.2329  151.6311 H   0  0  0  0  0  0  0  0  0  0  0  0  # atno 10167 bound_to 10162
  157.6097  131.1037  150.7613 H   0  0  0  0  0  0  0  0  0  0  0  0  # atno 10718 bound_to 10713
  153.0542  135.5051  154.7940 H   0  0  0  0  0  0  0  0  0  0  0  0  # atno 10763 bound_to 10752
  154.6779  135.2963  154.9656 H   0  0  0  0  0  0  0  0  0  0  0  0  # atno 10764 bound_to 10752
  154.0452  135.6711  153.4847 H   0  0  0  0  0  0  0  0  0  0  0  0  # atno 10765 bound_to 10752
  140.2443  134.8026  157.3441 H   0  0  0  0  0  0  0  0  0  0  0  0  # atno 11005 bound_to 11000
  145.6696  141.0220  143.1665 LP  0  0  0  0  0  0  0  0  0  0  0  0  # atno 17320 bound_to 7965
  144.7131  139.8295  143.7408 LP  0  0  0  0  0  0  0  0  0  0  0  0  # atno 17321 bound_to 7965
  139.5178  144.3303  152.0832 LP  0  0  0  0  0  0  0  0  0  0  0  0  # atno 17342 bound_to 10162
  140.2455  144.4224  150.6242 LP  0  0  0  0  0  0  0  0  0  0  0  0  # atno 17343 bound_to 10162
  156.7993  130.4915  149.5372 LP  0  0  0  0  0  0  0  0  0  0  0  0  # atno 17370 bound_to 10713
  156.1196  130.6100  151.0173 LP  0  0  0  0  0  0  0  0  0  0  0  0  # atno 17371 bound_to 10713
  140.1621  134.4715  155.7887 LP  0  0  0  0  0  0  0  0  0  0  0  0  # atno 17394 bound_to 11000
  141.2207  133.6906  156.7563 LP  0  0  0  0  0  0  0  0  0  0  0  0  # atno 17395 bound_to 11000

$$$$
