AV-unprocessed.smi:1834|AV-procd|sdf|7472|dock9
  -GOLD-   22720 9163D 1   1.00000     0.00000
 Structure written by MMmdl.
 46 47  0  0  0  0  0  0  0  0  2 V2000
  145.1908  133.7299  151.0460 C   0  0  0  0  0  0  0  0  0  0  0  0
  146.4676  133.0371  150.5469 C   0  0  0  0  0  0  0  0  0  0  0  0
  147.2225  132.3715  151.6390 N   0  3  2  0  0  0  0  0  0  0  0  0
  146.4559  131.2537  152.2456 C   0  0  0  0  0  0  0  0  0  0  0  0
  147.3088  130.4946  153.2722 C   0  0  0  0  0  0  0  0  0  0  0  0
  147.8283  131.4440  154.3579 C   0  0  0  0  0  0  0  0  0  0  0  0
  148.6013  132.6170  153.7289 C   0  0  2  0  0  0  0  0  0  0  0  0
  149.1109  133.5761  154.8276 C   0  0  0  0  0  0  0  0  0  0  0  0
  149.3150  134.9392  154.3433 N   0  0  0  0  0  0  0  0  0  0  0  0
  149.7357  135.9737  155.0863 C   0  0  0  0  0  0  0  0  0  0  0  0
  149.9786  135.8869  156.2903 O   0  0  0  0  0  0  0  0  0  0  0  0
  149.8392  137.0922  154.3479 N   0  0  0  0  0  0  0  0  0  0  0  0
  150.1857  138.3446  154.7481 C   0  0  0  0  0  0  0  0  0  0  0  0
  149.3810  139.3650  155.1764 C   0  0  0  0  0  0  0  0  0  0  0  0
  150.3141  140.4079  155.4465 C   0  0  0  0  0  0  0  0  0  0  0  0
  150.0318  141.7925  155.9499 C   0  0  0  0  0  0  0  0  0  0  0  0
  151.5693  140.0484  155.2021 N   0  0  0  0  0  0  0  0  0  0  0  0
  151.4947  138.7715  154.7689 N   0  0  0  0  0  0  0  0  0  0  0  0
  152.7033  138.0561  154.4090 C   0  0  0  0  0  0  0  0  0  0  0  0
  147.7174  133.3208  152.6720 C   0  0  0  0  0  0  0  0  0  0  0  0
  144.7215  134.2920  150.2384 H   0  0  0  0  0  0  0  0  0  0  0  0
  145.4118  134.4322  151.8504 H   0  0  0  0  0  0  0  0  0  0  0  0
  144.4514  133.0181  151.4119 H   0  0  0  0  0  0  0  0  0  0  0  0
  146.2337  132.3183  149.7603 H   0  0  0  0  0  0  0  0  0  0  0  0
  147.0987  133.8002  150.0892 H   0  0  0  0  0  0  0  0  0  0  0  0
  145.5526  131.6432  152.7184 H   0  0  0  0  0  0  0  0  0  0  0  0
  146.1334  130.5601  151.4679 H   0  0  0  0  0  0  0  0  0  0  0  0
  146.7216  129.6960  153.7265 H   0  0  0  0  0  0  0  0  0  0  0  0
  148.1493  130.0137  152.7699 H   0  0  0  0  0  0  0  0  0  0  0  0
  146.9898  131.8226  154.9442 H   0  0  0  0  0  0  0  0  0  0  0  0
  148.4690  130.8959  155.0497 H   0  0  0  0  0  0  0  0  0  0  0  0
  149.4730  132.2047  153.2176 H   0  0  0  0  0  0  0  0  0  0  0  0
  148.4363  133.5664  155.6857 H   0  0  0  0  0  0  0  0  0  0  0  0
  150.0730  133.2233  155.2003 H   0  0  0  0  0  0  0  0  0  0  0  0
  149.1406  135.1015  153.3620 H   0  0  0  0  0  0  0  0  0  0  0  0
  149.6151  137.0022  153.3679 H   0  0  0  0  0  0  0  0  0  0  0  0
  148.3073  139.3850  155.2863 H   0  0  0  0  0  0  0  0  0  0  0  0
  148.9647  141.9414  156.1161 H   0  0  0  0  0  0  0  0  0  0  0  0
  150.3640  142.5455  155.2349 H   0  0  0  0  0  0  0  0  0  0  0  0
  150.5431  141.9791  156.8946 H   0  0  0  0  0  0  0  0  0  0  0  0
  152.5839  137.6040  153.4236 H   0  0  0  0  0  0  0  0  0  0  0  0
  152.8941  137.2711  155.1413 H   0  0  0  0  0  0  0  0  0  0  0  0
  153.5578  138.7339  154.3845 H   0  0  0  0  0  0  0  0  0  0  0  0
  148.2965  134.1016  152.1832 H   0  0  0  0  0  0  0  0  0  0  0  0
  146.8699  133.8107  153.1545 H   0  0  0  0  0  0  0  0  0  0  0  0
  148.0354  131.9532  151.2098 H   0  0  0  0  0  0  0  0  0  0  0  0
  1  2  1  0  0  0  0
  1 21  1  0  0  0  0
  1 22  1  0  0  0  0
  1 23  1  0  0  0  0
  2  3  1  0  0  0  0
  2 24  1  0  0  0  0
  2 25  1  0  0  0  0
  3 20  1  0  0  0  0
  3  4  1  0  0  0  0
  3 46  1  0  0  0  0
  4  5  1  0  0  0  0
  4 26  1  0  0  0  0
  4 27  1  0  0  0  0
  5  6  1  0  0  0  0
  5 28  1  0  0  0  0
  5 29  1  0  0  0  0
  6  7  1  0  0  0  0
  6 30  1  0  0  0  0
  6 31  1  0  0  0  0
  7  8  1  0  0  0  0
  7 20  1  0  0  0  0
  7 32  1  0  0  0  0
  8  9  1  0  0  0  0
  8 33  1  0  0  0  0
  8 34  1  0  0  0  0
  9 10  1  0  0  0  0
  9 35  1  0  0  0  0
 10 11  2  0  0  0  0
 10 12  1  0  0  0  0
 12 13  1  0  0  0  0
 12 36  1  0  0  0  0
 13 18  1  0  0  0  0
 13 14  2  0  0  0  0
 14 15  1  0  0  0  0
 14 37  1  0  0  0  0
 15 16  1  0  0  0  0
 15 17  2  0  0  0  0
 16 38  1  0  0  0  0
 16 39  1  0  0  0  0
 16 40  1  0  0  0  0
 17 18  1  0  0  0  0
 18 19  1  0  0  0  0
 19 41  1  0  0  0  0
 19 42  1  0  0  0  0
 19 43  1  0  0  0  0
 20 44  1  0  0  0  0
 20 45  1  0  0  0  0
M  CHG  1   3   1
M  END
> <s_m_source_file>
AV-unprocessed.smi

> <i_m_source_file_index>
1834

> <i_lp_mmshare_version>
43012

> <i_f3d_flags>
0

> <s_epik_input>
W0NIM11bQ0gyXU4xW0NIMl1bQ0gyXVtDSDJdW0NASF0oW0NIMl0xKVtDSDJdW05IXUMoPU8pW05IXWMyW2NIXWMoW0NIM10pbm4yW0NIM10=

> <s_epik_cmdline>
J2VwaWtfcHl0aG9uJywgJy1waCcsICc3LjAnLCAnLXRuJywgJzgnLCAnLW1hJywgJzIwMCcsICctbWV0YWxfYmluZGluZycsICctaW1hZScsICc8aW5maWxlLm1hZT4nLCAnLW9tYWUnLCAnPG91dGZpbGUubWFlPic=

> <r_lp_tautomer_probability>
1

> <r_epik_Ionization_Penalty>
0.000466842

> <r_epik_Ionization_Penalty_Charging>
0.000378984

> <r_epik_Ionization_Penalty_Neutral>
8.78572e-05

> <r_epik_State_Penalty>
0.000231434

> <r_epik_Charging_Adjusted_Penalty>
0.000610418

> <i_epik_Tot_Q>
1

> <i_epik_Tot_abs_Q>
1

> <r_epik_Metal_State_Penalty>
-0

> <b_epik_Metal_Only>
0

> <s_lp_Force_Field>
OPLS_2005

> <r_lp_Energy>
19.5344

> <b_lp_Chiralities_Consistent>
1

> <s_lp_Variant>
AV-unprocessed.smi:1834-4

> <Gold.Version>
5.8.1

> <Gold.Id.Protein>
6NUR|6NUR_protein|mol2

> <Gold.PLP.Fitness>
45.6896

> <Gold.PLP.PLP>
-36.5205

> <Gold.PLP.part.hbond>
-4.0723

> <Gold.PLP.part.metal>
0.0000

> <Gold.PLP.part.buried>
-2.8072

> <Gold.PLP.part.nonpolar>
-30.1713

> <Gold.PLP.part.repulsive>
0.1372

> <Gold.PLP.ligand.clash>
0.0000

> <Gold.PLP.ligand.torsion>
1.0732

> <Gold.PLP.Chemscore.Hbond>
3.7600

> <Gold.PLP.Chemscore.CHOScore>
0.0000

> <Gold.PLP.Chemscore.Metal>
0.0000

> <Gold.Chemscore.Hbonds>
donor molecule, donor type, donor heavy atom, donor atom, acceptor molecule, acceptor atom, score
      L1  H     3    46       P1 10747  1.00
      L1  H     9    35       P1  7948  0.95
      L1  H    12    36       P1  7948  1.00
      P1  H  7989  7998       L1    17  0.64

> <Gold.PLP.Chemscore.Internal.Correction>
0.0356

> <Gold.Rescore>
     Score         DG    S(hbond)    S(metal)    S(lipo)     H(rot)  DE(clash)    DE(int)     intcor
     18.32     -19.47       2.81        0.00      70.70       1.43       0.08       1.07       ----

> <Gold.Chemscore.Fitness>
18.3198

> <Gold.Chemscore.DG>
-19.4713

> <Gold.Chemscore.ZeroCoef>
-5.4800

> <Gold.Chemscore.Hbond>
2.8077

> <Gold.Chemscore.Metal>
0.0000

> <Gold.Chemscore.Lipo>
70.7015

> <Gold.Chemscore.Internal_Hbond>
0.0000

> <Gold.Chemscore.DEClash>
0.0839

> <Gold.Chemscore.DEInternal>
1.0676

> <Gold.Chemscore.Rot>
1.4291

> <Gold.Chemscore.Internal.Correction>
   9.000000E+99

> <Gold.Chemscore.Hbonds>
donor molecule, donor type, donor heavy atom, donor atom, acceptor molecule, acceptor atom, score
      L1  H     3    46       P1 10747  1.00
      L1  H     9    35       P1  7948  0.21
      L1  H    12    36       P1  7948  0.69
      P1  H  7989  7998       L1    17  0.01

> <Gold.Chemscore.Hbond.Weighted>
-9.3777

> <Gold.Chemscore.Metal.Weighted>
-0.0000

> <Gold.Chemscore.Lipo.Weighted>
-8.2721

> <Gold.Chemscore.Internal_Hbond.Weighted>
0.0000

> <Gold.Chemscore.DEClash.Weighted>
0.0839

> <Gold.Chemscore.DEInternal.Weighted>
1.0676

> <Gold.Chemscore.Rot.Weighted>
3.6584

> <Gold.Chemscore.Internal.Correction.Weighted>
   9.000000E+99

> <Gold.Protein.RotatedTorsions>
[ 6907 6896 6895 6894 ] final   71.98 input  -60.11 | X-H torsion
[ 7974 7965 7964 7962 ] final  116.00 input  175.53 | X-H torsion
[ 8008 7997 7996 7995 ] final  117.57 input   59.86 | X-H torsion
[ 10167 10162 10161 10158 ] final -113.31 input  -65.29 | X-H torsion
[ 10718 10713 10712 10709 ] final  111.54 input   66.30 | X-H torsion
[ 10763 10752 10751 10750 ] final  178.65 input  -60.55 | X-H torsion
[ 11005 11000 10999 10996 ] final  -67.31 input  -57.11 | X-H torsion

> <Gold.Protein.ActiveResidues>
 VAL166  LYS551  ARG553  GLY616  TRP617  ASP618  TYR619  PRO620  LYS621  CYS622 
 ASP623  PHE694  ASN695  SER759  ASP760  ASP761  ALA762  ILE779  LEU786  VAL792 
 PHE793  MET794  SER795  GLU796  ALA797  LYS798  CYS799  TRP800  GLU811  SER814 

> <Gold.Protein.RotatedAtoms>
  152.4841  134.4640  159.9613 H   0  0  0  0  0  0  0  0  0  0  0  0  # atno 6907 bound_to 6896
  151.4639  133.3580  159.2821 H   0  0  0  0  0  0  0  0  0  0  0  0  # atno 6908 bound_to 6896
  150.8937  134.8369  159.7372 H   0  0  0  0  0  0  0  0  0  0  0  0  # atno 6909 bound_to 6896
  145.1850  139.3030  143.4398 H   0  0  0  0  0  0  0  0  0  0  0  0  # atno 7974 bound_to 7965
  156.2501  140.2893  156.0699 H   0  0  0  0  0  0  0  0  0  0  0  0  # atno 8008 bound_to 7997
  155.1683  140.0401  157.2875 H   0  0  0  0  0  0  0  0  0  0  0  0  # atno 8009 bound_to 7997
  154.6344  140.2507  155.7402 H   0  0  0  0  0  0  0  0  0  0  0  0  # atno 8010 bound_to 7997
  140.1132  143.4509  152.1739 H   0  0  0  0  0  0  0  0  0  0  0  0  # atno 10167 bound_to 10162
  157.6439  131.0952  150.6764 H   0  0  0  0  0  0  0  0  0  0  0  0  # atno 10718 bound_to 10713
  154.5105  135.2788  155.1347 H   0  0  0  0  0  0  0  0  0  0  0  0  # atno 10763 bound_to 10752
  154.2944  135.6260  153.5402 H   0  0  0  0  0  0  0  0  0  0  0  0  # atno 10764 bound_to 10752
  152.9918  135.5682  154.5569 H   0  0  0  0  0  0  0  0  0  0  0  0  # atno 10765 bound_to 10752
  141.1504  133.6716  156.6272 H   0  0  0  0  0  0  0  0  0  0  0  0  # atno 11005 bound_to 11000
  146.3446  140.2043  142.8589 LP  0  0  0  0  0  0  0  0  0  0  0  0  # atno 17320 bound_to 7965
  145.0098  140.8704  143.5231 LP  0  0  0  0  0  0  0  0  0  0  0  0  # atno 17321 bound_to 7965
  139.5608  144.7404  151.4161 LP  0  0  0  0  0  0  0  0  0  0  0  0  # atno 17342 bound_to 10162
  140.6914  143.7853  150.7261 LP  0  0  0  0  0  0  0  0  0  0  0  0  # atno 17343 bound_to 10162
  156.7084  130.4644  149.5554 LP  0  0  0  0  0  0  0  0  0  0  0  0  # atno 17370 bound_to 10713
  156.1747  130.6460  151.0880 LP  0  0  0  0  0  0  0  0  0  0  0  0  # atno 17371 bound_to 10713
  140.3494  134.7781  157.4456 LP  0  0  0  0  0  0  0  0  0  0  0  0  # atno 17394 bound_to 11000
  140.0873  134.5649  155.8480 LP  0  0  0  0  0  0  0  0  0  0  0  0  # atno 17395 bound_to 11000

$$$$
