AV-unprocessed.smi:3330|AV-procd|sdf|12813|dock1
  -GOLD-   2272019183D 1   1.00000     0.00000
 Structure written by MMmdl.
 37 38  0  0  0  0  0  0  0  0  2 V2000
  146.0891  135.8700  153.8885 C   0  0  0  0  0  0  0  0  0  0  0  0
  145.9921  134.6912  152.8996 C   0  0  2  0  0  0  0  0  0  0  0  0
  147.3253  134.1203  152.7258 N   0  0  0  0  0  0  0  0  0  0  0  0
  147.8735  133.6033  153.9701 C   0  0  0  0  0  0  0  0  0  0  0  0
  149.3516  133.2415  153.7622 C   0  0  0  0  0  0  0  0  0  0  0  0
  149.9528  132.7506  155.0052 N   0  0  0  0  0  0  0  0  0  0  0  0
  150.3927  131.5014  155.1854 C   0  0  0  0  0  0  0  0  0  0  0  0
  150.3677  130.5666  154.3842 O   0  0  0  0  0  0  0  0  0  0  0  0
  150.9582  131.4155  156.5841 C   0  0  0  0  0  0  0  0  0  0  0  0
  150.7634  132.7595  157.0793 N   0  5  0  0  0  0  0  0  0  0  0  0
  150.1742  133.4940  156.1065 C   0  0  0  0  0  0  0  0  0  0  0  0
  149.8665  134.6841  156.1686 O   0  0  0  0  0  0  0  0  0  0  0  0
  145.4473  135.1104  151.5068 C   0  0  2  0  0  0  0  0  0  0  0  0
  144.1041  135.8625  151.5798 C   0  0  0  0  0  0  0  0  0  0  0  0
  145.3240  133.9584  150.6184 N   0  0  0  0  0  0  0  0  0  0  0  0
  144.2113  133.5389  149.9183 C   0  0  0  0  0  0  0  0  0  0  0  0
  144.5708  132.4344  149.2006 C   0  0  0  0  0  0  0  0  0  0  0  0
  145.9441  132.2540  149.5245 C   0  0  0  0  0  0  0  0  0  0  0  0
  146.3921  133.1652  150.3724 N   0  0  0  0  0  0  0  0  0  0  0  0
  145.1053  136.2787  154.1175 H   0  0  0  0  0  0  0  0  0  0  0  0
  146.7001  136.6779  153.4848 H   0  0  0  0  0  0  0  0  0  0  0  0
  146.5259  135.5686  154.8402 H   0  0  0  0  0  0  0  0  0  0  0  0
  145.3261  133.9318  153.3125 H   0  0  0  0  0  0  0  0  0  0  0  0
  147.9501  134.8018  152.3195 H   0  0  0  0  0  0  0  0  0  0  0  0
  147.7785  134.3448  154.7633 H   0  0  0  0  0  0  0  0  0  0  0  0
  147.3137  132.7188  154.2776 H   0  0  0  0  0  0  0  0  0  0  0  0
  149.4460  132.4851  152.9809 H   0  0  0  0  0  0  0  0  0  0  0  0
  149.9039  134.1106  153.4001 H   0  0  0  0  0  0  0  0  0  0  0  0
  150.4168  130.6628  157.1579 H   0  0  0  0  0  0  0  0  0  0  0  0
  152.0068  131.1191  156.5425 H   0  0  0  0  0  0  0  0  0  0  0  0
  146.1686  135.7884  151.0474 H   0  0  0  0  0  0  0  0  0  0  0  0
  144.2091  136.8254  152.0788 H   0  0  0  0  0  0  0  0  0  0  0  0
  143.3506  135.2871  152.1184 H   0  0  0  0  0  0  0  0  0  0  0  0
  143.7161  136.0646  150.5807 H   0  0  0  0  0  0  0  0  0  0  0  0
  143.2671  134.0590  149.9852 H   0  0  0  0  0  0  0  0  0  0  0  0
  143.9490  131.8485  148.5401 H   0  0  0  0  0  0  0  0  0  0  0  0
  146.6244  131.4935  149.1705 H   0  0  0  0  0  0  0  0  0  0  0  0
  1  2  1  0  0  0  0
  1 20  1  0  0  0  0
  1 21  1  0  0  0  0
  1 22  1  0  0  0  0
  2  3  1  0  0  0  0
  2 13  1  0  0  0  0
  2 23  1  0  0  0  0
  3  4  1  0  0  0  0
  3 24  1  0  0  0  0
  4  5  1  0  0  0  0
  4 25  1  0  0  0  0
  4 26  1  0  0  0  0
  5  6  1  0  0  0  0
  5 27  1  0  0  0  0
  5 28  1  0  0  0  0
  6 11  1  0  0  0  0
  6  7  1  0  0  0  0
  7  8  2  0  0  0  0
  7  9  1  0  0  0  0
  9 10  1  0  0  0  0
  9 29  1  0  0  0  0
  9 30  1  0  0  0  0
 10 11  1  0  0  0  0
 11 12  2  0  0  0  0
 13 14  1  0  0  0  0
 13 15  1  0  0  0  0
 13 31  1  0  0  0  0
 14 32  1  0  0  0  0
 14 33  1  0  0  0  0
 14 34  1  0  0  0  0
 15 19  1  0  0  0  0
 15 16  1  0  0  0  0
 16 17  2  0  0  0  0
 16 35  1  0  0  0  0
 17 18  1  0  0  0  0
 17 36  1  0  0  0  0
 18 19  2  0  0  0  0
 18 37  1  0  0  0  0
M  CHG  1  10  -1
M  END
> <s_m_source_file>
AV-unprocessed.smi

> <i_m_source_file_index>
3330

> <i_lp_mmshare_version>
43012

> <i_f3d_flags>
0

> <s_epik_input>
bjFbY0hdW2NIXVtjSF1uMVtDQEBIXShbQ0gzXSlbQ0BIXShbQ0gzXSlbTkhdW0NIMl1bQ0gyXU4yQyg9TylbQ0gyXVtOSF1DMj1P

> <s_epik_cmdline>
J2VwaWtfcHl0aG9uJywgJy1waCcsICc3LjAnLCAnLXRuJywgJzgnLCAnLW1hJywgJzIwMCcsICctbWV0YWxfYmluZGluZycsICctaW1hZScsICc8aW5maWxlLm1hZT4nLCAnLW9tYWUnLCAnPG91dGZpbGUubWFlPic=

> <r_lp_tautomer_probability>
1

> <r_epik_Ionization_Penalty>
8.77477

> <r_epik_Ionization_Penalty_Charging>
6.28461

> <r_epik_Ionization_Penalty_Neutral>
2.49016

> <r_epik_State_Penalty>
8.73376

> <r_epik_Charging_Adjusted_Penalty>
15.0184

> <i_epik_Tot_Q>
-1

> <i_epik_Tot_abs_Q>
1

> <r_epik_Metal_State_Penalty>
4.73175

> <b_epik_Metal_Only>
1

> <s_lp_Force_Field>
OPLS_2005

> <r_lp_Energy>
21.1742

> <b_lp_Chiralities_Consistent>
1

> <s_lp_Variant>
AV-unprocessed.smi:3330-13

> <Gold.Version>
5.8.1

> <Gold.Id.Protein>
6NUR|6NUR_protein|mol2

> <Gold.PLP.Fitness>
46.7254

> <Gold.PLP.PLP>
-31.8750

> <Gold.PLP.part.hbond>
-2.0000

> <Gold.PLP.part.metal>
0.0000

> <Gold.PLP.part.buried>
-5.5383

> <Gold.PLP.part.nonpolar>
-26.4584

> <Gold.PLP.part.repulsive>
0.2731

> <Gold.PLP.ligand.clash>
0.0000

> <Gold.PLP.ligand.torsion>
0.1262

> <Gold.PLP.Chemscore.Hbond>
3.0000

> <Gold.PLP.Chemscore.CHOScore>
1.9893

> <Gold.PLP.Chemscore.Metal>
0.0000

> <Gold.Chemscore.Hbonds>
donor molecule, donor type, donor heavy atom, donor atom, acceptor molecule, acceptor atom, score
      L1  H     3    24       P1  7948  1.00
      P1  H  6896  6908       L1    10  0.85
      L1  C    16    35       P1 10186  1.00
      L1  C    18    37       P1 10747  0.67

> <Gold.PLP.Chemscore.Internal.Correction>
0.1350

> <Gold.Rescore>
     Score         DG    S(hbond)    S(metal)    S(lipo)     H(rot)  DE(clash)    DE(int)     intcor
     10.60     -12.22       1.89        0.00      58.58       2.52       0.04       1.59       ----

> <Gold.Chemscore.Fitness>
10.5989

> <Gold.Chemscore.DG>
-12.2218

> <Gold.Chemscore.ZeroCoef>
-5.4800

> <Gold.Chemscore.Hbond>
1.8948

> <Gold.Chemscore.Metal>
0.0000

> <Gold.Chemscore.Lipo>
58.5830

> <Gold.Chemscore.Internal_Hbond>
0.0000

> <Gold.Chemscore.DEClash>
0.0354

> <Gold.Chemscore.DEInternal>
1.5875

> <Gold.Chemscore.Rot>
2.5160

> <Gold.Chemscore.Internal.Correction>
   9.000000E+99

> <Gold.Chemscore.Hbonds>
donor molecule, donor type, donor heavy atom, donor atom, acceptor molecule, acceptor atom, score
      L1  H     3    24       P1  7948  0.65
      P1  H  6896  6908       L1    10  0.40

> <Gold.Chemscore.Hbond.Weighted>
-6.3286

> <Gold.Chemscore.Metal.Weighted>
-0.0000

> <Gold.Chemscore.Lipo.Weighted>
-6.8542

> <Gold.Chemscore.Internal_Hbond.Weighted>
0.0000

> <Gold.Chemscore.DEClash.Weighted>
0.0354

> <Gold.Chemscore.DEInternal.Weighted>
1.5875

> <Gold.Chemscore.Rot.Weighted>
6.4410

> <Gold.Chemscore.Internal.Correction.Weighted>
   9.000000E+99

> <Gold.Protein.RotatedTorsions>
[ 6907 6896 6895 6894 ] final   93.23 input  -60.11 | X-H torsion
[ 7974 7965 7964 7962 ] final   46.39 input  175.53 | X-H torsion
[ 8008 7997 7996 7995 ] final   82.43 input   59.86 | X-H torsion
[ 10167 10162 10161 10158 ] final  -41.70 input  -65.29 | X-H torsion
[ 10718 10713 10712 10709 ] final   27.13 input   66.30 | X-H torsion
[ 10763 10752 10751 10750 ] final   34.72 input  -60.55 | X-H torsion
[ 11005 11000 10999 10996 ] final  146.11 input  -57.11 | X-H torsion

> <Gold.Protein.ActiveResidues>
 VAL166  LYS551  ARG553  GLY616  TRP617  ASP618  TYR619  PRO620  LYS621  CYS622 
 ASP623  PHE694  ASN695  SER759  ASP760  ASP761  ALA762  ILE779  LEU786  VAL792 
 PHE793  MET794  SER795  GLU796  ALA797  LYS798  CYS799  TRP800  GLU811  SER814 

> <Gold.Protein.RotatedAtoms>
  152.5452  134.1379  159.8466 H   0  0  0  0  0  0  0  0  0  0  0  0  # atno 6907 bound_to 6896
  151.1418  133.4959  159.2604 H   0  0  0  0  0  0  0  0  0  0  0  0  # atno 6908 bound_to 6896
  151.1565  135.0263  159.8746 H   0  0  0  0  0  0  0  0  0  0  0  0  # atno 6909 bound_to 6896
  146.0394  139.4861  142.9788 H   0  0  0  0  0  0  0  0  0  0  0  0  # atno 7974 bound_to 7965
  155.9105  140.3428  155.6095 H   0  0  0  0  0  0  0  0  0  0  0  0  # atno 8008 bound_to 7997
  155.7393  140.0805  157.2272 H   0  0  0  0  0  0  0  0  0  0  0  0  # atno 8009 bound_to 7997
  154.4055  140.1573  156.2585 H   0  0  0  0  0  0  0  0  0  0  0  0  # atno 8010 bound_to 7997
  140.6994  143.3079  151.3104 H   0  0  0  0  0  0  0  0  0  0  0  0  # atno 10167 bound_to 10162
  157.2161  130.6957  149.6249 H   0  0  0  0  0  0  0  0  0  0  0  0  # atno 10718 bound_to 10713
  153.0151  135.6352  154.1714 H   0  0  0  0  0  0  0  0  0  0  0  0  # atno 10763 bound_to 10752
  154.1453  135.2832  155.3151 H   0  0  0  0  0  0  0  0  0  0  0  0  # atno 10764 bound_to 10752
  154.6094  135.5561  153.7518 H   0  0  0  0  0  0  0  0  0  0  0  0  # atno 10765 bound_to 10752
  140.0766  134.9121  157.1433 H   0  0  0  0  0  0  0  0  0  0  0  0  # atno 11005 bound_to 11000
  145.6910  141.0164  143.1555 LP  0  0  0  0  0  0  0  0  0  0  0  0  # atno 17320 bound_to 7965
  144.7067  139.8532  143.7427 LP  0  0  0  0  0  0  0  0  0  0  0  0  # atno 17321 bound_to 7965
  139.6492  144.0394  152.2613 LP  0  0  0  0  0  0  0  0  0  0  0  0  # atno 17342 bound_to 10162
  139.9925  144.6351  150.7802 LP  0  0  0  0  0  0  0  0  0  0  0  0  # atno 17343 bound_to 10162
  155.9686  130.4535  150.5814 LP  0  0  0  0  0  0  0  0  0  0  0  0  # atno 17370 bound_to 10713
  157.3623  131.0752  151.1626 LP  0  0  0  0  0  0  0  0  0  0  0  0  # atno 17371 bound_to 10713
  140.3548  134.2558  155.7194 LP  0  0  0  0  0  0  0  0  0  0  0  0  # atno 17394 bound_to 11000
  141.2032  133.7919  157.0353 LP  0  0  0  0  0  0  0  0  0  0  0  0  # atno 17395 bound_to 11000

$$$$
