AV-unprocessed.smi:1304|AV-procd|sdf|5429|dock10
  -GOLD-   22720 4593D 1   1.00000     0.00000
 Structure written by MMmdl.
 47 48  0  0  0  0  0  0  0  0  1 V2000
  147.0453  140.2310  153.4620 C   0  0  0  0  0  0  0  0  0  0  0  0
  147.3890  140.1011  154.9570 C   0  0  0  0  0  0  0  0  0  0  0  0
  148.8783  140.3814  155.3370 C   0  0  1  0  0  0  0  0  0  0  0  0
  149.2542  141.7264  154.6581 C   0  0  0  0  0  0  0  0  0  0  0  0
  148.9779  140.5743  156.8857 C   0  0  0  0  0  0  0  0  0  0  0  0
  150.2935  141.0227  157.3416 N   0  0  0  0  0  0  0  0  0  0  0  0
  150.5613  142.1981  157.9305 C   0  0  0  0  0  0  0  0  0  0  0  0
  149.6988  143.0361  158.1961 O   0  0  0  0  0  0  0  0  0  0  0  0
  152.0330  142.4608  158.2754 C   0  0  0  0  0  0  0  0  0  0  0  0
  152.2275  142.8199  159.6896 N   0  0  0  0  0  0  0  0  0  0  0  0
  151.6192  144.0074  160.1431 C   0  0  0  0  0  0  0  0  0  0  0  0
  151.7370  144.4250  161.4135 C   0  0  0  0  0  0  0  0  0  0  0  0
  152.5128  143.6206  162.3275 C   0  0  0  0  0  0  0  0  0  0  0  0
  153.1014  142.4845  161.9035 C   0  0  0  0  0  0  0  0  0  0  0  0
  152.9776  142.0256  160.5152 C   0  0  0  0  0  0  0  0  0  0  0  0
  153.5149  140.9907  160.1185 O   0  0  0  0  0  0  0  0  0  0  0  0
  149.7652  139.2849  154.8537 N   0  0  0  0  0  0  0  0  0  0  0  0
  151.2007  139.5917  154.8554 C   0  0  0  0  0  0  0  0  0  0  0  0
  152.0307  138.4686  154.2100 C   0  0  0  0  0  0  0  0  0  0  0  0
  151.7797  137.2393  154.8806 O   0  0  0  0  0  0  0  0  0  0  0  0
  150.4045  136.8762  154.8530 C   0  0  0  0  0  0  0  0  0  0  0  0
  149.5638  137.9856  155.5072 C   0  0  0  0  0  0  0  0  0  0  0  0
  145.9908  140.0115  153.2946 H   0  0  0  0  0  0  0  0  0  0  0  0
  147.6215  139.5378  152.8497 H   0  0  0  0  0  0  0  0  0  0  0  0
  147.2278  141.2390  153.0908 H   0  0  0  0  0  0  0  0  0  0  0  0
  146.7317  140.7848  155.4946 H   0  0  0  0  0  0  0  0  0  0  0  0
  147.0913  139.1110  155.3022 H   0  0  0  0  0  0  0  0  0  0  0  0
  148.4886  142.4887  154.8057 H   0  0  0  0  0  0  0  0  0  0  0  0
  149.3874  141.6110  153.5822 H   0  0  0  0  0  0  0  0  0  0  0  0
  150.1800  142.1407  155.0573 H   0  0  0  0  0  0  0  0  0  0  0  0
  148.2117  141.2617  157.2444 H   0  0  0  0  0  0  0  0  0  0  0  0
  148.7908  139.6320  157.3990 H   0  0  0  0  0  0  0  0  0  0  0  0
  151.0671  140.3974  157.1676 H   0  0  0  0  0  0  0  0  0  0  0  0
  152.6048  141.5681  158.0190 H   0  0  0  0  0  0  0  0  0  0  0  0
  152.4314  143.2502  157.6347 H   0  0  0  0  0  0  0  0  0  0  0  0
  151.0625  144.5548  159.3965 H   0  0  0  0  0  0  0  0  0  0  0  0
  151.2674  145.3405  161.7422 H   0  0  0  0  0  0  0  0  0  0  0  0
  152.6231  143.9319  163.3556 H   0  0  0  0  0  0  0  0  0  0  0  0
  153.6785  141.8958  162.6014 H   0  0  0  0  0  0  0  0  0  0  0  0
  151.4040  140.5103  154.3077 H   0  0  0  0  0  0  0  0  0  0  0  0
  151.5548  139.7442  155.8747 H   0  0  0  0  0  0  0  0  0  0  0  0
  151.7894  138.3699  153.1505 H   0  0  0  0  0  0  0  0  0  0  0  0
  153.0943  138.6983  154.2757 H   0  0  0  0  0  0  0  0  0  0  0  0
  150.0847  136.7056  153.8238 H   0  0  0  0  0  0  0  0  0  0  0  0
  150.2735  135.9364  155.3892 H   0  0  0  0  0  0  0  0  0  0  0  0
  149.8305  138.0463  156.5622 H   0  0  0  0  0  0  0  0  0  0  0  0
  148.5196  137.6821  155.4628 H   0  0  0  0  0  0  0  0  0  0  0  0
  1  2  1  0  0  0  0
  1 23  1  0  0  0  0
  1 24  1  0  0  0  0
  1 25  1  0  0  0  0
  2  3  1  0  0  0  0
  2 26  1  0  0  0  0
  2 27  1  0  0  0  0
  3  4  1  0  0  0  0
  3  5  1  0  0  0  0
  3 17  1  0  0  0  0
  4 28  1  0  0  0  0
  4 29  1  0  0  0  0
  4 30  1  0  0  0  0
  5  6  1  0  0  0  0
  5 31  1  0  0  0  0
  5 32  1  0  0  0  0
  6  7  1  0  0  0  0
  6 33  1  0  0  0  0
  7  8  2  0  0  0  0
  7  9  1  0  0  0  0
  9 10  1  0  0  0  0
  9 34  1  0  0  0  0
  9 35  1  0  0  0  0
 10 15  1  0  0  0  0
 10 11  1  0  0  0  0
 11 12  2  0  0  0  0
 11 36  1  0  0  0  0
 12 13  1  0  0  0  0
 12 37  1  0  0  0  0
 13 14  2  0  0  0  0
 13 38  1  0  0  0  0
 14 15  1  0  0  0  0
 14 39  1  0  0  0  0
 15 16  2  0  0  0  0
 17 22  1  0  0  0  0
 17 18  1  0  0  0  0
 18 19  1  0  0  0  0
 18 40  1  0  0  0  0
 18 41  1  0  0  0  0
 19 20  1  0  0  0  0
 19 42  1  0  0  0  0
 19 43  1  0  0  0  0
 20 21  1  0  0  0  0
 21 22  1  0  0  0  0
 21 44  1  0  0  0  0
 21 45  1  0  0  0  0
 22 46  1  0  0  0  0
 22 47  1  0  0  0  0
M  END
> <s_m_source_file>
AV-unprocessed.smi

> <i_m_source_file_index>
1304

> <i_lp_mmshare_version>
43012

> <i_f3d_flags>
0

> <s_epik_input>
W0NIMl0xW0NIMl1PW0NIMl1bQ0gyXU4xW0NAQF0oW0NIM10pKFtDSDJdW0NIM10pW0NIMl1bTkhdQyg9TylbQ0gyXW4yW2NIXVtjSF1bY0hdW2NIXWMyPU8=

> <s_epik_cmdline>
J2VwaWtfcHl0aG9uJywgJy1waCcsICc3LjAnLCAnLXRuJywgJzgnLCAnLW1hJywgJzIwMCcsICctbWV0YWxfYmluZGluZycsICctaW1hZScsICc8aW5maWxlLm1hZT4nLCAnLW9tYWUnLCAnPG91dGZpbGUubWFlPic=

> <r_lp_tautomer_probability>
1

> <r_epik_Ionization_Penalty>
0.318667

> <r_epik_Ionization_Penalty_Charging>
3.55364e-07

> <r_epik_Ionization_Penalty_Neutral>
0.318667

> <r_epik_State_Penalty>
0.313095

> <r_epik_Charging_Adjusted_Penalty>
0.313095

> <i_epik_Tot_Q>
0

> <i_epik_Tot_abs_Q>
0

> <r_epik_Metal_State_Penalty>
0.313065

> <b_epik_Metal_Only>
0

> <s_lp_Force_Field>
OPLS_2005

> <r_lp_Energy>
51.6355

> <b_lp_Chiralities_Consistent>
1

> <s_lp_Variant>
AV-unprocessed.smi:1304-1

> <Gold.Version>
5.8.1

> <Gold.Id.Protein>
6NUR|6NUR_protein|mol2

> <Gold.PLP.Fitness>
46.9486

> <Gold.PLP.PLP>
-44.4979

> <Gold.PLP.part.hbond>
-1.0000

> <Gold.PLP.part.metal>
0.0000

> <Gold.PLP.part.buried>
-6.6031

> <Gold.PLP.part.nonpolar>
-37.3382

> <Gold.PLP.part.repulsive>
0.3781

> <Gold.PLP.ligand.clash>
0.0000

> <Gold.PLP.ligand.torsion>
0.3466

> <Gold.PLP.Chemscore.Hbond>
1.0000

> <Gold.PLP.Chemscore.CHOScore>
0.0000

> <Gold.PLP.Chemscore.Metal>
0.0000

> <Gold.Chemscore.Hbonds>
donor molecule, donor type, donor heavy atom, donor atom, acceptor molecule, acceptor atom, score
      P1  H 10752 10765       L1    20  1.00

> <Gold.PLP.Chemscore.Internal.Correction>
0.1438

> <Gold.Rescore>
     Score         DG    S(hbond)    S(metal)    S(lipo)     H(rot)  DE(clash)    DE(int)     intcor
     13.73     -15.98       0.88        0.00     107.34       1.95       0.56       1.70       ----

> <Gold.Chemscore.Fitness>
13.7253

> <Gold.Chemscore.DG>
-15.9788

> <Gold.Chemscore.ZeroCoef>
-5.4800

> <Gold.Chemscore.Hbond>
0.8791

> <Gold.Chemscore.Metal>
0.0000

> <Gold.Chemscore.Lipo>
107.3383

> <Gold.Chemscore.Internal_Hbond>
0.0000

> <Gold.Chemscore.DEClash>
0.5565

> <Gold.Chemscore.DEInternal>
1.6970

> <Gold.Chemscore.Rot>
1.9515

> <Gold.Chemscore.Internal.Correction>
   9.000000E+99

> <Gold.Chemscore.Hbonds>
donor molecule, donor type, donor heavy atom, donor atom, acceptor molecule, acceptor atom, score
      P1  H 10752 10765       L1    20  0.68

> <Gold.Chemscore.Hbond.Weighted>
-2.9360

> <Gold.Chemscore.Metal.Weighted>
-0.0000

> <Gold.Chemscore.Lipo.Weighted>
-12.5586

> <Gold.Chemscore.Internal_Hbond.Weighted>
0.0000

> <Gold.Chemscore.DEClash.Weighted>
0.5565

> <Gold.Chemscore.DEInternal.Weighted>
1.6970

> <Gold.Chemscore.Rot.Weighted>
4.9958

> <Gold.Chemscore.Internal.Correction.Weighted>
   9.000000E+99

> <Gold.Protein.RotatedTorsions>
[ 6907 6896 6895 6894 ] final   72.44 input  -60.11 | X-H torsion
[ 7974 7965 7964 7962 ] final  -53.49 input  175.53 | X-H torsion
[ 8008 7997 7996 7995 ] final -144.23 input   59.86 | X-H torsion
[ 10167 10162 10161 10158 ] final   12.01 input  -65.29 | X-H torsion
[ 10718 10713 10712 10709 ] final -109.08 input   66.30 | X-H torsion
[ 10763 10752 10751 10750 ] final  173.16 input  -60.55 | X-H torsion
[ 11005 11000 10999 10996 ] final  143.24 input  -57.11 | X-H torsion

> <Gold.Protein.ActiveResidues>
 VAL166  LYS551  ARG553  GLY616  TRP617  ASP618  TYR619  PRO620  LYS621  CYS622 
 ASP623  PHE694  ASN695  SER759  ASP760  ASP761  ALA762  ILE779  LEU786  VAL792 
 PHE793  MET794  SER795  GLU796  ALA797  LYS798  CYS799  TRP800  GLU811  SER814 

> <Gold.Protein.RotatedAtoms>
  152.4868  134.4570  159.9592 H   0  0  0  0  0  0  0  0  0  0  0  0  # atno 6907 bound_to 6896
  151.4565  133.3598  159.2810 H   0  0  0  0  0  0  0  0  0  0  0  0  # atno 6908 bound_to 6896
  150.8986  134.8421  159.7404 H   0  0  0  0  0  0  0  0  0  0  0  0  # atno 6909 bound_to 6896
  145.8963  140.8030  142.9766 H   0  0  0  0  0  0  0  0  0  0  0  0  # atno 7974 bound_to 7965
  155.5235  140.0593  157.2902 H   0  0  0  0  0  0  0  0  0  0  0  0  # atno 8008 bound_to 7997
  154.4509  140.1948  156.0468 H   0  0  0  0  0  0  0  0  0  0  0  0  # atno 8009 bound_to 7997
  156.0702  140.3261  155.7571 H   0  0  0  0  0  0  0  0  0  0  0  0  # atno 8010 bound_to 7997
  140.6095  143.8437  150.7050 H   0  0  0  0  0  0  0  0  0  0  0  0  # atno 10167 bound_to 10162
  156.0518  130.5746  150.8050 H   0  0  0  0  0  0  0  0  0  0  0  0  # atno 10718 bound_to 10713
  154.4362  135.2761  155.1879 H   0  0  0  0  0  0  0  0  0  0  0  0  # atno 10763 bound_to 10752
  154.3765  135.6097  153.5771 H   0  0  0  0  0  0  0  0  0  0  0  0  # atno 10764 bound_to 10752
  152.9838  135.5870  154.4681 H   0  0  0  0  0  0  0  0  0  0  0  0  # atno 10765 bound_to 10752
  140.0538  134.9241  157.1064 H   0  0  0  0  0  0  0  0  0  0  0  0  # atno 11005 bound_to 11000
  144.6733  140.1607  143.7422 LP  0  0  0  0  0  0  0  0  0  0  0  0  # atno 17320 bound_to 7965
  145.8847  139.2342  143.1585 LP  0  0  0  0  0  0  0  0  0  0  0  0  # atno 17321 bound_to 7965
  140.2002  143.3966  152.1797 LP  0  0  0  0  0  0  0  0  0  0  0  0  # atno 17342 bound_to 10162
  139.5351  144.7200  151.4922 LP  0  0  0  0  0  0  0  0  0  0  0  0  # atno 17343 bound_to 10162
  157.5452  131.0942  150.9772 LP  0  0  0  0  0  0  0  0  0  0  0  0  # atno 17370 bound_to 10713
  157.0045  130.5613  149.5314 LP  0  0  0  0  0  0  0  0  0  0  0  0  # atno 17371 bound_to 10713
  140.3875  134.2220  155.7167 LP  0  0  0  0  0  0  0  0  0  0  0  0  # atno 17394 bound_to 11000
  141.1943  133.8132  157.0764 LP  0  0  0  0  0  0  0  0  0  0  0  0  # atno 17395 bound_to 11000

$$$$
