AV-unprocessed.smi:1508|AV-procd|sdf|6086|dock9
  -GOLD-   22720 6213D 1   1.00000     0.00000
 Structure written by MMmdl.
 38 39  0  0  0  0  0  0  0  0  2 V2000
  143.3252  137.2442  153.0464 C   0  0  0  0  0  0  0  0  0  0  0  0
  144.1657  135.9689  152.8750 C   0  0  0  0  0  0  0  0  0  0  0  0
  145.6904  136.2111  152.7068 C   0  0  2  0  0  0  0  0  0  0  0  0
  145.9980  137.5309  151.9471 C   0  0  0  0  0  0  0  0  0  0  0  0
  147.2977  138.0986  152.2924 N   0  0  0  0  0  0  0  0  0  0  0  0
  147.5445  138.8366  153.3840 C   0  0  0  0  0  0  0  0  0  0  0  0
  146.6846  139.1117  154.2205 O   0  0  0  0  0  0  0  0  0  0  0  0
  148.8284  139.2269  153.4292 N   0  0  0  0  0  0  0  0  0  0  0  0
  149.4609  140.0296  154.4113 C   0  0  0  0  0  0  0  0  0  0  0  0
  150.7578  139.8125  154.6596 N   0  0  0  0  0  0  0  0  0  0  0  0
  151.2508  140.6679  155.6374 N   0  0  0  0  0  0  0  0  0  0  0  0
  150.3049  141.4970  156.0893 C   0  0  0  0  0  0  0  0  0  0  0  0
  148.7167  141.3163  155.3653 S   0  0  0  0  0  0  0  0  0  0  0  0
  146.3774  135.0498  152.0679 N   0  3  0  0  0  0  0  0  0  0  0  0
  146.3956  133.8027  152.8744 C   0  0  0  0  0  0  0  0  0  0  0  0
  146.2664  132.6247  151.8983 C   0  0  0  0  0  0  0  0  0  0  0  0
  146.3908  133.2463  150.5120 C   0  0  0  0  0  0  0  0  0  0  0  0
  145.8891  134.6695  150.7243 C   0  0  0  0  0  0  0  0  0  0  0  0
  142.2655  136.9972  153.1131 H   0  0  0  0  0  0  0  0  0  0  0  0
  143.4502  137.9247  152.2042 H   0  0  0  0  0  0  0  0  0  0  0  0
  143.5903  137.7816  153.9567 H   0  0  0  0  0  0  0  0  0  0  0  0
  143.9917  135.3221  153.7352 H   0  0  0  0  0  0  0  0  0  0  0  0
  143.7798  135.4001  152.0293 H   0  0  0  0  0  0  0  0  0  0  0  0
  146.1070  136.2995  153.7117 H   0  0  0  0  0  0  0  0  0  0  0  0
  145.9696  137.3836  150.8668 H   0  0  0  0  0  0  0  0  0  0  0  0
  145.2348  138.2785  152.1631 H   0  0  0  0  0  0  0  0  0  0  0  0
  148.0604  137.9172  151.6556 H   0  0  0  0  0  0  0  0  0  0  0  0
  149.4224  138.9223  152.6720 H   0  0  0  0  0  0  0  0  0  0  0  0
  150.5448  142.2207  156.8541 H   0  0  0  0  0  0  0  0  0  0  0  0
  147.3251  133.7507  153.4422 H   0  0  0  0  0  0  0  0  0  0  0  0
  145.5686  133.7748  153.5859 H   0  0  0  0  0  0  0  0  0  0  0  0
  147.0158  131.8519  152.0733 H   0  0  0  0  0  0  0  0  0  0  0  0
  145.2842  132.1628  152.0080 H   0  0  0  0  0  0  0  0  0  0  0  0
  147.4379  133.2649  150.2062 H   0  0  0  0  0  0  0  0  0  0  0  0
  145.8263  132.7058  149.7515 H   0  0  0  0  0  0  0  0  0  0  0  0
  144.7978  134.6821  150.7105 H   0  0  0  0  0  0  0  0  0  0  0  0
  146.2493  135.3451  149.9482 H   0  0  0  0  0  0  0  0  0  0  0  0
  147.3444  135.3128  151.9414 H   0  0  0  0  0  0  0  0  0  0  0  0
  1  2  1  0  0  0  0
  1 19  1  0  0  0  0
  1 20  1  0  0  0  0
  1 21  1  0  0  0  0
  2  3  1  0  0  0  0
  2 22  1  0  0  0  0
  2 23  1  0  0  0  0
  3  4  1  0  0  0  0
  3 14  1  0  0  0  0
  3 24  1  0  0  0  0
  4  5  1  0  0  0  0
  4 25  1  0  0  0  0
  4 26  1  0  0  0  0
  5  6  1  0  0  0  0
  5 27  1  0  0  0  0
  6  7  2  0  0  0  0
  6  8  1  0  0  0  0
  8  9  1  0  0  0  0
  8 28  1  0  0  0  0
  9 13  1  0  0  0  0
  9 10  2  0  0  0  0
 10 11  1  0  0  0  0
 11 12  2  0  0  0  0
 12 13  1  0  0  0  0
 12 29  1  0  0  0  0
 14 18  1  0  0  0  0
 14 15  1  0  0  0  0
 14 38  1  0  0  0  0
 15 16  1  0  0  0  0
 15 30  1  0  0  0  0
 15 31  1  0  0  0  0
 16 17  1  0  0  0  0
 16 32  1  0  0  0  0
 16 33  1  0  0  0  0
 17 18  1  0  0  0  0
 17 34  1  0  0  0  0
 17 35  1  0  0  0  0
 18 36  1  0  0  0  0
 18 37  1  0  0  0  0
M  CHG  1  14   1
M  END
> <s_m_source_file>
AV-unprocessed.smi

> <i_m_source_file_index>
1508

> <i_lp_mmshare_version>
43012

> <i_f3d_flags>
0

> <s_epik_input>
W0NIMl0xW0NIMl1bQ0gyXVtDSDJdTjFbQ0BIXShbQ0gyXVtDSDNdKVtDSDJdW05IXUMoPU8pW05IXWMybm5bY0hdczI=

> <s_epik_cmdline>
J2VwaWtfcHl0aG9uJywgJy1waCcsICc3LjAnLCAnLXRuJywgJzgnLCAnLW1hJywgJzIwMCcsICctbWV0YWxfYmluZGluZycsICctaW1hZScsICc8aW5maWxlLm1hZT4nLCAnLW9tYWUnLCAnPG91dGZpbGUubWFlPic=

> <r_lp_tautomer_probability>
1

> <r_epik_Ionization_Penalty>
0.00193711

> <r_epik_Ionization_Penalty_Charging>
0.00115997

> <r_epik_Ionization_Penalty_Neutral>
0.000777142

> <r_epik_State_Penalty>
-0

> <r_epik_Charging_Adjusted_Penalty>
0.00115997

> <i_epik_Tot_Q>
1

> <i_epik_Tot_abs_Q>
1

> <r_epik_Metal_State_Penalty>
0.264283

> <b_epik_Metal_Only>
0

> <s_lp_Force_Field>
OPLS_2005

> <r_lp_Energy>
30.1882

> <b_lp_Chiralities_Consistent>
1

> <s_lp_Variant>
AV-unprocessed.smi:1508-1

> <Gold.Version>
5.8.1

> <Gold.Id.Protein>
6NUR|6NUR_protein|mol2

> <Gold.PLP.Fitness>
38.7111

> <Gold.PLP.PLP>
-30.5155

> <Gold.PLP.part.hbond>
-5.3190

> <Gold.PLP.part.metal>
0.0000

> <Gold.PLP.part.buried>
-3.6823

> <Gold.PLP.part.nonpolar>
-22.2821

> <Gold.PLP.part.repulsive>
0.4432

> <Gold.PLP.ligand.clash>
0.0000

> <Gold.PLP.ligand.torsion>
0.9212

> <Gold.PLP.Chemscore.Hbond>
3.2800

> <Gold.PLP.Chemscore.CHOScore>
0.0224

> <Gold.PLP.Chemscore.Metal>
0.0000

> <Gold.Chemscore.Hbonds>
donor molecule, donor type, donor heavy atom, donor atom, acceptor molecule, acceptor atom, score
      L1  H     5    27       P1  7948  0.37
      L1  H     8    28       P1  7957  0.40
      L1  H    14    38       P1  7948  2.00
      P1  H  7989  7998       L1    10  0.30

> <Gold.PLP.Chemscore.Internal.Correction>
0.1309

> <Gold.Rescore>
     Score         DG    S(hbond)    S(metal)    S(lipo)     H(rot)  DE(clash)    DE(int)     intcor
     12.63     -13.44       2.03        0.00      51.46       1.89       0.06       0.75       ----

> <Gold.Chemscore.Fitness>
12.6265

> <Gold.Chemscore.DG>
-13.4419

> <Gold.Chemscore.ZeroCoef>
-5.4800

> <Gold.Chemscore.Hbond>
2.0334

> <Gold.Chemscore.Metal>
0.0000

> <Gold.Chemscore.Lipo>
51.4637

> <Gold.Chemscore.Internal_Hbond>
0.0000

> <Gold.Chemscore.DEClash>
0.0637

> <Gold.Chemscore.DEInternal>
0.7517

> <Gold.Chemscore.Rot>
1.8950

> <Gold.Chemscore.Internal.Correction>
   9.000000E+99

> <Gold.Chemscore.Hbonds>
donor molecule, donor type, donor heavy atom, donor atom, acceptor molecule, acceptor atom, score
      L1  H     5    27       P1  7948  0.36
      L1  H     8    28       P1  7957  0.38
      L1  H    14    38       P1  7948  0.99

> <Gold.Chemscore.Hbond.Weighted>
-6.7917

> <Gold.Chemscore.Metal.Weighted>
-0.0000

> <Gold.Chemscore.Lipo.Weighted>
-6.0213

> <Gold.Chemscore.Internal_Hbond.Weighted>
0.0000

> <Gold.Chemscore.DEClash.Weighted>
0.0637

> <Gold.Chemscore.DEInternal.Weighted>
0.7517

> <Gold.Chemscore.Rot.Weighted>
4.8511

> <Gold.Chemscore.Internal.Correction.Weighted>
   9.000000E+99

> <Gold.Protein.RotatedTorsions>
[ 6907 6896 6895 6894 ] final  -61.26 input  -60.11 | X-H torsion
[ 7974 7965 7964 7962 ] final  156.01 input  175.53 | X-H torsion
[ 8008 7997 7996 7995 ] final -172.90 input   59.86 | X-H torsion
[ 10167 10162 10161 10158 ] final  -75.46 input  -65.29 | X-H torsion
[ 10718 10713 10712 10709 ] final -158.67 input   66.30 | X-H torsion
[ 10763 10752 10751 10750 ] final  -92.43 input  -60.55 | X-H torsion
[ 11005 11000 10999 10996 ] final  139.99 input  -57.11 | X-H torsion

> <Gold.Protein.ActiveResidues>
 VAL166  LYS551  ARG553  GLY616  TRP617  ASP618  TYR619  PRO620  LYS621  CYS622 
 ASP623  PHE694  ASN695  SER759  ASP760  ASP761  ALA762  ILE779  LEU786  VAL792 
 PHE793  MET794  SER795  GLU796  ALA797  LYS798  CYS799  TRP800  GLU811  SER814 

> <Gold.Protein.RotatedAtoms>
  150.7797  134.6728  159.6400 H   0  0  0  0  0  0  0  0  0  0  0  0  # atno 6907 bound_to 6896
  152.3878  134.6487  160.0128 H   0  0  0  0  0  0  0  0  0  0  0  0  # atno 6908 bound_to 6896
  151.6797  133.3275  159.3252 H   0  0  0  0  0  0  0  0  0  0  0  0  # atno 6909 bound_to 6896
  144.7989  139.7145  143.6190 H   0  0  0  0  0  0  0  0  0  0  0  0  # atno 7974 bound_to 7965
  155.9506  140.1125  157.0980 H   0  0  0  0  0  0  0  0  0  0  0  0  # atno 8008 bound_to 7997
  154.4109  140.1201  156.5113 H   0  0  0  0  0  0  0  0  0  0  0  0  # atno 8009 bound_to 7997
  155.6847  140.3473  155.4872 H   0  0  0  0  0  0  0  0  0  0  0  0  # atno 8010 bound_to 7997
  140.4940  143.2374  151.7861 H   0  0  0  0  0  0  0  0  0  0  0  0  # atno 10167 bound_to 10162
  156.5573  130.8632  151.2799 H   0  0  0  0  0  0  0  0  0  0  0  0  # atno 10718 bound_to 10713
  154.6860  135.5231  153.8327 H   0  0  0  0  0  0  0  0  0  0  0  0  # atno 10763 bound_to 10752
  153.0598  135.6564  154.0500 H   0  0  0  0  0  0  0  0  0  0  0  0  # atno 10764 bound_to 10752
  154.0380  135.2979  155.3339 H   0  0  0  0  0  0  0  0  0  0  0  0  # atno 10765 bound_to 10752
  140.0295  134.9359  157.0634 H   0  0  0  0  0  0  0  0  0  0  0  0  # atno 11005 bound_to 11000
  146.2266  139.5733  142.9583 LP  0  0  0  0  0  0  0  0  0  0  0  0  # atno 17320 bound_to 7965
  145.5602  141.0405  143.2230 LP  0  0  0  0  0  0  0  0  0  0  0  0  # atno 17321 bound_to 7965
  139.4857  144.4611  151.9540 LP  0  0  0  0  0  0  0  0  0  0  0  0  # atno 17342 bound_to 10162
  140.3698  144.2869  150.5921 LP  0  0  0  0  0  0  0  0  0  0  0  0  # atno 17343 bound_to 10162
  157.7375  130.9798  150.2200 LP  0  0  0  0  0  0  0  0  0  0  0  0  # atno 17370 bound_to 10713
  156.2830  130.3736  149.7916 LP  0  0  0  0  0  0  0  0  0  0  0  0  # atno 17371 bound_to 10713
  140.4250  134.1841  155.7166 LP  0  0  0  0  0  0  0  0  0  0  0  0  # atno 17394 bound_to 11000
  141.1822  133.8389  157.1216 LP  0  0  0  0  0  0  0  0  0  0  0  0  # atno 17395 bound_to 11000

$$$$
