AV-unprocessed.smi:3164|AV-procd|sdf|12080|dock5
  -GOLD-   2272017513D 1   1.00000     0.00000
 Structure written by MMmdl.
 40 41  0  0  0  0  0  0  0  0  3 V2000
  144.1545  132.9850  150.0514 C   0  0  0  0  0  0  0  0  0  0  0  0
  145.2226  134.0101  150.1040 N   0  3  2  0  0  0  0  0  0  0  0  0
  146.4554  133.5532  150.7880 C   0  0  0  0  0  0  0  0  0  0  0  0
  146.2985  133.6032  152.3189 C   0  0  0  0  0  0  0  0  0  0  0  0
  145.9178  134.9154  152.7170 O   0  0  0  0  0  0  0  0  0  0  0  0
  144.6609  135.3078  152.1743 C   0  0  1  0  0  0  0  0  0  0  0  0
  144.3133  136.6981  152.7285 C   0  0  0  0  0  0  0  0  0  0  0  0
  144.8989  137.7733  151.9019 N   0  3  0  0  0  0  0  0  0  0  0  0
  146.3338  138.0076  152.1558 C   0  0  0  0  0  0  0  0  0  0  0  0
  146.6387  138.0034  153.6601 C   0  0  0  0  0  0  0  0  0  0  0  0
  147.5664  139.1359  154.0569 C   0  0  0  0  0  0  0  0  0  0  0  0
  147.1235  140.4754  154.0267 C   0  0  0  0  0  0  0  0  0  0  0  0
  148.0298  141.4893  154.3932 C   0  0  0  0  0  0  0  0  0  0  0  0
  149.3364  141.1263  154.7718 C   0  0  0  0  0  0  0  0  0  0  0  0
  149.6806  139.7598  154.7691 C   0  0  0  0  0  0  0  0  0  0  0  0
  148.8193  138.7798  154.4186 N   0  0  0  0  0  0  0  0  0  0  0  0
  144.7706  135.3199  150.6329 C   0  0  0  0  0  0  0  0  0  0  0  0
  143.7891  132.7246  151.0447 H   0  0  0  0  0  0  0  0  0  0  0  0
  144.5222  132.0747  149.5768 H   0  0  0  0  0  0  0  0  0  0  0  0
  143.3096  133.3432  149.4625 H   0  0  0  0  0  0  0  0  0  0  0  0
  146.7259  132.5495  150.4573 H   0  0  0  0  0  0  0  0  0  0  0  0
  147.2746  134.2086  150.4892 H   0  0  0  0  0  0  0  0  0  0  0  0
  145.5648  132.8749  152.6679 H   0  0  0  0  0  0  0  0  0  0  0  0
  147.2442  133.3506  152.7987 H   0  0  0  0  0  0  0  0  0  0  0  0
  143.8897  134.6014  152.4862 H   0  0  0  0  0  0  0  0  0  0  0  0
  143.2310  136.8246  152.7832 H   0  0  0  0  0  0  0  0  0  0  0  0
  144.6993  136.7940  153.7442 H   0  0  0  0  0  0  0  0  0  0  0  0
  144.7825  137.5351  150.9272 H   0  0  0  0  0  0  0  0  0  0  0  0
  146.9171  137.2350  151.6530 H   0  0  0  0  0  0  0  0  0  0  0  0
  146.6243  138.9653  151.7212 H   0  0  0  0  0  0  0  0  0  0  0  0
  145.7119  138.0825  154.2303 H   0  0  0  0  0  0  0  0  0  0  0  0
  147.0961  137.0557  153.9483 H   0  0  0  0  0  0  0  0  0  0  0  0
  146.1154  140.7245  153.7290 H   0  0  0  0  0  0  0  0  0  0  0  0
  147.7285  142.5264  154.3829 H   0  0  0  0  0  0  0  0  0  0  0  0
  150.0582  141.8770  155.0580 H   0  0  0  0  0  0  0  0  0  0  0  0
  150.6738  139.4462  155.0545 H   0  0  0  0  0  0  0  0  0  0  0  0
  145.4948  136.0760  150.3260 H   0  0  0  0  0  0  0  0  0  0  0  0
  143.8204  135.6004  150.1768 H   0  0  0  0  0  0  0  0  0  0  0  0
  144.3976  138.6307  152.0879 H   0  0  0  0  0  0  0  0  0  0  0  0
  145.4788  134.1681  149.1392 H   0  0  0  0  0  0  0  0  0  0  0  0
  1  2  1  0  0  0  0
  1 18  1  0  0  0  0
  1 19  1  0  0  0  0
  1 20  1  0  0  0  0
  2 17  1  0  0  0  0
  2  3  1  0  0  0  0
  2 40  1  0  0  0  0
  3  4  1  0  0  0  0
  3 21  1  0  0  0  0
  3 22  1  0  0  0  0
  4  5  1  0  0  0  0
  4 23  1  0  0  0  0
  4 24  1  0  0  0  0
  5  6  1  0  0  0  0
  6  7  1  0  0  0  0
  6 17  1  0  0  0  0
  6 25  1  0  0  0  0
  7  8  1  0  0  0  0
  7 26  1  0  0  0  0
  7 27  1  0  0  0  0
  8  9  1  0  0  0  0
  8 28  1  0  0  0  0
  8 39  1  0  0  0  0
  9 10  1  0  0  0  0
  9 29  1  0  0  0  0
  9 30  1  0  0  0  0
 10 11  1  0  0  0  0
 10 31  1  0  0  0  0
 10 32  1  0  0  0  0
 11 16  1  0  0  0  0
 11 12  2  0  0  0  0
 12 13  1  0  0  0  0
 12 33  1  0  0  0  0
 13 14  2  0  0  0  0
 13 34  1  0  0  0  0
 14 15  1  0  0  0  0
 14 35  1  0  0  0  0
 15 16  2  0  0  0  0
 15 36  1  0  0  0  0
 17 37  1  0  0  0  0
 17 38  1  0  0  0  0
M  CHG  1   2   1
M  CHG  1   8   1
M  END
> <s_m_source_file>
AV-unprocessed.smi

> <i_m_source_file_index>
3164

> <i_lp_mmshare_version>
43012

> <i_f3d_flags>
0

> <s_epik_input>
W0NIM11OMVtDSDJdW0NIMl1PW0NASF0oW0NIMl0xKVtDSDJdW05IXVtDSDJdW0NIMl1jMltjSF1bY0hdW2NIXVtjSF1uMg==

> <s_epik_cmdline>
J2VwaWtfcHl0aG9uJywgJy1waCcsICc3LjAnLCAnLXRuJywgJzgnLCAnLW1hJywgJzIwMCcsICctbWV0YWxfYmluZGluZycsICctaW1hZScsICc8aW5maWxlLm1hZT4nLCAnLW9tYWUnLCAnPG91dGZpbGUubWFlPic=

> <r_epik_Ionization_Penalty>
0.294944

> <r_epik_Ionization_Penalty_Charging>
0.29381

> <r_epik_Ionization_Penalty_Neutral>
0.00113372

> <r_epik_State_Penalty>
0.271365

> <r_epik_Charging_Adjusted_Penalty>
0.565175

> <i_epik_Tot_Q>
2

> <i_epik_Tot_abs_Q>
2

> <r_epik_Metal_State_Penalty>
0.271365

> <b_epik_Metal_Only>
0

> <s_lp_Force_Field>
OPLS_2005

> <r_lp_Energy>
22.4199

> <b_lp_Chiralities_Consistent>
1

> <s_lp_Variant>
AV-unprocessed.smi:3164-2

> <Gold.Version>
5.8.1

> <Gold.Id.Protein>
6NUR|6NUR_protein|mol2

> <Gold.PLP.Fitness>
42.6642

> <Gold.PLP.PLP>
-34.1931

> <Gold.PLP.part.hbond>
-2.2336

> <Gold.PLP.part.metal>
0.0000

> <Gold.PLP.part.buried>
-5.0684

> <Gold.PLP.part.nonpolar>
-27.7663

> <Gold.PLP.part.repulsive>
0.3876

> <Gold.PLP.ligand.clash>
0.0000

> <Gold.PLP.ligand.torsion>
0.8708

> <Gold.PLP.Chemscore.Hbond>
3.4000

> <Gold.PLP.Chemscore.CHOScore>
0.0000

> <Gold.PLP.Chemscore.Metal>
0.0000

> <Gold.Chemscore.Hbonds>
donor molecule, donor type, donor heavy atom, donor atom, acceptor molecule, acceptor atom, score
      L1  H     2    40       P1  7921  1.00
      L1  H     8    28       P1 10171  0.43
      L1  H     8    39       P1 10175  2.00

> <Gold.PLP.Chemscore.Internal.Correction>
0.0126

> <Gold.Rescore>
     Score         DG    S(hbond)    S(metal)    S(lipo)     H(rot)  DE(clash)    DE(int)     intcor
     18.26     -19.22       2.46        0.00      83.17       1.65       0.04       0.93       ----

> <Gold.Chemscore.Fitness>
18.2596

> <Gold.Chemscore.DG>
-19.2249

> <Gold.Chemscore.ZeroCoef>
-5.4800

> <Gold.Chemscore.Hbond>
2.4631

> <Gold.Chemscore.Metal>
0.0000

> <Gold.Chemscore.Lipo>
83.1663

> <Gold.Chemscore.Internal_Hbond>
0.0000

> <Gold.Chemscore.DEClash>
0.0374

> <Gold.Chemscore.DEInternal>
0.9279

> <Gold.Chemscore.Rot>
1.6454

> <Gold.Chemscore.Internal.Correction>
   9.000000E+99

> <Gold.Chemscore.Hbonds>
donor molecule, donor type, donor heavy atom, donor atom, acceptor molecule, acceptor atom, score
      L1  H     2    40       P1  7921  0.88
      L1  H     8    28       P1 10171  0.44
      L1  H     8    39       P1 10175  0.97

> <Gold.Chemscore.Hbond.Weighted>
-8.2267

> <Gold.Chemscore.Metal.Weighted>
-0.0000

> <Gold.Chemscore.Lipo.Weighted>
-9.7305

> <Gold.Chemscore.Internal_Hbond.Weighted>
0.0000

> <Gold.Chemscore.DEClash.Weighted>
0.0374

> <Gold.Chemscore.DEInternal.Weighted>
0.9279

> <Gold.Chemscore.Rot.Weighted>
4.2122

> <Gold.Chemscore.Internal.Correction.Weighted>
   9.000000E+99

> <Gold.Protein.RotatedTorsions>
[ 6907 6896 6895 6894 ] final -153.12 input  -60.11 | X-H torsion
[ 7974 7965 7964 7962 ] final  -35.52 input  175.53 | X-H torsion
[ 8008 7997 7996 7995 ] final -105.84 input   59.86 | X-H torsion
[ 10167 10162 10161 10158 ] final -117.94 input  -65.29 | X-H torsion
[ 10718 10713 10712 10709 ] final   55.66 input   66.30 | X-H torsion
[ 10763 10752 10751 10750 ] final -100.28 input  -60.55 | X-H torsion
[ 11005 11000 10999 10996 ] final   69.67 input  -57.11 | X-H torsion

> <Gold.Protein.ActiveResidues>
 VAL166  LYS551  ARG553  GLY616  TRP617  ASP618  TYR619  PRO620  LYS621  CYS622 
 ASP623  PHE694  ASN695  SER759  ASP760  ASP761  ALA762  ILE779  LEU786  VAL792 
 PHE793  MET794  SER795  GLU796  ALA797  LYS798  CYS799  TRP800  GLU811  SER814 

> <Gold.Protein.RotatedAtoms>
  151.2378  133.4415  159.2605 H   0  0  0  0  0  0  0  0  0  0  0  0  # atno 6907 bound_to 6896
  151.0734  134.9813  159.8330 H   0  0  0  0  0  0  0  0  0  0  0  0  # atno 6908 bound_to 6896
  152.5415  134.2322  159.8882 H   0  0  0  0  0  0  0  0  0  0  0  0  # atno 6909 bound_to 6896
  146.0739  140.6169  142.8939 H   0  0  0  0  0  0  0  0  0  0  0  0  # atno 7974 bound_to 7965
  154.9057  140.0411  157.1918 H   0  0  0  0  0  0  0  0  0  0  0  0  # atno 8008 bound_to 7997
  154.8399  140.2912  155.5645 H   0  0  0  0  0  0  0  0  0  0  0  0  # atno 8009 bound_to 7997
  156.2991  140.2485  156.3339 H   0  0  0  0  0  0  0  0  0  0  0  0  # atno 8010 bound_to 7997
  140.0629  143.4951  152.2022 H   0  0  0  0  0  0  0  0  0  0  0  0  # atno 10167 bound_to 10162
  157.5364  130.8666  149.8759 H   0  0  0  0  0  0  0  0  0  0  0  0  # atno 10718 bound_to 10713
  154.7566  135.4941  153.9387 H   0  0  0  0  0  0  0  0  0  0  0  0  # atno 10763 bound_to 10752
  153.1203  135.6730  153.9355 H   0  0  0  0  0  0  0  0  0  0  0  0  # atno 10764 bound_to 10752
  153.9088  135.3101  155.3427 H   0  0  0  0  0  0  0  0  0  0  0  0  # atno 10765 bound_to 10752
  139.9641  134.7011  156.0583 H   0  0  0  0  0  0  0  0  0  0  0  0  # atno 11005 bound_to 11000
  144.7249  140.4493  143.6980 LP  0  0  0  0  0  0  0  0  0  0  0  0  # atno 17320 bound_to 7965
  145.6341  139.1540  143.2952 LP  0  0  0  0  0  0  0  0  0  0  0  0  # atno 17321 bound_to 7965
  139.5883  144.7540  151.3465 LP  0  0  0  0  0  0  0  0  0  0  0  0  # atno 17342 bound_to 10162
  140.7163  143.7257  150.7662 LP  0  0  0  0  0  0  0  0  0  0  0  0  # atno 17343 bound_to 10162
  156.0462  130.3727  150.1313 LP  0  0  0  0  0  0  0  0  0  0  0  0  # atno 17370 bound_to 10713
  156.9495  130.9770  151.3501 LP  0  0  0  0  0  0  0  0  0  0  0  0  # atno 17371 bound_to 10713
  141.1320  133.6584  156.3489 LP  0  0  0  0  0  0  0  0  0  0  0  0  # atno 17394 bound_to 11000
  140.5436  134.6097  157.5387 LP  0  0  0  0  0  0  0  0  0  0  0  0  # atno 17395 bound_to 11000

$$$$
