AV-unprocessed.smi:39|AV-procd|sdf|361|dock4
  -GOLD-   2262016203D 1   1.00000     0.00000
 Structure written by MMmdl.
 31 32  0  0  0  0  0  0  0  0  4 V2000
  150.9340  142.8446  159.1405 C   0  0  0  0  0  0  0  0  0  0  0  0
  151.0607  141.9084  157.9514 C   0  0  0  0  0  0  0  0  0  0  0  0
  150.1835  141.9244  156.9237 C   0  0  0  0  0  0  0  0  0  0  0  0
  150.2979  141.0736  155.8374 N   0  0  0  0  0  0  0  0  0  0  0  0
  149.3358  141.1957  154.6722 C   0  0  1  0  0  0  0  0  0  0  0  0
  148.8666  139.8528  154.1012 C   0  0  0  0  0  0  0  0  0  0  0  0
  147.5381  140.2739  153.4988 C   0  0  1  0  0  0  0  0  0  0  0  0
  146.6033  139.1673  153.2691 N   0  0  0  0  0  0  0  0  0  0  0  0
  146.6019  138.6721  152.1347 N   0  3  0  0  0  0  0  0  0  0  0  0
  146.6451  138.1128  151.1445 N   0  5  0  0  0  0  0  0  0  0  0  0
  147.0417  141.3348  154.5029 C   0  0  1  0  0  0  0  0  0  0  0  0
  146.0614  140.8979  155.6153 C   0  0  0  0  0  0  0  0  0  0  0  0
  144.7892  140.5271  155.1250 O   0  0  0  0  0  0  0  0  0  0  0  0
  148.2090  141.8944  155.1051 O   0  0  0  0  0  0  0  0  0  0  0  0
  151.4327  140.2205  155.7452 C   0  0  0  0  0  0  0  0  0  0  0  0
  151.5778  139.5382  154.7309 O   0  0  0  0  0  0  0  0  0  0  0  0
  152.3138  140.1838  156.7857 N   0  5  0  0  0  0  0  0  0  0  0  0
  152.1818  140.9648  157.8954 C   0  0  0  0  0  0  0  0  0  0  0  0
  152.9722  140.9038  158.8370 O   0  0  0  0  0  0  0  0  0  0  0  0
  149.8202  141.7787  153.8895 H   0  0  0  0  0  0  0  0  0  0  0  0
  147.7464  140.7875  152.5574 H   0  0  0  0  0  0  0  0  0  0  0  0
  146.5571  142.1365  153.9442 H   0  0  0  0  0  0  0  0  0  0  0  0
  150.0600  143.4897  159.0456 H   0  0  0  0  0  0  0  0  0  0  0  0
  151.8161  143.4806  159.2197 H   0  0  0  0  0  0  0  0  0  0  0  0
  150.8345  142.2750  160.0650 H   0  0  0  0  0  0  0  0  0  0  0  0
  149.3802  142.6424  156.9522 H   0  0  0  0  0  0  0  0  0  0  0  0
  149.5790  139.4687  153.3708 H   0  0  0  0  0  0  0  0  0  0  0  0
  148.7207  139.1049  154.8780 H   0  0  0  0  0  0  0  0  0  0  0  0
  146.4815  140.0681  156.1841 H   0  0  0  0  0  0  0  0  0  0  0  0
  145.9169  141.7184  156.3183 H   0  0  0  0  0  0  0  0  0  0  0  0
  144.8072  140.5687  154.1813 H   0  0  0  0  0  0  0  0  0  0  0  0
  1  2  1  0  0  0  0
  1 23  1  0  0  0  0
  1 24  1  0  0  0  0
  1 25  1  0  0  0  0
  2 18  1  0  0  0  0
  2  3  2  0  0  0  0
  3  4  1  0  0  0  0
  3 26  1  0  0  0  0
  4  5  1  0  0  0  0
  4 15  1  0  0  0  0
  5 20  1  0  0  0  0
  5 14  1  0  0  0  0
  5  6  1  0  0  0  0
  6  7  1  0  0  0  0
  6 27  1  0  0  0  0
  6 28  1  0  0  0  0
  7 21  1  0  0  0  0
  7  8  1  0  0  0  0
  7 11  1  0  0  0  0
  8  9  2  0  0  0  0
  9 10  2  0  0  0  0
 11 22  1  0  0  0  0
 11 12  1  0  0  0  0
 11 14  1  0  0  0  0
 12 13  1  0  0  0  0
 12 29  1  0  0  0  0
 12 30  1  0  0  0  0
 13 31  1  0  0  0  0
 15 16  2  0  0  0  0
 15 17  1  0  0  0  0
 17 18  1  0  0  0  0
 18 19  2  0  0  0  0
M  CHG  1   9   1
M  CHG  1  10  -1
M  CHG  1  17  -1
M  END
> <s_m_source_file>
AV-unprocessed.smi

> <i_m_source_file_index>
39

> <i_lp_mmshare_version>
43012

> <i_f3d_flags>
0

> <s_epik_input>
Tz1jMVtuSF1jKD1PKW4oW2NIXWMxW0NIM10pW0NASF0yW0NIMl1bQ0BIXShOPVtOK109W04tXSlbQ0BIXShPMilbQ0gyXVtPSF0=

> <s_epik_cmdline>
J2VwaWtfcHl0aG9uJywgJy1waCcsICc3LjAnLCAnLXRuJywgJzgnLCAnLW1hJywgJzIwMCcsICctbWV0YWxfYmluZGluZycsICctaW1hZScsICc8aW5maWxlLm1hZT4nLCAnLW9tYWUnLCAnPG91dGZpbGUubWFlPic=

> <r_lp_tautomer_probability>
0.999537

> <r_epik_Ionization_Penalty>
3.6393

> <r_epik_Ionization_Penalty_Charging>
9.76484e-08

> <r_epik_Ionization_Penalty_Neutral>
3.6393

> <r_epik_State_Penalty>
3.63887

> <r_epik_Charging_Adjusted_Penalty>
3.63887

> <i_epik_Tot_Q>
-1

> <i_epik_Tot_abs_Q>
3

> <r_epik_Metal_State_Penalty>
0.225911

> <b_epik_Metal_Only>
1

> <s_epik_Chemistry_Notes>
This compound contains an acetal/aminal-like group ( X-CH(R)-Y where X, Y are N, S, or O) that may be acid/base labile, releasing an aldehyde.

> <s_lp_Force_Field>
OPLS_2005

> <r_lp_Energy>
41.1751

> <b_lp_Chiralities_Consistent>
1

> <s_lp_Variant>
AV-unprocessed.smi:39-11

> <Gold.Version>
5.8.1

> <Gold.Id.Protein>
6NUR|6NUR_protein|mol2

> <Gold.PLP.Fitness>
41.8635

> <Gold.PLP.PLP>
-25.6445

> <Gold.PLP.part.hbond>
-4.1479

> <Gold.PLP.part.metal>
0.0000

> <Gold.PLP.part.buried>
-2.6981

> <Gold.PLP.part.nonpolar>
-21.9035

> <Gold.PLP.part.repulsive>
3.0945

> <Gold.PLP.ligand.clash>
0.0000

> <Gold.PLP.ligand.torsion>
0.7667

> <Gold.PLP.Chemscore.Hbond>
4.8892

> <Gold.PLP.Chemscore.CHOScore>
1.0000

> <Gold.PLP.Chemscore.Metal>
0.0000

> <Gold.Chemscore.Hbonds>
donor molecule, donor type, donor heavy atom, donor atom, acceptor molecule, acceptor atom, score
      L1  H    13    31       P1 10175  0.89
      P1  H  7954  7966       L1    10  1.00
      P1  H  7989  7998       L1    16  1.00
      P1  H  7997  8008       L1    17  1.89
      L1  C     3    26       P1  8028  1.00

> <Gold.PLP.Chemscore.Internal.Correction>
0.0847

> <Gold.Rescore>
     Score         DG    S(hbond)    S(metal)    S(lipo)     H(rot)  DE(clash)    DE(int)     intcor
     10.06     -13.90       3.20        0.00      40.15       2.72       1.87       1.97       ----

> <Gold.Chemscore.Fitness>
10.0636

> <Gold.Chemscore.DG>
-13.9013

> <Gold.Chemscore.ZeroCoef>
-5.4800

> <Gold.Chemscore.Hbond>
3.1960

> <Gold.Chemscore.Metal>
0.0000

> <Gold.Chemscore.Lipo>
40.1537

> <Gold.Chemscore.Internal_Hbond>
0.0000

> <Gold.Chemscore.DEClash>
1.8675

> <Gold.Chemscore.DEInternal>
1.9702

> <Gold.Chemscore.Rot>
2.7153

> <Gold.Chemscore.Internal.Correction>
   9.000000E+99

> <Gold.Chemscore.Hbonds>
donor molecule, donor type, donor heavy atom, donor atom, acceptor molecule, acceptor atom, score
      L1  H    13    31       P1 10175  0.80
      P1  H  7954  7966       L1    10  0.97
      P1  H  7989  7998       L1    16  0.25
      P1  H  7997  8008       L1    17  0.43

> <Gold.Chemscore.Hbond.Weighted>
-10.6746

> <Gold.Chemscore.Metal.Weighted>
-0.0000

> <Gold.Chemscore.Lipo.Weighted>
-4.6980

> <Gold.Chemscore.Internal_Hbond.Weighted>
0.0000

> <Gold.Chemscore.DEClash.Weighted>
1.8675

> <Gold.Chemscore.DEInternal.Weighted>
1.9702

> <Gold.Chemscore.Rot.Weighted>
6.9512

> <Gold.Chemscore.Internal.Correction.Weighted>
   9.000000E+99

> <Gold.Protein.RotatedTorsions>
[ 6907 6896 6895 6894 ] final    4.50 input  -60.11 | X-H torsion
[ 7974 7965 7964 7962 ] final -106.56 input  175.53 | X-H torsion
[ 8008 7997 7996 7995 ] final  -47.18 input   59.86 | X-H torsion
[ 10167 10162 10161 10158 ] final   79.72 input  -65.29 | X-H torsion
[ 10718 10713 10712 10709 ] final  -66.10 input   66.30 | X-H torsion
[ 10763 10752 10751 10750 ] final  140.25 input  -60.55 | X-H torsion
[ 11005 11000 10999 10996 ] final  136.49 input  -57.11 | X-H torsion

> <Gold.Protein.ActiveResidues>
 VAL166  LYS551  ARG553  GLY616  TRP617  ASP618  TYR619  PRO620  LYS621  CYS622 
 ASP623  PHE694  ASN695  SER759  ASP760  ASP761  ALA762  ILE779  LEU786  VAL792 
 PHE793  MET794  SER795  GLU796  ALA797  LYS798  CYS799  TRP800  GLU811  SER814 

> <Gold.Protein.RotatedAtoms>
  151.6423  135.1011  160.0143 H   0  0  0  0  0  0  0  0  0  0  0  0  # atno 6907 bound_to 6896
  152.4047  133.6867  159.6355 H   0  0  0  0  0  0  0  0  0  0  0  0  # atno 6908 bound_to 6896
  150.7943  133.8647  159.3282 H   0  0  0  0  0  0  0  0  0  0  0  0  # atno 6909 bound_to 6896
  145.2163  140.9116  143.3285 H   0  0  0  0  0  0  0  0  0  0  0  0  # atno 7974 bound_to 7965
  154.4014  140.1353  156.4134 H   0  0  0  0  0  0  0  0  0  0  0  0  # atno 8008 bound_to 7997
  155.7712  140.3484  155.5228 H   0  0  0  0  0  0  0  0  0  0  0  0  # atno 8009 bound_to 7997
  155.8765  140.0980  157.1505 H   0  0  0  0  0  0  0  0  0  0  0  0  # atno 8010 bound_to 7997
  139.9574  144.5985  150.8104 H   0  0  0  0  0  0  0  0  0  0  0  0  # atno 10167 bound_to 10162
  156.0632  130.4257  150.1659 H   0  0  0  0  0  0  0  0  0  0  0  0  # atno 10718 bound_to 10713
  153.9197  135.3002  155.3448 H   0  0  0  0  0  0  0  0  0  0  0  0  # atno 10763 bound_to 10752
  154.7582  135.4947  153.9417 H   0  0  0  0  0  0  0  0  0  0  0  0  # atno 10764 bound_to 10752
  153.1148  135.6768  153.9539 H   0  0  0  0  0  0  0  0  0  0  0  0  # atno 10765 bound_to 10752
  140.0049  134.9463  157.0154 H   0  0  0  0  0  0  0  0  0  0  0  0  # atno 11005 bound_to 11000
  144.9808  139.3785  143.6263 LP  0  0  0  0  0  0  0  0  0  0  0  0  # atno 17320 bound_to 7965
  146.3386  139.8947  142.8803 LP  0  0  0  0  0  0  0  0  0  0  0  0  # atno 17321 bound_to 7965
  140.7564  143.3065  151.2949 LP  0  0  0  0  0  0  0  0  0  0  0  0  # atno 17342 bound_to 10162
  139.6581  144.0239  152.2673 LP  0  0  0  0  0  0  0  0  0  0  0  0  # atno 17343 bound_to 10162
  156.9724  130.9838  151.3456 LP  0  0  0  0  0  0  0  0  0  0  0  0  # atno 17370 bound_to 10713
  157.5655  130.8275  149.8322 LP  0  0  0  0  0  0  0  0  0  0  0  0  # atno 17371 bound_to 10713
  140.4659  134.1436  155.7197 LP  0  0  0  0  0  0  0  0  0  0  0  0  # atno 17394 bound_to 11000
  141.1670  133.8684  157.1686 LP  0  0  0  0  0  0  0  0  0  0  0  0  # atno 17395 bound_to 11000

$$$$
