AV-unprocessed.smi:1884|AV-procd|sdf|7649|dock5
  -GOLD-   22720 9373D 1   1.00000     0.00000
 Structure written by MMmdl.
 41 43  0  0  0  0  0  0  0  0  2 V2000
  146.6446  142.1562  153.6714 C   0  0  0  0  0  0  0  0  0  0  0  0
  147.9116  141.5326  154.1522 C   0  0  0  0  0  0  0  0  0  0  0  0
  148.7807  142.0727  155.0523 N   0  3  0  0  0  0  0  0  0  0  0  0
  149.8511  141.2008  155.2571 C   0  0  0  0  0  0  0  0  0  0  0  0
  150.9720  141.3112  156.0740 C   0  0  0  0  0  0  0  0  0  0  0  0
  151.8850  140.2365  156.0442 C   0  0  0  0  0  0  0  0  0  0  0  0
  151.6660  139.1094  155.2257 C   0  0  0  0  0  0  0  0  0  0  0  0
  150.5233  139.0070  154.4050 C   0  0  0  0  0  0  0  0  0  0  0  0
  149.6252  140.0736  154.4404 C   0  0  0  0  0  0  0  0  0  0  0  0
  148.4155  140.3214  153.7797 N   0  0  0  0  0  0  0  0  0  0  0  0
  147.8758  139.3213  152.8451 C   0  0  0  0  0  0  0  0  0  0  0  0
  146.3473  139.1557  152.9621 C   0  0  1  0  0  0  0  0  0  0  0  0
  145.7312  139.0534  151.6942 O   0  0  0  0  0  0  0  0  0  0  0  0
  145.9230  137.9600  153.8303 C   0  0  0  0  0  0  0  0  0  0  0  0
  144.6278  137.5133  153.4467 O   0  0  0  0  0  0  0  0  0  0  0  0
  144.5324  136.3987  152.6418 C   0  0  0  0  0  0  0  0  0  0  0  0
  143.3750  135.6054  152.7819 C   0  0  0  0  0  0  0  0  0  0  0  0
  143.1931  134.4485  151.9997 C   0  0  0  0  0  0  0  0  0  0  0  0
  144.1740  134.0706  151.0618 C   0  0  0  0  0  0  0  0  0  0  0  0
  143.9901  132.8775  150.2526 C   0  0  0  0  0  0  0  0  0  0  0  0
  143.8434  131.9277  149.6082 N   0  0  0  0  0  0  0  0  0  0  0  0
  145.3346  134.8550  150.9119 C   0  0  0  0  0  0  0  0  0  0  0  0
  145.5149  136.0118  151.6955 C   0  0  0  0  0  0  0  0  0  0  0  0
  146.5083  143.1415  154.1178 H   0  0  0  0  0  0  0  0  0  0  0  0
  145.7923  141.5321  153.9408 H   0  0  0  0  0  0  0  0  0  0  0  0
  146.6666  142.2671  152.5872 H   0  0  0  0  0  0  0  0  0  0  0  0
  151.1424  142.1742  156.7010 H   0  0  0  0  0  0  0  0  0  0  0  0
  152.7717  140.2783  156.6601 H   0  0  0  0  0  0  0  0  0  0  0  0
  152.3890  138.3066  155.2263 H   0  0  0  0  0  0  0  0  0  0  0  0
  150.3680  138.1405  153.7791 H   0  0  0  0  0  0  0  0  0  0  0  0
  148.1749  139.5841  151.8303 H   0  0  0  0  0  0  0  0  0  0  0  0
  148.3671  138.3733  153.0669 H   0  0  0  0  0  0  0  0  0  0  0  0
  145.9375  140.0563  153.4209 H   0  0  0  0  0  0  0  0  0  0  0  0
  145.0209  139.6752  151.6553 H   0  0  0  0  0  0  0  0  0  0  0  0
  146.6372  137.1492  153.6783 H   0  0  0  0  0  0  0  0  0  0  0  0
  145.9485  138.2312  154.8873 H   0  0  0  0  0  0  0  0  0  0  0  0
  142.6173  135.8869  153.4983 H   0  0  0  0  0  0  0  0  0  0  0  0
  142.2983  133.8556  152.1248 H   0  0  0  0  0  0  0  0  0  0  0  0
  146.0938  134.5750  150.1956 H   0  0  0  0  0  0  0  0  0  0  0  0
  146.4170  136.5859  151.5498 H   0  0  0  0  0  0  0  0  0  0  0  0
  148.6486  142.9733  155.4943 H   0  0  0  0  0  0  0  0  0  0  0  0
  1  2  1  0  0  0  0
  1 24  1  0  0  0  0
  1 25  1  0  0  0  0
  1 26  1  0  0  0  0
  2 10  1  0  0  0  0
  2  3  2  0  0  0  0
  3  4  1  0  0  0  0
  3 41  1  0  0  0  0
  4  9  2  0  0  0  0
  4  5  1  0  0  0  0
  5  6  2  0  0  0  0
  5 27  1  0  0  0  0
  6  7  1  0  0  0  0
  6 28  1  0  0  0  0
  7  8  2  0  0  0  0
  7 29  1  0  0  0  0
  8  9  1  0  0  0  0
  8 30  1  0  0  0  0
  9 10  1  0  0  0  0
 10 11  1  0  0  0  0
 11 12  1  0  0  0  0
 11 31  1  0  0  0  0
 11 32  1  0  0  0  0
 12 13  1  0  0  0  0
 12 14  1  0  0  0  0
 12 33  1  0  0  0  0
 13 34  1  0  0  0  0
 14 15  1  0  0  0  0
 14 35  1  0  0  0  0
 14 36  1  0  0  0  0
 15 16  1  0  0  0  0
 16 23  1  0  0  0  0
 16 17  2  0  0  0  0
 17 18  1  0  0  0  0
 17 37  1  0  0  0  0
 18 19  2  0  0  0  0
 18 38  1  0  0  0  0
 19 20  1  0  0  0  0
 19 22  1  0  0  0  0
 20 21  3  0  0  0  0
 22 23  2  0  0  0  0
 22 39  1  0  0  0  0
 23 40  1  0  0  0  0
M  CHG  1   3   1
M  END
> <s_m_source_file>
AV-unprocessed.smi

> <i_m_source_file_index>
1884

> <i_lp_mmshare_version>
43012

> <i_f3d_flags>
0

> <s_epik_input>
W2NIXTFbY0hdW2NIXVtjSF1jKGMxMiluKGMobjIpW0NIM10pW0NIMl1bQ0BIXShbT0hdKVtDSDJdT2MzW2NIXVtjSF1jKEMjTilbY0hdW2NIXTM=

> <s_epik_cmdline>
J2VwaWtfcHl0aG9uJywgJy1waCcsICc3LjAnLCAnLXRuJywgJzgnLCAnLW1hJywgJzIwMCcsICctbWV0YWxfYmluZGluZycsICctaW1hZScsICc8aW5maWxlLm1hZT4nLCAnLW9tYWUnLCAnPG91dGZpbGUubWFlPic=

> <r_epik_Ionization_Penalty>
1.04791

> <r_epik_Ionization_Penalty_Charging>
1.04791

> <r_epik_Ionization_Penalty_Neutral>
2.3993e-06

> <r_epik_State_Penalty>
1.10051

> <r_epik_Charging_Adjusted_Penalty>
2.14841

> <i_epik_Tot_Q>
1

> <i_epik_Tot_abs_Q>
1

> <r_epik_Metal_State_Penalty>
5.09283

> <b_epik_Metal_Only>
0

> <s_lp_Force_Field>
OPLS_2005

> <r_lp_Energy>
19.6719

> <b_lp_Chiralities_Consistent>
1

> <s_lp_Variant>
AV-unprocessed.smi:1884-4

> <Gold.Version>
5.8.1

> <Gold.Id.Protein>
6NUR|6NUR_protein|mol2

> <Gold.PLP.Fitness>
54.7283

> <Gold.PLP.PLP>
-46.7959

> <Gold.PLP.part.hbond>
-4.0000

> <Gold.PLP.part.metal>
0.0000

> <Gold.PLP.part.buried>
-0.3784

> <Gold.PLP.part.nonpolar>
-43.2290

> <Gold.PLP.part.repulsive>
0.5216

> <Gold.PLP.ligand.clash>
0.0000

> <Gold.PLP.ligand.torsion>
1.8375

> <Gold.PLP.Chemscore.Hbond>
3.8480

> <Gold.PLP.Chemscore.CHOScore>
0.0000

> <Gold.PLP.Chemscore.Metal>
0.0000

> <Gold.Chemscore.Hbonds>
donor molecule, donor type, donor heavy atom, donor atom, acceptor molecule, acceptor atom, score
      L1  H     3    41       P1  8028  2.00
      L1  H    13    34       P1 10175  0.99
      P1  H 10785 10796       L1    21  0.72

> <Gold.PLP.Chemscore.Internal.Correction>
0.0636

> <Gold.Rescore>
     Score         DG    S(hbond)    S(metal)    S(lipo)     H(rot)  DE(clash)    DE(int)     intcor
     16.08     -19.35       2.79        0.00      91.14       2.39       1.67       1.60       ----

> <Gold.Chemscore.Fitness>
16.0829

> <Gold.Chemscore.DG>
-19.3473

> <Gold.Chemscore.ZeroCoef>
-5.4800

> <Gold.Chemscore.Hbond>
2.7924

> <Gold.Chemscore.Metal>
0.0000

> <Gold.Chemscore.Lipo>
91.1417

> <Gold.Chemscore.Internal_Hbond>
0.0000

> <Gold.Chemscore.DEClash>
1.6661

> <Gold.Chemscore.DEInternal>
1.5983

> <Gold.Chemscore.Rot>
2.3917

> <Gold.Chemscore.Internal.Correction>
   9.000000E+99

> <Gold.Chemscore.Hbonds>
donor molecule, donor type, donor heavy atom, donor atom, acceptor molecule, acceptor atom, score
      L1  H     3    41       P1  8028  0.98
      L1  H    13    34       P1 10175  0.57
      P1  H 10785 10796       L1    21  0.70

> <Gold.Chemscore.Hbond.Weighted>
-9.3266

> <Gold.Chemscore.Metal.Weighted>
-0.0000

> <Gold.Chemscore.Lipo.Weighted>
-10.6636

> <Gold.Chemscore.Internal_Hbond.Weighted>
0.0000

> <Gold.Chemscore.DEClash.Weighted>
1.6661

> <Gold.Chemscore.DEInternal.Weighted>
1.5983

> <Gold.Chemscore.Rot.Weighted>
6.1229

> <Gold.Chemscore.Internal.Correction.Weighted>
   9.000000E+99

> <Gold.Protein.RotatedTorsions>
[ 6907 6896 6895 6894 ] final -123.86 input  -60.11 | X-H torsion
[ 7974 7965 7964 7962 ] final -131.21 input  175.53 | X-H torsion
[ 8008 7997 7996 7995 ] final   35.52 input   59.86 | X-H torsion
[ 10167 10162 10161 10158 ] final -130.22 input  -65.29 | X-H torsion
[ 10718 10713 10712 10709 ] final  107.31 input   66.30 | X-H torsion
[ 10763 10752 10751 10750 ] final  -81.27 input  -60.55 | X-H torsion
[ 11005 11000 10999 10996 ] final  -28.19 input  -57.11 | X-H torsion

> <Gold.Protein.ActiveResidues>
 VAL166  LYS551  ARG553  GLY616  TRP617  ASP618  TYR619  PRO620  LYS621  CYS622 
 ASP623  PHE694  ASN695  SER759  ASP760  ASP761  ALA762  ILE779  LEU786  VAL792 
 PHE793  MET794  SER795  GLU796  ALA797  LYS798  CYS799  TRP800  GLU811  SER814 

> <Gold.Protein.RotatedAtoms>
  150.8711  133.7504  159.2960 H   0  0  0  0  0  0  0  0  0  0  0  0  # atno 6907 bound_to 6896
  151.5115  135.1063  159.9865 H   0  0  0  0  0  0  0  0  0  0  0  0  # atno 6908 bound_to 6896
  152.4696  133.7954  159.6980 H   0  0  0  0  0  0  0  0  0  0  0  0  # atno 6909 bound_to 6896
  144.9401  140.7228  143.4852 H   0  0  0  0  0  0  0  0  0  0  0  0  # atno 7974 bound_to 7965
  155.1724  140.3293  155.4390 H   0  0  0  0  0  0  0  0  0  0  0  0  # atno 8008 bound_to 7997
  156.2505  140.1941  156.6777 H   0  0  0  0  0  0  0  0  0  0  0  0  # atno 8009 bound_to 7997
  154.6328  140.0580  156.9739 H   0  0  0  0  0  0  0  0  0  0  0  0  # atno 8010 bound_to 7997
  139.9316  143.6265  152.2528 H   0  0  0  0  0  0  0  0  0  0  0  0  # atno 10167 bound_to 10162
  157.6633  131.0870  150.6137 H   0  0  0  0  0  0  0  0  0  0  0  0  # atno 10718 bound_to 10713
  154.5615  135.5632  153.7011 H   0  0  0  0  0  0  0  0  0  0  0  0  # atno 10763 bound_to 10752
  153.0019  135.6275  154.2239 H   0  0  0  0  0  0  0  0  0  0  0  0  # atno 10764 bound_to 10752
  154.2176  135.2871  155.2916 H   0  0  0  0  0  0  0  0  0  0  0  0  # atno 10765 bound_to 10752
  140.9186  133.7413  156.0770 H   0  0  0  0  0  0  0  0  0  0  0  0  # atno 11005 bound_to 11000
  145.3005  139.1852  143.4692 LP  0  0  0  0  0  0  0  0  0  0  0  0  # atno 17320 bound_to 7965
  146.3282  140.2995  142.8620 LP  0  0  0  0  0  0  0  0  0  0  0  0  # atno 17321 bound_to 7965
  139.6778  144.7657  151.1665 LP  0  0  0  0  0  0  0  0  0  0  0  0  # atno 17342 bound_to 10162
  140.7636  143.5770  150.8935 LP  0  0  0  0  0  0  0  0  0  0  0  0  # atno 17343 bound_to 10162
  156.6439  130.4466  149.5743 LP  0  0  0  0  0  0  0  0  0  0  0  0  # atno 17370 bound_to 10713
  156.2188  130.6724  151.1347 LP  0  0  0  0  0  0  0  0  0  0  0  0  # atno 17371 bound_to 10713
  140.8017  134.3501  157.5437 LP  0  0  0  0  0  0  0  0  0  0  0  0  # atno 17394 bound_to 11000
  139.8771  134.9201  156.3244 LP  0  0  0  0  0  0  0  0  0  0  0  0  # atno 17395 bound_to 11000

$$$$
