AV-unprocessed.smi:3116|AV-procd|sdf|11867|dock9
  -GOLD-   2272017253D 1   1.00000     0.00000
 Structure written by MMmdl.
 34 34  0  0  0  0  0  0  0  0  2 V2000
  146.7500  138.6569  151.0153 C   0  0  0  0  0  0  0  0  0  0  0  0
  146.1720  138.1348  152.3387 C   0  0  1  0  0  0  0  0  0  0  0  0
  146.4385  136.6819  152.4614 N   0  3  0  0  0  0  0  0  0  0  0  0
  145.6625  135.7995  151.5545 C   0  0  2  0  0  0  0  0  0  0  0  0
  144.1644  136.0681  151.7768 C   0  0  0  0  0  0  0  0  0  0  0  0
  146.0410  134.3111  151.7878 C   0  0  1  0  0  0  0  0  0  0  0  0
  145.8152  133.8471  153.2399 C   0  0  0  0  0  0  0  0  0  0  0  0
  145.3348  133.4245  150.8696 N   0  0  0  0  0  0  0  0  0  0  0  0
  145.8674  132.4682  150.0292 C   0  0  0  0  0  0  0  0  0  0  0  0
  144.8299  131.8961  149.3510 C   0  0  0  0  0  0  0  0  0  0  0  0
  143.6836  132.5722  149.8530 C   0  0  0  0  0  0  0  0  0  0  0  0
  143.9884  133.4864  150.7596 N   0  0  0  0  0  0  0  0  0  0  0  0
  146.7599  138.9194  153.5199 C   0  0  0  0  0  0  0  0  0  0  0  0
  145.9786  139.8424  154.0866 N   0  0  0  0  0  0  0  0  0  0  0  0
  147.9069  138.7058  153.9081 O   0  0  0  0  0  0  0  0  0  0  0  0
  146.5471  139.7207  150.8857 H   0  0  0  0  0  0  0  0  0  0  0  0
  146.3069  138.1363  150.1654 H   0  0  0  0  0  0  0  0  0  0  0  0
  147.8306  138.5152  150.9645 H   0  0  0  0  0  0  0  0  0  0  0  0
  145.0933  138.2918  152.3124 H   0  0  0  0  0  0  0  0  0  0  0  0
  147.4177  136.5247  152.2722 H   0  0  0  0  0  0  0  0  0  0  0  0
  145.8861  136.0597  150.5184 H   0  0  0  0  0  0  0  0  0  0  0  0
  143.5471  135.5362  151.0534 H   0  0  0  0  0  0  0  0  0  0  0  0
  143.9353  137.1285  151.6659 H   0  0  0  0  0  0  0  0  0  0  0  0
  143.8497  135.7645  152.7757 H   0  0  0  0  0  0  0  0  0  0  0  0
  147.1054  134.1980  151.5748 H   0  0  0  0  0  0  0  0  0  0  0  0
  146.4742  134.3653  153.9357 H   0  0  0  0  0  0  0  0  0  0  0  0
  146.0199  132.7811  153.3453 H   0  0  0  0  0  0  0  0  0  0  0  0
  144.7877  134.0204  153.5613 H   0  0  0  0  0  0  0  0  0  0  0  0
  146.9293  132.2763  149.9823 H   0  0  0  0  0  0  0  0  0  0  0  0
  144.8813  131.1110  148.6110 H   0  0  0  0  0  0  0  0  0  0  0  0
  142.6468  132.4282  149.5868 H   0  0  0  0  0  0  0  0  0  0  0  0
  146.3159  140.3848  154.8688 H   0  0  0  0  0  0  0  0  0  0  0  0
  145.0456  139.9939  153.7301 H   0  0  0  0  0  0  0  0  0  0  0  0
  146.2504  136.4127  153.4167 H   0  0  0  0  0  0  0  0  0  0  0  0
  1  2  1  0  0  0  0
  1 16  1  0  0  0  0
  1 17  1  0  0  0  0
  1 18  1  0  0  0  0
  2  3  1  0  0  0  0
  2 13  1  0  0  0  0
  2 19  1  0  0  0  0
  3  4  1  0  0  0  0
  3 20  1  0  0  0  0
  3 34  1  0  0  0  0
  4  5  1  0  0  0  0
  4  6  1  0  0  0  0
  4 21  1  0  0  0  0
  5 22  1  0  0  0  0
  5 23  1  0  0  0  0
  5 24  1  0  0  0  0
  6  7  1  0  0  0  0
  6  8  1  0  0  0  0
  6 25  1  0  0  0  0
  7 26  1  0  0  0  0
  7 27  1  0  0  0  0
  7 28  1  0  0  0  0
  8 12  1  0  0  0  0
  8  9  1  0  0  0  0
  9 10  2  0  0  0  0
  9 29  1  0  0  0  0
 10 11  1  0  0  0  0
 10 30  1  0  0  0  0
 11 12  2  0  0  0  0
 11 31  1  0  0  0  0
 13 14  1  0  0  0  0
 13 15  2  0  0  0  0
 14 32  1  0  0  0  0
 14 33  1  0  0  0  0
M  CHG  1   3   1
M  END
> <s_m_source_file>
AV-unprocessed.smi

> <i_m_source_file_index>
3116

> <i_lp_mmshare_version>
43012

> <i_f3d_flags>
0

> <s_epik_input>
W05IMl1DKD1PKVtDQEhdKFtDSDNdKVtOSF1bQ0BIXShbQ0gzXSlbQ0BIXShbQ0gzXSluMVtjSF1bY0hdW2NIXW4x

> <s_epik_cmdline>
J2VwaWtfcHl0aG9uJywgJy1waCcsICc3LjAnLCAnLXRuJywgJzgnLCAnLW1hJywgJzIwMCcsICctbWV0YWxfYmluZGluZycsICctaW1hZScsICc8aW5maWxlLm1hZT4nLCAnLW9tYWUnLCAnPG91dGZpbGUubWFlPic=

> <r_lp_tautomer_probability>
1

> <r_epik_Ionization_Penalty>
0.15658

> <r_epik_Ionization_Penalty_Charging>
0.156568

> <r_epik_Ionization_Penalty_Neutral>
1.19778e-05

> <r_epik_State_Penalty>
0.145866

> <r_epik_Charging_Adjusted_Penalty>
0.302434

> <i_epik_Tot_Q>
1

> <i_epik_Tot_abs_Q>
1

> <r_epik_Metal_State_Penalty>
0.146064

> <b_epik_Metal_Only>
0

> <s_lp_Force_Field>
OPLS_2005

> <r_lp_Energy>
9.77371

> <b_lp_Chiralities_Consistent>
1

> <s_lp_Variant>
AV-unprocessed.smi:3116-6

> <Gold.Version>
5.8.1

> <Gold.Id.Protein>
6NUR|6NUR_protein|mol2

> <Gold.PLP.Fitness>
39.3738

> <Gold.PLP.PLP>
-25.3409

> <Gold.PLP.part.hbond>
-2.0000

> <Gold.PLP.part.metal>
0.0000

> <Gold.PLP.part.buried>
0.0557

> <Gold.PLP.part.nonpolar>
-25.5372

> <Gold.PLP.part.repulsive>
0.3805

> <Gold.PLP.ligand.clash>
0.0000

> <Gold.PLP.ligand.torsion>
0.6753

> <Gold.PLP.Chemscore.Hbond>
2.9920

> <Gold.PLP.Chemscore.CHOScore>
2.1094

> <Gold.PLP.Chemscore.Metal>
0.0000

> <Gold.Chemscore.Hbonds>
donor molecule, donor type, donor heavy atom, donor atom, acceptor molecule, acceptor atom, score
      L1  H     3    20       P1  7948  2.00
      L1  H    14    33       P1 10175  1.00
      L1  C     9    29       P1 10747  1.00
      L1  C    11    31       P1 10186  0.74
      L1  C    11    31       P1 10952  0.42

> <Gold.PLP.Chemscore.Internal.Correction>
0.0792

> <Gold.Rescore>
     Score         DG    S(hbond)    S(metal)    S(lipo)     H(rot)  DE(clash)    DE(int)     intcor
     11.84     -14.06       1.97        0.00      70.72       2.45       0.05       2.18       ----

> <Gold.Chemscore.Fitness>
11.8351

> <Gold.Chemscore.DG>
-14.0632

> <Gold.Chemscore.ZeroCoef>
-5.4800

> <Gold.Chemscore.Hbond>
1.9675

> <Gold.Chemscore.Metal>
0.0000

> <Gold.Chemscore.Lipo>
70.7246

> <Gold.Chemscore.Internal_Hbond>
0.0000

> <Gold.Chemscore.DEClash>
0.0523

> <Gold.Chemscore.DEInternal>
2.1758

> <Gold.Chemscore.Rot>
2.4465

> <Gold.Chemscore.Internal.Correction>
   9.000000E+99

> <Gold.Chemscore.Hbonds>
donor molecule, donor type, donor heavy atom, donor atom, acceptor molecule, acceptor atom, score
      L1  H     3    20       P1  7948  0.99
      L1  H    14    33       P1 10175  0.99

> <Gold.Chemscore.Hbond.Weighted>
-6.5716

> <Gold.Chemscore.Metal.Weighted>
-0.0000

> <Gold.Chemscore.Lipo.Weighted>
-8.2748

> <Gold.Chemscore.Internal_Hbond.Weighted>
0.0000

> <Gold.Chemscore.DEClash.Weighted>
0.0523

> <Gold.Chemscore.DEInternal.Weighted>
2.1758

> <Gold.Chemscore.Rot.Weighted>
6.2631

> <Gold.Chemscore.Internal.Correction.Weighted>
   9.000000E+99

> <Gold.Protein.RotatedTorsions>
[ 6907 6896 6895 6894 ] final  165.28 input  -60.11 | X-H torsion
[ 7974 7965 7964 7962 ] final  147.12 input  175.53 | X-H torsion
[ 8008 7997 7996 7995 ] final -177.94 input   59.86 | X-H torsion
[ 10167 10162 10161 10158 ] final  162.63 input  -65.29 | X-H torsion
[ 10718 10713 10712 10709 ] final  -95.55 input   66.30 | X-H torsion
[ 10763 10752 10751 10750 ] final -106.57 input  -60.55 | X-H torsion
[ 11005 11000 10999 10996 ] final  -62.55 input  -57.11 | X-H torsion

> <Gold.Protein.ActiveResidues>
 VAL166  LYS551  ARG553  GLY616  TRP617  ASP618  TYR619  PRO620  LYS621  CYS622 
 ASP623  PHE694  ASN695  SER759  ASP760  ASP761  ALA762  ILE779  LEU786  VAL792 
 PHE793  MET794  SER795  GLU796  ALA797  LYS798  CYS799  TRP800  GLU811  SER814 

> <Gold.Protein.RotatedAtoms>
  151.8969  133.3529  159.3817 H   0  0  0  0  0  0  0  0  0  0  0  0  # atno 6907 bound_to 6896
  150.7089  134.4867  159.5505 H   0  0  0  0  0  0  0  0  0  0  0  0  # atno 6908 bound_to 6896
  152.2448  134.8192  160.0506 H   0  0  0  0  0  0  0  0  0  0  0  0  # atno 6909 bound_to 6896
  144.8616  139.5990  143.5928 H   0  0  0  0  0  0  0  0  0  0  0  0  # atno 7974 bound_to 7965
  156.0129  140.1244  157.0435 H   0  0  0  0  0  0  0  0  0  0  0  0  # atno 8008 bound_to 7997
  154.4282  140.1084  156.5925 H   0  0  0  0  0  0  0  0  0  0  0  0  # atno 8009 bound_to 7997
  155.6054  140.3471  155.4608 H   0  0  0  0  0  0  0  0  0  0  0  0  # atno 8010 bound_to 7997
  139.4863  144.4418  151.8942 H   0  0  0  0  0  0  0  0  0  0  0  0  # atno 10167 bound_to 10162
  156.0045  130.5114  150.6094 H   0  0  0  0  0  0  0  0  0  0  0  0  # atno 10718 bound_to 10713
  154.8020  135.4707  154.0300 H   0  0  0  0  0  0  0  0  0  0  0  0  # atno 10763 bound_to 10752
  153.1798  135.6838  153.8501 H   0  0  0  0  0  0  0  0  0  0  0  0  # atno 10764 bound_to 10752
  153.8055  135.3224  155.3372 H   0  0  0  0  0  0  0  0  0  0  0  0  # atno 10765 bound_to 10752
  141.1363  133.6641  156.5545 H   0  0  0  0  0  0  0  0  0  0  0  0  # atno 11005 bound_to 11000
  146.2865  139.7018  142.9192 LP  0  0  0  0  0  0  0  0  0  0  0  0  # atno 17320 bound_to 7965
  145.4301  141.0414  143.2915 LP  0  0  0  0  0  0  0  0  0  0  0  0  # atno 17321 bound_to 7965
  140.3871  144.2663  150.5903 LP  0  0  0  0  0  0  0  0  0  0  0  0  # atno 17342 bound_to 10162
  140.5181  143.2273  151.8432 LP  0  0  0  0  0  0  0  0  0  0  0  0  # atno 17343 bound_to 10162
  157.3929  131.0798  151.1378 LP  0  0  0  0  0  0  0  0  0  0  0  0  # atno 17370 bound_to 10713
  157.2064  130.6418  149.5757 LP  0  0  0  0  0  0  0  0  0  0  0  0  # atno 17371 bound_to 10713
  140.4037  134.7333  157.4795 LP  0  0  0  0  0  0  0  0  0  0  0  0  # atno 17394 bound_to 11000
  140.0477  134.6175  155.8900 LP  0  0  0  0  0  0  0  0  0  0  0  0  # atno 17395 bound_to 11000

$$$$
