AV-unprocessed.smi:2963|AV-procd|sdf|11319|dock4
  -GOLD-   2272016223D 1   1.00000     0.00000
 Structure written by MMmdl.
 41 43  0  0  0  0  0  0  0  0  1 V2000
  149.0701  145.0118  160.6891 C   0  0  0  0  0  0  0  0  0  0  0  0
  150.0239  144.0616  160.2411 O   0  0  0  0  0  0  0  0  0  0  0  0
  151.3627  144.5361  160.2836 C   0  0  0  0  0  0  0  0  0  0  0  0
  152.1533  144.1518  159.0200 C   0  0  0  0  0  0  0  0  0  0  0  0
  152.3273  142.7106  158.9037 N   0  0  0  0  0  0  0  0  0  0  0  0
  151.9049  141.8859  157.9138 C   0  0  0  0  0  0  0  0  0  0  0  0
  151.0085  142.4752  156.5178 S   0  0  0  0  0  0  0  0  0  0  0  0
  149.3971  141.7480  156.9427 C   0  0  0  0  0  0  0  0  0  0  0  0
  148.6322  141.1535  155.7494 C   0  0  0  0  0  0  0  0  0  0  0  0
  147.4793  141.5371  155.5351 O   0  0  0  0  0  0  0  0  0  0  0  0
  149.2778  140.2347  154.9826 N   0  0  0  0  0  0  0  0  0  0  0  0
  150.6430  139.7776  155.2489 C   0  0  0  0  0  0  0  0  0  0  0  0
  150.9208  138.7582  154.1497 C   0  0  0  0  0  0  0  0  0  0  0  0
  149.6895  138.7811  153.3999 N   0  0  0  0  0  0  0  0  0  0  0  0
  148.7725  139.6209  153.8862 C   0  0  0  0  0  0  0  0  0  0  0  0
  147.6599  139.7775  153.3816 O   0  0  0  0  0  0  0  0  0  0  0  0
  152.2182  140.5981  158.0597 N   0  0  0  0  0  0  0  0  0  0  0  0
  152.9051  140.5851  159.2573 C   0  0  0  0  0  0  0  0  0  0  0  0
  153.4999  139.5156  159.9641 C   0  0  0  0  0  0  0  0  0  0  0  0
  154.1608  139.7488  161.1880 C   0  0  0  0  0  0  0  0  0  0  0  0
  154.2372  141.0520  161.7207 C   0  0  0  0  0  0  0  0  0  0  0  0
  153.6507  142.1317  161.0327 C   0  0  0  0  0  0  0  0  0  0  0  0
  152.9912  141.8929  159.8122 C   0  0  0  0  0  0  0  0  0  0  0  0
  148.0727  144.5744  160.6468 H   0  0  0  0  0  0  0  0  0  0  0  0
  149.0726  145.8989  160.0547 H   0  0  0  0  0  0  0  0  0  0  0  0
  149.2563  145.3202  161.7178 H   0  0  0  0  0  0  0  0  0  0  0  0
  151.3223  145.6230  160.3591 H   0  0  0  0  0  0  0  0  0  0  0  0
  151.8738  144.1903  161.1834 H   0  0  0  0  0  0  0  0  0  0  0  0
  151.6207  144.5012  158.1349 H   0  0  0  0  0  0  0  0  0  0  0  0
  153.1231  144.6470  158.9976 H   0  0  0  0  0  0  0  0  0  0  0  0
  149.5712  140.9584  157.6744 H   0  0  0  0  0  0  0  0  0  0  0  0
  148.7912  142.5155  157.4250 H   0  0  0  0  0  0  0  0  0  0  0  0
  151.3521  140.6052  155.1943 H   0  0  0  0  0  0  0  0  0  0  0  0
  150.7203  139.3156  156.2343 H   0  0  0  0  0  0  0  0  0  0  0  0
  151.7611  139.0507  153.5189 H   0  0  0  0  0  0  0  0  0  0  0  0
  151.1059  137.7613  154.5515 H   0  0  0  0  0  0  0  0  0  0  0  0
  149.5453  138.2076  152.5815 H   0  0  0  0  0  0  0  0  0  0  0  0
  153.4476  138.5139  159.5643 H   0  0  0  0  0  0  0  0  0  0  0  0
  154.6121  138.9241  161.7199 H   0  0  0  0  0  0  0  0  0  0  0  0
  154.7466  141.2223  162.6580 H   0  0  0  0  0  0  0  0  0  0  0  0
  153.7084  143.1314  161.4371 H   0  0  0  0  0  0  0  0  0  0  0  0
  1  2  1  0  0  0  0
  1 24  1  0  0  0  0
  1 25  1  0  0  0  0
  1 26  1  0  0  0  0
  2  3  1  0  0  0  0
  3  4  1  0  0  0  0
  3 27  1  0  0  0  0
  3 28  1  0  0  0  0
  4  5  1  0  0  0  0
  4 29  1  0  0  0  0
  4 30  1  0  0  0  0
  5 23  1  0  0  0  0
  5  6  1  0  0  0  0
  6  7  1  0  0  0  0
  6 17  2  0  0  0  0
  7  8  1  0  0  0  0
  8  9  1  0  0  0  0
  8 31  1  0  0  0  0
  8 32  1  0  0  0  0
  9 10  2  0  0  0  0
  9 11  1  0  0  0  0
 11 15  1  0  0  0  0
 11 12  1  0  0  0  0
 12 13  1  0  0  0  0
 12 33  1  0  0  0  0
 12 34  1  0  0  0  0
 13 14  1  0  0  0  0
 13 35  1  0  0  0  0
 13 36  1  0  0  0  0
 14 15  1  0  0  0  0
 14 37  1  0  0  0  0
 15 16  2  0  0  0  0
 17 18  1  0  0  0  0
 18 23  2  0  0  0  0
 18 19  1  0  0  0  0
 19 20  2  0  0  0  0
 19 38  1  0  0  0  0
 20 21  1  0  0  0  0
 20 39  1  0  0  0  0
 21 22  2  0  0  0  0
 21 40  1  0  0  0  0
 22 23  1  0  0  0  0
 22 41  1  0  0  0  0
M  END
> <s_m_source_file>
AV-unprocessed.smi

> <i_m_source_file_index>
2963

> <i_lp_mmshare_version>
43012

> <i_f3d_flags>
0

> <s_epik_input>
W2NIXTFbY0hdW2NIXVtjSF1jKGMxMiluKFtDSDJdW0NIMl1PW0NIM10pYyhuMilTW0NIMl1DKD1PKU4zW0NIMl1bQ0gyXVtOSF1DMz1P

> <s_epik_cmdline>
J2VwaWtfcHl0aG9uJywgJy1waCcsICc3LjAnLCAnLXRuJywgJzgnLCAnLW1hJywgJzIwMCcsICctbWV0YWxfYmluZGluZycsICctaW1hZScsICc8aW5maWxlLm1hZT4nLCAnLW9tYWUnLCAnPG91dGZpbGUubWFlPic=

> <r_lp_tautomer_probability>
0.9999

> <r_epik_Ionization_Penalty>
0.0341365

> <r_epik_Ionization_Penalty_Charging>
0

> <r_epik_Ionization_Penalty_Neutral>
0.0341365

> <r_epik_State_Penalty>
0.0283589

> <r_epik_Charging_Adjusted_Penalty>
0.0283589

> <i_epik_Tot_Q>
0

> <i_epik_Tot_abs_Q>
0

> <r_epik_Metal_State_Penalty>
0.0267964

> <b_epik_Metal_Only>
0

> <s_lp_Force_Field>
OPLS_2005

> <r_lp_Energy>
40.6732

> <b_lp_Chiralities_Consistent>
1

> <s_lp_Variant>
AV-unprocessed.smi:2963-1

> <Gold.Version>
5.8.1

> <Gold.Id.Protein>
6NUR|6NUR_protein|mol2

> <Gold.PLP.Fitness>
49.6724

> <Gold.PLP.PLP>
-48.0554

> <Gold.PLP.part.hbond>
-3.0000

> <Gold.PLP.part.metal>
0.0000

> <Gold.PLP.part.buried>
-5.8183

> <Gold.PLP.part.nonpolar>
-38.9178

> <Gold.PLP.part.repulsive>
0.8649

> <Gold.PLP.ligand.clash>
0.0000

> <Gold.PLP.ligand.torsion>
0.7412

> <Gold.PLP.Chemscore.Hbond>
1.0000

> <Gold.PLP.Chemscore.CHOScore>
0.0000

> <Gold.PLP.Chemscore.Metal>
0.0000

> <Gold.Chemscore.Hbonds>
donor molecule, donor type, donor heavy atom, donor atom, acceptor molecule, acceptor atom, score
      L1  H    14    37       P1  7948  0.68

> <Gold.PLP.Chemscore.Internal.Correction>
0.0993

> <Gold.Rescore>
     Score         DG    S(hbond)    S(metal)    S(lipo)     H(rot)  DE(clash)    DE(int)     intcor
     13.50     -15.67       0.95        0.00     110.96       2.33       0.03       2.14       ----

> <Gold.Chemscore.Fitness>
13.4952

> <Gold.Chemscore.DG>
-15.6677

> <Gold.Chemscore.ZeroCoef>
-5.4800

> <Gold.Chemscore.Hbond>
0.9477

> <Gold.Chemscore.Metal>
0.0000

> <Gold.Chemscore.Lipo>
110.9576

> <Gold.Chemscore.Internal_Hbond>
0.0000

> <Gold.Chemscore.DEClash>
0.0312

> <Gold.Chemscore.DEInternal>
2.1413

> <Gold.Chemscore.Rot>
2.3280

> <Gold.Chemscore.Internal.Correction>
   9.000000E+99

> <Gold.Chemscore.Hbonds>
donor molecule, donor type, donor heavy atom, donor atom, acceptor molecule, acceptor atom, score
      L1  H    14    37       P1  7948  0.46

> <Gold.Chemscore.Hbond.Weighted>
-3.1655

> <Gold.Chemscore.Metal.Weighted>
-0.0000

> <Gold.Chemscore.Lipo.Weighted>
-12.9820

> <Gold.Chemscore.Internal_Hbond.Weighted>
0.0000

> <Gold.Chemscore.DEClash.Weighted>
0.0312

> <Gold.Chemscore.DEInternal.Weighted>
2.1413

> <Gold.Chemscore.Rot.Weighted>
5.9598

> <Gold.Chemscore.Internal.Correction.Weighted>
   9.000000E+99

> <Gold.Protein.RotatedTorsions>
[ 6907 6896 6895 6894 ] final   51.96 input  -60.11 | X-H torsion
[ 7974 7965 7964 7962 ] final  -69.68 input  175.53 | X-H torsion
[ 8008 7997 7996 7995 ] final   53.48 input   59.86 | X-H torsion
[ 10167 10162 10161 10158 ] final  -28.28 input  -65.29 | X-H torsion
[ 10718 10713 10712 10709 ] final   48.59 input   66.30 | X-H torsion
[ 10763 10752 10751 10750 ] final  100.13 input  -60.55 | X-H torsion
[ 11005 11000 10999 10996 ] final  -45.46 input  -57.11 | X-H torsion

> <Gold.Protein.ActiveResidues>
 VAL166  LYS551  ARG553  GLY616  TRP617  ASP618  TYR619  PRO620  LYS621  CYS622 
 ASP623  PHE694  ASN695  SER759  ASP760  ASP761  ALA762  ILE779  LEU786  VAL792 
 PHE793  MET794  SER795  GLU796  ALA797  LYS798  CYS799  TRP800  GLU811  SER814 

> <Gold.Protein.RotatedAtoms>
  152.3183  134.7412  160.0319 H   0  0  0  0  0  0  0  0  0  0  0  0  # atno 6907 bound_to 6896
  151.7870  133.3350  159.3496 H   0  0  0  0  0  0  0  0  0  0  0  0  # atno 6908 bound_to 6896
  150.7356  134.5809  159.5982 H   0  0  0  0  0  0  0  0  0  0  0  0  # atno 6909 bound_to 6896
  145.7006  140.9118  143.0733 H   0  0  0  0  0  0  0  0  0  0  0  0  # atno 7974 bound_to 7965
  155.4690  140.3464  155.4323 H   0  0  0  0  0  0  0  0  0  0  0  0  # atno 8008 bound_to 7997
  156.1112  140.1461  156.9364 H   0  0  0  0  0  0  0  0  0  0  0  0  # atno 8009 bound_to 7997
  154.4758  140.0885  156.7237 H   0  0  0  0  0  0  0  0  0  0  0  0  # atno 8010 bound_to 7997
  140.7271  143.4023  151.1244 H   0  0  0  0  0  0  0  0  0  0  0  0  # atno 10167 bound_to 10162
  157.4701  130.8250  149.7979 H   0  0  0  0  0  0  0  0  0  0  0  0  # atno 10718 bound_to 10713
  153.3101  135.4089  155.1328 H   0  0  0  0  0  0  0  0  0  0  0  0  # atno 10763 bound_to 10752
  154.8573  135.3562  154.5735 H   0  0  0  0  0  0  0  0  0  0  0  0  # atno 10764 bound_to 10752
  153.6164  135.7066  153.5386 H   0  0  0  0  0  0  0  0  0  0  0  0  # atno 10765 bound_to 10752
  141.0517  133.6740  156.3016 H   0  0  0  0  0  0  0  0  0  0  0  0  # atno 11005 bound_to 11000
  144.6969  139.8943  143.7455 LP  0  0  0  0  0  0  0  0  0  0  0  0  # atno 17320 bound_to 7965
  146.0801  139.3789  143.0470 LP  0  0  0  0  0  0  0  0  0  0  0  0  # atno 17321 bound_to 7965
  139.7644  143.8587  152.3107 LP  0  0  0  0  0  0  0  0  0  0  0  0  # atno 17342 bound_to 10162
  139.8484  144.7176  150.9245 LP  0  0  0  0  0  0  0  0  0  0  0  0  # atno 17343 bound_to 10162
  156.0069  130.3851  150.2398 LP  0  0  0  0  0  0  0  0  0  0  0  0  # atno 17370 bound_to 10713
  157.0580  131.0082  151.3232 LP  0  0  0  0  0  0  0  0  0  0  0  0  # atno 17371 bound_to 10713
  140.6043  134.5523  157.5523 LP  0  0  0  0  0  0  0  0  0  0  0  0  # atno 17394 bound_to 11000
  139.9356  134.7882  156.0813 LP  0  0  0  0  0  0  0  0  0  0  0  0  # atno 17395 bound_to 11000

$$$$
