AV-unprocessed.smi:1842|AV-procd|sdf|7498|dock3
  -GOLD-   22720 9203D 1   1.00000     0.00000
 Structure written by MMmdl.
 39 40  0  0  0  0  0  0  0  0  2 V2000
  150.0539  141.5922  158.5956 O   0  0  0  0  0  0  0  0  0  0  0  0
  150.0735  142.5870  157.8713 C   0  0  0  0  0  0  0  0  0  0  0  0
  150.4899  143.9472  158.4392 C   0  0  0  0  0  0  0  0  0  0  0  0
  151.9085  143.9554  159.0452 C   0  0  0  0  0  0  0  0  0  0  0  0
  152.1180  142.9693  160.2136 C   0  0  0  0  0  0  0  0  0  0  0  0
  152.1416  143.6469  161.5865 C   0  0  0  0  0  0  0  0  0  0  0  0
  152.8527  142.6562  162.5169 C   0  0  0  0  0  0  0  0  0  0  0  0
  153.6427  141.7009  161.6092 C   0  0  0  0  0  0  0  0  0  0  0  0
  153.4495  142.2145  160.1794 C   0  0  0  0  0  0  0  0  0  0  0  0
  149.7365  142.5602  156.5729 N   0  0  0  0  0  0  0  0  0  0  0  0
  149.3257  141.3705  155.8332 C   0  0  0  0  0  0  0  0  0  0  0  0
  148.5136  141.7056  154.5672 C   0  0  0  0  0  0  0  0  0  0  0  0
  148.1237  140.5097  153.8146 N   0  0  0  0  0  0  0  0  0  0  0  0
  146.9342  140.2835  153.1710 C   0  0  0  0  0  0  0  0  0  0  0  0
  147.0249  139.0352  152.6106 C   0  0  0  0  0  0  0  0  0  0  0  0
  148.2650  138.5533  152.9350 N   0  3  0  0  0  0  0  0  0  0  0  0
  148.9326  139.4523  153.6654 C   0  0  0  0  0  0  0  0  0  0  0  0
  150.4112  144.7145  157.6677 H   0  0  0  0  0  0  0  0  0  0  0  0
  149.7686  144.2199  159.2100 H   0  0  0  0  0  0  0  0  0  0  0  0
  152.6244  143.7327  158.2532 H   0  0  0  0  0  0  0  0  0  0  0  0
  152.1512  144.9641  159.3823 H   0  0  0  0  0  0  0  0  0  0  0  0
  151.3094  142.2367  160.2227 H   0  0  0  0  0  0  0  0  0  0  0  0
  152.7201  144.5705  161.5358 H   0  0  0  0  0  0  0  0  0  0  0  0
  151.1429  143.9053  161.9401 H   0  0  0  0  0  0  0  0  0  0  0  0
  153.5044  143.1771  163.2192 H   0  0  0  0  0  0  0  0  0  0  0  0
  152.1249  142.0940  163.1034 H   0  0  0  0  0  0  0  0  0  0  0  0
  154.6977  141.6522  161.8809 H   0  0  0  0  0  0  0  0  0  0  0  0
  153.2360  140.6926  161.6986 H   0  0  0  0  0  0  0  0  0  0  0  0
  153.4558  141.4065  159.4470 H   0  0  0  0  0  0  0  0  0  0  0  0
  154.2597  142.8995  159.9252 H   0  0  0  0  0  0  0  0  0  0  0  0
  149.7894  143.4247  156.0535 H   0  0  0  0  0  0  0  0  0  0  0  0
  150.2209  140.8093  155.5640 H   0  0  0  0  0  0  0  0  0  0  0  0
  148.7429  140.7204  156.4877 H   0  0  0  0  0  0  0  0  0  0  0  0
  147.5983  142.2314  154.8409 H   0  0  0  0  0  0  0  0  0  0  0  0
  149.0686  142.3703  153.9037 H   0  0  0  0  0  0  0  0  0  0  0  0
  146.1329  141.0082  153.1604 H   0  0  0  0  0  0  0  0  0  0  0  0
  146.3187  138.4689  152.0207 H   0  0  0  0  0  0  0  0  0  0  0  0
  149.9273  139.3439  154.0605 H   0  0  0  0  0  0  0  0  0  0  0  0
  148.6276  137.6484  152.6616 H   0  0  0  0  0  0  0  0  0  0  0  0
  1  2  2  0  0  0  0
  2  3  1  0  0  0  0
  2 10  1  0  0  0  0
  3  4  1  0  0  0  0
  3 18  1  0  0  0  0
  3 19  1  0  0  0  0
  4  5  1  0  0  0  0
  4 20  1  0  0  0  0
  4 21  1  0  0  0  0
  5  9  1  0  0  0  0
  5  6  1  0  0  0  0
  5 22  1  0  0  0  0
  6  7  1  0  0  0  0
  6 23  1  0  0  0  0
  6 24  1  0  0  0  0
  7  8  1  0  0  0  0
  7 25  1  0  0  0  0
  7 26  1  0  0  0  0
  8  9  1  0  0  0  0
  8 27  1  0  0  0  0
  8 28  1  0  0  0  0
  9 29  1  0  0  0  0
  9 30  1  0  0  0  0
 10 11  1  0  0  0  0
 10 31  1  0  0  0  0
 11 12  1  0  0  0  0
 11 32  1  0  0  0  0
 11 33  1  0  0  0  0
 12 13  1  0  0  0  0
 12 34  1  0  0  0  0
 12 35  1  0  0  0  0
 13 17  1  0  0  0  0
 13 14  1  0  0  0  0
 14 15  2  0  0  0  0
 14 36  1  0  0  0  0
 15 16  1  0  0  0  0
 15 37  1  0  0  0  0
 16 17  2  0  0  0  0
 16 39  1  0  0  0  0
 17 38  1  0  0  0  0
M  CHG  1  16   1
M  END
> <s_m_source_file>
AV-unprocessed.smi

> <i_m_source_file_index>
1842

> <i_lp_mmshare_version>
43012

> <i_f3d_flags>
0

> <s_epik_input>
W0NIMl0xW0NIMl1bQ0gyXVtDSDJdW0NIXTFbQ0gyXVtDSDJdQyg9TylbTkhdW0NIMl1bQ0gyXW4yW2NIXVtjSF1uW2NIXTI=

> <s_epik_cmdline>
J2VwaWtfcHl0aG9uJywgJy1waCcsICc3LjAnLCAnLXRuJywgJzgnLCAnLW1hJywgJzIwMCcsICctbWV0YWxfYmluZGluZycsICctaW1hZScsICc8aW5maWxlLm1hZT4nLCAnLW9tYWUnLCAnPG91dGZpbGUubWFlPic=

> <r_lp_tautomer_probability>
1

> <r_epik_Ionization_Penalty>
0.269886

> <r_epik_Ionization_Penalty_Charging>
0

> <r_epik_Ionization_Penalty_Neutral>
0.269886

> <r_epik_State_Penalty>
0.261983

> <r_epik_Charging_Adjusted_Penalty>
0.261983

> <i_epik_Tot_Q>
1

> <i_epik_Tot_abs_Q>
1

> <r_epik_Metal_State_Penalty>
0.546964

> <b_epik_Metal_Only>
0

> <s_lp_Force_Field>
OPLS_2005

> <r_lp_Energy>
23.3455

> <b_lp_Chiralities_Consistent>
1

> <s_lp_Variant>
AV-unprocessed.smi:1842-1

> <Gold.Version>
5.8.1

> <Gold.Id.Protein>
6NUR|6NUR_protein|mol2

> <Gold.PLP.Fitness>
52.1196

> <Gold.PLP.PLP>
-43.1508

> <Gold.PLP.part.hbond>
-3.0604

> <Gold.PLP.part.metal>
0.0000

> <Gold.PLP.part.buried>
0.6280

> <Gold.PLP.part.nonpolar>
-41.4153

> <Gold.PLP.part.repulsive>
0.1394

> <Gold.PLP.ligand.clash>
0.0000

> <Gold.PLP.ligand.torsion>
1.0718

> <Gold.PLP.Chemscore.Hbond>
2.8480

> <Gold.PLP.Chemscore.CHOScore>
0.8257

> <Gold.PLP.Chemscore.Metal>
0.0000

> <Gold.Chemscore.Hbonds>
donor molecule, donor type, donor heavy atom, donor atom, acceptor molecule, acceptor atom, score
      L1  H    10    31       P1  8028  0.83
      L1  H    16    39       P1  7948  2.00
      L1  C    14    36       P1 10175  0.77

> <Gold.PLP.Chemscore.Internal.Correction>
0.0911

> <Gold.Rescore>
     Score         DG    S(hbond)    S(metal)    S(lipo)     H(rot)  DE(clash)    DE(int)     intcor
     15.81     -18.20       1.89        0.00     103.91       2.25       0.34       2.04       ----

> <Gold.Chemscore.Fitness>
15.8142

> <Gold.Chemscore.DG>
-18.1980

> <Gold.Chemscore.ZeroCoef>
-5.4800

> <Gold.Chemscore.Hbond>
1.8913

> <Gold.Chemscore.Metal>
0.0000

> <Gold.Chemscore.Lipo>
103.9082

> <Gold.Chemscore.Internal_Hbond>
0.0000

> <Gold.Chemscore.DEClash>
0.3402

> <Gold.Chemscore.DEInternal>
2.0437

> <Gold.Chemscore.Rot>
2.2485

> <Gold.Chemscore.Internal.Correction>
   9.000000E+99

> <Gold.Chemscore.Hbonds>
donor molecule, donor type, donor heavy atom, donor atom, acceptor molecule, acceptor atom, score
      L1  H    10    31       P1  8028  0.81
      L1  H    16    39       P1  7948  0.99

> <Gold.Chemscore.Hbond.Weighted>
-6.3170

> <Gold.Chemscore.Metal.Weighted>
-0.0000

> <Gold.Chemscore.Lipo.Weighted>
-12.1573

> <Gold.Chemscore.Internal_Hbond.Weighted>
0.0000

> <Gold.Chemscore.DEClash.Weighted>
0.3402

> <Gold.Chemscore.DEInternal.Weighted>
2.0437

> <Gold.Chemscore.Rot.Weighted>
5.7562

> <Gold.Chemscore.Internal.Correction.Weighted>
   9.000000E+99

> <Gold.Protein.RotatedTorsions>
[ 6907 6896 6895 6894 ] final  133.16 input  -60.11 | X-H torsion
[ 7974 7965 7964 7962 ] final  -95.94 input  175.53 | X-H torsion
[ 8008 7997 7996 7995 ] final -128.10 input   59.86 | X-H torsion
[ 10167 10162 10161 10158 ] final   -1.52 input  -65.29 | X-H torsion
[ 10718 10713 10712 10709 ] final -101.89 input   66.30 | X-H torsion
[ 10763 10752 10751 10750 ] final -120.33 input  -60.55 | X-H torsion
[ 11005 11000 10999 10996 ] final -110.79 input  -57.11 | X-H torsion

> <Gold.Protein.ActiveResidues>
 VAL166  LYS551  ARG553  GLY616  TRP617  ASP618  TYR619  PRO620  LYS621  CYS622 
 ASP623  PHE694  ASN695  SER759  ASP760  ASP761  ALA762  ILE779  LEU786  VAL792 
 PHE793  MET794  SER795  GLU796  ALA797  LYS798  CYS799  TRP800  GLU811  SER814 

> <Gold.Protein.RotatedAtoms>
  152.3249  133.5894  159.5769 H   0  0  0  0  0  0  0  0  0  0  0  0  # atno 6907 bound_to 6896
  150.7391  133.9956  159.3630 H   0  0  0  0  0  0  0  0  0  0  0  0  # atno 6908 bound_to 6896
  151.7837  135.0755  160.0428 H   0  0  0  0  0  0  0  0  0  0  0  0  # atno 6909 bound_to 6896
  145.3534  140.9480  143.2541 H   0  0  0  0  0  0  0  0  0  0  0  0  # atno 7974 bound_to 7965
  155.2570  140.0434  157.2993 H   0  0  0  0  0  0  0  0  0  0  0  0  # atno 8008 bound_to 7997
  154.5734  140.2380  155.8128 H   0  0  0  0  0  0  0  0  0  0  0  0  # atno 8009 bound_to 7997
  156.2139  140.2990  155.9803 H   0  0  0  0  0  0  0  0  0  0  0  0  # atno 8010 bound_to 7997
  140.6813  143.6766  150.8141 H   0  0  0  0  0  0  0  0  0  0  0  0  # atno 10167 bound_to 10162
  156.0210  130.5395  150.7029 H   0  0  0  0  0  0  0  0  0  0  0  0  # atno 10718 bound_to 10713
  154.8641  135.4206  154.2443 H   0  0  0  0  0  0  0  0  0  0  0  0  # atno 10763 bound_to 10752
  153.3402  135.6993  153.6879 H   0  0  0  0  0  0  0  0  0  0  0  0  # atno 10764 bound_to 10752
  153.5861  135.3563  155.2866 H   0  0  0  0  0  0  0  0  0  0  0  0  # atno 10765 bound_to 10752
  141.0771  133.9282  157.2366 H   0  0  0  0  0  0  0  0  0  0  0  0  # atno 11005 bound_to 11000
  144.8700  139.5051  143.6772 LP  0  0  0  0  0  0  0  0  0  0  0  0  # atno 17320 bound_to 7965
  146.2958  139.7274  142.9127 LP  0  0  0  0  0  0  0  0  0  0  0  0  # atno 17321 bound_to 7965
  140.0466  143.5292  152.2693 LP  0  0  0  0  0  0  0  0  0  0  0  0  # atno 17342 bound_to 10162
  139.6138  144.7615  151.2891 LP  0  0  0  0  0  0  0  0  0  0  0  0  # atno 17343 bound_to 10162
  157.4685  131.0890  151.0668 LP  0  0  0  0  0  0  0  0  0  0  0  0  # atno 17370 bound_to 10713
  157.1135  130.6032  149.5488 LP  0  0  0  0  0  0  0  0  0  0  0  0  # atno 17371 bound_to 10713
  139.9584  135.0160  156.9193 LP  0  0  0  0  0  0  0  0  0  0  0  0  # atno 17394 bound_to 11000
  140.5548  134.0592  155.7380 LP  0  0  0  0  0  0  0  0  0  0  0  0  # atno 17395 bound_to 11000

$$$$
