AV-unprocessed.smi:1487|AV-procd|sdf|6014|dock6
  -GOLD-   22720 6113D 1   1.00000     0.00000
 Structure written by MMmdl.
 48 50  0  0  0  0  0  0  0  0  2 V2000
  151.9655  144.3444  158.6941 C   0  0  0  0  0  0  0  0  0  0  0  0
  151.7944  143.0161  157.9782 C   0  0  0  0  0  0  0  0  0  0  0  0
  151.0658  142.9769  156.7679 C   0  0  0  0  0  0  0  0  0  0  0  0
  150.8829  141.7621  156.0720 C   0  0  0  0  0  0  0  0  0  0  0  0
  150.2174  141.4954  154.8875 N   0  0  0  0  0  0  0  0  0  0  0  0
  150.4008  140.1841  154.7660 C   0  0  0  0  0  0  0  0  0  0  0  0
  151.1122  139.5689  155.7299 N   0  0  0  0  0  0  0  0  0  0  0  0
  151.4410  138.1564  155.8076 C   0  0  0  0  0  0  0  0  0  0  0  0
  150.6414  137.3063  154.8016 C   0  0  1  0  0  0  0  0  0  0  0  0
  151.5368  136.5633  153.9965 O   0  0  0  0  0  0  0  0  0  0  0  0
  149.6947  136.3223  155.5169 C   0  0  0  0  0  0  0  0  0  0  0  0
  149.0337  135.3808  154.5769 N   0  3  2  0  0  0  0  0  0  0  0  0
  147.5481  135.4340  154.6409 C   0  0  0  0  0  0  0  0  0  0  0  0
  146.9119  134.5404  153.5626 C   0  0  0  0  0  0  0  0  0  0  0  0
  147.4082  133.0941  153.6856 C   0  0  0  0  0  0  0  0  0  0  0  0
  148.9429  133.0663  153.6453 C   0  0  2  0  0  0  0  0  0  0  0  0
  149.3959  131.7466  153.8583 O   0  0  0  0  0  0  0  0  0  0  0  0
  149.5384  133.9908  154.7232 C   0  0  0  0  0  0  0  0  0  0  0  0
  151.4536  140.5780  156.6242 C   0  0  0  0  0  0  0  0  0  0  0  0
  152.1818  140.6045  157.8267 C   0  0  0  0  0  0  0  0  0  0  0  0
  152.3541  141.8265  158.5097 C   0  0  0  0  0  0  0  0  0  0  0  0
  153.1422  141.8445  159.8075 C   0  0  0  0  0  0  0  0  0  0  0  0
  151.5286  145.1638  158.1224 H   0  0  0  0  0  0  0  0  0  0  0  0
  153.0222  144.5678  158.8418 H   0  0  0  0  0  0  0  0  0  0  0  0
  151.4768  144.3173  159.6682 H   0  0  0  0  0  0  0  0  0  0  0  0
  150.6400  143.8831  156.3629 H   0  0  0  0  0  0  0  0  0  0  0  0
  149.9970  139.6388  153.9254 H   0  0  0  0  0  0  0  0  0  0  0  0
  152.5127  138.0385  155.6435 H   0  0  0  0  0  0  0  0  0  0  0  0
  151.2442  137.8172  156.8254 H   0  0  0  0  0  0  0  0  0  0  0  0
  150.0783  137.9773  154.1533 H   0  0  0  0  0  0  0  0  0  0  0  0
  151.1948  136.5337  153.1151 H   0  0  0  0  0  0  0  0  0  0  0  0
  150.2746  135.7649  156.2546 H   0  0  0  0  0  0  0  0  0  0  0  0
  148.9324  136.8630  156.0798 H   0  0  0  0  0  0  0  0  0  0  0  0
  147.2148  135.1177  155.6304 H   0  0  0  0  0  0  0  0  0  0  0  0
  147.1978  136.4563  154.5037 H   0  0  0  0  0  0  0  0  0  0  0  0
  145.8251  134.5682  153.6486 H   0  0  0  0  0  0  0  0  0  0  0  0
  147.1542  134.9298  152.5730 H   0  0  0  0  0  0  0  0  0  0  0  0
  147.0501  132.6639  154.6224 H   0  0  0  0  0  0  0  0  0  0  0  0
  146.9936  132.4851  152.8814 H   0  0  0  0  0  0  0  0  0  0  0  0
  149.2874  133.3869  152.6610 H   0  0  0  0  0  0  0  0  0  0  0  0
  149.9450  131.7349  154.6279 H   0  0  0  0  0  0  0  0  0  0  0  0
  150.6260  133.9856  154.6387 H   0  0  0  0  0  0  0  0  0  0  0  0
  149.2946  133.6217  155.7212 H   0  0  0  0  0  0  0  0  0  0  0  0
  152.6054  139.6921  158.2200 H   0  0  0  0  0  0  0  0  0  0  0  0
  153.4664  140.8425  160.0906 H   0  0  0  0  0  0  0  0  0  0  0  0
  152.5336  142.2410  160.6206 H   0  0  0  0  0  0  0  0  0  0  0  0
  154.0313  142.4671  159.7043 H   0  0  0  0  0  0  0  0  0  0  0  0
  149.3029  135.6782  153.6496 H   0  0  0  0  0  0  0  0  0  0  0  0
  1  2  1  0  0  0  0
  1 23  1  0  0  0  0
  1 24  1  0  0  0  0
  1 25  1  0  0  0  0
  2 21  1  0  0  0  0
  2  3  2  0  0  0  0
  3  4  1  0  0  0  0
  3 26  1  0  0  0  0
  4 19  2  0  0  0  0
  4  5  1  0  0  0  0
  5  6  2  0  0  0  0
  6  7  1  0  0  0  0
  6 27  1  0  0  0  0
  7  8  1  0  0  0  0
  7 19  1  0  0  0  0
  8  9  1  0  0  0  0
  8 28  1  0  0  0  0
  8 29  1  0  0  0  0
  9 10  1  0  0  0  0
  9 11  1  0  0  0  0
  9 30  1  0  0  0  0
 10 31  1  0  0  0  0
 11 12  1  0  0  0  0
 11 32  1  0  0  0  0
 11 33  1  0  0  0  0
 12 18  1  0  0  0  0
 12 13  1  0  0  0  0
 12 48  1  0  0  0  0
 13 14  1  0  0  0  0
 13 34  1  0  0  0  0
 13 35  1  0  0  0  0
 14 15  1  0  0  0  0
 14 36  1  0  0  0  0
 14 37  1  0  0  0  0
 15 16  1  0  0  0  0
 15 38  1  0  0  0  0
 15 39  1  0  0  0  0
 16 17  1  0  0  0  0
 16 18  1  0  0  0  0
 16 40  1  0  0  0  0
 17 41  1  0  0  0  0
 18 42  1  0  0  0  0
 18 43  1  0  0  0  0
 19 20  1  0  0  0  0
 20 21  2  0  0  0  0
 20 44  1  0  0  0  0
 21 22  1  0  0  0  0
 22 45  1  0  0  0  0
 22 46  1  0  0  0  0
 22 47  1  0  0  0  0
M  CHG  1  12   1
M  END
> <s_m_source_file>
AV-unprocessed.smi

> <i_m_source_file_index>
1487

> <i_lp_mmshare_version>
43012

> <i_f3d_flags>
0

> <s_epik_input>
W0NIM11jKFtjSF0xKWMoW0NIM10pW2NIXWMoYzEyKW4oW2NIXW4yKVtDSDJdW0NASF0oW09IXSlbQ0gyXU4zW0NIMl1bQ0gyXVtDSDJdW0NAQEhdKFtPSF0pW0NIMl0z

> <s_epik_cmdline>
J2VwaWtfcHl0aG9uJywgJy1waCcsICc3LjAnLCAnLXRuJywgJzgnLCAnLW1hJywgJzIwMCcsICctbWV0YWxfYmluZGluZycsICctaW1hZScsICc8aW5maWxlLm1hZT4nLCAnLW9tYWUnLCAnPG91dGZpbGUubWFlPic=

> <r_epik_Ionization_Penalty>
0.0940186

> <r_epik_Ionization_Penalty_Charging>
0.00679686

> <r_epik_Ionization_Penalty_Neutral>
0.0872218

> <r_epik_State_Penalty>
0.0799311

> <r_epik_Charging_Adjusted_Penalty>
0.086728

> <i_epik_Tot_Q>
1

> <i_epik_Tot_abs_Q>
1

> <r_epik_Metal_State_Penalty>
7.95545e-05

> <b_epik_Metal_Only>
0

> <s_lp_Force_Field>
OPLS_2005

> <r_lp_Energy>
21.0759

> <b_lp_Chiralities_Consistent>
1

> <s_lp_Variant>
AV-unprocessed.smi:1487-8

> <Gold.Version>
5.8.1

> <Gold.Id.Protein>
6NUR|6NUR_protein|mol2

> <Gold.PLP.Fitness>
50.0625

> <Gold.PLP.PLP>
-40.9390

> <Gold.PLP.part.hbond>
-4.2274

> <Gold.PLP.part.metal>
0.0000

> <Gold.PLP.part.buried>
1.3592

> <Gold.PLP.part.nonpolar>
-36.4996

> <Gold.PLP.part.repulsive>
0.1463

> <Gold.PLP.ligand.clash>
0.0000

> <Gold.PLP.ligand.torsion>
1.6171

> <Gold.PLP.Chemscore.Hbond>
3.9920

> <Gold.PLP.Chemscore.CHOScore>
0.1032

> <Gold.PLP.Chemscore.Metal>
0.0000

> <Gold.Chemscore.Hbonds>
donor molecule, donor type, donor heavy atom, donor atom, acceptor molecule, acceptor atom, score
      L1  H    10    31       P1  7949  1.00
      L1  H    12    48       P1  7948  2.00
      P1  H 10752 10763       L1    10  1.00
      L1  C     6    27       P1  7957  0.28

> <Gold.PLP.Chemscore.Internal.Correction>
0.0723

> <Gold.Rescore>
     Score         DG    S(hbond)    S(metal)    S(lipo)     H(rot)  DE(clash)    DE(int)     intcor
     16.58     -18.37       2.15        0.00     107.24       2.67       0.15       1.64       ----

> <Gold.Chemscore.Fitness>
16.5824

> <Gold.Chemscore.DG>
-18.3745

> <Gold.Chemscore.ZeroCoef>
-5.4800

> <Gold.Chemscore.Hbond>
2.1515

> <Gold.Chemscore.Metal>
0.0000

> <Gold.Chemscore.Lipo>
107.2394

> <Gold.Chemscore.Internal_Hbond>
0.0000

> <Gold.Chemscore.DEClash>
0.1478

> <Gold.Chemscore.DEInternal>
1.6444

> <Gold.Chemscore.Rot>
2.6712

> <Gold.Chemscore.Internal.Correction>
   9.000000E+99

> <Gold.Chemscore.Hbonds>
donor molecule, donor type, donor heavy atom, donor atom, acceptor molecule, acceptor atom, score
      L1  H    10    31       P1  7949  0.54
      L1  H    12    48       P1  7948  0.54
      P1  H 10752 10763       L1    10  0.94

> <Gold.Chemscore.Hbond.Weighted>
-7.1859

> <Gold.Chemscore.Metal.Weighted>
-0.0000

> <Gold.Chemscore.Lipo.Weighted>
-12.5470

> <Gold.Chemscore.Internal_Hbond.Weighted>
0.0000

> <Gold.Chemscore.DEClash.Weighted>
0.1478

> <Gold.Chemscore.DEInternal.Weighted>
1.6444

> <Gold.Chemscore.Rot.Weighted>
6.8383

> <Gold.Chemscore.Internal.Correction.Weighted>
   9.000000E+99

> <Gold.Protein.RotatedTorsions>
[ 6907 6896 6895 6894 ] final  -19.52 input  -60.11 | X-H torsion
[ 7974 7965 7964 7962 ] final   65.42 input  175.53 | X-H torsion
[ 8008 7997 7996 7995 ] final  178.47 input   59.86 | X-H torsion
[ 10167 10162 10161 10158 ] final   21.13 input  -65.29 | X-H torsion
[ 10718 10713 10712 10709 ] final  161.64 input   66.30 | X-H torsion
[ 10763 10752 10751 10750 ] final   45.24 input  -60.55 | X-H torsion
[ 11005 11000 10999 10996 ] final  -89.05 input  -57.11 | X-H torsion

> <Gold.Protein.ActiveResidues>
 VAL166  LYS551  ARG553  GLY616  TRP617  ASP618  TYR619  PRO620  LYS621  CYS622 
 ASP623  PHE694  ASN695  SER759  ASP760  ASP761  ALA762  ILE779  LEU786  VAL792 
 PHE793  MET794  SER795  GLU796  ALA797  LYS798  CYS799  TRP800  GLU811  SER814 

> <Gold.Protein.RotatedAtoms>
  151.2619  135.0657  159.9101 H   0  0  0  0  0  0  0  0  0  0  0  0  # atno 6907 bound_to 6896
  152.5364  134.0222  159.7997 H   0  0  0  0  0  0  0  0  0  0  0  0  # atno 6908 bound_to 6896
  151.0446  133.5626  159.2679 H   0  0  0  0  0  0  0  0  0  0  0  0  # atno 6909 bound_to 6896
  145.8386  139.3182  143.0945 H   0  0  0  0  0  0  0  0  0  0  0  0  # atno 7974 bound_to 7965
  156.0542  140.1332  157.0015 H   0  0  0  0  0  0  0  0  0  0  0  0  # atno 8008 bound_to 7997
  154.4450  140.1004  156.6492 H   0  0  0  0  0  0  0  0  0  0  0  0  # atno 8009 bound_to 7997
  155.5476  140.3462  155.4463 H   0  0  0  0  0  0  0  0  0  0  0  0  # atno 8010 bound_to 7997
  140.5450  143.9610  150.6542 H   0  0  0  0  0  0  0  0  0  0  0  0  # atno 10167 bound_to 10162
  157.1337  131.0523  151.2359 H   0  0  0  0  0  0  0  0  0  0  0  0  # atno 10718 bound_to 10713
  152.9827  135.6045  154.3405 H   0  0  0  0  0  0  0  0  0  0  0  0  # atno 10763 bound_to 10752
  154.3102  135.2771  155.2571 H   0  0  0  0  0  0  0  0  0  0  0  0  # atno 10764 bound_to 10752
  154.4784  135.5923  153.6428 H   0  0  0  0  0  0  0  0  0  0  0  0  # atno 10765 bound_to 10752
  141.1591  133.7606  156.9539 H   0  0  0  0  0  0  0  0  0  0  0  0  # atno 11005 bound_to 11000
  145.9491  140.8922  143.0268 LP  0  0  0  0  0  0  0  0  0  0  0  0  # atno 17320 bound_to 7965
  144.6735  140.1654  143.7419 LP  0  0  0  0  0  0  0  0  0  0  0  0  # atno 17321 bound_to 7965
  140.3021  143.3254  152.0962 LP  0  0  0  0  0  0  0  0  0  0  0  0  # atno 17342 bound_to 10162
  139.5004  144.6690  151.6287 LP  0  0  0  0  0  0  0  0  0  0  0  0  # atno 17343 bound_to 10162
  157.4369  130.7522  149.7037 LP  0  0  0  0  0  0  0  0  0  0  0  0  # atno 17370 bound_to 10713
  155.9802  130.4031  150.3539 LP  0  0  0  0  0  0  0  0  0  0  0  0  # atno 17371 bound_to 10713
  140.1238  134.9400  157.2241 LP  0  0  0  0  0  0  0  0  0  0  0  0  # atno 17394 bound_to 11000
  140.3038  134.3101  155.7283 LP  0  0  0  0  0  0  0  0  0  0  0  0  # atno 17395 bound_to 11000

$$$$
