AV-unprocessed.smi:2061|AV-procd|sdf|8377|dock5
  -GOLD-   2272011 53D 1   1.00000     0.00000
 Structure written by MMmdl.
 44 45  0  0  0  0  0  0  0  0  2 V2000
  144.4030  134.4356  162.7966 C   0  0  0  0  0  0  0  0  0  0  0  0
  145.5477  135.0322  162.0514 C   0  0  0  0  0  0  0  0  0  0  0  0
  145.8931  136.3210  161.7585 C   0  0  0  0  0  0  0  0  0  0  0  0
  147.1005  136.1744  161.0219 C   0  0  0  0  0  0  0  0  0  0  0  0
  147.8261  137.1691  160.4887 N   0  5  0  0  0  0  0  0  0  0  0  0
  148.7740  136.9022  159.5608 C   0  0  0  0  0  0  0  0  0  0  0  0
  149.0618  135.7915  159.1092 O   0  0  0  0  0  0  0  0  0  0  0  0
  149.4340  137.9920  159.1414 N   0  0  0  0  0  0  0  0  0  0  0  0
  150.5174  138.0341  158.1607 C   0  0  0  0  0  0  0  0  0  0  0  0
  151.8802  138.4527  158.7823 C   0  0  1  0  0  0  0  0  0  0  0  0
  153.0148  138.1240  157.7780 C   0  0  0  0  0  0  0  0  0  0  0  0
  151.9094  139.8641  159.2374 N   0  0  0  0  0  0  0  0  0  0  0  0
  151.5384  140.8048  158.1761 C   0  0  0  0  0  0  0  0  0  0  0  0
  151.5497  142.2720  158.6420 C   0  0  2  0  0  0  0  0  0  0  0  0
  151.2448  143.2411  157.4947 C   0  0  0  0  0  0  0  0  0  0  0  0
  152.8337  142.5978  159.1624 O   0  0  0  0  0  0  0  0  0  0  0  0
  153.2882  141.7390  160.2054 C   0  0  1  0  0  0  0  0  0  0  0  0
  152.5538  142.0057  161.5307 C   0  0  0  0  0  0  0  0  0  0  0  0
  153.2221  140.2655  159.7567 C   0  0  0  0  0  0  0  0  0  0  0  0
  147.4489  134.9080  160.8690 N   0  0  0  0  0  0  0  0  0  0  0  0
  146.4607  134.1691  161.5306 O   0  0  0  0  0  0  0  0  0  0  0  0
  143.4809  134.5280  162.2228 H   0  0  0  0  0  0  0  0  0  0  0  0
  144.2594  134.9400  163.7520 H   0  0  0  0  0  0  0  0  0  0  0  0
  144.5729  133.3774  162.9966 H   0  0  0  0  0  0  0  0  0  0  0  0
  145.3687  137.2249  162.0291 H   0  0  0  0  0  0  0  0  0  0  0  0
  149.1579  138.8752  159.5446 H   0  0  0  0  0  0  0  0  0  0  0  0
  150.6221  137.0864  157.6298 H   0  0  0  0  0  0  0  0  0  0  0  0
  150.1789  138.7595  157.4241 H   0  0  0  0  0  0  0  0  0  0  0  0
  152.0373  137.8170  159.6551 H   0  0  0  0  0  0  0  0  0  0  0  0
  152.9711  137.0950  157.4243 H   0  0  0  0  0  0  0  0  0  0  0  0
  154.0050  138.2221  158.2192 H   0  0  0  0  0  0  0  0  0  0  0  0
  152.9662  138.7727  156.9030 H   0  0  0  0  0  0  0  0  0  0  0  0
  152.2113  140.6838  157.3256 H   0  0  0  0  0  0  0  0  0  0  0  0
  150.5326  140.5991  157.8155 H   0  0  0  0  0  0  0  0  0  0  0  0
  150.7959  142.4136  159.4170 H   0  0  0  0  0  0  0  0  0  0  0  0
  150.2597  143.0480  157.0690 H   0  0  0  0  0  0  0  0  0  0  0  0
  151.9794  143.1491  156.6944 H   0  0  0  0  0  0  0  0  0  0  0  0
  151.2591  144.2743  157.8430 H   0  0  0  0  0  0  0  0  0  0  0  0
  154.3365  141.9898  160.3697 H   0  0  0  0  0  0  0  0  0  0  0  0
  152.9975  141.4277  162.3416 H   0  0  0  0  0  0  0  0  0  0  0  0
  151.4999  141.7335  161.4784 H   0  0  0  0  0  0  0  0  0  0  0  0
  152.6150  143.0592  161.8043 H   0  0  0  0  0  0  0  0  0  0  0  0
  153.5040  139.6599  160.6155 H   0  0  0  0  0  0  0  0  0  0  0  0
  153.9802  140.0948  158.9908 H   0  0  0  0  0  0  0  0  0  0  0  0
  1  2  1  0  0  0  0
  1 22  1  0  0  0  0
  1 23  1  0  0  0  0
  1 24  1  0  0  0  0
  2 21  1  0  0  0  0
  2  3  2  0  0  0  0
  3  4  1  0  0  0  0
  3 25  1  0  0  0  0
  4  5  1  0  0  0  0
  4 20  2  0  0  0  0
  5  6  1  0  0  0  0
  6  7  2  0  0  0  0
  6  8  1  0  0  0  0
  8  9  1  0  0  0  0
  8 26  1  0  0  0  0
  9 10  1  0  0  0  0
  9 27  1  0  0  0  0
  9 28  1  0  0  0  0
 10 11  1  0  0  0  0
 10 12  1  0  0  0  0
 10 29  1  0  0  0  0
 11 30  1  0  0  0  0
 11 31  1  0  0  0  0
 11 32  1  0  0  0  0
 12 19  1  0  0  0  0
 12 13  1  0  0  0  0
 13 14  1  0  0  0  0
 13 33  1  0  0  0  0
 13 34  1  0  0  0  0
 14 15  1  0  0  0  0
 14 16  1  0  0  0  0
 14 35  1  0  0  0  0
 15 36  1  0  0  0  0
 15 37  1  0  0  0  0
 15 38  1  0  0  0  0
 16 17  1  0  0  0  0
 17 18  1  0  0  0  0
 17 19  1  0  0  0  0
 17 39  1  0  0  0  0
 18 40  1  0  0  0  0
 18 41  1  0  0  0  0
 18 42  1  0  0  0  0
 19 43  1  0  0  0  0
 19 44  1  0  0  0  0
 20 21  1  0  0  0  0
M  CHG  1   5  -1
M  END
> <s_m_source_file>
AV-unprocessed.smi

> <i_m_source_file_index>
2061

> <i_lp_mmshare_version>
43012

> <i_f3d_flags>
0

> <s_epik_input>
W0NIM11jMVtjSF1jKG5vMSlbTkhdQyg9TylbTkhdW0NIMl1bQ0BIXShbQ0gzXSlOMltDSDJdW0NAQEhdKFtDSDNdKU9bQ0BASF0oW0NIM10pW0NIMl0y

> <s_epik_cmdline>
J2VwaWtfcHl0aG9uJywgJy1waCcsICc3LjAnLCAnLXRuJywgJzgnLCAnLW1hJywgJzIwMCcsICctbWV0YWxfYmluZGluZycsICctaW1hZScsICc8aW5maWxlLm1hZT4nLCAnLW9tYWUnLCAnPG91dGZpbGUubWFlPic=

> <r_epik_Ionization_Penalty>
6.88367

> <r_epik_Ionization_Penalty_Charging>
6.57198

> <r_epik_Ionization_Penalty_Neutral>
0.311681

> <r_epik_State_Penalty>
6.77619

> <r_epik_Charging_Adjusted_Penalty>
13.3482

> <i_epik_Tot_Q>
-1

> <i_epik_Tot_abs_Q>
1

> <r_epik_Metal_State_Penalty>
2.70524

> <b_epik_Metal_Only>
1

> <s_lp_Force_Field>
OPLS_2005

> <r_lp_Energy>
24.2039

> <b_lp_Chiralities_Consistent>
1

> <s_lp_Variant>
AV-unprocessed.smi:2061-18

> <Gold.Version>
5.8.1

> <Gold.Id.Protein>
6NUR|6NUR_protein|mol2

> <Gold.PLP.Fitness>
45.7070

> <Gold.PLP.PLP>
-33.8253

> <Gold.PLP.part.hbond>
-3.0000

> <Gold.PLP.part.metal>
0.0000

> <Gold.PLP.part.buried>
-6.3169

> <Gold.PLP.part.nonpolar>
-26.8161

> <Gold.PLP.part.repulsive>
1.0917

> <Gold.PLP.ligand.clash>
0.0000

> <Gold.PLP.ligand.torsion>
0.1812

> <Gold.PLP.Chemscore.Hbond>
4.0591

> <Gold.PLP.Chemscore.CHOScore>
0.0000

> <Gold.PLP.Chemscore.Metal>
0.0000

> <Gold.Chemscore.Hbonds>
donor molecule, donor type, donor heavy atom, donor atom, acceptor molecule, acceptor atom, score
      P1  H  6896  6907       L1     7  0.94
      P1  H  6931  6943       L1     5  1.04
      P1  H  6934  6947       L1     5  1.70

> <Gold.PLP.Chemscore.Internal.Correction>
0.0668

> <Gold.Rescore>
     Score         DG    S(hbond)    S(metal)    S(lipo)     H(rot)  DE(clash)    DE(int)     intcor
     16.29     -18.81       1.96        0.00      91.29       1.52       0.61       1.91       ----

> <Gold.Chemscore.Fitness>
16.2852

> <Gold.Chemscore.DG>
-18.8068

> <Gold.Chemscore.ZeroCoef>
-5.4800

> <Gold.Chemscore.Hbond>
1.9563

> <Gold.Chemscore.Metal>
0.0000

> <Gold.Chemscore.Lipo>
91.2936

> <Gold.Chemscore.Internal_Hbond>
0.0000

> <Gold.Chemscore.DEClash>
0.6149

> <Gold.Chemscore.DEInternal>
1.9067

> <Gold.Chemscore.Rot>
1.5190

> <Gold.Chemscore.Internal.Correction>
   9.000000E+99

> <Gold.Chemscore.Hbonds>
donor molecule, donor type, donor heavy atom, donor atom, acceptor molecule, acceptor atom, score
      P1  H  6896  6907       L1     7  0.90
      P1  H  6931  6943       L1     5  0.10
      P1  H  6934  6947       L1     5  0.74

> <Gold.Chemscore.Hbond.Weighted>
-6.5341

> <Gold.Chemscore.Metal.Weighted>
-0.0000

> <Gold.Chemscore.Lipo.Weighted>
-10.6814

> <Gold.Chemscore.Internal_Hbond.Weighted>
0.0000

> <Gold.Chemscore.DEClash.Weighted>
0.6149

> <Gold.Chemscore.DEInternal.Weighted>
1.9067

> <Gold.Chemscore.Rot.Weighted>
3.8886

> <Gold.Chemscore.Internal.Correction.Weighted>
   9.000000E+99

> <Gold.Protein.RotatedTorsions>
[ 6907 6896 6895 6894 ] final  -68.67 input  -60.11 | X-H torsion
[ 7974 7965 7964 7962 ] final  -43.25 input  175.53 | X-H torsion
[ 8008 7997 7996 7995 ] final   12.00 input   59.86 | X-H torsion
[ 10167 10162 10161 10158 ] final   60.93 input  -65.29 | X-H torsion
[ 10718 10713 10712 10709 ] final  -91.35 input   66.30 | X-H torsion
[ 10763 10752 10751 10750 ] final -119.04 input  -60.55 | X-H torsion
[ 11005 11000 10999 10996 ] final -157.44 input  -57.11 | X-H torsion

> <Gold.Protein.ActiveResidues>
 VAL166  LYS551  ARG553  GLY616  TRP617  ASP618  TYR619  PRO620  LYS621  CYS622 
 ASP623  PHE694  ASN695  SER759  ASP760  ASP761  ALA762  ILE779  LEU786  VAL792 
 PHE793  MET794  SER795  GLU796  ALA797  LYS798  CYS799  TRP800  GLU811  SER814 

> <Gold.Protein.RotatedAtoms>
  150.7344  134.5706  159.5888 H   0  0  0  0  0  0  0  0  0  0  0  0  # atno 6907 bound_to 6896
  152.3146  134.7453  160.0337 H   0  0  0  0  0  0  0  0  0  0  0  0  # atno 6908 bound_to 6896
  151.7989  133.3332  159.3557 H   0  0  0  0  0  0  0  0  0  0  0  0  # atno 6909 bound_to 6896
  146.0037  140.7044  142.9258 H   0  0  0  0  0  0  0  0  0  0  0  0  # atno 7974 bound_to 7965
  154.8146  140.2874  155.5829 H   0  0  0  0  0  0  0  0  0  0  0  0  # atno 8008 bound_to 7997
  156.2992  140.2562  156.2971 H   0  0  0  0  0  0  0  0  0  0  0  0  # atno 8009 bound_to 7997
  154.9408  140.0381  157.2085 H   0  0  0  0  0  0  0  0  0  0  0  0  # atno 8010 bound_to 7997
  140.1603  144.4377  150.6713 H   0  0  0  0  0  0  0  0  0  0  0  0  # atno 10167 bound_to 10162
  155.9993  130.4944  150.5460 H   0  0  0  0  0  0  0  0  0  0  0  0  # atno 10718 bound_to 10713
  154.8605  135.4252  154.2235 H   0  0  0  0  0  0  0  0  0  0  0  0  # atno 10763 bound_to 10752
  153.3235  135.6983  153.7015 H   0  0  0  0  0  0  0  0  0  0  0  0  # atno 10764 bound_to 10752
  153.6061  135.3528  155.2936 H   0  0  0  0  0  0  0  0  0  0  0  0  # atno 10765 bound_to 10752
  140.6645  134.4313  157.5233 H   0  0  0  0  0  0  0  0  0  0  0  0  # atno 11005 bound_to 11000
  144.6928  140.3278  143.7221 LP  0  0  0  0  0  0  0  0  0  0  0  0  # atno 17320 bound_to 7965
  145.7448  139.1775  143.2355 LP  0  0  0  0  0  0  0  0  0  0  0  0  # atno 17321 bound_to 7965
  140.6647  143.2264  151.5771 LP  0  0  0  0  0  0  0  0  0  0  0  0  # atno 17342 bound_to 10162
  139.5384  144.2715  152.1300 LP  0  0  0  0  0  0  0  0  0  0  0  0  # atno 17343 bound_to 10162
  157.3390  131.0713  151.1802 LP  0  0  0  0  0  0  0  0  0  0  0  0  # atno 17370 bound_to 10713
  157.2657  130.6680  149.5995 LP  0  0  0  0  0  0  0  0  0  0  0  0  # atno 17371 bound_to 10713
  139.9002  134.8575  156.1930 LP  0  0  0  0  0  0  0  0  0  0  0  0  # atno 17394 bound_to 11000
  141.0439  133.6923  156.1648 LP  0  0  0  0  0  0  0  0  0  0  0  0  # atno 17395 bound_to 11000

$$$$
