AV-unprocessed.smi:690|AV-procd|sdf|3361|dock1
  -GOLD-   22720 0343D 1   1.00000     0.00000
 Structure written by MMmdl.
 46 48  0  0  0  0  0  0  0  0  1 V2000
  148.5830  141.7794  157.4199 C   0  0  0  0  0  0  0  0  0  0  0  0
  150.0219  141.3649  157.1062 C   0  0  0  0  0  0  0  0  0  0  0  0
  150.4863  140.5153  158.1416 O   0  0  0  0  0  0  0  0  0  0  0  0
  151.6875  139.8313  157.8084 C   0  0  1  0  0  0  0  0  0  0  0  0
  152.0939  138.9121  158.9649 C   0  0  0  0  0  0  0  0  0  0  0  0
  151.3592  137.7700  158.2560 C   0  0  1  0  0  0  0  0  0  0  0  0
  149.9803  137.6564  158.7307 N   0  0  0  0  0  0  0  0  0  0  0  0
  149.2723  136.5191  158.7666 C   0  0  0  0  0  0  0  0  0  0  0  0
  149.7166  135.4353  158.3858 O   0  0  0  0  0  0  0  0  0  0  0  0
  147.8329  136.6368  159.2856 C   0  0  0  0  0  0  0  0  0  0  0  0
  147.5518  135.7250  160.4067 N   0  0  0  0  0  0  0  0  0  0  0  0
  147.7330  134.3464  160.1768 C   0  0  0  0  0  0  0  0  0  0  0  0
  147.5099  133.4318  161.1339 C   0  0  0  0  0  0  0  0  0  0  0  0
  147.0727  133.8933  162.4302 C   0  0  0  0  0  0  0  0  0  0  0  0
  146.8982  135.2096  162.6614 C   0  0  0  0  0  0  0  0  0  0  0  0
  147.1405  136.2127  161.6181 C   0  0  0  0  0  0  0  0  0  0  0  0
  146.9835  137.4173  161.8206 O   0  0  0  0  0  0  0  0  0  0  0  0
  151.4897  138.5646  156.9315 C   0  0  0  0  0  0  0  0  0  0  0  0
  152.6766  138.2071  156.0371 C   0  0  0  0  0  0  0  0  0  0  0  0
  152.4277  138.8686  154.6809 C   0  0  0  0  0  0  0  0  0  0  0  0
  150.9078  139.0024  154.5653 C   0  0  0  0  0  0  0  0  0  0  0  0
  150.3459  138.5333  155.9117 C   0  0  0  0  0  0  0  0  0  0  0  0
  148.1899  142.4403  156.6472 H   0  0  0  0  0  0  0  0  0  0  0  0
  148.5262  142.3063  158.3726 H   0  0  0  0  0  0  0  0  0  0  0  0
  147.9307  140.9076  157.4788 H   0  0  0  0  0  0  0  0  0  0  0  0
  150.0595  140.8561  156.1431 H   0  0  0  0  0  0  0  0  0  0  0  0
  150.6605  142.2465  157.0363 H   0  0  0  0  0  0  0  0  0  0  0  0
  152.4989  140.4908  157.4944 H   0  0  0  0  0  0  0  0  0  0  0  0
  153.1718  138.7501  159.0112 H   0  0  0  0  0  0  0  0  0  0  0  0
  151.6938  139.1917  159.9406 H   0  0  0  0  0  0  0  0  0  0  0  0
  151.9194  136.8334  158.2699 H   0  0  0  0  0  0  0  0  0  0  0  0
  149.5359  138.5068  159.0465 H   0  0  0  0  0  0  0  0  0  0  0  0
  147.6298  137.6680  159.5820 H   0  0  0  0  0  0  0  0  0  0  0  0
  147.1571  136.4419  158.4519 H   0  0  0  0  0  0  0  0  0  0  0  0
  148.0694  134.0850  159.1840 H   0  0  0  0  0  0  0  0  0  0  0  0
  147.6579  132.3794  160.9414 H   0  0  0  0  0  0  0  0  0  0  0  0
  146.8863  133.1797  163.2193 H   0  0  0  0  0  0  0  0  0  0  0  0
  146.5725  135.5364  163.6381 H   0  0  0  0  0  0  0  0  0  0  0  0
  153.6325  138.5184  156.4594 H   0  0  0  0  0  0  0  0  0  0  0  0
  152.7292  137.1253  155.9059 H   0  0  0  0  0  0  0  0  0  0  0  0
  152.8852  139.8584  154.6613 H   0  0  0  0  0  0  0  0  0  0  0  0
  152.8569  138.2906  153.8618 H   0  0  0  0  0  0  0  0  0  0  0  0
  150.6359  140.0396  154.3684 H   0  0  0  0  0  0  0  0  0  0  0  0
  150.5116  138.4004  153.7469 H   0  0  0  0  0  0  0  0  0  0  0  0
  149.9828  137.5106  155.8011 H   0  0  0  0  0  0  0  0  0  0  0  0
  149.4858  139.1297  156.2152 H   0  0  0  0  0  0  0  0  0  0  0  0
  1  2  1  0  0  0  0
  1 23  1  0  0  0  0
  1 24  1  0  0  0  0
  1 25  1  0  0  0  0
  2  3  1  0  0  0  0
  2 26  1  0  0  0  0
  2 27  1  0  0  0  0
  3  4  1  0  0  0  0
  4 18  1  0  0  0  0
  4  5  1  0  0  0  0
  4 28  1  0  0  0  0
  5  6  1  0  0  0  0
  5 29  1  0  0  0  0
  5 30  1  0  0  0  0
  6  7  1  0  0  0  0
  6 18  1  0  0  0  0
  6 31  1  0  0  0  0
  7  8  1  0  0  0  0
  7 32  1  0  0  0  0
  8  9  2  0  0  0  0
  8 10  1  0  0  0  0
 10 11  1  0  0  0  0
 10 33  1  0  0  0  0
 10 34  1  0  0  0  0
 11 16  1  0  0  0  0
 11 12  1  0  0  0  0
 12 13  2  0  0  0  0
 12 35  1  0  0  0  0
 13 14  1  0  0  0  0
 13 36  1  0  0  0  0
 14 15  2  0  0  0  0
 14 37  1  0  0  0  0
 15 16  1  0  0  0  0
 15 38  1  0  0  0  0
 16 17  2  0  0  0  0
 18 22  1  0  0  0  0
 18 19  1  0  0  0  0
 19 20  1  0  0  0  0
 19 39  1  0  0  0  0
 19 40  1  0  0  0  0
 20 21  1  0  0  0  0
 20 41  1  0  0  0  0
 20 42  1  0  0  0  0
 21 22  1  0  0  0  0
 21 43  1  0  0  0  0
 21 44  1  0  0  0  0
 22 45  1  0  0  0  0
 22 46  1  0  0  0  0
M  END
> <s_m_source_file>
AV-unprocessed.smi

> <i_m_source_file_index>
690

> <i_lp_mmshare_version>
43012

> <i_f3d_flags>
0

> <s_epik_input>
W0NIMl0xW0NIMl1bQ0gyXVtDSDJdQzEyW0NASF0oT1tDSDJdW0NIM10pW0NIMl1bQ0BIXTJbTkhdQyg9TylbQ0gyXW4zW2NIXVtjSF1bY0hdW2NIXWMzPU8=

> <s_epik_cmdline>
J2VwaWtfcHl0aG9uJywgJy1waCcsICc3LjAnLCAnLXRuJywgJzgnLCAnLW1hJywgJzIwMCcsICctbWV0YWxfYmluZGluZycsICctaW1hZScsICc8aW5maWxlLm1hZT4nLCAnLW9tYWUnLCAnPG91dGZpbGUubWFlPic=

> <r_lp_tautomer_probability>
1

> <r_epik_Ionization_Penalty>
4.11691e-07

> <r_epik_Ionization_Penalty_Charging>
3.92797e-07

> <r_epik_Ionization_Penalty_Neutral>
1.88943e-08

> <r_epik_State_Penalty>
-0

> <r_epik_Charging_Adjusted_Penalty>
3.92797e-07

> <i_epik_Tot_Q>
0

> <i_epik_Tot_abs_Q>
0

> <r_epik_Metal_State_Penalty>
-0

> <b_epik_Metal_Only>
0

> <s_lp_Force_Field>
OPLS_2005

> <r_lp_Energy>
47.4249

> <b_lp_Chiralities_Consistent>
1

> <s_lp_Variant>
AV-unprocessed.smi:690-2

> <Gold.Version>
5.8.1

> <Gold.Id.Protein>
6NUR|6NUR_protein|mol2

> <Gold.PLP.Fitness>
47.1534

> <Gold.PLP.PLP>
-40.1568

> <Gold.PLP.part.hbond>
-3.0000

> <Gold.PLP.part.metal>
0.0000

> <Gold.PLP.part.buried>
-3.1808

> <Gold.PLP.part.nonpolar>
-32.7312

> <Gold.PLP.part.repulsive>
0.1780

> <Gold.PLP.ligand.clash>
0.0000

> <Gold.PLP.ligand.torsion>
0.3919

> <Gold.PLP.Chemscore.Hbond>
2.4560

> <Gold.PLP.Chemscore.CHOScore>
0.0000

> <Gold.PLP.Chemscore.Metal>
0.0000

> <Gold.Chemscore.Hbonds>
donor molecule, donor type, donor heavy atom, donor atom, acceptor molecule, acceptor atom, score
      P1  H  6896  6908       L1     9  1.00
      P1  H  6931  6943       L1    17  0.40
      P1  H  6934  6947       L1    17  0.85

> <Gold.PLP.Chemscore.Internal.Correction>
0.4124

> <Gold.Rescore>
     Score         DG    S(hbond)    S(metal)    S(lipo)     H(rot)  DE(clash)    DE(int)     intcor
     16.28     -18.33       1.97        0.00      90.59       1.69       0.01       2.03       ----

> <Gold.Chemscore.Fitness>
16.2810

> <Gold.Chemscore.DG>
-18.3264

> <Gold.Chemscore.ZeroCoef>
-5.4800

> <Gold.Chemscore.Hbond>
1.9682

> <Gold.Chemscore.Metal>
0.0000

> <Gold.Chemscore.Lipo>
90.5898

> <Gold.Chemscore.Internal_Hbond>
0.0000

> <Gold.Chemscore.DEClash>
0.0141

> <Gold.Chemscore.DEInternal>
2.0313

> <Gold.Chemscore.Rot>
1.6900

> <Gold.Chemscore.Internal.Correction>
   9.000000E+99

> <Gold.Chemscore.Hbonds>
donor molecule, donor type, donor heavy atom, donor atom, acceptor molecule, acceptor atom, score
      P1  H  6896  6908       L1     9  0.95
      P1  H  6931  6943       L1    17  0.22
      P1  H  6934  6947       L1    17  0.85

> <Gold.Chemscore.Hbond.Weighted>
-6.5739

> <Gold.Chemscore.Metal.Weighted>
-0.0000

> <Gold.Chemscore.Lipo.Weighted>
-10.5990

> <Gold.Chemscore.Internal_Hbond.Weighted>
0.0000

> <Gold.Chemscore.DEClash.Weighted>
0.0141

> <Gold.Chemscore.DEInternal.Weighted>
2.0313

> <Gold.Chemscore.Rot.Weighted>
4.3265

> <Gold.Chemscore.Internal.Correction.Weighted>
   9.000000E+99

> <Gold.Protein.RotatedTorsions>
[ 6907 6896 6895 6894 ] final  161.22 input  -60.11 | X-H torsion
[ 7974 7965 7964 7962 ] final -105.11 input  175.53 | X-H torsion
[ 8008 7997 7996 7995 ] final   67.83 input   59.86 | X-H torsion
[ 10167 10162 10161 10158 ] final    9.77 input  -65.29 | X-H torsion
[ 10718 10713 10712 10709 ] final    9.59 input   66.30 | X-H torsion
[ 10763 10752 10751 10750 ] final -178.45 input  -60.55 | X-H torsion
[ 11005 11000 10999 10996 ] final   45.96 input  -57.11 | X-H torsion

> <Gold.Protein.ActiveResidues>
 VAL166  LYS551  ARG553  GLY616  TRP617  ASP618  TYR619  PRO620  LYS621  CYS622 
 ASP623  PHE694  ASN695  SER759  ASP760  ASP761  ALA762  ILE779  LEU786  VAL792 
 PHE793  MET794  SER795  GLU796  ALA797  LYS798  CYS799  TRP800  GLU811  SER814 

> <Gold.Protein.RotatedAtoms>
  151.9588  133.3689  159.4027 H   0  0  0  0  0  0  0  0  0  0  0  0  # atno 6907 bound_to 6896
  150.6968  134.4262  159.5237 H   0  0  0  0  0  0  0  0  0  0  0  0  # atno 6908 bound_to 6896
  152.1948  134.8640  160.0565 H   0  0  0  0  0  0  0  0  0  0  0  0  # atno 6909 bound_to 6896
  145.2346  140.9183  143.3185 H   0  0  0  0  0  0  0  0  0  0  0  0  # atno 7974 bound_to 7965
  155.6990  140.3495  155.4925 H   0  0  0  0  0  0  0  0  0  0  0  0  # atno 8008 bound_to 7997
  155.9457  140.1110  157.1041 H   0  0  0  0  0  0  0  0  0  0  0  0  # atno 8009 bound_to 7997
  154.4111  140.1204  156.4972 H   0  0  0  0  0  0  0  0  0  0  0  0  # atno 8010 bound_to 7997
  140.6235  143.8153  150.7204 H   0  0  0  0  0  0  0  0  0  0  0  0  # atno 10167 bound_to 10162
  156.9685  130.5960  149.5667 H   0  0  0  0  0  0  0  0  0  0  0  0  # atno 10718 bound_to 10713
  154.5476  135.2810  155.1038 H   0  0  0  0  0  0  0  0  0  0  0  0  # atno 10763 bound_to 10752
  154.2497  135.6342  153.5239 H   0  0  0  0  0  0  0  0  0  0  0  0  # atno 10764 bound_to 10752
  152.9994  135.5580  154.6033 H   0  0  0  0  0  0  0  0  0  0  0  0  # atno 10765 bound_to 10752
  140.1412  134.4580  155.8448 H   0  0  0  0  0  0  0  0  0  0  0  0  # atno 11005 bound_to 11000
  144.9645  139.3945  143.6339 LP  0  0  0  0  0  0  0  0  0  0  0  0  # atno 17320 bound_to 7965
  146.3344  139.8713  142.8839 LP  0  0  0  0  0  0  0  0  0  0  0  0  # atno 17321 bound_to 7965
  140.1748  143.4164  152.1975 LP  0  0  0  0  0  0  0  0  0  0  0  0  # atno 17342 bound_to 10162
  139.5459  144.7298  151.4585 LP  0  0  0  0  0  0  0  0  0  0  0  0  # atno 17343 bound_to 10162
  156.0292  130.5385  150.8490 LP  0  0  0  0  0  0  0  0  0  0  0  0  # atno 17370 bound_to 10713
  157.5609  131.0946  150.9561 LP  0  0  0  0  0  0  0  0  0  0  0  0  # atno 17371 bound_to 10713
  141.2186  133.6834  156.7251 LP  0  0  0  0  0  0  0  0  0  0  0  0  # atno 17394 bound_to 11000
  140.2719  134.8385  157.3855 LP  0  0  0  0  0  0  0  0  0  0  0  0  # atno 17395 bound_to 11000

$$$$
