AV-unprocessed.smi:309|AV-procd|sdf|2294|dock1
  -GOLD-   2262022193D 1   1.00000     0.00000
 Structure written by MMmdl.
 37 39  0  0  0  0  0  0  0  0  2 V2000
  151.5620  136.5511  154.1218 O   0  0  0  0  0  0  0  0  0  0  0  0
  151.7910  137.8363  154.6538 C   0  0  0  0  0  0  0  0  0  0  0  0
  150.6391  138.7590  154.4243 C   0  0  0  0  0  0  0  0  0  0  0  0
  149.5859  138.5170  153.5936 N   0  3  0  0  0  0  0  0  0  0  0  0
  148.6962  139.5909  153.6311 C   0  0  0  0  0  0  0  0  0  0  0  0
  147.4946  139.8035  152.9620 C   0  0  0  0  0  0  0  0  0  0  0  0
  146.8283  141.0176  153.2285 C   0  0  0  0  0  0  0  0  0  0  0  0
  147.3587  141.9640  154.1293 C   0  0  0  0  0  0  0  0  0  0  0  0
  148.5776  141.7367  154.8015 C   0  0  0  0  0  0  0  0  0  0  0  0
  149.2302  140.5341  154.5325 C   0  0  0  0  0  0  0  0  0  0  0  0
  150.4268  139.9791  155.0002 N   0  0  0  0  0  0  0  0  0  0  0  0
  151.2288  140.7356  155.9761 C   0  0  0  0  0  0  0  0  0  0  0  0
  150.8821  140.3948  157.4399 C   0  0  1  0  0  0  0  0  0  0  0  0
  151.0490  139.0065  157.6568 O   0  0  0  0  0  0  0  0  0  0  0  0
  151.7055  141.2410  158.4072 C   0  0  0  0  0  0  0  0  0  0  0  0
  151.5363  142.6451  158.4218 C   0  0  0  0  0  0  0  0  0  0  0  0
  152.2734  143.4487  159.3122 C   0  0  0  0  0  0  0  0  0  0  0  0
  152.0522  145.1596  159.3148 Cl  0  0  0  0  0  0  0  0  0  0  0  0
  153.1875  142.8555  160.2014 C   0  0  0  0  0  0  0  0  0  0  0  0
  153.3576  141.4590  160.2023 C   0  0  0  0  0  0  0  0  0  0  0  0
  152.6203  140.6490  159.3153 C   0  0  0  0  0  0  0  0  0  0  0  0
  152.8574  138.9374  159.3808 Cl  0  0  0  0  0  0  0  0  0  0  0  0
  151.5121  136.6232  153.1799 H   0  0  0  0  0  0  0  0  0  0  0  0
  151.9982  137.7544  155.7203 H   0  0  0  0  0  0  0  0  0  0  0  0
  152.6844  138.2540  154.1891 H   0  0  0  0  0  0  0  0  0  0  0  0
  147.0866  139.0801  152.2714 H   0  0  0  0  0  0  0  0  0  0  0  0
  145.8918  141.2277  152.7322 H   0  0  0  0  0  0  0  0  0  0  0  0
  146.8203  142.8835  154.3082 H   0  0  0  0  0  0  0  0  0  0  0  0
  148.9751  142.4688  155.4880 H   0  0  0  0  0  0  0  0  0  0  0  0
  152.2813  140.5322  155.7787 H   0  0  0  0  0  0  0  0  0  0  0  0
  151.0875  141.8000  155.7834 H   0  0  0  0  0  0  0  0  0  0  0  0
  149.8225  140.5814  157.6084 H   0  0  0  0  0  0  0  0  0  0  0  0
  151.9721  138.8062  157.6159 H   0  0  0  0  0  0  0  0  0  0  0  0
  150.8325  143.1149  157.7500 H   0  0  0  0  0  0  0  0  0  0  0  0
  153.7548  143.4685  160.8864 H   0  0  0  0  0  0  0  0  0  0  0  0
  154.0551  141.0063  160.8919 H   0  0  0  0  0  0  0  0  0  0  0  0
  149.4856  137.6737  153.0434 H   0  0  0  0  0  0  0  0  0  0  0  0
  1  2  1  0  0  0  0
  1 23  1  0  0  0  0
  2  3  1  0  0  0  0
  2 24  1  0  0  0  0
  2 25  1  0  0  0  0
  3 11  1  0  0  0  0
  3  4  2  0  0  0  0
  4  5  1  0  0  0  0
  4 37  1  0  0  0  0
  5 10  2  0  0  0  0
  5  6  1  0  0  0  0
  6  7  2  0  0  0  0
  6 26  1  0  0  0  0
  7  8  1  0  0  0  0
  7 27  1  0  0  0  0
  8  9  2  0  0  0  0
  8 28  1  0  0  0  0
  9 10  1  0  0  0  0
  9 29  1  0  0  0  0
 10 11  1  0  0  0  0
 11 12  1  0  0  0  0
 12 13  1  0  0  0  0
 12 30  1  0  0  0  0
 12 31  1  0  0  0  0
 13 14  1  0  0  0  0
 13 15  1  0  0  0  0
 13 32  1  0  0  0  0
 14 33  1  0  0  0  0
 15 21  1  0  0  0  0
 15 16  2  0  0  0  0
 16 17  1  0  0  0  0
 16 34  1  0  0  0  0
 17 18  1  0  0  0  0
 17 19  2  0  0  0  0
 19 20  1  0  0  0  0
 19 35  1  0  0  0  0
 20 21  2  0  0  0  0
 20 36  1  0  0  0  0
 21 22  1  0  0  0  0
M  CHG  1   4   1
M  END
> <s_m_source_file>
AV-unprocessed.smi

> <i_m_source_file_index>
309

> <i_lp_mmshare_version>
43012

> <i_f3d_flags>
0

> <s_epik_input>
W2NIXTFbY0hdW2NIXVtjSF1jKGMxMiluKGMobjIpW0NIMl1bT0hdKVtDSDJdW0NASF0oW09IXSljM1tjSF1jKENsKVtjSF1bY0hdYzNDbA==

> <s_epik_cmdline>
J2VwaWtfcHl0aG9uJywgJy1waCcsICc3LjAnLCAnLXRuJywgJzgnLCAnLW1hJywgJzIwMCcsICctbWV0YWxfYmluZGluZycsICctaW1hZScsICc8aW5maWxlLm1hZT4nLCAnLW9tYWUnLCAnPG91dGZpbGUubWFlPic=

> <r_epik_Ionization_Penalty>
1.35643

> <r_epik_Ionization_Penalty_Charging>
1.35557

> <r_epik_Ionization_Penalty_Neutral>
0.000861512

> <r_epik_State_Penalty>
1.43401

> <r_epik_Charging_Adjusted_Penalty>
2.78958

> <i_epik_Tot_Q>
1

> <i_epik_Tot_abs_Q>
1

> <r_epik_Metal_State_Penalty>
5.47166

> <b_epik_Metal_Only>
0

> <s_lp_Force_Field>
OPLS_2005

> <r_lp_Energy>
14.3567

> <b_lp_Chiralities_Consistent>
1

> <s_lp_Variant>
AV-unprocessed.smi:309-4

> <Gold.Version>
5.8.1

> <Gold.Id.Protein>
6NUR|6NUR_protein|mol2

> <Gold.PLP.Fitness>
64.5291

> <Gold.PLP.PLP>
-53.6338

> <Gold.PLP.part.hbond>
-4.0000

> <Gold.PLP.part.metal>
0.0000

> <Gold.PLP.part.buried>
1.4586

> <Gold.PLP.part.nonpolar>
-51.2404

> <Gold.PLP.part.repulsive>
0.0746

> <Gold.PLP.ligand.clash>
0.0206

> <Gold.PLP.ligand.torsion>
0.5587

> <Gold.PLP.Chemscore.Hbond>
4.0000

> <Gold.PLP.Chemscore.CHOScore>
0.0000

> <Gold.PLP.Chemscore.Metal>
0.0000

> <Gold.Chemscore.Hbonds>
donor molecule, donor type, donor heavy atom, donor atom, acceptor molecule, acceptor atom, score
      L1  H     1    23       P1  7949  1.00
      L1  H     4    37       P1  7948  2.00
      P1  H 10752 10763       L1     1  1.00

> <Gold.PLP.Chemscore.Internal.Correction>
0.0334

> <Gold.Rescore>
     Score         DG    S(hbond)    S(metal)    S(lipo)     H(rot)  DE(clash)    DE(int)     intcor
     20.49     -23.25       2.70        0.00     133.74       2.70       0.56       2.21       ----

> <Gold.Chemscore.Fitness>
20.4859

> <Gold.Chemscore.DG>
-23.2548

> <Gold.Chemscore.ZeroCoef>
-5.4800

> <Gold.Chemscore.Hbond>
2.7033

> <Gold.Chemscore.Metal>
0.0000

> <Gold.Chemscore.Lipo>
133.7440

> <Gold.Chemscore.Internal_Hbond>
0.0000

> <Gold.Chemscore.DEClash>
0.5558

> <Gold.Chemscore.DEInternal>
2.2131

> <Gold.Chemscore.Rot>
2.6963

> <Gold.Chemscore.Internal.Correction>
   9.000000E+99

> <Gold.Chemscore.Hbonds>
donor molecule, donor type, donor heavy atom, donor atom, acceptor molecule, acceptor atom, score
      L1  H     1    23       P1  7949  0.88
      L1  H     4    37       P1  7948  0.88
      P1  H 10752 10763       L1     1  0.33

> <Gold.Chemscore.Hbond.Weighted>
-9.0291

> <Gold.Chemscore.Metal.Weighted>
-0.0000

> <Gold.Chemscore.Lipo.Weighted>
-15.6481

> <Gold.Chemscore.Internal_Hbond.Weighted>
0.0000

> <Gold.Chemscore.DEClash.Weighted>
0.5558

> <Gold.Chemscore.DEInternal.Weighted>
2.2131

> <Gold.Chemscore.Rot.Weighted>
6.9024

> <Gold.Chemscore.Internal.Correction.Weighted>
   9.000000E+99

> <Gold.Protein.RotatedTorsions>
[ 6907 6896 6895 6894 ] final   53.03 input  -60.11 | X-H torsion
[ 7974 7965 7964 7962 ] final  164.94 input  175.53 | X-H torsion
[ 8008 7997 7996 7995 ] final  156.79 input   59.86 | X-H torsion
[ 10167 10162 10161 10158 ] final  140.16 input  -65.29 | X-H torsion
[ 10718 10713 10712 10709 ] final  -56.13 input   66.30 | X-H torsion
[ 10763 10752 10751 10750 ] final   50.44 input  -60.55 | X-H torsion
[ 11005 11000 10999 10996 ] final   84.68 input  -57.11 | X-H torsion

> <Gold.Protein.ActiveResidues>
 VAL166  LYS551  ARG553  GLY616  TRP617  ASP618  TYR619  PRO620  LYS621  CYS622 
 ASP623  PHE694  ASN695  SER759  ASP760  ASP761  ALA762  ILE779  LEU786  VAL792 
 PHE793  MET794  SER795  GLU796  ALA797  LYS798  CYS799  TRP800  GLU811  SER814 

> <Gold.Protein.RotatedAtoms>
  152.3295  134.7278  160.0293 H   0  0  0  0  0  0  0  0  0  0  0  0  # atno 6907 bound_to 6896
  151.7699  133.3335  159.3449 H   0  0  0  0  0  0  0  0  0  0  0  0  # atno 6908 bound_to 6896
  150.7415  134.5960  159.6056 H   0  0  0  0  0  0  0  0  0  0  0  0  # atno 6909 bound_to 6896
  144.7524  139.8398  143.6362 H   0  0  0  0  0  0  0  0  0  0  0  0  # atno 7974 bound_to 7965
  156.2402  140.1903  156.7010 H   0  0  0  0  0  0  0  0  0  0  0  0  # atno 8008 bound_to 7997
  154.6182  140.0612  156.9608 H   0  0  0  0  0  0  0  0  0  0  0  0  # atno 8009 bound_to 7997
  155.1905  140.3284  155.4362 H   0  0  0  0  0  0  0  0  0  0  0  0  # atno 8010 bound_to 7997
  139.5057  144.6251  151.5957 H   0  0  0  0  0  0  0  0  0  0  0  0  # atno 10167 bound_to 10162
  156.1313  130.4159  150.0263 H   0  0  0  0  0  0  0  0  0  0  0  0  # atno 10718 bound_to 10713
  152.9785  135.5879  154.4253 H   0  0  0  0  0  0  0  0  0  0  0  0  # atno 10763 bound_to 10752
  154.3872  135.2767  155.2178 H   0  0  0  0  0  0  0  0  0  0  0  0  # atno 10764 bound_to 10752
  154.4066  135.6091  153.5982 H   0  0  0  0  0  0  0  0  0  0  0  0  # atno 10765 bound_to 10752
  139.8993  134.8234  156.2479 H   0  0  0  0  0  0  0  0  0  0  0  0  # atno 11005 bound_to 11000
  146.1491  139.4569  143.0060 LP  0  0  0  0  0  0  0  0  0  0  0  0  # atno 17320 bound_to 7965
  145.6898  141.0167  143.1561 LP  0  0  0  0  0  0  0  0  0  0  0  0  # atno 17321 bound_to 7965
  140.5965  143.9687  150.6358 LP  0  0  0  0  0  0  0  0  0  0  0  0  # atno 17342 bound_to 10162
  140.2884  143.3341  152.1085 LP  0  0  0  0  0  0  0  0  0  0  0  0  # atno 17343 bound_to 10162
  156.8175  130.9346  151.3642 LP  0  0  0  0  0  0  0  0  0  0  0  0  # atno 17370 bound_to 10713
  157.6491  130.8869  149.9597 LP  0  0  0  0  0  0  0  0  0  0  0  0  # atno 17371 bound_to 10713
  141.0243  133.7024  156.1321 LP  0  0  0  0  0  0  0  0  0  0  0  0  # atno 17394 bound_to 11000
  140.7189  134.4380  157.5576 LP  0  0  0  0  0  0  0  0  0  0  0  0  # atno 17395 bound_to 11000

$$$$
