AV-unprocessed.smi:2694|AV-procd|sdf|10405|dock4
  -GOLD-   2272014433D 1   1.00000     0.00000
 Structure written by MMmdl.
 42 44  0  0  0  0  0  0  0  0  1 V2000
  149.9830  141.7201  154.4353 O   0  0  0  0  0  0  0  0  0  0  0  0
  150.5452  141.3187  155.4542 C   0  0  0  0  0  0  0  0  0  0  0  0
  150.8198  142.1891  156.5976 C   0  0  0  0  0  0  0  0  0  0  0  0
  151.4450  141.7103  157.7001 C   0  0  0  0  0  0  0  0  0  0  0  0
  151.7838  142.5891  158.8965 C   0  0  0  0  0  0  0  0  0  0  0  0
  150.8094  143.7381  159.2081 C   0  0  0  0  0  0  0  0  0  0  0  0
  152.0315  144.6044  159.5317 C   0  0  0  0  0  0  0  0  0  0  0  0
  152.8540  143.6641  158.6443 C   0  0  0  0  0  0  0  0  0  0  0  0
  151.8408  140.3700  157.7677 N   0  0  0  0  0  0  0  0  0  0  0  0
  151.6053  139.5780  156.7712 C   0  0  0  0  0  0  0  0  0  0  0  0
  150.9652  140.0285  155.5994 N   0  0  0  0  0  0  0  0  0  0  0  0
  150.7745  139.0381  154.5250 C   0  0  0  0  0  0  0  0  0  0  0  0
  151.2429  137.6152  154.9139 C   0  0  2  0  0  0  0  0  0  0  0  0
  151.3742  136.8585  153.7283 O   0  0  0  0  0  0  0  0  0  0  0  0
  150.2853  136.8715  155.8630 C   0  0  0  0  0  0  0  0  0  0  0  0
  150.7215  135.5242  155.9868 O   0  0  0  0  0  0  0  0  0  0  0  0
  150.1110  134.5544  155.2206 C   0  0  0  0  0  0  0  0  0  0  0  0
  149.1430  134.8279  154.2212 C   0  0  0  0  0  0  0  0  0  0  0  0
  148.5530  133.7774  153.4917 C   0  0  0  0  0  0  0  0  0  0  0  0
  148.9231  132.4446  153.7473 C   0  0  0  0  0  0  0  0  0  0  0  0
  149.8899  132.1633  154.7295 C   0  0  0  0  0  0  0  0  0  0  0  0
  150.4829  133.2124  155.4585 C   0  0  0  0  0  0  0  0  0  0  0  0
  151.6773  132.8404  156.6483 Cl  0  0  0  0  0  0  0  0  0  0  0  0
  150.5224  143.2263  156.5469 H   0  0  0  0  0  0  0  0  0  0  0  0
  152.0075  141.9947  159.7843 H   0  0  0  0  0  0  0  0  0  0  0  0
  150.2638  144.1036  158.3369 H   0  0  0  0  0  0  0  0  0  0  0  0
  150.1438  143.5553  160.0520 H   0  0  0  0  0  0  0  0  0  0  0  0
  151.9703  145.6327  159.1743 H   0  0  0  0  0  0  0  0  0  0  0  0
  152.3195  144.5553  160.5830 H   0  0  0  0  0  0  0  0  0  0  0  0
  153.8447  143.4218  159.0295 H   0  0  0  0  0  0  0  0  0  0  0  0
  152.8964  144.0013  157.6068 H   0  0  0  0  0  0  0  0  0  0  0  0
  151.8950  138.5260  156.7746 H   0  0  0  0  0  0  0  0  0  0  0  0
  149.7303  139.0021  154.2076 H   0  0  0  0  0  0  0  0  0  0  0  0
  151.3170  139.3684  153.6369 H   0  0  0  0  0  0  0  0  0  0  0  0
  152.2339  137.6586  155.3674 H   0  0  0  0  0  0  0  0  0  0  0  0
  150.5186  136.7522  153.3415 H   0  0  0  0  0  0  0  0  0  0  0  0
  150.2582  137.3837  156.8261 H   0  0  0  0  0  0  0  0  0  0  0  0
  149.2728  136.8657  155.4559 H   0  0  0  0  0  0  0  0  0  0  0  0
  148.8364  135.8368  153.9919 H   0  0  0  0  0  0  0  0  0  0  0  0
  147.8149  133.9956  152.7341 H   0  0  0  0  0  0  0  0  0  0  0  0
  148.4696  131.6396  153.1881 H   0  0  0  0  0  0  0  0  0  0  0  0
  150.1780  131.1405  154.9231 H   0  0  0  0  0  0  0  0  0  0  0  0
  1  2  2  0  0  0  0
  2 11  1  0  0  0  0
  2  3  1  0  0  0  0
  3  4  2  0  0  0  0
  3 24  1  0  0  0  0
  4  5  1  0  0  0  0
  4  9  1  0  0  0  0
  5  8  1  0  0  0  0
  5  6  1  0  0  0  0
  5 25  1  0  0  0  0
  6  7  1  0  0  0  0
  6 26  1  0  0  0  0
  6 27  1  0  0  0  0
  7  8  1  0  0  0  0
  7 28  1  0  0  0  0
  7 29  1  0  0  0  0
  8 30  1  0  0  0  0
  8 31  1  0  0  0  0
  9 10  2  0  0  0  0
 10 11  1  0  0  0  0
 10 32  1  0  0  0  0
 11 12  1  0  0  0  0
 12 13  1  0  0  0  0
 12 33  1  0  0  0  0
 12 34  1  0  0  0  0
 13 14  1  0  0  0  0
 13 15  1  0  0  0  0
 13 35  1  0  0  0  0
 14 36  1  0  0  0  0
 15 16  1  0  0  0  0
 15 37  1  0  0  0  0
 15 38  1  0  0  0  0
 16 17  1  0  0  0  0
 17 22  1  0  0  0  0
 17 18  2  0  0  0  0
 18 19  1  0  0  0  0
 18 39  1  0  0  0  0
 19 20  2  0  0  0  0
 19 40  1  0  0  0  0
 20 21  1  0  0  0  0
 20 41  1  0  0  0  0
 21 22  2  0  0  0  0
 21 42  1  0  0  0  0
 22 23  1  0  0  0  0
M  END
> <s_m_source_file>
AV-unprocessed.smi

> <i_m_source_file_index>
2694

> <i_lp_mmshare_version>
43012

> <i_f3d_flags>
0

> <s_epik_input>
W0NIMl0xW0NIMl1bQ0gyXVtDSF0xYyhbY0hdYzI9TyluW2NIXW4yW0NIMl1bQ0BIXShbT0hdKVtDSDJdT2MzW2NIXVtjSF1bY0hdW2NIXWMzQ2w=

> <s_epik_cmdline>
J2VwaWtfcHl0aG9uJywgJy1waCcsICc3LjAnLCAnLXRuJywgJzgnLCAnLW1hJywgJzIwMCcsICctbWV0YWxfYmluZGluZycsICctaW1hZScsICc8aW5maWxlLm1hZT4nLCAnLW9tYWUnLCAnPG91dGZpbGUubWFlPic=

> <r_lp_tautomer_probability>
1

> <r_epik_Ionization_Penalty>
1.78212e-05

> <r_epik_Ionization_Penalty_Charging>
5.61663e-08

> <r_epik_Ionization_Penalty_Neutral>
1.7765e-05

> <r_epik_State_Penalty>
-0

> <r_epik_Charging_Adjusted_Penalty>
5.61663e-08

> <i_epik_Tot_Q>
0

> <i_epik_Tot_abs_Q>
0

> <r_epik_Metal_State_Penalty>
-0

> <b_epik_Metal_Only>
0

> <s_lp_Force_Field>
OPLS_2005

> <r_lp_Energy>
26.4785

> <b_lp_Chiralities_Consistent>
1

> <s_lp_Variant>
AV-unprocessed.smi:2694-1

> <Gold.Version>
5.8.1

> <Gold.Id.Protein>
6NUR|6NUR_protein|mol2

> <Gold.PLP.Fitness>
48.9353

> <Gold.PLP.PLP>
-47.2469

> <Gold.PLP.part.hbond>
-4.6249

> <Gold.PLP.part.metal>
0.0000

> <Gold.PLP.part.buried>
-1.5480

> <Gold.PLP.part.nonpolar>
-40.7693

> <Gold.PLP.part.repulsive>
0.2002

> <Gold.PLP.ligand.clash>
0.8539

> <Gold.PLP.ligand.torsion>
0.9125

> <Gold.PLP.Chemscore.Hbond>
1.2994

> <Gold.PLP.Chemscore.CHOScore>
0.0000

> <Gold.PLP.Chemscore.Metal>
0.0000

> <Gold.Chemscore.Hbonds>
donor molecule, donor type, donor heavy atom, donor atom, acceptor molecule, acceptor atom, score
      L1  H    14    36       P1  7948  0.17
      P1  H  7989  7998       L1     1  0.04
      P1  H  8011  8017       L1     1  0.23
      P1  H 10752 10765       L1    14  1.00

> <Gold.PLP.Chemscore.Internal.Correction>
0.4690

> <Gold.Rescore>
     Score         DG    S(hbond)    S(metal)    S(lipo)     H(rot)  DE(clash)    DE(int)     intcor
     14.92     -15.91       0.94        0.00     115.35       2.42       0.11       0.87       ----

> <Gold.Chemscore.Fitness>
14.9235

> <Gold.Chemscore.DG>
-15.9074

> <Gold.Chemscore.ZeroCoef>
-5.4800

> <Gold.Chemscore.Hbond>
0.9394

> <Gold.Chemscore.Metal>
0.0000

> <Gold.Chemscore.Lipo>
115.3547

> <Gold.Chemscore.Internal_Hbond>
0.0000

> <Gold.Chemscore.DEClash>
0.1149

> <Gold.Chemscore.DEInternal>
0.8691

> <Gold.Chemscore.Rot>
2.4245

> <Gold.Chemscore.Internal.Correction>
   9.000000E+99

> <Gold.Chemscore.Hbonds>
donor molecule, donor type, donor heavy atom, donor atom, acceptor molecule, acceptor atom, score
      P1  H  8011  8017       L1     1  0.23
      P1  H 10752 10765       L1    14  0.37

> <Gold.Chemscore.Hbond.Weighted>
-3.1375

> <Gold.Chemscore.Metal.Weighted>
-0.0000

> <Gold.Chemscore.Lipo.Weighted>
-13.4965

> <Gold.Chemscore.Internal_Hbond.Weighted>
0.0000

> <Gold.Chemscore.DEClash.Weighted>
0.1149

> <Gold.Chemscore.DEInternal.Weighted>
0.8691

> <Gold.Chemscore.Rot.Weighted>
6.2066

> <Gold.Chemscore.Internal.Correction.Weighted>
   9.000000E+99

> <Gold.Protein.RotatedTorsions>
[ 6907 6896 6895 6894 ] final   22.42 input  -60.11 | X-H torsion
[ 7974 7965 7964 7962 ] final  122.72 input  175.53 | X-H torsion
[ 8008 7997 7996 7995 ] final  -50.68 input   59.86 | X-H torsion
[ 10167 10162 10161 10158 ] final -120.65 input  -65.29 | X-H torsion
[ 10718 10713 10712 10709 ] final   93.27 input   66.30 | X-H torsion
[ 10763 10752 10751 10750 ] final  152.28 input  -60.55 | X-H torsion
[ 11005 11000 10999 10996 ] final -178.81 input  -57.11 | X-H torsion

> <Gold.Protein.ActiveResidues>
 VAL166  LYS551  ARG553  GLY616  TRP617  ASP618  TYR619  PRO620  LYS621  CYS622 
 ASP623  PHE694  ASN695  SER759  ASP760  ASP761  ALA762  ILE779  LEU786  VAL792 
 PHE793  MET794  SER795  GLU796  ALA797  LYS798  CYS799  TRP800  GLU811  SER814 

> <Gold.Protein.RotatedAtoms>
  151.9269  135.0273  160.0526 H   0  0  0  0  0  0  0  0  0  0  0  0  # atno 6907 bound_to 6896
  152.2152  133.4936  159.5140 H   0  0  0  0  0  0  0  0  0  0  0  0  # atno 6908 bound_to 6896
  150.6986  134.1332  159.4120 H   0  0  0  0  0  0  0  0  0  0  0  0  # atno 6909 bound_to 6896
  145.1042  139.3497  143.4796 H   0  0  0  0  0  0  0  0  0  0  0  0  # atno 7974 bound_to 7965
  154.4067  140.1266  156.4706 H   0  0  0  0  0  0  0  0  0  0  0  0  # atno 8008 bound_to 7997
  155.7183  140.3493  155.4985 H   0  0  0  0  0  0  0  0  0  0  0  0  # atno 8009 bound_to 7997
  155.9237  140.1057  157.1177 H   0  0  0  0  0  0  0  0  0  0  0  0  # atno 8010 bound_to 7997
  140.0335  143.5224  152.2165 H   0  0  0  0  0  0  0  0  0  0  0  0  # atno 10167 bound_to 10162
  157.6955  131.0472  150.4009 H   0  0  0  0  0  0  0  0  0  0  0  0  # atno 10718 bound_to 10713
  154.1175  135.2835  155.3216 H   0  0  0  0  0  0  0  0  0  0  0  0  # atno 10763 bound_to 10752
  154.6446  135.5390  153.7833 H   0  0  0  0  0  0  0  0  0  0  0  0  # atno 10764 bound_to 10752
  153.0324  135.6495  154.1331 H   0  0  0  0  0  0  0  0  0  0  0  0  # atno 10765 bound_to 10752
  140.4256  134.6566  157.4686 H   0  0  0  0  0  0  0  0  0  0  0  0  # atno 11005 bound_to 11000
  146.3529  140.0933  142.8611 LP  0  0  0  0  0  0  0  0  0  0  0  0  # atno 17320 bound_to 7965
  145.0920  140.9291  143.4763 LP  0  0  0  0  0  0  0  0  0  0  0  0  # atno 17321 bound_to 7965
  139.6060  144.7596  151.3060 LP  0  0  0  0  0  0  0  0  0  0  0  0  # atno 17342 bound_to 10162
  140.7291  143.6916  150.7918 LP  0  0  0  0  0  0  0  0  0  0  0  0  # atno 17343 bound_to 10162
  156.4402  130.3990  149.6702 LP  0  0  0  0  0  0  0  0  0  0  0  0  # atno 17370 bound_to 10713
  156.3888  130.7616  151.2616 LP  0  0  0  0  0  0  0  0  0  0  0  0  # atno 17371 bound_to 10713
  140.0170  134.6604  155.9295 LP  0  0  0  0  0  0  0  0  0  0  0  0  # atno 17394 bound_to 11000
  141.1766  133.6541  156.4855 LP  0  0  0  0  0  0  0  0  0  0  0  0  # atno 17395 bound_to 11000

$$$$
