AV-unprocessed.smi:3244|AV-procd|sdf|12400|dock5
  -GOLD-   2272018273D 1   1.00000     0.00000
 Structure written by MMmdl.
 40 41  0  0  0  0  0  0  0  0  1 V2000
  154.6506  141.5409  160.8022 C   0  0  0  0  0  0  0  0  0  0  0  0
  154.1242  142.5282  159.7474 C   0  0  0  0  0  0  0  0  0  0  0  0
  152.8547  142.0763  159.1534 N   0  0  0  0  0  0  0  0  0  0  0  0
  152.7946  140.8877  158.4977 C   0  0  0  0  0  0  0  0  0  0  0  0
  153.7214  140.0766  158.5162 O   0  0  0  0  0  0  0  0  0  0  0  0
  151.5430  140.5186  157.6887 C   0  0  0  0  0  0  0  0  0  0  0  0
  151.3423  141.4266  156.5523 N   0  0  0  0  0  0  0  0  0  0  0  0
  150.0277  141.2933  155.9320 C   0  0  2  0  0  0  0  0  0  0  0  0
  148.9316  141.2912  157.0113 C   0  0  0  0  0  0  0  0  0  0  0  0
  149.9996  139.9890  155.1090 C   0  0  0  0  0  0  0  0  0  0  0  0
  148.6956  139.7297  154.5207 N   0  0  0  0  0  0  0  0  0  0  0  0
  148.2465  138.5789  153.9074 C   0  0  0  0  0  0  0  0  0  0  0  0
  146.9583  138.8033  153.5143 C   0  0  0  0  0  0  0  0  0  0  0  0
  146.7061  140.1402  153.9309 C   0  0  0  0  0  0  0  0  0  0  0  0
  147.7485  140.6930  154.5299 N   0  0  0  0  0  0  0  0  0  0  0  0
  151.8090  143.0671  159.1206 C   0  0  0  0  0  0  0  0  0  0  0  0
  152.0272  144.3957  158.4187 C   0  0  0  0  0  0  0  0  0  0  0  0
  151.9517  144.3491  159.9196 C   0  0  0  0  0  0  0  0  0  0  0  0
  155.6055  141.8798  161.2039 H   0  0  0  0  0  0  0  0  0  0  0  0
  154.8054  140.5516  160.3703 H   0  0  0  0  0  0  0  0  0  0  0  0
  153.9614  141.4362  161.6403 H   0  0  0  0  0  0  0  0  0  0  0  0
  153.9962  143.5156  160.1941 H   0  0  0  0  0  0  0  0  0  0  0  0
  154.8934  142.6584  158.9877 H   0  0  0  0  0  0  0  0  0  0  0  0
  151.6529  139.4978  157.3216 H   0  0  0  0  0  0  0  0  0  0  0  0
  150.6694  140.5144  158.3386 H   0  0  0  0  0  0  0  0  0  0  0  0
  152.0672  141.3292  155.8555 H   0  0  0  0  0  0  0  0  0  0  0  0
  149.8546  142.1278  155.2502 H   0  0  0  0  0  0  0  0  0  0  0  0
  147.9483  141.1410  156.5647 H   0  0  0  0  0  0  0  0  0  0  0  0
  148.8937  142.2353  157.5545 H   0  0  0  0  0  0  0  0  0  0  0  0
  149.0889  140.4927  157.7375 H   0  0  0  0  0  0  0  0  0  0  0  0
  150.7549  140.0115  154.3211 H   0  0  0  0  0  0  0  0  0  0  0  0
  150.2460  139.1403  155.7480 H   0  0  0  0  0  0  0  0  0  0  0  0
  148.8726  137.7044  153.8083 H   0  0  0  0  0  0  0  0  0  0  0  0
  146.2968  138.1171  153.0068 H   0  0  0  0  0  0  0  0  0  0  0  0
  145.8028  140.7208  153.8169 H   0  0  0  0  0  0  0  0  0  0  0  0
  150.8013  142.6651  159.0417 H   0  0  0  0  0  0  0  0  0  0  0  0
  153.0034  144.6142  157.9903 H   0  0  0  0  0  0  0  0  0  0  0  0
  151.1802  144.8248  157.8873 H   0  0  0  0  0  0  0  0  0  0  0  0
  151.0565  144.7460  160.3932 H   0  0  0  0  0  0  0  0  0  0  0  0
  152.8795  144.5200  160.4623 H   0  0  0  0  0  0  0  0  0  0  0  0
  1  2  1  0  0  0  0
  1 19  1  0  0  0  0
  1 20  1  0  0  0  0
  1 21  1  0  0  0  0
  2  3  1  0  0  0  0
  2 22  1  0  0  0  0
  2 23  1  0  0  0  0
  3  4  1  0  0  0  0
  3 16  1  0  0  0  0
  4  5  2  0  0  0  0
  4  6  1  0  0  0  0
  6  7  1  0  0  0  0
  6 24  1  0  0  0  0
  6 25  1  0  0  0  0
  7  8  1  0  0  0  0
  7 26  1  0  0  0  0
  8  9  1  0  0  0  0
  8 10  1  0  0  0  0
  8 27  1  0  0  0  0
  9 28  1  0  0  0  0
  9 29  1  0  0  0  0
  9 30  1  0  0  0  0
 10 11  1  0  0  0  0
 10 31  1  0  0  0  0
 10 32  1  0  0  0  0
 11 15  1  0  0  0  0
 11 12  1  0  0  0  0
 12 13  2  0  0  0  0
 12 33  1  0  0  0  0
 13 14  1  0  0  0  0
 13 34  1  0  0  0  0
 14 15  2  0  0  0  0
 14 35  1  0  0  0  0
 16 18  1  0  0  0  0
 16 17  1  0  0  0  0
 16 36  1  0  0  0  0
 17 18  1  0  0  0  0
 17 37  1  0  0  0  0
 17 38  1  0  0  0  0
 18 39  1  0  0  0  0
 18 40  1  0  0  0  0
M  END
> <s_m_source_file>
AV-unprocessed.smi

> <i_m_source_file_index>
3244

> <i_lp_mmshare_version>
43012

> <i_f3d_flags>
0

> <s_epik_input>
W0NIMl0xW0NIMl1bQ0hdMU4oW0NIMl1bQ0gzXSlDKD1PKVtDSDJdW05IXVtDQEhdKFtDSDNdKVtDSDJdbjJbY0hdW2NIXVtjSF1uMg==

> <s_epik_cmdline>
J2VwaWtfcHl0aG9uJywgJy1waCcsICc3LjAnLCAnLXRuJywgJzgnLCAnLW1hJywgJzIwMCcsICctbWV0YWxfYmluZGluZycsICctaW1hZScsICc8aW5maWxlLm1hZT4nLCAnLW9tYWUnLCAnPG91dGZpbGUubWFlPic=

> <r_lp_tautomer_probability>
1

> <r_epik_Ionization_Penalty>
1.02506

> <r_epik_Ionization_Penalty_Charging>
0

> <r_epik_Ionization_Penalty_Neutral>
1.02506

> <r_epik_State_Penalty>
1.07563

> <r_epik_Charging_Adjusted_Penalty>
1.07563

> <i_epik_Tot_Q>
0

> <i_epik_Tot_abs_Q>
0

> <r_epik_Metal_State_Penalty>
1.07558

> <b_epik_Metal_Only>
0

> <s_lp_Force_Field>
OPLS_2005

> <r_lp_Energy>
34.7243

> <b_lp_Chiralities_Consistent>
1

> <s_lp_Variant>
AV-unprocessed.smi:3244-3

> <Gold.Version>
5.8.1

> <Gold.Id.Protein>
6NUR|6NUR_protein|mol2

> <Gold.PLP.Fitness>
46.1749

> <Gold.PLP.PLP>
-38.0223

> <Gold.PLP.part.hbond>
-1.0000

> <Gold.PLP.part.metal>
0.0000

> <Gold.PLP.part.buried>
-0.9780

> <Gold.PLP.part.nonpolar>
-36.2472

> <Gold.PLP.part.repulsive>
0.1443

> <Gold.PLP.ligand.clash>
0.0000

> <Gold.PLP.ligand.torsion>
0.4567

> <Gold.PLP.Chemscore.Hbond>
0.9913

> <Gold.PLP.Chemscore.CHOScore>
1.8968

> <Gold.PLP.Chemscore.Metal>
0.0000

> <Gold.Chemscore.Hbonds>
donor molecule, donor type, donor heavy atom, donor atom, acceptor molecule, acceptor atom, score
      P1  H  7997  8009       L1     5  1.00
      L1  C    12    33       P1  7948  0.92
      L1  C    14    35       P1 10175  1.00

> <Gold.PLP.Chemscore.Internal.Correction>
0.4020

> <Gold.Rescore>
     Score         DG    S(hbond)    S(metal)    S(lipo)     H(rot)  DE(clash)    DE(int)     intcor
     13.46     -14.74       0.92        0.00      95.67       1.95       0.11       1.17       ----

> <Gold.Chemscore.Fitness>
13.4584

> <Gold.Chemscore.DG>
-14.7353

> <Gold.Chemscore.ZeroCoef>
-5.4800

> <Gold.Chemscore.Hbond>
0.9183

> <Gold.Chemscore.Metal>
0.0000

> <Gold.Chemscore.Lipo>
95.6654

> <Gold.Chemscore.Internal_Hbond>
0.0000

> <Gold.Chemscore.DEClash>
0.1075

> <Gold.Chemscore.DEInternal>
1.1694

> <Gold.Chemscore.Rot>
1.9550

> <Gold.Chemscore.Internal.Correction>
   9.000000E+99

> <Gold.Chemscore.Hbonds>
donor molecule, donor type, donor heavy atom, donor atom, acceptor molecule, acceptor atom, score
      P1  H  7997  8009       L1     5  0.87

> <Gold.Chemscore.Hbond.Weighted>
-3.0672

> <Gold.Chemscore.Metal.Weighted>
-0.0000

> <Gold.Chemscore.Lipo.Weighted>
-11.1928

> <Gold.Chemscore.Internal_Hbond.Weighted>
0.0000

> <Gold.Chemscore.DEClash.Weighted>
0.1075

> <Gold.Chemscore.DEInternal.Weighted>
1.1694

> <Gold.Chemscore.Rot.Weighted>
5.0047

> <Gold.Chemscore.Internal.Correction.Weighted>
   9.000000E+99

> <Gold.Protein.RotatedTorsions>
[ 6907 6896 6895 6894 ] final   90.60 input  -60.11 | X-H torsion
[ 7974 7965 7964 7962 ] final  139.28 input  175.53 | X-H torsion
[ 8008 7997 7996 7995 ] final  146.45 input   59.86 | X-H torsion
[ 10167 10162 10161 10158 ] final  -99.59 input  -65.29 | X-H torsion
[ 10718 10713 10712 10709 ] final -128.67 input   66.30 | X-H torsion
[ 10763 10752 10751 10750 ] final   39.35 input  -60.55 | X-H torsion
[ 11005 11000 10999 10996 ] final   37.01 input  -57.11 | X-H torsion

> <Gold.Protein.ActiveResidues>
 VAL166  LYS551  ARG553  GLY616  TRP617  ASP618  TYR619  PRO620  LYS621  CYS622 
 ASP623  PHE694  ASN695  SER759  ASP760  ASP761  ALA762  ILE779  LEU786  VAL792 
 PHE793  MET794  SER795  GLU796  ALA797  LYS798  CYS799  TRP800  GLU811  SER814 

> <Gold.Protein.RotatedAtoms>
  152.5445  134.1786  159.8625 H   0  0  0  0  0  0  0  0  0  0  0  0  # atno 6907 bound_to 6896
  151.1790  133.4730  159.2601 H   0  0  0  0  0  0  0  0  0  0  0  0  # atno 6908 bound_to 6896
  151.1198  135.0084  159.8588 H   0  0  0  0  0  0  0  0  0  0  0  0  # atno 6909 bound_to 6896
  144.9293  139.5067  143.5625 H   0  0  0  0  0  0  0  0  0  0  0  0  # atno 7974 bound_to 7965
  156.2855  140.2182  156.5378 H   0  0  0  0  0  0  0  0  0  0  0  0  # atno 8008 bound_to 7997
  154.7395  140.0489  157.0820 H   0  0  0  0  0  0  0  0  0  0  0  0  # atno 8009 bound_to 7997
  155.0249  140.3128  155.4783 H   0  0  0  0  0  0  0  0  0  0  0  0  # atno 8010 bound_to 7997
  140.2608  143.3408  152.0627 H   0  0  0  0  0  0  0  0  0  0  0  0  # atno 10167 bound_to 10162
  156.1973  130.6834  151.0497 H   0  0  0  0  0  0  0  0  0  0  0  0  # atno 10718 bound_to 10713
  152.9970  135.6223  154.2452 H   0  0  0  0  0  0  0  0  0  0  0  0  # atno 10763 bound_to 10752
  154.2191  135.2796  155.2933 H   0  0  0  0  0  0  0  0  0  0  0  0  # atno 10764 bound_to 10752
  154.5543  135.5724  153.7008 H   0  0  0  0  0  0  0  0  0  0  0  0  # atno 10765 bound_to 10752
  140.2268  134.3575  155.7981 H   0  0  0  0  0  0  0  0  0  0  0  0  # atno 11005 bound_to 11000
  146.3240  139.8232  142.8923 LP  0  0  0  0  0  0  0  0  0  0  0  0  # atno 17320 bound_to 7965
  145.3167  141.0234  143.3523 LP  0  0  0  0  0  0  0  0  0  0  0  0  # atno 17321 bound_to 7965
  139.5017  144.6720  151.6221 LP  0  0  0  0  0  0  0  0  0  0  0  0  # atno 17342 bound_to 10162
  140.5967  143.9683  150.6359 LP  0  0  0  0  0  0  0  0  0  0  0  0  # atno 17343 bound_to 10162
  157.6965  131.0792  150.6953 LP  0  0  0  0  0  0  0  0  0  0  0  0  # atno 17370 bound_to 10713
  156.7010  130.4623  149.5573 LP  0  0  0  0  0  0  0  0  0  0  0  0  # atno 17371 bound_to 10713
  141.2220  133.7223  156.8666 LP  0  0  0  0  0  0  0  0  0  0  0  0  # atno 17394 bound_to 11000
  140.1792  134.9045  157.2928 LP  0  0  0  0  0  0  0  0  0  0  0  0  # atno 17395 bound_to 11000

$$$$
