AV-unprocessed.smi:174|AV-procd|sdf|1427|dock4
  -GOLD-   2262019203D 1   1.00000     0.00000
 Structure written by MMmdl.
 51 54  0  0  0  0  0  0  0  0  1 V2000
  153.3136  137.5114  160.1688 N   0  0  0  0  0  0  0  0  0  0  0  0
  153.1409  138.0911  158.9791 C   0  0  0  0  0  0  0  0  0  0  0  0
  153.9136  138.9476  158.5518 O   0  0  0  0  0  0  0  0  0  0  0  0
  151.9102  137.6523  158.1729 C   0  0  0  0  0  0  0  0  0  0  0  0
  151.7304  138.4108  156.9262 N   0  0  0  0  0  0  0  0  0  0  0  0
  151.3357  139.8189  157.0937 C   0  0  0  0  0  0  0  0  0  0  0  0
  151.5277  140.6710  155.8281 C   0  0  0  0  0  0  0  0  0  0  0  0
  151.0402  139.9477  154.6612 N   0  0  0  0  0  0  0  0  0  0  0  0
  149.6982  140.0346  154.4598 C   0  0  0  0  0  0  0  0  0  0  0  0
  149.1417  141.2086  154.0565 N   0  0  0  0  0  0  0  0  0  0  0  0
  147.8261  141.2952  153.8410 C   0  0  0  0  0  0  0  0  0  0  0  0
  146.8962  140.3466  153.9649 N   0  0  0  0  0  0  0  0  0  0  0  0
  147.4468  139.1669  154.3705 C   0  0  0  0  0  0  0  0  0  0  0  0
  148.8240  138.9258  154.6384 C   0  0  0  0  0  0  0  0  0  0  0  0
  149.0032  137.6072  155.0411 N   0  0  0  0  0  0  0  0  0  0  0  0
  147.8017  137.0986  155.0131 C   0  0  0  0  0  0  0  0  0  0  0  0
  146.8070  137.9670  154.6261 N   0  0  0  0  0  0  0  0  0  0  0  0
  145.3897  137.6713  154.5259 C   0  0  0  0  0  0  0  0  0  0  0  0
  144.8955  137.5833  153.0667 C   0  0  2  0  0  0  0  0  0  0  0  0
  143.6212  138.1931  153.0188 O   0  0  0  0  0  0  0  0  0  0  0  0
  144.7878  136.1440  152.5143 C   0  0  1  0  0  0  0  0  0  0  0  0
  144.3525  136.0543  151.0488 C   0  0  0  0  0  0  0  0  0  0  0  0
  144.9364  134.7326  150.5706 C   0  0  0  0  0  0  0  0  0  0  0  0
  145.9165  134.3385  151.6771 C   0  0  0  0  0  0  0  0  0  0  0  0
  146.0589  135.5129  152.4599 O   0  0  0  0  0  0  0  0  0  0  0  0
  151.7019  138.6570  154.4345 C   0  0  0  0  0  0  0  0  0  0  0  0
  151.9071  137.8233  155.7142 C   0  0  0  0  0  0  0  0  0  0  0  0
  152.2292  136.6415  155.5888 O   0  0  0  0  0  0  0  0  0  0  0  0
  154.1101  137.7623  160.7362 H   0  0  0  0  0  0  0  0  0  0  0  0
  152.6525  136.8223  160.4966 H   0  0  0  0  0  0  0  0  0  0  0  0
  151.9746  136.5839  157.9574 H   0  0  0  0  0  0  0  0  0  0  0  0
  151.0299  137.7699  158.8064 H   0  0  0  0  0  0  0  0  0  0  0  0
  150.2839  139.8340  157.3823 H   0  0  0  0  0  0  0  0  0  0  0  0
  151.8902  140.2670  157.9195 H   0  0  0  0  0  0  0  0  0  0  0  0
  151.0503  141.6430  155.9505 H   0  0  0  0  0  0  0  0  0  0  0  0
  152.5893  140.8747  155.6808 H   0  0  0  0  0  0  0  0  0  0  0  0
  147.4680  142.2634  153.5235 H   0  0  0  0  0  0  0  0  0  0  0  0
  147.6043  136.0716  155.2840 H   0  0  0  0  0  0  0  0  0  0  0  0
  145.1916  136.7358  155.0509 H   0  0  0  0  0  0  0  0  0  0  0  0
  144.8446  138.4487  155.0630 H   0  0  0  0  0  0  0  0  0  0  0  0
  145.5599  138.1643  152.4256 H   0  0  0  0  0  0  0  0  0  0  0  0
  143.6891  138.9897  152.5148 H   0  0  0  0  0  0  0  0  0  0  0  0
  144.1186  135.5466  153.1369 H   0  0  0  0  0  0  0  0  0  0  0  0
  143.2697  136.1049  150.9299 H   0  0  0  0  0  0  0  0  0  0  0  0
  144.7904  136.8725  150.4751 H   0  0  0  0  0  0  0  0  0  0  0  0
  144.1666  133.9706  150.4447 H   0  0  0  0  0  0  0  0  0  0  0  0
  145.4441  134.8604  149.6138 H   0  0  0  0  0  0  0  0  0  0  0  0
  145.4996  133.5434  152.2971 H   0  0  0  0  0  0  0  0  0  0  0  0
  146.8780  134.0013  151.2895 H   0  0  0  0  0  0  0  0  0  0  0  0
  151.1819  138.0610  153.6829 H   0  0  0  0  0  0  0  0  0  0  0  0
  152.6869  138.8613  154.0140 H   0  0  0  0  0  0  0  0  0  0  0  0
  1  2  1  0  0  0  0
  1 29  1  0  0  0  0
  1 30  1  0  0  0  0
  2  3  2  0  0  0  0
  2  4  1  0  0  0  0
  4  5  1  0  0  0  0
  4 31  1  0  0  0  0
  4 32  1  0  0  0  0
  5 27  1  0  0  0  0
  5  6  1  0  0  0  0
  6  7  1  0  0  0  0
  6 33  1  0  0  0  0
  6 34  1  0  0  0  0
  7  8  1  0  0  0  0
  7 35  1  0  0  0  0
  7 36  1  0  0  0  0
  8  9  1  0  0  0  0
  8 26  1  0  0  0  0
  9 14  1  0  0  0  0
  9 10  2  0  0  0  0
 10 11  1  0  0  0  0
 11 12  2  0  0  0  0
 11 37  1  0  0  0  0
 12 13  1  0  0  0  0
 13 17  1  0  0  0  0
 13 14  2  0  0  0  0
 14 15  1  0  0  0  0
 15 16  2  0  0  0  0
 16 17  1  0  0  0  0
 16 38  1  0  0  0  0
 17 18  1  0  0  0  0
 18 19  1  0  0  0  0
 18 39  1  0  0  0  0
 18 40  1  0  0  0  0
 19 20  1  0  0  0  0
 19 21  1  0  0  0  0
 19 41  1  0  0  0  0
 20 42  1  0  0  0  0
 21 25  1  0  0  0  0
 21 22  1  0  0  0  0
 21 43  1  0  0  0  0
 22 23  1  0  0  0  0
 22 44  1  0  0  0  0
 22 45  1  0  0  0  0
 23 24  1  0  0  0  0
 23 46  1  0  0  0  0
 23 47  1  0  0  0  0
 24 25  1  0  0  0  0
 24 48  1  0  0  0  0
 24 49  1  0  0  0  0
 26 27  1  0  0  0  0
 26 50  1  0  0  0  0
 26 51  1  0  0  0  0
 27 28  2  0  0  0  0
M  END
> <s_m_source_file>
AV-unprocessed.smi

> <i_m_source_file_index>
174

> <i_lp_mmshare_version>
43012

> <i_f3d_flags>
0

> <s_epik_input>
W05IMl1DKD1PKVtDSDJdTjFbQ0gyXVtDSDJdTihbQ0gyXUMxPU8pYyhuW2NIXW4yKWMoYzIzKW5bY0hdbjNbQ0gyXVtDQEhdKFtPSF0pW0NAQEhdNFtDSDJdW0NIMl1bQ0gyXU80

> <s_epik_cmdline>
J2VwaWtfcHl0aG9uJywgJy1waCcsICc3LjAnLCAnLXRuJywgJzgnLCAnLW1hJywgJzIwMCcsICctbWV0YWxfYmluZGluZycsICctaW1hZScsICc8aW5maWxlLm1hZT4nLCAnLW9tYWUnLCAnPG91dGZpbGUubWFlPic=

> <r_lp_tautomer_probability>
1

> <r_epik_Ionization_Penalty>
0.000250477

> <r_epik_Ionization_Penalty_Charging>
0

> <r_epik_Ionization_Penalty_Neutral>
0.000250477

> <r_epik_State_Penalty>
-0

> <r_epik_Charging_Adjusted_Penalty>
0

> <i_epik_Tot_Q>
0

> <i_epik_Tot_abs_Q>
0

> <r_epik_Metal_State_Penalty>
-0

> <b_epik_Metal_Only>
0

> <s_lp_Force_Field>
OPLS_2005

> <r_lp_Energy>
34.8675

> <b_lp_Chiralities_Consistent>
1

> <s_lp_Variant>
AV-unprocessed.smi:174-3

> <Gold.Version>
5.8.1

> <Gold.Id.Protein>
6NUR|6NUR_protein|mol2

> <Gold.PLP.Fitness>
45.6510

> <Gold.PLP.PLP>
-34.3397

> <Gold.PLP.part.hbond>
-5.5583

> <Gold.PLP.part.metal>
0.0000

> <Gold.PLP.part.buried>
-6.5246

> <Gold.PLP.part.nonpolar>
-23.0976

> <Gold.PLP.part.repulsive>
1.7089

> <Gold.PLP.ligand.clash>
0.0000

> <Gold.PLP.ligand.torsion>
1.2518

> <Gold.PLP.Chemscore.Hbond>
4.4375

> <Gold.PLP.Chemscore.CHOScore>
0.0000

> <Gold.PLP.Chemscore.Metal>
0.0000

> <Gold.Chemscore.Hbonds>
donor molecule, donor type, donor heavy atom, donor atom, acceptor molecule, acceptor atom, score
      L1  H    20    42       P1 10175  0.77
      P1  H  7989  7998       L1     8  1.00
      P1  H  7997  8010       L1     3  1.00
      P1  H  8011  8017       L1    10  0.41
      P1  H 10752 10765       L1    28  1.00

> <Gold.PLP.Chemscore.Internal.Correction>
0.5024

> <Gold.Rescore>
     Score         DG    S(hbond)    S(metal)    S(lipo)     H(rot)  DE(clash)    DE(int)     intcor
      8.15     -11.57       3.04        0.00      50.68       3.90       0.24       3.18       ----

> <Gold.Chemscore.Fitness>
8.1461

> <Gold.Chemscore.DG>
-11.5717

> <Gold.Chemscore.ZeroCoef>
-5.4800

> <Gold.Chemscore.Hbond>
3.0369

> <Gold.Chemscore.Metal>
0.0000

> <Gold.Chemscore.Lipo>
50.6773

> <Gold.Chemscore.Internal_Hbond>
0.0000

> <Gold.Chemscore.DEClash>
0.2411

> <Gold.Chemscore.DEInternal>
3.1846

> <Gold.Chemscore.Rot>
3.8988

> <Gold.Chemscore.Internal.Correction>
   9.000000E+99

> <Gold.Chemscore.Hbonds>
donor molecule, donor type, donor heavy atom, donor atom, acceptor molecule, acceptor atom, score
      L1  H    20    42       P1 10175  0.74
      P1  H  7989  7998       L1     8  0.04
      P1  H  7997  8010       L1     3  0.99
      P1  H  8011  8017       L1    10  0.08
      P1  H 10752 10765       L1    28  0.91

> <Gold.Chemscore.Hbond.Weighted>
-10.1433

> <Gold.Chemscore.Metal.Weighted>
-0.0000

> <Gold.Chemscore.Lipo.Weighted>
-5.9292

> <Gold.Chemscore.Internal_Hbond.Weighted>
0.0000

> <Gold.Chemscore.DEClash.Weighted>
0.2411

> <Gold.Chemscore.DEInternal.Weighted>
3.1846

> <Gold.Chemscore.Rot.Weighted>
9.9808

> <Gold.Chemscore.Internal.Correction.Weighted>
   9.000000E+99

> <Gold.Protein.RotatedTorsions>
[ 6907 6896 6895 6894 ] final -110.09 input  -60.11 | X-H torsion
[ 7974 7965 7964 7962 ] final  172.65 input  175.53 | X-H torsion
[ 8008 7997 7996 7995 ] final   14.56 input   59.86 | X-H torsion
[ 10167 10162 10161 10158 ] final  -53.49 input  -65.29 | X-H torsion
[ 10718 10713 10712 10709 ] final  104.06 input   66.30 | X-H torsion
[ 10763 10752 10751 10750 ] final -157.30 input  -60.55 | X-H torsion
[ 11005 11000 10999 10996 ] final  -68.09 input  -57.11 | X-H torsion

> <Gold.Protein.ActiveResidues>
 VAL166  LYS551  ARG553  GLY616  TRP617  ASP618  TYR619  PRO620  LYS621  CYS622 
 ASP623  PHE694  ASN695  SER759  ASP760  ASP761  ALA762  ILE779  LEU786  VAL792 
 PHE793  MET794  SER795  GLU796  ALA797  LYS798  CYS799  TRP800  GLU811  SER814 

> <Gold.Protein.RotatedAtoms>
  150.7603  133.9432  159.3462 H   0  0  0  0  0  0  0  0  0  0  0  0  # atno 6907 bound_to 6896
  151.7343  135.0866  160.0314 H   0  0  0  0  0  0  0  0  0  0  0  0  # atno 6908 bound_to 6896
  152.3570  133.6211  159.6022 H   0  0  0  0  0  0  0  0  0  0  0  0  # atno 6909 bound_to 6896
  144.7263  139.9530  143.6432 H   0  0  0  0  0  0  0  0  0  0  0  0  # atno 7974 bound_to 7965
  154.8502  140.2928  155.5603 H   0  0  0  0  0  0  0  0  0  0  0  0  # atno 8008 bound_to 7997
  156.3016  140.2497  156.3392 H   0  0  0  0  0  0  0  0  0  0  0  0  # atno 8009 bound_to 7997
  154.9029  140.0391  157.1892 H   0  0  0  0  0  0  0  0  0  0  0  0  # atno 8010 bound_to 7997
  140.6482  143.2548  151.4800 H   0  0  0  0  0  0  0  0  0  0  0  0  # atno 10167 bound_to 10162
  157.6752  131.0794  150.5649 H   0  0  0  0  0  0  0  0  0  0  0  0  # atno 10718 bound_to 10713
  154.7647  135.3127  154.8310 H   0  0  0  0  0  0  0  0  0  0  0  0  # atno 10763 bound_to 10752
  153.9062  135.6810  153.4757 H   0  0  0  0  0  0  0  0  0  0  0  0  # atno 10764 bound_to 10752
  153.1251  135.4805  154.9192 H   0  0  0  0  0  0  0  0  0  0  0  0  # atno 10765 bound_to 10752
  141.1524  133.6733  156.6392 H   0  0  0  0  0  0  0  0  0  0  0  0  # atno 11005 bound_to 11000
  146.0697  139.3686  143.0531 LP  0  0  0  0  0  0  0  0  0  0  0  0  # atno 17320 bound_to 7965
  145.7985  140.9782  143.1011 LP  0  0  0  0  0  0  0  0  0  0  0  0  # atno 17321 bound_to 7965
  139.5694  144.1964  152.1814 LP  0  0  0  0  0  0  0  0  0  0  0  0  # atno 17342 bound_to 10162
  140.1256  144.5334  150.6835 LP  0  0  0  0  0  0  0  0  0  0  0  0  # atno 17343 bound_to 10162
  156.5951  130.4339  149.5920 LP  0  0  0  0  0  0  0  0  0  0  0  0  # atno 17370 bound_to 10713
  156.2551  130.6930  151.1680 LP  0  0  0  0  0  0  0  0  0  0  0  0  # atno 17371 bound_to 10713
  140.3406  134.7852  157.4395 LP  0  0  0  0  0  0  0  0  0  0  0  0  # atno 17394 bound_to 11000
  140.0941  134.5561  155.8416 LP  0  0  0  0  0  0  0  0  0  0  0  0  # atno 17395 bound_to 11000

$$$$
