AV-unprocessed.smi:3336|AV-procd|sdf|12858|dock6
  -GOLD-   2272019253D 1   1.00000     0.00000
 Structure written by MMmdl.
 41 42  0  0  0  0  0  0  0  0  1 V2000
  146.2979  138.3161  151.2742 C   0  0  0  0  0  0  0  0  0  0  0  0
  146.4954  138.2850  152.7986 C   0  0  1  0  0  0  0  0  0  0  0  0
  146.3529  136.8758  153.4077 C   0  0  0  0  0  0  0  0  0  0  0  0
  144.9910  136.3759  153.3477 N   0  0  0  0  0  0  0  0  0  0  0  0
  143.8926  136.9630  152.7559 C   0  0  0  0  0  0  0  0  0  0  0  0
  142.8294  136.1298  152.9551 C   0  0  0  0  0  0  0  0  0  0  0  0
  143.3839  135.0442  153.6893 C   0  0  0  0  0  0  0  0  0  0  0  0
  144.6772  135.1952  153.9248 N   0  0  0  0  0  0  0  0  0  0  0  0
  147.8391  138.7705  153.0981 N   0  0  0  0  0  0  0  0  0  0  0  0
  147.8747  139.8960  154.0498 C   0  0  2  0  0  0  0  0  0  0  0  0
  147.1350  141.1202  153.4717 C   0  0  0  0  0  0  0  0  0  0  0  0
  149.3292  140.2775  154.4021 C   0  0  0  0  0  0  0  0  0  0  0  0
  149.7311  141.4000  154.0874 O   0  0  0  0  0  0  0  0  0  0  0  0
  150.1318  139.3889  155.0422 N   0  0  0  0  0  0  0  0  0  0  0  0
  151.5602  139.5468  155.3439 C   0  0  0  0  0  0  0  0  0  0  0  0
  152.3451  138.4625  154.5829 C   0  0  0  0  0  0  0  0  0  0  0  0
  151.8677  137.1713  154.9500 O   0  0  0  0  0  0  0  0  0  0  0  0
  150.4792  136.9972  154.6834 C   0  0  0  0  0  0  0  0  0  0  0  0
  149.6724  138.0572  155.4531 C   0  0  0  0  0  0  0  0  0  0  0  0
  145.2876  138.0126  150.9990 H   0  0  0  0  0  0  0  0  0  0  0  0
  146.9950  137.6469  150.7684 H   0  0  0  0  0  0  0  0  0  0  0  0
  146.4514  139.3203  150.8771 H   0  0  0  0  0  0  0  0  0  0  0  0
  145.7389  138.9286  153.2505 H   0  0  0  0  0  0  0  0  0  0  0  0
  147.0124  136.1695  152.8996 H   0  0  0  0  0  0  0  0  0  0  0  0
  146.6587  136.8865  154.4548 H   0  0  0  0  0  0  0  0  0  0  0  0
  143.9595  137.9138  152.2477 H   0  0  0  0  0  0  0  0  0  0  0  0
  141.8108  136.2737  152.6267 H   0  0  0  0  0  0  0  0  0  0  0  0
  142.8878  134.1579  154.0565 H   0  0  0  0  0  0  0  0  0  0  0  0
  148.3299  138.9879  152.2424 H   0  0  0  0  0  0  0  0  0  0  0  0
  147.3864  139.5521  154.9609 H   0  0  0  0  0  0  0  0  0  0  0  0
  147.1867  141.9790  154.1407 H   0  0  0  0  0  0  0  0  0  0  0  0
  146.0781  140.9120  153.3064 H   0  0  0  0  0  0  0  0  0  0  0  0
  147.5621  141.4252  152.5154 H   0  0  0  0  0  0  0  0  0  0  0  0
  151.9708  140.5190  155.0828 H   0  0  0  0  0  0  0  0  0  0  0  0
  151.7138  139.4367  156.4184 H   0  0  0  0  0  0  0  0  0  0  0  0
  152.2525  138.5995  153.5044 H   0  0  0  0  0  0  0  0  0  0  0  0
  153.4066  138.5269  154.8221 H   0  0  0  0  0  0  0  0  0  0  0  0
  150.2915  137.0673  153.6108 H   0  0  0  0  0  0  0  0  0  0  0  0
  150.1832  135.9958  154.9963 H   0  0  0  0  0  0  0  0  0  0  0  0
  149.8262  137.9385  156.5266 H   0  0  0  0  0  0  0  0  0  0  0  0
  148.6066  137.8989  155.2850 H   0  0  0  0  0  0  0  0  0  0  0  0
  1  2  1  0  0  0  0
  1 20  1  0  0  0  0
  1 21  1  0  0  0  0
  1 22  1  0  0  0  0
  2  3  1  0  0  0  0
  2  9  1  0  0  0  0
  2 23  1  0  0  0  0
  3  4  1  0  0  0  0
  3 24  1  0  0  0  0
  3 25  1  0  0  0  0
  4  8  1  0  0  0  0
  4  5  1  0  0  0  0
  5  6  2  0  0  0  0
  5 26  1  0  0  0  0
  6  7  1  0  0  0  0
  6 27  1  0  0  0  0
  7  8  2  0  0  0  0
  7 28  1  0  0  0  0
  9 10  1  0  0  0  0
  9 29  1  0  0  0  0
 10 11  1  0  0  0  0
 10 12  1  0  0  0  0
 10 30  1  0  0  0  0
 11 31  1  0  0  0  0
 11 32  1  0  0  0  0
 11 33  1  0  0  0  0
 12 13  2  0  0  0  0
 12 14  1  0  0  0  0
 14 19  1  0  0  0  0
 14 15  1  0  0  0  0
 15 16  1  0  0  0  0
 15 34  1  0  0  0  0
 15 35  1  0  0  0  0
 16 17  1  0  0  0  0
 16 36  1  0  0  0  0
 16 37  1  0  0  0  0
 17 18  1  0  0  0  0
 18 19  1  0  0  0  0
 18 38  1  0  0  0  0
 18 39  1  0  0  0  0
 19 40  1  0  0  0  0
 19 41  1  0  0  0  0
M  END
> <s_m_source_file>
AV-unprocessed.smi

> <i_m_source_file_index>
3336

> <i_lp_mmshare_version>
43012

> <i_f3d_flags>
0

> <s_epik_input>
bjFbY0hdW2NIXVtjSF1uMVtDSDJdW0NAQEhdKFtDSDNdKVtOSF1bQ0BIXShbQ0gzXSlDKD1PKU4yW0NIMl1bQ0gyXU9bQ0gyXVtDSDJdMg==

> <s_epik_cmdline>
J2VwaWtfcHl0aG9uJywgJy1waCcsICc3LjAnLCAnLXRuJywgJzgnLCAnLW1hJywgJzIwMCcsICctbWV0YWxfYmluZGluZycsICctaW1hZScsICc8aW5maWxlLm1hZT4nLCAnLW9tYWUnLCAnPG91dGZpbGUubWFlPic=

> <r_lp_tautomer_probability>
1

> <r_epik_Ionization_Penalty>
0.739958

> <r_epik_Ionization_Penalty_Charging>
0

> <r_epik_Ionization_Penalty_Neutral>
0.739958

> <r_epik_State_Penalty>
0.765967

> <r_epik_Charging_Adjusted_Penalty>
0.765967

> <i_epik_Tot_Q>
0

> <i_epik_Tot_abs_Q>
0

> <r_epik_Metal_State_Penalty>
0.765947

> <b_epik_Metal_Only>
0

> <s_lp_Force_Field>
OPLS_2005

> <r_lp_Energy>
30.7433

> <b_lp_Chiralities_Consistent>
1

> <s_lp_Variant>
AV-unprocessed.smi:3336-6

> <Gold.Version>
5.8.1

> <Gold.Id.Protein>
6NUR|6NUR_protein|mol2

> <Gold.PLP.Fitness>
48.2430

> <Gold.PLP.PLP>
-31.9848

> <Gold.PLP.part.hbond>
-5.0000

> <Gold.PLP.part.metal>
0.0000

> <Gold.PLP.part.buried>
0.9931

> <Gold.PLP.part.nonpolar>
-29.2745

> <Gold.PLP.part.repulsive>
0.3582

> <Gold.PLP.ligand.clash>
0.0000

> <Gold.PLP.ligand.torsion>
0.8478

> <Gold.PLP.Chemscore.Hbond>
2.9701

> <Gold.PLP.Chemscore.CHOScore>
2.9840

> <Gold.PLP.Chemscore.Metal>
0.0000

> <Gold.Chemscore.Hbonds>
donor molecule, donor type, donor heavy atom, donor atom, acceptor molecule, acceptor atom, score
      L1  H     9    29       P1  7957  1.00
      P1  H  7989  7998       L1    13  0.27
      P1  H  8011  8017       L1    13  0.67
      P1  H 10752 10765       L1    17  0.99
      L1  C     5    26       P1 10171  1.00
      L1  C     5    26       P1 10175  0.96
      L1  C     7    28       P1 10957  1.00

> <Gold.PLP.Chemscore.Internal.Correction>
0.0915

> <Gold.Rescore>
     Score         DG    S(hbond)    S(metal)    S(lipo)     H(rot)  DE(clash)    DE(int)     intcor
     14.25     -15.74       2.06        0.00      68.14       1.79       0.56       0.93       ----

> <Gold.Chemscore.Fitness>
14.2513

> <Gold.Chemscore.DG>
-15.7373

> <Gold.Chemscore.ZeroCoef>
-5.4800

> <Gold.Chemscore.Hbond>
2.0586

> <Gold.Chemscore.Metal>
0.0000

> <Gold.Chemscore.Lipo>
68.1446

> <Gold.Chemscore.Internal_Hbond>
0.0000

> <Gold.Chemscore.DEClash>
0.5587

> <Gold.Chemscore.DEInternal>
0.9273

> <Gold.Chemscore.Rot>
1.7935

> <Gold.Chemscore.Internal.Correction>
   9.000000E+99

> <Gold.Chemscore.Hbonds>
donor molecule, donor type, donor heavy atom, donor atom, acceptor molecule, acceptor atom, score
      L1  H     9    29       P1  7957  0.96
      P1  H  7989  7998       L1    13  0.06
      P1  H  8011  8017       L1    13  0.62
      P1  H 10752 10765       L1    17  0.80

> <Gold.Chemscore.Hbond.Weighted>
-6.8756

> <Gold.Chemscore.Metal.Weighted>
-0.0000

> <Gold.Chemscore.Lipo.Weighted>
-7.9729

> <Gold.Chemscore.Internal_Hbond.Weighted>
0.0000

> <Gold.Chemscore.DEClash.Weighted>
0.5587

> <Gold.Chemscore.DEInternal.Weighted>
0.9273

> <Gold.Chemscore.Rot.Weighted>
4.5912

> <Gold.Chemscore.Internal.Correction.Weighted>
   9.000000E+99

> <Gold.Protein.RotatedTorsions>
[ 6907 6896 6895 6894 ] final  -93.98 input  -60.11 | X-H torsion
[ 7974 7965 7964 7962 ] final  106.78 input  175.53 | X-H torsion
[ 8008 7997 7996 7995 ] final -152.65 input   59.86 | X-H torsion
[ 10167 10162 10161 10158 ] final -140.73 input  -65.29 | X-H torsion
[ 10718 10713 10712 10709 ] final  126.44 input   66.30 | X-H torsion
[ 10763 10752 10751 10750 ] final  178.27 input  -60.55 | X-H torsion
[ 11005 11000 10999 10996 ] final  -76.78 input  -57.11 | X-H torsion

> <Gold.Protein.ActiveResidues>
 VAL166  LYS551  ARG553  GLY616  TRP617  ASP618  TYR619  PRO620  LYS621  CYS622 
 ASP623  PHE694  ASN695  SER759  ASP760  ASP761  ALA762  ILE779  LEU786  VAL792 
 PHE793  MET794  SER795  GLU796  ALA797  LYS798  CYS799  TRP800  GLU811  SER814 

> <Gold.Protein.RotatedAtoms>
  150.6933  134.1882  159.4274 H   0  0  0  0  0  0  0  0  0  0  0  0  # atno 6907 bound_to 6896
  151.9854  135.0004  160.0568 H   0  0  0  0  0  0  0  0  0  0  0  0  # atno 6908 bound_to 6896
  152.1716  133.4613  159.4949 H   0  0  0  0  0  0  0  0  0  0  0  0  # atno 6909 bound_to 6896
  145.3022  139.2566  143.3808 H   0  0  0  0  0  0  0  0  0  0  0  0  # atno 7974 bound_to 7965
  155.6584  140.0720  157.2562 H   0  0  0  0  0  0  0  0  0  0  0  0  # atno 8008 bound_to 7997
  154.4147  140.1720  156.1800 H   0  0  0  0  0  0  0  0  0  0  0  0  # atno 8009 bound_to 7997
  155.9718  140.3361  155.6585 H   0  0  0  0  0  0  0  0  0  0  0  0  # atno 8010 bound_to 7997
  139.8253  143.7519  152.2666 H   0  0  0  0  0  0  0  0  0  0  0  0  # atno 10167 bound_to 10162
  157.5419  131.1096  150.8845 H   0  0  0  0  0  0  0  0  0  0  0  0  # atno 10718 bound_to 10713
  154.5054  135.2786  155.1386 H   0  0  0  0  0  0  0  0  0  0  0  0  # atno 10763 bound_to 10752
  154.3003  135.6249  153.5425 H   0  0  0  0  0  0  0  0  0  0  0  0  # atno 10764 bound_to 10752
  152.9909  135.5695  154.5507 H   0  0  0  0  0  0  0  0  0  0  0  0  # atno 10765 bound_to 10752
  141.1656  133.6997  156.7721 H   0  0  0  0  0  0  0  0  0  0  0  0  # atno 11005 bound_to 11000
  146.3148  140.3539  142.8658 LP  0  0  0  0  0  0  0  0  0  0  0  0  # atno 17320 bound_to 7965
  144.9084  140.7727  143.5823 LP  0  0  0  0  0  0  0  0  0  0  0  0  # atno 17321 bound_to 7965
  139.7710  144.7476  151.0225 LP  0  0  0  0  0  0  0  0  0  0  0  0  # atno 17342 bound_to 10162
  140.7810  143.4645  151.0231 LP  0  0  0  0  0  0  0  0  0  0  0  0  # atno 17343 bound_to 10162
  156.9396  130.5379  149.5280 LP  0  0  0  0  0  0  0  0  0  0  0  0  # atno 17370 bound_to 10713
  156.0503  130.5574  150.8975 LP  0  0  0  0  0  0  0  0  0  0  0  0  # atno 17371 bound_to 10713
  140.2457  134.8579  157.3617 LP  0  0  0  0  0  0  0  0  0  0  0  0  # atno 17394 bound_to 11000
  140.1752  134.4558  155.7806 LP  0  0  0  0  0  0  0  0  0  0  0  0  # atno 17395 bound_to 11000

$$$$
