AV-unprocessed.smi:234|AV-procd|sdf|1795|dock8
  -GOLD-   2262020363D 1   1.00000     0.00000
 Structure written by MMmdl.
 59 62  0  0  0  0  0  0  0  0  1 V2000
  147.4366  127.8977  151.2543 C   0  0  0  0  0  0  0  0  0  0  0  0
  146.2373  128.3801  152.0805 C   0  0  0  0  0  0  0  0  0  0  0  0
  145.7868  129.6687  151.6842 O   0  0  0  0  0  0  0  0  0  0  0  0
  146.5227  130.7561  152.2301 C   0  0  2  0  0  0  0  0  0  0  0  0
  146.1983  131.0989  153.6871 C   0  0  0  0  0  0  0  0  0  0  0  0
  146.3512  132.5605  153.2599 C   0  0  2  0  0  0  0  0  0  0  0  0
  145.4232  133.4692  153.9373 N   0  0  0  0  0  0  0  0  0  0  0  0
  145.3310  133.3419  155.3859 C   0  0  0  0  0  0  0  0  0  0  0  0
  145.5126  134.7711  153.5788 C   0  0  0  0  0  0  0  0  0  0  0  0
  144.9863  135.1957  152.3992 N   0  0  0  0  0  0  0  0  0  0  0  0
  145.0677  136.4848  152.0570 C   0  0  0  0  0  0  0  0  0  0  0  0
  145.6214  137.4944  152.7323 N   0  0  0  0  0  0  0  0  0  0  0  0
  146.1588  137.0673  153.9112 C   0  0  0  0  0  0  0  0  0  0  0  0
  146.1576  135.7321  154.4009 C   0  0  0  0  0  0  0  0  0  0  0  0
  146.7991  135.6723  155.6310 N   0  0  0  0  0  0  0  0  0  0  0  0
  147.1544  136.9070  155.8604 C   0  0  0  0  0  0  0  0  0  0  0  0
  146.7953  137.8137  154.8875 N   0  0  0  0  0  0  0  0  0  0  0  0
  147.0403  139.2475  154.9005 C   0  0  0  0  0  0  0  0  0  0  0  0
  148.3576  139.6518  154.1937 C   0  0  1  0  0  0  0  0  0  0  0  0
  148.3932  139.0193  152.9251 O   0  0  0  0  0  0  0  0  0  0  0  0
  148.4545  141.1654  153.9746 C   0  0  0  0  0  0  0  0  0  0  0  0
  149.5925  141.6014  154.8902 C   0  0  0  0  0  0  0  0  0  0  0  0
  150.4516  140.4757  154.8880 O   0  0  0  0  0  0  0  0  0  0  0  0
  149.6283  139.3271  155.0228 C   0  0  2  0  0  0  0  0  0  0  0  0
  150.4077  138.0550  154.6488 C   0  0  0  0  0  0  0  0  0  0  0  0
  145.9408  132.1334  151.8201 C   0  0  0  0  0  0  0  0  0  0  0  0
  146.6690  132.8306  150.6706 C   0  0  0  0  0  0  0  0  0  0  0  0
  144.4401  132.1404  151.4716 C   0  0  0  0  0  0  0  0  0  0  0  0
  147.8371  126.9709  151.6649 H   0  0  0  0  0  0  0  0  0  0  0  0
  148.2378  128.6371  151.2588 H   0  0  0  0  0  0  0  0  0  0  0  0
  147.1627  127.7004  150.2191 H   0  0  0  0  0  0  0  0  0  0  0  0
  145.4228  127.6550  152.0510 H   0  0  0  0  0  0  0  0  0  0  0  0
  146.5428  128.4546  153.1243 H   0  0  0  0  0  0  0  0  0  0  0  0
  147.5967  130.6965  152.0368 H   0  0  0  0  0  0  0  0  0  0  0  0
  145.1844  130.8233  153.9825 H   0  0  0  0  0  0  0  0  0  0  0  0
  146.9389  130.7641  154.4134 H   0  0  0  0  0  0  0  0  0  0  0  0
  147.3952  132.8769  153.3152 H   0  0  0  0  0  0  0  0  0  0  0  0
  146.2952  133.5479  155.8520 H   0  0  0  0  0  0  0  0  0  0  0  0
  145.0279  132.3324  155.6632 H   0  0  0  0  0  0  0  0  0  0  0  0
  144.5948  134.0319  155.8006 H   0  0  0  0  0  0  0  0  0  0  0  0
  144.6223  136.7449  151.1082 H   0  0  0  0  0  0  0  0  0  0  0  0
  147.6794  137.1954  156.7595 H   0  0  0  0  0  0  0  0  0  0  0  0
  146.1891  139.7442  154.4326 H   0  0  0  0  0  0  0  0  0  0  0  0
  147.0547  139.5822  155.9384 H   0  0  0  0  0  0  0  0  0  0  0  0
  149.1901  139.2767  152.4871 H   0  0  0  0  0  0  0  0  0  0  0  0
  148.7217  141.3986  152.9425 H   0  0  0  0  0  0  0  0  0  0  0  0
  147.5281  141.6962  154.1960 H   0  0  0  0  0  0  0  0  0  0  0  0
  150.1001  142.4981  154.5346 H   0  0  0  0  0  0  0  0  0  0  0  0
  149.2305  141.7864  155.9028 H   0  0  0  0  0  0  0  0  0  0  0  0
  149.3634  139.2715  156.0794 H   0  0  0  0  0  0  0  0  0  0  0  0
  149.7803  137.1672  154.7307 H   0  0  0  0  0  0  0  0  0  0  0  0
  151.2597  137.9171  155.3144 H   0  0  0  0  0  0  0  0  0  0  0  0
  150.7935  138.1037  153.6305 H   0  0  0  0  0  0  0  0  0  0  0  0
  146.2706  133.8285  150.4853 H   0  0  0  0  0  0  0  0  0  0  0  0
  146.5796  132.2646  149.7430 H   0  0  0  0  0  0  0  0  0  0  0  0
  147.7327  132.9426  150.8812 H   0  0  0  0  0  0  0  0  0  0  0  0
  144.0701  133.1497  151.2914 H   0  0  0  0  0  0  0  0  0  0  0  0
  143.8296  131.7127  152.2668 H   0  0  0  0  0  0  0  0  0  0  0  0
  144.2396  131.5630  150.5688 H   0  0  0  0  0  0  0  0  0  0  0  0
  1  2  1  0  0  0  0
  1 29  1  0  0  0  0
  1 30  1  0  0  0  0
  1 31  1  0  0  0  0
  2  3  1  0  0  0  0
  2 32  1  0  0  0  0
  2 33  1  0  0  0  0
  3  4  1  0  0  0  0
  4 26  1  0  0  0  0
  4  5  1  0  0  0  0
  4 34  1  0  0  0  0
  5  6  1  0  0  0  0
  5 35  1  0  0  0  0
  5 36  1  0  0  0  0
  6  7  1  0  0  0  0
  6 26  1  0  0  0  0
  6 37  1  0  0  0  0
  7  8  1  0  0  0  0
  7  9  1  0  0  0  0
  8 38  1  0  0  0  0
  8 39  1  0  0  0  0
  8 40  1  0  0  0  0
  9 14  1  0  0  0  0
  9 10  2  0  0  0  0
 10 11  1  0  0  0  0
 11 12  2  0  0  0  0
 11 41  1  0  0  0  0
 12 13  1  0  0  0  0
 13 17  1  0  0  0  0
 13 14  2  0  0  0  0
 14 15  1  0  0  0  0
 15 16  2  0  0  0  0
 16 17  1  0  0  0  0
 16 42  1  0  0  0  0
 17 18  1  0  0  0  0
 18 19  1  0  0  0  0
 18 43  1  0  0  0  0
 18 44  1  0  0  0  0
 19 24  1  0  0  0  0
 19 20  1  0  0  0  0
 19 21  1  0  0  0  0
 20 45  1  0  0  0  0
 21 22  1  0  0  0  0
 21 46  1  0  0  0  0
 21 47  1  0  0  0  0
 22 23  1  0  0  0  0
 22 48  1  0  0  0  0
 22 49  1  0  0  0  0
 23 24  1  0  0  0  0
 24 25  1  0  0  0  0
 24 50  1  0  0  0  0
 25 51  1  0  0  0  0
 25 52  1  0  0  0  0
 25 53  1  0  0  0  0
 26 27  1  0  0  0  0
 26 28  1  0  0  0  0
 27 54  1  0  0  0  0
 27 55  1  0  0  0  0
 27 56  1  0  0  0  0
 28 57  1  0  0  0  0
 28 58  1  0  0  0  0
 28 59  1  0  0  0  0
M  END
> <s_m_source_file>
AV-unprocessed.smi

> <i_m_source_file_index>
234

> <i_lp_mmshare_version>
43012

> <i_f3d_flags>
0

> <s_epik_input>
W0NIM11bQ0gyXU9bQ0BASF0oQzEoW0NIM10pW0NIM10pW0NIMl1bQ0BIXTFOKFtDSDNdKWMobltjSF1uMiljKGMyMyluW2NIXW4zW0NIMl1bQ0BAXTQoW09IXSlbQ0gyXVtDSDJdT1tDQEhdNFtDSDNd

> <s_epik_cmdline>
J2VwaWtfcHl0aG9uJywgJy1waCcsICc3LjAnLCAnLXRuJywgJzgnLCAnLW1hJywgJzIwMCcsICctbWV0YWxfYmluZGluZycsICctaW1hZScsICc8aW5maWxlLm1hZT4nLCAnLW9tYWUnLCAnPG91dGZpbGUubWFlPic=

> <r_lp_tautomer_probability>
1

> <r_epik_Ionization_Penalty>
0.00349132

> <r_epik_Ionization_Penalty_Charging>
0

> <r_epik_Ionization_Penalty_Neutral>
0.00349132

> <r_epik_State_Penalty>
0.00242418

> <r_epik_Charging_Adjusted_Penalty>
0.00242418

> <i_epik_Tot_Q>
0

> <i_epik_Tot_abs_Q>
0

> <r_epik_Metal_State_Penalty>
-0

> <b_epik_Metal_Only>
0

> <s_lp_Force_Field>
OPLS_2005

> <r_lp_Energy>
47.8509

> <b_lp_Chiralities_Consistent>
1

> <s_lp_Variant>
AV-unprocessed.smi:234-11

> <Gold.Version>
5.8.1

> <Gold.Id.Protein>
6NUR|6NUR_protein|mol2

> <Gold.PLP.Fitness>
41.3150

> <Gold.PLP.PLP>
-36.1281

> <Gold.PLP.part.hbond>
-2.5652

> <Gold.PLP.part.metal>
0.0000

> <Gold.PLP.part.buried>
-3.4213

> <Gold.PLP.part.nonpolar>
-31.1947

> <Gold.PLP.part.repulsive>
0.6629

> <Gold.PLP.ligand.clash>
1.2964

> <Gold.PLP.ligand.torsion>
1.5881

> <Gold.PLP.Chemscore.Hbond>
1.9760

> <Gold.PLP.Chemscore.CHOScore>
1.0000

> <Gold.PLP.Chemscore.Metal>
0.0000

> <Gold.Chemscore.Hbonds>
donor molecule, donor type, donor heavy atom, donor atom, acceptor molecule, acceptor atom, score
      L1  H    20    45       P1  7957  0.75
      P1  H  7989  7998       L1    23  1.00
      L1  C    11    41       P1 10171  1.00

> <Gold.PLP.Chemscore.Internal.Correction>
0.7314

> <Gold.Rescore>
     Score         DG    S(hbond)    S(metal)    S(lipo)     H(rot)  DE(clash)    DE(int)     intcor
     13.36     -16.34       1.75        0.00     100.21       2.62       0.05       2.93       ----

> <Gold.Chemscore.Fitness>
13.3606

> <Gold.Chemscore.DG>
-16.3370

> <Gold.Chemscore.ZeroCoef>
-5.4800

> <Gold.Chemscore.Hbond>
1.7499

> <Gold.Chemscore.Metal>
0.0000

> <Gold.Chemscore.Lipo>
100.2076

> <Gold.Chemscore.Internal_Hbond>
0.0000

> <Gold.Chemscore.DEClash>
0.0459

> <Gold.Chemscore.DEInternal>
2.9305

> <Gold.Chemscore.Rot>
2.6219

> <Gold.Chemscore.Internal.Correction>
   9.000000E+99

> <Gold.Chemscore.Hbonds>
donor molecule, donor type, donor heavy atom, donor atom, acceptor molecule, acceptor atom, score
      L1  H    20    45       P1  7957  0.74
      P1  H  7989  7998       L1    23  0.33

> <Gold.Chemscore.Hbond.Weighted>
-5.8448

> <Gold.Chemscore.Metal.Weighted>
-0.0000

> <Gold.Chemscore.Lipo.Weighted>
-11.7243

> <Gold.Chemscore.Internal_Hbond.Weighted>
0.0000

> <Gold.Chemscore.DEClash.Weighted>
0.0459

> <Gold.Chemscore.DEInternal.Weighted>
2.9305

> <Gold.Chemscore.Rot.Weighted>
6.7121

> <Gold.Chemscore.Internal.Correction.Weighted>
   9.000000E+99

> <Gold.Protein.RotatedTorsions>
[ 6907 6896 6895 6894 ] final -153.28 input  -60.11 | X-H torsion
[ 7974 7965 7964 7962 ] final  175.82 input  175.53 | X-H torsion
[ 8008 7997 7996 7995 ] final  177.23 input   59.86 | X-H torsion
[ 10167 10162 10161 10158 ] final -146.37 input  -65.29 | X-H torsion
[ 10718 10713 10712 10709 ] final -112.61 input   66.30 | X-H torsion
[ 10763 10752 10751 10750 ] final  164.13 input  -60.55 | X-H torsion
[ 11005 11000 10999 10996 ] final  -56.71 input  -57.11 | X-H torsion

> <Gold.Protein.ActiveResidues>
 VAL166  LYS551  ARG553  GLY616  TRP617  ASP618  TYR619  PRO620  LYS621  CYS622 
 ASP623  PHE694  ASN695  SER759  ASP760  ASP761  ALA762  ILE779  LEU786  VAL792 
 PHE793  MET794  SER795  GLU796  ALA797  LYS798  CYS799  TRP800  GLU811  SER814 

> <Gold.Protein.RotatedAtoms>
  151.2403  133.4403  159.2606 H   0  0  0  0  0  0  0  0  0  0  0  0  # atno 6907 bound_to 6896
  151.0712  134.9799  159.8319 H   0  0  0  0  0  0  0  0  0  0  0  0  # atno 6908 bound_to 6896
  152.5412  134.2348  159.8892 H   0  0  0  0  0  0  0  0  0  0  0  0  # atno 6909 bound_to 6896
  144.7195  140.0005  143.6440 H   0  0  0  0  0  0  0  0  0  0  0  0  # atno 7974 bound_to 7965
  156.0679  140.1363  156.9864 H   0  0  0  0  0  0  0  0  0  0  0  0  # atno 8008 bound_to 7997
  154.4516  140.0978  156.6686 H   0  0  0  0  0  0  0  0  0  0  0  0  # atno 8009 bound_to 7997
  155.5275  140.3458  155.4421 H   0  0  0  0  0  0  0  0  0  0  0  0  # atno 8010 bound_to 7997
  139.7719  143.8225  152.2626 H   0  0  0  0  0  0  0  0  0  0  0  0  # atno 10167 bound_to 10162
  156.0716  130.5929  150.8532 H   0  0  0  0  0  0  0  0  0  0  0  0  # atno 10718 bound_to 10713
  154.3042  135.2758  155.2596 H   0  0  0  0  0  0  0  0  0  0  0  0  # atno 10763 bound_to 10752
  154.5020  135.5805  153.6541 H   0  0  0  0  0  0  0  0  0  0  0  0  # atno 10764 bound_to 10752
  152.9896  135.6160  154.3215 H   0  0  0  0  0  0  0  0  0  0  0  0  # atno 10765 bound_to 10752
  141.1132  133.6610  156.4661 H   0  0  0  0  0  0  0  0  0  0  0  0  # atno 11005 bound_to 11000
  146.0339  139.3360  143.0738 LP  0  0  0  0  0  0  0  0  0  0  0  0  # atno 17320 bound_to 7965
  145.8418  140.9576  143.0795 LP  0  0  0  0  0  0  0  0  0  0  0  0  # atno 17321 bound_to 7965
  139.8262  144.7274  150.9509 LP  0  0  0  0  0  0  0  0  0  0  0  0  # atno 17342 bound_to 10162
  140.7814  143.4113  151.0989 LP  0  0  0  0  0  0  0  0  0  0  0  0  # atno 17343 bound_to 10162
  157.5790  131.0946  150.9301 LP  0  0  0  0  0  0  0  0  0  0  0  0  # atno 17370 bound_to 10713
  156.9501  130.5416  149.5282 LP  0  0  0  0  0  0  0  0  0  0  0  0  # atno 17371 bound_to 10713
  140.4717  134.6747  157.5132 LP  0  0  0  0  0  0  0  0  0  0  0  0  # atno 17394 bound_to 11000
  140.0039  134.6794  155.9487 LP  0  0  0  0  0  0  0  0  0  0  0  0  # atno 17395 bound_to 11000

$$$$
