AV-unprocessed.smi:713|AV-procd|sdf|3481|dock6
  -GOLD-   22720 0473D 1   1.00000     0.00000
 Structure written by MMmdl.
 41 42  0  0  0  0  0  0  0  0  1 V2000
  151.9304  144.3449  157.7087 C   0  0  0  0  0  0  0  0  0  0  0  0
  151.1507  143.3667  158.6113 C   0  0  1  0  0  0  0  0  0  0  0  0
  150.6842  142.1006  157.8699 C   0  0  0  0  0  0  0  0  0  0  0  0
  151.1104  140.9892  158.1868 O   0  0  0  0  0  0  0  0  0  0  0  0
  149.8137  142.2882  156.8645 N   0  0  0  0  0  0  0  0  0  0  0  0
  149.2402  141.2361  156.0328 C   0  0  1  0  0  0  0  0  0  0  0  0
  148.3898  141.8753  154.9205 C   0  0  0  0  0  0  0  0  0  0  0  0
  147.8052  140.8186  153.9708 C   0  0  0  0  0  0  0  0  0  0  0  0
  148.9026  139.9070  153.3925 C   0  0  0  0  0  0  0  0  0  0  0  0
  149.8198  139.2806  154.4679 C   0  0  2  0  0  0  0  0  0  0  0  0
  149.0229  137.8854  155.4068 S   0  0  0  0  0  0  0  0  0  0  0  0
  150.1540  136.4754  155.0589 C   0  0  0  0  0  0  0  0  0  0  0  0
  149.1070  138.1959  156.8418 O   0  0  0  0  0  0  0  0  0  0  0  0
  147.7160  137.5619  154.8165 O   0  0  0  0  0  0  0  0  0  0  0  0
  150.3577  140.3615  155.4268 C   0  0  0  0  0  0  0  0  0  0  0  0
  151.9040  143.0201  159.8126 N   0  0  0  0  0  0  0  0  0  0  0  0
  153.0472  142.2521  159.9049 C   0  0  0  0  0  0  0  0  0  0  0  0
  153.4218  142.2288  161.2174 C   0  0  0  0  0  0  0  0  0  0  0  0
  152.4382  143.0276  161.8636 C   0  0  0  0  0  0  0  0  0  0  0  0
  151.5363  143.5045  161.0218 N   0  0  0  0  0  0  0  0  0  0  0  0
  151.3287  144.6602  156.8555 H   0  0  0  0  0  0  0  0  0  0  0  0
  152.8472  143.8992  157.3206 H   0  0  0  0  0  0  0  0  0  0  0  0
  152.2081  145.2436  158.2602 H   0  0  0  0  0  0  0  0  0  0  0  0
  150.2468  143.8825  158.9389 H   0  0  0  0  0  0  0  0  0  0  0  0
  149.5144  143.2326  156.6711 H   0  0  0  0  0  0  0  0  0  0  0  0
  148.5869  140.6195  156.6516 H   0  0  0  0  0  0  0  0  0  0  0  0
  147.5805  142.4610  155.3586 H   0  0  0  0  0  0  0  0  0  0  0  0
  149.0000  142.5740  154.3460 H   0  0  0  0  0  0  0  0  0  0  0  0
  147.0517  140.2310  154.4917 H   0  0  0  0  0  0  0  0  0  0  0  0
  147.2781  141.3142  153.1554 H   0  0  0  0  0  0  0  0  0  0  0  0
  148.4548  139.1363  152.7668 H   0  0  0  0  0  0  0  0  0  0  0  0
  149.5215  140.5043  152.7221 H   0  0  0  0  0  0  0  0  0  0  0  0
  150.6754  138.8307  153.9635 H   0  0  0  0  0  0  0  0  0  0  0  0
  149.8510  135.6174  155.6587 H   0  0  0  0  0  0  0  0  0  0  0  0
  151.1754  136.7519  155.3183 H   0  0  0  0  0  0  0  0  0  0  0  0
  150.1025  136.2057  154.0050 H   0  0  0  0  0  0  0  0  0  0  0  0
  151.0512  141.0006  154.8787 H   0  0  0  0  0  0  0  0  0  0  0  0
  150.9445  139.8951  156.2192 H   0  0  0  0  0  0  0  0  0  0  0  0
  153.4958  141.7918  159.0368 H   0  0  0  0  0  0  0  0  0  0  0  0
  154.2711  141.7210  161.6498 H   0  0  0  0  0  0  0  0  0  0  0  0
  152.3556  143.2770  162.9111 H   0  0  0  0  0  0  0  0  0  0  0  0
  1  2  1  0  0  0  0
  1 21  1  0  0  0  0
  1 22  1  0  0  0  0
  1 23  1  0  0  0  0
  2  3  1  0  0  0  0
  2 16  1  0  0  0  0
  2 24  1  0  0  0  0
  3  4  2  0  0  0  0
  3  5  1  0  0  0  0
  5  6  1  0  0  0  0
  5 25  1  0  0  0  0
  6 15  1  0  0  0  0
  6  7  1  0  0  0  0
  6 26  1  0  0  0  0
  7  8  1  0  0  0  0
  7 27  1  0  0  0  0
  7 28  1  0  0  0  0
  8  9  1  0  0  0  0
  8 29  1  0  0  0  0
  8 30  1  0  0  0  0
  9 10  1  0  0  0  0
  9 31  1  0  0  0  0
  9 32  1  0  0  0  0
 10 11  1  0  0  0  0
 10 15  1  0  0  0  0
 10 33  1  0  0  0  0
 11 12  1  0  0  0  0
 11 13  2  0  0  0  0
 11 14  2  0  0  0  0
 12 34  1  0  0  0  0
 12 35  1  0  0  0  0
 12 36  1  0  0  0  0
 15 37  1  0  0  0  0
 15 38  1  0  0  0  0
 16 20  1  0  0  0  0
 16 17  1  0  0  0  0
 17 18  2  0  0  0  0
 17 39  1  0  0  0  0
 18 19  1  0  0  0  0
 18 40  1  0  0  0  0
 19 20  2  0  0  0  0
 19 41  1  0  0  0  0
M  END
> <s_m_source_file>
AV-unprocessed.smi

> <i_m_source_file_index>
713

> <i_lp_mmshare_version>
43012

> <i_f3d_flags>
0

> <s_epik_input>
bjFbY0hdW2NIXVtjSF1uMVtDQEhdKFtDSDNdKUMoPU8pW05IXVtDQEBIXTJbQ0gyXVtDSDJdW0NIMl1bQ0BIXShbQ0gyXTIpUyg9TykoPU8pW0NIM10=

> <s_epik_cmdline>
J2VwaWtfcHl0aG9uJywgJy1waCcsICc3LjAnLCAnLXRuJywgJzgnLCAnLW1hJywgJzIwMCcsICctbWV0YWxfYmluZGluZycsICctaW1hZScsICc8aW5maWxlLm1hZT4nLCAnLW9tYWUnLCAnPG91dGZpbGUubWFlPic=

> <r_lp_tautomer_probability>
1

> <r_epik_Ionization_Penalty>
4.07816e-05

> <r_epik_Ionization_Penalty_Charging>
0

> <r_epik_Ionization_Penalty_Neutral>
4.07816e-05

> <r_epik_State_Penalty>
-0

> <r_epik_Charging_Adjusted_Penalty>
0

> <i_epik_Tot_Q>
0

> <i_epik_Tot_abs_Q>
0

> <r_epik_Metal_State_Penalty>
-0

> <b_epik_Metal_Only>
0

> <s_lp_Force_Field>
OPLS_2005

> <r_lp_Energy>
4.31355

> <b_lp_Chiralities_Consistent>
1

> <s_lp_Variant>
AV-unprocessed.smi:713-8

> <Gold.Version>
5.8.1

> <Gold.Id.Protein>
6NUR|6NUR_protein|mol2

> <Gold.PLP.Fitness>
41.6333

> <Gold.PLP.PLP>
-39.1198

> <Gold.PLP.part.hbond>
-1.4209

> <Gold.PLP.part.metal>
0.0000

> <Gold.PLP.part.buried>
1.3837

> <Gold.PLP.part.nonpolar>
-38.8680

> <Gold.PLP.part.repulsive>
0.2427

> <Gold.PLP.ligand.clash>
0.0000

> <Gold.PLP.ligand.torsion>
0.3942

> <Gold.PLP.Chemscore.Hbond>
1.0000

> <Gold.PLP.Chemscore.CHOScore>
0.0000

> <Gold.PLP.Chemscore.Metal>
0.0000

> <Gold.Chemscore.Hbonds>
donor molecule, donor type, donor heavy atom, donor atom, acceptor molecule, acceptor atom, score
      L1  H     5    25       P1  8028  1.00

> <Gold.PLP.Chemscore.Internal.Correction>
0.3020

> <Gold.Rescore>
     Score         DG    S(hbond)    S(metal)    S(lipo)     H(rot)  DE(clash)    DE(int)     intcor
     12.66     -16.79       1.00        0.00     105.82       1.72       1.59       2.53       ----

> <Gold.Chemscore.Fitness>
12.6614

> <Gold.Chemscore.DG>
-16.7851

> <Gold.Chemscore.ZeroCoef>
-5.4800

> <Gold.Chemscore.Hbond>
0.9999

> <Gold.Chemscore.Metal>
0.0000

> <Gold.Chemscore.Lipo>
105.8210

> <Gold.Chemscore.Internal_Hbond>
0.0000

> <Gold.Chemscore.DEClash>
1.5889

> <Gold.Chemscore.DEInternal>
2.5348

> <Gold.Chemscore.Rot>
1.7249

> <Gold.Chemscore.Internal.Correction>
   9.000000E+99

> <Gold.Chemscore.Hbonds>
donor molecule, donor type, donor heavy atom, donor atom, acceptor molecule, acceptor atom, score
      L1  H     5    25       P1  8028  0.99

> <Gold.Chemscore.Hbond.Weighted>
-3.3398

> <Gold.Chemscore.Metal.Weighted>
-0.0000

> <Gold.Chemscore.Lipo.Weighted>
-12.3811

> <Gold.Chemscore.Internal_Hbond.Weighted>
0.0000

> <Gold.Chemscore.DEClash.Weighted>
1.5889

> <Gold.Chemscore.DEInternal.Weighted>
2.5348

> <Gold.Chemscore.Rot.Weighted>
4.4157

> <Gold.Chemscore.Internal.Correction.Weighted>
   9.000000E+99

> <Gold.Protein.RotatedTorsions>
[ 6907 6896 6895 6894 ] final  161.25 input  -60.11 | X-H torsion
[ 7974 7965 7964 7962 ] final  -28.92 input  175.53 | X-H torsion
[ 8008 7997 7996 7995 ] final -127.89 input   59.86 | X-H torsion
[ 10167 10162 10161 10158 ] final  177.92 input  -65.29 | X-H torsion
[ 10718 10713 10712 10709 ] final  145.60 input   66.30 | X-H torsion
[ 10763 10752 10751 10750 ] final  144.05 input  -60.55 | X-H torsion
[ 11005 11000 10999 10996 ] final  126.75 input  -57.11 | X-H torsion

> <Gold.Protein.ActiveResidues>
 VAL166  LYS551  ARG553  GLY616  TRP617  ASP618  TYR619  PRO620  LYS621  CYS622 
 ASP623  PHE694  ASN695  SER759  ASP760  ASP761  ALA762  ILE779  LEU786  VAL792 
 PHE793  MET794  SER795  GLU796  ALA797  LYS798  CYS799  TRP800  GLU811  SER814 

> <Gold.Protein.RotatedAtoms>
  151.9585  133.3688  159.4026 H   0  0  0  0  0  0  0  0  0  0  0  0  # atno 6907 bound_to 6896
  150.6968  134.4266  159.5238 H   0  0  0  0  0  0  0  0  0  0  0  0  # atno 6908 bound_to 6896
  152.1950  134.8638  160.0564 H   0  0  0  0  0  0  0  0  0  0  0  0  # atno 6909 bound_to 6896
  146.1253  140.5346  142.8717 H   0  0  0  0  0  0  0  0  0  0  0  0  # atno 7974 bound_to 7965
  155.2536  140.0433  157.2989 H   0  0  0  0  0  0  0  0  0  0  0  0  # atno 8008 bound_to 7997
  154.5754  140.2385  155.8100 H   0  0  0  0  0  0  0  0  0  0  0  0  # atno 8009 bound_to 7997
  156.2154  140.2986  155.9834 H   0  0  0  0  0  0  0  0  0  0  0  0  # atno 8010 bound_to 7997
  139.5272  144.2742  152.0602 H   0  0  0  0  0  0  0  0  0  0  0  0  # atno 10167 bound_to 10162
  157.3433  131.0939  151.1063 H   0  0  0  0  0  0  0  0  0  0  0  0  # atno 10718 bound_to 10713
  153.9824  135.2940  155.3419 H   0  0  0  0  0  0  0  0  0  0  0  0  # atno 10763 bound_to 10752
  154.7261  135.5088  153.8892 H   0  0  0  0  0  0  0  0  0  0  0  0  # atno 10764 bound_to 10752
  153.0848  135.6690  154.0086 H   0  0  0  0  0  0  0  0  0  0  0  0  # atno 10765 bound_to 10752
  139.9472  134.9628  156.8753 H   0  0  0  0  0  0  0  0  0  0  0  0  # atno 11005 bound_to 11000
  144.7637  140.5480  143.6718 LP  0  0  0  0  0  0  0  0  0  0  0  0  # atno 17320 bound_to 7965
  145.5378  139.1475  143.3464 LP  0  0  0  0  0  0  0  0  0  0  0  0  # atno 17321 bound_to 7965
  140.2200  144.4476  150.6346 LP  0  0  0  0  0  0  0  0  0  0  0  0  # atno 17342 bound_to 10162
  140.6425  143.2206  151.6259 LP  0  0  0  0  0  0  0  0  0  0  0  0  # atno 17343 bound_to 10162
  157.2267  130.6506  149.5833 LP  0  0  0  0  0  0  0  0  0  0  0  0  # atno 17370 bound_to 10713
  155.9711  130.4612  150.6100 LP  0  0  0  0  0  0  0  0  0  0  0  0  # atno 17371 bound_to 10713
  140.5806  134.0355  155.7463 LP  0  0  0  0  0  0  0  0  0  0  0  0  # atno 17394 bound_to 11000
  141.1125  133.9593  157.2883 LP  0  0  0  0  0  0  0  0  0  0  0  0  # atno 17395 bound_to 11000

$$$$
