AV-unprocessed.smi:3322|AV-procd|sdf|12773|dock7
  -GOLD-   2272019113D 1   1.00000     0.00000
 Structure written by MMmdl.
 39 40  0  0  0  0  0  0  0  0  2 V2000
  147.7502  132.0095  154.0957 C   0  0  0  0  0  0  0  0  0  0  0  0
  147.7428  133.2312  153.1613 C   0  0  2  0  0  0  0  0  0  0  0  0
  148.4563  134.3507  153.8215 N   0  3  0  0  0  0  0  0  0  0  0  0
  149.7897  134.0135  154.3640 C   0  0  0  0  0  0  0  0  0  0  0  0
  150.1196  134.8788  155.5882 C   0  0  0  0  0  0  0  0  0  0  0  0
  150.6753  136.1616  155.2035 N   0  0  0  0  0  0  0  0  0  0  0  0
  150.1680  137.0859  154.3145 C   0  0  0  0  0  0  0  0  0  0  0  0
  151.0382  138.1378  154.2825 C   0  0  0  0  0  0  0  0  0  0  0  0
  152.0586  137.7609  155.1998 C   0  0  0  0  0  0  0  0  0  0  0  0
  151.8378  136.5777  155.7504 N   0  0  0  0  0  0  0  0  0  0  0  0
  146.2924  133.6126  152.7909 C   0  0  0  0  0  0  0  0  0  0  0  0
  145.5596  134.0353  153.6875 O   0  0  0  0  0  0  0  0  0  0  0  0
  145.8526  133.4727  151.5147 N   0  0  0  0  0  0  0  0  0  0  0  0
  146.5937  132.8986  150.3850 C   0  0  0  0  0  0  0  0  0  0  0  0
  145.8502  131.6414  149.8970 C   0  0  0  0  0  0  0  0  0  0  0  0
  144.5134  131.9781  149.5379 O   0  0  0  0  0  0  0  0  0  0  0  0
  143.7768  132.5503  150.6144 C   0  0  0  0  0  0  0  0  0  0  0  0
  144.4888  133.8241  151.1019 C   0  0  0  0  0  0  0  0  0  0  0  0
  147.2665  131.1459  153.6394 H   0  0  0  0  0  0  0  0  0  0  0  0
  147.2319  132.2203  155.0323 H   0  0  0  0  0  0  0  0  0  0  0  0
  148.7701  131.7140  154.3428 H   0  0  0  0  0  0  0  0  0  0  0  0
  148.3130  132.9960  152.2632 H   0  0  0  0  0  0  0  0  0  0  0  0
  148.5514  135.1039  153.1550 H   0  0  0  0  0  0  0  0  0  0  0  0
  149.8068  132.9571  154.6360 H   0  0  0  0  0  0  0  0  0  0  0  0
  150.5497  134.1604  153.5957 H   0  0  0  0  0  0  0  0  0  0  0  0
  149.2214  135.0542  156.1821 H   0  0  0  0  0  0  0  0  0  0  0  0
  150.8354  134.3715  156.2368 H   0  0  0  0  0  0  0  0  0  0  0  0
  149.2419  136.9211  153.7835 H   0  0  0  0  0  0  0  0  0  0  0  0
  150.9576  139.0399  153.6944 H   0  0  0  0  0  0  0  0  0  0  0  0
  152.9467  138.3079  155.4803 H   0  0  0  0  0  0  0  0  0  0  0  0
  146.6489  133.6355  149.5822 H   0  0  0  0  0  0  0  0  0  0  0  0
  147.6220  132.6300  150.6129 H   0  0  0  0  0  0  0  0  0  0  0  0
  146.3529  131.2203  149.0262 H   0  0  0  0  0  0  0  0  0  0  0  0
  145.8447  130.8687  150.6672 H   0  0  0  0  0  0  0  0  0  0  0  0
  142.7712  132.7890  150.2669 H   0  0  0  0  0  0  0  0  0  0  0  0
  143.6729  131.8261  151.4241 H   0  0  0  0  0  0  0  0  0  0  0  0
  143.9041  134.2866  151.8979 H   0  0  0  0  0  0  0  0  0  0  0  0
  144.5336  134.5593  150.2970 H   0  0  0  0  0  0  0  0  0  0  0  0
  147.8879  134.6717  154.5921 H   0  0  0  0  0  0  0  0  0  0  0  0
  1  2  1  0  0  0  0
  1 19  1  0  0  0  0
  1 20  1  0  0  0  0
  1 21  1  0  0  0  0
  2  3  1  0  0  0  0
  2 11  1  0  0  0  0
  2 22  1  0  0  0  0
  3  4  1  0  0  0  0
  3 23  1  0  0  0  0
  3 39  1  0  0  0  0
  4  5  1  0  0  0  0
  4 24  1  0  0  0  0
  4 25  1  0  0  0  0
  5  6  1  0  0  0  0
  5 26  1  0  0  0  0
  5 27  1  0  0  0  0
  6 10  1  0  0  0  0
  6  7  1  0  0  0  0
  7  8  2  0  0  0  0
  7 28  1  0  0  0  0
  8  9  1  0  0  0  0
  8 29  1  0  0  0  0
  9 10  2  0  0  0  0
  9 30  1  0  0  0  0
 11 12  2  0  0  0  0
 11 13  1  0  0  0  0
 13 18  1  0  0  0  0
 13 14  1  0  0  0  0
 14 15  1  0  0  0  0
 14 31  1  0  0  0  0
 14 32  1  0  0  0  0
 15 16  1  0  0  0  0
 15 33  1  0  0  0  0
 15 34  1  0  0  0  0
 16 17  1  0  0  0  0
 17 18  1  0  0  0  0
 17 35  1  0  0  0  0
 17 36  1  0  0  0  0
 18 37  1  0  0  0  0
 18 38  1  0  0  0  0
M  CHG  1   3   1
M  END
> <s_m_source_file>
AV-unprocessed.smi

> <i_m_source_file_index>
3322

> <i_lp_mmshare_version>
43012

> <i_f3d_flags>
0

> <s_epik_input>
W0NIMl0xW0NIMl1PW0NIMl1bQ0gyXU4xQyg9TylbQ0BIXShbQ0gzXSlbTkhdW0NIMl1bQ0gyXW4yW2NIXVtjSF1bY0hdbjI=

> <s_epik_cmdline>
J2VwaWtfcHl0aG9uJywgJy1waCcsICc3LjAnLCAnLXRuJywgJzgnLCAnLW1hJywgJzIwMCcsICctbWV0YWxfYmluZGluZycsICctaW1hZScsICc8aW5maWxlLm1hZT4nLCAnLW9tYWUnLCAnPG91dGZpbGUubWFlPic=

> <r_lp_tautomer_probability>
1

> <r_epik_Ionization_Penalty>
0.3254

> <r_epik_Ionization_Penalty_Charging>
0.325398

> <r_epik_Ionization_Penalty_Neutral>
2.29478e-06

> <r_epik_State_Penalty>
0.320187

> <r_epik_Charging_Adjusted_Penalty>
0.645585

> <i_epik_Tot_Q>
1

> <i_epik_Tot_abs_Q>
1

> <r_epik_Metal_State_Penalty>
0.320558

> <b_epik_Metal_Only>
0

> <s_lp_Force_Field>
OPLS_2005

> <r_lp_Energy>
25.684

> <b_lp_Chiralities_Consistent>
1

> <s_lp_Variant>
AV-unprocessed.smi:3322-1

> <Gold.Version>
5.8.1

> <Gold.Id.Protein>
6NUR|6NUR_protein|mol2

> <Gold.PLP.Fitness>
43.5320

> <Gold.PLP.PLP>
-32.7111

> <Gold.PLP.part.hbond>
-2.5310

> <Gold.PLP.part.metal>
0.0000

> <Gold.PLP.part.buried>
-1.3613

> <Gold.PLP.part.nonpolar>
-28.3995

> <Gold.PLP.part.repulsive>
0.3009

> <Gold.PLP.ligand.clash>
0.0000

> <Gold.PLP.ligand.torsion>
0.4969

> <Gold.PLP.Chemscore.Hbond>
3.0000

> <Gold.PLP.Chemscore.CHOScore>
0.9230

> <Gold.PLP.Chemscore.Metal>
0.0000

> <Gold.Chemscore.Hbonds>
donor molecule, donor type, donor heavy atom, donor atom, acceptor molecule, acceptor atom, score
      L1  H     3    23       P1  7948  2.00
      P1  H 10752 10765       L1    10  1.00
      P1  H 10785 10796       L1    16  0.06
      L1  C     7    28       P1  7948  0.95

> <Gold.PLP.Chemscore.Internal.Correction>
0.0459

> <Gold.Rescore>
     Score         DG    S(hbond)    S(metal)    S(lipo)     H(rot)  DE(clash)    DE(int)     intcor
     16.34     -17.17       2.30        0.00      76.15       1.91       0.27       0.56       ----

> <Gold.Chemscore.Fitness>
16.3409

> <Gold.Chemscore.DG>
-17.1682

> <Gold.Chemscore.ZeroCoef>
-5.4800

> <Gold.Chemscore.Hbond>
2.2957

> <Gold.Chemscore.Metal>
0.0000

> <Gold.Chemscore.Lipo>
76.1461

> <Gold.Chemscore.Internal_Hbond>
0.0000

> <Gold.Chemscore.DEClash>
0.2698

> <Gold.Chemscore.DEInternal>
0.5576

> <Gold.Chemscore.Rot>
1.9095

> <Gold.Chemscore.Internal.Correction>
   9.000000E+99

> <Gold.Chemscore.Hbonds>
donor molecule, donor type, donor heavy atom, donor atom, acceptor molecule, acceptor atom, score
      L1  H     3    23       P1  7948  0.78
      P1  H 10752 10765       L1    10  0.24
      P1  H 10785 10796       L1    16  0.04

> <Gold.Chemscore.Hbond.Weighted>
-7.6675

> <Gold.Chemscore.Metal.Weighted>
-0.0000

> <Gold.Chemscore.Lipo.Weighted>
-8.9091

> <Gold.Chemscore.Internal_Hbond.Weighted>
0.0000

> <Gold.Chemscore.DEClash.Weighted>
0.2698

> <Gold.Chemscore.DEInternal.Weighted>
0.5576

> <Gold.Chemscore.Rot.Weighted>
4.8884

> <Gold.Chemscore.Internal.Correction.Weighted>
   9.000000E+99

> <Gold.Protein.RotatedTorsions>
[ 6907 6896 6895 6894 ] final  110.94 input  -60.11 | X-H torsion
[ 7974 7965 7964 7962 ] final  -53.20 input  175.53 | X-H torsion
[ 8008 7997 7996 7995 ] final   46.90 input   59.86 | X-H torsion
[ 10167 10162 10161 10158 ] final   -6.43 input  -65.29 | X-H torsion
[ 10718 10713 10712 10709 ] final  -65.74 input   66.30 | X-H torsion
[ 10763 10752 10751 10750 ] final -150.48 input  -60.55 | X-H torsion
[ 11005 11000 10999 10996 ] final  -79.92 input  -57.11 | X-H torsion

> <Gold.Protein.ActiveResidues>
 VAL166  LYS551  ARG553  GLY616  TRP617  ASP618  TYR619  PRO620  LYS621  CYS622 
 ASP623  PHE694  ASN695  SER759  ASP760  ASP761  ALA762  ILE779  LEU786  VAL792 
 PHE793  MET794  SER795  GLU796  ALA797  LYS798  CYS799  TRP800  GLU811  SER814 

> <Gold.Protein.RotatedAtoms>
  152.4995  133.8729  159.7307 H   0  0  0  0  0  0  0  0  0  0  0  0  # atno 6907 bound_to 6896
  150.9211  133.6870  159.2838 H   0  0  0  0  0  0  0  0  0  0  0  0  # atno 6908 bound_to 6896
  151.4247  135.1006  159.9677 H   0  0  0  0  0  0  0  0  0  0  0  0  # atno 6909 bound_to 6896
  145.8995  140.8006  142.9751 H   0  0  0  0  0  0  0  0  0  0  0  0  # atno 7974 bound_to 7965
  155.3602  140.3418  155.4240 H   0  0  0  0  0  0  0  0  0  0  0  0  # atno 8008 bound_to 7997
  156.1718  140.1634  156.8469 H   0  0  0  0  0  0  0  0  0  0  0  0  # atno 8009 bound_to 7997
  154.5241  140.0760  156.8208 H   0  0  0  0  0  0  0  0  0  0  0  0  # atno 8010 bound_to 7997
  140.6997  143.6195  150.8626 H   0  0  0  0  0  0  0  0  0  0  0  0  # atno 10167 bound_to 10162
  156.0652  130.4251  150.1607 H   0  0  0  0  0  0  0  0  0  0  0  0  # atno 10718 bound_to 10713
  154.8116  135.3283  154.7288 H   0  0  0  0  0  0  0  0  0  0  0  0  # atno 10763 bound_to 10752
  153.7936  135.6909  153.4871 H   0  0  0  0  0  0  0  0  0  0  0  0  # atno 10764 bound_to 10752
  153.1900  135.4554  155.0083 H   0  0  0  0  0  0  0  0  0  0  0  0  # atno 10765 bound_to 10752
  141.1668  133.7127  156.8195 H   0  0  0  0  0  0  0  0  0  0  0  0  # atno 11005 bound_to 11000
  144.6735  140.1654  143.7419 LP  0  0  0  0  0  0  0  0  0  0  0  0  # atno 17320 bound_to 7965
  145.8809  139.2322  143.1606 LP  0  0  0  0  0  0  0  0  0  0  0  0  # atno 17321 bound_to 7965
  139.9916  143.5841  152.2908 LP  0  0  0  0  0  0  0  0  0  0  0  0  # atno 17342 bound_to 10162
  139.6498  144.7660  151.2170 LP  0  0  0  0  0  0  0  0  0  0  0  0  # atno 17343 bound_to 10162
  156.9669  130.9822  151.3467 LP  0  0  0  0  0  0  0  0  0  0  0  0  # atno 17370 bound_to 10713
  157.5689  130.8297  149.8364 LP  0  0  0  0  0  0  0  0  0  0  0  0  # atno 17371 bound_to 10713
  140.2129  134.8814  157.3294 LP  0  0  0  0  0  0  0  0  0  0  0  0  # atno 17394 bound_to 11000
  140.2068  134.4188  155.7634 LP  0  0  0  0  0  0  0  0  0  0  0  0  # atno 17395 bound_to 11000

$$$$
