AV-unprocessed.smi:670|AV-procd|sdf|3272|dock2
  -GOLD-   22720 0233D 1   1.00000     0.00000
 Structure written by MMmdl.
 45 46  0  0  0  0  0  0  0  0  1 V2000
  153.4296  140.7849  159.6759 C   0  0  0  0  0  0  0  0  0  0  0  0
  152.5510  141.9976  160.0252 C   0  0  1  0  0  0  0  0  0  0  0  0
  153.1357  142.7644  161.2285 C   0  0  0  0  0  0  0  0  0  0  0  0
  152.2843  143.9902  161.5926 C   0  0  0  0  0  0  0  0  0  0  0  0
  152.1195  144.9243  160.3857 C   0  0  0  0  0  0  0  0  0  0  0  0
  151.5238  144.1737  159.1856 C   0  0  0  0  0  0  0  0  0  0  0  0
  152.3709  142.9389  158.8129 C   0  0  2  0  0  0  0  0  0  0  0  0
  151.7169  142.2013  157.7881 O   0  0  0  0  0  0  0  0  0  0  0  0
  150.3332  141.9733  158.0126 C   0  0  0  0  0  0  0  0  0  0  0  0
  149.6248  141.8763  156.6538 C   0  0  0  0  0  0  0  0  0  0  0  0
  149.8375  140.5738  156.0321 N   0  0  0  0  0  0  0  0  0  0  0  0
  149.7525  140.3215  154.7176 C   0  0  0  0  0  0  0  0  0  0  0  0
  149.4362  141.1742  153.8866 O   0  0  0  0  0  0  0  0  0  0  0  0
  150.0606  138.8796  154.2883 C   0  0  0  0  0  0  0  0  0  0  0  0
  150.9843  138.1861  155.1976 N   0  0  0  0  0  0  0  0  0  0  0  0
  150.4620  137.0340  155.7660 N   0  0  0  0  0  0  0  0  0  0  0  0
  151.1821  136.3285  156.5712 C   0  0  0  0  0  0  0  0  0  0  0  0
  150.6266  135.1935  157.1096 O   0  0  0  0  0  0  0  0  0  0  0  0
  152.5356  136.7180  156.9015 C   0  0  0  0  0  0  0  0  0  0  0  0
  153.0335  137.8452  156.3477 C   0  0  0  0  0  0  0  0  0  0  0  0
  152.2433  138.6693  155.4311 C   0  0  0  0  0  0  0  0  0  0  0  0
  152.6702  139.7021  154.9160 O   0  0  0  0  0  0  0  0  0  0  0  0
  150.8118  134.5041  156.4907 H   0  0  0  0  0  0  0  0  0  0  0  0
  154.4286  141.0957  159.3684 H   0  0  0  0  0  0  0  0  0  0  0  0
  152.9995  140.2011  158.8614 H   0  0  0  0  0  0  0  0  0  0  0  0
  153.5375  140.1185  160.5317 H   0  0  0  0  0  0  0  0  0  0  0  0
  151.5675  141.6231  160.3134 H   0  0  0  0  0  0  0  0  0  0  0  0
  153.2080  142.1033  162.0926 H   0  0  0  0  0  0  0  0  0  0  0  0
  154.1533  143.0856  161.0013 H   0  0  0  0  0  0  0  0  0  0  0  0
  151.3036  143.6647  161.9417 H   0  0  0  0  0  0  0  0  0  0  0  0
  152.7444  144.5301  162.4206 H   0  0  0  0  0  0  0  0  0  0  0  0
  151.4814  145.7676  160.6513 H   0  0  0  0  0  0  0  0  0  0  0  0
  153.0884  145.3430  160.1112 H   0  0  0  0  0  0  0  0  0  0  0  0
  150.5061  143.8607  159.4228 H   0  0  0  0  0  0  0  0  0  0  0  0
  151.4470  144.8555  158.3389 H   0  0  0  0  0  0  0  0  0  0  0  0
  153.3594  143.2595  158.4780 H   0  0  0  0  0  0  0  0  0  0  0  0
  150.1876  141.0482  158.5701 H   0  0  0  0  0  0  0  0  0  0  0  0
  149.9014  142.7813  158.6050 H   0  0  0  0  0  0  0  0  0  0  0  0
  148.5528  142.0268  156.7824 H   0  0  0  0  0  0  0  0  0  0  0  0
  149.9728  142.6681  155.9885 H   0  0  0  0  0  0  0  0  0  0  0  0
  150.1007  139.8158  156.6450 H   0  0  0  0  0  0  0  0  0  0  0  0
  149.1293  138.3156  154.2070 H   0  0  0  0  0  0  0  0  0  0  0  0
  150.4745  138.9090  153.2787 H   0  0  0  0  0  0  0  0  0  0  0  0
  153.1271  136.1168  157.5764 H   0  0  0  0  0  0  0  0  0  0  0  0
  154.0424  138.1484  156.5859 H   0  0  0  0  0  0  0  0  0  0  0  0
  1  2  1  0  0  0  0
  1 24  1  0  0  0  0
  1 25  1  0  0  0  0
  1 26  1  0  0  0  0
  2  7  1  0  0  0  0
  2  3  1  0  0  0  0
  2 27  1  0  0  0  0
  3  4  1  0  0  0  0
  3 28  1  0  0  0  0
  3 29  1  0  0  0  0
  4  5  1  0  0  0  0
  4 30  1  0  0  0  0
  4 31  1  0  0  0  0
  5  6  1  0  0  0  0
  5 32  1  0  0  0  0
  5 33  1  0  0  0  0
  6  7  1  0  0  0  0
  6 34  1  0  0  0  0
  6 35  1  0  0  0  0
  7  8  1  0  0  0  0
  7 36  1  0  0  0  0
  8  9  1  0  0  0  0
  9 10  1  0  0  0  0
  9 37  1  0  0  0  0
  9 38  1  0  0  0  0
 10 11  1  0  0  0  0
 10 39  1  0  0  0  0
 10 40  1  0  0  0  0
 11 12  1  0  0  0  0
 11 41  1  0  0  0  0
 12 13  2  0  0  0  0
 12 14  1  0  0  0  0
 14 42  1  0  0  0  0
 14 43  1  0  0  0  0
 14 15  1  0  0  0  0
 15 16  1  0  0  0  0
 15 21  1  0  0  0  0
 16 17  2  0  0  0  0
 17 18  1  0  0  0  0
 17 19  1  0  0  0  0
 18 23  1  0  0  0  0
 19 44  1  0  0  0  0
 19 20  2  0  0  0  0
 20 45  1  0  0  0  0
 20 21  1  0  0  0  0
 21 22  2  0  0  0  0
M  END
> <s_m_source_file>
AV-unprocessed.smi

> <i_m_source_file_index>
670

> <i_lp_mmshare_version>
43012

> <i_f3d_flags>
0

> <s_epik_input>
W0NIM11bQ0BASF0xW0NIMl1bQ0gyXVtDSDJdW0NIMl1bQ0BIXTFPW0NIMl1bQ0gyXVtOSF1DKD1PKVtDSDJdbjJbbkhdYyg9TylbY0hdW2NIXWMyPU8=

> <s_epik_cmdline>
J2VwaWtfcHl0aG9uJywgJy1waCcsICc3LjAnLCAnLXRuJywgJzgnLCAnLW1hJywgJzIwMCcsICctbWV0YWxfYmluZGluZycsICctaW1hZScsICc8aW5maWxlLm1hZT4nLCAnLW9tYWUnLCAnPG91dGZpbGUubWFlPic=

> <r_lp_tautomer_probability>
0.9996

> <r_epik_Ionization_Penalty>
2.12726

> <r_epik_Ionization_Penalty_Charging>
3.83395e-08

> <r_epik_Ionization_Penalty_Neutral>
2.12726

> <r_epik_State_Penalty>
1.70432

> <r_epik_Charging_Adjusted_Penalty>
1.70432

> <i_epik_Tot_Q>
0

> <i_epik_Tot_abs_Q>
0

> <r_epik_Metal_State_Penalty>
1.70432

> <b_epik_Metal_Only>
0

> <s_lp_Force_Field>
OPLS_2005

> <r_lp_Energy>
20.1935

> <b_lp_Chiralities_Consistent>
1

> <s_lp_Variant>
AV-unprocessed.smi:670-8

> <Gold.Version>
5.8.1

> <Gold.Id.Protein>
6NUR|6NUR_protein|mol2

> <Gold.PLP.Fitness>
50.4488

> <Gold.PLP.PLP>
-45.1724

> <Gold.PLP.part.hbond>
-4.9267

> <Gold.PLP.part.metal>
0.0000

> <Gold.PLP.part.buried>
-3.5019

> <Gold.PLP.part.nonpolar>
-37.1286

> <Gold.PLP.part.repulsive>
1.5570

> <Gold.PLP.ligand.clash>
0.0000

> <Gold.PLP.ligand.torsion>
0.8886

> <Gold.PLP.Chemscore.Hbond>
2.3210

> <Gold.PLP.Chemscore.CHOScore>
0.0000

> <Gold.PLP.Chemscore.Metal>
0.0000

> <Gold.Chemscore.Hbonds>
donor molecule, donor type, donor heavy atom, donor atom, acceptor molecule, acceptor atom, score
      P1  H  7989  7998       L1    22  0.48
      P1  H  7997  8010       L1    22  0.84
      P1  H  8011  8017       L1    13  0.86

> <Gold.PLP.Chemscore.Internal.Correction>
0.0908

> <Gold.Rescore>
     Score         DG    S(hbond)    S(metal)    S(lipo)     H(rot)  DE(clash)    DE(int)     intcor
     13.93     -17.18       2.02        0.00     109.91       3.09       1.35       1.90       ----

> <Gold.Chemscore.Fitness>
13.9328

> <Gold.Chemscore.DG>
-17.1808

> <Gold.Chemscore.ZeroCoef>
-5.4800

> <Gold.Chemscore.Hbond>
2.0216

> <Gold.Chemscore.Metal>
0.0000

> <Gold.Chemscore.Lipo>
109.9085

> <Gold.Chemscore.Internal_Hbond>
0.0000

> <Gold.Chemscore.DEClash>
1.3483

> <Gold.Chemscore.DEInternal>
1.8997

> <Gold.Chemscore.Rot>
3.0901

> <Gold.Chemscore.Internal.Correction>
   9.000000E+99

> <Gold.Chemscore.Hbonds>
donor molecule, donor type, donor heavy atom, donor atom, acceptor molecule, acceptor atom, score
      P1  H  7989  7998       L1    22  0.48
      P1  H  7997  8010       L1    22  0.58
      P1  H  8011  8017       L1    13  0.80

> <Gold.Chemscore.Hbond.Weighted>
-6.7521

> <Gold.Chemscore.Metal.Weighted>
-0.0000

> <Gold.Chemscore.Lipo.Weighted>
-12.8593

> <Gold.Chemscore.Internal_Hbond.Weighted>
0.0000

> <Gold.Chemscore.DEClash.Weighted>
1.3483

> <Gold.Chemscore.DEInternal.Weighted>
1.8997

> <Gold.Chemscore.Rot.Weighted>
7.9106

> <Gold.Chemscore.Internal.Correction.Weighted>
   9.000000E+99

> <Gold.Protein.RotatedTorsions>
[ 6907 6896 6895 6894 ] final -140.38 input  -60.11 | X-H torsion
[ 7974 7965 7964 7962 ] final  171.60 input  175.53 | X-H torsion
[ 8008 7997 7996 7995 ] final  108.66 input   59.86 | X-H torsion
[ 10167 10162 10161 10158 ] final  -89.69 input  -65.29 | X-H torsion
[ 10718 10713 10712 10709 ] final   -2.65 input   66.30 | X-H torsion
[ 10763 10752 10751 10750 ] final -157.35 input  -60.55 | X-H torsion
[ 11005 11000 10999 10996 ] final  -38.01 input  -57.11 | X-H torsion

> <Gold.Protein.ActiveResidues>
 VAL166  LYS551  ARG553  GLY616  TRP617  ASP618  TYR619  PRO620  LYS621  CYS622 
 ASP623  PHE694  ASN695  SER759  ASP760  ASP761  ALA762  ILE779  LEU786  VAL792 
 PHE793  MET794  SER795  GLU796  ALA797  LYS798  CYS799  TRP800  GLU811  SER814 

> <Gold.Protein.RotatedAtoms>
  151.0599  133.5553  159.2634 H   0  0  0  0  0  0  0  0  0  0  0  0  # atno 6907 bound_to 6896
  151.2532  135.0628  159.9080 H   0  0  0  0  0  0  0  0  0  0  0  0  # atno 6908 bound_to 6896
  152.5396  134.0356  159.8098 H   0  0  0  0  0  0  0  0  0  0  0  0  # atno 6909 bound_to 6896
  144.7290  139.9374  143.6427 H   0  0  0  0  0  0  0  0  0  0  0  0  # atno 7974 bound_to 7965
  156.1920  140.3072  155.9352 H   0  0  0  0  0  0  0  0  0  0  0  0  # atno 8008 bound_to 7997
  155.3151  140.0453  157.3054 H   0  0  0  0  0  0  0  0  0  0  0  0  # atno 8009 bound_to 7997
  154.5464  140.2278  155.8566 H   0  0  0  0  0  0  0  0  0  0  0  0  # atno 8010 bound_to 7997
  140.3623  143.2836  151.9600 H   0  0  0  0  0  0  0  0  0  0  0  0  # atno 10167 bound_to 10162
  156.7876  130.5351  149.5741 H   0  0  0  0  0  0  0  0  0  0  0  0  # atno 10718 bound_to 10713
  154.7643  135.3126  154.8317 H   0  0  0  0  0  0  0  0  0  0  0  0  # atno 10763 bound_to 10752
  153.9069  135.6810  153.4757 H   0  0  0  0  0  0  0  0  0  0  0  0  # atno 10764 bound_to 10752
  153.1247  135.4807  154.9185 H   0  0  0  0  0  0  0  0  0  0  0  0  # atno 10765 bound_to 10752
  140.9996  133.6962  156.1997 H   0  0  0  0  0  0  0  0  0  0  0  0  # atno 11005 bound_to 11000
  146.0811  139.3799  143.0464 LP  0  0  0  0  0  0  0  0  0  0  0  0  # atno 17320 bound_to 7965
  145.7840  140.9844  143.1084 LP  0  0  0  0  0  0  0  0  0  0  0  0  # atno 17321 bound_to 7965
  139.4813  144.5982  151.7653 LP  0  0  0  0  0  0  0  0  0  0  0  0  # atno 17342 bound_to 10162
  140.5115  144.1018  150.5996 LP  0  0  0  0  0  0  0  0  0  0  0  0  # atno 17343 bound_to 10162
  156.1179  130.6088  151.0148 LP  0  0  0  0  0  0  0  0  0  0  0  0  # atno 17370 bound_to 10713
  157.6616  131.0880  150.7825 LP  0  0  0  0  0  0  0  0  0  0  0  0  # atno 17371 bound_to 10713
  140.6911  134.4665  157.5588 LP  0  0  0  0  0  0  0  0  0  0  0  0  # atno 17394 bound_to 11000
  139.9032  134.8509  156.1811 LP  0  0  0  0  0  0  0  0  0  0  0  0  # atno 17395 bound_to 11000

$$$$
