AV-unprocessed.smi:1489|AV-procd|sdf|6028|dock6
  -GOLD-   22720 6133D 1   1.00000     0.00000
 Structure written by MMmdl.
 47 49  0  0  0  0  0  0  0  0  2 V2000
  146.5028  139.7971  154.1402 O   0  0  0  0  0  0  0  0  0  0  0  0
  147.3818  138.9955  153.8260 C   0  0  0  0  0  0  0  0  0  0  0  0
  148.6621  139.0586  154.2307 N   0  0  0  0  0  0  0  0  0  0  0  0
  149.2792  140.0442  155.0471 C   0  0  0  0  0  0  0  0  0  0  0  0
  150.3943  139.6566  155.8206 C   0  0  0  0  0  0  0  0  0  0  0  0
  151.0471  140.6066  156.6325 C   0  0  0  0  0  0  0  0  0  0  0  0
  150.5802  141.9416  156.6509 C   0  0  0  0  0  0  0  0  0  0  0  0
  151.1627  142.9620  157.4160 N   0  0  0  0  0  0  0  0  0  0  0  0
  150.2464  143.6811  158.2852 C   0  0  0  0  0  0  0  0  0  0  0  0
  151.1323  144.4189  159.2909 C   0  0  0  0  0  0  0  0  0  0  0  0
  152.4503  143.6357  159.3024 C   0  0  0  0  0  0  0  0  0  0  0  0
  152.2626  142.5279  158.2615 C   0  0  0  0  0  0  0  0  0  0  0  0
  149.5196  142.2767  155.8843 N   0  3  0  0  0  0  0  0  0  0  0  0
  148.8636  141.3972  155.0965 C   0  0  0  0  0  0  0  0  0  0  0  0
  147.1747  137.9225  153.0454 N   0  0  0  0  0  0  0  0  0  0  0  0
  145.9131  137.4911  152.4396 C   0  0  2  0  0  0  0  0  0  0  0  0
  144.7320  137.5200  153.4325 C   0  0  0  0  0  0  0  0  0  0  0  0
  143.4131  137.1439  152.7333 C   0  0  0  0  0  0  0  0  0  0  0  0
  143.5054  135.7928  151.9960 C   0  0  2  0  0  0  0  0  0  0  0  0
  143.5876  134.7348  152.9303 O   0  0  0  0  0  0  0  0  0  0  0  0
  144.7137  135.7434  151.0402 C   0  0  0  0  0  0  0  0  0  0  0  0
  146.0289  136.1179  151.7456 C   0  0  0  0  0  0  0  0  0  0  0  0
  149.2501  138.2822  153.9652 H   0  0  0  0  0  0  0  0  0  0  0  0
  150.7477  138.6360  155.7983 H   0  0  0  0  0  0  0  0  0  0  0  0
  151.8977  140.3080  157.2279 H   0  0  0  0  0  0  0  0  0  0  0  0
  149.6273  144.3742  157.7146 H   0  0  0  0  0  0  0  0  0  0  0  0
  149.5839  142.9899  158.8072 H   0  0  0  0  0  0  0  0  0  0  0  0
  151.3126  145.4410  158.9557 H   0  0  0  0  0  0  0  0  0  0  0  0
  150.6685  144.4697  160.2764 H   0  0  0  0  0  0  0  0  0  0  0  0
  153.2758  144.2903  159.0198 H   0  0  0  0  0  0  0  0  0  0  0  0
  152.6766  143.2226  160.2858 H   0  0  0  0  0  0  0  0  0  0  0  0
  152.0195  141.5861  158.7557 H   0  0  0  0  0  0  0  0  0  0  0  0
  153.1690  142.3745  157.6750 H   0  0  0  0  0  0  0  0  0  0  0  0
  148.0452  141.8176  154.5316 H   0  0  0  0  0  0  0  0  0  0  0  0
  147.9718  137.3331  152.8552 H   0  0  0  0  0  0  0  0  0  0  0  0
  145.7053  138.2308  151.6652 H   0  0  0  0  0  0  0  0  0  0  0  0
  144.9073  136.8297  154.2578 H   0  0  0  0  0  0  0  0  0  0  0  0
  144.6403  138.5122  153.8756 H   0  0  0  0  0  0  0  0  0  0  0  0
  142.5977  137.1246  153.4572 H   0  0  0  0  0  0  0  0  0  0  0  0
  143.1601  137.9235  152.0135 H   0  0  0  0  0  0  0  0  0  0  0  0
  142.5916  135.6376  151.4216 H   0  0  0  0  0  0  0  0  0  0  0  0
  143.3320  133.9330  152.5006 H   0  0  0  0  0  0  0  0  0  0  0  0
  144.7988  134.7541  150.5890 H   0  0  0  0  0  0  0  0  0  0  0  0
  144.5438  136.4380  150.2167 H   0  0  0  0  0  0  0  0  0  0  0  0
  146.8416  136.1330  151.0188 H   0  0  0  0  0  0  0  0  0  0  0  0
  146.2796  135.3422  152.4698 H   0  0  0  0  0  0  0  0  0  0  0  0
  149.1977  143.2449  155.8985 H   0  0  0  0  0  0  0  0  0  0  0  0
  1  2  2  0  0  0  0
  2  3  1  0  0  0  0
  2 15  1  0  0  0  0
  3  4  1  0  0  0  0
  3 23  1  0  0  0  0
  4 14  1  0  0  0  0
  4  5  2  0  0  0  0
  5  6  1  0  0  0  0
  5 24  1  0  0  0  0
  6  7  2  0  0  0  0
  6 25  1  0  0  0  0
  7  8  1  0  0  0  0
  7 13  1  0  0  0  0
  8 12  1  0  0  0  0
  8  9  1  0  0  0  0
  9 10  1  0  0  0  0
  9 26  1  0  0  0  0
  9 27  1  0  0  0  0
 10 11  1  0  0  0  0
 10 28  1  0  0  0  0
 10 29  1  0  0  0  0
 11 12  1  0  0  0  0
 11 30  1  0  0  0  0
 11 31  1  0  0  0  0
 12 32  1  0  0  0  0
 12 33  1  0  0  0  0
 13 14  2  0  0  0  0
 13 47  1  0  0  0  0
 14 34  1  0  0  0  0
 15 16  1  0  0  0  0
 15 35  1  0  0  0  0
 16 22  1  0  0  0  0
 16 17  1  0  0  0  0
 16 36  1  0  0  0  0
 17 18  1  0  0  0  0
 17 37  1  0  0  0  0
 17 38  1  0  0  0  0
 18 19  1  0  0  0  0
 18 39  1  0  0  0  0
 18 40  1  0  0  0  0
 19 20  1  0  0  0  0
 19 21  1  0  0  0  0
 19 41  1  0  0  0  0
 20 42  1  0  0  0  0
 21 22  1  0  0  0  0
 21 43  1  0  0  0  0
 21 44  1  0  0  0  0
 22 45  1  0  0  0  0
 22 46  1  0  0  0  0
M  CHG  1  13   1
M  END
> <s_m_source_file>
AV-unprocessed.smi

> <i_m_source_file_index>
1489

> <i_lp_mmshare_version>
43012

> <i_f3d_flags>
0

> <s_epik_input>
W0NIMl0xW0NIMl1bQ0BIXShbT0hdKVtDSDJdW0NIMl1bQ0BIXTFbTkhdQyg9TylbTkhdYzJbY0hdW2NIXWMobltjSF0yKU4zW0NIMl1bQ0gyXVtDSDJdW0NIMl0z

> <s_epik_cmdline>
J2VwaWtfcHl0aG9uJywgJy1waCcsICc3LjAnLCAnLXRuJywgJzgnLCAnLW1hJywgJzIwMCcsICctbWV0YWxfYmluZGluZycsICctaW1hZScsICc8aW5maWxlLm1hZT4nLCAnLW9tYWUnLCAnPG91dGZpbGUubWFlPic=

> <r_lp_tautomer_probability>
0.999994

> <r_epik_Ionization_Penalty>
1.08454

> <r_epik_Ionization_Penalty_Charging>
1.08452

> <r_epik_Ionization_Penalty_Neutral>
2.18252e-05

> <r_epik_State_Penalty>
1.14025

> <r_epik_Charging_Adjusted_Penalty>
2.22477

> <i_epik_Tot_Q>
1

> <i_epik_Tot_abs_Q>
1

> <r_epik_Metal_State_Penalty>
1.22975

> <b_epik_Metal_Only>
0

> <s_lp_Force_Field>
OPLS_2005

> <r_lp_Energy>
45.8336

> <b_lp_Chiralities_Consistent>
1

> <s_lp_Variant>
AV-unprocessed.smi:1489-4

> <Gold.Version>
5.8.1

> <Gold.Id.Protein>
6NUR|6NUR_protein|mol2

> <Gold.PLP.Fitness>
42.2381

> <Gold.PLP.PLP>
-33.8458

> <Gold.PLP.part.hbond>
-2.0000

> <Gold.PLP.part.metal>
0.0000

> <Gold.PLP.part.buried>
-3.8269

> <Gold.PLP.part.nonpolar>
-29.4954

> <Gold.PLP.part.repulsive>
0.4326

> <Gold.PLP.ligand.clash>
0.0000

> <Gold.PLP.ligand.torsion>
0.3229

> <Gold.PLP.Chemscore.Hbond>
3.0000

> <Gold.PLP.Chemscore.CHOScore>
0.0000

> <Gold.PLP.Chemscore.Metal>
0.0000

> <Gold.Chemscore.Hbonds>
donor molecule, donor type, donor heavy atom, donor atom, acceptor molecule, acceptor atom, score
      L1  H    13    47       P1  8028  1.98
      L1  H    15    35       P1  7948  1.00

> <Gold.PLP.Chemscore.Internal.Correction>
0.0381

> <Gold.Rescore>
     Score         DG    S(hbond)    S(metal)    S(lipo)     H(rot)  DE(clash)    DE(int)     intcor
     16.38     -18.54       1.99        0.00      91.80       1.69       0.20       1.96       ----

> <Gold.Chemscore.Fitness>
16.3843

> <Gold.Chemscore.DG>
-18.5401

> <Gold.Chemscore.ZeroCoef>
-5.4800

> <Gold.Chemscore.Hbond>
1.9921

> <Gold.Chemscore.Metal>
0.0000

> <Gold.Chemscore.Lipo>
91.7953

> <Gold.Chemscore.Internal_Hbond>
0.0000

> <Gold.Chemscore.DEClash>
0.1984

> <Gold.Chemscore.DEInternal>
1.9573

> <Gold.Chemscore.Rot>
1.6929

> <Gold.Chemscore.Internal.Correction>
   9.000000E+99

> <Gold.Chemscore.Hbonds>
donor molecule, donor type, donor heavy atom, donor atom, acceptor molecule, acceptor atom, score
      L1  H    13    47       P1  8028  0.92
      L1  H    15    35       P1  7948  0.98

> <Gold.Chemscore.Hbond.Weighted>
-6.6538

> <Gold.Chemscore.Metal.Weighted>
-0.0000

> <Gold.Chemscore.Lipo.Weighted>
-10.7400

> <Gold.Chemscore.Internal_Hbond.Weighted>
0.0000

> <Gold.Chemscore.DEClash.Weighted>
0.1984

> <Gold.Chemscore.DEInternal.Weighted>
1.9573

> <Gold.Chemscore.Rot.Weighted>
4.3338

> <Gold.Chemscore.Internal.Correction.Weighted>
   9.000000E+99

> <Gold.Protein.RotatedTorsions>
[ 6907 6896 6895 6894 ] final  -57.30 input  -60.11 | X-H torsion
[ 7974 7965 7964 7962 ] final   46.39 input  175.53 | X-H torsion
[ 8008 7997 7996 7995 ] final -112.45 input   59.86 | X-H torsion
[ 10167 10162 10161 10158 ] final  147.13 input  -65.29 | X-H torsion
[ 10718 10713 10712 10709 ] final  103.26 input   66.30 | X-H torsion
[ 10763 10752 10751 10750 ] final  140.96 input  -60.55 | X-H torsion
[ 11005 11000 10999 10996 ] final  -65.58 input  -57.11 | X-H torsion

> <Gold.Protein.ActiveResidues>
 VAL166  LYS551  ARG553  GLY616  TRP617  ASP618  TYR619  PRO620  LYS621  CYS622 
 ASP623  PHE694  ASN695  SER759  ASP760  ASP761  ALA762  ILE779  LEU786  VAL792 
 PHE793  MET794  SER795  GLU796  ALA797  LYS798  CYS799  TRP800  GLU811  SER814 

> <Gold.Protein.RotatedAtoms>
  150.8097  134.7244  159.6676 H   0  0  0  0  0  0  0  0  0  0  0  0  # atno 6907 bound_to 6896
  152.4217  134.5940  159.9992 H   0  0  0  0  0  0  0  0  0  0  0  0  # atno 6908 bound_to 6896
  151.6154  133.3306  159.3112 H   0  0  0  0  0  0  0  0  0  0  0  0  # atno 6909 bound_to 6896
  146.0394  139.4861  142.9788 H   0  0  0  0  0  0  0  0  0  0  0  0  # atno 7974 bound_to 7965
  155.0054  140.0394  157.2377 H   0  0  0  0  0  0  0  0  0  0  0  0  # atno 8008 bound_to 7997
  154.7506  140.2766  155.6272 H   0  0  0  0  0  0  0  0  0  0  0  0  # atno 8009 bound_to 7997
  156.2884  140.2647  156.2259 H   0  0  0  0  0  0  0  0  0  0  0  0  # atno 8010 bound_to 7997
  139.4895  144.5778  151.6930 H   0  0  0  0  0  0  0  0  0  0  0  0  # atno 10167 bound_to 10162
  157.6778  131.0774  150.5529 H   0  0  0  0  0  0  0  0  0  0  0  0  # atno 10718 bound_to 10713
  153.9313  135.2990  155.3445 H   0  0  0  0  0  0  0  0  0  0  0  0  # atno 10763 bound_to 10752
  154.7525  135.4973  153.9318 H   0  0  0  0  0  0  0  0  0  0  0  0  # atno 10764 bound_to 10752
  153.1090  135.6754  153.9639 H   0  0  0  0  0  0  0  0  0  0  0  0  # atno 10765 bound_to 10752
  141.1458  133.6684  156.6009 H   0  0  0  0  0  0  0  0  0  0  0  0  # atno 11005 bound_to 11000
  145.6910  141.0164  143.1555 LP  0  0  0  0  0  0  0  0  0  0  0  0  # atno 17320 bound_to 7965
  144.7067  139.8533  143.7428 LP  0  0  0  0  0  0  0  0  0  0  0  0  # atno 17321 bound_to 7965
  140.5378  144.0627  150.6077 LP  0  0  0  0  0  0  0  0  0  0  0  0  # atno 17342 bound_to 10162
  140.3639  143.2892  152.0353 LP  0  0  0  0  0  0  0  0  0  0  0  0  # atno 17343 bound_to 10162
  156.5833  130.4310  149.5968 LP  0  0  0  0  0  0  0  0  0  0  0  0  # atno 17370 bound_to 10713
  156.2643  130.6980  151.1759 LP  0  0  0  0  0  0  0  0  0  0  0  0  # atno 17371 bound_to 10713
  140.3690  134.7622  157.4585 LP  0  0  0  0  0  0  0  0  0  0  0  0  # atno 17394 bound_to 11000
  140.0726  134.5842  155.8626 LP  0  0  0  0  0  0  0  0  0  0  0  0  # atno 17395 bound_to 11000

$$$$
