AV-unprocessed.smi:2441|AV-procd|sdf|9619|dock6
  -GOLD-   2272013253D 1   1.00000     0.00000
 Structure written by MMmdl.
 40 41  0  0  0  0  0  0  0  0  1 V2000
  149.9790  138.1070  154.8859 C   0  0  0  0  0  0  0  0  0  0  0  0
  149.1203  139.1434  154.1395 C   0  0  2  0  0  0  0  0  0  0  0  0
  149.3219  140.5469  154.7470 C   0  0  0  0  0  0  0  0  0  0  0  0
  148.4809  141.6115  154.0270 C   0  0  0  0  0  0  0  0  0  0  0  0
  146.9935  141.2351  154.0332 C   0  0  0  0  0  0  0  0  0  0  0  0
  146.7770  139.8485  153.4109 C   0  0  0  0  0  0  0  0  0  0  0  0
  147.6168  138.7673  154.1191 C   0  0  1  0  0  0  0  0  0  0  0  0
  147.4109  137.4907  153.4357 N   0  0  0  0  0  0  0  0  0  0  0  0
  146.2381  136.8594  153.2790 C   0  0  0  0  0  0  0  0  0  0  0  0
  145.1709  137.2902  153.7149 O   0  0  0  0  0  0  0  0  0  0  0  0
  146.4000  135.7229  152.5765 N   0  0  0  0  0  0  0  0  0  0  0  0
  145.4471  134.7549  152.2143 C   0  0  0  0  0  0  0  0  0  0  0  0
  144.1046  134.9193  152.3219 C   0  0  0  0  0  0  0  0  0  0  0  0
  143.1957  133.8666  151.9381 C   0  0  0  0  0  0  0  0  0  0  0  0
  143.7111  132.7164  151.4833 C   0  0  0  0  0  0  0  0  0  0  0  0
  145.0966  132.5173  151.3742 N   0  0  0  0  0  0  0  0  0  0  0  0
  145.5126  131.2096  150.8597 C   0  0  0  0  0  0  0  0  0  0  0  0
  146.0048  133.4811  151.7170 C   0  0  0  0  0  0  0  0  0  0  0  0
  147.2185  133.2895  151.6121 O   0  0  0  0  0  0  0  0  0  0  0  0
  149.6507  137.9949  155.9195 H   0  0  0  0  0  0  0  0  0  0  0  0
  151.0275  138.4052  154.9011 H   0  0  0  0  0  0  0  0  0  0  0  0
  149.9295  137.1259  154.4133 H   0  0  0  0  0  0  0  0  0  0  0  0
  149.4743  139.1789  153.1079 H   0  0  0  0  0  0  0  0  0  0  0  0
  149.0562  140.5306  155.8049 H   0  0  0  0  0  0  0  0  0  0  0  0
  150.3751  140.8255  154.6996 H   0  0  0  0  0  0  0  0  0  0  0  0
  148.6209  142.5814  154.5048 H   0  0  0  0  0  0  0  0  0  0  0  0
  148.8280  141.7195  152.9986 H   0  0  0  0  0  0  0  0  0  0  0  0
  146.6162  141.2409  155.0565 H   0  0  0  0  0  0  0  0  0  0  0  0
  146.4183  141.9823  153.4861 H   0  0  0  0  0  0  0  0  0  0  0  0
  145.7186  139.5887  153.4578 H   0  0  0  0  0  0  0  0  0  0  0  0
  147.0386  139.8854  152.3523 H   0  0  0  0  0  0  0  0  0  0  0  0
  147.2703  138.7022  155.1524 H   0  0  0  0  0  0  0  0  0  0  0  0
  148.2325  137.0569  153.0412 H   0  0  0  0  0  0  0  0  0  0  0  0
  147.3293  135.5452  152.2237 H   0  0  0  0  0  0  0  0  0  0  0  0
  143.6707  135.8260  152.7110 H   0  0  0  0  0  0  0  0  0  0  0  0
  142.1270  134.0030  152.0152 H   0  0  0  0  0  0  0  0  0  0  0  0
  143.1037  131.8777  151.1738 H   0  0  0  0  0  0  0  0  0  0  0  0
  146.5901  131.0430  150.8734 H   0  0  0  0  0  0  0  0  0  0  0  0
  145.1768  131.0931  149.8286 H   0  0  0  0  0  0  0  0  0  0  0  0
  145.0593  130.4131  151.4512 H   0  0  0  0  0  0  0  0  0  0  0  0
  1  2  1  0  0  0  0
  1 20  1  0  0  0  0
  1 21  1  0  0  0  0
  1 22  1  0  0  0  0
  2  7  1  0  0  0  0
  2  3  1  0  0  0  0
  2 23  1  0  0  0  0
  3  4  1  0  0  0  0
  3 24  1  0  0  0  0
  3 25  1  0  0  0  0
  4  5  1  0  0  0  0
  4 26  1  0  0  0  0
  4 27  1  0  0  0  0
  5  6  1  0  0  0  0
  5 28  1  0  0  0  0
  5 29  1  0  0  0  0
  6  7  1  0  0  0  0
  6 30  1  0  0  0  0
  6 31  1  0  0  0  0
  7  8  1  0  0  0  0
  7 32  1  0  0  0  0
  8  9  1  0  0  0  0
  8 33  1  0  0  0  0
  9 10  2  0  0  0  0
  9 11  1  0  0  0  0
 11 12  1  0  0  0  0
 11 34  1  0  0  0  0
 12 18  1  0  0  0  0
 12 13  2  0  0  0  0
 13 14  1  0  0  0  0
 13 35  1  0  0  0  0
 14 15  2  0  0  0  0
 14 36  1  0  0  0  0
 15 16  1  0  0  0  0
 15 37  1  0  0  0  0
 16 17  1  0  0  0  0
 16 18  1  0  0  0  0
 17 38  1  0  0  0  0
 17 39  1  0  0  0  0
 17 40  1  0  0  0  0
 18 19  2  0  0  0  0
M  END
> <s_m_source_file>
AV-unprocessed.smi

> <i_m_source_file_index>
2441

> <i_lp_mmshare_version>
43012

> <i_f3d_flags>
0

> <s_epik_input>
W0NIM11bQ0BASF0xW0NIMl1bQ0gyXVtDSDJdW0NIMl1bQ0BIXTFbTkhdQyg9TylbTkhdYzJbY0hdW2NIXVtjSF1uKFtDSDNdKWMyPU8=

> <s_epik_cmdline>
J2VwaWtfcHl0aG9uJywgJy1waCcsICc3LjAnLCAnLXRuJywgJzgnLCAnLW1hJywgJzIwMCcsICctbWV0YWxfYmluZGluZycsICctaW1hZScsICc8aW5maWxlLm1hZT4nLCAnLW9tYWUnLCAnPG91dGZpbGUubWFlPic=

> <r_lp_tautomer_probability>
1

> <r_epik_Ionization_Penalty>
2.64999e-05

> <r_epik_Ionization_Penalty_Charging>
5.09663e-06

> <r_epik_Ionization_Penalty_Neutral>
2.14032e-05

> <r_epik_State_Penalty>
-0

> <r_epik_Charging_Adjusted_Penalty>
5.09663e-06

> <i_epik_Tot_Q>
0

> <i_epik_Tot_abs_Q>
0

> <r_epik_Metal_State_Penalty>
-0

> <b_epik_Metal_Only>
0

> <s_lp_Force_Field>
OPLS_2005

> <r_lp_Energy>
23.8871

> <b_lp_Chiralities_Consistent>
1

> <s_lp_Variant>
AV-unprocessed.smi:2441-1

> <Gold.Version>
5.8.1

> <Gold.Id.Protein>
6NUR|6NUR_protein|mol2

> <Gold.PLP.Fitness>
36.8756

> <Gold.PLP.PLP>
-31.0709

> <Gold.PLP.part.hbond>
-1.9724

> <Gold.PLP.part.metal>
0.0000

> <Gold.PLP.part.buried>
-2.3631

> <Gold.PLP.part.nonpolar>
-27.3693

> <Gold.PLP.part.repulsive>
0.3971

> <Gold.PLP.ligand.clash>
0.0000

> <Gold.PLP.ligand.torsion>
0.0396

> <Gold.PLP.Chemscore.Hbond>
1.9600

> <Gold.PLP.Chemscore.CHOScore>
0.0000

> <Gold.PLP.Chemscore.Metal>
0.0000

> <Gold.Chemscore.Hbonds>
donor molecule, donor type, donor heavy atom, donor atom, acceptor molecule, acceptor atom, score
      L1  H     8    33       P1  7948  1.00
      L1  H    11    34       P1  7948  0.96

> <Gold.PLP.Chemscore.Internal.Correction>
0.0040

> <Gold.Rescore>
     Score         DG    S(hbond)    S(metal)    S(lipo)     H(rot)  DE(clash)    DE(int)     intcor
     16.38     -17.75       1.90        0.00      72.59       1.00       0.15       1.22       ----

> <Gold.Chemscore.Fitness>
16.3797

> <Gold.Chemscore.DG>
-17.7496

> <Gold.Chemscore.ZeroCoef>
-5.4800

> <Gold.Chemscore.Hbond>
1.8972

> <Gold.Chemscore.Metal>
0.0000

> <Gold.Chemscore.Lipo>
72.5883

> <Gold.Chemscore.Internal_Hbond>
0.0000

> <Gold.Chemscore.DEClash>
0.1517

> <Gold.Chemscore.DEInternal>
1.2182

> <Gold.Chemscore.Rot>
1.0000

> <Gold.Chemscore.Internal.Correction>
   9.000000E+99

> <Gold.Chemscore.Hbonds>
donor molecule, donor type, donor heavy atom, donor atom, acceptor molecule, acceptor atom, score
      L1  H     8    33       P1  7948  0.94
      L1  H    11    34       P1  7948  0.92

> <Gold.Chemscore.Hbond.Weighted>
-6.3368

> <Gold.Chemscore.Metal.Weighted>
-0.0000

> <Gold.Chemscore.Lipo.Weighted>
-8.4928

> <Gold.Chemscore.Internal_Hbond.Weighted>
0.0000

> <Gold.Chemscore.DEClash.Weighted>
0.1517

> <Gold.Chemscore.DEInternal.Weighted>
1.2182

> <Gold.Chemscore.Rot.Weighted>
2.5600

> <Gold.Chemscore.Internal.Correction.Weighted>
   9.000000E+99

> <Gold.Protein.RotatedTorsions>
[ 6907 6896 6895 6894 ] final   76.90 input  -60.11 | X-H torsion
[ 7974 7965 7964 7962 ] final -115.35 input  175.53 | X-H torsion
[ 8008 7997 7996 7995 ] final -143.53 input   59.86 | X-H torsion
[ 10167 10162 10161 10158 ] final  -45.56 input  -65.29 | X-H torsion
[ 10718 10713 10712 10709 ] final  -56.73 input   66.30 | X-H torsion
[ 10763 10752 10751 10750 ] final -119.70 input  -60.55 | X-H torsion
[ 11005 11000 10999 10996 ] final -165.62 input  -57.11 | X-H torsion

> <Gold.Protein.ActiveResidues>
 VAL166  LYS551  ARG553  GLY616  TRP617  ASP618  TYR619  PRO620  LYS621  CYS622 
 ASP623  PHE694  ASN695  SER759  ASP760  ASP761  ALA762  ILE779  LEU786  VAL792 
 PHE793  MET794  SER795  GLU796  ALA797  LYS798  CYS799  TRP800  GLU811  SER814 

> <Gold.Protein.RotatedAtoms>
  152.5094  134.3898  159.9379 H   0  0  0  0  0  0  0  0  0  0  0  0  # atno 6907 bound_to 6896
  151.3858  133.3799  159.2723 H   0  0  0  0  0  0  0  0  0  0  0  0  # atno 6908 bound_to 6896
  150.9470  134.8894  159.7707 H   0  0  0  0  0  0  0  0  0  0  0  0  # atno 6909 bound_to 6896
  145.1095  140.8602  143.3878 H   0  0  0  0  0  0  0  0  0  0  0  0  # atno 7974 bound_to 7965
  155.5122  140.0584  157.2921 H   0  0  0  0  0  0  0  0  0  0  0  0  # atno 8008 bound_to 7997
  154.4548  140.1967  156.0360 H   0  0  0  0  0  0  0  0  0  0  0  0  # atno 8009 bound_to 7997
  156.0777  140.3251  155.7658 H   0  0  0  0  0  0  0  0  0  0  0  0  # atno 8010 bound_to 7997
  140.6853  143.2873  151.3657 H   0  0  0  0  0  0  0  0  0  0  0  0  # atno 10167 bound_to 10162
  156.1266  130.4162  150.0344 H   0  0  0  0  0  0  0  0  0  0  0  0  # atno 10718 bound_to 10713
  154.8624  135.4229  154.2340 H   0  0  0  0  0  0  0  0  0  0  0  0  # atno 10763 bound_to 10752
  153.3319  135.6988  153.6946 H   0  0  0  0  0  0  0  0  0  0  0  0  # atno 10764 bound_to 10752
  153.5959  135.3546  155.2901 H   0  0  0  0  0  0  0  0  0  0  0  0  # atno 10765 bound_to 10752
  140.5736  134.5213  157.5166 H   0  0  0  0  0  0  0  0  0  0  0  0  # atno 11005 bound_to 11000
  145.0864  139.2922  143.5757 LP  0  0  0  0  0  0  0  0  0  0  0  0  # atno 17320 bound_to 7965
  146.3527  140.0387  142.8644 LP  0  0  0  0  0  0  0  0  0  0  0  0  # atno 17321 bound_to 7965
  139.6206  144.0914  152.2388 LP  0  0  0  0  0  0  0  0  0  0  0  0  # atno 17342 bound_to 10162
  140.0357  144.6046  150.7451 LP  0  0  0  0  0  0  0  0  0  0  0  0  # atno 17343 bound_to 10162
  156.8268  130.9378  151.3639 LP  0  0  0  0  0  0  0  0  0  0  0  0  # atno 17370 bound_to 10713
  157.6447  130.8834  149.9515 LP  0  0  0  0  0  0  0  0  0  0  0  0  # atno 17371 bound_to 10713
  139.9350  134.7892  156.0827 LP  0  0  0  0  0  0  0  0  0  0  0  0  # atno 17394 bound_to 11000
  141.1040  133.6666  156.2821 LP  0  0  0  0  0  0  0  0  0  0  0  0  # atno 17395 bound_to 11000

$$$$
