AV-unprocessed.smi:839|AV-procd|sdf|3910|dock6
  -GOLD-   22720 1373D 1   1.00000     0.00000
 Structure written by MMmdl.
 47 49  0  0  0  0  0  0  0  0  1 V2000
  147.0513  136.5756  155.8028 O   0  0  0  0  0  0  0  0  0  0  0  0
  147.6106  136.6311  154.7078 C   0  0  0  0  0  0  0  0  0  0  0  0
  147.2581  135.8720  153.6599 N   0  0  0  0  0  0  0  0  0  0  0  0
  146.1598  134.9070  153.6498 C   0  0  0  0  0  0  0  0  0  0  0  0
  146.4909  133.6079  152.8916 C   0  0  0  0  0  0  0  0  0  0  0  0
  147.4025  132.8783  153.2864 O   0  0  0  0  0  0  0  0  0  0  0  0
  145.7507  133.3014  151.8059 N   0  0  0  0  0  0  0  0  0  0  0  0
  145.9157  132.1147  150.9670 C   0  0  0  0  0  0  0  0  0  0  0  0
  144.7317  132.1217  149.9994 C   0  0  0  0  0  0  0  0  0  0  0  0
  144.3191  133.5849  149.9206 C   0  0  0  0  0  0  0  0  0  0  0  0
  144.6734  134.1480  151.2969 C   0  0  0  0  0  0  0  0  0  0  0  0
  148.6471  137.4301  154.4012 N   0  0  0  0  0  0  0  0  0  0  0  0
  149.3023  138.3902  155.2194 C   0  0  0  0  0  0  0  0  0  0  0  0
  149.2219  138.4281  156.6308 C   0  0  0  0  0  0  0  0  0  0  0  0
  149.9044  139.4448  157.3260 C   0  0  0  0  0  0  0  0  0  0  0  0
  150.6435  140.4073  156.5985 C   0  0  0  0  0  0  0  0  0  0  0  0
  151.3320  141.4367  157.2772 N   0  0  0  0  0  0  0  0  0  0  0  0
  150.8596  142.8092  157.1025 C   0  0  0  0  0  0  0  0  0  0  0  0
  151.8849  143.8064  157.6684 C   0  0  0  0  0  0  0  0  0  0  0  0
  152.1607  143.4896  159.0285 O   0  0  0  0  0  0  0  0  0  0  0  0
  152.7256  142.1900  159.1640 C   0  0  0  0  0  0  0  0  0  0  0  0
  151.7334  141.1332  158.6487 C   0  0  0  0  0  0  0  0  0  0  0  0
  150.7135  140.3702  155.2453 N   0  0  0  0  0  0  0  0  0  0  0  0
  150.0574  139.3948  154.5829 C   0  0  0  0  0  0  0  0  0  0  0  0
  147.7725  135.9813  152.7983 H   0  0  0  0  0  0  0  0  0  0  0  0
  145.9231  134.6607  154.6851 H   0  0  0  0  0  0  0  0  0  0  0  0
  145.2682  135.3686  153.2228 H   0  0  0  0  0  0  0  0  0  0  0  0
  146.8561  132.1920  150.4196 H   0  0  0  0  0  0  0  0  0  0  0  0
  145.9335  131.1932  151.5498 H   0  0  0  0  0  0  0  0  0  0  0  0
  144.9796  131.6991  149.0253 H   0  0  0  0  0  0  0  0  0  0  0  0
  143.9132  131.5351  150.4189 H   0  0  0  0  0  0  0  0  0  0  0  0
  144.9107  134.0900  149.1558 H   0  0  0  0  0  0  0  0  0  0  0  0
  143.2662  133.7154  149.6687 H   0  0  0  0  0  0  0  0  0  0  0  0
  143.8189  134.0793  151.9720 H   0  0  0  0  0  0  0  0  0  0  0  0
  144.9699  135.1961  151.2303 H   0  0  0  0  0  0  0  0  0  0  0  0
  149.0449  137.3054  153.4817 H   0  0  0  0  0  0  0  0  0  0  0  0
  148.6468  137.7106  157.1944 H   0  0  0  0  0  0  0  0  0  0  0  0
  149.8604  139.4670  158.4045 H   0  0  0  0  0  0  0  0  0  0  0  0
  150.6966  143.0209  156.0449 H   0  0  0  0  0  0  0  0  0  0  0  0
  149.9022  142.9295  157.6114 H   0  0  0  0  0  0  0  0  0  0  0  0
  152.8070  143.7899  157.0852 H   0  0  0  0  0  0  0  0  0  0  0  0
  151.4915  144.8214  157.6125 H   0  0  0  0  0  0  0  0  0  0  0  0
  153.6704  142.1339  158.6208 H   0  0  0  0  0  0  0  0  0  0  0  0
  152.9520  142.0098  160.2148 H   0  0  0  0  0  0  0  0  0  0  0  0
  150.8437  141.1182  159.2795 H   0  0  0  0  0  0  0  0  0  0  0  0
  152.1932  140.1491  158.7276 H   0  0  0  0  0  0  0  0  0  0  0  0
  150.1431  139.4171  153.5062 H   0  0  0  0  0  0  0  0  0  0  0  0
  1  2  2  0  0  0  0
  2  3  1  0  0  0  0
  2 12  1  0  0  0  0
  3  4  1  0  0  0  0
  3 25  1  0  0  0  0
  4  5  1  0  0  0  0
  4 26  1  0  0  0  0
  4 27  1  0  0  0  0
  5  6  2  0  0  0  0
  5  7  1  0  0  0  0
  7 11  1  0  0  0  0
  7  8  1  0  0  0  0
  8  9  1  0  0  0  0
  8 28  1  0  0  0  0
  8 29  1  0  0  0  0
  9 10  1  0  0  0  0
  9 30  1  0  0  0  0
  9 31  1  0  0  0  0
 10 11  1  0  0  0  0
 10 32  1  0  0  0  0
 10 33  1  0  0  0  0
 11 34  1  0  0  0  0
 11 35  1  0  0  0  0
 12 13  1  0  0  0  0
 12 36  1  0  0  0  0
 13 24  1  0  0  0  0
 13 14  2  0  0  0  0
 14 15  1  0  0  0  0
 14 37  1  0  0  0  0
 15 16  2  0  0  0  0
 15 38  1  0  0  0  0
 16 17  1  0  0  0  0
 16 23  1  0  0  0  0
 17 22  1  0  0  0  0
 17 18  1  0  0  0  0
 18 19  1  0  0  0  0
 18 39  1  0  0  0  0
 18 40  1  0  0  0  0
 19 20  1  0  0  0  0
 19 41  1  0  0  0  0
 19 42  1  0  0  0  0
 20 21  1  0  0  0  0
 21 22  1  0  0  0  0
 21 43  1  0  0  0  0
 21 44  1  0  0  0  0
 22 45  1  0  0  0  0
 22 46  1  0  0  0  0
 23 24  2  0  0  0  0
 24 47  1  0  0  0  0
M  END
> <s_m_source_file>
AV-unprocessed.smi

> <i_m_source_file_index>
839

> <i_lp_mmshare_version>
43012

> <i_f3d_flags>
0

> <s_epik_input>
W0NIMl0xW0NIMl1bQ0gyXVtDSDJdTjFDKD1PKVtDSDJdW05IXUMoPU8pW05IXWMyW2NIXVtjSF1jKG5bY0hdMilOM1tDSDJdW0NIMl1PW0NIMl1bQ0gyXTM=

> <s_epik_cmdline>
J2VwaWtfcHl0aG9uJywgJy1waCcsICc3LjAnLCAnLXRuJywgJzgnLCAnLW1hJywgJzIwMCcsICctbWV0YWxfYmluZGluZycsICctaW1hZScsICc8aW5maWxlLm1hZT4nLCAnLW9tYWUnLCAnPG91dGZpbGUubWFlPic=

> <r_lp_tautomer_probability>
1

> <r_epik_Ionization_Penalty>
0.00586185

> <r_epik_Ionization_Penalty_Charging>
0

> <r_epik_Ionization_Penalty_Neutral>
0.00586185

> <r_epik_State_Penalty>
0.00428328

> <r_epik_Charging_Adjusted_Penalty>
0.00428328

> <i_epik_Tot_Q>
0

> <i_epik_Tot_abs_Q>
0

> <r_epik_Metal_State_Penalty>
-0

> <b_epik_Metal_Only>
0

> <s_lp_Force_Field>
OPLS_2005

> <r_lp_Energy>
41.3163

> <b_lp_Chiralities_Consistent>
1

> <s_lp_Variant>
AV-unprocessed.smi:839-1

> <Gold.Version>
5.8.1

> <Gold.Id.Protein>
6NUR|6NUR_protein|mol2

> <Gold.PLP.Fitness>
44.5552

> <Gold.PLP.PLP>
-35.2565

> <Gold.PLP.part.hbond>
-2.9017

> <Gold.PLP.part.metal>
0.0000

> <Gold.PLP.part.buried>
-5.8968

> <Gold.PLP.part.nonpolar>
-27.5015

> <Gold.PLP.part.repulsive>
0.2197

> <Gold.PLP.ligand.clash>
0.0000

> <Gold.PLP.ligand.torsion>
0.6397

> <Gold.PLP.Chemscore.Hbond>
2.4120

> <Gold.PLP.Chemscore.CHOScore>
1.0000

> <Gold.PLP.Chemscore.Metal>
0.0000

> <Gold.Chemscore.Hbonds>
donor molecule, donor type, donor heavy atom, donor atom, acceptor molecule, acceptor atom, score
      L1  H     3    25       P1  7948  0.98
      L1  H    12    36       P1  7948  0.90
      P1  H  7989  7998       L1    23  0.45
      L1  C    24    47       P1  7957  1.00

> <Gold.PLP.Chemscore.Internal.Correction>
0.3422

> <Gold.Rescore>
     Score         DG    S(hbond)    S(metal)    S(lipo)     H(rot)  DE(clash)    DE(int)     intcor
     17.00     -18.55       1.91        0.00      89.94       1.50       0.06       1.49       ----

> <Gold.Chemscore.Fitness>
17.0041

> <Gold.Chemscore.DG>
-18.5549

> <Gold.Chemscore.ZeroCoef>
-5.4800

> <Gold.Chemscore.Hbond>
1.9138

> <Gold.Chemscore.Metal>
0.0000

> <Gold.Chemscore.Lipo>
89.9399

> <Gold.Chemscore.Internal_Hbond>
0.0000

> <Gold.Chemscore.DEClash>
0.0637

> <Gold.Chemscore.DEInternal>
1.4870

> <Gold.Chemscore.Rot>
1.5001

> <Gold.Chemscore.Internal.Correction>
   9.000000E+99

> <Gold.Chemscore.Hbonds>
donor molecule, donor type, donor heavy atom, donor atom, acceptor molecule, acceptor atom, score
      L1  H     3    25       P1  7948  0.92
      L1  H    12    36       P1  7948  0.88
      P1  H  7989  7998       L1    23  0.01

> <Gold.Chemscore.Hbond.Weighted>
-6.3921

> <Gold.Chemscore.Metal.Weighted>
-0.0000

> <Gold.Chemscore.Lipo.Weighted>
-10.5230

> <Gold.Chemscore.Internal_Hbond.Weighted>
0.0000

> <Gold.Chemscore.DEClash.Weighted>
0.0637

> <Gold.Chemscore.DEInternal.Weighted>
1.4870

> <Gold.Chemscore.Rot.Weighted>
3.8402

> <Gold.Chemscore.Internal.Correction.Weighted>
   9.000000E+99

> <Gold.Protein.RotatedTorsions>
[ 6907 6896 6895 6894 ] final  -97.14 input  -60.11 | X-H torsion
[ 7974 7965 7964 7962 ] final  149.74 input  175.53 | X-H torsion
[ 8008 7997 7996 7995 ] final   29.76 input   59.86 | X-H torsion
[ 10167 10162 10161 10158 ] final  148.24 input  -65.29 | X-H torsion
[ 10718 10713 10712 10709 ] final  -17.93 input   66.30 | X-H torsion
[ 10763 10752 10751 10750 ] final  120.25 input  -60.55 | X-H torsion
[ 11005 11000 10999 10996 ] final   10.03 input  -57.11 | X-H torsion

> <Gold.Protein.ActiveResidues>
 VAL166  LYS551  ARG553  GLY616  TRP617  ASP618  TYR619  PRO620  LYS621  CYS622 
 ASP623  PHE694  ASN695  SER759  ASP760  ASP761  ALA762  ILE779  LEU786  VAL792 
 PHE793  MET794  SER795  GLU796  ALA797  LYS798  CYS799  TRP800  GLU811  SER814 

> <Gold.Protein.RotatedAtoms>
  150.7008  134.1394  159.4098 H   0  0  0  0  0  0  0  0  0  0  0  0  # atno 6907 bound_to 6896
  151.9378  135.0225  160.0543 H   0  0  0  0  0  0  0  0  0  0  0  0  # atno 6908 bound_to 6896
  152.2119  133.4883  159.5152 H   0  0  0  0  0  0  0  0  0  0  0  0  # atno 6909 bound_to 6896
  144.8415  139.6319  143.6014 H   0  0  0  0  0  0  0  0  0  0  0  0  # atno 7974 bound_to 7965
  155.0796  140.3209  155.4605 H   0  0  0  0  0  0  0  0  0  0  0  0  # atno 8008 bound_to 7997
  156.2770  140.2097  156.5870 H   0  0  0  0  0  0  0  0  0  0  0  0  # atno 8009 bound_to 7997
  154.6989  140.0509  157.0425 H   0  0  0  0  0  0  0  0  0  0  0  0  # atno 8010 bound_to 7997
  139.4878  144.5694  151.7083 H   0  0  0  0  0  0  0  0  0  0  0  0  # atno 10167 bound_to 10162
  156.5666  130.4739  149.6382 H   0  0  0  0  0  0  0  0  0  0  0  0  # atno 10718 bound_to 10713
  153.5957  135.3457  155.2927 H   0  0  0  0  0  0  0  0  0  0  0  0  # atno 10763 bound_to 10752
  154.8645  135.4215  154.2468 H   0  0  0  0  0  0  0  0  0  0  0  0  # atno 10764 bound_to 10752
  153.3285  135.7043  153.7039 H   0  0  0  0  0  0  0  0  0  0  0  0  # atno 10765 bound_to 10752
  140.5191  134.0576  155.7839 H   0  0  0  0  0  0  0  0  0  0  0  0  # atno 11005 bound_to 11000
  146.2707  139.6628  142.9298 LP  0  0  0  0  0  0  0  0  0  0  0  0  # atno 17320 bound_to 7965
  145.4684  141.0435  143.2712 LP  0  0  0  0  0  0  0  0  0  0  0  0  # atno 17321 bound_to 7965
  140.5279  144.0777  150.6043 LP  0  0  0  0  0  0  0  0  0  0  0  0  # atno 17342 bound_to 10162
  140.3757  143.2830  152.0227 LP  0  0  0  0  0  0  0  0  0  0  0  0  # atno 17343 bound_to 10162
  156.2752  130.7039  151.1848 LP  0  0  0  0  0  0  0  0  0  0  0  0  # atno 17370 bound_to 10713
  157.7357  131.0569  150.5454 LP  0  0  0  0  0  0  0  0  0  0  0  0  # atno 17371 bound_to 10713
  141.1344  133.9247  157.2466 LP  0  0  0  0  0  0  0  0  0  0  0  0  # atno 17394 bound_to 11000
  139.9616  135.0153  156.9275 LP  0  0  0  0  0  0  0  0  0  0  0  0  # atno 17395 bound_to 11000

$$$$
