AV-unprocessed.smi:1560|AV-procd|sdf|6280|dock3
  -GOLD-   22720 6473D 1   1.00000     0.00000
 Structure written by MMmdl.
 46 47  0  0  0  0  0  0  0  0  2 V2000
  147.3940  129.3976  155.0663 C   0  0  0  0  0  0  0  0  0  0  0  0
  146.7891  130.7359  155.5279 C   0  0  0  0  0  0  0  0  0  0  0  0
  147.1959  131.9906  154.6900 C   0  0  2  0  0  0  0  0  0  0  0  0
  148.7076  131.8303  154.3739 C   0  0  0  0  0  0  0  0  0  0  0  0
  147.0175  133.2695  155.5728 C   0  0  0  0  0  0  0  0  0  0  0  0
  147.5933  133.1437  156.9109 N   0  0  0  0  0  0  0  0  0  0  0  0
  147.6964  134.1279  157.8164 C   0  0  0  0  0  0  0  0  0  0  0  0
  147.3696  135.2941  157.5943 O   0  0  0  0  0  0  0  0  0  0  0  0
  148.2583  133.7322  159.1860 C   0  0  0  0  0  0  0  0  0  0  0  0
  147.9750  134.7558  160.2035 N   0  0  0  0  0  0  0  0  0  0  0  0
  147.0285  134.4499  161.1970 C   0  0  0  0  0  0  0  0  0  0  0  0
  146.7197  135.3219  162.1757 C   0  0  0  0  0  0  0  0  0  0  0  0
  147.3959  136.6133  162.1887 C   0  0  0  0  0  0  0  0  0  0  0  0
  147.1248  137.4229  163.0734 O   0  0  0  0  0  0  0  0  0  0  0  0
  148.3087  136.8620  161.2045 N   0  5  0  0  0  0  0  0  0  0  0  0
  148.6147  135.9648  160.2169 C   0  0  0  0  0  0  0  0  0  0  0  0
  149.4459  136.2078  159.3408 O   0  0  0  0  0  0  0  0  0  0  0  0
  146.4034  132.0682  153.4299 N   0  0  0  0  0  0  0  0  0  0  0  0
  146.3878  130.8427  152.6224 C   0  0  0  0  0  0  0  0  0  0  0  0
  145.4355  130.9570  151.4196 C   0  0  0  0  0  0  0  0  0  0  0  0
  145.7987  132.0784  150.6231 O   0  0  0  0  0  0  0  0  0  0  0  0
  145.7716  133.2970  151.3568 C   0  0  0  0  0  0  0  0  0  0  0  0
  146.7315  133.2002  152.5544 C   0  0  0  0  0  0  0  0  0  0  0  0
  147.0496  128.5856  155.7071 H   0  0  0  0  0  0  0  0  0  0  0  0
  148.4824  129.4079  155.1157 H   0  0  0  0  0  0  0  0  0  0  0  0
  147.1051  129.1494  154.0453 H   0  0  0  0  0  0  0  0  0  0  0  0
  145.7038  130.6397  155.5614 H   0  0  0  0  0  0  0  0  0  0  0  0
  147.0809  130.8722  156.5692 H   0  0  0  0  0  0  0  0  0  0  0  0
  149.2813  131.5358  155.2538 H   0  0  0  0  0  0  0  0  0  0  0  0
  149.1510  132.7595  154.0157 H   0  0  0  0  0  0  0  0  0  0  0  0
  148.8816  131.0717  153.6104 H   0  0  0  0  0  0  0  0  0  0  0  0
  147.5156  134.1226  155.1145 H   0  0  0  0  0  0  0  0  0  0  0  0
  145.9665  133.5483  155.6498 H   0  0  0  0  0  0  0  0  0  0  0  0
  147.8855  132.2188  157.1916 H   0  0  0  0  0  0  0  0  0  0  0  0
  147.8580  132.7658  159.4994 H   0  0  0  0  0  0  0  0  0  0  0  0
  149.3334  133.5782  159.0832 H   0  0  0  0  0  0  0  0  0  0  0  0
  146.5801  133.4702  161.1196 H   0  0  0  0  0  0  0  0  0  0  0  0
  145.9929  135.0701  162.9340 H   0  0  0  0  0  0  0  0  0  0  0  0
  147.3885  130.6193  152.2529 H   0  0  0  0  0  0  0  0  0  0  0  0
  146.0712  129.9879  153.2173 H   0  0  0  0  0  0  0  0  0  0  0  0
  145.4879  130.0556  150.8087 H   0  0  0  0  0  0  0  0  0  0  0  0
  144.4018  131.0579  151.7539 H   0  0  0  0  0  0  0  0  0  0  0  0
  146.0671  134.1150  150.6997 H   0  0  0  0  0  0  0  0  0  0  0  0
  144.7548  133.5068  151.6928 H   0  0  0  0  0  0  0  0  0  0  0  0
  146.6826  134.1422  153.0970 H   0  0  0  0  0  0  0  0  0  0  0  0
  147.7496  133.1052  152.1777 H   0  0  0  0  0  0  0  0  0  0  0  0
  1  2  1  0  0  0  0
  1 24  1  0  0  0  0
  1 25  1  0  0  0  0
  1 26  1  0  0  0  0
  2  3  1  0  0  0  0
  2 27  1  0  0  0  0
  2 28  1  0  0  0  0
  3  4  1  0  0  0  0
  3  5  1  0  0  0  0
  3 18  1  0  0  0  0
  4 29  1  0  0  0  0
  4 30  1  0  0  0  0
  4 31  1  0  0  0  0
  5  6  1  0  0  0  0
  5 32  1  0  0  0  0
  5 33  1  0  0  0  0
  6  7  1  0  0  0  0
  6 34  1  0  0  0  0
  7  8  2  0  0  0  0
  7  9  1  0  0  0  0
  9 10  1  0  0  0  0
  9 35  1  0  0  0  0
  9 36  1  0  0  0  0
 10 16  1  0  0  0  0
 10 11  1  0  0  0  0
 11 12  2  0  0  0  0
 11 37  1  0  0  0  0
 12 13  1  0  0  0  0
 12 38  1  0  0  0  0
 13 14  2  0  0  0  0
 13 15  1  0  0  0  0
 15 16  1  0  0  0  0
 16 17  2  0  0  0  0
 18 23  1  0  0  0  0
 18 19  1  0  0  0  0
 19 20  1  0  0  0  0
 19 39  1  0  0  0  0
 19 40  1  0  0  0  0
 20 21  1  0  0  0  0
 20 41  1  0  0  0  0
 20 42  1  0  0  0  0
 21 22  1  0  0  0  0
 22 23  1  0  0  0  0
 22 43  1  0  0  0  0
 22 44  1  0  0  0  0
 23 45  1  0  0  0  0
 23 46  1  0  0  0  0
M  CHG  1  15  -1
M  END
> <s_m_source_file>
AV-unprocessed.smi

> <i_m_source_file_index>
1560

> <i_lp_mmshare_version>
43012

> <i_f3d_flags>
0

> <s_epik_input>
W0NIMl0xW0NIMl1PW0NIMl1bQ0gyXU4xW0NAQF0oW0NIM10pKFtDSDJdW0NIM10pW0NIMl1bTkhdQyg9TylbQ0gyXW4yW2NIXVtjSF1jKD1PKVtuSF1jMj1P

> <s_epik_cmdline>
J2VwaWtfcHl0aG9uJywgJy1waCcsICc3LjAnLCAnLXRuJywgJzgnLCAnLW1hJywgJzIwMCcsICctbWV0YWxfYmluZGluZycsICctaW1hZScsICc8aW5maWxlLm1hZT4nLCAnLW9tYWUnLCAnPG91dGZpbGUubWFlPic=

> <r_lp_tautomer_probability>
0.999537

> <r_epik_Ionization_Penalty>
3.35108

> <r_epik_Ionization_Penalty_Charging>
2.65778e-08

> <r_epik_Ionization_Penalty_Neutral>
3.35108

> <r_epik_State_Penalty>
3.36199

> <r_epik_Charging_Adjusted_Penalty>
3.36199

> <i_epik_Tot_Q>
-1

> <i_epik_Tot_abs_Q>
1

> <r_epik_Metal_State_Penalty>
0.748914

> <b_epik_Metal_Only>
1

> <s_lp_Force_Field>
OPLS_2005

> <r_lp_Energy>
50.983

> <b_lp_Chiralities_Consistent>
1

> <s_lp_Variant>
AV-unprocessed.smi:1560-6

> <Gold.Version>
5.8.1

> <Gold.Id.Protein>
6NUR|6NUR_protein|mol2

> <Gold.PLP.Fitness>
37.0965

> <Gold.PLP.PLP>
-29.4284

> <Gold.PLP.part.hbond>
-3.5852

> <Gold.PLP.part.metal>
0.0000

> <Gold.PLP.part.buried>
-5.4132

> <Gold.PLP.part.nonpolar>
-22.1420

> <Gold.PLP.part.repulsive>
0.2628

> <Gold.PLP.ligand.clash>
0.0000

> <Gold.PLP.ligand.torsion>
0.7802

> <Gold.PLP.Chemscore.Hbond>
3.0333

> <Gold.PLP.Chemscore.CHOScore>
0.0000

> <Gold.PLP.Chemscore.Metal>
0.0000

> <Gold.Chemscore.Hbonds>
donor molecule, donor type, donor heavy atom, donor atom, acceptor molecule, acceptor atom, score
      P1  H  6896  6909       L1    17  1.00
      P1  H  6931  6943       L1    15  1.80

> <Gold.PLP.Chemscore.Internal.Correction>
0.1285

> <Gold.Rescore>
     Score         DG    S(hbond)    S(metal)    S(lipo)     H(rot)  DE(clash)    DE(int)     intcor
      8.34     -11.86       1.84        0.00      55.07       2.42       0.40       3.12       ----

> <Gold.Chemscore.Fitness>
8.3429

> <Gold.Chemscore.DG>
-11.8605

> <Gold.Chemscore.ZeroCoef>
-5.4800

> <Gold.Chemscore.Hbond>
1.8360

> <Gold.Chemscore.Metal>
0.0000

> <Gold.Chemscore.Lipo>
55.0662

> <Gold.Chemscore.Internal_Hbond>
0.0000

> <Gold.Chemscore.DEClash>
0.4020

> <Gold.Chemscore.DEInternal>
3.1156

> <Gold.Chemscore.Rot>
2.4197

> <Gold.Chemscore.Internal.Correction>
   9.000000E+99

> <Gold.Chemscore.Hbonds>
donor molecule, donor type, donor heavy atom, donor atom, acceptor molecule, acceptor atom, score
      P1  H  6896  6909       L1    17  0.39
      P1  H  6931  6943       L1    15  0.18

> <Gold.Chemscore.Hbond.Weighted>
-6.1321

> <Gold.Chemscore.Metal.Weighted>
-0.0000

> <Gold.Chemscore.Lipo.Weighted>
-6.4428

> <Gold.Chemscore.Internal_Hbond.Weighted>
0.0000

> <Gold.Chemscore.DEClash.Weighted>
0.4020

> <Gold.Chemscore.DEInternal.Weighted>
3.1156

> <Gold.Chemscore.Rot.Weighted>
6.1943

> <Gold.Chemscore.Internal.Correction.Weighted>
   9.000000E+99

> <Gold.Protein.RotatedTorsions>
[ 6907 6896 6895 6894 ] final   77.94 input  -60.11 | X-H torsion
[ 7974 7965 7964 7962 ] final  -92.64 input  175.53 | X-H torsion
[ 8008 7997 7996 7995 ] final  -35.71 input   59.86 | X-H torsion
[ 10167 10162 10161 10158 ] final   80.20 input  -65.29 | X-H torsion
[ 10718 10713 10712 10709 ] final -163.92 input   66.30 | X-H torsion
[ 10763 10752 10751 10750 ] final  159.32 input  -60.55 | X-H torsion
[ 11005 11000 10999 10996 ] final -134.57 input  -57.11 | X-H torsion

> <Gold.Protein.ActiveResidues>
 VAL166  LYS551  ARG553  GLY616  TRP617  ASP618  TYR619  PRO620  LYS621  CYS622 
 ASP623  PHE694  ASN695  SER759  ASP760  ASP761  ALA762  ILE779  LEU786  VAL792 
 PHE793  MET794  SER795  GLU796  ALA797  LYS798  CYS799  TRP800  GLU811  SER814 

> <Gold.Protein.RotatedAtoms>
  152.5139  134.3740  159.9327 H   0  0  0  0  0  0  0  0  0  0  0  0  # atno 6907 bound_to 6896
  151.3695  133.3854  159.2706 H   0  0  0  0  0  0  0  0  0  0  0  0  # atno 6908 bound_to 6896
  150.9589  134.8999  159.7777 H   0  0  0  0  0  0  0  0  0  0  0  0  # atno 6909 bound_to 6896
  145.3972  140.9534  143.2307 H   0  0  0  0  0  0  0  0  0  0  0  0  # atno 7974 bound_to 7965
  154.4089  140.1650  156.2256 H   0  0  0  0  0  0  0  0  0  0  0  0  # atno 8008 bound_to 7997
  155.9326  140.3413  155.6238 H   0  0  0  0  0  0  0  0  0  0  0  0  # atno 8009 bound_to 7997
  155.7088  140.0754  157.2370 H   0  0  0  0  0  0  0  0  0  0  0  0  # atno 8010 bound_to 7997
  139.9523  144.6018  150.8149 H   0  0  0  0  0  0  0  0  0  0  0  0  # atno 10167 bound_to 10162
  156.6316  130.8932  151.2978 H   0  0  0  0  0  0  0  0  0  0  0  0  # atno 10718 bound_to 10713
  154.2299  135.2778  155.2894 H   0  0  0  0  0  0  0  0  0  0  0  0  # atno 10763 bound_to 10752
  154.5633  135.5640  153.7030 H   0  0  0  0  0  0  0  0  0  0  0  0  # atno 10764 bound_to 10752
  153.0022  135.6303  154.2440 H   0  0  0  0  0  0  0  0  0  0  0  0  # atno 10765 bound_to 10752
  140.8977  134.1730  157.4483 H   0  0  0  0  0  0  0  0  0  0  0  0  # atno 11005 bound_to 11000
  144.8399  139.5489  143.6905 LP  0  0  0  0  0  0  0  0  0  0  0  0  # atno 17320 bound_to 7965
  146.2769  139.6776  142.9256 LP  0  0  0  0  0  0  0  0  0  0  0  0  # atno 17321 bound_to 7965
  140.7579  143.3096  151.2877 LP  0  0  0  0  0  0  0  0  0  0  0  0  # atno 17342 bound_to 10162
  139.6619  144.0174  152.2698 LP  0  0  0  0  0  0  0  0  0  0  0  0  # atno 17343 bound_to 10162
  157.7198  130.9544  150.1394 LP  0  0  0  0  0  0  0  0  0  0  0  0  # atno 17370 bound_to 10713
  156.2230  130.3675  149.8534 LP  0  0  0  0  0  0  0  0  0  0  0  0  # atno 17371 bound_to 10713
  139.8738  134.9885  156.5416 LP  0  0  0  0  0  0  0  0  0  0  0  0  # atno 17394 bound_to 11000
  140.8268  133.8310  155.8947 LP  0  0  0  0  0  0  0  0  0  0  0  0  # atno 17395 bound_to 11000

$$$$
