AV-unprocessed.smi:2499|AV-procd|sdf|9836|dock6
  -GOLD-   2272013463D 1   1.00000     0.00000
 Structure written by MMmdl.
 27 28  0  0  0  0  0  0  0  0  1 V2000
  151.4161  140.8780  158.1452 C   0  0  0  0  0  0  0  0  0  0  0  0
  151.3780  142.2353  157.4296 C   0  0  1  0  0  0  0  0  0  0  0  0
  150.2363  142.2504  156.5201 N   0  0  0  0  0  0  0  0  0  0  0  0
  150.0234  141.3912  155.5115 C   0  0  0  0  0  0  0  0  0  0  0  0
  150.8031  140.4642  155.2709 O   0  0  0  0  0  0  0  0  0  0  0  0
  148.8373  141.6988  154.8633 N   0  0  0  0  0  0  0  0  0  0  0  0
  148.2067  140.7600  154.2285 C   0  0  0  0  0  0  0  0  0  0  0  0
  147.0289  140.8683  153.5064 N   0  0  0  0  0  0  0  0  0  0  0  0
  146.7164  139.6312  153.0144 C   0  0  0  0  0  0  0  0  0  0  0  0
  147.6565  138.7781  153.4108 C   0  0  0  0  0  0  0  0  0  0  0  0
  148.5847  139.4384  154.1579 O   0  0  0  0  0  0  0  0  0  0  0  0
  151.3657  143.3761  158.4337 C   0  0  0  0  0  0  0  0  0  0  0  0
  152.0999  144.6691  158.1669 C   0  0  0  0  0  0  0  0  0  0  0  0
  152.6003  143.7216  159.2325 C   0  0  0  0  0  0  0  0  0  0  0  0
  152.2867  140.8018  158.7972 H   0  0  0  0  0  0  0  0  0  0  0  0
  151.4706  140.0568  157.4296 H   0  0  0  0  0  0  0  0  0  0  0  0
  150.5272  140.7274  158.7590 H   0  0  0  0  0  0  0  0  0  0  0  0
  152.2936  142.3137  156.8401 H   0  0  0  0  0  0  0  0  0  0  0  0
  149.5519  142.9785  156.6659 H   0  0  0  0  0  0  0  0  0  0  0  0
  146.4673  141.6920  153.3459 H   0  0  0  0  0  0  0  0  0  0  0  0
  145.8284  139.4893  152.4160 H   0  0  0  0  0  0  0  0  0  0  0  0
  147.8013  137.7197  153.2528 H   0  0  0  0  0  0  0  0  0  0  0  0
  150.4237  143.4684  158.9712 H   0  0  0  0  0  0  0  0  0  0  0  0
  152.6837  144.7449  157.2517 H   0  0  0  0  0  0  0  0  0  0  0  0
  151.6242  145.5914  158.4937 H   0  0  0  0  0  0  0  0  0  0  0  0
  152.4604  144.0127  160.2716 H   0  0  0  0  0  0  0  0  0  0  0  0
  153.5134  143.1685  159.0215 H   0  0  0  0  0  0  0  0  0  0  0  0
  1  2  1  0  0  0  0
  1 15  1  0  0  0  0
  1 16  1  0  0  0  0
  1 17  1  0  0  0  0
  2  3  1  0  0  0  0
  2 12  1  0  0  0  0
  2 18  1  0  0  0  0
  3 19  1  0  0  0  0
  3  4  1  0  0  0  0
  4  6  1  0  0  0  0
  4  5  2  0  0  0  0
  6  7  2  0  0  0  0
  7 11  1  0  0  0  0
  7  8  1  0  0  0  0
  8 20  1  0  0  0  0
  8  9  1  0  0  0  0
  9 21  1  0  0  0  0
  9 10  2  0  0  0  0
 10 22  1  0  0  0  0
 10 11  1  0  0  0  0
 12 14  1  0  0  0  0
 12 13  1  0  0  0  0
 12 23  1  0  0  0  0
 13 14  1  0  0  0  0
 13 24  1  0  0  0  0
 13 25  1  0  0  0  0
 14 26  1  0  0  0  0
 14 27  1  0  0  0  0
M  END
> <s_m_source_file>
AV-unprocessed.smi

> <i_m_source_file_index>
2499

> <i_lp_mmshare_version>
43012

> <i_f3d_flags>
0

> <s_epik_input>
W0NIMl0xW0NIMl1bQ0hdMVtDQEhdKFtDSDNdKVtOSF1DKD1PKVtOSF1jMm5bY0hdW2NIXW8y

> <s_epik_cmdline>
J2VwaWtfcHl0aG9uJywgJy1waCcsICc3LjAnLCAnLXRuJywgJzgnLCAnLW1hJywgJzIwMCcsICctbWV0YWxfYmluZGluZycsICctaW1hZScsICc8aW5maWxlLm1hZT4nLCAnLW9tYWUnLCAnPG91dGZpbGUubWFlPic=

> <r_lp_tautomer_probability>
0.107061

> <r_epik_Ionization_Penalty>
1.51515

> <r_epik_Ionization_Penalty_Charging>
1.51478

> <r_epik_Ionization_Penalty_Neutral>
0.000369309

> <r_epik_State_Penalty>
2.62718

> <r_epik_Charging_Adjusted_Penalty>
4.14196

> <i_epik_Tot_Q>
0

> <i_epik_Tot_abs_Q>
0

> <r_epik_Metal_State_Penalty>
3.5378

> <b_epik_Metal_Only>
0

> <s_lp_Force_Field>
OPLS_2005

> <r_lp_Energy>
35.9469

> <b_lp_Chiralities_Consistent>
1

> <s_lp_Variant>
AV-unprocessed.smi:2499-6

> <Gold.Version>
5.8.1

> <Gold.Id.Protein>
6NUR|6NUR_protein|mol2

> <Gold.PLP.Fitness>
39.2512

> <Gold.PLP.PLP>
-27.7600

> <Gold.PLP.part.hbond>
-2.2599

> <Gold.PLP.part.metal>
0.0000

> <Gold.PLP.part.buried>
-3.2629

> <Gold.PLP.part.nonpolar>
-22.8186

> <Gold.PLP.part.repulsive>
0.5867

> <Gold.PLP.ligand.clash>
0.0000

> <Gold.PLP.ligand.torsion>
0.6978

> <Gold.PLP.Chemscore.Hbond>
1.9420

> <Gold.PLP.Chemscore.CHOScore>
2.0000

> <Gold.PLP.Chemscore.Metal>
0.0000

> <Gold.Chemscore.Hbonds>
donor molecule, donor type, donor heavy atom, donor atom, acceptor molecule, acceptor atom, score
      L1  H     3    19       P1  8028  0.59
      P1  H  7989  7998       L1     5  1.00
      L1  C     9    21       P1 10175  1.00
      L1  C    10    22       P1  7948  1.00

> <Gold.PLP.Chemscore.Internal.Correction>
1.0608

> <Gold.Rescore>
     Score         DG    S(hbond)    S(metal)    S(lipo)     H(rot)  DE(clash)    DE(int)     intcor
     11.85     -14.84       1.35        0.00      69.76       1.29       0.68       2.31       ----

> <Gold.Chemscore.Fitness>
11.8488

> <Gold.Chemscore.DG>
-14.8385

> <Gold.Chemscore.ZeroCoef>
-5.4800

> <Gold.Chemscore.Hbond>
1.3481

> <Gold.Chemscore.Metal>
0.0000

> <Gold.Chemscore.Lipo>
69.7608

> <Gold.Chemscore.Internal_Hbond>
0.0000

> <Gold.Chemscore.DEClash>
0.6780

> <Gold.Chemscore.DEInternal>
2.3117

> <Gold.Chemscore.Rot>
1.2915

> <Gold.Chemscore.Internal.Correction>
   9.000000E+99

> <Gold.Chemscore.Hbonds>
donor molecule, donor type, donor heavy atom, donor atom, acceptor molecule, acceptor atom, score
      L1  H     3    19       P1  8028  0.58
      P1  H  7989  7998       L1     5  0.50

> <Gold.Chemscore.Hbond.Weighted>
-4.5027

> <Gold.Chemscore.Metal.Weighted>
-0.0000

> <Gold.Chemscore.Lipo.Weighted>
-8.1620

> <Gold.Chemscore.Internal_Hbond.Weighted>
0.0000

> <Gold.Chemscore.DEClash.Weighted>
0.6780

> <Gold.Chemscore.DEInternal.Weighted>
2.3117

> <Gold.Chemscore.Rot.Weighted>
3.3062

> <Gold.Chemscore.Internal.Correction.Weighted>
   9.000000E+99

> <Gold.Protein.RotatedTorsions>
[ 6907 6896 6895 6894 ] final -142.41 input  -60.11 | X-H torsion
[ 7974 7965 7964 7962 ] final -119.64 input  175.53 | X-H torsion
[ 8008 7997 7996 7995 ] final  -16.21 input   59.86 | X-H torsion
[ 10167 10162 10161 10158 ] final   70.92 input  -65.29 | X-H torsion
[ 10718 10713 10712 10709 ] final  -34.34 input   66.30 | X-H torsion
[ 10763 10752 10751 10750 ] final -155.19 input  -60.55 | X-H torsion
[ 11005 11000 10999 10996 ] final    2.23 input  -57.11 | X-H torsion

> <Gold.Protein.ActiveResidues>
 VAL166  LYS551  ARG553  GLY616  TRP617  ASP618  TYR619  PRO620  LYS621  CYS622 
 ASP623  PHE694  ASN695  SER759  ASP760  ASP761  ALA762  ILE779  LEU786  VAL792 
 PHE793  MET794  SER795  GLU796  ALA797  LYS798  CYS799  TRP800  GLU811  SER814 

> <Gold.Protein.RotatedAtoms>
  151.0867  133.5348  159.2617 H   0  0  0  0  0  0  0  0  0  0  0  0  # atno 6907 bound_to 6896
  151.2231  135.0525  159.8967 H   0  0  0  0  0  0  0  0  0  0  0  0  # atno 6908 bound_to 6896
  152.5430  134.0666  159.8229 H   0  0  0  0  0  0  0  0  0  0  0  0  # atno 6909 bound_to 6896
  145.0603  140.8285  143.4156 H   0  0  0  0  0  0  0  0  0  0  0  0  # atno 7974 bound_to 7965
  154.5070  140.2175  155.9231 H   0  0  0  0  0  0  0  0  0  0  0  0  # atno 8008 bound_to 7997
  156.1506  140.3162  155.8609 H   0  0  0  0  0  0  0  0  0  0  0  0  # atno 8009 bound_to 7997
  155.3946  140.0480  157.3030 H   0  0  0  0  0  0  0  0  0  0  0  0  # atno 8010 bound_to 7997
  140.0517  144.5306  150.7358 H   0  0  0  0  0  0  0  0  0  0  0  0  # atno 10167 bound_to 10162
  156.3517  130.4309  149.7699 H   0  0  0  0  0  0  0  0  0  0  0  0  # atno 10718 bound_to 10713
  154.7805  135.3173  154.8000 H   0  0  0  0  0  0  0  0  0  0  0  0  # atno 10763 bound_to 10752
  153.8713  135.6844  153.4778 H   0  0  0  0  0  0  0  0  0  0  0  0  # atno 10764 bound_to 10752
  153.1440  135.4727  154.9476 H   0  0  0  0  0  0  0  0  0  0  0  0  # atno 10765 bound_to 10752
  140.6066  133.9787  155.8157 H   0  0  0  0  0  0  0  0  0  0  0  0  # atno 11005 bound_to 11000
  145.1417  139.2568  143.5487 LP  0  0  0  0  0  0  0  0  0  0  0  0  # atno 17320 bound_to 7965
  146.3524  140.1096  142.8604 LP  0  0  0  0  0  0  0  0  0  0  0  0  # atno 17321 bound_to 7965
  140.7213  143.2592  151.4267 LP  0  0  0  0  0  0  0  0  0  0  0  0  # atno 17342 bound_to 10162
  139.5949  144.1419  152.2132 LP  0  0  0  0  0  0  0  0  0  0  0  0  # atno 17343 bound_to 10162
  156.4897  130.8079  151.3089 LP  0  0  0  0  0  0  0  0  0  0  0  0  # atno 17370 bound_to 10713
  157.7462  130.9979  150.2834 LP  0  0  0  0  0  0  0  0  0  0  0  0  # atno 17371 bound_to 10713
  141.0836  134.0024  157.3347 LP  0  0  0  0  0  0  0  0  0  0  0  0  # atno 17394 bound_to 11000
  139.9210  135.0200  156.8063 LP  0  0  0  0  0  0  0  0  0  0  0  0  # atno 17395 bound_to 11000

$$$$
