AV-unprocessed.smi:72|AV-procd|sdf|715|dock5
  -GOLD-   2262017 43D 1   1.00000     0.00000
 Structure written by MMmdl.
 28 29  0  0  0  0  0  0  0  0  2 V2000
  149.2403  135.3968  158.4838 N   0  0  0  0  0  0  0  0  0  0  0  0
  149.3972  136.3232  157.6435 C   0  0  0  0  0  0  0  0  0  0  0  0
  148.8171  137.6259  157.8809 N   0  0  0  0  0  0  0  0  0  0  0  0
  148.9484  138.5234  156.9530 C   0  0  0  0  0  0  0  0  0  0  0  0
  149.6123  138.2362  155.6841 N   0  0  0  0  0  0  0  0  0  0  0  0
  149.7826  139.3056  154.6101 C   0  0  2  0  0  0  0  0  0  0  0  0
  150.7177  140.2608  155.0366 O   0  0  0  0  0  0  0  0  0  0  0  0
  150.0905  141.4835  155.4224 C   0  0  2  0  0  0  0  0  0  0  0  0
  149.6978  141.4569  156.9179 C   0  0  0  0  0  0  0  0  0  0  0  0
  148.9266  142.5968  157.2327 O   0  0  0  0  0  0  0  0  0  0  0  0
  148.9147  141.5382  154.4422 C   0  0  2  0  0  0  0  0  0  0  0  0
  147.8595  142.3724  154.8792 O   0  0  0  0  0  0  0  0  0  0  0  0
  148.4749  140.0849  154.3265 C   0  0  1  0  0  0  0  0  0  0  0  0
  147.9924  139.8496  153.0187 O   0  0  0  0  0  0  0  0  0  0  0  0
  150.2754  136.9853  155.5379 C   0  0  0  0  0  0  0  0  0  0  0  0
  150.9635  136.8016  154.5344 O   0  0  0  0  0  0  0  0  0  0  0  0
  150.1372  136.0475  156.5163 N   0  5  0  0  0  0  0  0  0  0  0  0
  150.1778  138.7645  153.7487 H   0  0  0  0  0  0  0  0  0  0  0  0
  150.7643  142.3218  155.2409 H   0  0  0  0  0  0  0  0  0  0  0  0
  149.2822  141.9000  153.4801 H   0  0  0  0  0  0  0  0  0  0  0  0
  147.7201  139.8467  155.0779 H   0  0  0  0  0  0  0  0  0  0  0  0
  148.6863  135.6874  159.2763 H   0  0  0  0  0  0  0  0  0  0  0  0
  148.5686  139.5381  157.0707 H   0  0  0  0  0  0  0  0  0  0  0  0
  149.0679  140.5942  157.1330 H   0  0  0  0  0  0  0  0  0  0  0  0
  150.5614  141.3818  157.5767 H   0  0  0  0  0  0  0  0  0  0  0  0
  149.0264  143.2278  156.5364 H   0  0  0  0  0  0  0  0  0  0  0  0
  148.2199  143.2226  155.0810 H   0  0  0  0  0  0  0  0  0  0  0  0
  148.6351  140.1753  152.4059 H   0  0  0  0  0  0  0  0  0  0  0  0
  1  2  2  0  0  0  0
  1 22  1  0  0  0  0
  2 17  1  0  0  0  0
  2  3  1  0  0  0  0
  3  4  2  0  0  0  0
  4  5  1  0  0  0  0
  4 23  1  0  0  0  0
  5  6  1  0  0  0  0
  5 15  1  0  0  0  0
  6 18  1  0  0  0  0
  6 13  1  0  0  0  0
  6  7  1  0  0  0  0
  7  8  1  0  0  0  0
  8 19  1  0  0  0  0
  8  9  1  0  0  0  0
  8 11  1  0  0  0  0
  9 10  1  0  0  0  0
  9 24  1  0  0  0  0
  9 25  1  0  0  0  0
 10 26  1  0  0  0  0
 11 20  1  0  0  0  0
 11 12  1  0  0  0  0
 11 13  1  0  0  0  0
 12 27  1  0  0  0  0
 13 21  1  0  0  0  0
 13 14  1  0  0  0  0
 14 28  1  0  0  0  0
 15 16  2  0  0  0  0
 15 17  1  0  0  0  0
M  CHG  1  17  -1
M  END
> <s_m_source_file>
AV-unprocessed.smi

> <i_m_source_file_index>
72

> <i_lp_mmshare_version>
43012

> <i_f3d_flags>
0

> <s_epik_input>
W05IMl1jMW5bY0hdbihjKD1PKW4xKVtDQEBIXTJPW0NASF0oW0NIMl1bT0hdKVtDQEBIXShbT0hdKVtDQEhdMltPSF0=

> <s_epik_cmdline>
J2VwaWtfcHl0aG9uJywgJy1waCcsICc3LjAnLCAnLXRuJywgJzgnLCAnLW1hJywgJzIwMCcsICctbWV0YWxfYmluZGluZycsICctaW1hZScsICc8aW5maWxlLm1hZT4nLCAnLW9tYWUnLCAnPG91dGZpbGUubWFlPic=

> <r_lp_tautomer_probability>
7.17554e-07

> <r_epik_Ionization_Penalty>
12.8705

> <r_epik_Ionization_Penalty_Charging>
5.64144

> <r_epik_Ionization_Penalty_Neutral>
7.22905

> <r_epik_State_Penalty>
3.30104

> <r_epik_Charging_Adjusted_Penalty>
8.94249

> <i_epik_Tot_Q>
-1

> <i_epik_Tot_abs_Q>
1

> <r_epik_Metal_State_Penalty>
0.529074

> <b_epik_Metal_Only>
1

> <s_epik_Chemistry_Notes>
This compound contains an acetal/aminal-like group ( X-CH(R)-Y where X, Y are N, S, or O) that may be acid/base labile, releasing an aldehyde.

> <s_lp_Force_Field>
OPLS_2005

> <r_lp_Energy>
34.2271

> <b_lp_Chiralities_Consistent>
1

> <s_lp_Variant>
AV-unprocessed.smi:72-53

> <Gold.Version>
5.8.1

> <Gold.Id.Protein>
6NUR|6NUR_protein|mol2

> <Gold.PLP.Fitness>
39.3369

> <Gold.PLP.PLP>
-22.2219

> <Gold.PLP.part.hbond>
-5.5586

> <Gold.PLP.part.metal>
0.0000

> <Gold.PLP.part.buried>
-5.4538

> <Gold.PLP.part.nonpolar>
-12.7051

> <Gold.PLP.part.repulsive>
0.1829

> <Gold.PLP.ligand.clash>
0.0000

> <Gold.PLP.ligand.torsion>
0.4155

> <Gold.PLP.Chemscore.Hbond>
5.9500

> <Gold.PLP.Chemscore.CHOScore>
0.0000

> <Gold.PLP.Chemscore.Metal>
0.0000

> <Gold.Chemscore.Hbonds>
donor molecule, donor type, donor heavy atom, donor atom, acceptor molecule, acceptor atom, score
      L1  H    10    26       P1  8028  1.00
      L1  H    12    27       P1  8028  1.00
      L1  H    14    28       P1  7957  1.00
      P1  H  6896  6908       L1     1  0.75
      P1  H  7989  7998       L1     7  0.95
      P1  H 10752 10765       L1    16  0.34

> <Gold.PLP.Chemscore.Internal.Correction>
0.0960

> <Gold.Rescore>
     Score         DG    S(hbond)    S(metal)    S(lipo)     H(rot)  DE(clash)    DE(int)     intcor
     13.82     -14.48       4.85        0.00      26.77       4.04       0.00       0.66       ----

> <Gold.Chemscore.Fitness>
13.8207

> <Gold.Chemscore.DG>
-14.4796

> <Gold.Chemscore.ZeroCoef>
-5.4800

> <Gold.Chemscore.Hbond>
4.8533

> <Gold.Chemscore.Metal>
0.0000

> <Gold.Chemscore.Lipo>
26.7732

> <Gold.Chemscore.Internal_Hbond>
0.0000

> <Gold.Chemscore.DEClash>
0.0000

> <Gold.Chemscore.DEInternal>
0.6589

> <Gold.Chemscore.Rot>
4.0403

> <Gold.Chemscore.Internal.Correction>
   9.000000E+99

> <Gold.Chemscore.Hbonds>
donor molecule, donor type, donor heavy atom, donor atom, acceptor molecule, acceptor atom, score
      L1  H    10    26       P1  8028  0.98
      L1  H    12    27       P1  8028  0.97
      L1  H    14    28       P1  7957  0.95
      P1  H  6896  6908       L1     1  0.09
      P1  H  7989  7998       L1     7  0.13
      P1  H 10752 10765       L1    16  0.35

> <Gold.Chemscore.Hbond.Weighted>
-16.2102

> <Gold.Chemscore.Metal.Weighted>
-0.0000

> <Gold.Chemscore.Lipo.Weighted>
-3.1325

> <Gold.Chemscore.Internal_Hbond.Weighted>
0.0000

> <Gold.Chemscore.DEClash.Weighted>
0.0000

> <Gold.Chemscore.DEInternal.Weighted>
0.6589

> <Gold.Chemscore.Rot.Weighted>
10.3431

> <Gold.Chemscore.Internal.Correction.Weighted>
   9.000000E+99

> <Gold.Protein.RotatedTorsions>
[ 6907 6896 6895 6894 ] final  173.95 input  -60.11 | X-H torsion
[ 7974 7965 7964 7962 ] final  146.96 input  175.53 | X-H torsion
[ 8008 7997 7996 7995 ] final   99.35 input   59.86 | X-H torsion
[ 10167 10162 10161 10158 ] final -111.85 input  -65.29 | X-H torsion
[ 10718 10713 10712 10709 ] final  136.09 input   66.30 | X-H torsion
[ 10763 10752 10751 10750 ] final  175.11 input  -60.55 | X-H torsion
[ 11005 11000 10999 10996 ] final  101.51 input  -57.11 | X-H torsion

> <Gold.Protein.ActiveResidues>
 VAL166  LYS551  ARG553  GLY616  TRP617  ASP618  TYR619  PRO620  LYS621  CYS622 
 ASP623  PHE694  ASN695  SER759  ASP760  ASP761  ALA762  ILE779  LEU786  VAL792 
 PHE793  MET794  SER795  GLU796  ALA797  LYS798  CYS799  TRP800  GLU811  SER814 

> <Gold.Protein.RotatedAtoms>
  151.7601  133.3333  159.3415 H   0  0  0  0  0  0  0  0  0  0  0  0  # atno 6907 bound_to 6896
  150.7501  134.6114  159.6097 H   0  0  0  0  0  0  0  0  0  0  0  0  # atno 6908 bound_to 6896
  152.3411  134.7135  160.0315 H   0  0  0  0  0  0  0  0  0  0  0  0  # atno 6909 bound_to 6896
  144.8629  139.5970  143.5922 H   0  0  0  0  0  0  0  0  0  0  0  0  # atno 7974 bound_to 7965
  156.1096  140.3230  155.8054 H   0  0  0  0  0  0  0  0  0  0  0  0  # atno 8008 bound_to 7997
  155.4696  140.0545  157.2998 H   0  0  0  0  0  0  0  0  0  0  0  0  # atno 8009 bound_to 7997
  154.4751  140.2028  155.9913 H   0  0  0  0  0  0  0  0  0  0  0  0  # atno 8010 bound_to 7997
  140.1292  143.4376  152.1639 H   0  0  0  0  0  0  0  0  0  0  0  0  # atno 10167 bound_to 10162
  157.4503  131.1065  151.0041 H   0  0  0  0  0  0  0  0  0  0  0  0  # atno 10718 bound_to 10713
  154.4631  135.2768  155.1698 H   0  0  0  0  0  0  0  0  0  0  0  0  # atno 10763 bound_to 10752
  154.3477  135.6156  153.5631 H   0  0  0  0  0  0  0  0  0  0  0  0  # atno 10764 bound_to 10752
  152.9857  135.5804  154.4998 H   0  0  0  0  0  0  0  0  0  0  0  0  # atno 10765 bound_to 10752
  139.8773  134.9186  156.4917 H   0  0  0  0  0  0  0  0  0  0  0  0  # atno 11005 bound_to 11000
  146.2874  139.7043  142.9185 LP  0  0  0  0  0  0  0  0  0  0  0  0  # atno 17320 bound_to 7965
  145.4277  141.0412  143.2928 LP  0  0  0  0  0  0  0  0  0  0  0  0  # atno 17321 bound_to 7965
  139.5528  144.7351  151.4382 LP  0  0  0  0  0  0  0  0  0  0  0  0  # atno 17342 bound_to 10162
  140.6827  143.8045  150.7143 LP  0  0  0  0  0  0  0  0  0  0  0  0  # atno 17343 bound_to 10162
  157.0874  130.5928  149.5432 LP  0  0  0  0  0  0  0  0  0  0  0  0  # atno 17370 bound_to 10713
  155.9984  130.5058  150.7570 LP  0  0  0  0  0  0  0  0  0  0  0  0  # atno 17371 bound_to 10713
  140.8654  133.8028  155.9308 LP  0  0  0  0  0  0  0  0  0  0  0  0  # atno 17394 bound_to 11000
  140.9007  134.2381  157.5043 LP  0  0  0  0  0  0  0  0  0  0  0  0  # atno 17395 bound_to 11000

$$$$
