AV-unprocessed.smi:2848|AV-procd|sdf|10955|dock5
  -GOLD-   2272015413D 1   1.00000     0.00000
 Structure written by MMmdl.
 27 28  0  0  0  0  0  0  0  0  2 V2000
  147.9132  141.6871  154.8385 Cl  0  0  0  0  0  0  0  0  0  0  0  0
  149.0643  140.4156  154.6196 C   0  0  0  0  0  0  0  0  0  0  0  0
  148.7956  139.3983  153.6806 C   0  0  0  0  0  0  0  0  0  0  0  0
  149.6821  138.3971  153.4971 N   0  3  0  0  0  0  0  0  0  0  0  0
  150.8426  138.3167  154.1815 C   0  0  0  0  0  0  0  0  0  0  0  0
  151.1679  139.3044  155.1333 C   0  0  0  0  0  0  0  0  0  0  0  0
  150.2691  140.3758  155.3644 C   0  0  0  0  0  0  0  0  0  0  0  0
  150.5306  141.3871  156.3015 N   0  0  0  0  0  0  0  0  0  0  0  0
  151.6251  141.2730  157.2543 C   0  0  0  0  0  0  0  0  0  0  0  0
  151.8407  142.5411  158.0556 C   0  0  0  0  0  0  0  0  0  0  0  0
  151.5500  143.7807  157.6094 C   0  0  0  0  0  0  0  0  0  0  0  0
  151.6791  144.9107  158.3763 O   0  0  0  0  0  0  0  0  0  0  0  0
  151.8570  144.6595  159.7661 C   0  0  0  0  0  0  0  0  0  0  0  0
  152.8289  143.4878  159.9821 C   0  0  0  0  0  0  0  0  0  0  0  0
  152.3762  142.3200  159.3030 O   0  0  0  0  0  0  0  0  0  0  0  0
  147.9022  139.3561  153.0748 H   0  0  0  0  0  0  0  0  0  0  0  0
  151.4725  137.4701  153.9499 H   0  0  0  0  0  0  0  0  0  0  0  0
  152.1006  139.2219  155.6709 H   0  0  0  0  0  0  0  0  0  0  0  0
  150.0934  142.2909  156.1846 H   0  0  0  0  0  0  0  0  0  0  0  0
  151.4165  140.4657  157.9569 H   0  0  0  0  0  0  0  0  0  0  0  0
  152.5437  141.0201  156.7232 H   0  0  0  0  0  0  0  0  0  0  0  0
  151.1381  143.9966  156.6344 H   0  0  0  0  0  0  0  0  0  0  0  0
  152.2337  145.5619  160.2478 H   0  0  0  0  0  0  0  0  0  0  0  0
  150.8886  144.4364  160.2161 H   0  0  0  0  0  0  0  0  0  0  0  0
  153.8227  143.7482  159.6156 H   0  0  0  0  0  0  0  0  0  0  0  0
  152.9283  143.2658  161.0447 H   0  0  0  0  0  0  0  0  0  0  0  0
  149.4659  137.6714  152.8130 H   0  0  0  0  0  0  0  0  0  0  0  0
  1  2  1  0  0  0  0
  2  7  1  0  0  0  0
  2  3  2  0  0  0  0
  3  4  1  0  0  0  0
  3 16  1  0  0  0  0
  4  5  2  0  0  0  0
  4 27  1  0  0  0  0
  5  6  1  0  0  0  0
  5 17  1  0  0  0  0
  6  7  2  0  0  0  0
  6 18  1  0  0  0  0
  7  8  1  0  0  0  0
  8  9  1  0  0  0  0
  8 19  1  0  0  0  0
  9 10  1  0  0  0  0
  9 20  1  0  0  0  0
  9 21  1  0  0  0  0
 10 15  1  0  0  0  0
 10 11  2  0  0  0  0
 11 12  1  0  0  0  0
 11 22  1  0  0  0  0
 12 13  1  0  0  0  0
 13 14  1  0  0  0  0
 13 23  1  0  0  0  0
 13 24  1  0  0  0  0
 14 15  1  0  0  0  0
 14 25  1  0  0  0  0
 14 26  1  0  0  0  0
M  CHG  1   4   1
M  END
> <s_m_source_file>
AV-unprocessed.smi

> <i_m_source_file_index>
2848

> <i_lp_mmshare_version>
43012

> <i_f3d_flags>
0

> <s_epik_input>
Q2xjMVtjSF1uW2NIXVtjSF1jMVtOSF1bQ0gyXUMyPVtDSF1PW0NIMl1bQ0gyXU8y

> <s_epik_cmdline>
J2VwaWtfcHl0aG9uJywgJy1waCcsICc3LjAnLCAnLXRuJywgJzgnLCAnLW1hJywgJzIwMCcsICctbWV0YWxfYmluZGluZycsICctaW1hZScsICc8aW5maWxlLm1hZT4nLCAnLW9tYWUnLCAnPG91dGZpbGUubWFlPic=

> <r_lp_tautomer_probability>
1

> <r_epik_Ionization_Penalty>
0.0834524

> <r_epik_Ionization_Penalty_Charging>
0.0831652

> <r_epik_Ionization_Penalty_Neutral>
0.000287151

> <r_epik_State_Penalty>
0.0738416

> <r_epik_Charging_Adjusted_Penalty>
0.157007

> <i_epik_Tot_Q>
1

> <i_epik_Tot_abs_Q>
1

> <r_epik_Metal_State_Penalty>
2.9007

> <b_epik_Metal_Only>
0

> <s_lp_Force_Field>
OPLS_2005

> <r_lp_Energy>
8.04075

> <b_lp_Chiralities_Consistent>
1

> <s_lp_Variant>
AV-unprocessed.smi:2848-1

> <Gold.Version>
5.8.1

> <Gold.Id.Protein>
6NUR|6NUR_protein|mol2

> <Gold.PLP.Fitness>
41.2651

> <Gold.PLP.PLP>
-33.1296

> <Gold.PLP.part.hbond>
-2.0000

> <Gold.PLP.part.metal>
0.0000

> <Gold.PLP.part.buried>
-2.4622

> <Gold.PLP.part.nonpolar>
-28.8093

> <Gold.PLP.part.repulsive>
0.2726

> <Gold.PLP.ligand.clash>
0.0000

> <Gold.PLP.ligand.torsion>
0.4246

> <Gold.PLP.Chemscore.Hbond>
2.0000

> <Gold.PLP.Chemscore.CHOScore>
0.9948

> <Gold.PLP.Chemscore.Metal>
0.0000

> <Gold.Chemscore.Hbonds>
donor molecule, donor type, donor heavy atom, donor atom, acceptor molecule, acceptor atom, score
      L1  H     4    27       P1  7948  2.00
      L1  C    11    22       P1  8028  0.99

> <Gold.PLP.Chemscore.Internal.Correction>
0.0003

> <Gold.Rescore>
     Score         DG    S(hbond)    S(metal)    S(lipo)     H(rot)  DE(clash)    DE(int)     intcor
     16.37     -16.57       1.00        0.00      93.01       1.22       0.04       0.16       ----

> <Gold.Chemscore.Fitness>
16.3661

> <Gold.Chemscore.DG>
-16.5733

> <Gold.Chemscore.ZeroCoef>
-5.4800

> <Gold.Chemscore.Hbond>
0.9988

> <Gold.Chemscore.Metal>
0.0000

> <Gold.Chemscore.Lipo>
93.0094

> <Gold.Chemscore.Internal_Hbond>
0.0000

> <Gold.Chemscore.DEClash>
0.0428

> <Gold.Chemscore.DEInternal>
0.1644

> <Gold.Chemscore.Rot>
1.2206

> <Gold.Chemscore.Internal.Correction>
   9.000000E+99

> <Gold.Chemscore.Hbonds>
donor molecule, donor type, donor heavy atom, donor atom, acceptor molecule, acceptor atom, score
      L1  H     4    27       P1  7948  0.82

> <Gold.Chemscore.Hbond.Weighted>
-3.3359

> <Gold.Chemscore.Metal.Weighted>
-0.0000

> <Gold.Chemscore.Lipo.Weighted>
-10.8821

> <Gold.Chemscore.Internal_Hbond.Weighted>
0.0000

> <Gold.Chemscore.DEClash.Weighted>
0.0428

> <Gold.Chemscore.DEInternal.Weighted>
0.1644

> <Gold.Chemscore.Rot.Weighted>
3.1247

> <Gold.Chemscore.Internal.Correction.Weighted>
   9.000000E+99

> <Gold.Protein.RotatedTorsions>
[ 6907 6896 6895 6894 ] final    0.98 input  -60.11 | X-H torsion
[ 7974 7965 7964 7962 ] final   73.38 input  175.53 | X-H torsion
[ 8008 7997 7996 7995 ] final   27.48 input   59.86 | X-H torsion
[ 10167 10162 10161 10158 ] final  117.82 input  -65.29 | X-H torsion
[ 10718 10713 10712 10709 ] final -153.35 input   66.30 | X-H torsion
[ 10763 10752 10751 10750 ] final  -91.85 input  -60.55 | X-H torsion
[ 11005 11000 10999 10996 ] final -138.87 input  -57.11 | X-H torsion

> <Gold.Protein.ActiveResidues>
 VAL166  LYS551  ARG553  GLY616  TRP617  ASP618  TYR619  PRO620  LYS621  CYS622 
 ASP623  PHE694  ASN695  SER759  ASP760  ASP761  ALA762  ILE779  LEU786  VAL792 
 PHE793  MET794  SER795  GLU796  ALA797  LYS798  CYS799  TRP800  GLU811  SER814 

> <Gold.Protein.RotatedAtoms>
  151.5853  135.1056  160.0026 H   0  0  0  0  0  0  0  0  0  0  0  0  # atno 6907 bound_to 6896
  152.4334  133.7313  159.6599 H   0  0  0  0  0  0  0  0  0  0  0  0  # atno 6908 bound_to 6896
  150.8228  133.8152  159.3154 H   0  0  0  0  0  0  0  0  0  0  0  0  # atno 6909 bound_to 6896
  145.7415  139.2723  143.1483 H   0  0  0  0  0  0  0  0  0  0  0  0  # atno 7974 bound_to 7965
  155.0436  140.3172  155.4716 H   0  0  0  0  0  0  0  0  0  0  0  0  # atno 8008 bound_to 7997
  156.2849  140.2158  156.5504 H   0  0  0  0  0  0  0  0  0  0  0  0  # atno 8009 bound_to 7997
  154.7269  140.0484  157.0679 H   0  0  0  0  0  0  0  0  0  0  0  0  # atno 8010 bound_to 7997
  139.6153  144.7090  151.2753 H   0  0  0  0  0  0  0  0  0  0  0  0  # atno 10167 bound_to 10162
  156.4847  130.8319  151.2545 H   0  0  0  0  0  0  0  0  0  0  0  0  # atno 10718 bound_to 10713
  154.6802  135.5253  153.8253 H   0  0  0  0  0  0  0  0  0  0  0  0  # atno 10763 bound_to 10752
  153.0559  135.6550  154.0587 H   0  0  0  0  0  0  0  0  0  0  0  0  # atno 10764 bound_to 10752
  154.0475  135.2972  155.3325 H   0  0  0  0  0  0  0  0  0  0  0  0  # atno 10765 bound_to 10752
  140.8574  134.2211  157.4727 H   0  0  0  0  0  0  0  0  0  0  0  0  # atno 11005 bound_to 11000
  146.0443  140.8134  142.9813 LP  0  0  0  0  0  0  0  0  0  0  0  0  # atno 17320 bound_to 7965
  144.6869  140.2957  143.7271 LP  0  0  0  0  0  0  0  0  0  0  0  0  # atno 17321 bound_to 7965
  140.7347  143.6759  150.8042 LP  0  0  0  0  0  0  0  0  0  0  0  0  # atno 17342 bound_to 10162
  140.0361  143.5394  152.2739 LP  0  0  0  0  0  0  0  0  0  0  0  0  # atno 17343 bound_to 10162
  157.7480  131.0033  150.3034 LP  0  0  0  0  0  0  0  0  0  0  0  0  # atno 17370 bound_to 10713
  156.3486  130.3827  149.7348 LP  0  0  0  0  0  0  0  0  0  0  0  0  # atno 17371 bound_to 10713
  139.8705  134.9713  156.4731 LP  0  0  0  0  0  0  0  0  0  0  0  0  # atno 17394 bound_to 11000
  140.8722  133.7980  155.9376 LP  0  0  0  0  0  0  0  0  0  0  0  0  # atno 17395 bound_to 11000

$$$$
