AV-unprocessed.smi:1097|AV-procd|sdf|4751|dock9
  -GOLD-   22720 3283D 1   1.00000     0.00000
 Structure written by MMmdl.
 40 41  0  0  0  0  0  0  0  0  1 V2000
  146.1988  143.8914  161.3101 C   0  0  0  0  0  0  0  0  0  0  0  0
  146.8229  143.0735  160.3361 O   0  0  0  0  0  0  0  0  0  0  0  0
  146.5858  143.5274  159.0142 C   0  0  0  0  0  0  0  0  0  0  0  0
  146.5809  142.3251  158.0663 C   0  0  0  0  0  0  0  0  0  0  0  0
  147.7532  142.3798  157.2595 O   0  0  0  0  0  0  0  0  0  0  0  0
  147.7393  141.7755  156.0160 C   0  0  0  0  0  0  0  0  0  0  0  0
  146.5351  141.5683  155.4243 N   0  0  0  0  0  0  0  0  0  0  0  0
  146.5011  140.9909  154.2062 C   0  0  0  0  0  0  0  0  0  0  0  0
  147.6569  140.5889  153.5135 C   0  0  0  0  0  0  0  0  0  0  0  0
  148.9071  140.8011  154.1225 C   0  0  0  0  0  0  0  0  0  0  0  0
  148.9638  141.4122  155.3966 C   0  0  0  0  0  0  0  0  0  0  0  0
  150.2868  141.6281  156.0781 C   0  0  0  0  0  0  0  0  0  0  0  0
  151.1198  140.7251  156.1608 O   0  0  0  0  0  0  0  0  0  0  0  0
  150.4642  142.8484  156.6096 N   0  0  0  0  0  0  0  0  0  0  0  0
  151.6561  143.2798  157.3340 C   0  0  2  0  0  0  0  0  0  0  0  0
  151.9538  142.3655  158.5329 C   0  0  0  0  0  0  0  0  0  0  0  0
  152.2148  143.3387  159.6701 C   0  0  0  0  0  0  0  0  0  0  0  0
  152.5988  142.9792  160.7820 O   0  0  0  0  0  0  0  0  0  0  0  0
  151.9748  144.5968  159.2889 N   0  0  0  0  0  0  0  0  0  0  0  0
  152.1160  145.7813  160.1242 C   0  0  0  0  0  0  0  0  0  0  0  0
  151.4890  144.6947  157.9239 C   0  0  0  0  0  0  0  0  0  0  0  0
  146.4026  143.4963  162.3052 H   0  0  0  0  0  0  0  0  0  0  0  0
  145.1169  143.9126  161.1724 H   0  0  0  0  0  0  0  0  0  0  0  0
  146.5775  144.9135  161.2691 H   0  0  0  0  0  0  0  0  0  0  0  0
  145.6259  144.0438  158.9634 H   0  0  0  0  0  0  0  0  0  0  0  0
  147.3590  144.2367  158.7148 H   0  0  0  0  0  0  0  0  0  0  0  0
  146.5579  141.3999  158.6446 H   0  0  0  0  0  0  0  0  0  0  0  0
  145.6879  142.3568  157.4397 H   0  0  0  0  0  0  0  0  0  0  0  0
  145.5235  140.8443  153.7713 H   0  0  0  0  0  0  0  0  0  0  0  0
  147.5858  140.1255  152.5406 H   0  0  0  0  0  0  0  0  0  0  0  0
  149.8072  140.4902  153.6123 H   0  0  0  0  0  0  0  0  0  0  0  0
  149.7199  143.5233  156.5098 H   0  0  0  0  0  0  0  0  0  0  0  0
  152.5182  143.2639  156.6641 H   0  0  0  0  0  0  0  0  0  0  0  0
  151.1052  141.7316  158.7944 H   0  0  0  0  0  0  0  0  0  0  0  0
  152.8206  141.7282  158.3551 H   0  0  0  0  0  0  0  0  0  0  0  0
  153.1309  145.8546  160.5175 H   0  0  0  0  0  0  0  0  0  0  0  0
  151.4231  145.7396  160.9652 H   0  0  0  0  0  0  0  0  0  0  0  0
  151.9069  146.6894  159.5574 H   0  0  0  0  0  0  0  0  0  0  0  0
  152.0551  145.4338  157.3555 H   0  0  0  0  0  0  0  0  0  0  0  0
  150.4446  145.0109  157.9448 H   0  0  0  0  0  0  0  0  0  0  0  0
  1  2  1  0  0  0  0
  1 22  1  0  0  0  0
  1 23  1  0  0  0  0
  1 24  1  0  0  0  0
  2  3  1  0  0  0  0
  3  4  1  0  0  0  0
  3 25  1  0  0  0  0
  3 26  1  0  0  0  0
  4  5  1  0  0  0  0
  4 27  1  0  0  0  0
  4 28  1  0  0  0  0
  5  6  1  0  0  0  0
  6 11  1  0  0  0  0
  6  7  2  0  0  0  0
  7  8  1  0  0  0  0
  8  9  2  0  0  0  0
  8 29  1  0  0  0  0
  9 10  1  0  0  0  0
  9 30  1  0  0  0  0
 10 11  2  0  0  0  0
 10 31  1  0  0  0  0
 11 12  1  0  0  0  0
 12 13  2  0  0  0  0
 12 14  1  0  0  0  0
 14 15  1  0  0  0  0
 14 32  1  0  0  0  0
 15 21  1  0  0  0  0
 15 16  1  0  0  0  0
 15 33  1  0  0  0  0
 16 17  1  0  0  0  0
 16 34  1  0  0  0  0
 16 35  1  0  0  0  0
 17 18  2  0  0  0  0
 17 19  1  0  0  0  0
 19 20  1  0  0  0  0
 19 21  1  0  0  0  0
 20 36  1  0  0  0  0
 20 37  1  0  0  0  0
 20 38  1  0  0  0  0
 21 39  1  0  0  0  0
 21 40  1  0  0  0  0
M  END
> <s_m_source_file>
AV-unprocessed.smi

> <i_m_source_file_index>
1097

> <i_lp_mmshare_version>
43012

> <i_f3d_flags>
0

> <s_epik_input>
W0NIM11PW0NIMl1bQ0gyXU9jMW5bY0hdW2NIXVtjSF1jMUMoPU8pW05IXVtDQEBIXTJbQ0gyXUMoPU8pTihbQ0gzXSlbQ0gyXTI=

> <s_epik_cmdline>
J2VwaWtfcHl0aG9uJywgJy1waCcsICc3LjAnLCAnLXRuJywgJzgnLCAnLW1hJywgJzIwMCcsICctbWV0YWxfYmluZGluZycsICctaW1hZScsICc8aW5maWxlLm1hZT4nLCAnLW9tYWUnLCAnPG91dGZpbGUubWFlPic=

> <r_lp_tautomer_probability>
1

> <r_epik_Ionization_Penalty>
2.30122e-06

> <r_epik_Ionization_Penalty_Charging>
0

> <r_epik_Ionization_Penalty_Neutral>
2.30122e-06

> <r_epik_State_Penalty>
-0

> <r_epik_Charging_Adjusted_Penalty>
0

> <i_epik_Tot_Q>
0

> <i_epik_Tot_abs_Q>
0

> <r_epik_Metal_State_Penalty>
-0

> <b_epik_Metal_Only>
0

> <s_lp_Force_Field>
OPLS_2005

> <r_lp_Energy>
19.8502

> <b_lp_Chiralities_Consistent>
1

> <s_lp_Variant>
AV-unprocessed.smi:1097-1

> <Gold.Version>
5.8.1

> <Gold.Id.Protein>
6NUR|6NUR_protein|mol2

> <Gold.PLP.Fitness>
50.0758

> <Gold.PLP.PLP>
-42.2927

> <Gold.PLP.part.hbond>
-3.0000

> <Gold.PLP.part.metal>
0.0000

> <Gold.PLP.part.buried>
-5.8610

> <Gold.PLP.part.nonpolar>
-33.9611

> <Gold.PLP.part.repulsive>
0.4004

> <Gold.PLP.ligand.clash>
0.0000

> <Gold.PLP.ligand.torsion>
1.8471

> <Gold.PLP.Chemscore.Hbond>
2.7919

> <Gold.PLP.Chemscore.CHOScore>
1.0000

> <Gold.PLP.Chemscore.Metal>
0.0000

> <Gold.Chemscore.Hbonds>
donor molecule, donor type, donor heavy atom, donor atom, acceptor molecule, acceptor atom, score
      L1  H    14    32       P1  8028  1.00
      P1  H  6933  6944       L1     2  0.76
      P1  H  6934  6946       L1     2  0.44
      L1  C     8    29       P1 10175  1.00

> <Gold.PLP.Chemscore.Internal.Correction>
0.1017

> <Gold.Rescore>
     Score         DG    S(hbond)    S(metal)    S(lipo)     H(rot)  DE(clash)    DE(int)     intcor
     14.06     -17.89       2.35        0.00      81.73       1.95       0.31       3.53       ----

> <Gold.Chemscore.Fitness>
14.0601

> <Gold.Chemscore.DG>
-17.8928

> <Gold.Chemscore.ZeroCoef>
-5.4800

> <Gold.Chemscore.Hbond>
2.3454

> <Gold.Chemscore.Metal>
0.0000

> <Gold.Chemscore.Lipo>
81.7345

> <Gold.Chemscore.Internal_Hbond>
0.0000

> <Gold.Chemscore.DEClash>
0.3072

> <Gold.Chemscore.DEInternal>
3.5254

> <Gold.Chemscore.Rot>
1.9468

> <Gold.Chemscore.Internal.Correction>
   9.000000E+99

> <Gold.Chemscore.Hbonds>
donor molecule, donor type, donor heavy atom, donor atom, acceptor molecule, acceptor atom, score
      L1  H    14    32       P1  8028  0.97
      P1  H  6933  6944       L1     2  0.21
      P1  H  6934  6946       L1     2  0.40

> <Gold.Chemscore.Hbond.Weighted>
-7.8337

> <Gold.Chemscore.Metal.Weighted>
-0.0000

> <Gold.Chemscore.Lipo.Weighted>
-9.5629

> <Gold.Chemscore.Internal_Hbond.Weighted>
0.0000

> <Gold.Chemscore.DEClash.Weighted>
0.3072

> <Gold.Chemscore.DEInternal.Weighted>
3.5254

> <Gold.Chemscore.Rot.Weighted>
4.9839

> <Gold.Chemscore.Internal.Correction.Weighted>
   9.000000E+99

> <Gold.Protein.RotatedTorsions>
[ 6907 6896 6895 6894 ] final  -85.29 input  -60.11 | X-H torsion
[ 7974 7965 7964 7962 ] final  -52.55 input  175.53 | X-H torsion
[ 8008 7997 7996 7995 ] final  -12.65 input   59.86 | X-H torsion
[ 10167 10162 10161 10158 ] final -108.30 input  -65.29 | X-H torsion
[ 10718 10713 10712 10709 ] final   83.32 input   66.30 | X-H torsion
[ 10763 10752 10751 10750 ] final   22.39 input  -60.55 | X-H torsion
[ 11005 11000 10999 10996 ] final -147.24 input  -57.11 | X-H torsion

> <Gold.Protein.ActiveResidues>
 VAL166  LYS551  ARG553  GLY616  TRP617  ASP618  TYR619  PRO620  LYS621  CYS622 
 ASP623  PHE694  ASN695  SER759  ASP760  ASP761  ALA762  ILE779  LEU786  VAL792 
 PHE793  MET794  SER795  GLU796  ALA797  LYS798  CYS799  TRP800  GLU811  SER814 

> <Gold.Protein.RotatedAtoms>
  150.6871  134.3228  159.4793 H   0  0  0  0  0  0  0  0  0  0  0  0  # atno 6907 bound_to 6896
  152.1101  134.9278  160.0576 H   0  0  0  0  0  0  0  0  0  0  0  0  # atno 6908 bound_to 6896
  152.0523  133.3990  159.4419 H   0  0  0  0  0  0  0  0  0  0  0  0  # atno 6909 bound_to 6896
  145.9067  140.7949  142.9716 H   0  0  0  0  0  0  0  0  0  0  0  0  # atno 7974 bound_to 7965
  154.5359  140.2270  155.8723 H   0  0  0  0  0  0  0  0  0  0  0  0  # atno 8008 bound_to 7997
  156.1811  140.3100  155.9113 H   0  0  0  0  0  0  0  0  0  0  0  0  # atno 8009 bound_to 7997
  155.3356  140.0447  157.3034 H   0  0  0  0  0  0  0  0  0  0  0  0  # atno 8010 bound_to 7997
  140.1677  143.4068  152.1378 H   0  0  0  0  0  0  0  0  0  0  0  0  # atno 10167 bound_to 10162
  157.6876  131.0086  150.2506 H   0  0  0  0  0  0  0  0  0  0  0  0  # atno 10718 bound_to 10713
  153.0919  135.6649  153.9837 H   0  0  0  0  0  0  0  0  0  0  0  0  # atno 10763 bound_to 10752
  153.9431  135.2991  155.3443 H   0  0  0  0  0  0  0  0  0  0  0  0  # atno 10764 bound_to 10752
  154.7334  135.5112  153.9075 H   0  0  0  0  0  0  0  0  0  0  0  0  # atno 10765 bound_to 10752
  140.7736  134.3160  157.5067 H   0  0  0  0  0  0  0  0  0  0  0  0  # atno 11005 bound_to 11000
  144.6740  140.1762  143.7410 LP  0  0  0  0  0  0  0  0  0  0  0  0  # atno 17320 bound_to 7965
  145.8723  139.2278  143.1654 LP  0  0  0  0  0  0  0  0  0  0  0  0  # atno 17321 bound_to 7965
  139.5352  144.7202  151.4918 LP  0  0  0  0  0  0  0  0  0  0  0  0  # atno 17342 bound_to 10162
  140.6602  143.8514  150.6880 LP  0  0  0  0  0  0  0  0  0  0  0  0  # atno 17343 bound_to 10162
  156.3104  130.3771  149.7667 LP  0  0  0  0  0  0  0  0  0  0  0  0  # atno 17370 bound_to 10713
  156.5269  130.8240  151.3223 LP  0  0  0  0  0  0  0  0  0  0  0  0  # atno 17371 bound_to 10713
  139.8752  134.9276  156.3429 LP  0  0  0  0  0  0  0  0  0  0  0  0  # atno 17394 bound_to 11000
  140.9550  133.7426  156.0323 LP  0  0  0  0  0  0  0  0  0  0  0  0  # atno 17395 bound_to 11000

$$$$
