AV-unprocessed.smi:218|AV-procd|sdf|1670|dock3
  -GOLD-   2262020 83D 1   1.00000     0.00000
 Structure written by MMmdl.
 54 57  0  0  0  0  0  0  0  0  1 V2000
  138.5242  135.3221  160.2947 C   0  0  0  0  0  0  0  0  0  0  0  0
  138.5724  136.0071  158.9236 C   0  0  0  0  0  0  0  0  0  0  0  0
  139.1325  137.4356  159.0344 C   0  0  0  0  0  0  0  0  0  0  0  0
  137.2326  136.0343  158.4275 O   0  0  0  0  0  0  0  0  0  0  0  0
  136.9774  136.4601  157.1381 C   0  0  0  0  0  0  0  0  0  0  0  0
  138.0746  136.7423  156.2992 C   0  0  0  0  0  0  0  0  0  0  0  0
  137.8312  137.1850  154.9827 C   0  0  0  0  0  0  0  0  0  0  0  0
  138.9817  137.5054  154.0507 C   0  0  0  0  0  0  0  0  0  0  0  0
  140.2788  137.1238  154.5923 N   0  0  0  0  0  0  0  0  0  0  0  0
  141.0146  136.1728  153.9791 C   0  0  0  0  0  0  0  0  0  0  0  0
  140.6357  134.8680  154.0072 N   0  0  0  0  0  0  0  0  0  0  0  0
  141.3771  133.9439  153.3887 C   0  0  0  0  0  0  0  0  0  0  0  0
  142.5108  134.1058  152.7031 N   0  0  0  0  0  0  0  0  0  0  0  0
  142.8956  135.4151  152.6738 C   0  0  0  0  0  0  0  0  0  0  0  0
  142.2067  136.5001  153.2830 C   0  0  0  0  0  0  0  0  0  0  0  0
  142.8922  137.6848  153.0468 N   0  0  0  0  0  0  0  0  0  0  0  0
  143.9278  137.3154  152.3412 C   0  0  0  0  0  0  0  0  0  0  0  0
  144.0109  135.9663  152.0763 N   0  0  0  0  0  0  0  0  0  0  0  0
  145.0665  135.2465  151.2949 C   0  0  2  0  0  0  0  0  0  0  0  0
  144.4229  134.5185  150.2982 O   0  0  0  0  0  0  0  0  0  0  0  0
  145.0832  133.2743  150.1193 C   0  0  2  0  0  0  0  0  0  0  0  0
  144.1162  132.2607  149.4889 C   0  0  0  0  0  0  0  0  0  0  0  0
  142.9041  132.2321  150.2123 O   0  0  0  0  0  0  0  0  0  0  0  0
  145.5125  132.9058  151.5427 C   0  0  1  0  0  0  0  0  0  0  0  0
  146.6300  132.0405  151.5149 O   0  0  0  0  0  0  0  0  0  0  0  0
  145.8900  134.2531  152.1468 C   0  0  2  0  0  0  0  0  0  0  0  0
  145.6072  134.2858  153.5346 O   0  0  0  0  0  0  0  0  0  0  0  0
  136.4961  137.3303  154.5558 C   0  0  0  0  0  0  0  0  0  0  0  0
  135.4656  137.0238  155.4656 C   0  0  0  0  0  0  0  0  0  0  0  0
  135.6924  136.5999  156.7270 N   0  0  0  0  0  0  0  0  0  0  0  0
  145.6786  136.0362  150.8572 H   0  0  0  0  0  0  0  0  0  0  0  0
  145.9652  133.4267  149.4930 H   0  0  0  0  0  0  0  0  0  0  0  0
  144.6833  132.4486  152.0850 H   0  0  0  0  0  0  0  0  0  0  0  0
  146.9457  134.4748  151.9825 H   0  0  0  0  0  0  0  0  0  0  0  0
  139.5192  135.2529  160.7352 H   0  0  0  0  0  0  0  0  0  0  0  0
  138.1284  134.3096  160.2106 H   0  0  0  0  0  0  0  0  0  0  0  0
  137.8878  135.8709  160.9897 H   0  0  0  0  0  0  0  0  0  0  0  0
  139.2170  135.4020  158.2841 H   0  0  0  0  0  0  0  0  0  0  0  0
  140.1379  137.4286  159.4561 H   0  0  0  0  0  0  0  0  0  0  0  0
  138.5060  138.0540  159.6777 H   0  0  0  0  0  0  0  0  0  0  0  0
  139.1908  137.9246  158.0624 H   0  0  0  0  0  0  0  0  0  0  0  0
  139.0846  136.6245  156.6639 H   0  0  0  0  0  0  0  0  0  0  0  0
  138.8287  137.0002  153.0961 H   0  0  0  0  0  0  0  0  0  0  0  0
  138.9696  138.5781  153.8538 H   0  0  0  0  0  0  0  0  0  0  0  0
  140.5678  137.5983  155.4358 H   0  0  0  0  0  0  0  0  0  0  0  0
  141.0101  132.9301  153.4529 H   0  0  0  0  0  0  0  0  0  0  0  0
  144.6669  138.0229  151.9946 H   0  0  0  0  0  0  0  0  0  0  0  0
  143.8783  132.5545  148.4663 H   0  0  0  0  0  0  0  0  0  0  0  0
  144.5589  131.2651  149.4453 H   0  0  0  0  0  0  0  0  0  0  0  0
  142.4584  131.4213  150.0198 H   0  0  0  0  0  0  0  0  0  0  0  0
  147.2348  132.3568  150.8609 H   0  0  0  0  0  0  0  0  0  0  0  0
  146.3963  134.0581  154.0033 H   0  0  0  0  0  0  0  0  0  0  0  0
  136.2628  137.6675  153.5566 H   0  0  0  0  0  0  0  0  0  0  0  0
  134.4311  137.1226  155.1723 H   0  0  0  0  0  0  0  0  0  0  0  0
  1  2  1  0  0  0  0
  1 35  1  0  0  0  0
  1 36  1  0  0  0  0
  1 37  1  0  0  0  0
  2  3  1  0  0  0  0
  2  4  1  0  0  0  0
  2 38  1  0  0  0  0
  3 39  1  0  0  0  0
  3 40  1  0  0  0  0
  3 41  1  0  0  0  0
  4  5  1  0  0  0  0
  5 30  1  0  0  0  0
  5  6  2  0  0  0  0
  6  7  1  0  0  0  0
  6 42  1  0  0  0  0
  7  8  1  0  0  0  0
  7 28  2  0  0  0  0
  8  9  1  0  0  0  0
  8 43  1  0  0  0  0
  8 44  1  0  0  0  0
  9 10  1  0  0  0  0
  9 45  1  0  0  0  0
 10 15  1  0  0  0  0
 10 11  2  0  0  0  0
 11 12  1  0  0  0  0
 12 13  2  0  0  0  0
 12 46  1  0  0  0  0
 13 14  1  0  0  0  0
 14 18  1  0  0  0  0
 14 15  2  0  0  0  0
 15 16  1  0  0  0  0
 16 17  2  0  0  0  0
 17 18  1  0  0  0  0
 17 47  1  0  0  0  0
 18 19  1  0  0  0  0
 19 31  1  0  0  0  0
 19 26  1  0  0  0  0
 19 20  1  0  0  0  0
 20 21  1  0  0  0  0
 21 32  1  0  0  0  0
 21 22  1  0  0  0  0
 21 24  1  0  0  0  0
 22 23  1  0  0  0  0
 22 48  1  0  0  0  0
 22 49  1  0  0  0  0
 23 50  1  0  0  0  0
 24 33  1  0  0  0  0
 24 25  1  0  0  0  0
 24 26  1  0  0  0  0
 25 51  1  0  0  0  0
 26 34  1  0  0  0  0
 26 27  1  0  0  0  0
 27 52  1  0  0  0  0
 28 29  1  0  0  0  0
 28 53  1  0  0  0  0
 29 30  2  0  0  0  0
 29 54  1  0  0  0  0
M  END
> <s_m_source_file>
AV-unprocessed.smi

> <i_m_source_file_index>
218

> <i_lp_mmshare_version>
43012

> <i_f3d_flags>
0

> <s_epik_input>
W0NIM11bQ0hdKFtDSDNdKU9jMVtjSF1jKFtjSF1bY0hdbjEpW0NIMl1bTkhdYyhuW2NIXW4yKWMoYzIzKW5bY0hdbjNbQ0BASF00T1tDQEhdKFtDSDJdW09IXSlbQ0BASF0oW09IXSlbQ0BIXTRbT0hd

> <s_epik_cmdline>
J2VwaWtfcHl0aG9uJywgJy1waCcsICc3LjAnLCAnLXRuJywgJzgnLCAnLW1hJywgJzIwMCcsICctbWV0YWxfYmluZGluZycsICctaW1hZScsICc8aW5maWxlLm1hZT4nLCAnLW9tYWUnLCAnPG91dGZpbGUubWFlPic=

> <r_lp_tautomer_probability>
1

> <r_epik_Ionization_Penalty>
0.00457014

> <r_epik_Ionization_Penalty_Charging>
0

> <r_epik_Ionization_Penalty_Neutral>
0.00457014

> <r_epik_State_Penalty>
-0

> <r_epik_Charging_Adjusted_Penalty>
0

> <i_epik_Tot_Q>
0

> <i_epik_Tot_abs_Q>
0

> <r_epik_Metal_State_Penalty>
-0

> <b_epik_Metal_Only>
0

> <s_epik_Chemistry_Notes>
This compound contains an acetal/aminal-like group ( X-CH(R)-Y where X, Y are N, S, or O) that may be acid/base labile, releasing an aldehyde.

> <s_lp_Force_Field>
OPLS_2005

> <r_lp_Energy>
38.9245

> <b_lp_Chiralities_Consistent>
1

> <s_lp_Variant>
AV-unprocessed.smi:218-9

> <Gold.Version>
5.8.1

> <Gold.Id.Protein>
6NUR|6NUR_protein|mol2

> <Gold.PLP.Fitness>
52.0264

> <Gold.PLP.PLP>
-44.5345

> <Gold.PLP.part.hbond>
-5.0000

> <Gold.PLP.part.metal>
0.0000

> <Gold.PLP.part.buried>
-5.0035

> <Gold.PLP.part.nonpolar>
-37.3410

> <Gold.PLP.part.repulsive>
3.0180

> <Gold.PLP.ligand.clash>
0.0000

> <Gold.PLP.ligand.torsion>
0.8887

> <Gold.PLP.Chemscore.Hbond>
2.0478

> <Gold.PLP.Chemscore.CHOScore>
0.9068

> <Gold.PLP.Chemscore.Metal>
0.0000

> <Gold.Chemscore.Hbonds>
donor molecule, donor type, donor heavy atom, donor atom, acceptor molecule, acceptor atom, score
      L1  H    23    50       P1 10952  1.00
      L1  H    25    51       P1 10747  0.05
      P1  H 11000 11005       L1    11  1.00
      L1  C    12    46       P1 10957  0.52
      L1  C    17    47       P1 10171  0.46
      L1  C    17    47       P1 10175  0.36

> <Gold.PLP.Chemscore.Internal.Correction>
0.4055

> <Gold.Rescore>
     Score         DG    S(hbond)    S(metal)    S(lipo)     H(rot)  DE(clash)    DE(int)     intcor
      3.52      -6.00       1.36        0.00      72.80       4.90       0.68       1.79       ----

> <Gold.Chemscore.Fitness>
3.5246

> <Gold.Chemscore.DG>
-5.9960

> <Gold.Chemscore.ZeroCoef>
-5.4800

> <Gold.Chemscore.Hbond>
1.3624

> <Gold.Chemscore.Metal>
0.0000

> <Gold.Chemscore.Lipo>
72.7955

> <Gold.Chemscore.Internal_Hbond>
0.0000

> <Gold.Chemscore.DEClash>
0.6812

> <Gold.Chemscore.DEInternal>
1.7901

> <Gold.Chemscore.Rot>
4.9029

> <Gold.Chemscore.Internal.Correction>
   9.000000E+99

> <Gold.Chemscore.Hbonds>
donor molecule, donor type, donor heavy atom, donor atom, acceptor molecule, acceptor atom, score
      L1  H    23    50       P1 10952  0.85
      L1  H    25    51       P1 10747  0.06
      P1  H 11000 11005       L1    11  0.59

> <Gold.Chemscore.Hbond.Weighted>
-4.5504

> <Gold.Chemscore.Metal.Weighted>
-0.0000

> <Gold.Chemscore.Lipo.Weighted>
-8.5171

> <Gold.Chemscore.Internal_Hbond.Weighted>
0.0000

> <Gold.Chemscore.DEClash.Weighted>
0.6812

> <Gold.Chemscore.DEInternal.Weighted>
1.7901

> <Gold.Chemscore.Rot.Weighted>
12.5515

> <Gold.Chemscore.Internal.Correction.Weighted>
   9.000000E+99

> <Gold.Protein.RotatedTorsions>
[ 6907 6896 6895 6894 ] final  145.33 input  -60.11 | X-H torsion
[ 7974 7965 7964 7962 ] final  162.38 input  175.53 | X-H torsion
[ 8008 7997 7996 7995 ] final  159.52 input   59.86 | X-H torsion
[ 10167 10162 10161 10158 ] final   39.41 input  -65.29 | X-H torsion
[ 10718 10713 10712 10709 ] final   51.05 input   66.30 | X-H torsion
[ 10763 10752 10751 10750 ] final  133.87 input  -60.55 | X-H torsion
[ 11005 11000 10999 10996 ] final   40.92 input  -57.11 | X-H torsion

> <Gold.Protein.ActiveResidues>
 VAL166  LYS551  ARG553  GLY616  TRP617  ASP618  TYR619  PRO620  LYS621  CYS622 
 ASP623  PHE694  ASN695  SER759  ASP760  ASP761  ALA762  ILE779  LEU786  VAL792 
 PHE793  MET794  SER795  GLU796  ALA797  LYS798  CYS799  TRP800  GLU811  SER814 

> <Gold.Protein.RotatedAtoms>
  152.1823  133.4715  159.4964 H   0  0  0  0  0  0  0  0  0  0  0  0  # atno 6907 bound_to 6896
  150.6936  134.1818  159.4260 H   0  0  0  0  0  0  0  0  0  0  0  0  # atno 6908 bound_to 6896
  151.9730  135.0067  160.0604 H   0  0  0  0  0  0  0  0  0  0  0  0  # atno 6909 bound_to 6896
  144.7639  139.8032  143.6322 H   0  0  0  0  0  0  0  0  0  0  0  0  # atno 7974 bound_to 7965
  156.2233  140.1829  156.7423 H   0  0  0  0  0  0  0  0  0  0  0  0  # atno 8008 bound_to 7997
  154.5901  140.0652  156.9254 H   0  0  0  0  0  0  0  0  0  0  0  0  # atno 8009 bound_to 7997
  155.2352  140.3318  155.4301 H   0  0  0  0  0  0  0  0  0  0  0  0  # atno 8010 bound_to 7997
  140.3843  144.1938  150.6130 H   0  0  0  0  0  0  0  0  0  0  0  0  # atno 10167 bound_to 10162
  157.4943  130.8396  149.8240 H   0  0  0  0  0  0  0  0  0  0  0  0  # atno 10718 bound_to 10713
  153.8142  135.3125  155.3404 H   0  0  0  0  0  0  0  0  0  0  0  0  # atno 10763 bound_to 10752
  154.8039  135.4710  154.0347 H   0  0  0  0  0  0  0  0  0  0  0  0  # atno 10764 bound_to 10752
  153.1734  135.6881  153.8665 H   0  0  0  0  0  0  0  0  0  0  0  0  # atno 10765 bound_to 10752
  140.1884  134.4017  155.8160 H   0  0  0  0  0  0  0  0  0  0  0  0  # atno 11005 bound_to 11000
  146.1729  139.4887  142.9916 LP  0  0  0  0  0  0  0  0  0  0  0  0  # atno 17320 bound_to 7965
  145.6531  141.0258  143.1750 LP  0  0  0  0  0  0  0  0  0  0  0  0  # atno 17321 bound_to 7965
  140.4906  143.2349  151.8824 LP  0  0  0  0  0  0  0  0  0  0  0  0  # atno 17342 bound_to 10162
  139.4793  144.5170  151.8854 LP  0  0  0  0  0  0  0  0  0  0  0  0  # atno 17343 bound_to 10162
  156.0192  130.3802  150.2016 LP  0  0  0  0  0  0  0  0  0  0  0  0  # atno 17370 bound_to 10713
  157.0205  130.9978  151.3341 LP  0  0  0  0  0  0  0  0  0  0  0  0  # atno 17371 bound_to 10713
  141.2225  133.7034  156.8052 LP  0  0  0  0  0  0  0  0  0  0  0  0  # atno 17394 bound_to 11000
  140.2188  134.8773  157.3354 LP  0  0  0  0  0  0  0  0  0  0  0  0  # atno 17395 bound_to 11000

$$$$
