AV-unprocessed.smi:2837|AV-procd|sdf|10927|dock6
  -GOLD-   2272015373D 1   1.00000     0.00000
 Structure written by MMmdl.
 33 35  0  0  0  0  0  0  0  0  2 V2000
  151.6134  140.0899  156.6998 F   0  0  0  0  0  0  0  0  0  0  0  0
  150.6246  140.9492  156.3511 C   0  0  0  0  0  0  0  0  0  0  0  0
  150.9589  142.1713  156.8300 F   0  0  0  0  0  0  0  0  0  0  0  0
  150.4994  141.0053  154.9984 O   0  0  0  0  0  0  0  0  0  0  0  0
  149.3883  140.4575  154.3978 C   0  0  0  0  0  0  0  0  0  0  0  0
  148.2704  141.2890  154.1769 C   0  0  0  0  0  0  0  0  0  0  0  0
  147.1194  140.7693  153.5498 C   0  0  0  0  0  0  0  0  0  0  0  0
  147.1027  139.4148  153.1408 C   0  0  0  0  0  0  0  0  0  0  0  0
  146.0198  138.7897  152.5071 N   0  0  0  0  0  0  0  0  0  0  0  0
  146.0764  137.3873  152.1141 C   0  0  1  0  0  0  0  0  0  0  0  0
  146.1030  136.4251  153.3098 C   0  0  0  0  0  0  0  0  0  0  0  0
  144.8903  135.5305  153.0248 C   0  0  2  0  0  0  0  0  0  0  0  0
  145.1103  134.6218  151.8077 C   0  0  0  0  0  0  0  0  0  0  0  0
  145.0066  135.6166  150.6522 C   0  0  0  0  0  0  0  0  0  0  0  0
  144.7916  136.9425  151.3948 C   0  0  1  0  0  0  0  0  0  0  0  0
  144.0005  136.4888  152.4813 O   0  0  0  0  0  0  0  0  0  0  0  0
  148.1962  138.6528  153.3623 N   0  3  0  0  0  0  0  0  0  0  0  0
  149.3171  139.1130  153.9597 C   0  0  0  0  0  0  0  0  0  0  0  0
  149.6926  140.6475  156.8298 H   0  0  0  0  0  0  0  0  0  0  0  0
  148.2949  142.3226  154.4892 H   0  0  0  0  0  0  0  0  0  0  0  0
  146.2709  141.4175  153.3912 H   0  0  0  0  0  0  0  0  0  0  0  0
  145.1376  139.2749  152.4268 H   0  0  0  0  0  0  0  0  0  0  0  0
  146.9333  137.2369  151.4564 H   0  0  0  0  0  0  0  0  0  0  0  0
  147.0318  135.8573  153.3728 H   0  0  0  0  0  0  0  0  0  0  0  0
  145.9642  136.9516  154.2554 H   0  0  0  0  0  0  0  0  0  0  0  0
  144.5078  135.0104  153.9034 H   0  0  0  0  0  0  0  0  0  0  0  0
  146.0723  134.1093  151.8422 H   0  0  0  0  0  0  0  0  0  0  0  0
  144.3239  133.8694  151.7354 H   0  0  0  0  0  0  0  0  0  0  0  0
  145.8954  135.6289  150.0207 H   0  0  0  0  0  0  0  0  0  0  0  0
  144.1459  135.3824  150.0245 H   0  0  0  0  0  0  0  0  0  0  0  0
  144.3236  137.7137  150.7819 H   0  0  0  0  0  0  0  0  0  0  0  0
  150.1149  138.3913  154.0581 H   0  0  0  0  0  0  0  0  0  0  0  0
  148.1779  137.6786  153.0595 H   0  0  0  0  0  0  0  0  0  0  0  0
  1  2  1  0  0  0  0
  2  3  1  0  0  0  0
  2  4  1  0  0  0  0
  2 19  1  0  0  0  0
  4  5  1  0  0  0  0
  5 18  1  0  0  0  0
  5  6  2  0  0  0  0
  6  7  1  0  0  0  0
  6 20  1  0  0  0  0
  7  8  2  0  0  0  0
  7 21  1  0  0  0  0
  8  9  1  0  0  0  0
  8 17  1  0  0  0  0
  9 10  1  0  0  0  0
  9 22  1  0  0  0  0
 10 15  1  0  0  0  0
 10 11  1  0  0  0  0
 10 23  1  0  0  0  0
 11 12  1  0  0  0  0
 11 24  1  0  0  0  0
 11 25  1  0  0  0  0
 12 16  1  0  0  0  0
 12 13  1  0  0  0  0
 12 26  1  0  0  0  0
 13 14  1  0  0  0  0
 13 27  1  0  0  0  0
 13 28  1  0  0  0  0
 14 15  1  0  0  0  0
 14 29  1  0  0  0  0
 14 30  1  0  0  0  0
 15 16  1  0  0  0  0
 15 31  1  0  0  0  0
 17 18  2  0  0  0  0
 17 33  1  0  0  0  0
 18 32  1  0  0  0  0
M  CHG  1  17   1
M  END
> <s_m_source_file>
AV-unprocessed.smi

> <i_m_source_file_index>
2837

> <i_lp_mmshare_version>
43012

> <i_f3d_flags>
0

> <s_epik_input>
RltDSF0oRilPYzFbY0hdW2NIXWMobltjSF0xKVtOSF1bQ0BIXShbQ0gyXVtDQEBIXTIzKVtDQEBIXShPMylbQ0gyXVtDSDJdMg==

> <s_epik_cmdline>
J2VwaWtfcHl0aG9uJywgJy1waCcsICc3LjAnLCAnLXRuJywgJzgnLCAnLW1hJywgJzIwMCcsICctbWV0YWxfYmluZGluZycsICctaW1hZScsICc8aW5maWxlLm1hZT4nLCAnLW9tYWUnLCAnPG91dGZpbGUubWFlPic=

> <r_lp_tautomer_probability>
0.999429

> <r_epik_Ionization_Penalty>
2.29716

> <r_epik_Ionization_Penalty_Charging>
2.29716

> <r_epik_Ionization_Penalty_Neutral>
1.42285e-06

> <r_epik_State_Penalty>
2.44762

> <r_epik_Charging_Adjusted_Penalty>
4.74478

> <i_epik_Tot_Q>
1

> <i_epik_Tot_abs_Q>
1

> <r_epik_Metal_State_Penalty>
6.53078

> <b_epik_Metal_Only>
0

> <s_lp_Force_Field>
OPLS_2005

> <r_lp_Energy>
46.2914

> <b_lp_Chiralities_Consistent>
1

> <s_lp_Variant>
AV-unprocessed.smi:2837-8

> <Gold.Version>
5.8.1

> <Gold.Id.Protein>
6NUR|6NUR_protein|mol2

> <Gold.PLP.Fitness>
40.4191

> <Gold.PLP.PLP>
-29.0895

> <Gold.PLP.part.hbond>
-4.0000

> <Gold.PLP.part.metal>
0.0000

> <Gold.PLP.part.buried>
5.2554

> <Gold.PLP.part.nonpolar>
-29.9796

> <Gold.PLP.part.repulsive>
0.3143

> <Gold.PLP.ligand.clash>
0.0000

> <Gold.PLP.ligand.torsion>
1.0972

> <Gold.PLP.Chemscore.Hbond>
4.5000

> <Gold.PLP.Chemscore.CHOScore>
0.0000

> <Gold.PLP.Chemscore.Metal>
0.0000

> <Gold.Chemscore.Hbonds>
donor molecule, donor type, donor heavy atom, donor atom, acceptor molecule, acceptor atom, score
      L1  H     9    22       P1 10175  2.00
      L1  H    17    33       P1  7948  1.89
      P1  H  7989  7998       L1     4  0.61

> <Gold.PLP.Chemscore.Internal.Correction>
0.0240

> <Gold.Rescore>
     Score         DG    S(hbond)    S(metal)    S(lipo)     H(rot)  DE(clash)    DE(int)     intcor
     13.54     -16.68       2.11        0.00      64.77       1.34       2.07       1.07       ----

> <Gold.Chemscore.Fitness>
13.5368

> <Gold.Chemscore.DG>
-16.6753

> <Gold.Chemscore.ZeroCoef>
-5.4800

> <Gold.Chemscore.Hbond>
2.1077

> <Gold.Chemscore.Metal>
0.0000

> <Gold.Chemscore.Lipo>
64.7690

> <Gold.Chemscore.Internal_Hbond>
0.0000

> <Gold.Chemscore.DEClash>
2.0689

> <Gold.Chemscore.DEInternal>
1.0696

> <Gold.Chemscore.Rot>
1.3368

> <Gold.Chemscore.Internal.Correction>
   9.000000E+99

> <Gold.Chemscore.Hbonds>
donor molecule, donor type, donor heavy atom, donor atom, acceptor molecule, acceptor atom, score
      L1  H     9    22       P1 10175  1.00
      L1  H    17    33       P1  7948  0.86
      P1  H  7989  7998       L1     4  0.11

> <Gold.Chemscore.Hbond.Weighted>
-7.0397

> <Gold.Chemscore.Metal.Weighted>
-0.0000

> <Gold.Chemscore.Lipo.Weighted>
-7.5780

> <Gold.Chemscore.Internal_Hbond.Weighted>
0.0000

> <Gold.Chemscore.DEClash.Weighted>
2.0689

> <Gold.Chemscore.DEInternal.Weighted>
1.0696

> <Gold.Chemscore.Rot.Weighted>
3.4223

> <Gold.Chemscore.Internal.Correction.Weighted>
   9.000000E+99

> <Gold.Protein.RotatedTorsions>
[ 6907 6896 6895 6894 ] final  -33.82 input  -60.11 | X-H torsion
[ 7974 7965 7964 7962 ] final   19.45 input  175.53 | X-H torsion
[ 8008 7997 7996 7995 ] final  -67.51 input   59.86 | X-H torsion
[ 10167 10162 10161 10158 ] final -166.64 input  -65.29 | X-H torsion
[ 10718 10713 10712 10709 ] final  -21.08 input   66.30 | X-H torsion
[ 10763 10752 10751 10750 ] final -158.44 input  -60.55 | X-H torsion
[ 11005 11000 10999 10996 ] final   37.89 input  -57.11 | X-H torsion

> <Gold.Protein.ActiveResidues>
 VAL166  LYS551  ARG553  GLY616  TRP617  ASP618  TYR619  PRO620  LYS621  CYS622 
 ASP623  PHE694  ASN695  SER759  ASP760  ASP761  ALA762  ILE779  LEU786  VAL792 
 PHE793  MET794  SER795  GLU796  ALA797  LYS798  CYS799  TRP800  GLU811  SER814 

> <Gold.Protein.RotatedAtoms>
  151.0606  134.9734  159.8258 H   0  0  0  0  0  0  0  0  0  0  0  0  # atno 6907 bound_to 6896
  152.5395  134.2423  159.8876 H   0  0  0  0  0  0  0  0  0  0  0  0  # atno 6908 bound_to 6896
  151.2442  133.4340  159.2642 H   0  0  0  0  0  0  0  0  0  0  0  0  # atno 6909 bound_to 6896
  146.2148  139.8311  142.8660 H   0  0  0  0  0  0  0  0  0  0  0  0  # atno 7974 bound_to 7965
  154.4804  140.0891  156.7364 H   0  0  0  0  0  0  0  0  0  0  0  0  # atno 8008 bound_to 7997
  155.4484  140.3456  155.4279 H   0  0  0  0  0  0  0  0  0  0  0  0  # atno 8009 bound_to 7997
  156.1183  140.1467  156.9229 H   0  0  0  0  0  0  0  0  0  0  0  0  # atno 8010 bound_to 7997
  139.6102  144.0831  152.1834 H   0  0  0  0  0  0  0  0  0  0  0  0  # atno 10167 bound_to 10162
  156.5230  130.4637  149.6587 H   0  0  0  0  0  0  0  0  0  0  0  0  # atno 10718 bound_to 10713
  154.7557  135.3104  154.8475 H   0  0  0  0  0  0  0  0  0  0  0  0  # atno 10763 bound_to 10752
  153.9250  135.6791  153.4751 H   0  0  0  0  0  0  0  0  0  0  0  0  # atno 10764 bound_to 10752
  153.1154  135.4847  154.9036 H   0  0  0  0  0  0  0  0  0  0  0  0  # atno 10765 bound_to 10752
  140.2181  134.3674  155.8017 H   0  0  0  0  0  0  0  0  0  0  0  0  # atno 11005 bound_to 11000
  145.2996  141.0190  143.3616 LP  0  0  0  0  0  0  0  0  0  0  0  0  # atno 17320 bound_to 7965
  144.9016  139.4643  143.6630 LP  0  0  0  0  0  0  0  0  0  0  0  0  # atno 17321 bound_to 7965
  140.0448  144.5979  150.7383 LP  0  0  0  0  0  0  0  0  0  0  0  0  # atno 17342 bound_to 10162
  140.7313  143.2693  151.3940 LP  0  0  0  0  0  0  0  0  0  0  0  0  # atno 17343 bound_to 10162
  156.3131  130.7240  151.2137 LP  0  0  0  0  0  0  0  0  0  0  0  0  # atno 17370 bound_to 10713
  157.7434  131.0476  150.4951 LP  0  0  0  0  0  0  0  0  0  0  0  0  # atno 17371 bound_to 10713
  141.2224  133.7178  156.8530 LP  0  0  0  0  0  0  0  0  0  0  0  0  # atno 17394 bound_to 11000
  140.1879  134.8987  157.3026 LP  0  0  0  0  0  0  0  0  0  0  0  0  # atno 17395 bound_to 11000

$$$$
