AV-unprocessed.smi:442|AV-procd|sdf|2584|dock8
  -GOLD-   2262022573D 1   1.00000     0.00000
 Structure written by MMmdl.
 37 37  0  0  0  0  0  0  0  0  3 V2000
  152.1169  143.2746  159.4028 C   0  0  0  0  0  0  0  0  0  0  0  0
  153.5430  142.8839  159.8166 C   0  0  0  0  0  0  0  0  0  0  0  0
  153.6106  141.9942  161.0739 C   0  0  1  0  0  0  0  0  0  0  0  0
  152.7316  142.5480  162.2037 C   0  0  0  0  0  0  0  0  0  0  0  0
  153.1805  140.6318  160.7688 N   0  0  0  0  0  0  0  0  0  0  0  0
  153.8816  139.7058  160.0909 C   0  0  0  0  0  0  0  0  0  0  0  0
  154.9973  139.9230  159.6204 O   0  0  0  0  0  0  0  0  0  0  0  0
  153.2481  138.3173  159.8931 C   0  0  0  0  0  0  0  0  0  0  0  0
  152.0627  138.2935  159.0130 N   0  0  0  0  0  0  0  0  0  0  0  0
  150.8870  137.7530  159.5640 C   0  0  0  0  0  0  0  0  0  0  0  0
  149.7416  137.6657  158.8657 C   0  0  0  0  0  0  0  0  0  0  0  0
  148.5480  137.0941  159.4520 N   0  3  0  0  0  0  0  0  0  0  0  0
  147.6155  136.7917  158.7145 O   0  0  0  0  0  0  0  0  0  0  0  0
  148.5025  136.9274  160.6671 O   0  5  0  0  0  0  0  0  0  0  0  0
  149.7415  138.1538  157.5021 C   0  0  0  0  0  0  0  0  0  0  0  0
  150.8662  138.6733  156.9467 C   0  0  0  0  0  0  0  0  0  0  0  0
  150.9128  139.1798  155.5565 C   0  0  0  0  0  0  0  0  0  0  0  0
  149.7655  139.0421  154.8804 N   0  0  0  0  0  0  0  0  0  0  0  0
  151.8755  139.6958  154.9892 O   0  0  0  0  0  0  0  0  0  0  0  0
  152.1315  138.7575  157.7258 C   0  0  0  0  0  0  0  0  0  0  0  0
  153.1985  139.1984  157.2909 O   0  0  0  0  0  0  0  0  0  0  0  0
  152.1276  143.8502  158.4773 H   0  0  0  0  0  0  0  0  0  0  0  0
  151.6310  143.8861  160.1631 H   0  0  0  0  0  0  0  0  0  0  0  0
  151.4998  142.3912  159.2374 H   0  0  0  0  0  0  0  0  0  0  0  0
  154.0100  142.3579  158.9832 H   0  0  0  0  0  0  0  0  0  0  0  0
  154.1332  143.7881  159.9713 H   0  0  0  0  0  0  0  0  0  0  0  0
  154.6397  141.9899  161.4371 H   0  0  0  0  0  0  0  0  0  0  0  0
  153.0353  143.5585  162.4785 H   0  0  0  0  0  0  0  0  0  0  0  0
  152.8059  141.9282  163.0979 H   0  0  0  0  0  0  0  0  0  0  0  0
  151.6819  142.5840  161.9100 H   0  0  0  0  0  0  0  0  0  0  0  0
  152.2712  140.3636  161.1153 H   0  0  0  0  0  0  0  0  0  0  0  0
  154.0187  137.6521  159.5007 H   0  0  0  0  0  0  0  0  0  0  0  0
  153.0057  137.9051  160.8741 H   0  0  0  0  0  0  0  0  0  0  0  0
  150.9884  137.4085  160.5833 H   0  0  0  0  0  0  0  0  0  0  0  0
  148.8205  138.0903  156.9425 H   0  0  0  0  0  0  0  0  0  0  0  0
  149.6984  139.3580  153.9240 H   0  0  0  0  0  0  0  0  0  0  0  0
  148.9677  138.6201  155.3334 H   0  0  0  0  0  0  0  0  0  0  0  0
  1  2  1  0  0  0  0
  1 22  1  0  0  0  0
  1 23  1  0  0  0  0
  1 24  1  0  0  0  0
  2  3  1  0  0  0  0
  2 25  1  0  0  0  0
  2 26  1  0  0  0  0
  3  4  1  0  0  0  0
  3  5  1  0  0  0  0
  3 27  1  0  0  0  0
  4 28  1  0  0  0  0
  4 29  1  0  0  0  0
  4 30  1  0  0  0  0
  5  6  1  0  0  0  0
  5 31  1  0  0  0  0
  6  7  2  0  0  0  0
  6  8  1  0  0  0  0
  8  9  1  0  0  0  0
  8 32  1  0  0  0  0
  8 33  1  0  0  0  0
  9 20  1  0  0  0  0
  9 10  1  0  0  0  0
 10 11  2  0  0  0  0
 10 34  1  0  0  0  0
 11 12  1  0  0  0  0
 11 15  1  0  0  0  0
 12 13  2  0  0  0  0
 12 14  1  0  0  0  0
 15 16  2  0  0  0  0
 15 35  1  0  0  0  0
 16 17  1  0  0  0  0
 16 20  1  0  0  0  0
 17 18  1  0  0  0  0
 17 19  2  0  0  0  0
 18 36  1  0  0  0  0
 18 37  1  0  0  0  0
 20 21  2  0  0  0  0
M  CHG  1  12   1
M  CHG  1  14  -1
M  END
> <s_m_source_file>
AV-unprocessed.smi

> <i_m_source_file_index>
442

> <i_lp_mmshare_version>
43012

> <i_f3d_flags>
0

> <s_epik_input>
W0NIM11bQ0gyXVtDQEhdKFtDSDNdKVtOSF1DKD1PKVtDSDJdbjFbY0hdYyhbTitdKD1PKVtPLV0pW2NIXWMoYzE9TylDKD1PKVtOSDJd

> <s_epik_cmdline>
J2VwaWtfcHl0aG9uJywgJy1waCcsICc3LjAnLCAnLXRuJywgJzgnLCAnLW1hJywgJzIwMCcsICctbWV0YWxfYmluZGluZycsICctaW1hZScsICc8aW5maWxlLm1hZT4nLCAnLW9tYWUnLCAnPG91dGZpbGUubWFlPic=

> <r_lp_tautomer_probability>
1

> <r_epik_Ionization_Penalty>
2.86914e-06

> <r_epik_Ionization_Penalty_Charging>
2.2828e-12

> <r_epik_Ionization_Penalty_Neutral>
2.86914e-06

> <r_epik_State_Penalty>
-0

> <r_epik_Charging_Adjusted_Penalty>
2.2828e-12

> <i_epik_Tot_Q>
0

> <i_epik_Tot_abs_Q>
2

> <r_epik_Metal_State_Penalty>
-0

> <b_epik_Metal_Only>
0

> <s_lp_Force_Field>
OPLS_2005

> <r_lp_Energy>
22.4314

> <b_lp_Chiralities_Consistent>
1

> <s_lp_Variant>
AV-unprocessed.smi:442-2

> <Gold.Version>
5.8.1

> <Gold.Id.Protein>
6NUR|6NUR_protein|mol2

> <Gold.PLP.Fitness>
43.2306

> <Gold.PLP.PLP>
-34.0826

> <Gold.PLP.part.hbond>
-3.9169

> <Gold.PLP.part.metal>
0.0000

> <Gold.PLP.part.buried>
-6.0597

> <Gold.PLP.part.nonpolar>
-23.9110

> <Gold.PLP.part.repulsive>
0.2091

> <Gold.PLP.ligand.clash>
0.0000

> <Gold.PLP.ligand.torsion>
0.4514

> <Gold.PLP.Chemscore.Hbond>
3.3360

> <Gold.PLP.Chemscore.CHOScore>
0.0000

> <Gold.PLP.Chemscore.Metal>
0.0000

> <Gold.Chemscore.Hbonds>
donor molecule, donor type, donor heavy atom, donor atom, acceptor molecule, acceptor atom, score
      P1  H  6931  6943       L1    14  0.90
      P1  H  7989  7998       L1    19  0.98
      P1  H  7997  8008       L1    21  0.62
      P1  H  7997  8010       L1     7  0.02

> <Gold.PLP.Chemscore.Internal.Correction>
0.0429

> <Gold.Rescore>
     Score         DG    S(hbond)    S(metal)    S(lipo)     H(rot)  DE(clash)    DE(int)     intcor
     16.58     -19.77       3.61        0.00      63.63       2.03       0.02       3.17       ----

> <Gold.Chemscore.Fitness>
16.5797

> <Gold.Chemscore.DG>
-19.7730

> <Gold.Chemscore.ZeroCoef>
-5.4800

> <Gold.Chemscore.Hbond>
3.6094

> <Gold.Chemscore.Metal>
0.0000

> <Gold.Chemscore.Lipo>
63.6298

> <Gold.Chemscore.Internal_Hbond>
0.0000

> <Gold.Chemscore.DEClash>
0.0202

> <Gold.Chemscore.DEInternal>
3.1730

> <Gold.Chemscore.Rot>
2.0340

> <Gold.Chemscore.Internal.Correction>
   9.000000E+99

> <Gold.Chemscore.Hbonds>
donor molecule, donor type, donor heavy atom, donor atom, acceptor molecule, acceptor atom, score
      P1  H  6931  6943       L1    14  0.87
      P1  H  7989  7998       L1    19  0.92
      P1  H  7997  8008       L1    21  0.62
      P1  H  7997  8010       L1     7  0.06

> <Gold.Chemscore.Hbond.Weighted>
-12.0554

> <Gold.Chemscore.Metal.Weighted>
-0.0000

> <Gold.Chemscore.Lipo.Weighted>
-7.4447

> <Gold.Chemscore.Internal_Hbond.Weighted>
0.0000

> <Gold.Chemscore.DEClash.Weighted>
0.0202

> <Gold.Chemscore.DEInternal.Weighted>
3.1730

> <Gold.Chemscore.Rot.Weighted>
5.2071

> <Gold.Chemscore.Internal.Correction.Weighted>
   9.000000E+99

> <Gold.Protein.RotatedTorsions>
[ 6907 6896 6895 6894 ] final  142.69 input  -60.11 | X-H torsion
[ 7974 7965 7964 7962 ] final   87.40 input  175.53 | X-H torsion
[ 8008 7997 7996 7995 ] final  -35.17 input   59.86 | X-H torsion
[ 10167 10162 10161 10158 ] final  -46.79 input  -65.29 | X-H torsion
[ 10718 10713 10712 10709 ] final  -65.21 input   66.30 | X-H torsion
[ 10763 10752 10751 10750 ] final -127.88 input  -60.55 | X-H torsion
[ 11005 11000 10999 10996 ] final   45.26 input  -57.11 | X-H torsion

> <Gold.Protein.ActiveResidues>
 VAL166  LYS551  ARG553  GLY616  TRP617  ASP618  TYR619  PRO620  LYS621  CYS622 
 ASP623  PHE694  ASN695  SER759  ASP760  ASP761  ALA762  ILE779  LEU786  VAL792 
 PHE793  MET794  SER795  GLU796  ALA797  LYS798  CYS799  TRP800  GLU811  SER814 

> <Gold.Protein.RotatedAtoms>
  152.2155  133.4944  159.5133 H   0  0  0  0  0  0  0  0  0  0  0  0  # atno 6907 bound_to 6896
  150.7000  134.1410  159.4114 H   0  0  0  0  0  0  0  0  0  0  0  0  # atno 6908 bound_to 6896
  151.9331  135.0247  160.0581 H   0  0  0  0  0  0  0  0  0  0  0  0  # atno 6909 bound_to 6896
  145.5595  139.2302  143.2467 H   0  0  0  0  0  0  0  0  0  0  0  0  # atno 7974 bound_to 7965
  154.4102  140.1664  156.2168 H   0  0  0  0  0  0  0  0  0  0  0  0  # atno 8008 bound_to 7997
  155.9397  140.3409  155.6294 H   0  0  0  0  0  0  0  0  0  0  0  0  # atno 8009 bound_to 7997
  155.7004  140.0744  157.2403 H   0  0  0  0  0  0  0  0  0  0  0  0  # atno 8010 bound_to 7997
  140.6802  143.2814  151.3834 H   0  0  0  0  0  0  0  0  0  0  0  0  # atno 10167 bound_to 10162
  156.0683  130.4244  150.1531 H   0  0  0  0  0  0  0  0  0  0  0  0  # atno 10718 bound_to 10713
  154.8754  135.3947  154.3667 H   0  0  0  0  0  0  0  0  0  0  0  0  # atno 10763 bound_to 10752
  153.4432  135.7027  153.6161 H   0  0  0  0  0  0  0  0  0  0  0  0  # atno 10764 bound_to 10752
  153.4733  135.3785  155.2372 H   0  0  0  0  0  0  0  0  0  0  0  0  # atno 10765 bound_to 10752
  140.1476  134.4502  155.8404 H   0  0  0  0  0  0  0  0  0  0  0  0  # atno 11005 bound_to 11000
  146.1861  140.6419  142.9167 LP  0  0  0  0  0  0  0  0  0  0  0  0  # atno 17320 bound_to 7965
  144.7490  140.5142  143.6815 LP  0  0  0  0  0  0  0  0  0  0  0  0  # atno 17321 bound_to 7965
  139.6120  144.1079  152.2308 LP  0  0  0  0  0  0  0  0  0  0  0  0  # atno 17342 bound_to 10162
  140.0496  144.5943  150.7346 LP  0  0  0  0  0  0  0  0  0  0  0  0  # atno 17343 bound_to 10162
  156.9587  130.9798  151.3483 LP  0  0  0  0  0  0  0  0  0  0  0  0  # atno 17370 bound_to 10713
  157.5738  130.8329  149.8428 LP  0  0  0  0  0  0  0  0  0  0  0  0  # atno 17371 bound_to 10713
  141.2195  133.6859  156.7363 LP  0  0  0  0  0  0  0  0  0  0  0  0  # atno 17394 bound_to 11000
  140.2644  134.8441  157.3789 LP  0  0  0  0  0  0  0  0  0  0  0  0  # atno 17395 bound_to 11000

$$$$
