AV-unprocessed.smi:1433|AV-procd|sdf|5847|dock8
  -GOLD-   22720 5513D 1   1.00000     0.00000
 Structure written by MMmdl.
 45 46  0  0  0  0  0  0  0  0  2 V2000
  151.6301  145.2245  159.4523 C   0  0  0  0  0  0  0  0  0  0  0  0
  152.0883  143.8189  159.0477 C   0  0  2  0  0  0  0  0  0  0  0  0
  150.9020  142.8851  158.7467 C   0  0  0  0  0  0  0  0  0  0  0  0
  151.3675  141.5108  158.4153 N   0  3  2  0  0  0  0  0  0  0  0  0
  150.2406  140.6009  158.0245 C   0  0  1  0  0  0  0  0  0  0  0  0
  149.9718  140.7051  156.5048 C   0  0  0  0  0  0  0  0  0  0  0  0
  150.4628  139.1162  158.4328 C   0  0  0  0  0  0  0  0  0  0  0  0
  149.2449  138.4755  158.9175 N   0  0  0  0  0  0  0  0  0  0  0  0
  149.1518  137.1980  159.3178 C   0  0  0  0  0  0  0  0  0  0  0  0
  150.0876  136.4004  159.2645 O   0  0  0  0  0  0  0  0  0  0  0  0
  147.8014  136.7608  159.8849 C   0  0  0  0  0  0  0  0  0  0  0  0
  147.9630  136.1618  161.1980 N   0  0  0  0  0  0  0  0  0  0  0  0
  147.7616  134.8492  161.5710 C   0  0  0  0  0  0  0  0  0  0  0  0
  148.0528  134.7555  162.9017 C   0  0  0  0  0  0  0  0  0  0  0  0
  148.4283  136.0802  163.2601 C   0  0  0  0  0  0  0  0  0  0  0  0
  148.3764  136.9194  162.2382 N   0  0  0  0  0  0  0  0  0  0  0  0
  152.2488  141.0115  159.5065 C   0  0  0  0  0  0  0  0  0  0  0  0
  153.3903  142.0034  159.8024 C   0  0  2  0  0  0  0  0  0  0  0  0
  154.2573  141.5486  160.9820 C   0  0  0  0  0  0  0  0  0  0  0  0
  152.8401  143.2736  160.1227 O   0  0  0  0  0  0  0  0  0  0  0  0
  151.0519  145.6940  158.6561 H   0  0  0  0  0  0  0  0  0  0  0  0
  152.4852  145.8669  159.6640 H   0  0  0  0  0  0  0  0  0  0  0  0
  151.0066  145.1954  160.3465 H   0  0  0  0  0  0  0  0  0  0  0  0
  152.7251  143.9037  158.1653 H   0  0  0  0  0  0  0  0  0  0  0  0
  150.2343  142.8426  159.6090 H   0  0  0  0  0  0  0  0  0  0  0  0
  150.3287  143.3115  157.9258 H   0  0  0  0  0  0  0  0  0  0  0  0
  149.3498  140.9465  158.5515 H   0  0  0  0  0  0  0  0  0  0  0  0
  149.1356  140.0782  156.1947 H   0  0  0  0  0  0  0  0  0  0  0  0
  150.8447  140.3946  155.9297 H   0  0  0  0  0  0  0  0  0  0  0  0
  149.7129  141.7151  156.1923 H   0  0  0  0  0  0  0  0  0  0  0  0
  150.8273  138.5417  157.5806 H   0  0  0  0  0  0  0  0  0  0  0  0
  151.2118  139.0242  159.2204 H   0  0  0  0  0  0  0  0  0  0  0  0
  148.4225  139.0564  158.9999 H   0  0  0  0  0  0  0  0  0  0  0  0
  147.1251  137.6147  159.9525 H   0  0  0  0  0  0  0  0  0  0  0  0
  147.3352  136.0324  159.2200 H   0  0  0  0  0  0  0  0  0  0  0  0
  147.4334  134.0998  160.8656 H   0  0  0  0  0  0  0  0  0  0  0  0
  148.0046  133.8747  163.5248 H   0  0  0  0  0  0  0  0  0  0  0  0
  148.7366  136.4539  164.2255 H   0  0  0  0  0  0  0  0  0  0  0  0
  151.6532  140.8376  160.4044 H   0  0  0  0  0  0  0  0  0  0  0  0
  152.7089  140.0645  159.2266 H   0  0  0  0  0  0  0  0  0  0  0  0
  154.0290  142.1005  158.9226 H   0  0  0  0  0  0  0  0  0  0  0  0
  154.7141  140.5788  160.7834 H   0  0  0  0  0  0  0  0  0  0  0  0
  153.6678  141.4604  161.8951 H   0  0  0  0  0  0  0  0  0  0  0  0
  155.0611  142.2602  161.1722 H   0  0  0  0  0  0  0  0  0  0  0  0
  151.9596  141.5903  157.6009 H   0  0  0  0  0  0  0  0  0  0  0  0
  1  2  1  0  0  0  0
  1 21  1  0  0  0  0
  1 22  1  0  0  0  0
  1 23  1  0  0  0  0
  2 20  1  0  0  0  0
  2  3  1  0  0  0  0
  2 24  1  0  0  0  0
  3  4  1  0  0  0  0
  3 25  1  0  0  0  0
  3 26  1  0  0  0  0
  4  5  1  0  0  0  0
  4 17  1  0  0  0  0
  4 45  1  0  0  0  0
  5  6  1  0  0  0  0
  5  7  1  0  0  0  0
  5 27  1  0  0  0  0
  6 28  1  0  0  0  0
  6 29  1  0  0  0  0
  6 30  1  0  0  0  0
  7  8  1  0  0  0  0
  7 31  1  0  0  0  0
  7 32  1  0  0  0  0
  8  9  1  0  0  0  0
  8 33  1  0  0  0  0
  9 10  2  0  0  0  0
  9 11  1  0  0  0  0
 11 12  1  0  0  0  0
 11 34  1  0  0  0  0
 11 35  1  0  0  0  0
 12 16  1  0  0  0  0
 12 13  1  0  0  0  0
 13 14  2  0  0  0  0
 13 36  1  0  0  0  0
 14 15  1  0  0  0  0
 14 37  1  0  0  0  0
 15 16  2  0  0  0  0
 15 38  1  0  0  0  0
 17 18  1  0  0  0  0
 17 39  1  0  0  0  0
 17 40  1  0  0  0  0
 18 19  1  0  0  0  0
 18 20  1  0  0  0  0
 18 41  1  0  0  0  0
 19 42  1  0  0  0  0
 19 43  1  0  0  0  0
 19 44  1  0  0  0  0
M  CHG  1   4   1
M  END
> <s_m_source_file>
AV-unprocessed.smi

> <i_m_source_file_index>
1433

> <i_lp_mmshare_version>
43012

> <i_f3d_flags>
0

> <s_epik_input>
W0NIM11bQ0BASF0xW0NIMl1OKFtDSDJdW0NASF0oTzEpW0NIM10pW0NASF0oW0NIM10pW0NIMl1bTkhdQyg9TylbQ0gyXW4yW2NIXVtjSF1bY0hdbjI=

> <s_epik_cmdline>
J2VwaWtfcHl0aG9uJywgJy1waCcsICc3LjAnLCAnLXRuJywgJzgnLCAnLW1hJywgJzIwMCcsICctbWV0YWxfYmluZGluZycsICctaW1hZScsICc8aW5maWxlLm1hZT4nLCAnLW9tYWUnLCAnPG91dGZpbGUubWFlPic=

> <r_lp_tautomer_probability>
1

> <r_epik_Ionization_Penalty>
0.748405

> <r_epik_Ionization_Penalty_Charging>
0.748396

> <r_epik_Ionization_Penalty_Neutral>
8.54426e-06

> <r_epik_State_Penalty>
0.775162

> <r_epik_Charging_Adjusted_Penalty>
1.52356

> <i_epik_Tot_Q>
1

> <i_epik_Tot_abs_Q>
1

> <r_epik_Metal_State_Penalty>
0.775167

> <b_epik_Metal_Only>
0

> <s_lp_Force_Field>
OPLS_2005

> <r_lp_Energy>
17.7412

> <b_lp_Chiralities_Consistent>
1

> <s_lp_Variant>
AV-unprocessed.smi:1433-13

> <Gold.Version>
5.8.1

> <Gold.Id.Protein>
6NUR|6NUR_protein|mol2

> <Gold.PLP.Fitness>
50.9156

> <Gold.PLP.PLP>
-45.7958

> <Gold.PLP.part.hbond>
-3.0000

> <Gold.PLP.part.metal>
0.0000

> <Gold.PLP.part.buried>
-6.2739

> <Gold.PLP.part.nonpolar>
-36.3388

> <Gold.PLP.part.repulsive>
0.2749

> <Gold.PLP.ligand.clash>
0.0000

> <Gold.PLP.ligand.torsion>
1.4982

> <Gold.PLP.Chemscore.Hbond>
2.6820

> <Gold.PLP.Chemscore.CHOScore>
0.0000

> <Gold.PLP.Chemscore.Metal>
0.0000

> <Gold.Chemscore.Hbonds>
donor molecule, donor type, donor heavy atom, donor atom, acceptor molecule, acceptor atom, score
      P1  H  6896  6907       L1    10  1.00
      P1  H  6931  6943       L1    16  0.94

> <Gold.PLP.Chemscore.Internal.Correction>
0.0703

> <Gold.Rescore>
     Score         DG    S(hbond)    S(metal)    S(lipo)     H(rot)  DE(clash)    DE(int)     intcor
     19.19     -20.98       2.44        0.00     103.64       1.87       0.00       1.78       ----

> <Gold.Chemscore.Fitness>
19.1935

> <Gold.Chemscore.DG>
-20.9755

> <Gold.Chemscore.ZeroCoef>
-5.4800

> <Gold.Chemscore.Hbond>
2.4387

> <Gold.Chemscore.Metal>
0.0000

> <Gold.Chemscore.Lipo>
103.6443

> <Gold.Chemscore.Internal_Hbond>
0.0000

> <Gold.Chemscore.DEClash>
0.0000

> <Gold.Chemscore.DEInternal>
1.7820

> <Gold.Chemscore.Rot>
1.8657

> <Gold.Chemscore.Internal.Correction>
   9.000000E+99

> <Gold.Chemscore.Hbonds>
donor molecule, donor type, donor heavy atom, donor atom, acceptor molecule, acceptor atom, score
      P1  H  6896  6907       L1    10  1.00
      P1  H  6931  6943       L1    16  0.86

> <Gold.Chemscore.Hbond.Weighted>
-8.1452

> <Gold.Chemscore.Metal.Weighted>
-0.0000

> <Gold.Chemscore.Lipo.Weighted>
-12.1264

> <Gold.Chemscore.Internal_Hbond.Weighted>
0.0000

> <Gold.Chemscore.DEClash.Weighted>
0.0000

> <Gold.Chemscore.DEInternal.Weighted>
1.7820

> <Gold.Chemscore.Rot.Weighted>
4.7761

> <Gold.Chemscore.Internal.Correction.Weighted>
   9.000000E+99

> <Gold.Protein.RotatedTorsions>
[ 6907 6896 6895 6894 ] final  -43.89 input  -60.11 | X-H torsion
[ 7974 7965 7964 7962 ] final  -84.91 input  175.53 | X-H torsion
[ 8008 7997 7996 7995 ] final   42.35 input   59.86 | X-H torsion
[ 10167 10162 10161 10158 ] final    5.17 input  -65.29 | X-H torsion
[ 10718 10713 10712 10709 ] final  150.71 input   66.30 | X-H torsion
[ 10763 10752 10751 10750 ] final -163.57 input  -60.55 | X-H torsion
[ 11005 11000 10999 10996 ] final   32.30 input  -57.11 | X-H torsion

> <Gold.Protein.ActiveResidues>
 VAL166  LYS551  ARG553  GLY616  TRP617  ASP618  TYR619  PRO620  LYS621  CYS622 
 ASP623  PHE694  ASN695  SER759  ASP760  ASP761  ALA762  ILE779  LEU786  VAL792 
 PHE793  MET794  SER795  GLU796  ALA797  LYS798  CYS799  TRP800  GLU811  SER814 

> <Gold.Protein.RotatedAtoms>
  150.9389  134.8800  159.7599 H   0  0  0  0  0  0  0  0  0  0  0  0  # atno 6907 bound_to 6896
  152.5071  134.3970  159.9413 H   0  0  0  0  0  0  0  0  0  0  0  0  # atno 6908 bound_to 6896
  151.3993  133.3723  159.2765 H   0  0  0  0  0  0  0  0  0  0  0  0  # atno 6909 bound_to 6896
  145.5004  140.9547  143.1763 H   0  0  0  0  0  0  0  0  0  0  0  0  # atno 7974 bound_to 7965
  155.2847  140.3375  155.4256 H   0  0  0  0  0  0  0  0  0  0  0  0  # atno 8008 bound_to 7997
  156.2074  140.1756  156.7811 H   0  0  0  0  0  0  0  0  0  0  0  0  # atno 8009 bound_to 7997
  154.5639  140.0682  156.8845 H   0  0  0  0  0  0  0  0  0  0  0  0  # atno 8010 bound_to 7997
  140.6496  143.7577  150.7554 H   0  0  0  0  0  0  0  0  0  0  0  0  # atno 10167 bound_to 10162
  157.2800  131.0833  151.1538 H   0  0  0  0  0  0  0  0  0  0  0  0  # atno 10718 bound_to 10713
  154.7110  135.3006  154.9196 H   0  0  0  0  0  0  0  0  0  0  0  0  # atno 10763 bound_to 10752
  154.0098  135.6696  153.4768 H   0  0  0  0  0  0  0  0  0  0  0  0  # atno 10764 bound_to 10752
  153.0755  135.5037  154.8309 H   0  0  0  0  0  0  0  0  0  0  0  0  # atno 10765 bound_to 10752
  140.2749  134.3039  155.7817 H   0  0  0  0  0  0  0  0  0  0  0  0  # atno 11005 bound_to 11000
  144.7783  139.6581  143.7165 LP  0  0  0  0  0  0  0  0  0  0  0  0  # atno 17320 bound_to 7965
  146.2230  139.5670  142.9606 LP  0  0  0  0  0  0  0  0  0  0  0  0  # atno 17321 bound_to 7965
  140.1225  143.4599  152.2304 LP  0  0  0  0  0  0  0  0  0  0  0  0  # atno 17342 bound_to 10162
  139.5710  144.7462  151.3891 LP  0  0  0  0  0  0  0  0  0  0  0  0  # atno 17343 bound_to 10162
  157.2976  130.6827  149.6147 LP  0  0  0  0  0  0  0  0  0  0  0  0  # atno 17370 bound_to 10713
  155.9664  130.4402  150.5288 LP  0  0  0  0  0  0  0  0  0  0  0  0  # atno 17371 bound_to 10713
  141.2172  133.7490  156.9392 LP  0  0  0  0  0  0  0  0  0  0  0  0  # atno 17394 bound_to 11000
  140.1338  134.9339  157.2373 LP  0  0  0  0  0  0  0  0  0  0  0  0  # atno 17395 bound_to 11000

$$$$
