AV-unprocessed.smi:308|AV-procd|sdf|2285|dock5
  -GOLD-   2262022183D 1   1.00000     0.00000
 Structure written by MMmdl.
 51 52  0  0  0  0  0  0  0  0  3 V2000
  146.4471  132.5154  154.6760 C   0  0  0  0  0  0  0  0  0  0  0  0
  145.9394  133.5714  153.6842 C   0  0  2  0  0  0  0  0  0  0  0  0
  146.5998  133.4208  152.3037 C   0  0  0  0  0  0  0  0  0  0  0  0
  146.1061  134.5018  151.3274 C   0  0  0  0  0  0  0  0  0  0  0  0
  146.3448  135.8657  151.8671 N   0  3  1  0  0  0  0  0  0  0  0  0
  145.9967  136.9241  150.8858 C   0  0  0  0  0  0  0  0  0  0  0  0
  146.1700  138.3426  151.4632 C   0  0  0  0  0  0  0  0  0  0  0  0
  147.4006  138.4619  152.2375 N   0  0  0  0  0  0  0  0  0  0  0  0
  147.6651  139.4458  153.1088 C   0  0  0  0  0  0  0  0  0  0  0  0
  146.8764  140.3573  153.3567 O   0  0  0  0  0  0  0  0  0  0  0  0
  148.8887  139.3057  153.6480 N   0  0  0  0  0  0  0  0  0  0  0  0
  149.5351  140.1301  154.6095 C   0  0  0  0  0  0  0  0  0  0  0  0
  150.6344  139.5879  155.3071 C   0  0  0  0  0  0  0  0  0  0  0  0
  151.3015  140.3616  156.2790 C   0  0  0  0  0  0  0  0  0  0  0  0
  150.8594  141.6784  156.5570 C   0  0  0  0  0  0  0  0  0  0  0  0
  151.4743  142.5150  157.5135 N   0  0  0  0  0  0  0  0  0  0  0  0
  151.4557  143.9606  157.3314 C   0  0  0  0  0  0  0  0  0  0  0  0
  152.1347  141.9266  158.6736 C   0  0  0  0  0  0  0  0  0  0  0  0
  149.7912  142.1512  155.8697 N   0  3  0  0  0  0  0  0  0  0  0  0
  149.1244  141.4461  154.9306 C   0  0  0  0  0  0  0  0  0  0  0  0
  145.6886  136.0496  153.1893 C   0  0  0  0  0  0  0  0  0  0  0  0
  146.1747  134.9997  154.2026 C   0  0  0  0  0  0  0  0  0  0  0  0
  147.5215  132.6067  154.8395 H   0  0  0  0  0  0  0  0  0  0  0  0
  146.2508  131.5071  154.3105 H   0  0  0  0  0  0  0  0  0  0  0  0
  145.9539  132.6162  155.6432 H   0  0  0  0  0  0  0  0  0  0  0  0
  144.8646  133.4253  153.5653 H   0  0  0  0  0  0  0  0  0  0  0  0
  147.6844  133.4876  152.4021 H   0  0  0  0  0  0  0  0  0  0  0  0
  146.3878  132.4327  151.8936 H   0  0  0  0  0  0  0  0  0  0  0  0
  146.6267  134.3841  150.3760 H   0  0  0  0  0  0  0  0  0  0  0  0
  145.0418  134.3700  151.1252 H   0  0  0  0  0  0  0  0  0  0  0  0
  146.6492  136.8263  150.0171 H   0  0  0  0  0  0  0  0  0  0  0  0
  144.9786  136.7734  150.5230 H   0  0  0  0  0  0  0  0  0  0  0  0
  146.2187  139.0839  150.6666 H   0  0  0  0  0  0  0  0  0  0  0  0
  145.3130  138.6100  152.0841 H   0  0  0  0  0  0  0  0  0  0  0  0
  148.1048  137.7538  152.0874 H   0  0  0  0  0  0  0  0  0  0  0  0
  149.4434  138.5406  153.2929 H   0  0  0  0  0  0  0  0  0  0  0  0
  150.9729  138.5834  155.0984 H   0  0  0  0  0  0  0  0  0  0  0  0
  152.1442  139.9286  156.7966 H   0  0  0  0  0  0  0  0  0  0  0  0
  151.9577  144.2364  156.4037 H   0  0  0  0  0  0  0  0  0  0  0  0
  151.9654  144.4702  158.1494 H   0  0  0  0  0  0  0  0  0  0  0  0
  150.4304  144.3297  157.2972 H   0  0  0  0  0  0  0  0  0  0  0  0
  152.9515  141.2757  158.3602 H   0  0  0  0  0  0  0  0  0  0  0  0
  151.4278  141.3392  159.2607 H   0  0  0  0  0  0  0  0  0  0  0  0
  152.5514  142.6946  159.3254 H   0  0  0  0  0  0  0  0  0  0  0  0
  148.2874  141.9649  154.4890 H   0  0  0  0  0  0  0  0  0  0  0  0
  145.9011  137.0418  153.5856 H   0  0  0  0  0  0  0  0  0  0  0  0
  144.6057  135.9826  153.0720 H   0  0  0  0  0  0  0  0  0  0  0  0
  145.6581  135.1414  155.1525 H   0  0  0  0  0  0  0  0  0  0  0  0
  147.2364  135.1518  154.4036 H   0  0  0  0  0  0  0  0  0  0  0  0
  147.3411  135.9350  152.0191 H   0  0  0  0  0  0  0  0  0  0  0  0
  149.4691  143.0971  156.0747 H   0  0  0  0  0  0  0  0  0  0  0  0
  1  2  1  0  0  0  0
  1 23  1  0  0  0  0
  1 24  1  0  0  0  0
  1 25  1  0  0  0  0
  2 22  1  0  0  0  0
  2  3  1  0  0  0  0
  2 26  1  0  0  0  0
  3  4  1  0  0  0  0
  3 27  1  0  0  0  0
  3 28  1  0  0  0  0
  4  5  1  0  0  0  0
  4 29  1  0  0  0  0
  4 30  1  0  0  0  0
  5  6  1  0  0  0  0
  5 21  1  0  0  0  0
  5 50  1  0  0  0  0
  6  7  1  0  0  0  0
  6 31  1  0  0  0  0
  6 32  1  0  0  0  0
  7  8  1  0  0  0  0
  7 33  1  0  0  0  0
  7 34  1  0  0  0  0
  8  9  1  0  0  0  0
  8 35  1  0  0  0  0
  9 10  2  0  0  0  0
  9 11  1  0  0  0  0
 11 12  1  0  0  0  0
 11 36  1  0  0  0  0
 12 20  1  0  0  0  0
 12 13  2  0  0  0  0
 13 14  1  0  0  0  0
 13 37  1  0  0  0  0
 14 15  2  0  0  0  0
 14 38  1  0  0  0  0
 15 16  1  0  0  0  0
 15 19  1  0  0  0  0
 16 17  1  0  0  0  0
 16 18  1  0  0  0  0
 17 39  1  0  0  0  0
 17 40  1  0  0  0  0
 17 41  1  0  0  0  0
 18 42  1  0  0  0  0
 18 43  1  0  0  0  0
 18 44  1  0  0  0  0
 19 20  2  0  0  0  0
 19 51  1  0  0  0  0
 20 45  1  0  0  0  0
 21 22  1  0  0  0  0
 21 46  1  0  0  0  0
 21 47  1  0  0  0  0
 22 48  1  0  0  0  0
 22 49  1  0  0  0  0
M  CHG  1   5   1
M  CHG  1  19   1
M  END
> <s_m_source_file>
AV-unprocessed.smi

> <i_m_source_file_index>
308

> <i_lp_mmshare_version>
43012

> <i_f3d_flags>
0

> <s_epik_input>
W0NIM11bQ0hdMVtDSDJdW0NIMl1OKFtDSDJdW0NIMl0xKVtDSDJdW0NIMl1bTkhdQyg9TylbTkhdYzJbY0hdW2NIXWMoTihbQ0gzXSlbQ0gzXSluW2NIXTI=

> <s_epik_cmdline>
J2VwaWtfcHl0aG9uJywgJy1waCcsICc3LjAnLCAnLXRuJywgJzgnLCAnLW1hJywgJzIwMCcsICctbWV0YWxfYmluZGluZycsICctaW1hZScsICc8aW5maWxlLm1hZT4nLCAnLW9tYWUnLCAnPG91dGZpbGUubWFlPic=

> <r_lp_tautomer_probability>
0.999994

> <r_epik_Ionization_Penalty>
0.309846

> <r_epik_Ionization_Penalty_Charging>
0.309826

> <r_epik_Ionization_Penalty_Neutral>
1.97883e-05

> <r_epik_State_Penalty>
0.302329

> <r_epik_Charging_Adjusted_Penalty>
0.612155

> <i_epik_Tot_Q>
2

> <i_epik_Tot_abs_Q>
2

> <r_epik_Metal_State_Penalty>
0.577265

> <b_epik_Metal_Only>
0

> <s_lp_Force_Field>
OPLS_2005

> <r_lp_Energy>
27.4115

> <b_lp_Chiralities_Consistent>
1

> <s_lp_Variant>
AV-unprocessed.smi:308-1

> <Gold.Version>
5.8.1

> <Gold.Id.Protein>
6NUR|6NUR_protein|mol2

> <Gold.PLP.Fitness>
51.0706

> <Gold.PLP.PLP>
-37.3414

> <Gold.PLP.part.hbond>
-5.0000

> <Gold.PLP.part.metal>
0.0000

> <Gold.PLP.part.buried>
2.7729

> <Gold.PLP.part.nonpolar>
-36.6323

> <Gold.PLP.part.repulsive>
0.5791

> <Gold.PLP.ligand.clash>
0.0000

> <Gold.PLP.ligand.torsion>
0.6490

> <Gold.PLP.Chemscore.Hbond>
5.0000

> <Gold.PLP.Chemscore.CHOScore>
0.0000

> <Gold.PLP.Chemscore.Metal>
0.0000

> <Gold.Chemscore.Hbonds>
donor molecule, donor type, donor heavy atom, donor atom, acceptor molecule, acceptor atom, score
      L1  H     5    50       P1  7948  2.00
      L1  H     8    35       P1  7948  1.00
      L1  H    19    51       P1  8028  2.00

> <Gold.PLP.Chemscore.Internal.Correction>
0.0272

> <Gold.Rescore>
     Score         DG    S(hbond)    S(metal)    S(lipo)     H(rot)  DE(clash)    DE(int)     intcor
     18.14     -20.95       2.92        0.00      80.52       1.45       0.92       1.90       ----

> <Gold.Chemscore.Fitness>
18.1362

> <Gold.Chemscore.DG>
-20.9549

> <Gold.Chemscore.ZeroCoef>
-5.4800

> <Gold.Chemscore.Hbond>
2.9222

> <Gold.Chemscore.Metal>
0.0000

> <Gold.Chemscore.Lipo>
80.5233

> <Gold.Chemscore.Internal_Hbond>
0.0000

> <Gold.Chemscore.DEClash>
0.9183

> <Gold.Chemscore.DEInternal>
1.9004

> <Gold.Chemscore.Rot>
1.4479

> <Gold.Chemscore.Internal.Correction>
   9.000000E+99

> <Gold.Chemscore.Hbonds>
donor molecule, donor type, donor heavy atom, donor atom, acceptor molecule, acceptor atom, score
      L1  H     5    50       P1  7948  0.99
      L1  H     8    35       P1  7948  1.00
      L1  H    19    51       P1  8028  0.98

> <Gold.Chemscore.Hbond.Weighted>
-9.7602

> <Gold.Chemscore.Metal.Weighted>
-0.0000

> <Gold.Chemscore.Lipo.Weighted>
-9.4212

> <Gold.Chemscore.Internal_Hbond.Weighted>
0.0000

> <Gold.Chemscore.DEClash.Weighted>
0.9183

> <Gold.Chemscore.DEInternal.Weighted>
1.9004

> <Gold.Chemscore.Rot.Weighted>
3.7065

> <Gold.Chemscore.Internal.Correction.Weighted>
   9.000000E+99

> <Gold.Protein.RotatedTorsions>
[ 6907 6896 6895 6894 ] final   40.03 input  -60.11 | X-H torsion
[ 7974 7965 7964 7962 ] final  -88.24 input  175.53 | X-H torsion
[ 8008 7997 7996 7995 ] final  146.65 input   59.86 | X-H torsion
[ 10167 10162 10161 10158 ] final  120.27 input  -65.29 | X-H torsion
[ 10718 10713 10712 10709 ] final  -45.38 input   66.30 | X-H torsion
[ 10763 10752 10751 10750 ] final   92.74 input  -60.55 | X-H torsion
[ 11005 11000 10999 10996 ] final    9.11 input  -57.11 | X-H torsion

> <Gold.Protein.ActiveResidues>
 VAL166  LYS551  ARG553  GLY616  TRP617  ASP618  TYR619  PRO620  LYS621  CYS622 
 ASP623  PHE694  ASN695  SER759  ASP760  ASP761  ALA762  ILE779  LEU786  VAL792 
 PHE793  MET794  SER795  GLU796  ALA797  LYS798  CYS799  TRP800  GLU811  SER814 

> <Gold.Protein.RotatedAtoms>
  152.1773  134.8784  160.0529 H   0  0  0  0  0  0  0  0  0  0  0  0  # atno 6907 bound_to 6896
  151.9721  133.3724  159.4083 H   0  0  0  0  0  0  0  0  0  0  0  0  # atno 6908 bound_to 6896
  150.6911  134.4052  159.5180 H   0  0  0  0  0  0  0  0  0  0  0  0  # atno 6909 bound_to 6896
  145.4558  140.9561  143.1997 H   0  0  0  0  0  0  0  0  0  0  0  0  # atno 7974 bound_to 7965
  156.2849  140.2177  156.5411 H   0  0  0  0  0  0  0  0  0  0  0  0  # atno 8008 bound_to 7997
  154.7369  140.0491  157.0799 H   0  0  0  0  0  0  0  0  0  0  0  0  # atno 8009 bound_to 7997
  155.0281  140.3132  155.4771 H   0  0  0  0  0  0  0  0  0  0  0  0  # atno 8010 bound_to 7997
  139.5993  144.7051  151.3101 H   0  0  0  0  0  0  0  0  0  0  0  0  # atno 10167 bound_to 10162
  156.2290  130.4171  149.8899 H   0  0  0  0  0  0  0  0  0  0  0  0  # atno 10718 bound_to 10713
  153.2225  135.4351  155.0505 H   0  0  0  0  0  0  0  0  0  0  0  0  # atno 10763 bound_to 10752
  154.8257  135.3359  154.6907 H   0  0  0  0  0  0  0  0  0  0  0  0  # atno 10764 bound_to 10752
  153.7338  135.7009  153.5039 H   0  0  0  0  0  0  0  0  0  0  0  0  # atno 10765 bound_to 10752
  140.5294  134.0481  155.7868 H   0  0  0  0  0  0  0  0  0  0  0  0  # atno 11005 bound_to 11000
  144.8033  139.6099  143.7062 LP  0  0  0  0  0  0  0  0  0  0  0  0  # atno 17320 bound_to 7965
  146.2479  139.6137  142.9447 LP  0  0  0  0  0  0  0  0  0  0  0  0  # atno 17321 bound_to 7965
  140.7237  143.7065  150.7803 LP  0  0  0  0  0  0  0  0  0  0  0  0  # atno 17342 bound_to 10162
  140.0638  143.5129  152.2614 LP  0  0  0  0  0  0  0  0  0  0  0  0  # atno 17343 bound_to 10162
  156.6519  130.8747  151.3533 LP  0  0  0  0  0  0  0  0  0  0  0  0  # atno 17370 bound_to 10713
  157.7124  130.9456  150.1135 LP  0  0  0  0  0  0  0  0  0  0  0  0  # atno 17371 bound_to 10713
  141.1290  133.9334  157.2575 LP  0  0  0  0  0  0  0  0  0  0  0  0  # atno 17394 bound_to 11000
  139.9562  135.0165  156.9135 LP  0  0  0  0  0  0  0  0  0  0  0  0  # atno 17395 bound_to 11000

$$$$
