AV-unprocessed.smi:1680|AV-procd|sdf|6740|dock1
  -GOLD-   22720 7493D 1   1.00000     0.00000
 Structure written by MMmdl.
 38 39  0  0  0  0  0  0  0  0  3 V2000
  143.7967  132.3841  150.1139 C   0  0  0  0  0  0  0  0  0  0  0  0
  144.9488  132.2588  151.1132 C   0  0  0  0  0  0  0  0  0  0  0  0
  145.0175  131.2338  151.7912 O   0  0  0  0  0  0  0  0  0  0  0  0
  145.8465  133.2677  151.2211 N   0  0  0  0  0  0  0  0  0  0  0  0
  146.9475  133.2524  152.1884 C   0  0  0  0  0  0  0  0  0  0  0  0
  146.7108  134.3532  153.2381 C   0  0  0  0  0  0  0  0  0  0  0  0
  146.5393  135.6870  152.6023 N   0  3  0  0  0  0  0  0  0  0  0  0
  146.3245  136.7593  153.6053 C   0  0  0  0  0  0  0  0  0  0  0  0
  146.4152  138.1682  152.9898 C   0  0  0  0  0  0  0  0  0  0  0  0
  147.7888  138.6569  152.9877 N   0  0  0  0  0  0  0  0  0  0  0  0
  148.5902  138.7406  154.0592 C   0  0  0  0  0  0  0  0  0  0  0  0
  148.1776  138.3789  155.1637 O   0  0  0  0  0  0  0  0  0  0  0  0
  149.8144  139.2433  153.7849 N   0  5  0  0  0  0  0  0  0  0  0  0
  150.8543  138.9530  154.5844 C   0  0  0  0  0  0  0  0  0  0  0  0
  151.8220  139.8437  154.8541 N   0  0  0  0  0  0  0  0  0  0  0  0
  152.8001  139.3465  155.7046 N   0  0  0  0  0  0  0  0  0  0  0  0
  152.5397  138.0892  156.0622 C   0  0  0  0  0  0  0  0  0  0  0  0
  151.0745  137.3999  155.3958 S   0  0  0  0  0  0  0  0  0  0  0  0
  145.5204  135.6780  151.5157 C   0  0  0  0  0  0  0  0  0  0  0  0
  145.7832  134.5458  150.5053 C   0  0  0  0  0  0  0  0  0  0  0  0
  143.1737  133.2482  150.3468 H   0  0  0  0  0  0  0  0  0  0  0  0
  143.1612  131.4981  150.1468 H   0  0  0  0  0  0  0  0  0  0  0  0
  144.1761  132.4825  149.0963 H   0  0  0  0  0  0  0  0  0  0  0  0
  147.0629  132.2885  152.6858 H   0  0  0  0  0  0  0  0  0  0  0  0
  147.8875  133.4302  151.6640 H   0  0  0  0  0  0  0  0  0  0  0  0
  145.8229  134.1175  153.8274 H   0  0  0  0  0  0  0  0  0  0  0  0
  147.5532  134.3820  153.9302 H   0  0  0  0  0  0  0  0  0  0  0  0
  145.3645  136.6150  154.1033 H   0  0  0  0  0  0  0  0  0  0  0  0
  147.0879  136.6715  154.3798 H   0  0  0  0  0  0  0  0  0  0  0  0
  146.0148  138.1718  151.9745 H   0  0  0  0  0  0  0  0  0  0  0  0
  145.8223  138.8817  153.5607 H   0  0  0  0  0  0  0  0  0  0  0  0
  148.1680  138.9581  152.1016 H   0  0  0  0  0  0  0  0  0  0  0  0
  153.2128  137.5658  156.7244 H   0  0  0  0  0  0  0  0  0  0  0  0
  144.5270  135.5584  151.9514 H   0  0  0  0  0  0  0  0  0  0  0  0
  145.5219  136.6309  150.9878 H   0  0  0  0  0  0  0  0  0  0  0  0
  146.7347  134.7141  149.9986 H   0  0  0  0  0  0  0  0  0  0  0  0
  145.0282  134.5730  149.7210 H   0  0  0  0  0  0  0  0  0  0  0  0
  147.4250  135.8905  152.1612 H   0  0  0  0  0  0  0  0  0  0  0  0
  1  2  1  0  0  0  0
  1 21  1  0  0  0  0
  1 22  1  0  0  0  0
  1 23  1  0  0  0  0
  2  3  2  0  0  0  0
  2  4  1  0  0  0  0
  4 20  1  0  0  0  0
  4  5  1  0  0  0  0
  5  6  1  0  0  0  0
  5 24  1  0  0  0  0
  5 25  1  0  0  0  0
  6  7  1  0  0  0  0
  6 26  1  0  0  0  0
  6 27  1  0  0  0  0
  7  8  1  0  0  0  0
  7 19  1  0  0  0  0
  7 38  1  0  0  0  0
  8  9  1  0  0  0  0
  8 28  1  0  0  0  0
  8 29  1  0  0  0  0
  9 10  1  0  0  0  0
  9 30  1  0  0  0  0
  9 31  1  0  0  0  0
 10 11  1  0  0  0  0
 10 32  1  0  0  0  0
 11 12  2  0  0  0  0
 11 13  1  0  0  0  0
 13 14  1  0  0  0  0
 14 18  1  0  0  0  0
 14 15  2  0  0  0  0
 15 16  1  0  0  0  0
 16 17  2  0  0  0  0
 17 18  1  0  0  0  0
 17 33  1  0  0  0  0
 19 20  1  0  0  0  0
 19 34  1  0  0  0  0
 19 35  1  0  0  0  0
 20 36  1  0  0  0  0
 20 37  1  0  0  0  0
M  CHG  1   7   1
M  CHG  1  13  -1
M  END
> <s_m_source_file>
AV-unprocessed.smi

> <i_m_source_file_index>
1680

> <i_lp_mmshare_version>
43012

> <i_f3d_flags>
0

> <s_epik_input>
W0NIM11DKD1PKU4xW0NIMl1bQ0gyXU4oW0NIMl1bQ0gyXTEpW0NIMl1bQ0gyXVtOSF1DKD1PKVtOSF1jMm5uW2NIXXMy

> <s_epik_cmdline>
J2VwaWtfcHl0aG9uJywgJy1waCcsICc3LjAnLCAnLXRuJywgJzgnLCAnLW1hJywgJzIwMCcsICctbWV0YWxfYmluZGluZycsICctaW1hZScsICc8aW5maWxlLm1hZT4nLCAnLW9tYWUnLCAnPG91dGZpbGUubWFlPic=

> <r_lp_tautomer_probability>
1

> <r_epik_Ionization_Penalty>
3.68953

> <r_epik_Ionization_Penalty_Charging>
3.65812

> <r_epik_Ionization_Penalty_Neutral>
0.0314116

> <r_epik_State_Penalty>
3.68215

> <r_epik_Charging_Adjusted_Penalty>
7.34027

> <i_epik_Tot_Q>
0

> <i_epik_Tot_abs_Q>
2

> <r_epik_Metal_State_Penalty>
1.11495

> <b_epik_Metal_Only>
1

> <s_lp_Force_Field>
OPLS_2005

> <r_lp_Energy>
32.4697

> <b_lp_Chiralities_Consistent>
1

> <s_lp_Variant>
AV-unprocessed.smi:1680-4

> <Gold.Version>
5.8.1

> <Gold.Id.Protein>
6NUR|6NUR_protein|mol2

> <Gold.PLP.Fitness>
44.2777

> <Gold.PLP.PLP>
-30.3760

> <Gold.PLP.part.hbond>
-5.0000

> <Gold.PLP.part.metal>
0.0000

> <Gold.PLP.part.buried>
-4.8354

> <Gold.PLP.part.nonpolar>
-22.8447

> <Gold.PLP.part.repulsive>
2.6282

> <Gold.PLP.ligand.clash>
0.0000

> <Gold.PLP.ligand.torsion>
0.5955

> <Gold.PLP.Chemscore.Hbond>
4.9840

> <Gold.PLP.Chemscore.CHOScore>
0.0000

> <Gold.PLP.Chemscore.Metal>
0.0000

> <Gold.Chemscore.Hbonds>
donor molecule, donor type, donor heavy atom, donor atom, acceptor molecule, acceptor atom, score
      L1  H     7    38       P1  7948  2.00
      L1  H    10    32       P1  7957  0.96
      P1  H  7989  7998       L1    15  0.99
      P1  H  7997  8009       L1    16  1.00

> <Gold.PLP.Chemscore.Internal.Correction>
0.1408

> <Gold.Rescore>
     Score         DG    S(hbond)    S(metal)    S(lipo)     H(rot)  DE(clash)    DE(int)     intcor
     13.05     -16.98       3.03        0.00      51.10       1.80       2.10       1.83       ----

> <Gold.Chemscore.Fitness>
13.0532

> <Gold.Chemscore.DG>
-16.9848

> <Gold.Chemscore.ZeroCoef>
-5.4800

> <Gold.Chemscore.Hbond>
3.0342

> <Gold.Chemscore.Metal>
0.0000

> <Gold.Chemscore.Lipo>
51.1042

> <Gold.Chemscore.Internal_Hbond>
0.0000

> <Gold.Chemscore.DEClash>
2.1041

> <Gold.Chemscore.DEInternal>
1.8274

> <Gold.Chemscore.Rot>
1.8003

> <Gold.Chemscore.Internal.Correction>
   9.000000E+99

> <Gold.Chemscore.Hbonds>
donor molecule, donor type, donor heavy atom, donor atom, acceptor molecule, acceptor atom, score
      L1  H     7    38       P1  7948  0.97
      L1  H    10    32       P1  7957  0.86
      P1  H  7989  7998       L1    15  0.24
      P1  H  7997  8009       L1    16  0.98

> <Gold.Chemscore.Hbond.Weighted>
-10.1344

> <Gold.Chemscore.Metal.Weighted>
-0.0000

> <Gold.Chemscore.Lipo.Weighted>
-5.9792

> <Gold.Chemscore.Internal_Hbond.Weighted>
0.0000

> <Gold.Chemscore.DEClash.Weighted>
2.1041

> <Gold.Chemscore.DEInternal.Weighted>
1.8274

> <Gold.Chemscore.Rot.Weighted>
4.6088

> <Gold.Chemscore.Internal.Correction.Weighted>
   9.000000E+99

> <Gold.Protein.RotatedTorsions>
[ 6907 6896 6895 6894 ] final  168.71 input  -60.11 | X-H torsion
[ 7974 7965 7964 7962 ] final -160.89 input  175.53 | X-H torsion
[ 8008 7997 7996 7995 ] final -136.64 input   59.86 | X-H torsion
[ 10167 10162 10161 10158 ] final  -14.46 input  -65.29 | X-H torsion
[ 10718 10713 10712 10709 ] final  122.47 input   66.30 | X-H torsion
[ 10763 10752 10751 10750 ] final -104.38 input  -60.55 | X-H torsion
[ 11005 11000 10999 10996 ] final  -72.02 input  -57.11 | X-H torsion

> <Gold.Protein.ActiveResidues>
 VAL166  LYS551  ARG553  GLY616  TRP617  ASP618  TYR619  PRO620  LYS621  CYS622 
 ASP623  PHE694  ASN695  SER759  ASP760  ASP761  ALA762  ILE779  LEU786  VAL792 
 PHE793  MET794  SER795  GLU796  ALA797  LYS798  CYS799  TRP800  GLU811  SER814 

> <Gold.Protein.RotatedAtoms>
  151.8433  133.3427  159.3649 H   0  0  0  0  0  0  0  0  0  0  0  0  # atno 6907 bound_to 6896
  150.7228  134.5370  159.5738 H   0  0  0  0  0  0  0  0  0  0  0  0  # atno 6908 bound_to 6896
  152.2848  134.7788  160.0440 H   0  0  0  0  0  0  0  0  0  0  0  0  # atno 6909 bound_to 6896
  144.7410  140.3477  143.6122 H   0  0  0  0  0  0  0  0  0  0  0  0  # atno 7974 bound_to 7965
  155.3986  140.0504  157.3038 H   0  0  0  0  0  0  0  0  0  0  0  0  # atno 8008 bound_to 7997
  154.5002  140.2153  155.9324 H   0  0  0  0  0  0  0  0  0  0  0  0  # atno 8009 bound_to 7997
  156.1457  140.3146  155.8571 H   0  0  0  0  0  0  0  0  0  0  0  0  # atno 8010 bound_to 7997
  140.7201  143.5319  150.9510 H   0  0  0  0  0  0  0  0  0  0  0  0  # atno 10167 bound_to 10162
  157.5740  131.1081  150.8314 H   0  0  0  0  0  0  0  0  0  0  0  0  # atno 10718 bound_to 10713
  154.7874  135.4788  153.9976 H   0  0  0  0  0  0  0  0  0  0  0  0  # atno 10763 bound_to 10752
  153.1580  135.6803  153.8791 H   0  0  0  0  0  0  0  0  0  0  0  0  # atno 10764 bound_to 10752
  153.8414  135.3179  155.3404 H   0  0  0  0  0  0  0  0  0  0  0  0  # atno 10765 bound_to 10752
  141.1602  133.6834  156.6995 H   0  0  0  0  0  0  0  0  0  0  0  0  # atno 11005 bound_to 11000
  145.7309  139.1736  143.2431 LP  0  0  0  0  0  0  0  0  0  0  0  0  # atno 17320 bound_to 7965
  146.1207  140.7312  142.9459 LP  0  0  0  0  0  0  0  0  0  0  0  0  # atno 17321 bound_to 7965
  139.9039  143.6802  152.3126 LP  0  0  0  0  0  0  0  0  0  0  0  0  # atno 17342 bound_to 10162
  139.7161  144.7611  151.1032 LP  0  0  0  0  0  0  0  0  0  0  0  0  # atno 17343 bound_to 10162
  156.8778  130.5169  149.5292 LP  0  0  0  0  0  0  0  0  0  0  0  0  # atno 17370 bound_to 10713
  156.0784  130.5801  150.9518 LP  0  0  0  0  0  0  0  0  0  0  0  0  # atno 17371 bound_to 10713
  140.2970  134.8195  157.4065 LP  0  0  0  0  0  0  0  0  0  0  0  0  # atno 17394 bound_to 11000
  140.1296  134.5113  155.8116 LP  0  0  0  0  0  0  0  0  0  0  0  0  # atno 17395 bound_to 11000

$$$$
