AV-unprocessed.smi:1406|AV-procd|sdf|5713|dock10
  -GOLD-   22720 5343D 1   1.00000     0.00000
 Structure written by MMmdl.
 41 43  0  0  0  0  0  0  0  0  2 V2000
  151.6010  141.1287  157.0787 C   0  0  0  0  0  0  0  0  0  0  0  0
  151.0604  140.7713  155.6792 C   0  0  2  0  0  0  0  0  0  0  0  0
  149.5763  141.1308  155.5020 C   0  0  0  0  0  0  0  0  0  0  0  0
  148.9541  141.7003  156.3990 O   0  0  0  0  0  0  0  0  0  0  0  0
  149.0185  140.7901  154.3292 N   0  0  0  0  0  0  0  0  0  0  0  0
  147.6223  141.0107  153.9653 C   0  0  2  0  0  0  0  0  0  0  0  0
  147.2450  142.5020  153.9216 C   0  0  0  0  0  0  0  0  0  0  0  0
  145.8095  142.5771  154.4781 C   0  0  0  0  0  0  0  0  0  0  0  0
  145.4068  141.1770  154.7114 N   0  3  2  0  0  0  0  0  0  0  0  0
  144.3477  140.9387  155.7160 C   0  0  0  0  0  0  0  0  0  0  0  0
  144.0095  139.4349  155.7506 C   0  0  0  0  0  0  0  0  0  0  0  0
  145.2687  138.5708  155.9654 C   0  0  0  0  0  0  0  0  0  0  0  0
  146.3706  138.9296  154.9498 C   0  0  0  0  0  0  0  0  0  0  0  0
  146.6476  140.4420  155.0004 C   0  0  1  0  0  0  0  0  0  0  0  0
  151.2843  139.3695  155.3481 N   0  0  0  0  0  0  0  0  0  0  0  0
  151.9721  138.4319  156.0039 C   0  0  0  0  0  0  0  0  0  0  0  0
  152.0072  137.2591  155.3871 N   0  0  0  0  0  0  0  0  0  0  0  0
  151.2757  137.5646  154.2744 C   0  0  0  0  0  0  0  0  0  0  0  0
  150.8279  138.8176  154.1960 N   0  0  0  0  0  0  0  0  0  0  0  0
  151.4758  142.1914  157.2895 H   0  0  0  0  0  0  0  0  0  0  0  0
  152.6658  140.9058  157.1513 H   0  0  0  0  0  0  0  0  0  0  0  0
  151.0935  140.5735  157.8688 H   0  0  0  0  0  0  0  0  0  0  0  0
  151.6233  141.3649  154.9564 H   0  0  0  0  0  0  0  0  0  0  0  0
  149.6003  140.3253  153.6471 H   0  0  0  0  0  0  0  0  0  0  0  0
  147.4088  140.5758  152.9863 H   0  0  0  0  0  0  0  0  0  0  0  0
  147.9117  143.1007  154.5441 H   0  0  0  0  0  0  0  0  0  0  0  0
  147.3079  142.8930  152.9053 H   0  0  0  0  0  0  0  0  0  0  0  0
  145.8018  143.1323  155.4175 H   0  0  0  0  0  0  0  0  0  0  0  0
  145.1212  143.0673  153.7890 H   0  0  0  0  0  0  0  0  0  0  0  0
  144.6820  141.2784  156.6977 H   0  0  0  0  0  0  0  0  0  0  0  0
  143.4608  141.5183  155.4575 H   0  0  0  0  0  0  0  0  0  0  0  0
  143.2796  139.2336  156.5353 H   0  0  0  0  0  0  0  0  0  0  0  0
  143.5356  139.1506  154.8100 H   0  0  0  0  0  0  0  0  0  0  0  0
  145.6449  138.7248  156.9775 H   0  0  0  0  0  0  0  0  0  0  0  0
  145.0160  137.5130  155.8878 H   0  0  0  0  0  0  0  0  0  0  0  0
  147.2773  138.3681  155.1753 H   0  0  0  0  0  0  0  0  0  0  0  0
  146.0611  138.6370  153.9456 H   0  0  0  0  0  0  0  0  0  0  0  0
  146.9884  140.7154  156.0019 H   0  0  0  0  0  0  0  0  0  0  0  0
  152.4615  138.6119  156.9499 H   0  0  0  0  0  0  0  0  0  0  0  0
  151.0730  136.8443  153.4956 H   0  0  0  0  0  0  0  0  0  0  0  0
  145.0674  140.8250  153.8275 H   0  0  0  0  0  0  0  0  0  0  0  0
  1  2  1  0  0  0  0
  1 20  1  0  0  0  0
  1 21  1  0  0  0  0
  1 22  1  0  0  0  0
  2  3  1  0  0  0  0
  2 15  1  0  0  0  0
  2 23  1  0  0  0  0
  3  4  2  0  0  0  0
  3  5  1  0  0  0  0
  5  6  1  0  0  0  0
  5 24  1  0  0  0  0
  6 14  1  0  0  0  0
  6  7  1  0  0  0  0
  6 25  1  0  0  0  0
  7  8  1  0  0  0  0
  7 26  1  0  0  0  0
  7 27  1  0  0  0  0
  8  9  1  0  0  0  0
  8 28  1  0  0  0  0
  8 29  1  0  0  0  0
  9 14  1  0  0  0  0
  9 10  1  0  0  0  0
  9 41  1  0  0  0  0
 10 11  1  0  0  0  0
 10 30  1  0  0  0  0
 10 31  1  0  0  0  0
 11 12  1  0  0  0  0
 11 32  1  0  0  0  0
 11 33  1  0  0  0  0
 12 13  1  0  0  0  0
 12 34  1  0  0  0  0
 12 35  1  0  0  0  0
 13 14  1  0  0  0  0
 13 36  1  0  0  0  0
 13 37  1  0  0  0  0
 14 38  1  0  0  0  0
 15 19  1  0  0  0  0
 15 16  1  0  0  0  0
 16 17  2  0  0  0  0
 16 39  1  0  0  0  0
 17 18  1  0  0  0  0
 18 19  2  0  0  0  0
 18 40  1  0  0  0  0
M  CHG  1   9   1
M  END
> <s_m_source_file>
AV-unprocessed.smi

> <i_m_source_file_index>
1406

> <i_lp_mmshare_version>
43012

> <i_f3d_flags>
0

> <s_epik_input>
bjFbY0hdbltjSF1uMVtDQEhdKFtDSDNdKUMoPU8pW05IXVtDQEhdKFtDSDJdW0NIMl0yKVtDQEBIXShOMjMpW0NIMl1bQ0gyXVtDSDJdW0NIMl0z

> <s_epik_cmdline>
J2VwaWtfcHl0aG9uJywgJy1waCcsICc3LjAnLCAnLXRuJywgJzgnLCAnLW1hJywgJzIwMCcsICctbWV0YWxfYmluZGluZycsICctaW1hZScsICc8aW5maWxlLm1hZT4nLCAnLW9tYWUnLCAnPG91dGZpbGUubWFlPic=

> <r_lp_tautomer_probability>
1

> <r_epik_Ionization_Penalty>
0.00197066

> <r_epik_Ionization_Penalty_Charging>
0.00196223

> <r_epik_Ionization_Penalty_Neutral>
8.43107e-06

> <r_epik_State_Penalty>
0.00133866

> <r_epik_Charging_Adjusted_Penalty>
0.00330089

> <i_epik_Tot_Q>
1

> <i_epik_Tot_abs_Q>
1

> <r_epik_Metal_State_Penalty>
-0

> <b_epik_Metal_Only>
0

> <s_lp_Force_Field>
OPLS_2005

> <r_lp_Energy>
39.8757

> <b_lp_Chiralities_Consistent>
1

> <s_lp_Variant>
AV-unprocessed.smi:1406-5

> <Gold.Version>
5.8.1

> <Gold.Id.Protein>
6NUR|6NUR_protein|mol2

> <Gold.PLP.Fitness>
37.6467

> <Gold.PLP.PLP>
-26.4144

> <Gold.PLP.part.hbond>
-2.4141

> <Gold.PLP.part.metal>
0.0000

> <Gold.PLP.part.buried>
-2.6065

> <Gold.PLP.part.nonpolar>
-21.8380

> <Gold.PLP.part.repulsive>
0.5395

> <Gold.PLP.ligand.clash>
0.0000

> <Gold.PLP.ligand.torsion>
0.2802

> <Gold.PLP.Chemscore.Hbond>
2.8960

> <Gold.PLP.Chemscore.CHOScore>
1.0000

> <Gold.PLP.Chemscore.Metal>
0.0000

> <Gold.Chemscore.Hbonds>
donor molecule, donor type, donor heavy atom, donor atom, acceptor molecule, acceptor atom, score
      L1  H     9    41       P1 10175  2.00
      P1  H 10752 10764       L1    17  0.86
      L1  C    18    40       P1  7949  1.00

> <Gold.PLP.Chemscore.Internal.Correction>
0.1047

> <Gold.Rescore>
     Score         DG    S(hbond)    S(metal)    S(lipo)     H(rot)  DE(clash)    DE(int)     intcor
      7.31     -10.21       1.55        0.00      37.41       1.89       0.06       2.84       ----

> <Gold.Chemscore.Fitness>
7.3121

> <Gold.Chemscore.DG>
-10.2096

> <Gold.Chemscore.ZeroCoef>
-5.4800

> <Gold.Chemscore.Hbond>
1.5516

> <Gold.Chemscore.Metal>
0.0000

> <Gold.Chemscore.Lipo>
37.4083

> <Gold.Chemscore.Internal_Hbond>
0.0000

> <Gold.Chemscore.DEClash>
0.0591

> <Gold.Chemscore.DEInternal>
2.8384

> <Gold.Chemscore.Rot>
1.8865

> <Gold.Chemscore.Internal.Correction>
   9.000000E+99

> <Gold.Chemscore.Hbonds>
donor molecule, donor type, donor heavy atom, donor atom, acceptor molecule, acceptor atom, score
      L1  H     5    24       P1  7957  0.01
      L1  H     9    41       P1 10175  0.89
      P1  H 10752 10764       L1    17  0.24

> <Gold.Chemscore.Hbond.Weighted>
-5.1824

> <Gold.Chemscore.Metal.Weighted>
-0.0000

> <Gold.Chemscore.Lipo.Weighted>
-4.3768

> <Gold.Chemscore.Internal_Hbond.Weighted>
0.0000

> <Gold.Chemscore.DEClash.Weighted>
0.0591

> <Gold.Chemscore.DEInternal.Weighted>
2.8384

> <Gold.Chemscore.Rot.Weighted>
4.8295

> <Gold.Chemscore.Internal.Correction.Weighted>
   9.000000E+99

> <Gold.Protein.RotatedTorsions>
[ 6907 6896 6895 6894 ] final  -80.20 input  -60.11 | X-H torsion
[ 7974 7965 7964 7962 ] final   -7.85 input  175.53 | X-H torsion
[ 8008 7997 7996 7995 ] final -160.07 input   59.86 | X-H torsion
[ 10167 10162 10161 10158 ] final -167.82 input  -65.29 | X-H torsion
[ 10718 10713 10712 10709 ] final   59.02 input   66.30 | X-H torsion
[ 10763 10752 10751 10750 ] final  -50.18 input  -60.55 | X-H torsion
[ 11005 11000 10999 10996 ] final  126.53 input  -57.11 | X-H torsion

> <Gold.Protein.ActiveResidues>
 VAL166  LYS551  ARG553  GLY616  TRP617  ASP618  TYR619  PRO620  LYS621  CYS622 
 ASP623  PHE694  ASN695  SER759  ASP760  ASP761  ALA762  ILE779  LEU786  VAL792 
 PHE793  MET794  SER795  GLU796  ALA797  LYS798  CYS799  TRP800  GLU811  SER814 

> <Gold.Protein.RotatedAtoms>
  150.6934  134.4005  159.5116 H   0  0  0  0  0  0  0  0  0  0  0  0  # atno 6907 bound_to 6896
  152.1779  134.8776  160.0538 H   0  0  0  0  0  0  0  0  0  0  0  0  # atno 6908 bound_to 6896
  151.9777  133.3712  159.4132 H   0  0  0  0  0  0  0  0  0  0  0  0  # atno 6909 bound_to 6896
  146.2296  140.2380  142.8342 H   0  0  0  0  0  0  0  0  0  0  0  0  # atno 7974 bound_to 7965
  155.7719  140.0853  157.2103 H   0  0  0  0  0  0  0  0  0  0  0  0  # atno 8008 bound_to 7997
  154.3995  140.1523  156.3009 H   0  0  0  0  0  0  0  0  0  0  0  0  # atno 8009 bound_to 7997
  155.8738  140.3424  155.5842 H   0  0  0  0  0  0  0  0  0  0  0  0  # atno 8010 bound_to 7997
  139.6025  144.0982  152.1757 H   0  0  0  0  0  0  0  0  0  0  0  0  # atno 10167 bound_to 10162
  157.5643  130.8859  149.9161 H   0  0  0  0  0  0  0  0  0  0  0  0  # atno 10718 bound_to 10713
  154.1061  135.6556  153.4877 H   0  0  0  0  0  0  0  0  0  0  0  0  # atno 10763 bound_to 10752
  153.0272  135.5236  154.7238 H   0  0  0  0  0  0  0  0  0  0  0  0  # atno 10764 bound_to 10752
  154.6404  135.2987  155.0079 H   0  0  0  0  0  0  0  0  0  0  0  0  # atno 10765 bound_to 10752
  139.9461  134.9629  156.8720 H   0  0  0  0  0  0  0  0  0  0  0  0  # atno 11005 bound_to 11000
  144.9506  140.8174  143.5574 LP  0  0  0  0  0  0  0  0  0  0  0  0  # atno 17320 bound_to 7965
  145.2341  139.2102  143.5027 LP  0  0  0  0  0  0  0  0  0  0  0  0  # atno 17321 bound_to 7965
  140.0581  144.5878  150.7284 LP  0  0  0  0  0  0  0  0  0  0  0  0  # atno 17342 bound_to 10162
  140.7260  143.2637  151.4119 LP  0  0  0  0  0  0  0  0  0  0  0  0  # atno 17343 bound_to 10162
  156.0692  130.3687  150.0811 LP  0  0  0  0  0  0  0  0  0  0  0  0  # atno 17370 bound_to 10713
  156.8972  130.9608  151.3581 LP  0  0  0  0  0  0  0  0  0  0  0  0  # atno 17371 bound_to 10713
  140.5832  134.0332  155.7472 LP  0  0  0  0  0  0  0  0  0  0  0  0  # atno 17394 bound_to 11000
  141.1111  133.9615  157.2908 LP  0  0  0  0  0  0  0  0  0  0  0  0  # atno 17395 bound_to 11000

$$$$
