AV-unprocessed.smi:2439|AV-procd|sdf|9605|dock4
  -GOLD-   2272013233D 1   1.00000     0.00000
 Structure written by MMmdl.
 41 43  0  0  0  0  0  0  0  0  2 V2000
  150.9741  137.4469  153.5787 N   0  0  0  0  0  0  0  0  0  0  0  0
  150.1730  138.2612  153.7623 C   0  0  0  0  0  0  0  0  0  0  0  0
  149.1638  139.2877  153.9930 C   0  0  0  0  0  0  0  0  0  0  0  0
  149.5638  140.5286  154.5321 C   0  0  0  0  0  0  0  0  0  0  0  0
  148.5948  141.5237  154.7551 C   0  0  0  0  0  0  0  0  0  0  0  0
  147.2573  141.2358  154.4291 C   0  0  0  0  0  0  0  0  0  0  0  0
  146.8613  140.0535  153.9128 N   0  0  0  0  0  0  0  0  0  0  0  0
  147.7888  139.0889  153.6944 C   0  0  0  0  0  0  0  0  0  0  0  0
  147.3460  137.8654  153.1569 N   0  0  0  0  0  0  0  0  0  0  0  0
  145.9629  137.4198  153.2800 C   0  0  0  0  0  0  0  0  0  0  0  0
  145.7436  136.0124  152.6983 C   0  0  2  0  0  0  0  0  0  0  0  0
  145.5322  136.0616  151.1691 C   0  0  0  0  0  0  0  0  0  0  0  0
  145.1977  134.7249  150.6204 N   0  3  1  0  0  0  0  0  0  0  0  0
  146.3768  133.8258  150.4903 C   0  0  0  0  0  0  0  0  0  0  0  0
  145.9879  132.4845  149.8522 C   0  0  0  0  0  0  0  0  0  0  0  0
  144.8816  131.8010  150.6634 C   0  0  0  0  0  0  0  0  0  0  0  0
  143.6726  132.7380  150.7890 C   0  0  0  0  0  0  0  0  0  0  0  0
  144.0520  134.1226  151.3569 C   0  0  1  0  0  0  0  0  0  0  0  0
  144.3193  134.1245  152.8767 C   0  0  0  0  0  0  0  0  0  0  0  0
  144.5799  135.4566  153.3043 O   0  0  0  0  0  0  0  0  0  0  0  0
  150.5995  140.7207  154.7733 H   0  0  0  0  0  0  0  0  0  0  0  0
  148.8703  142.4833  155.1670 H   0  0  0  0  0  0  0  0  0  0  0  0
  146.4845  141.9738  154.5859 H   0  0  0  0  0  0  0  0  0  0  0  0
  147.9786  137.3150  152.5932 H   0  0  0  0  0  0  0  0  0  0  0  0
  145.6882  137.4327  154.3350 H   0  0  0  0  0  0  0  0  0  0  0  0
  145.3070  138.1400  152.7894 H   0  0  0  0  0  0  0  0  0  0  0  0
  146.6071  135.3880  152.9299 H   0  0  0  0  0  0  0  0  0  0  0  0
  144.7108  136.7409  150.9364 H   0  0  0  0  0  0  0  0  0  0  0  0
  146.4146  136.4623  150.6687 H   0  0  0  0  0  0  0  0  0  0  0  0
  147.1345  134.3127  149.8753 H   0  0  0  0  0  0  0  0  0  0  0  0
  146.8338  133.6461  151.4636 H   0  0  0  0  0  0  0  0  0  0  0  0
  145.6493  132.6472  148.8279 H   0  0  0  0  0  0  0  0  0  0  0  0
  146.8607  131.8339  149.7906 H   0  0  0  0  0  0  0  0  0  0  0  0
  144.5843  130.8689  150.1813 H   0  0  0  0  0  0  0  0  0  0  0  0
  145.2551  131.5337  151.6524 H   0  0  0  0  0  0  0  0  0  0  0  0
  143.2295  132.8708  149.8009 H   0  0  0  0  0  0  0  0  0  0  0  0
  142.9010  132.2746  151.4050 H   0  0  0  0  0  0  0  0  0  0  0  0
  143.1941  134.7762  151.1897 H   0  0  0  0  0  0  0  0  0  0  0  0
  143.4436  133.7562  153.4116 H   0  0  0  0  0  0  0  0  0  0  0  0
  145.1505  133.4724  153.1473 H   0  0  0  0  0  0  0  0  0  0  0  0
  144.8763  134.8787  149.6751 H   0  0  0  0  0  0  0  0  0  0  0  0
  1  2  3  0  0  0  0
  2  3  1  0  0  0  0
  3  8  1  0  0  0  0
  3  4  2  0  0  0  0
  4  5  1  0  0  0  0
  4 21  1  0  0  0  0
  5  6  2  0  0  0  0
  5 22  1  0  0  0  0
  6  7  1  0  0  0  0
  6 23  1  0  0  0  0
  7  8  2  0  0  0  0
  8  9  1  0  0  0  0
  9 10  1  0  0  0  0
  9 24  1  0  0  0  0
 10 11  1  0  0  0  0
 10 25  1  0  0  0  0
 10 26  1  0  0  0  0
 11 20  1  0  0  0  0
 11 12  1  0  0  0  0
 11 27  1  0  0  0  0
 12 13  1  0  0  0  0
 12 28  1  0  0  0  0
 12 29  1  0  0  0  0
 13 18  1  0  0  0  0
 13 14  1  0  0  0  0
 13 41  1  0  0  0  0
 14 15  1  0  0  0  0
 14 30  1  0  0  0  0
 14 31  1  0  0  0  0
 15 16  1  0  0  0  0
 15 32  1  0  0  0  0
 15 33  1  0  0  0  0
 16 17  1  0  0  0  0
 16 34  1  0  0  0  0
 16 35  1  0  0  0  0
 17 18  1  0  0  0  0
 17 36  1  0  0  0  0
 17 37  1  0  0  0  0
 18 19  1  0  0  0  0
 18 38  1  0  0  0  0
 19 20  1  0  0  0  0
 19 39  1  0  0  0  0
 19 40  1  0  0  0  0
M  CHG  1  13   1
M  END
> <s_m_source_file>
AV-unprocessed.smi

> <i_m_source_file_index>
2439

> <i_lp_mmshare_version>
43012

> <i_f3d_flags>
0

> <s_epik_input>
TiNDYzFbY0hdW2NIXVtjSF1uYzFbTkhdW0NIMl1bQ0BIXShbQ0gyXTIpT1tDSDJdW0NAQEhdKE4yMylbQ0gyXVtDSDJdW0NIMl1bQ0gyXTM=

> <s_epik_cmdline>
J2VwaWtfcHl0aG9uJywgJy1waCcsICc3LjAnLCAnLXRuJywgJzgnLCAnLW1hJywgJzIwMCcsICctbWV0YWxfYmluZGluZycsICctaW1hZScsICc8aW5maWxlLm1hZT4nLCAnLW9tYWUnLCAnPG91dGZpbGUubWFlPic=

> <r_epik_Ionization_Penalty>
0.0803594

> <r_epik_Ionization_Penalty_Charging>
0.0803403

> <r_epik_Ionization_Penalty_Neutral>
1.90988e-05

> <r_epik_State_Penalty>
0.0711481

> <r_epik_Charging_Adjusted_Penalty>
0.151488

> <i_epik_Tot_Q>
1

> <i_epik_Tot_abs_Q>
1

> <r_epik_Metal_State_Penalty>
0.0711482

> <b_epik_Metal_Only>
0

> <s_lp_Force_Field>
OPLS_2005

> <r_lp_Energy>
31.3603

> <b_lp_Chiralities_Consistent>
1

> <s_lp_Variant>
AV-unprocessed.smi:2439-3

> <Gold.Version>
5.8.1

> <Gold.Id.Protein>
6NUR|6NUR_protein|mol2

> <Gold.PLP.Fitness>
43.0706

> <Gold.PLP.PLP>
-37.7822

> <Gold.PLP.part.hbond>
-2.0000

> <Gold.PLP.part.metal>
0.0000

> <Gold.PLP.part.buried>
-3.2649

> <Gold.PLP.part.nonpolar>
-32.8470

> <Gold.PLP.part.repulsive>
0.5891

> <Gold.PLP.ligand.clash>
0.0000

> <Gold.PLP.ligand.torsion>
0.3559

> <Gold.PLP.Chemscore.Hbond>
2.0000

> <Gold.PLP.Chemscore.CHOScore>
0.0000

> <Gold.PLP.Chemscore.Metal>
0.0000

> <Gold.Chemscore.Hbonds>
donor molecule, donor type, donor heavy atom, donor atom, acceptor molecule, acceptor atom, score
      L1  H     9    24       P1  7948  1.00
      L1  H    13    41       P1  7921  0.05

> <Gold.PLP.Chemscore.Internal.Correction>
0.0003

> <Gold.Rescore>
     Score         DG    S(hbond)    S(metal)    S(lipo)     H(rot)  DE(clash)    DE(int)     intcor
     18.64     -19.30       1.97        0.00      89.59       1.27       0.10       0.56       ----

> <Gold.Chemscore.Fitness>
18.6361

> <Gold.Chemscore.DG>
-19.3015

> <Gold.Chemscore.ZeroCoef>
-5.4800

> <Gold.Chemscore.Hbond>
1.9700

> <Gold.Chemscore.Metal>
0.0000

> <Gold.Chemscore.Lipo>
89.5929

> <Gold.Chemscore.Internal_Hbond>
0.0000

> <Gold.Chemscore.DEClash>
0.1029

> <Gold.Chemscore.DEInternal>
0.5626

> <Gold.Chemscore.Rot>
1.2659

> <Gold.Chemscore.Internal.Correction>
   9.000000E+99

> <Gold.Chemscore.Hbonds>
donor molecule, donor type, donor heavy atom, donor atom, acceptor molecule, acceptor atom, score
      L1  H     9    24       P1  7948  0.99
      L1  H    13    41       P1  7921  0.07

> <Gold.Chemscore.Hbond.Weighted>
-6.5799

> <Gold.Chemscore.Metal.Weighted>
-0.0000

> <Gold.Chemscore.Lipo.Weighted>
-10.4824

> <Gold.Chemscore.Internal_Hbond.Weighted>
0.0000

> <Gold.Chemscore.DEClash.Weighted>
0.1029

> <Gold.Chemscore.DEInternal.Weighted>
0.5626

> <Gold.Chemscore.Rot.Weighted>
3.2408

> <Gold.Chemscore.Internal.Correction.Weighted>
   9.000000E+99

> <Gold.Protein.RotatedTorsions>
[ 6907 6896 6895 6894 ] final -170.27 input  -60.11 | X-H torsion
[ 7974 7965 7964 7962 ] final  -72.73 input  175.53 | X-H torsion
[ 8008 7997 7996 7995 ] final  159.85 input   59.86 | X-H torsion
[ 10167 10162 10161 10158 ] final   40.28 input  -65.29 | X-H torsion
[ 10718 10713 10712 10709 ] final -162.35 input   66.30 | X-H torsion
[ 10763 10752 10751 10750 ] final  111.29 input  -60.55 | X-H torsion
[ 11005 11000 10999 10996 ] final -136.48 input  -57.11 | X-H torsion

> <Gold.Protein.ActiveResidues>
 VAL166  LYS551  ARG553  GLY616  TRP617  ASP618  TYR619  PRO620  LYS621  CYS622 
 ASP623  PHE694  ASN695  SER759  ASP760  ASP761  ALA762  ILE779  LEU786  VAL792 
 PHE793  MET794  SER795  GLU796  ALA797  LYS798  CYS799  TRP800  GLU811  SER814 

> <Gold.Protein.RotatedAtoms>
  151.5050  133.3496  159.2875 H   0  0  0  0  0  0  0  0  0  0  0  0  # atno 6907 bound_to 6896
  150.8748  134.8131  159.7193 H   0  0  0  0  0  0  0  0  0  0  0  0  # atno 6908 bound_to 6896
  152.4723  134.4940  159.9756 H   0  0  0  0  0  0  0  0  0  0  0  0  # atno 6909 bound_to 6896
  145.6613  140.9251  143.0932 H   0  0  0  0  0  0  0  0  0  0  0  0  # atno 7974 bound_to 7965
  156.2211  140.1820  156.7474 H   0  0  0  0  0  0  0  0  0  0  0  0  # atno 8008 bound_to 7997
  154.5867  140.0657  156.9210 H   0  0  0  0  0  0  0  0  0  0  0  0  # atno 8009 bound_to 7997
  155.2407  140.3321  155.4295 H   0  0  0  0  0  0  0  0  0  0  0  0  # atno 8010 bound_to 7997
  140.3757  144.2046  150.6131 H   0  0  0  0  0  0  0  0  0  0  0  0  # atno 10167 bound_to 10162
  156.6092  130.8843  151.2932 H   0  0  0  0  0  0  0  0  0  0  0  0  # atno 10718 bound_to 10713
  153.4613  135.3721  155.2339 H   0  0  0  0  0  0  0  0  0  0  0  0  # atno 10763 bound_to 10752
  154.8757  135.3909  154.3922 H   0  0  0  0  0  0  0  0  0  0  0  0  # atno 10764 bound_to 10752
  153.4496  135.7085  153.6182 H   0  0  0  0  0  0  0  0  0  0  0  0  # atno 10765 bound_to 10752
  140.8801  134.1942  157.4596 H   0  0  0  0  0  0  0  0  0  0  0  0  # atno 11005 bound_to 11000
  144.7088  139.8452  143.7421 LP  0  0  0  0  0  0  0  0  0  0  0  0  # atno 17320 bound_to 7965
  146.1123  139.4129  143.0280 LP  0  0  0  0  0  0  0  0  0  0  0  0  # atno 17321 bound_to 7965
  140.4988  143.2324  151.8710 LP  0  0  0  0  0  0  0  0  0  0  0  0  # atno 17342 bound_to 10162
  139.4799  144.5083  151.8967 LP  0  0  0  0  0  0  0  0  0  0  0  0  # atno 17343 bound_to 10162
  157.7259  130.9622  150.1632 LP  0  0  0  0  0  0  0  0  0  0  0  0  # atno 17370 bound_to 10713
  156.2404  130.3690  149.8344 LP  0  0  0  0  0  0  0  0  0  0  0  0  # atno 17371 bound_to 10713
  139.8719  134.9813  156.5112 LP  0  0  0  0  0  0  0  0  0  0  0  0  # atno 17394 bound_to 11000
  140.8471  133.8160  155.9132 LP  0  0  0  0  0  0  0  0  0  0  0  0  # atno 17395 bound_to 11000

$$$$
