AV-unprocessed.smi:3271|AV-procd|sdf|12517|dock10
  -GOLD-   2272018433D 1   1.00000     0.00000
 Structure written by MMmdl.
 41 41  0  0  0  0  0  0  0  0  1 V2000
  153.4493  141.4569  160.4172 C   0  0  0  0  0  0  0  0  0  0  0  0
  153.0436  142.8990  160.0728 C   0  0  0  0  0  0  0  0  0  0  0  0
  152.5008  143.0876  158.6372 C   0  0  0  0  0  0  0  0  0  0  0  0
  152.0633  144.5525  158.4087 C   0  0  0  0  0  0  0  0  0  0  0  0
  151.4560  145.2344  159.6452 C   0  0  0  0  0  0  0  0  0  0  0  0
  151.3524  142.1087  158.3385 C   0  0  0  0  0  0  0  0  0  0  0  0
  150.2803  142.2062  158.9360 O   0  0  0  0  0  0  0  0  0  0  0  0
  151.5987  141.1662  157.4167 N   0  0  0  0  0  0  0  0  0  0  0  0
  150.6739  140.1039  157.0303 C   0  0  0  0  0  0  0  0  0  0  0  0
  150.8153  139.6747  155.5464 C   0  0  2  0  0  0  0  0  0  0  0  0
  151.2240  138.1940  155.4597 C   0  0  0  0  0  0  0  0  0  0  0  0
  151.9154  140.3871  155.0126 O   0  0  0  0  0  0  0  0  0  0  0  0
  149.5500  139.9104  154.7462 C   0  0  0  0  0  0  0  0  0  0  0  0
  148.8127  141.1211  154.5895 C   0  0  0  0  0  0  0  0  0  0  0  0
  147.7370  140.9797  153.8325 N   0  0  0  0  0  0  0  0  0  0  0  0
  147.7521  139.6815  153.4700 N   0  0  0  0  0  0  0  0  0  0  0  0
  146.6983  139.1646  152.6235 C   0  0  0  0  0  0  0  0  0  0  0  0
  148.8341  139.0143  154.0009 C   0  0  0  0  0  0  0  0  0  0  0  0
  153.9159  141.4119  161.4013 H   0  0  0  0  0  0  0  0  0  0  0  0
  154.1628  141.0625  159.6931 H   0  0  0  0  0  0  0  0  0  0  0  0
  152.5862  140.7918  160.4369 H   0  0  0  0  0  0  0  0  0  0  0  0
  152.3099  143.2499  160.8002 H   0  0  0  0  0  0  0  0  0  0  0  0
  153.9190  143.5359  160.2044 H   0  0  0  0  0  0  0  0  0  0  0  0
  153.3210  142.8761  157.9486 H   0  0  0  0  0  0  0  0  0  0  0  0
  152.9071  145.1431  158.0486 H   0  0  0  0  0  0  0  0  0  0  0  0
  151.3214  144.5799  157.6100 H   0  0  0  0  0  0  0  0  0  0  0  0
  151.1138  146.2401  159.4002 H   0  0  0  0  0  0  0  0  0  0  0  0
  152.1800  145.3251  160.4552 H   0  0  0  0  0  0  0  0  0  0  0  0
  150.5988  144.6754  160.0213 H   0  0  0  0  0  0  0  0  0  0  0  0
  152.5079  141.1603  156.9782 H   0  0  0  0  0  0  0  0  0  0  0  0
  150.7305  139.2488  157.7069 H   0  0  0  0  0  0  0  0  0  0  0  0
  149.6805  140.5283  157.1790 H   0  0  0  0  0  0  0  0  0  0  0  0
  150.4488  137.5441  155.8671 H   0  0  0  0  0  0  0  0  0  0  0  0
  152.1404  137.9985  156.0182 H   0  0  0  0  0  0  0  0  0  0  0  0
  151.3957  137.8890  154.4264 H   0  0  0  0  0  0  0  0  0  0  0  0
  151.9727  141.2239  155.4478 H   0  0  0  0  0  0  0  0  0  0  0  0
  149.0217  142.0935  155.0106 H   0  0  0  0  0  0  0  0  0  0  0  0
  146.9465  138.1561  152.2912 H   0  0  0  0  0  0  0  0  0  0  0  0
  146.5762  139.8049  151.7490 H   0  0  0  0  0  0  0  0  0  0  0  0
  145.7613  139.1351  153.1804 H   0  0  0  0  0  0  0  0  0  0  0  0
  149.0020  137.9638  153.8146 H   0  0  0  0  0  0  0  0  0  0  0  0
  1  2  1  0  0  0  0
  1 19  1  0  0  0  0
  1 20  1  0  0  0  0
  1 21  1  0  0  0  0
  2  3  1  0  0  0  0
  2 22  1  0  0  0  0
  2 23  1  0  0  0  0
  3  4  1  0  0  0  0
  3  6  1  0  0  0  0
  3 24  1  0  0  0  0
  4  5  1  0  0  0  0
  4 25  1  0  0  0  0
  4 26  1  0  0  0  0
  5 27  1  0  0  0  0
  5 28  1  0  0  0  0
  5 29  1  0  0  0  0
  6  7  2  0  0  0  0
  6  8  1  0  0  0  0
  8  9  1  0  0  0  0
  8 30  1  0  0  0  0
  9 10  1  0  0  0  0
  9 31  1  0  0  0  0
  9 32  1  0  0  0  0
 10 11  1  0  0  0  0
 10 12  1  0  0  0  0
 10 13  1  0  0  0  0
 11 33  1  0  0  0  0
 11 34  1  0  0  0  0
 11 35  1  0  0  0  0
 12 36  1  0  0  0  0
 13 18  2  0  0  0  0
 13 14  1  0  0  0  0
 14 15  2  0  0  0  0
 14 37  1  0  0  0  0
 15 16  1  0  0  0  0
 16 17  1  0  0  0  0
 16 18  1  0  0  0  0
 17 38  1  0  0  0  0
 17 39  1  0  0  0  0
 17 40  1  0  0  0  0
 18 41  1  0  0  0  0
M  END
> <s_m_source_file>
AV-unprocessed.smi

> <i_m_source_file_index>
3271

> <i_lp_mmshare_version>
43012

> <i_f3d_flags>
0

> <s_epik_input>
W0NIM11bQ0gyXVtDSF0oW0NIMl1bQ0gzXSlDKD1PKVtOSF1bQ0gyXVtDQEBdKFtDSDNdKShbT0hdKWMxW2NIXW5uKFtDSDNdKVtjSF0x

> <s_epik_cmdline>
J2VwaWtfcHl0aG9uJywgJy1waCcsICc3LjAnLCAnLXRuJywgJzgnLCAnLW1hJywgJzIwMCcsICctbWV0YWxfYmluZGluZycsICctaW1hZScsICc8aW5maWxlLm1hZT4nLCAnLW9tYWUnLCAnPG91dGZpbGUubWFlPic=

> <r_lp_tautomer_probability>
1

> <r_epik_Ionization_Penalty>
6.03488e-05

> <r_epik_Ionization_Penalty_Charging>
0

> <r_epik_Ionization_Penalty_Neutral>
6.03488e-05

> <r_epik_State_Penalty>
-0

> <r_epik_Charging_Adjusted_Penalty>
0

> <i_epik_Tot_Q>
0

> <i_epik_Tot_abs_Q>
0

> <r_epik_Metal_State_Penalty>
-0

> <b_epik_Metal_Only>
0

> <s_lp_Force_Field>
OPLS_2005

> <r_lp_Energy>
0.383254

> <b_lp_Chiralities_Consistent>
1

> <s_lp_Variant>
AV-unprocessed.smi:3271-2

> <Gold.Version>
5.8.1

> <Gold.Id.Protein>
6NUR|6NUR_protein|mol2

> <Gold.PLP.Fitness>
43.5142

> <Gold.PLP.PLP>
-40.4089

> <Gold.PLP.part.hbond>
-1.4853

> <Gold.PLP.part.metal>
0.0000

> <Gold.PLP.part.buried>
0.2533

> <Gold.PLP.part.nonpolar>
-38.6385

> <Gold.PLP.part.repulsive>
0.2970

> <Gold.PLP.ligand.clash>
0.0000

> <Gold.PLP.ligand.torsion>
1.7602

> <Gold.PLP.Chemscore.Hbond>
0.7200

> <Gold.PLP.Chemscore.CHOScore>
1.4535

> <Gold.PLP.Chemscore.Metal>
0.0000

> <Gold.Chemscore.Hbonds>
donor molecule, donor type, donor heavy atom, donor atom, acceptor molecule, acceptor atom, score
      P1  H  7989  7998       L1    12  0.75
      L1  C    14    37       P1  8028  0.58
      L1  C    18    41       P1  7948  0.85

> <Gold.PLP.Chemscore.Internal.Correction>
0.1052

> <Gold.Rescore>
     Score         DG    S(hbond)    S(metal)    S(lipo)     H(rot)  DE(clash)    DE(int)     intcor
     11.16     -12.87       0.46        0.00     101.12       2.33       0.09       1.62       ----

> <Gold.Chemscore.Fitness>
11.1639

> <Gold.Chemscore.DG>
-12.8700

> <Gold.Chemscore.ZeroCoef>
-5.4800

> <Gold.Chemscore.Hbond>
0.4594

> <Gold.Chemscore.Metal>
0.0000

> <Gold.Chemscore.Lipo>
101.1173

> <Gold.Chemscore.Internal_Hbond>
0.0000

> <Gold.Chemscore.DEClash>
0.0852

> <Gold.Chemscore.DEInternal>
1.6209

> <Gold.Chemscore.Rot>
2.3341

> <Gold.Chemscore.Internal.Correction>
   9.000000E+99

> <Gold.Chemscore.Hbonds>
donor molecule, donor type, donor heavy atom, donor atom, acceptor molecule, acceptor atom, score
      P1  H  7989  7998       L1    12  0.16

> <Gold.Chemscore.Hbond.Weighted>
-1.5345

> <Gold.Chemscore.Metal.Weighted>
-0.0000

> <Gold.Chemscore.Lipo.Weighted>
-11.8307

> <Gold.Chemscore.Internal_Hbond.Weighted>
0.0000

> <Gold.Chemscore.DEClash.Weighted>
0.0852

> <Gold.Chemscore.DEInternal.Weighted>
1.6209

> <Gold.Chemscore.Rot.Weighted>
5.9753

> <Gold.Chemscore.Internal.Correction.Weighted>
   9.000000E+99

> <Gold.Protein.RotatedTorsions>
[ 6907 6896 6895 6894 ] final -172.72 input  -60.11 | X-H torsion
[ 7974 7965 7964 7962 ] final -154.18 input  175.53 | X-H torsion
[ 8008 7997 7996 7995 ] final   42.10 input   59.86 | X-H torsion
[ 10167 10162 10161 10158 ] final -165.16 input  -65.29 | X-H torsion
[ 10718 10713 10712 10709 ] final  122.13 input   66.30 | X-H torsion
[ 10763 10752 10751 10750 ] final  125.48 input  -60.55 | X-H torsion
[ 11005 11000 10999 10996 ] final  -69.04 input  -57.11 | X-H torsion

> <Gold.Protein.ActiveResidues>
 VAL166  LYS551  ARG553  GLY616  TRP617  ASP618  TYR619  PRO620  LYS621  CYS622 
 ASP623  PHE694  ASN695  SER759  ASP760  ASP761  ALA762  ILE779  LEU786  VAL792 
 PHE793  MET794  SER795  GLU796  ALA797  LYS798  CYS799  TRP800  GLU811  SER814 

> <Gold.Protein.RotatedAtoms>
  151.5446  133.3427  159.2941 H   0  0  0  0  0  0  0  0  0  0  0  0  # atno 6907 bound_to 6896
  150.8515  134.7844  159.7023 H   0  0  0  0  0  0  0  0  0  0  0  0  # atno 6908 bound_to 6896
  152.4560  134.5299  159.9859 H   0  0  0  0  0  0  0  0  0  0  0  0  # atno 6909 bound_to 6896
  144.7703  140.4424  143.5912 H   0  0  0  0  0  0  0  0  0  0  0  0  # atno 7974 bound_to 7965
  155.2806  140.3372  155.4258 H   0  0  0  0  0  0  0  0  0  0  0  0  # atno 8008 bound_to 7997
  156.2091  140.1763  156.7775 H   0  0  0  0  0  0  0  0  0  0  0  0  # atno 8009 bound_to 7997
  154.5662  140.0678  156.8879 H   0  0  0  0  0  0  0  0  0  0  0  0  # atno 8010 bound_to 7997
  139.6201  144.0642  152.1924 H   0  0  0  0  0  0  0  0  0  0  0  0  # atno 10167 bound_to 10162
  157.5765  131.1079  150.8269 H   0  0  0  0  0  0  0  0  0  0  0  0  # atno 10718 bound_to 10713
  153.6781  135.3319  155.3171 H   0  0  0  0  0  0  0  0  0  0  0  0  # atno 10763 bound_to 10752
  154.8473  135.4402  154.1635 H   0  0  0  0  0  0  0  0  0  0  0  0  # atno 10764 bound_to 10752
  153.2644  135.6994  153.7621 H   0  0  0  0  0  0  0  0  0  0  0  0  # atno 10765 bound_to 10752
  141.1545  133.6755  156.6538 H   0  0  0  0  0  0  0  0  0  0  0  0  # atno 11005 bound_to 11000
  145.6345  139.1541  143.2950 LP  0  0  0  0  0  0  0  0  0  0  0  0  # atno 17320 bound_to 7965
  146.1843  140.6446  142.9174 LP  0  0  0  0  0  0  0  0  0  0  0  0  # atno 17321 bound_to 7965
  140.0282  144.6101  150.7510 LP  0  0  0  0  0  0  0  0  0  0  0  0  # atno 17342 bound_to 10162
  140.7376  143.2768  151.3718 LP  0  0  0  0  0  0  0  0  0  0  0  0  # atno 17343 bound_to 10162
  156.8726  130.5151  149.5296 LP  0  0  0  0  0  0  0  0  0  0  0  0  # atno 17370 bound_to 10713
  156.0810  130.5820  150.9563 LP  0  0  0  0  0  0  0  0  0  0  0  0  # atno 17371 bound_to 10713
  140.3300  134.7937  157.4318 LP  0  0  0  0  0  0  0  0  0  0  0  0  # atno 17394 bound_to 11000
  140.1025  134.5454  155.8340 LP  0  0  0  0  0  0  0  0  0  0  0  0  # atno 17395 bound_to 11000

$$$$
