AV-unprocessed.smi:2069|AV-procd|sdf|8438|dock1
  -GOLD-   2272011133D 1   1.00000     0.00000
 Structure written by MMmdl.
 38 39  0  0  0  0  0  0  0  0  3 V2000
  152.5341  143.6012  161.4601 C   0  0  0  0  0  0  0  0  0  0  0  0
  152.0381  143.1189  160.1401 C   0  0  0  0  0  0  0  0  0  0  0  0
  151.6610  141.8559  159.9272 N   0  0  0  0  0  0  0  0  0  0  0  0
  151.2374  141.6498  158.6219 N   0  0  0  0  0  0  0  0  0  0  0  0
  151.2895  142.7590  157.8710 C   0  0  0  0  0  0  0  0  0  0  0  0
  150.9261  142.7726  156.5778 N   0  5  0  0  0  0  0  0  0  0  0  0
  150.4514  141.6479  155.9980 C   0  0  0  0  0  0  0  0  0  0  0  0
  150.9045  140.5085  156.1305 O   0  0  0  0  0  0  0  0  0  0  0  0
  149.3780  141.8532  155.2218 N   0  0  0  0  0  0  0  0  0  0  0  0
  148.6448  140.8212  154.4948 C   0  0  0  0  0  0  0  0  0  0  0  0
  147.1657  141.2062  154.2195 C   0  0  1  0  0  0  0  0  0  0  0  0
  147.1023  142.3940  153.2278 C   0  0  0  0  0  0  0  0  0  0  0  0
  146.3857  140.0096  153.7624 N   0  3  0  0  0  0  0  0  0  0  0  0
  147.0724  139.2597  152.6740 C   0  0  0  0  0  0  0  0  0  0  0  0
  146.2160  138.0823  152.1817 C   0  0  0  0  0  0  0  0  0  0  0  0
  145.9298  137.2167  153.2695 O   0  0  0  0  0  0  0  0  0  0  0  0
  145.1795  137.8804  154.2752 C   0  0  0  0  0  0  0  0  0  0  0  0
  145.9867  139.0618  154.8402 C   0  0  0  0  0  0  0  0  0  0  0  0
  151.8990  144.1677  158.7393 S   0  0  0  0  0  0  0  0  0  0  0  0
  151.6935  143.7832  162.1297 H   0  0  0  0  0  0  0  0  0  0  0  0
  153.0926  144.5296  161.3387 H   0  0  0  0  0  0  0  0  0  0  0  0
  153.1901  142.8571  161.9123 H   0  0  0  0  0  0  0  0  0  0  0  0
  149.0421  142.8017  155.1367 H   0  0  0  0  0  0  0  0  0  0  0  0
  149.1620  140.6477  153.5508 H   0  0  0  0  0  0  0  0  0  0  0  0
  148.7334  139.8950  155.0605 H   0  0  0  0  0  0  0  0  0  0  0  0
  146.7119  141.5509  155.1500 H   0  0  0  0  0  0  0  0  0  0  0  0
  147.7054  143.2366  153.5661 H   0  0  0  0  0  0  0  0  0  0  0  0
  146.0911  142.7861  153.1215 H   0  0  0  0  0  0  0  0  0  0  0  0
  147.4662  142.1087  152.2403 H   0  0  0  0  0  0  0  0  0  0  0  0
  147.2851  139.9020  151.8220 H   0  0  0  0  0  0  0  0  0  0  0  0
  148.0329  138.8896  153.0362 H   0  0  0  0  0  0  0  0  0  0  0  0
  145.2909  138.4355  151.7231 H   0  0  0  0  0  0  0  0  0  0  0  0
  146.7552  137.5208  151.4183 H   0  0  0  0  0  0  0  0  0  0  0  0
  144.2247  138.2195  153.8700 H   0  0  0  0  0  0  0  0  0  0  0  0
  144.9515  137.1695  155.0695 H   0  0  0  0  0  0  0  0  0  0  0  0
  146.8774  138.6962  155.3537 H   0  0  0  0  0  0  0  0  0  0  0  0
  145.3601  139.5563  155.5815 H   0  0  0  0  0  0  0  0  0  0  0  0
  145.5236  140.3666  153.3756 H   0  0  0  0  0  0  0  0  0  0  0  0
  1  2  1  0  0  0  0
  1 20  1  0  0  0  0
  1 21  1  0  0  0  0
  1 22  1  0  0  0  0
  2 19  1  0  0  0  0
  2  3  2  0  0  0  0
  3  4  1  0  0  0  0
  4  5  2  0  0  0  0
  5  6  1  0  0  0  0
  5 19  1  0  0  0  0
  6  7  1  0  0  0  0
  7  8  2  0  0  0  0
  7  9  1  0  0  0  0
  9 10  1  0  0  0  0
  9 23  1  0  0  0  0
 10 11  1  0  0  0  0
 10 24  1  0  0  0  0
 10 25  1  0  0  0  0
 11 12  1  0  0  0  0
 11 13  1  0  0  0  0
 11 26  1  0  0  0  0
 12 27  1  0  0  0  0
 12 28  1  0  0  0  0
 12 29  1  0  0  0  0
 13 18  1  0  0  0  0
 13 14  1  0  0  0  0
 13 38  1  0  0  0  0
 14 15  1  0  0  0  0
 14 30  1  0  0  0  0
 14 31  1  0  0  0  0
 15 16  1  0  0  0  0
 15 32  1  0  0  0  0
 15 33  1  0  0  0  0
 16 17  1  0  0  0  0
 17 18  1  0  0  0  0
 17 34  1  0  0  0  0
 17 35  1  0  0  0  0
 18 36  1  0  0  0  0
 18 37  1  0  0  0  0
M  CHG  1   6  -1
M  CHG  1  13   1
M  END
> <s_m_source_file>
AV-unprocessed.smi

> <i_m_source_file_index>
2069

> <i_lp_mmshare_version>
43012

> <i_f3d_flags>
0

> <s_epik_input>
W0NIM11jMW5uYyhzMSlbTkhdQyg9TylbTkhdW0NIMl1bQ0BIXShbQ0gzXSlOMltDSDJdW0NIMl1PW0NIMl1bQ0gyXTI=

> <s_epik_cmdline>
J2VwaWtfcHl0aG9uJywgJy1waCcsICc3LjAnLCAnLXRuJywgJzgnLCAnLW1hJywgJzIwMCcsICctbWV0YWxfYmluZGluZycsICctaW1hZScsICc8aW5maWxlLm1hZT4nLCAnLW9tYWUnLCAnPG91dGZpbGUubWFlPic=

> <r_lp_tautomer_probability>
1

> <r_epik_Ionization_Penalty>
3.53072

> <r_epik_Ionization_Penalty_Charging>
3.4216

> <r_epik_Ionization_Penalty_Neutral>
0.109115

> <r_epik_State_Penalty>
3.61496

> <r_epik_Charging_Adjusted_Penalty>
7.03656

> <i_epik_Tot_Q>
0

> <i_epik_Tot_abs_Q>
2

> <r_epik_Metal_State_Penalty>
1.13918

> <b_epik_Metal_Only>
1

> <s_lp_Force_Field>
OPLS_2005

> <r_lp_Energy>
13.0561

> <b_lp_Chiralities_Consistent>
1

> <s_lp_Variant>
AV-unprocessed.smi:2069-8

> <Gold.Version>
5.8.1

> <Gold.Id.Protein>
6NUR|6NUR_protein|mol2

> <Gold.PLP.Fitness>
39.2033

> <Gold.PLP.PLP>
-31.7908

> <Gold.PLP.part.hbond>
-2.8578

> <Gold.PLP.part.metal>
0.0000

> <Gold.PLP.part.buried>
-5.5063

> <Gold.PLP.part.nonpolar>
-24.7837

> <Gold.PLP.part.repulsive>
1.6216

> <Gold.PLP.ligand.clash>
0.0000

> <Gold.PLP.ligand.torsion>
0.8547

> <Gold.PLP.Chemscore.Hbond>
3.0000

> <Gold.PLP.Chemscore.CHOScore>
0.0000

> <Gold.PLP.Chemscore.Metal>
0.0000

> <Gold.Chemscore.Hbonds>
donor molecule, donor type, donor heavy atom, donor atom, acceptor molecule, acceptor atom, score
      L1  H     9    23       P1  8028  1.00
      L1  H    13    38       P1 10175  1.89

> <Gold.PLP.Chemscore.Internal.Correction>
0.1218

> <Gold.Rescore>
     Score         DG    S(hbond)    S(metal)    S(lipo)     H(rot)  DE(clash)    DE(int)     intcor
     12.48     -16.42       1.91        0.00      74.50       1.62       1.56       2.38       ----

> <Gold.Chemscore.Fitness>
12.4808

> <Gold.Chemscore.DG>
-16.4222

> <Gold.Chemscore.ZeroCoef>
-5.4800

> <Gold.Chemscore.Hbond>
1.9074

> <Gold.Chemscore.Metal>
0.0000

> <Gold.Chemscore.Lipo>
74.5021

> <Gold.Chemscore.Internal_Hbond>
0.0000

> <Gold.Chemscore.DEClash>
1.5608

> <Gold.Chemscore.DEInternal>
2.3807

> <Gold.Chemscore.Rot>
1.6192

> <Gold.Chemscore.Internal.Correction>
   9.000000E+99

> <Gold.Chemscore.Hbonds>
donor molecule, donor type, donor heavy atom, donor atom, acceptor molecule, acceptor atom, score
      L1  H     9    23       P1  8028  0.96
      L1  H    13    38       P1 10175  0.88

> <Gold.Chemscore.Hbond.Weighted>
-6.3707

> <Gold.Chemscore.Metal.Weighted>
-0.0000

> <Gold.Chemscore.Lipo.Weighted>
-8.7167

> <Gold.Chemscore.Internal_Hbond.Weighted>
0.0000

> <Gold.Chemscore.DEClash.Weighted>
1.5608

> <Gold.Chemscore.DEInternal.Weighted>
2.3807

> <Gold.Chemscore.Rot.Weighted>
4.1452

> <Gold.Chemscore.Internal.Correction.Weighted>
   9.000000E+99

> <Gold.Protein.RotatedTorsions>
[ 6907 6896 6895 6894 ] final  -46.00 input  -60.11 | X-H torsion
[ 7974 7965 7964 7962 ] final   83.05 input  175.53 | X-H torsion
[ 8008 7997 7996 7995 ] final  -55.89 input   59.86 | X-H torsion
[ 10167 10162 10161 10158 ] final   97.35 input  -65.29 | X-H torsion
[ 10718 10713 10712 10709 ] final   94.00 input   66.30 | X-H torsion
[ 10763 10752 10751 10750 ] final   99.43 input  -60.55 | X-H torsion
[ 11005 11000 10999 10996 ] final   -8.29 input  -57.11 | X-H torsion

> <Gold.Protein.ActiveResidues>
 VAL166  LYS551  ARG553  GLY616  TRP617  ASP618  TYR619  PRO620  LYS621  CYS622 
 ASP623  PHE694  ASN695  SER759  ASP760  ASP761  ALA762  ILE779  LEU786  VAL792 
 PHE793  MET794  SER795  GLU796  ALA797  LYS798  CYS799  TRP800  GLU811  SER814 

> <Gold.Protein.RotatedAtoms>
  150.9159  134.8577  159.7456 H   0  0  0  0  0  0  0  0  0  0  0  0  # atno 6907 bound_to 6896
  152.4968  134.4289  159.9515 H   0  0  0  0  0  0  0  0  0  0  0  0  # atno 6908 bound_to 6896
  151.4327  133.3626  159.2806 H   0  0  0  0  0  0  0  0  0  0  0  0  # atno 6909 bound_to 6896
  145.6170  139.2379  143.2160 H   0  0  0  0  0  0  0  0  0  0  0  0  # atno 7974 bound_to 7965
  154.4210  140.1142  156.5549 H   0  0  0  0  0  0  0  0  0  0  0  0  # atno 8008 bound_to 7997
  155.6372  140.3496  155.4683 H   0  0  0  0  0  0  0  0  0  0  0  0  # atno 8009 bound_to 7997
  155.9900  140.1177  157.0636 H   0  0  0  0  0  0  0  0  0  0  0  0  # atno 8010 bound_to 7997
  139.7809  144.6888  151.0024 H   0  0  0  0  0  0  0  0  0  0  0  0  # atno 10167 bound_to 10162
  157.6951  131.0497  150.4119 H   0  0  0  0  0  0  0  0  0  0  0  0  # atno 10718 bound_to 10713
  153.3014  135.4113  155.1255 H   0  0  0  0  0  0  0  0  0  0  0  0  # atno 10763 bound_to 10752
  154.8550  135.3542  154.5847 H   0  0  0  0  0  0  0  0  0  0  0  0  # atno 10764 bound_to 10752
  153.6272  135.7062  153.5347 H   0  0  0  0  0  0  0  0  0  0  0  0  # atno 10765 bound_to 10752
  140.7219  133.8821  155.8827 H   0  0  0  0  0  0  0  0  0  0  0  0  # atno 11005 bound_to 11000
  146.1460  140.6991  142.9344 LP  0  0  0  0  0  0  0  0  0  0  0  0  # atno 17320 bound_to 7965
  144.7246  140.4485  143.6982 LP  0  0  0  0  0  0  0  0  0  0  0  0  # atno 17321 bound_to 7965
  140.7818  143.4484  151.0449 LP  0  0  0  0  0  0  0  0  0  0  0  0  # atno 17342 bound_to 10162
  139.8164  143.7879  152.3174 LP  0  0  0  0  0  0  0  0  0  0  0  0  # atno 17343 bound_to 10162
  156.4502  130.4010  149.6641 LP  0  0  0  0  0  0  0  0  0  0  0  0  # atno 17370 bound_to 10713
  156.3793  130.7570  151.2562 LP  0  0  0  0  0  0  0  0  0  0  0  0  # atno 17371 bound_to 10713
  140.9996  134.1168  157.4330 LP  0  0  0  0  0  0  0  0  0  0  0  0  # atno 17394 bound_to 11000
  139.8846  135.0064  156.6380 LP  0  0  0  0  0  0  0  0  0  0  0  0  # atno 17395 bound_to 11000

$$$$
