AV-unprocessed.smi:1699|AV-procd|sdf|6816|dock3
  -GOLD-   22720 7593D 1   1.00000     0.00000
 Structure written by MMmdl.
 37 38  0  0  0  0  0  0  0  0  1 V2000
  145.7819  134.9221  151.4692 C   0  0  0  0  0  0  0  0  0  0  0  0
  145.9583  133.4170  151.5891 C   0  0  0  0  0  0  0  0  0  0  0  0
  144.9910  132.5614  151.0199 C   0  0  0  0  0  0  0  0  0  0  0  0
  145.1564  131.1701  151.1295 C   0  0  0  0  0  0  0  0  0  0  0  0
  146.2899  130.6902  151.8078 C   0  0  0  0  0  0  0  0  0  0  0  0
  147.2189  131.5005  152.3545 N   0  0  0  0  0  0  0  0  0  0  0  0
  147.0748  132.8462  152.2573 C   0  0  0  0  0  0  0  0  0  0  0  0
  148.0119  133.7609  152.8159 N   0  0  0  0  0  0  0  0  0  0  0  0
  148.7506  133.6251  153.9314 C   0  0  0  0  0  0  0  0  0  0  0  0
  148.7591  132.6360  154.6650 O   0  0  0  0  0  0  0  0  0  0  0  0
  149.5028  134.7139  154.1476 N   0  0  0  0  0  0  0  0  0  0  0  0
  150.4302  134.8961  155.2615 C   0  0  1  0  0  0  0  0  0  0  0  0
  151.5249  133.8181  155.1923 C   0  0  0  0  0  0  0  0  0  0  0  0
  151.0075  136.3234  155.2099 C   0  0  2  0  0  0  0  0  0  0  0  0
  149.9782  137.4222  154.9398 C   0  0  0  0  0  0  0  0  0  0  0  0
  150.7949  138.5338  154.2986 C   0  0  0  0  0  0  0  0  0  0  0  0
  152.1118  137.8553  153.9120 C   0  0  0  0  0  0  0  0  0  0  0  0
  151.8836  136.4665  154.1018 O   0  0  0  0  0  0  0  0  0  0  0  0
  144.8810  135.1733  150.9084 H   0  0  0  0  0  0  0  0  0  0  0  0
  146.6326  135.3663  150.9517 H   0  0  0  0  0  0  0  0  0  0  0  0
  145.7002  135.3766  152.4569 H   0  0  0  0  0  0  0  0  0  0  0  0
  144.1309  132.9632  150.5046 H   0  0  0  0  0  0  0  0  0  0  0  0
  144.4339  130.4888  150.7050 H   0  0  0  0  0  0  0  0  0  0  0  0
  146.4556  129.6284  151.9152 H   0  0  0  0  0  0  0  0  0  0  0  0
  148.1346  134.6203  152.3018 H   0  0  0  0  0  0  0  0  0  0  0  0
  149.4272  135.4801  153.4947 H   0  0  0  0  0  0  0  0  0  0  0  0
  149.8926  134.7829  156.2049 H   0  0  0  0  0  0  0  0  0  0  0  0
  152.2115  133.8935  156.0355 H   0  0  0  0  0  0  0  0  0  0  0  0
  152.1110  133.9060  154.2768 H   0  0  0  0  0  0  0  0  0  0  0  0
  151.0932  132.8167  155.2162 H   0  0  0  0  0  0  0  0  0  0  0  0
  151.5584  136.5482  156.1257 H   0  0  0  0  0  0  0  0  0  0  0  0
  149.2265  137.0696  154.2321 H   0  0  0  0  0  0  0  0  0  0  0  0
  149.4619  137.7461  155.8438 H   0  0  0  0  0  0  0  0  0  0  0  0
  150.2799  138.9409  153.4279 H   0  0  0  0  0  0  0  0  0  0  0  0
  150.9744  139.3526  154.9962 H   0  0  0  0  0  0  0  0  0  0  0  0
  152.4068  138.0671  152.8840 H   0  0  0  0  0  0  0  0  0  0  0  0
  152.9180  138.1794  154.5716 H   0  0  0  0  0  0  0  0  0  0  0  0
  1  2  1  0  0  0  0
  1 19  1  0  0  0  0
  1 20  1  0  0  0  0
  1 21  1  0  0  0  0
  2  7  1  0  0  0  0
  2  3  2  0  0  0  0
  3  4  1  0  0  0  0
  3 22  1  0  0  0  0
  4  5  2  0  0  0  0
  4 23  1  0  0  0  0
  5  6  1  0  0  0  0
  5 24  1  0  0  0  0
  6  7  2  0  0  0  0
  7  8  1  0  0  0  0
  8  9  1  0  0  0  0
  8 25  1  0  0  0  0
  9 10  2  0  0  0  0
  9 11  1  0  0  0  0
 11 12  1  0  0  0  0
 11 26  1  0  0  0  0
 12 13  1  0  0  0  0
 12 14  1  0  0  0  0
 12 27  1  0  0  0  0
 13 28  1  0  0  0  0
 13 29  1  0  0  0  0
 13 30  1  0  0  0  0
 14 18  1  0  0  0  0
 14 15  1  0  0  0  0
 14 31  1  0  0  0  0
 15 16  1  0  0  0  0
 15 32  1  0  0  0  0
 15 33  1  0  0  0  0
 16 17  1  0  0  0  0
 16 34  1  0  0  0  0
 16 35  1  0  0  0  0
 17 18  1  0  0  0  0
 17 36  1  0  0  0  0
 17 37  1  0  0  0  0
M  END
> <s_m_source_file>
AV-unprocessed.smi

> <i_m_source_file_index>
1699

> <i_lp_mmshare_version>
43012

> <i_f3d_flags>
0

> <s_epik_input>
W0NIM11jMVtjSF1bY0hdW2NIXW5jMVtOSF1DKD1PKVtOSF1bQ0BIXShbQ0gzXSlbQ0BASF0yW0NIMl1bQ0gyXVtDSDJdTzI=

> <s_epik_cmdline>
J2VwaWtfcHl0aG9uJywgJy1waCcsICc3LjAnLCAnLXRuJywgJzgnLCAnLW1hJywgJzIwMCcsICctbWV0YWxfYmluZGluZycsICctaW1hZScsICc8aW5maWxlLm1hZT4nLCAnLW9tYWUnLCAnPG91dGZpbGUubWFlPic=

> <r_lp_tautomer_probability>
1

> <r_epik_Ionization_Penalty>
5.52788e-05

> <r_epik_Ionization_Penalty_Charging>
0

> <r_epik_Ionization_Penalty_Neutral>
5.52788e-05

> <r_epik_State_Penalty>
-0

> <r_epik_Charging_Adjusted_Penalty>
0

> <i_epik_Tot_Q>
0

> <i_epik_Tot_abs_Q>
0

> <r_epik_Metal_State_Penalty>
-0

> <b_epik_Metal_Only>
0

> <s_lp_Force_Field>
OPLS_2005

> <r_lp_Energy>
21.1958

> <b_lp_Chiralities_Consistent>
1

> <s_lp_Variant>
AV-unprocessed.smi:1699-2

> <Gold.Version>
5.8.1

> <Gold.Id.Protein>
6NUR|6NUR_protein|mol2

> <Gold.PLP.Fitness>
40.4170

> <Gold.PLP.PLP>
-32.1598

> <Gold.PLP.part.hbond>
-3.0000

> <Gold.PLP.part.metal>
0.0000

> <Gold.PLP.part.buried>
-6.5258

> <Gold.PLP.part.nonpolar>
-23.2265

> <Gold.PLP.part.repulsive>
0.3761

> <Gold.PLP.ligand.clash>
0.0000

> <Gold.PLP.ligand.torsion>
0.3828

> <Gold.PLP.Chemscore.Hbond>
3.0000

> <Gold.PLP.Chemscore.CHOScore>
0.0000

> <Gold.PLP.Chemscore.Metal>
0.0000

> <Gold.Chemscore.Hbonds>
donor molecule, donor type, donor heavy atom, donor atom, acceptor molecule, acceptor atom, score
      L1  H     8    25       P1  7948  1.00
      L1  H    11    26       P1  7948  0.90
      P1  H 10752 10765       L1    18  0.52

> <Gold.PLP.Chemscore.Internal.Correction>
0.0230

> <Gold.Rescore>
     Score         DG    S(hbond)    S(metal)    S(lipo)     H(rot)  DE(clash)    DE(int)     intcor
     17.99     -18.58       2.62        0.00      63.83       1.22       0.07       0.52       ----

> <Gold.Chemscore.Fitness>
17.9908

> <Gold.Chemscore.DG>
-18.5792

> <Gold.Chemscore.ZeroCoef>
-5.4800

> <Gold.Chemscore.Hbond>
2.6211

> <Gold.Chemscore.Metal>
0.0000

> <Gold.Chemscore.Lipo>
63.8286

> <Gold.Chemscore.Internal_Hbond>
0.0000

> <Gold.Chemscore.DEClash>
0.0727

> <Gold.Chemscore.DEInternal>
0.5156

> <Gold.Chemscore.Rot>
1.2200

> <Gold.Chemscore.Internal.Correction>
   9.000000E+99

> <Gold.Chemscore.Hbonds>
donor molecule, donor type, donor heavy atom, donor atom, acceptor molecule, acceptor atom, score
      L1  H     8    25       P1  7948  0.25
      L1  H    11    26       P1  7948  0.17
      P1  H 10752 10765       L1    18  0.44

> <Gold.Chemscore.Hbond.Weighted>
-8.7544

> <Gold.Chemscore.Metal.Weighted>
-0.0000

> <Gold.Chemscore.Lipo.Weighted>
-7.4679

> <Gold.Chemscore.Internal_Hbond.Weighted>
0.0000

> <Gold.Chemscore.DEClash.Weighted>
0.0727

> <Gold.Chemscore.DEInternal.Weighted>
0.5156

> <Gold.Chemscore.Rot.Weighted>
3.1232

> <Gold.Chemscore.Internal.Correction.Weighted>
   9.000000E+99

> <Gold.Protein.RotatedTorsions>
[ 6907 6896 6895 6894 ] final -124.34 input  -60.11 | X-H torsion
[ 7974 7965 7964 7962 ] final   86.26 input  175.53 | X-H torsion
[ 8008 7997 7996 7995 ] final -112.59 input   59.86 | X-H torsion
[ 10167 10162 10161 10158 ] final  -60.02 input  -65.29 | X-H torsion
[ 10718 10713 10712 10709 ] final  -34.07 input   66.30 | X-H torsion
[ 10763 10752 10751 10750 ] final  153.33 input  -60.55 | X-H torsion
[ 11005 11000 10999 10996 ] final -177.41 input  -57.11 | X-H torsion

> <Gold.Protein.ActiveResidues>
 VAL166  LYS551  ARG553  GLY616  TRP617  ASP618  TYR619  PRO620  LYS621  CYS622 
 ASP623  PHE694  ASN695  SER759  ASP760  ASP761  ALA762  ILE779  LEU786  VAL792 
 PHE793  MET794  SER795  GLU796  ALA797  LYS798  CYS799  TRP800  GLU811  SER814 

> <Gold.Protein.RotatedAtoms>
  150.8758  133.7440  159.2946 H   0  0  0  0  0  0  0  0  0  0  0  0  # atno 6907 bound_to 6896
  151.5037  135.1061  159.9845 H   0  0  0  0  0  0  0  0  0  0  0  0  # atno 6908 bound_to 6896
  152.4727  133.8021  159.7014 H   0  0  0  0  0  0  0  0  0  0  0  0  # atno 6909 bound_to 6896
  145.5747  139.2318  143.2386 H   0  0  0  0  0  0  0  0  0  0  0  0  # atno 7974 bound_to 7965
  155.0075  140.0394  157.2386 H   0  0  0  0  0  0  0  0  0  0  0  0  # atno 8008 bound_to 7997
  154.7489  140.2763  155.6286 H   0  0  0  0  0  0  0  0  0  0  0  0  # atno 8009 bound_to 7997
  156.2881  140.2651  156.2237 H   0  0  0  0  0  0  0  0  0  0  0  0  # atno 8010 bound_to 7997
  140.6098  143.2384  151.5736 H   0  0  0  0  0  0  0  0  0  0  0  0  # atno 10167 bound_to 10162
  156.3550  130.4314  149.7672 H   0  0  0  0  0  0  0  0  0  0  0  0  # atno 10718 bound_to 10713
  154.1345  135.2824  155.3177 H   0  0  0  0  0  0  0  0  0  0  0  0  # atno 10763 bound_to 10752
  154.6332  135.5428  153.7707 H   0  0  0  0  0  0  0  0  0  0  0  0  # atno 10764 bound_to 10752
  153.0270  135.6468  154.1494 H   0  0  0  0  0  0  0  0  0  0  0  0  # atno 10765 bound_to 10752
  140.4413  134.6429  157.4759 H   0  0  0  0  0  0  0  0  0  0  0  0  # atno 11005 bound_to 11000
  146.1759  140.6573  142.9211 LP  0  0  0  0  0  0  0  0  0  0  0  0  # atno 17320 bound_to 7965
  144.7421  140.4971  143.6861 LP  0  0  0  0  0  0  0  0  0  0  0  0  # atno 17321 bound_to 7965
  139.5352  144.2800  152.1236 LP  0  0  0  0  0  0  0  0  0  0  0  0  # atno 17342 bound_to 10162
  140.1997  144.4670  150.6437 LP  0  0  0  0  0  0  0  0  0  0  0  0  # atno 17343 bound_to 10162
  156.4858  130.8062  151.3074 LP  0  0  0  0  0  0  0  0  0  0  0  0  # atno 17370 bound_to 10713
  157.7466  130.9991  150.2878 LP  0  0  0  0  0  0  0  0  0  0  0  0  # atno 17371 bound_to 10713
  140.0068  134.6751  155.9442 LP  0  0  0  0  0  0  0  0  0  0  0  0  # atno 17394 bound_to 11000
  141.1704  133.6537  156.4632 LP  0  0  0  0  0  0  0  0  0  0  0  0  # atno 17395 bound_to 11000

$$$$
