AV-unprocessed.smi:1433|AV-procd|sdf|5841|dock2
  -GOLD-   22720 5503D 1   1.00000     0.00000
 Structure written by MMmdl.
 45 46  0  0  0  0  0  0  0  0  2 V2000
  145.8244  131.5857  150.9428 C   0  0  0  0  0  0  0  0  0  0  0  0
  146.1144  132.8847  151.7027 C   0  0  2  0  0  0  0  0  0  0  0  0
  147.0265  132.6474  152.9206 C   0  0  0  0  0  0  0  0  0  0  0  0
  147.2199  133.9031  153.6940 N   0  3  2  0  0  0  0  0  0  0  0  0
  148.1624  133.8259  154.8579 C   0  0  2  0  0  0  0  0  0  0  0  0
  147.7684  132.6423  155.7688 C   0  0  0  0  0  0  0  0  0  0  0  0
  148.2599  135.1383  155.6865 C   0  0  0  0  0  0  0  0  0  0  0  0
  149.0385  136.1812  155.0248 N   0  0  0  0  0  0  0  0  0  0  0  0
  149.9628  136.9503  155.6216 C   0  0  0  0  0  0  0  0  0  0  0  0
  150.2400  136.8724  156.8183 O   0  0  0  0  0  0  0  0  0  0  0  0
  150.6906  137.9578  154.7313 C   0  0  0  0  0  0  0  0  0  0  0  0
  150.4403  139.3169  155.1751 N   0  0  0  0  0  0  0  0  0  0  0  0
  150.2668  139.7791  156.4632 C   0  0  0  0  0  0  0  0  0  0  0  0
  150.0691  141.1281  156.3879 C   0  0  0  0  0  0  0  0  0  0  0  0
  150.1412  141.4029  154.9936 C   0  0  0  0  0  0  0  0  0  0  0  0
  150.3637  140.3174  154.2697 N   0  0  0  0  0  0  0  0  0  0  0  0
  145.8935  134.4553  154.0799 C   0  0  0  0  0  0  0  0  0  0  0  0
  144.9760  134.6491  152.8579 C   0  0  1  0  0  0  0  0  0  0  0  0
  145.3788  135.8367  151.9655 C   0  0  0  0  0  0  0  0  0  0  0  0
  144.8701  133.4286  152.1288 O   0  0  0  0  0  0  0  0  0  0  0  0
  146.7455  131.1287  150.5799 H   0  0  0  0  0  0  0  0  0  0  0  0
  145.1855  131.7737  150.0796 H   0  0  0  0  0  0  0  0  0  0  0  0
  145.3186  130.8594  151.5796 H   0  0  0  0  0  0  0  0  0  0  0  0
  146.5997  133.5748  151.0122 H   0  0  0  0  0  0  0  0  0  0  0  0
  146.6060  131.8779  153.5706 H   0  0  0  0  0  0  0  0  0  0  0  0
  147.9783  132.2759  152.5424 H   0  0  0  0  0  0  0  0  0  0  0  0
  149.1571  133.6293  154.4552 H   0  0  0  0  0  0  0  0  0  0  0  0
  148.4758  132.5090  156.5872 H   0  0  0  0  0  0  0  0  0  0  0  0
  147.7425  131.6947  155.2333 H   0  0  0  0  0  0  0  0  0  0  0  0
  146.7827  132.7977  156.2084 H   0  0  0  0  0  0  0  0  0  0  0  0
  147.2723  135.5541  155.8921 H   0  0  0  0  0  0  0  0  0  0  0  0
  148.7259  134.9391  156.6522 H   0  0  0  0  0  0  0  0  0  0  0  0
  148.8828  136.3111  154.0352 H   0  0  0  0  0  0  0  0  0  0  0  0
  151.7649  137.7658  154.7332 H   0  0  0  0  0  0  0  0  0  0  0  0
  150.3487  137.8555  153.7004 H   0  0  0  0  0  0  0  0  0  0  0  0
  150.3001  139.1166  157.3158 H   0  0  0  0  0  0  0  0  0  0  0  0
  149.9000  141.8144  157.2043 H   0  0  0  0  0  0  0  0  0  0  0  0
  150.0402  142.3528  154.4896 H   0  0  0  0  0  0  0  0  0  0  0  0
  145.4166  133.7675  154.7804 H   0  0  0  0  0  0  0  0  0  0  0  0
  145.9963  135.4046  154.6034 H   0  0  0  0  0  0  0  0  0  0  0  0
  143.9731  134.8627  153.2290 H   0  0  0  0  0  0  0  0  0  0  0  0
  145.3187  136.7735  152.5200 H   0  0  0  0  0  0  0  0  0  0  0  0
  144.7123  135.9207  151.1069 H   0  0  0  0  0  0  0  0  0  0  0  0
  146.3982  135.7489  151.5911 H   0  0  0  0  0  0  0  0  0  0  0  0
  147.6335  134.5581  153.0458 H   0  0  0  0  0  0  0  0  0  0  0  0
  1  2  1  0  0  0  0
  1 21  1  0  0  0  0
  1 22  1  0  0  0  0
  1 23  1  0  0  0  0
  2 20  1  0  0  0  0
  2  3  1  0  0  0  0
  2 24  1  0  0  0  0
  3  4  1  0  0  0  0
  3 25  1  0  0  0  0
  3 26  1  0  0  0  0
  4  5  1  0  0  0  0
  4 17  1  0  0  0  0
  4 45  1  0  0  0  0
  5  6  1  0  0  0  0
  5  7  1  0  0  0  0
  5 27  1  0  0  0  0
  6 28  1  0  0  0  0
  6 29  1  0  0  0  0
  6 30  1  0  0  0  0
  7  8  1  0  0  0  0
  7 31  1  0  0  0  0
  7 32  1  0  0  0  0
  8  9  1  0  0  0  0
  8 33  1  0  0  0  0
  9 10  2  0  0  0  0
  9 11  1  0  0  0  0
 11 12  1  0  0  0  0
 11 34  1  0  0  0  0
 11 35  1  0  0  0  0
 12 16  1  0  0  0  0
 12 13  1  0  0  0  0
 13 14  2  0  0  0  0
 13 36  1  0  0  0  0
 14 15  1  0  0  0  0
 14 37  1  0  0  0  0
 15 16  2  0  0  0  0
 15 38  1  0  0  0  0
 17 18  1  0  0  0  0
 17 39  1  0  0  0  0
 17 40  1  0  0  0  0
 18 19  1  0  0  0  0
 18 20  1  0  0  0  0
 18 41  1  0  0  0  0
 19 42  1  0  0  0  0
 19 43  1  0  0  0  0
 19 44  1  0  0  0  0
M  CHG  1   4   1
M  END
> <s_m_source_file>
AV-unprocessed.smi

> <i_m_source_file_index>
1433

> <i_lp_mmshare_version>
43012

> <i_f3d_flags>
0

> <s_epik_input>
W0NIM11bQ0BASF0xW0NIMl1OKFtDSDJdW0NASF0oTzEpW0NIM10pW0NASF0oW0NIM10pW0NIMl1bTkhdQyg9TylbQ0gyXW4yW2NIXVtjSF1bY0hdbjI=

> <s_epik_cmdline>
J2VwaWtfcHl0aG9uJywgJy1waCcsICc3LjAnLCAnLXRuJywgJzgnLCAnLW1hJywgJzIwMCcsICctbWV0YWxfYmluZGluZycsICctaW1hZScsICc8aW5maWxlLm1hZT4nLCAnLW9tYWUnLCAnPG91dGZpbGUubWFlPic=

> <r_lp_tautomer_probability>
1

> <r_epik_Ionization_Penalty>
0.748405

> <r_epik_Ionization_Penalty_Charging>
0.748396

> <r_epik_Ionization_Penalty_Neutral>
8.54426e-06

> <r_epik_State_Penalty>
0.775162

> <r_epik_Charging_Adjusted_Penalty>
1.52356

> <i_epik_Tot_Q>
1

> <i_epik_Tot_abs_Q>
1

> <r_epik_Metal_State_Penalty>
0.775167

> <b_epik_Metal_Only>
0

> <s_lp_Force_Field>
OPLS_2005

> <r_lp_Energy>
22.7015

> <b_lp_Chiralities_Consistent>
1

> <s_lp_Variant>
AV-unprocessed.smi:1433-7

> <Gold.Version>
5.8.1

> <Gold.Id.Protein>
6NUR|6NUR_protein|mol2

> <Gold.PLP.Fitness>
50.3785

> <Gold.PLP.PLP>
-35.0765

> <Gold.PLP.part.hbond>
-4.5058

> <Gold.PLP.part.metal>
0.0000

> <Gold.PLP.part.buried>
-1.3877

> <Gold.PLP.part.nonpolar>
-28.0815

> <Gold.PLP.part.repulsive>
0.2806

> <Gold.PLP.ligand.clash>
0.0000

> <Gold.PLP.ligand.torsion>
0.7125

> <Gold.PLP.Chemscore.Hbond>
4.8704

> <Gold.PLP.Chemscore.CHOScore>
0.6654

> <Gold.PLP.Chemscore.Metal>
0.0000

> <Gold.Chemscore.Hbonds>
donor molecule, donor type, donor heavy atom, donor atom, acceptor molecule, acceptor atom, score
      L1  H     4    45       P1  7948  0.13
      L1  H     8    33       P1  7948  0.67
      P1  H  7989  7998       L1    16  0.85
      L1  C    15    38       P1  8028  0.14

> <Gold.PLP.Chemscore.Internal.Correction>
0.1195

> <Gold.Rescore>
     Score         DG    S(hbond)    S(metal)    S(lipo)     H(rot)  DE(clash)    DE(int)     intcor
     19.02     -19.92       3.43        0.00      66.33       1.87       0.02       0.88       ----

> <Gold.Chemscore.Fitness>
19.0196

> <Gold.Chemscore.DG>
-19.9174

> <Gold.Chemscore.ZeroCoef>
-5.4800

> <Gold.Chemscore.Hbond>
3.4292

> <Gold.Chemscore.Metal>
0.0000

> <Gold.Chemscore.Lipo>
66.3258

> <Gold.Chemscore.Internal_Hbond>
0.0000

> <Gold.Chemscore.DEClash>
0.0183

> <Gold.Chemscore.DEInternal>
0.8795

> <Gold.Chemscore.Rot>
1.8657

> <Gold.Chemscore.Internal.Correction>
   9.000000E+99

> <Gold.Chemscore.Hbonds>
donor molecule, donor type, donor heavy atom, donor atom, acceptor molecule, acceptor atom, score
      L1  H     4    45       P1  7948  0.09
      L1  H     8    33       P1  7948  0.66
      P1  H  7989  7998       L1    16  0.14

> <Gold.Chemscore.Hbond.Weighted>
-11.4534

> <Gold.Chemscore.Metal.Weighted>
-0.0000

> <Gold.Chemscore.Lipo.Weighted>
-7.7601

> <Gold.Chemscore.Internal_Hbond.Weighted>
0.0000

> <Gold.Chemscore.DEClash.Weighted>
0.0183

> <Gold.Chemscore.DEInternal.Weighted>
0.8795

> <Gold.Chemscore.Rot.Weighted>
4.7761

> <Gold.Chemscore.Internal.Correction.Weighted>
   9.000000E+99

> <Gold.Protein.RotatedTorsions>
[ 6907 6896 6895 6894 ] final  163.23 input  -60.11 | X-H torsion
[ 7974 7965 7964 7962 ] final -164.20 input  175.53 | X-H torsion
[ 8008 7997 7996 7995 ] final -166.95 input   59.86 | X-H torsion
[ 10167 10162 10161 10158 ] final   80.67 input  -65.29 | X-H torsion
[ 10718 10713 10712 10709 ] final  154.06 input   66.30 | X-H torsion
[ 10763 10752 10751 10750 ] final  -28.22 input  -60.55 | X-H torsion
[ 11005 11000 10999 10996 ] final   24.85 input  -57.11 | X-H torsion

> <Gold.Protein.ActiveResidues>
 VAL166  LYS551  ARG553  GLY616  TRP617  ASP618  TYR619  PRO620  LYS621  CYS622 
 ASP623  PHE694  ASN695  SER759  ASP760  ASP761  ALA762  ILE779  LEU786  VAL792 
 PHE793  MET794  SER795  GLU796  ALA797  LYS798  CYS799  TRP800  GLU811  SER814 

> <Gold.Protein.RotatedAtoms>
  151.9284  133.3604  159.3921 H   0  0  0  0  0  0  0  0  0  0  0  0  # atno 6907 bound_to 6896
  150.7022  134.4563  159.5369 H   0  0  0  0  0  0  0  0  0  0  0  0  # atno 6908 bound_to 6896
  152.2199  134.8423  160.0538 H   0  0  0  0  0  0  0  0  0  0  0  0  # atno 6909 bound_to 6896
  144.7304  140.2996  143.6207 H   0  0  0  0  0  0  0  0  0  0  0  0  # atno 7974 bound_to 7965
  155.8710  140.0993  157.1550 H   0  0  0  0  0  0  0  0  0  0  0  0  # atno 8008 bound_to 7997
  154.3997  140.1347  156.4140 H   0  0  0  0  0  0  0  0  0  0  0  0  # atno 8009 bound_to 7997
  155.7751  140.3460  155.5270 H   0  0  0  0  0  0  0  0  0  0  0  0  # atno 8010 bound_to 7997
  139.9473  144.6049  150.8194 H   0  0  0  0  0  0  0  0  0  0  0  0  # atno 10167 bound_to 10162
  157.2366  131.0750  151.1819 H   0  0  0  0  0  0  0  0  0  0  0  0  # atno 10718 bound_to 10713
  153.7449  135.6930  153.4958 H   0  0  0  0  0  0  0  0  0  0  0  0  # atno 10763 bound_to 10752
  153.2044  135.4425  155.0303 H   0  0  0  0  0  0  0  0  0  0  0  0  # atno 10764 bound_to 10752
  154.8208  135.3421  154.6972 H   0  0  0  0  0  0  0  0  0  0  0  0  # atno 10765 bound_to 10752
  140.3542  134.2196  155.7677 H   0  0  0  0  0  0  0  0  0  0  0  0  # atno 11005 bound_to 11000
  145.7773  139.1879  143.2178 LP  0  0  0  0  0  0  0  0  0  0  0  0  # atno 17320 bound_to 7965
  146.0862  140.7708  142.9617 LP  0  0  0  0  0  0  0  0  0  0  0  0  # atno 17321 bound_to 7965
  140.7593  143.3126  151.2808 LP  0  0  0  0  0  0  0  0  0  0  0  0  # atno 17342 bound_to 10162
  139.6656  144.0111  152.2721 LP  0  0  0  0  0  0  0  0  0  0  0  0  # atno 17343 bound_to 10162
  157.3422  130.7039  149.6389 LP  0  0  0  0  0  0  0  0  0  0  0  0  # atno 17370 bound_to 10713
  155.9672  130.4276  150.4753 LP  0  0  0  0  0  0  0  0  0  0  0  0  # atno 17371 bound_to 10713
  141.2003  133.7990  157.0495 LP  0  0  0  0  0  0  0  0  0  0  0  0  # atno 17394 bound_to 11000
  140.0678  134.9719  157.1416 LP  0  0  0  0  0  0  0  0  0  0  0  0  # atno 17395 bound_to 11000

$$$$
