AV-unprocessed.smi:548|AV-procd|sdf|2890|dock4
  -GOLD-   2262023383D 1   1.00000     0.00000
 Structure written by MMmdl.
 25 25  0  0  0  0  0  0  0  0  3 V2000
  150.4046  138.8112  157.5505 C   0  0  0  0  0  0  0  0  0  0  0  0
  151.6734  139.6802  157.3671 C   0  0  0  0  0  0  0  0  0  0  0  0
  152.7754  139.1615  158.3236 C   0  0  0  0  0  0  0  0  0  0  0  0
  152.1719  139.5378  155.9019 C   0  0  0  0  0  0  0  0  0  0  0  0
  151.4038  139.9031  154.9836 O   0  0  0  0  0  0  0  0  0  0  0  0
  153.2960  139.0205  155.7135 O   0  5  0  0  0  0  0  0  0  0  0  0
  151.3517  141.1585  157.6851 C   0  0  0  0  0  0  0  0  0  0  0  0
  152.0567  141.8038  158.7311 C   0  0  0  0  0  0  0  0  0  0  0  0
  151.7898  143.1508  159.0489 C   0  0  0  0  0  0  0  0  0  0  0  0
  150.8130  143.8475  158.3125 C   0  0  0  0  0  0  0  0  0  0  0  0
  150.4976  145.1794  158.5722 N   0  0  0  0  0  0  0  0  0  0  0  0
  150.1532  143.2159  157.3205 N   0  3  0  0  0  0  0  0  0  0  0  0
  150.3808  141.9267  156.9865 C   0  0  0  0  0  0  0  0  0  0  0  0
  149.5685  139.1845  156.9575 H   0  0  0  0  0  0  0  0  0  0  0  0
  150.0749  138.7900  158.5892 H   0  0  0  0  0  0  0  0  0  0  0  0
  150.5841  137.7765  157.2549 H   0  0  0  0  0  0  0  0  0  0  0  0
  153.6673  139.7891  158.2930 H   0  0  0  0  0  0  0  0  0  0  0  0
  153.0773  138.1442  158.0697 H   0  0  0  0  0  0  0  0  0  0  0  0
  152.4356  139.1406  159.3591 H   0  0  0  0  0  0  0  0  0  0  0  0
  152.8064  141.2712  159.2964 H   0  0  0  0  0  0  0  0  0  0  0  0
  152.3314  143.6359  159.8478 H   0  0  0  0  0  0  0  0  0  0  0  0
  150.9613  145.6987  159.3039 H   0  0  0  0  0  0  0  0  0  0  0  0
  149.7943  145.6696  158.0384 H   0  0  0  0  0  0  0  0  0  0  0  0
  149.7704  141.5692  156.1702 H   0  0  0  0  0  0  0  0  0  0  0  0
  149.4479  143.7321  156.7948 H   0  0  0  0  0  0  0  0  0  0  0  0
  1  2  1  0  0  0  0
  1 14  1  0  0  0  0
  1 15  1  0  0  0  0
  1 16  1  0  0  0  0
  2  3  1  0  0  0  0
  2  4  1  0  0  0  0
  2  7  1  0  0  0  0
  3 17  1  0  0  0  0
  3 18  1  0  0  0  0
  3 19  1  0  0  0  0
  4  5  2  0  0  0  0
  4  6  1  0  0  0  0
  7 13  1  0  0  0  0
  7  8  2  0  0  0  0
  8  9  1  0  0  0  0
  8 20  1  0  0  0  0
  9 10  2  0  0  0  0
  9 21  1  0  0  0  0
 10 11  1  0  0  0  0
 10 12  1  0  0  0  0
 11 22  1  0  0  0  0
 11 23  1  0  0  0  0
 12 13  2  0  0  0  0
 12 25  1  0  0  0  0
 13 24  1  0  0  0  0
M  CHG  1   6  -1
M  CHG  1  12   1
M  END
> <s_m_source_file>
AV-unprocessed.smi

> <i_m_source_file_index>
548

> <i_lp_mmshare_version>
43012

> <i_f3d_flags>
0

> <s_epik_input>
Tz1DKFtPSF0pQyhbQ0gzXSkoW0NIM10pYzFbY0hdW2NIXWMoW05IMl0pbltjSF0x

> <s_epik_cmdline>
J2VwaWtfcHl0aG9uJywgJy1waCcsICc3LjAnLCAnLXRuJywgJzgnLCAnLW1hJywgJzIwMCcsICctbWV0YWxfYmluZGluZycsICctaW1hZScsICc8aW5maWxlLm1hZT4nLCAnLW9tYWUnLCAnPG91dGZpbGUubWFlPic=

> <r_lp_tautomer_probability>
0.999994

> <r_epik_Ionization_Penalty>
0.0472787

> <r_epik_Ionization_Penalty_Charging>
0.0472785

> <r_epik_Ionization_Penalty_Neutral>
2.36651e-07

> <r_epik_State_Penalty>
0.0398874

> <r_epik_Charging_Adjusted_Penalty>
0.0871658

> <i_epik_Tot_Q>
0

> <i_epik_Tot_abs_Q>
2

> <r_epik_Metal_State_Penalty>
2.52256

> <b_epik_Metal_Only>
0

> <s_lp_Force_Field>
OPLS_2005

> <r_lp_Energy>
11.9737

> <b_lp_Chiralities_Consistent>
1

> <s_lp_Variant>
AV-unprocessed.smi:548-1

> <Gold.Version>
5.8.1

> <Gold.Id.Protein>
6NUR|6NUR_protein|mol2

> <Gold.PLP.Fitness>
44.3833

> <Gold.PLP.PLP>
-23.3986

> <Gold.PLP.part.hbond>
-4.0695

> <Gold.PLP.part.metal>
0.0000

> <Gold.PLP.part.buried>
-4.5905

> <Gold.PLP.part.nonpolar>
-15.7690

> <Gold.PLP.part.repulsive>
0.2633

> <Gold.PLP.ligand.clash>
0.0000

> <Gold.PLP.ligand.torsion>
0.0141

> <Gold.PLP.Chemscore.Hbond>
7.0000

> <Gold.PLP.Chemscore.CHOScore>
0.0000

> <Gold.PLP.Chemscore.Metal>
0.0000

> <Gold.Chemscore.Hbonds>
donor molecule, donor type, donor heavy atom, donor atom, acceptor molecule, acceptor atom, score
      L1  H    11    23       P1  8029  1.95
      L1  H    12    25       P1  8028  2.00
      P1  H  7989  7998       L1     5  1.00
      P1  H  7997  8008       L1     6  2.00

> <Gold.PLP.Chemscore.Internal.Correction>
0.0130

> <Gold.Rescore>
     Score         DG    S(hbond)    S(metal)    S(lipo)     H(rot)  DE(clash)    DE(int)     intcor
     17.53     -17.63       3.28        0.00      42.86       1.50       0.00       0.10       ----

> <Gold.Chemscore.Fitness>
17.5266

> <Gold.Chemscore.DG>
-17.6255

> <Gold.Chemscore.ZeroCoef>
-5.4800

> <Gold.Chemscore.Hbond>
3.2817

> <Gold.Chemscore.Metal>
0.0000

> <Gold.Chemscore.Lipo>
42.8603

> <Gold.Chemscore.Internal_Hbond>
0.0000

> <Gold.Chemscore.DEClash>
0.0000

> <Gold.Chemscore.DEInternal>
0.0989

> <Gold.Chemscore.Rot>
1.4961

> <Gold.Chemscore.Internal.Correction>
   9.000000E+99

> <Gold.Chemscore.Hbonds>
donor molecule, donor type, donor heavy atom, donor atom, acceptor molecule, acceptor atom, score
      L1  H    11    23       P1  8029  0.27
      L1  H    12    25       P1  8028  0.92
      P1  H  7989  7998       L1     5  1.00
      P1  H  7997  8008       L1     6  0.54

> <Gold.Chemscore.Hbond.Weighted>
-10.9607

> <Gold.Chemscore.Metal.Weighted>
-0.0000

> <Gold.Chemscore.Lipo.Weighted>
-5.0147

> <Gold.Chemscore.Internal_Hbond.Weighted>
0.0000

> <Gold.Chemscore.DEClash.Weighted>
0.0000

> <Gold.Chemscore.DEInternal.Weighted>
0.0989

> <Gold.Chemscore.Rot.Weighted>
3.8299

> <Gold.Chemscore.Internal.Correction.Weighted>
   9.000000E+99

> <Gold.Protein.RotatedTorsions>
[ 6907 6896 6895 6894 ] final -166.83 input  -60.11 | X-H torsion
[ 7974 7965 7964 7962 ] final  165.62 input  175.53 | X-H torsion
[ 8008 7997 7996 7995 ] final  -30.91 input   59.86 | X-H torsion
[ 10167 10162 10161 10158 ] final   15.82 input  -65.29 | X-H torsion
[ 10718 10713 10712 10709 ] final  129.71 input   66.30 | X-H torsion
[ 10763 10752 10751 10750 ] final -167.81 input  -60.55 | X-H torsion
[ 11005 11000 10999 10996 ] final  148.81 input  -57.11 | X-H torsion

> <Gold.Protein.ActiveResidues>
 VAL166  LYS551  ARG553  GLY616  TRP617  ASP618  TYR619  PRO620  LYS621  CYS622 
 ASP623  PHE694  ASN695  SER759  ASP760  ASP761  ALA762  ILE779  LEU786  VAL792 
 PHE793  MET794  SER795  GLU796  ALA797  LYS798  CYS799  TRP800  GLU811  SER814 

> <Gold.Protein.RotatedAtoms>
  151.4499  133.3620  159.2793 H   0  0  0  0  0  0  0  0  0  0  0  0  # atno 6907 bound_to 6896
  150.9098  134.8516  159.7428 H   0  0  0  0  0  0  0  0  0  0  0  0  # atno 6908 bound_to 6896
  152.4926  134.4427  159.9601 H   0  0  0  0  0  0  0  0  0  0  0  0  # atno 6909 bound_to 6896
  144.7495  139.8497  143.6371 H   0  0  0  0  0  0  0  0  0  0  0  0  # atno 7974 bound_to 7965
  154.4233  140.1778  156.1482 H   0  0  0  0  0  0  0  0  0  0  0  0  # atno 8008 bound_to 7997
  155.9936  140.3366  155.6752 H   0  0  0  0  0  0  0  0  0  0  0  0  # atno 8009 bound_to 7997
  155.6338  140.0672  157.2631 H   0  0  0  0  0  0  0  0  0  0  0  0  # atno 8010 bound_to 7997
  140.5840  143.8925  150.6814 H   0  0  0  0  0  0  0  0  0  0  0  0  # atno 10167 bound_to 10162
  157.5129  131.1097  150.9267 H   0  0  0  0  0  0  0  0  0  0  0  0  # atno 10718 bound_to 10713
  154.6693  135.2937  154.9763 H   0  0  0  0  0  0  0  0  0  0  0  0  # atno 10763 bound_to 10752
  154.0795  135.6606  153.4840 H   0  0  0  0  0  0  0  0  0  0  0  0  # atno 10764 bound_to 10752
  153.0477  135.5194  154.7682 H   0  0  0  0  0  0  0  0  0  0  0  0  # atno 10765 bound_to 10752
  140.0991  134.8994  157.1769 H   0  0  0  0  0  0  0  0  0  0  0  0  # atno 11005 bound_to 11000
  146.1425  139.4485  143.0100 LP  0  0  0  0  0  0  0  0  0  0  0  0  # atno 17320 bound_to 7965
  145.6997  141.0140  143.1511 LP  0  0  0  0  0  0  0  0  0  0  0  0  # atno 17321 bound_to 7965
  140.2431  143.3648  152.1469 LP  0  0  0  0  0  0  0  0  0  0  0  0  # atno 17342 bound_to 10162
  139.5187  144.7009  151.5496 LP  0  0  0  0  0  0  0  0  0  0  0  0  # atno 17343 bound_to 10162
  156.9901  130.5560  149.5302 LP  0  0  0  0  0  0  0  0  0  0  0  0  # atno 17370 bound_to 10713
  156.0301  130.5393  150.8511 LP  0  0  0  0  0  0  0  0  0  0  0  0  # atno 17371 bound_to 10713
  140.3244  134.2880  155.7240 LP  0  0  0  0  0  0  0  0  0  0  0  0  # atno 17394 bound_to 11000
  141.2100  133.7730  156.9957 LP  0  0  0  0  0  0  0  0  0  0  0  0  # atno 17395 bound_to 11000

$$$$
