AV-unprocessed.smi:743|AV-procd|sdf|3567|dock2
  -GOLD-   22720 0563D 1   1.00000     0.00000
 Structure written by MMmdl.
 28 29  0  0  0  0  0  0  0  0  1 V2000
  146.2470  137.8750  151.2616 C   0  0  0  0  0  0  0  0  0  0  0  0
  145.3485  136.7856  151.5780 N   0  0  0  0  0  0  0  0  0  0  0  0
  145.2365  135.5570  150.9651 C   0  0  0  0  0  0  0  0  0  0  0  0
  144.2551  134.8567  151.6131 C   0  0  0  0  0  0  0  0  0  0  0  0
  143.7316  133.4573  151.3520 C   0  0  1  0  0  0  0  0  0  0  0  0
  143.3975  133.2862  149.9352 N   0  0  0  0  0  0  0  0  0  0  0  0
  144.1638  132.7028  148.9941 C   0  0  0  0  0  0  0  0  0  0  0  0
  143.8407  132.7149  147.8087 O   0  0  0  0  0  0  0  0  0  0  0  0
  145.4440  131.9619  149.4178 C   0  0  0  0  0  0  0  0  0  0  0  0
  145.9092  132.2691  150.8524 C   0  0  0  0  0  0  0  0  0  0  0  0
  144.7116  132.3480  151.8074 C   0  0  1  0  0  0  0  0  0  0  0  0
  145.1532  132.5230  153.1794 N   0  0  0  0  0  0  0  0  0  0  0  0
  143.8217  135.7686  152.6192 C   0  0  0  0  0  0  0  0  0  0  0  0
  144.4756  136.9183  152.5964 N   0  0  0  0  0  0  0  0  0  0  0  0
  144.1888  131.3912  151.7683 H   0  0  0  0  0  0  0  0  0  0  0  0
  146.8987  137.5938  150.4339 H   0  0  0  0  0  0  0  0  0  0  0  0
  146.8613  138.1113  152.1309 H   0  0  0  0  0  0  0  0  0  0  0  0
  145.6725  138.7569  150.9769 H   0  0  0  0  0  0  0  0  0  0  0  0
  145.8621  135.2816  150.1287 H   0  0  0  0  0  0  0  0  0  0  0  0
  142.7987  133.3186  151.8995 H   0  0  0  0  0  0  0  0  0  0  0  0
  142.5416  133.7232  149.6248 H   0  0  0  0  0  0  0  0  0  0  0  0
  145.2392  130.8945  149.3301 H   0  0  0  0  0  0  0  0  0  0  0  0
  146.2441  132.1819  148.7107 H   0  0  0  0  0  0  0  0  0  0  0  0
  146.6024  131.4936  151.1800 H   0  0  0  0  0  0  0  0  0  0  0  0
  146.4699  133.2049  150.8667 H   0  0  0  0  0  0  0  0  0  0  0  0
  145.4429  133.4795  153.3255 H   0  0  0  0  0  0  0  0  0  0  0  0
  144.3826  132.3541  153.8102 H   0  0  0  0  0  0  0  0  0  0  0  0
  143.0535  135.6260  153.3649 H   0  0  0  0  0  0  0  0  0  0  0  0
  1  2  1  0  0  0  0
  1 16  1  0  0  0  0
  1 17  1  0  0  0  0
  1 18  1  0  0  0  0
  2 14  1  0  0  0  0
  2  3  1  0  0  0  0
  3  4  2  0  0  0  0
  3 19  1  0  0  0  0
  4  5  1  0  0  0  0
  4 13  1  0  0  0  0
  5 11  1  0  0  0  0
  5  6  1  0  0  0  0
  5 20  1  0  0  0  0
  6  7  1  0  0  0  0
  6 21  1  0  0  0  0
  7  8  2  0  0  0  0
  7  9  1  0  0  0  0
  9 10  1  0  0  0  0
  9 22  1  0  0  0  0
  9 23  1  0  0  0  0
 10 11  1  0  0  0  0
 10 24  1  0  0  0  0
 10 25  1  0  0  0  0
 11 15  1  0  0  0  0
 11 12  1  0  0  0  0
 12 26  1  0  0  0  0
 12 27  1  0  0  0  0
 13 14  2  0  0  0  0
 13 28  1  0  0  0  0
M  END
> <s_m_source_file>
AV-unprocessed.smi

> <i_m_source_file_index>
743

> <i_lp_mmshare_version>
43012

> <i_f3d_flags>
0

> <s_epik_input>
W0NIM11uMVtjSF1jKFtjSF1uMSlbQ0BASF0yW05IXUMoPU8pW0NIMl1bQ0gyXVtDQEBIXTJbTkgyXQ==

> <s_epik_cmdline>
J2VwaWtfcHl0aG9uJywgJy1waCcsICc3LjAnLCAnLXRuJywgJzgnLCAnLW1hJywgJzIwMCcsICctbWV0YWxfYmluZGluZycsICctaW1hZScsICc8aW5maWxlLm1hZT4nLCAnLW9tYWUnLCAnPG91dGZpbGUubWFlPic=

> <r_lp_tautomer_probability>
1

> <r_epik_Ionization_Penalty>
2.50279

> <r_epik_Ionization_Penalty_Charging>
0

> <r_epik_Ionization_Penalty_Neutral>
2.50279

> <r_epik_State_Penalty>
2.66754

> <r_epik_Charging_Adjusted_Penalty>
2.66754

> <i_epik_Tot_Q>
0

> <i_epik_Tot_abs_Q>
0

> <r_epik_Metal_State_Penalty>
2.66721

> <b_epik_Metal_Only>
0

> <s_lp_Force_Field>
OPLS_2005

> <r_lp_Energy>
9.07018

> <b_lp_Chiralities_Consistent>
1

> <s_lp_Variant>
AV-unprocessed.smi:743-8

> <Gold.Version>
5.8.1

> <Gold.Id.Protein>
6NUR|6NUR_protein|mol2

> <Gold.PLP.Fitness>
35.9500

> <Gold.PLP.PLP>
-26.9504

> <Gold.PLP.part.hbond>
-2.9640

> <Gold.PLP.part.metal>
0.0000

> <Gold.PLP.part.buried>
0.4286

> <Gold.PLP.part.nonpolar>
-25.9446

> <Gold.PLP.part.repulsive>
1.0997

> <Gold.PLP.ligand.clash>
0.0000

> <Gold.PLP.ligand.torsion>
0.2503

> <Gold.PLP.Chemscore.Hbond>
2.1699

> <Gold.PLP.Chemscore.CHOScore>
0.9909

> <Gold.PLP.Chemscore.Metal>
0.0000

> <Gold.Chemscore.Hbonds>
donor molecule, donor type, donor heavy atom, donor atom, acceptor molecule, acceptor atom, score
      L1  H     6    21       P1 10186  1.00
      L1  H    12    27       P1 10957  0.98
      P1  H  7918  7932       L1     8  0.22
      L1  C     3    19       P1  7921  0.97

> <Gold.PLP.Chemscore.Internal.Correction>
0.0179

> <Gold.Rescore>
     Score         DG    S(hbond)    S(metal)    S(lipo)     H(rot)  DE(clash)    DE(int)     intcor
     14.43     -14.96       1.73        0.00      53.51       1.00       0.40       0.14       ----

> <Gold.Chemscore.Fitness>
14.4315

> <Gold.Chemscore.DG>
-14.9635

> <Gold.Chemscore.ZeroCoef>
-5.4800

> <Gold.Chemscore.Hbond>
1.7313

> <Gold.Chemscore.Metal>
0.0000

> <Gold.Chemscore.Lipo>
53.5122

> <Gold.Chemscore.Internal_Hbond>
0.0000

> <Gold.Chemscore.DEClash>
0.3968

> <Gold.Chemscore.DEInternal>
0.1352

> <Gold.Chemscore.Rot>
1.0000

> <Gold.Chemscore.Internal.Correction>
   9.000000E+99

> <Gold.Chemscore.Hbonds>
donor molecule, donor type, donor heavy atom, donor atom, acceptor molecule, acceptor atom, score
      L1  H     6    21       P1 10186  1.00
      L1  H    12    27       P1 10957  0.23
      P1  H  7918  7932       L1     8  0.22

> <Gold.Chemscore.Hbond.Weighted>
-5.7825

> <Gold.Chemscore.Metal.Weighted>
-0.0000

> <Gold.Chemscore.Lipo.Weighted>
-6.2609

> <Gold.Chemscore.Internal_Hbond.Weighted>
0.0000

> <Gold.Chemscore.DEClash.Weighted>
0.3968

> <Gold.Chemscore.DEInternal.Weighted>
0.1352

> <Gold.Chemscore.Rot.Weighted>
2.5600

> <Gold.Chemscore.Internal.Correction.Weighted>
   9.000000E+99

> <Gold.Protein.RotatedTorsions>
[ 6907 6896 6895 6894 ] final  -39.39 input  -60.11 | X-H torsion
[ 7974 7965 7964 7962 ] final  157.01 input  175.53 | X-H torsion
[ 8008 7997 7996 7995 ] final  177.87 input   59.86 | X-H torsion
[ 10167 10162 10161 10158 ] final  -33.69 input  -65.29 | X-H torsion
[ 10718 10713 10712 10709 ] final   50.68 input   66.30 | X-H torsion
[ 10763 10752 10751 10750 ] final  -37.88 input  -60.55 | X-H torsion
[ 11005 11000 10999 10996 ] final  178.34 input  -57.11 | X-H torsion

> <Gold.Protein.ActiveResidues>
 VAL166  LYS551  ARG553  GLY616  TRP617  ASP618  TYR619  PRO620  LYS621  CYS622 
 ASP623  PHE694  ASN695  SER759  ASP760  ASP761  ALA762  ILE779  LEU786  VAL792 
 PHE793  MET794  SER795  GLU796  ALA797  LYS798  CYS799  TRP800  GLU811  SER814 

> <Gold.Protein.RotatedAtoms>
  150.9909  134.9244  159.7898 H   0  0  0  0  0  0  0  0  0  0  0  0  # atno 6907 bound_to 6896
  152.5250  134.3283  159.9183 H   0  0  0  0  0  0  0  0  0  0  0  0  # atno 6908 bound_to 6896
  151.3289  133.3967  159.2695 H   0  0  0  0  0  0  0  0  0  0  0  0  # atno 6909 bound_to 6896
  144.7928  139.7282  143.6214 H   0  0  0  0  0  0  0  0  0  0  0  0  # atno 7974 bound_to 7965
  156.0609  140.1347  156.9942 H   0  0  0  0  0  0  0  0  0  0  0  0  # atno 8008 bound_to 7997
  154.4481  140.0991  156.6586 H   0  0  0  0  0  0  0  0  0  0  0  0  # atno 8009 bound_to 7997
  155.5379  140.3460  155.4442 H   0  0  0  0  0  0  0  0  0  0  0  0  # atno 8010 bound_to 7997
  140.7200  143.3602  151.1978 H   0  0  0  0  0  0  0  0  0  0  0  0  # atno 10167 bound_to 10162
  157.4908  130.8374  149.8200 H   0  0  0  0  0  0  0  0  0  0  0  0  # atno 10718 bound_to 10713
  153.9037  135.6800  153.4754 H   0  0  0  0  0  0  0  0  0  0  0  0  # atno 10763 bound_to 10752
  153.1116  135.4780  154.9041 H   0  0  0  0  0  0  0  0  0  0  0  0  # atno 10764 bound_to 10752
  154.7562  135.3198  154.8419 H   0  0  0  0  0  0  0  0  0  0  0  0  # atno 10765 bound_to 10752
  140.3941  134.6836  157.4524 H   0  0  0  0  0  0  0  0  0  0  0  0  # atno 11005 bound_to 11000
  146.2187  139.5595  142.9633 LP  0  0  0  0  0  0  0  0  0  0  0  0  # atno 17320 bound_to 7965
  145.5749  141.0390  143.2154 LP  0  0  0  0  0  0  0  0  0  0  0  0  # atno 17321 bound_to 7965
  139.7152  143.9311  152.2964 LP  0  0  0  0  0  0  0  0  0  0  0  0  # atno 17342 bound_to 10162
  139.9050  144.6890  150.8624 LP  0  0  0  0  0  0  0  0  0  0  0  0  # atno 17343 bound_to 10162
  156.0172  130.3809  150.2073 LP  0  0  0  0  0  0  0  0  0  0  0  0  # atno 17370 bound_to 10713
  157.0262  130.9994  151.3325 LP  0  0  0  0  0  0  0  0  0  0  0  0  # atno 17371 bound_to 10713
  140.0385  134.6302  155.9012 LP  0  0  0  0  0  0  0  0  0  0  0  0  # atno 17394 bound_to 11000
  141.1880  133.6561  156.5307 LP  0  0  0  0  0  0  0  0  0  0  0  0  # atno 17395 bound_to 11000

$$$$
