AV-unprocessed.smi:4|AV-procd|sdf|36|dock1
  -GOLD-   2262015153D 1   1.00000     0.00000
 Structure written by MMmdl.
 42 43  0  0  0  0  0  0  0  0  2 V2000
  152.6727  138.5866  154.6492 C   0  0  0  0  0  0  0  0  0  0  0  0
  151.6578  138.7667  155.8106 C   0  0  0  0  0  0  0  0  0  0  0  0
  151.1631  140.2309  155.7052 C   0  0  0  0  0  0  0  0  0  0  0  0
  150.5028  137.7796  155.5013 C   0  0  0  0  0  0  0  0  0  0  0  0
  152.2302  138.5023  157.1825 N   0  0  0  0  0  0  0  0  0  0  0  0
  152.3546  139.5647  158.1156 C   0  0  0  0  0  0  0  0  0  0  0  0
  152.8616  139.4192  159.3612 C   0  0  0  0  0  0  0  0  0  0  0  0
  152.9954  140.5532  160.3780 C   0  0  0  0  0  0  0  0  0  0  0  0
  152.4373  141.8238  159.9154 N   0  0  0  0  0  0  0  0  0  0  0  0
  152.3580  142.8395  160.9610 C   0  0  0  0  0  0  0  0  0  0  0  0
  151.6031  144.0802  160.4739 C   0  0  0  0  0  0  0  0  0  0  0  0
  151.5445  144.9460  161.5910 O   0  0  0  0  0  0  0  0  0  0  0  0
  152.1257  144.7608  159.1954 C   0  0  0  0  0  0  0  0  0  0  0  0
  150.6812  144.9717  158.7393 C   0  0  0  0  0  0  0  0  0  0  0  0
  150.2673  143.8838  159.7308 C   0  0  0  0  0  0  0  0  0  0  0  0
  153.3032  138.0807  159.7455 C   0  0  0  0  0  0  0  0  0  0  0  0
  153.7864  137.8912  160.8615 O   0  0  0  0  0  0  0  0  0  0  0  0
  153.1615  137.0786  158.8372 N   0  5  0  0  0  0  0  0  0  0  0  0
  152.6402  137.2503  157.5859 C   0  0  0  0  0  0  0  0  0  0  0  0
  152.5373  136.2916  156.8223 O   0  0  0  0  0  0  0  0  0  0  0  0
  152.2048  138.7768  153.6825 H   0  0  0  0  0  0  0  0  0  0  0  0
  153.0672  137.5705  154.6041 H   0  0  0  0  0  0  0  0  0  0  0  0
  153.5091  139.2832  154.7235 H   0  0  0  0  0  0  0  0  0  0  0  0
  151.9567  140.9322  155.9648 H   0  0  0  0  0  0  0  0  0  0  0  0
  150.3121  140.4465  156.3491 H   0  0  0  0  0  0  0  0  0  0  0  0
  150.8411  140.4665  154.6903 H   0  0  0  0  0  0  0  0  0  0  0  0
  150.1645  137.8774  154.4693 H   0  0  0  0  0  0  0  0  0  0  0  0
  149.6209  137.9378  156.1196 H   0  0  0  0  0  0  0  0  0  0  0  0
  150.8218  136.7461  155.6412 H   0  0  0  0  0  0  0  0  0  0  0  0
  152.0217  140.5315  157.7902 H   0  0  0  0  0  0  0  0  0  0  0  0
  152.5003  140.2554  161.3034 H   0  0  0  0  0  0  0  0  0  0  0  0
  154.0542  140.6723  160.6117 H   0  0  0  0  0  0  0  0  0  0  0  0
  151.5056  141.6642  159.5452 H   0  0  0  0  0  0  0  0  0  0  0  0
  151.8832  142.4273  161.8528 H   0  0  0  0  0  0  0  0  0  0  0  0
  153.3691  143.1154  161.2625 H   0  0  0  0  0  0  0  0  0  0  0  0
  152.3088  144.7689  162.1175 H   0  0  0  0  0  0  0  0  0  0  0  0
  152.6821  145.6843  159.3599 H   0  0  0  0  0  0  0  0  0  0  0  0
  152.6742  144.0800  158.5424 H   0  0  0  0  0  0  0  0  0  0  0  0
  150.2940  145.9559  159.0066 H   0  0  0  0  0  0  0  0  0  0  0  0
  150.4933  144.7302  157.6929 H   0  0  0  0  0  0  0  0  0  0  0  0
  150.1817  142.9011  159.2635 H   0  0  0  0  0  0  0  0  0  0  0  0
  149.3785  144.1234  160.3155 H   0  0  0  0  0  0  0  0  0  0  0  0
  1  2  1  0  0  0  0
  1 21  1  0  0  0  0
  1 22  1  0  0  0  0
  1 23  1  0  0  0  0
  2  3  1  0  0  0  0
  2  4  1  0  0  0  0
  2  5  1  0  0  0  0
  3 24  1  0  0  0  0
  3 25  1  0  0  0  0
  3 26  1  0  0  0  0
  4 27  1  0  0  0  0
  4 28  1  0  0  0  0
  4 29  1  0  0  0  0
  5 19  1  0  0  0  0
  5  6  1  0  0  0  0
  6  7  2  0  0  0  0
  6 30  1  0  0  0  0
  7  8  1  0  0  0  0
  7 16  1  0  0  0  0
  8  9  1  0  0  0  0
  8 31  1  0  0  0  0
  8 32  1  0  0  0  0
  9 10  1  0  0  0  0
  9 33  1  0  0  0  0
 10 11  1  0  0  0  0
 10 34  1  0  0  0  0
 10 35  1  0  0  0  0
 11 15  1  0  0  0  0
 11 12  1  0  0  0  0
 11 13  1  0  0  0  0
 12 36  1  0  0  0  0
 13 14  1  0  0  0  0
 13 37  1  0  0  0  0
 13 38  1  0  0  0  0
 14 15  1  0  0  0  0
 14 39  1  0  0  0  0
 14 40  1  0  0  0  0
 15 41  1  0  0  0  0
 15 42  1  0  0  0  0
 16 17  2  0  0  0  0
 16 18  1  0  0  0  0
 18 19  1  0  0  0  0
 19 20  2  0  0  0  0
M  CHG  1  18  -1
M  END
> <s_m_source_file>
AV-unprocessed.smi

> <i_m_source_file_index>
4

> <i_lp_mmshare_version>
43012

> <i_f3d_flags>
0

> <s_epik_input>
W0NIM11DKFtDSDNdKShbQ0gzXSluMVtjSF1jKGMoPU8pW25IXWMxPU8pW0NIMl1bTkhdW0NIMl1DMihbT0hdKVtDSDJdW0NIMl1bQ0gyXTI=

> <s_epik_cmdline>
J2VwaWtfcHl0aG9uJywgJy1waCcsICc3LjAnLCAnLXRuJywgJzgnLCAnLW1hJywgJzIwMCcsICctbWV0YWxfYmluZGluZycsICctaW1hZScsICc8aW5maWxlLm1hZT4nLCAnLW9tYWUnLCAnPG91dGZpbGUubWFlPic=

> <r_lp_tautomer_probability>
0.999537

> <r_epik_Ionization_Penalty>
6.25758

> <r_epik_Ionization_Penalty_Charging>
1.60838e-06

> <r_epik_Ionization_Penalty_Neutral>
6.25758

> <r_epik_State_Penalty>
6.1746

> <r_epik_Charging_Adjusted_Penalty>
6.1746

> <i_epik_Tot_Q>
-1

> <i_epik_Tot_abs_Q>
1

> <r_epik_Metal_State_Penalty>
2.58365

> <b_epik_Metal_Only>
1

> <s_lp_Force_Field>
OPLS_2005

> <r_lp_Energy>
44.4869

> <b_lp_Chiralities_Consistent>
1

> <s_lp_Variant>
AV-unprocessed.smi:4-4

> <Gold.Version>
5.8.1

> <Gold.Id.Protein>
6NUR|6NUR_protein|mol2

> <Gold.PLP.Fitness>
41.7253

> <Gold.PLP.PLP>
-39.0126

> <Gold.PLP.part.hbond>
-2.0000

> <Gold.PLP.part.metal>
0.0000

> <Gold.PLP.part.buried>
-5.6792

> <Gold.PLP.part.nonpolar>
-31.4320

> <Gold.PLP.part.repulsive>
0.0000

> <Gold.PLP.ligand.clash>
0.0000

> <Gold.PLP.ligand.torsion>
0.2348

> <Gold.PLP.Chemscore.Hbond>
1.0000

> <Gold.PLP.Chemscore.CHOScore>
0.0000

> <Gold.PLP.Chemscore.Metal>
0.0000

> <Gold.Chemscore.Hbonds>
donor molecule, donor type, donor heavy atom, donor atom, acceptor molecule, acceptor atom, score
      P1  H 10752 10765       L1    20  1.00

> <Gold.PLP.Chemscore.Internal.Correction>
0.1824

> <Gold.Rescore>
     Score         DG    S(hbond)    S(metal)    S(lipo)     H(rot)  DE(clash)    DE(int)     intcor
     12.01     -15.10       1.00        0.00     106.18       2.40       1.47       1.62       ----

> <Gold.Chemscore.Fitness>
12.0113

> <Gold.Chemscore.DG>
-15.0982

> <Gold.Chemscore.ZeroCoef>
-5.4800

> <Gold.Chemscore.Hbond>
0.9983

> <Gold.Chemscore.Metal>
0.0000

> <Gold.Chemscore.Lipo>
106.1821

> <Gold.Chemscore.Internal_Hbond>
0.0000

> <Gold.Chemscore.DEClash>
1.4697

> <Gold.Chemscore.DEInternal>
1.6172

> <Gold.Chemscore.Rot>
2.3983

> <Gold.Chemscore.Internal.Correction>
   9.000000E+99

> <Gold.Chemscore.Hbonds>
donor molecule, donor type, donor heavy atom, donor atom, acceptor molecule, acceptor atom, score
      P1  H 10752 10765       L1    20  0.97

> <Gold.Chemscore.Hbond.Weighted>
-3.3344

> <Gold.Chemscore.Metal.Weighted>
-0.0000

> <Gold.Chemscore.Lipo.Weighted>
-12.4233

> <Gold.Chemscore.Internal_Hbond.Weighted>
0.0000

> <Gold.Chemscore.DEClash.Weighted>
1.4697

> <Gold.Chemscore.DEInternal.Weighted>
1.6172

> <Gold.Chemscore.Rot.Weighted>
6.1395

> <Gold.Chemscore.Internal.Correction.Weighted>
   9.000000E+99

> <Gold.Protein.RotatedTorsions>
[ 6907 6896 6895 6894 ] final -171.90 input  -60.11 | X-H torsion
[ 7974 7965 7964 7962 ] final  102.13 input  175.53 | X-H torsion
[ 8008 7997 7996 7995 ] final   86.74 input   59.86 | X-H torsion
[ 10167 10162 10161 10158 ] final  -40.17 input  -65.29 | X-H torsion
[ 10718 10713 10712 10709 ] final -144.21 input   66.30 | X-H torsion
[ 10763 10752 10751 10750 ] final -127.10 input  -60.55 | X-H torsion
[ 11005 11000 10999 10996 ] final  129.52 input  -57.11 | X-H torsion

> <Gold.Protein.ActiveResidues>
 VAL166  LYS551  ARG553  GLY616  TRP617  ASP618  TYR619  PRO620  LYS621  CYS622 
 ASP623  PHE694  ASN695  SER759  ASP760  ASP761  ALA762  ILE779  LEU786  VAL792 
 PHE793  MET794  SER795  GLU796  ALA797  LYS798  CYS799  TRP800  GLU811  SER814 

> <Gold.Protein.RotatedAtoms>
  151.5313  133.3448  159.2918 H   0  0  0  0  0  0  0  0  0  0  0  0  # atno 6907 bound_to 6896
  150.8592  134.7942  159.7080 H   0  0  0  0  0  0  0  0  0  0  0  0  # atno 6908 bound_to 6896
  152.4616  134.5179  159.9825 H   0  0  0  0  0  0  0  0  0  0  0  0  # atno 6909 bound_to 6896
  145.3631  139.2413  143.3496 H   0  0  0  0  0  0  0  0  0  0  0  0  # atno 7974 bound_to 7965
  155.9665  140.3389  155.6537 H   0  0  0  0  0  0  0  0  0  0  0  0  # atno 8008 bound_to 7997
  155.6730  140.0729  157.2531 H   0  0  0  0  0  0  0  0  0  0  0  0  # atno 8009 bound_to 7997
  154.4156  140.1688  156.1887 H   0  0  0  0  0  0  0  0  0  0  0  0  # atno 8010 bound_to 7997
  140.7042  143.3170  151.2886 H   0  0  0  0  0  0  0  0  0  0  0  0  # atno 10167 bound_to 10162
  156.3674  130.7770  151.1946 H   0  0  0  0  0  0  0  0  0  0  0  0  # atno 10718 bound_to 10713
  154.8750  135.3973  154.3539 H   0  0  0  0  0  0  0  0  0  0  0  0  # atno 10763 bound_to 10752
  153.4321  135.7025  153.6229 H   0  0  0  0  0  0  0  0  0  0  0  0  # atno 10764 bound_to 10752
  153.4846  135.3761  155.2430 H   0  0  0  0  0  0  0  0  0  0  0  0  # atno 10765 bound_to 10752
  139.9620  134.9600  156.9159 H   0  0  0  0  0  0  0  0  0  0  0  0  # atno 11005 bound_to 11000
  146.2918  140.4269  142.8736 LP  0  0  0  0  0  0  0  0  0  0  0  0  # atno 17320 bound_to 7965
  144.8631  140.7168  143.6094 LP  0  0  0  0  0  0  0  0  0  0  0  0  # atno 17321 bound_to 7965
  139.6611  144.0187  152.2693 LP  0  0  0  0  0  0  0  0  0  0  0  0  # atno 17342 bound_to 10162
  139.9755  144.6464  150.7949 LP  0  0  0  0  0  0  0  0  0  0  0  0  # atno 17343 bound_to 10162
  157.7480  131.0382  150.4493 LP  0  0  0  0  0  0  0  0  0  0  0  0  # atno 17370 bound_to 10713
  156.4714  130.4053  149.6516 LP  0  0  0  0  0  0  0  0  0  0  0  0  # atno 17371 bound_to 10713
  140.5480  134.0655  155.7360 LP  0  0  0  0  0  0  0  0  0  0  0  0  # atno 17394 bound_to 11000
  141.1297  133.9322  157.2560 LP  0  0  0  0  0  0  0  0  0  0  0  0  # atno 17395 bound_to 11000

$$$$
