AV-unprocessed.smi:698|AV-procd|sdf|3398|dock6
  -GOLD-   22720 0383D 1   1.00000     0.00000
 Structure written by MMmdl.
 33 34  0  0  0  0  0  0  0  0  1 V2000
  154.4499  140.2370  161.3964 C   0  0  0  0  0  0  0  0  0  0  0  0
  153.4899  140.8662  160.3841 C   0  0  0  0  0  0  0  0  0  0  0  0
  153.2218  142.2084  160.7795 O   0  0  0  0  0  0  0  0  0  0  0  0
  152.4662  143.0021  159.9408 C   0  0  0  0  0  0  0  0  0  0  0  0
  152.3022  144.3624  160.2633 C   0  0  0  0  0  0  0  0  0  0  0  0
  151.5318  145.1672  159.4053 C   0  0  0  0  0  0  0  0  0  0  0  0
  150.9543  144.5835  158.2616 C   0  0  0  0  0  0  0  0  0  0  0  0
  151.1612  143.2101  158.0047 C   0  0  0  0  0  0  0  0  0  0  0  0
  150.5368  142.7146  156.8295 N   0  0  0  0  0  0  0  0  0  0  0  0
  150.6185  141.4801  156.2986 C   0  0  0  0  0  0  0  0  0  0  0  0
  151.2634  140.5503  156.7859 O   0  0  0  0  0  0  0  0  0  0  0  0
  149.8173  141.2640  155.0091 C   0  0  1  0  0  0  0  0  0  0  0  0
  149.8993  139.8358  154.4358 C   0  0  0  0  0  0  0  0  0  0  0  0
  148.5013  139.2847  154.6406 C   0  0  0  0  0  0  0  0  0  0  0  0
  147.6547  140.5481  154.5845 C   0  0  0  0  0  0  0  0  0  0  0  0
  148.4392  141.4879  155.3009 O   0  0  0  0  0  0  0  0  0  0  0  0
  151.9086  142.4451  158.8376 N   0  0  0  0  0  0  0  0  0  0  0  0
  154.6885  139.2098  161.1195 H   0  0  0  0  0  0  0  0  0  0  0  0
  154.0112  140.2214  162.3943 H   0  0  0  0  0  0  0  0  0  0  0  0
  155.3848  140.7953  161.4487 H   0  0  0  0  0  0  0  0  0  0  0  0
  153.9411  140.8464  159.3906 H   0  0  0  0  0  0  0  0  0  0  0  0
  152.5661  140.2866  160.3467 H   0  0  0  0  0  0  0  0  0  0  0  0
  152.7581  144.7791  161.1493 H   0  0  0  0  0  0  0  0  0  0  0  0
  151.3852  146.2153  159.6204 H   0  0  0  0  0  0  0  0  0  0  0  0
  150.3584  145.1876  157.5928 H   0  0  0  0  0  0  0  0  0  0  0  0
  149.9549  143.3741  156.3345 H   0  0  0  0  0  0  0  0  0  0  0  0
  150.1372  141.9779  154.2479 H   0  0  0  0  0  0  0  0  0  0  0  0
  150.1281  139.8832  153.3705 H   0  0  0  0  0  0  0  0  0  0  0  0
  150.6589  139.2059  154.9004 H   0  0  0  0  0  0  0  0  0  0  0  0
  148.2166  138.5453  153.8917 H   0  0  0  0  0  0  0  0  0  0  0  0
  148.4203  138.8245  155.6263 H   0  0  0  0  0  0  0  0  0  0  0  0
  147.5251  140.8868  153.5555 H   0  0  0  0  0  0  0  0  0  0  0  0
  146.6703  140.4189  155.0346 H   0  0  0  0  0  0  0  0  0  0  0  0
  1  2  1  0  0  0  0
  1 18  1  0  0  0  0
  1 19  1  0  0  0  0
  1 20  1  0  0  0  0
  2  3  1  0  0  0  0
  2 21  1  0  0  0  0
  2 22  1  0  0  0  0
  3  4  1  0  0  0  0
  4 17  1  0  0  0  0
  4  5  2  0  0  0  0
  5  6  1  0  0  0  0
  5 23  1  0  0  0  0
  6  7  2  0  0  0  0
  6 24  1  0  0  0  0
  7  8  1  0  0  0  0
  7 25  1  0  0  0  0
  8  9  1  0  0  0  0
  8 17  2  0  0  0  0
  9 10  1  0  0  0  0
  9 26  1  0  0  0  0
 10 11  2  0  0  0  0
 10 12  1  0  0  0  0
 12 16  1  0  0  0  0
 12 13  1  0  0  0  0
 12 27  1  0  0  0  0
 13 14  1  0  0  0  0
 13 28  1  0  0  0  0
 13 29  1  0  0  0  0
 14 15  1  0  0  0  0
 14 30  1  0  0  0  0
 14 31  1  0  0  0  0
 15 16  1  0  0  0  0
 15 32  1  0  0  0  0
 15 33  1  0  0  0  0
M  END
> <s_m_source_file>
AV-unprocessed.smi

> <i_m_source_file_index>
698

> <i_lp_mmshare_version>
43012

> <i_f3d_flags>
0

> <s_epik_input>
W0NIM11bQ0gyXU9jMVtjSF1bY0hdW2NIXWMobjEpW05IXUMoPU8pW0NAQEhdMltDSDJdW0NIMl1bQ0gyXU8y

> <s_epik_cmdline>
J2VwaWtfcHl0aG9uJywgJy1waCcsICc3LjAnLCAnLXRuJywgJzgnLCAnLW1hJywgJzIwMCcsICctbWV0YWxfYmluZGluZycsICctaW1hZScsICc8aW5maWxlLm1hZT4nLCAnLW9tYWUnLCAnPG91dGZpbGUubWFlPic=

> <r_lp_tautomer_probability>
1

> <r_epik_Ionization_Penalty>
3.42089e-05

> <r_epik_Ionization_Penalty_Charging>
0

> <r_epik_Ionization_Penalty_Neutral>
3.42089e-05

> <r_epik_State_Penalty>
-0

> <r_epik_Charging_Adjusted_Penalty>
0

> <i_epik_Tot_Q>
0

> <i_epik_Tot_abs_Q>
0

> <r_epik_Metal_State_Penalty>
-0

> <b_epik_Metal_Only>
0

> <s_lp_Force_Field>
OPLS_2005

> <r_lp_Energy>
20.5333

> <b_lp_Chiralities_Consistent>
1

> <s_lp_Variant>
AV-unprocessed.smi:698-2

> <Gold.Version>
5.8.1

> <Gold.Id.Protein>
6NUR|6NUR_protein|mol2

> <Gold.PLP.Fitness>
39.4472

> <Gold.PLP.PLP>
-36.5339

> <Gold.PLP.part.hbond>
-1.0000

> <Gold.PLP.part.metal>
0.0000

> <Gold.PLP.part.buried>
-5.8249

> <Gold.PLP.part.nonpolar>
-30.0688

> <Gold.PLP.part.repulsive>
0.1765

> <Gold.PLP.ligand.clash>
0.0000

> <Gold.PLP.ligand.torsion>
0.0498

> <Gold.PLP.Chemscore.Hbond>
1.0000

> <Gold.PLP.Chemscore.CHOScore>
0.0000

> <Gold.PLP.Chemscore.Metal>
0.0000

> <Gold.Chemscore.Hbonds>
donor molecule, donor type, donor heavy atom, donor atom, acceptor molecule, acceptor atom, score
      L1  H     9    26       P1  8028  1.00

> <Gold.PLP.Chemscore.Internal.Correction>
0.0127

> <Gold.Rescore>
     Score         DG    S(hbond)    S(metal)    S(lipo)     H(rot)  DE(clash)    DE(int)     intcor
     12.95     -14.46       1.00        0.00      79.35       1.42       0.11       1.40       ----

> <Gold.Chemscore.Fitness>
12.9545

> <Gold.Chemscore.DG>
-14.4634

> <Gold.Chemscore.ZeroCoef>
-5.4800

> <Gold.Chemscore.Hbond>
0.9974

> <Gold.Chemscore.Metal>
0.0000

> <Gold.Chemscore.Lipo>
79.3463

> <Gold.Chemscore.Internal_Hbond>
0.0000

> <Gold.Chemscore.DEClash>
0.1133

> <Gold.Chemscore.DEInternal>
1.3956

> <Gold.Chemscore.Rot>
1.4185

> <Gold.Chemscore.Internal.Correction>
   9.000000E+99

> <Gold.Chemscore.Hbonds>
donor molecule, donor type, donor heavy atom, donor atom, acceptor molecule, acceptor atom, score
      L1  H     9    26       P1  8028  1.00

> <Gold.Chemscore.Hbond.Weighted>
-3.3312

> <Gold.Chemscore.Metal.Weighted>
-0.0000

> <Gold.Chemscore.Lipo.Weighted>
-9.2835

> <Gold.Chemscore.Internal_Hbond.Weighted>
0.0000

> <Gold.Chemscore.DEClash.Weighted>
0.1133

> <Gold.Chemscore.DEInternal.Weighted>
1.3956

> <Gold.Chemscore.Rot.Weighted>
3.6313

> <Gold.Chemscore.Internal.Correction.Weighted>
   9.000000E+99

> <Gold.Protein.RotatedTorsions>
[ 6907 6896 6895 6894 ] final -165.48 input  -60.11 | X-H torsion
[ 7974 7965 7964 7962 ] final  116.82 input  175.53 | X-H torsion
[ 8008 7997 7996 7995 ] final  -93.82 input   59.86 | X-H torsion
[ 10167 10162 10161 10158 ] final   72.97 input  -65.29 | X-H torsion
[ 10718 10713 10712 10709 ] final  136.03 input   66.30 | X-H torsion
[ 10763 10752 10751 10750 ] final  -47.56 input  -60.55 | X-H torsion
[ 11005 11000 10999 10996 ] final   46.64 input  -57.11 | X-H torsion

> <Gold.Protein.ActiveResidues>
 VAL166  LYS551  ARG553  GLY616  TRP617  ASP618  TYR619  PRO620  LYS621  CYS622 
 ASP623  PHE694  ASN695  SER759  ASP760  ASP761  ALA762  ILE779  LEU786  VAL792 
 PHE793  MET794  SER795  GLU796  ALA797  LYS798  CYS799  TRP800  GLU811  SER814 

> <Gold.Protein.RotatedAtoms>
  151.4283  133.3678  159.2765 H   0  0  0  0  0  0  0  0  0  0  0  0  # atno 6907 bound_to 6896
  150.9244  134.8662  159.7520 H   0  0  0  0  0  0  0  0  0  0  0  0  # atno 6908 bound_to 6896
  152.4997  134.4223  159.9536 H   0  0  0  0  0  0  0  0  0  0  0  0  # atno 6909 bound_to 6896
  145.1750  139.3081  143.4448 H   0  0  0  0  0  0  0  0  0  0  0  0  # atno 7974 bound_to 7965
  154.7406  140.0495  157.0807 H   0  0  0  0  0  0  0  0  0  0  0  0  # atno 8008 bound_to 7997
  155.0184  140.3144  155.4783 H   0  0  0  0  0  0  0  0  0  0  0  0  # atno 8009 bound_to 7997
  156.2863  140.2171  156.5301 H   0  0  0  0  0  0  0  0  0  0  0  0  # atno 8010 bound_to 7997
  140.0296  144.5476  150.7517 H   0  0  0  0  0  0  0  0  0  0  0  0  # atno 10167 bound_to 10162
  157.4509  131.1066  151.0035 H   0  0  0  0  0  0  0  0  0  0  0  0  # atno 10718 bound_to 10713
  154.0634  135.6615  153.4815 H   0  0  0  0  0  0  0  0  0  0  0  0  # atno 10763 bound_to 10752
  153.0418  135.5140  154.7637 H   0  0  0  0  0  0  0  0  0  0  0  0  # atno 10764 bound_to 10752
  154.6680  135.3025  154.9746 H   0  0  0  0  0  0  0  0  0  0  0  0  # atno 10765 bound_to 10752
  140.1350  134.4656  155.8492 H   0  0  0  0  0  0  0  0  0  0  0  0  # atno 11005 bound_to 11000
  146.3462  140.1909  142.8589 LP  0  0  0  0  0  0  0  0  0  0  0  0  # atno 17320 bound_to 7965
  145.0194  140.8781  143.5176 LP  0  0  0  0  0  0  0  0  0  0  0  0  # atno 17321 bound_to 7965
  140.7308  143.2687  151.3959 LP  0  0  0  0  0  0  0  0  0  0  0  0  # atno 17342 bound_to 10162
  139.6085  144.1147  152.2274 LP  0  0  0  0  0  0  0  0  0  0  0  0  # atno 17343 bound_to 10162
  157.0865  130.5924  149.5431 LP  0  0  0  0  0  0  0  0  0  0  0  0  # atno 17370 bound_to 10713
  155.9986  130.5061  150.7579 LP  0  0  0  0  0  0  0  0  0  0  0  0  # atno 17371 bound_to 10713
  141.2177  133.6811  156.7141 LP  0  0  0  0  0  0  0  0  0  0  0  0  # atno 17394 bound_to 11000
  140.2793  134.8329  157.3919 LP  0  0  0  0  0  0  0  0  0  0  0  0  # atno 17395 bound_to 11000

$$$$
