AV-unprocessed.smi:2030|AV-procd|sdf|8225|dock9
  -GOLD-   2272010493D 1   1.00000     0.00000
 Structure written by MMmdl.
 36 37  0  0  0  0  0  0  0  0  2 V2000
  147.0477  133.4489  151.7069 C   0  0  0  0  0  0  0  0  0  0  0  0
  148.2178  133.0008  152.4595 N   0  0  0  0  0  0  0  0  0  0  0  0
  148.9806  134.0145  153.0029 N   0  0  0  0  0  0  0  0  0  0  0  0
  150.1580  133.7987  153.5006 C   0  0  0  0  0  0  0  0  0  0  0  0
  150.9475  134.9283  154.0620 C   0  0  0  0  0  0  0  0  0  0  0  0
  151.9704  134.7270  154.7176 O   0  0  0  0  0  0  0  0  0  0  0  0
  150.4749  136.1627  153.8092 N   0  0  0  0  0  0  0  0  0  0  0  0
  151.0935  137.4041  154.2582 C   0  0  0  0  0  0  0  0  0  0  0  0
  150.9038  138.5346  153.2333 C   0  0  0  0  0  0  0  0  0  0  0  0
  149.6722  139.3701  153.5223 C   0  0  0  0  0  0  0  0  0  0  0  0
  149.7511  140.6401  154.1338 C   0  0  0  0  0  0  0  0  0  0  0  0
  148.5637  141.3612  154.3789 C   0  0  0  0  0  0  0  0  0  0  0  0
  147.3249  140.7981  154.0078 C   0  0  0  0  0  0  0  0  0  0  0  0
  147.3044  139.5258  153.4007 C   0  0  0  0  0  0  0  0  0  0  0  0
  148.4633  138.8659  153.1836 N   0  3  0  0  0  0  0  0  0  0  0  0
  150.7558  132.4055  153.4878 C   0  0  0  0  0  0  0  0  0  0  0  0
  149.6714  131.3098  153.4909 C   0  0  0  0  0  0  0  0  0  0  0  0
  148.4731  131.6773  152.6110 C   0  0  0  0  0  0  0  0  0  0  0  0
  147.7889  130.7863  152.1080 O   0  0  0  0  0  0  0  0  0  0  0  0
  146.1305  133.0739  152.1635 H   0  0  0  0  0  0  0  0  0  0  0  0
  147.0901  133.0869  150.6787 H   0  0  0  0  0  0  0  0  0  0  0  0
  146.9764  134.5372  151.6695 H   0  0  0  0  0  0  0  0  0  0  0  0
  149.6302  136.2421  153.2606 H   0  0  0  0  0  0  0  0  0  0  0  0
  150.6847  137.6910  155.2286 H   0  0  0  0  0  0  0  0  0  0  0  0
  152.1564  137.2165  154.4123 H   0  0  0  0  0  0  0  0  0  0  0  0
  151.7819  139.1818  153.2250 H   0  0  0  0  0  0  0  0  0  0  0  0
  150.8159  138.1244  152.2265 H   0  0  0  0  0  0  0  0  0  0  0  0
  150.7076  141.0575  154.4137 H   0  0  0  0  0  0  0  0  0  0  0  0
  148.6030  142.3342  154.8464 H   0  0  0  0  0  0  0  0  0  0  0  0
  146.4042  141.3339  154.1868 H   0  0  0  0  0  0  0  0  0  0  0  0
  146.4035  139.0198  153.0855 H   0  0  0  0  0  0  0  0  0  0  0  0
  151.3924  132.2957  152.6091 H   0  0  0  0  0  0  0  0  0  0  0  0
  151.3999  132.2540  154.3547 H   0  0  0  0  0  0  0  0  0  0  0  0
  150.0939  130.3568  153.1710 H   0  0  0  0  0  0  0  0  0  0  0  0
  149.2998  131.1644  154.5059 H   0  0  0  0  0  0  0  0  0  0  0  0
  148.4249  137.9455  152.7443 H   0  0  0  0  0  0  0  0  0  0  0  0
  1  2  1  0  0  0  0
  1 20  1  0  0  0  0
  1 21  1  0  0  0  0
  1 22  1  0  0  0  0
  2 18  1  0  0  0  0
  2  3  1  0  0  0  0
  3  4  2  0  0  0  0
  4  5  1  0  0  0  0
  4 16  1  0  0  0  0
  5  6  2  0  0  0  0
  5  7  1  0  0  0  0
  7  8  1  0  0  0  0
  7 23  1  0  0  0  0
  8  9  1  0  0  0  0
  8 24  1  0  0  0  0
  8 25  1  0  0  0  0
  9 10  1  0  0  0  0
  9 26  1  0  0  0  0
  9 27  1  0  0  0  0
 10 15  1  0  0  0  0
 10 11  2  0  0  0  0
 11 12  1  0  0  0  0
 11 28  1  0  0  0  0
 12 13  2  0  0  0  0
 12 29  1  0  0  0  0
 13 14  1  0  0  0  0
 13 30  1  0  0  0  0
 14 15  2  0  0  0  0
 14 31  1  0  0  0  0
 15 36  1  0  0  0  0
 16 17  1  0  0  0  0
 16 32  1  0  0  0  0
 16 33  1  0  0  0  0
 17 18  1  0  0  0  0
 17 34  1  0  0  0  0
 17 35  1  0  0  0  0
 18 19  2  0  0  0  0
M  CHG  1  15   1
M  END
> <s_m_source_file>
AV-unprocessed.smi

> <i_m_source_file_index>
2030

> <i_lp_mmshare_version>
43012

> <i_f3d_flags>
0

> <s_epik_input>
Tz1DMVtDSDJdW0NIMl1DKD1OTjFbQ0gzXSlDKD1PKVtOSF1bQ0gyXVtDSDJdYzJbY0hdW2NIXVtjSF1bY0hdbjI=

> <s_epik_cmdline>
J2VwaWtfcHl0aG9uJywgJy1waCcsICc3LjAnLCAnLXRuJywgJzgnLCAnLW1hJywgJzIwMCcsICctbWV0YWxfYmluZGluZycsICctaW1hZScsICc8aW5maWxlLm1hZT4nLCAnLW9tYWUnLCAnPG91dGZpbGUubWFlPic=

> <r_epik_Ionization_Penalty>
2.09642

> <r_epik_Ionization_Penalty_Charging>
2.0963

> <r_epik_Ionization_Penalty_Neutral>
0.00011851

> <r_epik_State_Penalty>
2.23213

> <r_epik_Charging_Adjusted_Penalty>
4.32843

> <i_epik_Tot_Q>
1

> <i_epik_Tot_abs_Q>
1

> <r_epik_Metal_State_Penalty>
2.41268

> <b_epik_Metal_Only>
0

> <s_epik_Chemistry_Notes>
This compound has an imine and may undergo hydrolysis.

> <s_lp_Force_Field>
OPLS_2005

> <r_lp_Energy>
21.0672

> <b_lp_Chiralities_Consistent>
1

> <s_lp_Variant>
AV-unprocessed.smi:2030-2

> <Gold.Version>
5.8.1

> <Gold.Id.Protein>
6NUR|6NUR_protein|mol2

> <Gold.PLP.Fitness>
42.8709

> <Gold.PLP.PLP>
-35.5415

> <Gold.PLP.part.hbond>
-3.0000

> <Gold.PLP.part.metal>
0.0000

> <Gold.PLP.part.buried>
-1.2652

> <Gold.PLP.part.nonpolar>
-32.2283

> <Gold.PLP.part.repulsive>
2.6216

> <Gold.PLP.ligand.clash>
0.0000

> <Gold.PLP.ligand.torsion>
0.6972

> <Gold.PLP.Chemscore.Hbond>
2.9048

> <Gold.PLP.Chemscore.CHOScore>
0.0000

> <Gold.PLP.Chemscore.Metal>
0.0000

> <Gold.Chemscore.Hbonds>
donor molecule, donor type, donor heavy atom, donor atom, acceptor molecule, acceptor atom, score
      L1  H     7    23       P1  7948  0.89
      L1  H    15    36       P1  7948  2.00
      P1  H 10752 10764       L1     6  0.12

> <Gold.PLP.Chemscore.Internal.Correction>
0.0095

> <Gold.Rescore>
     Score         DG    S(hbond)    S(metal)    S(lipo)     H(rot)  DE(clash)    DE(int)     intcor
     13.67     -15.70       1.70        0.00      71.99       1.52       1.31       0.72       ----

> <Gold.Chemscore.Fitness>
13.6715

> <Gold.Chemscore.DG>
-15.7014

> <Gold.Chemscore.ZeroCoef>
-5.4800

> <Gold.Chemscore.Hbond>
1.7002

> <Gold.Chemscore.Metal>
0.0000

> <Gold.Chemscore.Lipo>
71.9893

> <Gold.Chemscore.Internal_Hbond>
0.0000

> <Gold.Chemscore.DEClash>
1.3128

> <Gold.Chemscore.DEInternal>
0.7171

> <Gold.Chemscore.Rot>
1.5157

> <Gold.Chemscore.Internal.Correction>
   9.000000E+99

> <Gold.Chemscore.Hbonds>
donor molecule, donor type, donor heavy atom, donor atom, acceptor molecule, acceptor atom, score
      L1  H     7    23       P1  7948  0.21
      L1  H    15    36       P1  7948  0.98
      P1  H 10752 10764       L1     6  0.10

> <Gold.Chemscore.Hbond.Weighted>
-5.6787

> <Gold.Chemscore.Metal.Weighted>
-0.0000

> <Gold.Chemscore.Lipo.Weighted>
-8.4227

> <Gold.Chemscore.Internal_Hbond.Weighted>
0.0000

> <Gold.Chemscore.DEClash.Weighted>
1.3128

> <Gold.Chemscore.DEInternal.Weighted>
0.7171

> <Gold.Chemscore.Rot.Weighted>
3.8801

> <Gold.Chemscore.Internal.Correction.Weighted>
   9.000000E+99

> <Gold.Protein.RotatedTorsions>
[ 6907 6896 6895 6894 ] final  153.58 input  -60.11 | X-H torsion
[ 7974 7965 7964 7962 ] final -137.71 input  175.53 | X-H torsion
[ 8008 7997 7996 7995 ] final  -66.74 input   59.86 | X-H torsion
[ 10167 10162 10161 10158 ] final   99.30 input  -65.29 | X-H torsion
[ 10718 10713 10712 10709 ] final   37.25 input   66.30 | X-H torsion
[ 10763 10752 10751 10750 ] final  -69.86 input  -60.55 | X-H torsion
[ 11005 11000 10999 10996 ] final  143.93 input  -57.11 | X-H torsion

> <Gold.Protein.ActiveResidues>
 VAL166  LYS551  ARG553  GLY616  TRP617  ASP618  TYR619  PRO620  LYS621  CYS622 
 ASP623  PHE694  ASN695  SER759  ASP760  ASP761  ALA762  ILE779  LEU786  VAL792 
 PHE793  MET794  SER795  GLU796  ALA797  LYS798  CYS799  TRP800  GLU811  SER814 

> <Gold.Protein.RotatedAtoms>
  152.0707  133.4105  159.4457 H   0  0  0  0  0  0  0  0  0  0  0  0  # atno 6907 bound_to 6896
  150.6863  134.3095  159.4749 H   0  0  0  0  0  0  0  0  0  0  0  0  # atno 6908 bound_to 6896
  152.0926  134.9396  160.0622 H   0  0  0  0  0  0  0  0  0  0  0  0  # atno 6909 bound_to 6896
  144.8819  140.6519  143.5201 H   0  0  0  0  0  0  0  0  0  0  0  0  # atno 7974 bound_to 7965
  154.4754  140.0906  156.7249 H   0  0  0  0  0  0  0  0  0  0  0  0  # atno 8008 bound_to 7997
  155.4611  140.3461  155.4294 H   0  0  0  0  0  0  0  0  0  0  0  0  # atno 8009 bound_to 7997
  156.1108  140.1447  156.9330 H   0  0  0  0  0  0  0  0  0  0  0  0  # atno 8010 bound_to 7997
  139.7630  144.6948  151.0265 H   0  0  0  0  0  0  0  0  0  0  0  0  # atno 10167 bound_to 10162
  157.3447  130.7566  149.6936 H   0  0  0  0  0  0  0  0  0  0  0  0  # atno 10718 bound_to 10713
  154.4095  135.6012  153.5944 H   0  0  0  0  0  0  0  0  0  0  0  0  # atno 10763 bound_to 10752
  152.9790  135.5926  154.4087 H   0  0  0  0  0  0  0  0  0  0  0  0  # atno 10764 bound_to 10752
  154.3897  135.2842  155.2140 H   0  0  0  0  0  0  0  0  0  0  0  0  # atno 10765 bound_to 10752
  140.0592  134.9214  157.1154 H   0  0  0  0  0  0  0  0  0  0  0  0  # atno 11005 bound_to 11000
  145.3939  139.1611  143.4214 LP  0  0  0  0  0  0  0  0  0  0  0  0  # atno 17320 bound_to 7965
  146.3000  140.4031  142.8708 LP  0  0  0  0  0  0  0  0  0  0  0  0  # atno 17321 bound_to 7965
  140.7808  143.4675  151.0191 LP  0  0  0  0  0  0  0  0  0  0  0  0  # atno 17342 bound_to 10162
  139.8361  143.7626  152.3180 LP  0  0  0  0  0  0  0  0  0  0  0  0  # atno 17343 bound_to 10162
  155.9712  130.4158  150.4198 LP  0  0  0  0  0  0  0  0  0  0  0  0  # atno 17370 bound_to 10713
  157.2251  131.0491  151.2524 LP  0  0  0  0  0  0  0  0  0  0  0  0  # atno 17371 bound_to 10713
  140.3796  134.2301  155.7172 LP  0  0  0  0  0  0  0  0  0  0  0  0  # atno 17394 bound_to 11000
  141.1965  133.8080  157.0666 LP  0  0  0  0  0  0  0  0  0  0  0  0  # atno 17395 bound_to 11000

$$$$
