AV-unprocessed.smi:109|AV-procd|sdf|1043|dock6
  -GOLD-   2262018 73D 1   1.00000     0.00000
 Structure written by MMmdl.
 58 61  0  0  0  0  0  0  0  0  1 V2000
  149.2502  141.0060  153.5953 O   0  0  0  0  0  0  0  0  0  0  0  0
  149.7904  140.4721  154.7848 C   0  0  0  0  0  0  0  0  0  0  0  0
  149.7981  141.5481  155.8840 C   0  0  0  0  0  0  0  0  0  0  0  0
  150.9757  141.4291  156.8832 C   0  0  2  0  0  0  0  0  0  0  0  0
  150.8709  140.1626  157.6111 N   0  0  0  0  0  0  0  0  0  0  0  0
  151.5920  139.0737  157.2622 C   0  0  0  0  0  0  0  0  0  0  0  0
  151.5304  138.5498  156.0104 N   0  0  0  0  0  0  0  0  0  0  0  0
  152.2459  137.4638  155.7032 C   0  0  0  0  0  0  0  0  0  0  0  0
  153.0736  136.7623  156.4812 N   0  0  0  0  0  0  0  0  0  0  0  0
  153.1443  137.2891  157.7382 C   0  0  0  0  0  0  0  0  0  0  0  0
  152.4365  138.4315  158.2035 C   0  0  0  0  0  0  0  0  0  0  0  0
  152.7492  138.6673  159.5350 N   0  0  0  0  0  0  0  0  0  0  0  0
  153.5913  137.7153  159.8342 C   0  0  0  0  0  0  0  0  0  0  0  0
  153.8957  136.8449  158.8055 N   0  0  0  0  0  0  0  0  0  0  0  0
  154.7831  135.6318  158.7938 C   0  0  2  0  0  0  0  0  0  0  0  0
  154.3741  134.7909  159.8239 O   0  0  0  0  0  0  0  0  0  0  0  0
  155.0466  135.1567  161.0198 C   0  0  1  0  0  0  0  0  0  0  0  0
  155.0195  133.9768  162.0029 C   0  0  0  0  0  0  0  0  0  0  0  0
  155.6878  134.3187  163.1981 O   0  0  0  0  0  0  0  0  0  0  0  0
  156.4500  135.5647  160.5381 C   0  0  2  0  0  0  0  0  0  0  0  0
  156.9332  136.6473  161.3086 O   0  0  0  0  0  0  0  0  0  0  0  0
  156.2513  135.9901  159.0782 C   0  0  1  0  0  0  0  0  0  0  0  0
  157.1212  135.2734  158.2256 O   0  0  0  0  0  0  0  0  0  0  0  0
  151.0432  142.6063  157.8993 C   0  0  0  0  0  0  0  0  0  0  0  0
  151.5066  143.9374  157.2552 C   0  0  0  0  0  0  0  0  0  0  0  0
  151.6002  145.0846  158.2752 C   0  0  0  0  0  0  0  0  0  0  0  0
  152.5190  144.7224  159.4481 C   0  0  0  0  0  0  0  0  0  0  0  0
  152.0566  143.4205  160.1123 C   0  0  0  0  0  0  0  0  0  0  0  0
  151.9782  142.2747  159.0918 C   0  0  0  0  0  0  0  0  0  0  0  0
  154.6220  135.1799  157.8144 H   0  0  0  0  0  0  0  0  0  0  0  0
  154.5159  136.0076  161.4502 H   0  0  0  0  0  0  0  0  0  0  0  0
  157.1438  134.7254  160.6103 H   0  0  0  0  0  0  0  0  0  0  0  0
  156.4246  137.0540  158.9106 H   0  0  0  0  0  0  0  0  0  0  0  0
  149.0187  140.2902  153.0236 H   0  0  0  0  0  0  0  0  0  0  0  0
  149.1925  139.6094  155.0787 H   0  0  0  0  0  0  0  0  0  0  0  0
  150.8025  140.1187  154.5863 H   0  0  0  0  0  0  0  0  0  0  0  0
  149.8357  142.5111  155.3780 H   0  0  0  0  0  0  0  0  0  0  0  0
  148.8529  141.5247  156.4280 H   0  0  0  0  0  0  0  0  0  0  0  0
  151.9028  141.4629  156.3111 H   0  0  0  0  0  0  0  0  0  0  0  0
  150.3428  140.2037  158.4710 H   0  0  0  0  0  0  0  0  0  0  0  0
  152.1404  137.1066  154.6893 H   0  0  0  0  0  0  0  0  0  0  0  0
  154.0093  137.6299  160.8258 H   0  0  0  0  0  0  0  0  0  0  0  0
  153.9889  133.7221  162.2513 H   0  0  0  0  0  0  0  0  0  0  0  0
  155.4751  133.0881  161.5653 H   0  0  0  0  0  0  0  0  0  0  0  0
  155.1438  134.9174  163.6865 H   0  0  0  0  0  0  0  0  0  0  0  0
  157.6625  136.3471  161.8284 H   0  0  0  0  0  0  0  0  0  0  0  0
  156.8829  134.3593  158.2539 H   0  0  0  0  0  0  0  0  0  0  0  0
  150.0393  142.7631  158.2977 H   0  0  0  0  0  0  0  0  0  0  0  0
  152.4765  143.7955  156.7764 H   0  0  0  0  0  0  0  0  0  0  0  0
  150.8183  144.2540  156.4736 H   0  0  0  0  0  0  0  0  0  0  0  0
  151.9654  145.9873  157.7846 H   0  0  0  0  0  0  0  0  0  0  0  0
  150.6037  145.3195  158.6515 H   0  0  0  0  0  0  0  0  0  0  0  0
  153.5441  144.6105  159.0925 H   0  0  0  0  0  0  0  0  0  0  0  0
  152.5293  145.5320  160.1785 H   0  0  0  0  0  0  0  0  0  0  0  0
  152.7395  143.1528  160.9191 H   0  0  0  0  0  0  0  0  0  0  0  0
  151.0784  143.5692  160.5714 H   0  0  0  0  0  0  0  0  0  0  0  0
  151.6398  141.3801  159.6145 H   0  0  0  0  0  0  0  0  0  0  0  0
  152.9793  142.0504  158.7206 H   0  0  0  0  0  0  0  0  0  0  0  0
  1  2  1  0  0  0  0
  1 34  1  0  0  0  0
  2  3  1  0  0  0  0
  2 35  1  0  0  0  0
  2 36  1  0  0  0  0
  3  4  1  0  0  0  0
  3 37  1  0  0  0  0
  3 38  1  0  0  0  0
  4  5  1  0  0  0  0
  4 24  1  0  0  0  0
  4 39  1  0  0  0  0
  5  6  1  0  0  0  0
  5 40  1  0  0  0  0
  6 11  1  0  0  0  0
  6  7  2  0  0  0  0
  7  8  1  0  0  0  0
  8  9  2  0  0  0  0
  8 41  1  0  0  0  0
  9 10  1  0  0  0  0
 10 14  1  0  0  0  0
 10 11  2  0  0  0  0
 11 12  1  0  0  0  0
 12 13  2  0  0  0  0
 13 14  1  0  0  0  0
 13 42  1  0  0  0  0
 14 15  1  0  0  0  0
 15 30  1  0  0  0  0
 15 22  1  0  0  0  0
 15 16  1  0  0  0  0
 16 17  1  0  0  0  0
 17 31  1  0  0  0  0
 17 18  1  0  0  0  0
 17 20  1  0  0  0  0
 18 19  1  0  0  0  0
 18 43  1  0  0  0  0
 18 44  1  0  0  0  0
 19 45  1  0  0  0  0
 20 32  1  0  0  0  0
 20 21  1  0  0  0  0
 20 22  1  0  0  0  0
 21 46  1  0  0  0  0
 22 33  1  0  0  0  0
 22 23  1  0  0  0  0
 23 47  1  0  0  0  0
 24 29  1  0  0  0  0
 24 25  1  0  0  0  0
 24 48  1  0  0  0  0
 25 26  1  0  0  0  0
 25 49  1  0  0  0  0
 25 50  1  0  0  0  0
 26 27  1  0  0  0  0
 26 51  1  0  0  0  0
 26 52  1  0  0  0  0
 27 28  1  0  0  0  0
 27 53  1  0  0  0  0
 27 54  1  0  0  0  0
 28 29  1  0  0  0  0
 28 55  1  0  0  0  0
 28 56  1  0  0  0  0
 29 57  1  0  0  0  0
 29 58  1  0  0  0  0
M  END
> <s_m_source_file>
AV-unprocessed.smi

> <i_m_source_file_index>
109

> <i_lp_mmshare_version>
43012

> <i_f3d_flags>
0

> <s_epik_input>
W0NIMl0xW0NIMl1bQ0gyXVtDSDJdW0NIMl1bQ0hdMVtDQEhdKFtDSDJdW0NIMl1bT0hdKVtOSF1jKG5bY0hdbjIpYyhjMjMpbltjSF1uM1tDQEBIXTRPW0NASF0oW0NIMl1bT0hdKVtDQEBIXShbT0hdKVtDQEhdNFtPSF0=

> <s_epik_cmdline>
J2VwaWtfcHl0aG9uJywgJy1waCcsICc3LjAnLCAnLXRuJywgJzgnLCAnLW1hJywgJzIwMCcsICctbWV0YWxfYmluZGluZycsICctaW1hZScsICc8aW5maWxlLm1hZT4nLCAnLW9tYWUnLCAnPG91dGZpbGUubWFlPic=

> <r_lp_tautomer_probability>
1

> <r_epik_Ionization_Penalty>
0.000793976

> <r_epik_Ionization_Penalty_Charging>
0

> <r_epik_Ionization_Penalty_Neutral>
0.000793976

> <r_epik_State_Penalty>
-0

> <r_epik_Charging_Adjusted_Penalty>
0

> <i_epik_Tot_Q>
0

> <i_epik_Tot_abs_Q>
0

> <r_epik_Metal_State_Penalty>
-0

> <b_epik_Metal_Only>
0

> <s_epik_Chemistry_Notes>
This compound contains an acetal/aminal-like group ( X-CH(R)-Y where X, Y are N, S, or O) that may be acid/base labile, releasing an aldehyde.

> <s_lp_Force_Field>
OPLS_2005

> <r_lp_Energy>
47.5794

> <b_lp_Chiralities_Consistent>
1

> <s_lp_Variant>
AV-unprocessed.smi:109-13

> <Gold.Version>
5.8.1

> <Gold.Id.Protein>
6NUR|6NUR_protein|mol2

> <Gold.PLP.Fitness>
47.9819

> <Gold.PLP.PLP>
-39.6607

> <Gold.PLP.part.hbond>
-5.0000

> <Gold.PLP.part.metal>
0.0000

> <Gold.PLP.part.buried>
-3.1123

> <Gold.PLP.part.nonpolar>
-30.9815

> <Gold.PLP.part.repulsive>
0.0560

> <Gold.PLP.ligand.clash>
0.0000

> <Gold.PLP.ligand.torsion>
1.2456

> <Gold.PLP.Chemscore.Hbond>
3.5020

> <Gold.PLP.Chemscore.CHOScore>
0.0000

> <Gold.PLP.Chemscore.Metal>
0.0000

> <Gold.Chemscore.Hbonds>
donor molecule, donor type, donor heavy atom, donor atom, acceptor molecule, acceptor atom, score
      L1  H     1    34       P1  7957  0.53
      P1  H  6896  6909       L1    16  1.00
      P1  H  8011  8017       L1     1  1.00
      P1  H 10752 10765       L1     9  0.85

> <Gold.PLP.Chemscore.Internal.Correction>
0.3065

> <Gold.Rescore>
     Score         DG    S(hbond)    S(metal)    S(lipo)     H(rot)  DE(clash)    DE(int)     intcor
      9.19     -11.97       2.50        0.00     103.78       5.47       0.28       2.49       ----

> <Gold.Chemscore.Fitness>
9.1940

> <Gold.Chemscore.DG>
-11.9673

> <Gold.Chemscore.ZeroCoef>
-5.4800

> <Gold.Chemscore.Hbond>
2.4965

> <Gold.Chemscore.Metal>
0.0000

> <Gold.Chemscore.Lipo>
103.7827

> <Gold.Chemscore.Internal_Hbond>
0.0000

> <Gold.Chemscore.DEClash>
0.2811

> <Gold.Chemscore.DEInternal>
2.4922

> <Gold.Chemscore.Rot>
5.4662

> <Gold.Chemscore.Internal.Correction>
   9.000000E+99

> <Gold.Chemscore.Hbonds>
donor molecule, donor type, donor heavy atom, donor atom, acceptor molecule, acceptor atom, score
      L1  H     1    34       P1  7957  0.51
      P1  H  6896  6909       L1    16  0.95
      P1  H  8011  8017       L1     1  0.37
      P1  H 10752 10765       L1     9  0.19

> <Gold.Chemscore.Hbond.Weighted>
-8.3382

> <Gold.Chemscore.Metal.Weighted>
-0.0000

> <Gold.Chemscore.Lipo.Weighted>
-12.1426

> <Gold.Chemscore.Internal_Hbond.Weighted>
0.0000

> <Gold.Chemscore.DEClash.Weighted>
0.2811

> <Gold.Chemscore.DEInternal.Weighted>
2.4922

> <Gold.Chemscore.Rot.Weighted>
13.9935

> <Gold.Chemscore.Internal.Correction.Weighted>
   9.000000E+99

> <Gold.Protein.RotatedTorsions>
[ 6907 6896 6895 6894 ] final -146.75 input  -60.11 | X-H torsion
[ 7974 7965 7964 7962 ] final   56.34 input  175.53 | X-H torsion
[ 8008 7997 7996 7995 ] final   16.76 input   59.86 | X-H torsion
[ 10167 10162 10161 10158 ] final   38.16 input  -65.29 | X-H torsion
[ 10718 10713 10712 10709 ] final -123.31 input   66.30 | X-H torsion
[ 10763 10752 10751 10750 ] final -123.58 input  -60.55 | X-H torsion
[ 11005 11000 10999 10996 ] final  170.14 input  -57.11 | X-H torsion

> <Gold.Protein.ActiveResidues>
 VAL166  LYS551  ARG553  GLY616  TRP617  ASP618  TYR619  PRO620  LYS621  CYS622 
 ASP623  PHE694  ASN695  SER759  ASP760  ASP761  ALA762  ILE779  LEU786  VAL792 
 PHE793  MET794  SER795  GLU796  ALA797  LYS798  CYS799  TRP800  GLU811  SER814 

> <Gold.Protein.RotatedAtoms>
  151.1460  133.4939  159.2595 H   0  0  0  0  0  0  0  0  0  0  0  0  # atno 6907 bound_to 6896
  151.1604  135.0270  159.8718 H   0  0  0  0  0  0  0  0  0  0  0  0  # atno 6908 bound_to 6896
  152.5463  134.1335  159.8502 H   0  0  0  0  0  0  0  0  0  0  0  0  # atno 6909 bound_to 6896
  145.9408  139.3887  143.0364 H   0  0  0  0  0  0  0  0  0  0  0  0  # atno 7974 bound_to 7965
  154.8817  140.2974  155.5421 H   0  0  0  0  0  0  0  0  0  0  0  0  # atno 8008 bound_to 7997
  156.3022  140.2441  156.3754 H   0  0  0  0  0  0  0  0  0  0  0  0  # atno 8009 bound_to 7997
  154.8711  140.0401  157.1714 H   0  0  0  0  0  0  0  0  0  0  0  0  # atno 8010 bound_to 7997
  140.3963  144.1784  150.6132 H   0  0  0  0  0  0  0  0  0  0  0  0  # atno 10167 bound_to 10162
  156.1492  130.6522  150.9887 H   0  0  0  0  0  0  0  0  0  0  0  0  # atno 10718 bound_to 10713
  154.8710  135.4093  154.2966 H   0  0  0  0  0  0  0  0  0  0  0  0  # atno 10763 bound_to 10752
  153.3833  135.7012  153.6554 H   0  0  0  0  0  0  0  0  0  0  0  0  # atno 10764 bound_to 10752
  153.5368  135.3656  155.2672 H   0  0  0  0  0  0  0  0  0  0  0  0  # atno 10765 bound_to 10752
  140.3052  134.7562  157.3948 H   0  0  0  0  0  0  0  0  0  0  0  0  # atno 11005 bound_to 11000
  145.8302  140.9635  143.0853 LP  0  0  0  0  0  0  0  0  0  0  0  0  # atno 17320 bound_to 7965
  144.6779  140.0152  143.7484 LP  0  0  0  0  0  0  0  0  0  0  0  0  # atno 17321 bound_to 7965
  140.4787  143.2387  151.8986 LP  0  0  0  0  0  0  0  0  0  0  0  0  # atno 17342 bound_to 10162
  139.4786  144.5293  151.8690 LP  0  0  0  0  0  0  0  0  0  0  0  0  # atno 17343 bound_to 10162
  157.6642  131.0875  150.7767 LP  0  0  0  0  0  0  0  0  0  0  0  0  # atno 17370 bound_to 10713
  156.7837  130.4867  149.5396 LP  0  0  0  0  0  0  0  0  0  0  0  0  # atno 17371 bound_to 10713
  140.1073  134.5392  155.8298 LP  0  0  0  0  0  0  0  0  0  0  0  0  # atno 17394 bound_to 11000
  141.2120  133.6713  156.6623 LP  0  0  0  0  0  0  0  0  0  0  0  0  # atno 17395 bound_to 11000

$$$$
