AV-unprocessed.smi:1580|AV-procd|sdf|6358|dock1
  -GOLD-   22720 6583D 1   1.00000     0.00000
 Structure written by MMmdl.
 37 38  0  0  0  0  0  0  0  0  1 V2000
  154.0752  135.8272  157.8872 C   0  0  0  0  0  0  0  0  0  0  0  0
  152.8065  137.1192  158.2083 S   0  0  0  0  0  0  0  0  0  0  0  0
  152.3340  136.9537  159.5918 O   0  0  0  0  0  0  0  0  0  0  0  0
  153.3489  138.4168  157.7761 O   0  0  0  0  0  0  0  0  0  0  0  0
  151.4699  136.6834  157.1018 C   0  0  0  0  0  0  0  0  0  0  0  0
  150.2201  136.2859  157.6170 C   0  0  0  0  0  0  0  0  0  0  0  0
  149.2167  135.9050  156.7058 C   0  0  0  0  0  0  0  0  0  0  0  0
  149.5037  135.9318  155.3181 C   0  0  0  0  0  0  0  0  0  0  0  0
  148.5892  135.5608  154.2936 N   0  0  0  0  0  0  0  0  0  0  0  0
  147.3937  134.9548  154.3986 C   0  0  0  0  0  0  0  0  0  0  0  0
  146.8474  134.6248  155.4506 O   0  0  0  0  0  0  0  0  0  0  0  0
  146.8454  134.7566  153.1919 N   0  0  0  0  0  0  0  0  0  0  0  0
  145.5544  134.1206  152.9549 C   0  0  0  0  0  0  0  0  0  0  0  0
  145.3370  133.8038  151.4657 C   0  0  2  0  0  0  0  0  0  0  0  0
  143.9088  133.3743  151.1348 C   0  0  0  0  0  0  0  0  0  0  0  0
  144.1183  132.5584  149.8802 C   0  0  0  0  0  0  0  0  0  0  0  0
  145.4260  131.8386  150.1955 C   0  0  0  0  0  0  0  0  0  0  0  0
  146.1545  132.7079  151.0593 O   0  0  0  0  0  0  0  0  0  0  0  0
  150.8002  136.3270  154.9226 C   0  0  0  0  0  0  0  0  0  0  0  0
  151.7710  136.6916  155.7863 N   0  0  0  0  0  0  0  0  0  0  0  0
  154.9440  136.0064  158.5198 H   0  0  0  0  0  0  0  0  0  0  0  0
  154.3746  135.8638  156.8398 H   0  0  0  0  0  0  0  0  0  0  0  0
  153.6584  134.8458  158.1116 H   0  0  0  0  0  0  0  0  0  0  0  0
  150.0304  136.2673  158.6798 H   0  0  0  0  0  0  0  0  0  0  0  0
  148.2622  135.5904  157.0958 H   0  0  0  0  0  0  0  0  0  0  0  0
  148.8706  135.8129  153.3573 H   0  0  0  0  0  0  0  0  0  0  0  0
  147.3554  135.0663  152.3777 H   0  0  0  0  0  0  0  0  0  0  0  0
  145.5097  133.2034  153.5430 H   0  0  0  0  0  0  0  0  0  0  0  0
  144.7548  134.7647  153.3247 H   0  0  0  0  0  0  0  0  0  0  0  0
  145.5961  134.6639  150.8460 H   0  0  0  0  0  0  0  0  0  0  0  0
  143.5017  132.7424  151.9256 H   0  0  0  0  0  0  0  0  0  0  0  0
  143.2339  134.2183  150.9895 H   0  0  0  0  0  0  0  0  0  0  0  0
  143.2950  131.8758  149.6675 H   0  0  0  0  0  0  0  0  0  0  0  0
  144.2487  133.2184  149.0217 H   0  0  0  0  0  0  0  0  0  0  0  0
  145.2287  130.9083  150.7295 H   0  0  0  0  0  0  0  0  0  0  0  0
  145.9952  131.5985  149.2971 H   0  0  0  0  0  0  0  0  0  0  0  0
  151.0702  136.3496  153.8769 H   0  0  0  0  0  0  0  0  0  0  0  0
  1  2  1  0  0  0  0
  1 21  1  0  0  0  0
  1 22  1  0  0  0  0
  1 23  1  0  0  0  0
  2  3  2  0  0  0  0
  2  4  2  0  0  0  0
  2  5  1  0  0  0  0
  5 20  1  0  0  0  0
  5  6  2  0  0  0  0
  6  7  1  0  0  0  0
  6 24  1  0  0  0  0
  7  8  2  0  0  0  0
  7 25  1  0  0  0  0
  8  9  1  0  0  0  0
  8 19  1  0  0  0  0
  9 10  1  0  0  0  0
  9 26  1  0  0  0  0
 10 11  2  0  0  0  0
 10 12  1  0  0  0  0
 12 13  1  0  0  0  0
 12 27  1  0  0  0  0
 13 14  1  0  0  0  0
 13 28  1  0  0  0  0
 13 29  1  0  0  0  0
 14 18  1  0  0  0  0
 14 15  1  0  0  0  0
 14 30  1  0  0  0  0
 15 16  1  0  0  0  0
 15 31  1  0  0  0  0
 15 32  1  0  0  0  0
 16 17  1  0  0  0  0
 16 33  1  0  0  0  0
 16 34  1  0  0  0  0
 17 18  1  0  0  0  0
 17 35  1  0  0  0  0
 17 36  1  0  0  0  0
 19 20  2  0  0  0  0
 19 37  1  0  0  0  0
M  END
> <s_m_source_file>
AV-unprocessed.smi

> <i_m_source_file_index>
1580

> <i_lp_mmshare_version>
43012

> <i_f3d_flags>
0

> <s_epik_input>
W0NIM11TKD1PKSg9TyljMVtjSF1bY0hdYyhbY0hdbjEpW05IXUMoPU8pW05IXVtDSDJdW0NAQEhdMltDSDJdW0NIMl1bQ0gyXU8y

> <s_epik_cmdline>
J2VwaWtfcHl0aG9uJywgJy1waCcsICc3LjAnLCAnLXRuJywgJzgnLCAnLW1hJywgJzIwMCcsICctbWV0YWxfYmluZGluZycsICctaW1hZScsICc8aW5maWxlLm1hZT4nLCAnLW9tYWUnLCAnPG91dGZpbGUubWFlPic=

> <r_lp_tautomer_probability>
1

> <r_epik_Ionization_Penalty>
3.28405e-05

> <r_epik_Ionization_Penalty_Charging>
0

> <r_epik_Ionization_Penalty_Neutral>
3.28405e-05

> <r_epik_State_Penalty>
-0

> <r_epik_Charging_Adjusted_Penalty>
0

> <i_epik_Tot_Q>
0

> <i_epik_Tot_abs_Q>
0

> <r_epik_Metal_State_Penalty>
-0

> <b_epik_Metal_Only>
0

> <s_lp_Force_Field>
OPLS_2005

> <r_lp_Energy>
18.5173

> <b_lp_Chiralities_Consistent>
1

> <s_lp_Variant>
AV-unprocessed.smi:1580-1

> <Gold.Version>
5.8.1

> <Gold.Id.Protein>
6NUR|6NUR_protein|mol2

> <Gold.PLP.Fitness>
39.5472

> <Gold.PLP.PLP>
-23.9529

> <Gold.PLP.part.hbond>
-4.7561

> <Gold.PLP.part.metal>
0.0000

> <Gold.PLP.part.buried>
-5.0250

> <Gold.PLP.part.nonpolar>
-15.2075

> <Gold.PLP.part.repulsive>
0.2204

> <Gold.PLP.ligand.clash>
0.0000

> <Gold.PLP.ligand.torsion>
1.2090

> <Gold.PLP.Chemscore.Hbond>
4.3123

> <Gold.PLP.Chemscore.CHOScore>
1.0055

> <Gold.PLP.Chemscore.Metal>
0.0000

> <Gold.Chemscore.Hbonds>
donor molecule, donor type, donor heavy atom, donor atom, acceptor molecule, acceptor atom, score
      L1  H     9    26       P1  7948  1.00
      L1  H    12    27       P1  7948  0.83
      P1  H  6896  6908       L1     3  0.94
      P1  H  7997  8009       L1     4  0.67
      P1  H 10752 10764       L1    20  0.85
      L1  C    19    37       P1  7949  1.00

> <Gold.PLP.Chemscore.Internal.Correction>
2.0590

> <Gold.Rescore>
     Score         DG    S(hbond)    S(metal)    S(lipo)     H(rot)  DE(clash)    DE(int)     intcor
     18.42     -20.84       3.81        0.00      50.52       1.27       0.00       2.43       ----

> <Gold.Chemscore.Fitness>
18.4172

> <Gold.Chemscore.DG>
-20.8432

> <Gold.Chemscore.ZeroCoef>
-5.4800

> <Gold.Chemscore.Hbond>
3.8053

> <Gold.Chemscore.Metal>
0.0000

> <Gold.Chemscore.Lipo>
50.5231

> <Gold.Chemscore.Internal_Hbond>
0.0000

> <Gold.Chemscore.DEClash>
0.0000

> <Gold.Chemscore.DEInternal>
2.4261

> <Gold.Chemscore.Rot>
1.2725

> <Gold.Chemscore.Internal.Correction>
   9.000000E+99

> <Gold.Chemscore.Hbonds>
donor molecule, donor type, donor heavy atom, donor atom, acceptor molecule, acceptor atom, score
      L1  H     9    26       P1  7948  0.90
      L1  H    12    27       P1  7948  0.79
      P1  H  6896  6908       L1     3  0.76
      P1  H  7997  8009       L1     4  0.66
      P1  H 10752 10764       L1    20  0.13

> <Gold.Chemscore.Hbond.Weighted>
-12.7096

> <Gold.Chemscore.Metal.Weighted>
-0.0000

> <Gold.Chemscore.Lipo.Weighted>
-5.9112

> <Gold.Chemscore.Internal_Hbond.Weighted>
0.0000

> <Gold.Chemscore.DEClash.Weighted>
0.0000

> <Gold.Chemscore.DEInternal.Weighted>
2.4261

> <Gold.Chemscore.Rot.Weighted>
3.2576

> <Gold.Chemscore.Internal.Correction.Weighted>
   9.000000E+99

> <Gold.Protein.RotatedTorsions>
[ 6907 6896 6895 6894 ] final -128.18 input  -60.11 | X-H torsion
[ 7974 7965 7964 7962 ] final  -38.05 input  175.53 | X-H torsion
[ 8008 7997 7996 7995 ] final  159.27 input   59.86 | X-H torsion
[ 10167 10162 10161 10158 ] final  169.65 input  -65.29 | X-H torsion
[ 10718 10713 10712 10709 ] final -123.41 input   66.30 | X-H torsion
[ 10763 10752 10751 10750 ] final  -24.72 input  -60.55 | X-H torsion
[ 11005 11000 10999 10996 ] final  -78.20 input  -57.11 | X-H torsion

> <Gold.Protein.ActiveResidues>
 VAL166  LYS551  ARG553  GLY616  TRP617  ASP618  TYR619  PRO620  LYS621  CYS622 
 ASP623  PHE694  ASN695  SER759  ASP760  ASP761  ALA762  ILE779  LEU786  VAL792 
 PHE793  MET794  SER795  GLU796  ALA797  LYS798  CYS799  TRP800  GLU811  SER814 

> <Gold.Protein.RotatedAtoms>
  150.9151  133.6949  159.2845 H   0  0  0  0  0  0  0  0  0  0  0  0  # atno 6907 bound_to 6896
  151.4423  135.1020  159.9683 H   0  0  0  0  0  0  0  0  0  0  0  0  # atno 6908 bound_to 6896
  152.4950  133.8556  159.7279 H   0  0  0  0  0  0  0  0  0  0  0  0  # atno 6909 bound_to 6896
  146.0521  140.6467  142.9037 H   0  0  0  0  0  0  0  0  0  0  0  0  # atno 7974 bound_to 7965
  156.2250  140.1836  156.7386 H   0  0  0  0  0  0  0  0  0  0  0  0  # atno 8008 bound_to 7997
  154.5926  140.0648  156.9288 H   0  0  0  0  0  0  0  0  0  0  0  0  # atno 8009 bound_to 7997
  155.2310  140.3315  155.4306 H   0  0  0  0  0  0  0  0  0  0  0  0  # atno 8010 bound_to 7997
  139.4998  144.3682  151.9752 H   0  0  0  0  0  0  0  0  0  0  0  0  # atno 10167 bound_to 10162
  156.1500  130.6528  150.9899 H   0  0  0  0  0  0  0  0  0  0  0  0  # atno 10718 bound_to 10713
  153.6884  135.6963  153.5097 H   0  0  0  0  0  0  0  0  0  0  0  0  # atno 10763 bound_to 10752
  153.2432  135.4299  155.0719 H   0  0  0  0  0  0  0  0  0  0  0  0  # atno 10764 bound_to 10752
  154.8380  135.3513  154.6426 H   0  0  0  0  0  0  0  0  0  0  0  0  # atno 10765 bound_to 10752
  141.1664  133.7053  156.7936 H   0  0  0  0  0  0  0  0  0  0  0  0  # atno 11005 bound_to 11000
  144.7128  140.4101  143.7067 LP  0  0  0  0  0  0  0  0  0  0  0  0  # atno 17320 bound_to 7965
  145.6707  139.1598  143.2756 LP  0  0  0  0  0  0  0  0  0  0  0  0  # atno 17321 bound_to 7965
  140.3119  144.3528  150.6032 LP  0  0  0  0  0  0  0  0  0  0  0  0  # atno 17342 bound_to 10162
  140.5792  143.2174  151.7459 LP  0  0  0  0  0  0  0  0  0  0  0  0  # atno 17343 bound_to 10162
  157.6649  131.0873  150.7752 LP  0  0  0  0  0  0  0  0  0  0  0  0  # atno 17370 bound_to 10713
  156.7821  130.4862  149.5399 LP  0  0  0  0  0  0  0  0  0  0  0  0  # atno 17371 bound_to 10713
  140.2307  134.8687  157.3474 LP  0  0  0  0  0  0  0  0  0  0  0  0  # atno 17394 bound_to 11000
  140.1893  134.4391  155.7725 LP  0  0  0  0  0  0  0  0  0  0  0  0  # atno 17395 bound_to 11000

$$$$
