AV-unprocessed.smi:149|AV-procd|sdf|1234|dock8
  -GOLD-   2262018443D 1   1.00000     0.00000
 Structure written by MMmdl.
 60 64  0  0  0  0  0  0  0  0  2 V2000
  153.1377  129.6884  156.1717 C   0  0  0  0  0  0  0  0  0  0  0  0
  152.3491  129.1720  154.9523 C   0  0  2  0  0  0  0  0  0  0  0  0
  151.0541  129.9883  154.7790 C   0  0  0  0  0  0  0  0  0  0  0  0
  149.9856  129.0383  154.5230 N   0  0  0  0  0  0  0  0  0  0  0  0
  148.8352  129.4270  153.9111 C   0  0  0  0  0  0  0  0  0  0  0  0
  147.8900  128.4857  153.6481 N   0  0  0  0  0  0  0  0  0  0  0  0
  146.7439  128.8211  153.0502 C   0  0  0  0  0  0  0  0  0  0  0  0
  146.3408  130.0231  152.6399 N   0  0  0  0  0  0  0  0  0  0  0  0
  147.2742  130.9803  152.9076 C   0  0  0  0  0  0  0  0  0  0  0  0
  148.5366  130.7716  153.5366 C   0  0  0  0  0  0  0  0  0  0  0  0
  149.2060  131.9854  153.6487 N   0  0  0  0  0  0  0  0  0  0  0  0
  148.3947  132.8545  153.1123 C   0  0  0  0  0  0  0  0  0  0  0  0
  147.2100  132.3387  152.6387 N   0  0  0  0  0  0  0  0  0  0  0  0
  146.1512  133.0769  152.0073 C   0  0  0  0  0  0  0  0  0  0  0  0
  144.8195  132.4128  151.6470 C   0  0  0  0  0  0  0  0  0  0  0  0
  144.7107  133.3305  150.4058 C   0  0  0  0  0  0  0  0  0  0  0  0
  144.2038  132.6902  149.0980 C   0  0  0  0  0  0  0  0  0  0  0  0
  142.9110  132.1335  149.2317 O   0  0  0  0  0  0  0  0  0  0  0  0
  143.9136  134.6316  150.6154 C   0  0  0  0  0  0  0  0  0  0  0  0
  144.1229  135.5487  149.5604 O   0  0  0  0  0  0  0  0  0  0  0  0
  146.2420  133.5044  150.5397 C   0  0  0  0  0  0  0  0  0  0  0  0
  150.5523  127.7256  154.2809 C   0  0  0  0  0  0  0  0  0  0  0  0
  151.8802  127.6988  155.0488 C   0  0  1  0  0  0  0  0  0  0  0  0
  152.8050  126.6759  154.4650 N   0  3  0  0  0  0  0  0  0  0  0  0
  154.2041  126.6885  154.9616 C   0  0  0  0  0  0  0  0  0  0  0  0
  154.2952  126.0848  156.3754 C   0  0  0  0  0  0  0  0  0  0  0  0
  153.7993  124.7516  156.3460 O   0  0  0  0  0  0  0  0  0  0  0  0
  152.4361  124.6895  155.9423 C   0  0  0  0  0  0  0  0  0  0  0  0
  152.2804  125.2854  154.5283 C   0  0  0  0  0  0  0  0  0  0  0  0
  152.5609  129.5728  157.0899 H   0  0  0  0  0  0  0  0  0  0  0  0
  153.3655  130.7489  156.0603 H   0  0  0  0  0  0  0  0  0  0  0  0
  154.0847  129.1748  156.3179 H   0  0  0  0  0  0  0  0  0  0  0  0
  152.9447  129.3000  154.0471 H   0  0  0  0  0  0  0  0  0  0  0  0
  150.8128  130.5447  155.6855 H   0  0  0  0  0  0  0  0  0  0  0  0
  151.1552  130.7042  153.9621 H   0  0  0  0  0  0  0  0  0  0  0  0
  146.0502  128.0116  152.8765 H   0  0  0  0  0  0  0  0  0  0  0  0
  148.6427  133.9043  153.0489 H   0  0  0  0  0  0  0  0  0  0  0  0
  145.9672  133.9506  152.6352 H   0  0  0  0  0  0  0  0  0  0  0  0
  144.9262  131.3563  151.3989 H   0  0  0  0  0  0  0  0  0  0  0  0
  144.0367  132.5523  152.3931 H   0  0  0  0  0  0  0  0  0  0  0  0
  144.1617  133.4234  148.2921 H   0  0  0  0  0  0  0  0  0  0  0  0
  144.8766  131.8982  148.7676 H   0  0  0  0  0  0  0  0  0  0  0  0
  142.2971  132.8331  149.3941 H   0  0  0  0  0  0  0  0  0  0  0  0
  142.8431  134.4337  150.6753 H   0  0  0  0  0  0  0  0  0  0  0  0
  144.1872  135.1115  151.5557 H   0  0  0  0  0  0  0  0  0  0  0  0
  144.7226  135.1621  148.9404 H   0  0  0  0  0  0  0  0  0  0  0  0
  146.5992  134.5243  150.3937 H   0  0  0  0  0  0  0  0  0  0  0  0
  146.8199  132.8076  149.9320 H   0  0  0  0  0  0  0  0  0  0  0  0
  149.8748  126.9418  154.6213 H   0  0  0  0  0  0  0  0  0  0  0  0
  150.7175  127.5996  153.2095 H   0  0  0  0  0  0  0  0  0  0  0  0
  151.6736  127.4701  156.0949 H   0  0  0  0  0  0  0  0  0  0  0  0
  154.8065  126.0809  154.2848 H   0  0  0  0  0  0  0  0  0  0  0  0
  154.6444  127.6815  154.9104 H   0  0  0  0  0  0  0  0  0  0  0  0
  155.3329  126.0655  156.7082 H   0  0  0  0  0  0  0  0  0  0  0  0
  153.7396  126.6781  157.1025 H   0  0  0  0  0  0  0  0  0  0  0  0
  152.1194  123.6463  155.9432 H   0  0  0  0  0  0  0  0  0  0  0  0
  151.8064  125.2074  156.6665 H   0  0  0  0  0  0  0  0  0  0  0  0
  151.2430  125.2310  154.2012 H   0  0  0  0  0  0  0  0  0  0  0  0
  152.8453  124.6759  153.8216 H   0  0  0  0  0  0  0  0  0  0  0  0
  152.8627  126.9118  153.4845 H   0  0  0  0  0  0  0  0  0  0  0  0
  1  2  1  0  0  0  0
  1 30  1  0  0  0  0
  1 31  1  0  0  0  0
  1 32  1  0  0  0  0
  2 23  1  0  0  0  0
  2  3  1  0  0  0  0
  2 33  1  0  0  0  0
  3  4  1  0  0  0  0
  3 34  1  0  0  0  0
  3 35  1  0  0  0  0
  4  5  1  0  0  0  0
  4 22  1  0  0  0  0
  5 10  1  0  0  0  0
  5  6  2  0  0  0  0
  6  7  1  0  0  0  0
  7  8  2  0  0  0  0
  7 36  1  0  0  0  0
  8  9  1  0  0  0  0
  9 13  1  0  0  0  0
  9 10  2  0  0  0  0
 10 11  1  0  0  0  0
 11 12  2  0  0  0  0
 12 13  1  0  0  0  0
 12 37  1  0  0  0  0
 13 14  1  0  0  0  0
 14 21  1  0  0  0  0
 14 15  1  0  0  0  0
 14 38  1  0  0  0  0
 15 16  1  0  0  0  0
 15 39  1  0  0  0  0
 15 40  1  0  0  0  0
 16 17  1  0  0  0  0
 16 19  1  0  0  0  0
 16 21  1  0  0  0  0
 17 18  1  0  0  0  0
 17 41  1  0  0  0  0
 17 42  1  0  0  0  0
 18 43  1  0  0  0  0
 19 20  1  0  0  0  0
 19 44  1  0  0  0  0
 19 45  1  0  0  0  0
 20 46  1  0  0  0  0
 21 47  1  0  0  0  0
 21 48  1  0  0  0  0
 22 23  1  0  0  0  0
 22 49  1  0  0  0  0
 22 50  1  0  0  0  0
 23 24  1  0  0  0  0
 23 51  1  0  0  0  0
 24 29  1  0  0  0  0
 24 25  1  0  0  0  0
 24 60  1  0  0  0  0
 25 26  1  0  0  0  0
 25 52  1  0  0  0  0
 25 53  1  0  0  0  0
 26 27  1  0  0  0  0
 26 54  1  0  0  0  0
 26 55  1  0  0  0  0
 27 28  1  0  0  0  0
 28 29  1  0  0  0  0
 28 56  1  0  0  0  0
 28 57  1  0  0  0  0
 29 58  1  0  0  0  0
 29 59  1  0  0  0  0
M  CHG  1  24   1
M  END
> <s_m_source_file>
AV-unprocessed.smi

> <i_m_source_file_index>
149

> <i_lp_mmshare_version>
43012

> <i_f3d_flags>
0

> <s_epik_input>
W0NIMl0xW0NIMl1PW0NIMl1bQ0gyXU4xW0NAQEhdMltDSDJdTihbQ0gyXVtDQEhdMltDSDNdKWMobltjSF1uMyljKGMzNCluW2NIXW40W0NIXShbQ0gyXTUpW0NIMl1DNShbQ0gyXVtPSF0pW0NIMl1bT0hd

> <s_epik_cmdline>
J2VwaWtfcHl0aG9uJywgJy1waCcsICc3LjAnLCAnLXRuJywgJzgnLCAnLW1hJywgJzIwMCcsICctbWV0YWxfYmluZGluZycsICctaW1hZScsICc8aW5maWxlLm1hZT4nLCAnLW9tYWUnLCAnPG91dGZpbGUubWFlPic=

> <r_lp_tautomer_probability>
1

> <r_epik_Ionization_Penalty>
0.404847

> <r_epik_Ionization_Penalty_Charging>
0.404623

> <r_epik_Ionization_Penalty_Neutral>
0.000224096

> <r_epik_State_Penalty>
0.238803

> <r_epik_Charging_Adjusted_Penalty>
0.643425

> <i_epik_Tot_Q>
1

> <i_epik_Tot_abs_Q>
1

> <r_epik_Metal_State_Penalty>
0.239083

> <b_epik_Metal_Only>
0

> <s_lp_Force_Field>
OPLS_2005

> <r_lp_Energy>
72.409

> <b_lp_Chiralities_Consistent>
1

> <s_lp_Variant>
AV-unprocessed.smi:149-1

> <Gold.Version>
5.8.1

> <Gold.Id.Protein>
6NUR|6NUR_protein|mol2

> <Gold.PLP.Fitness>
55.1745

> <Gold.PLP.PLP>
-42.6231

> <Gold.PLP.part.hbond>
-6.1645

> <Gold.PLP.part.metal>
0.0000

> <Gold.PLP.part.buried>
1.6288

> <Gold.PLP.part.nonpolar>
-36.2333

> <Gold.PLP.part.repulsive>
0.3379

> <Gold.PLP.ligand.clash>
0.0000

> <Gold.PLP.ligand.torsion>
0.7570

> <Gold.PLP.Chemscore.Hbond>
3.9175

> <Gold.PLP.Chemscore.CHOScore>
0.5299

> <Gold.PLP.Chemscore.Metal>
0.0000

> <Gold.Chemscore.Hbonds>
donor molecule, donor type, donor heavy atom, donor atom, acceptor molecule, acceptor atom, score
      L1  H    18    43       P1 10186  0.98
      L1  H    20    46       P1  7921  1.00
      L1  H    24    60       P1 10737  0.93
      P1  H 10785 10796       L1    18  0.91
      L1  C    12    37       P1  7948  0.51

> <Gold.PLP.Chemscore.Internal.Correction>
0.7231

> <Gold.Rescore>
     Score         DG    S(hbond)    S(metal)    S(lipo)     H(rot)  DE(clash)    DE(int)     intcor
     13.38     -16.82       3.05        0.00      77.55       3.09       0.52       2.92       ----

> <Gold.Chemscore.Fitness>
13.3769

> <Gold.Chemscore.DG>
-16.8173

> <Gold.Chemscore.ZeroCoef>
-5.4800

> <Gold.Chemscore.Hbond>
3.0471

> <Gold.Chemscore.Metal>
0.0000

> <Gold.Chemscore.Lipo>
77.5499

> <Gold.Chemscore.Internal_Hbond>
0.0000

> <Gold.Chemscore.DEClash>
0.5173

> <Gold.Chemscore.DEInternal>
2.9231

> <Gold.Chemscore.Rot>
3.0912

> <Gold.Chemscore.Internal.Correction>
   9.000000E+99

> <Gold.Chemscore.Hbonds>
donor molecule, donor type, donor heavy atom, donor atom, acceptor molecule, acceptor atom, score
      L1  H    18    43       P1 10186  0.91
      L1  H    20    46       P1  7921  0.99
      L1  H    24    60       P1 10737  0.85
      P1  H 10785 10796       L1    18  0.34

> <Gold.Chemscore.Hbond.Weighted>
-10.1775

> <Gold.Chemscore.Metal.Weighted>
-0.0000

> <Gold.Chemscore.Lipo.Weighted>
-9.0733

> <Gold.Chemscore.Internal_Hbond.Weighted>
0.0000

> <Gold.Chemscore.DEClash.Weighted>
0.5173

> <Gold.Chemscore.DEInternal.Weighted>
2.9231

> <Gold.Chemscore.Rot.Weighted>
7.9135

> <Gold.Chemscore.Internal.Correction.Weighted>
   9.000000E+99

> <Gold.Protein.RotatedTorsions>
[ 6907 6896 6895 6894 ] final  -54.77 input  -60.11 | X-H torsion
[ 7974 7965 7964 7962 ] final  -17.83 input  175.53 | X-H torsion
[ 8008 7997 7996 7995 ] final  168.06 input   59.86 | X-H torsion
[ 10167 10162 10161 10158 ] final -130.56 input  -65.29 | X-H torsion
[ 10718 10713 10712 10709 ] final  -67.90 input   66.30 | X-H torsion
[ 10763 10752 10751 10750 ] final  -78.47 input  -60.55 | X-H torsion
[ 11005 11000 10999 10996 ] final -148.61 input  -57.11 | X-H torsion

> <Gold.Protein.ActiveResidues>
 VAL166  LYS551  ARG553  GLY616  TRP617  ASP618  TYR619  PRO620  LYS621  CYS622 
 ASP623  PHE694  ASN695  SER759  ASP760  ASP761  ALA762  ILE779  LEU786  VAL792 
 PHE793  MET794  SER795  GLU796  ALA797  LYS798  CYS799  TRP800  GLU811  SER814 

> <Gold.Protein.RotatedAtoms>
  150.8309  134.7561  159.6852 H   0  0  0  0  0  0  0  0  0  0  0  0  # atno 6907 bound_to 6896
  152.4413  134.5581  159.9896 H   0  0  0  0  0  0  0  0  0  0  0  0  # atno 6908 bound_to 6896
  151.5742  133.3348  159.3031 H   0  0  0  0  0  0  0  0  0  0  0  0  # atno 6909 bound_to 6896
  146.1922  140.3834  142.8454 H   0  0  0  0  0  0  0  0  0  0  0  0  # atno 7974 bound_to 7965
  156.1580  140.1600  156.8660 H   0  0  0  0  0  0  0  0  0  0  0  0  # atno 8008 bound_to 7997
  154.5133  140.0795  156.8069 H   0  0  0  0  0  0  0  0  0  0  0  0  # atno 8009 bound_to 7997
  155.3764  140.3403  155.4247 H   0  0  0  0  0  0  0  0  0  0  0  0  # atno 8010 bound_to 7997
  139.9280  143.6305  152.2537 H   0  0  0  0  0  0  0  0  0  0  0  0  # atno 10167 bound_to 10162
  156.0533  130.4285  150.1922 H   0  0  0  0  0  0  0  0  0  0  0  0  # atno 10718 bound_to 10713
  154.5262  135.5729  153.6721 H   0  0  0  0  0  0  0  0  0  0  0  0  # atno 10763 bound_to 10752
  152.9928  135.6194  154.2689 H   0  0  0  0  0  0  0  0  0  0  0  0  # atno 10764 bound_to 10752
  154.2613  135.2856  155.2756 H   0  0  0  0  0  0  0  0  0  0  0  0  # atno 10765 bound_to 10752
  140.7594  134.3315  157.5105 H   0  0  0  0  0  0  0  0  0  0  0  0  # atno 11005 bound_to 11000
  144.8509  140.7000  143.6169 LP  0  0  0  0  0  0  0  0  0  0  0  0  # atno 17320 bound_to 7965
  145.3756  139.1648  143.4308 LP  0  0  0  0  0  0  0  0  0  0  0  0  # atno 17321 bound_to 7965
  139.6806  144.7656  151.1616 LP  0  0  0  0  0  0  0  0  0  0  0  0  # atno 17342 bound_to 10162
  140.7645  143.5731  150.8975 LP  0  0  0  0  0  0  0  0  0  0  0  0  # atno 17343 bound_to 10162
  157.0002  130.9920  151.3393 LP  0  0  0  0  0  0  0  0  0  0  0  0  # atno 17370 bound_to 10713
  157.5480  130.8163  149.8110 LP  0  0  0  0  0  0  0  0  0  0  0  0  # atno 17371 bound_to 10713
  139.8773  134.9192  156.3222 LP  0  0  0  0  0  0  0  0  0  0  0  0  # atno 17394 bound_to 11000
  140.9677  133.7347  156.0490 LP  0  0  0  0  0  0  0  0  0  0  0  0  # atno 17395 bound_to 11000

$$$$
