AV-unprocessed.smi:1239|AV-procd|sdf|5193|dock7
  -GOLD-   22720 4273D 1   1.00000     0.00000
 Structure written by MMmdl.
 48 49  0  0  0  0  0  0  0  0  4 V2000
  150.8662  133.9725  155.7720 C   0  0  0  0  0  0  0  0  0  0  0  0
  150.5097  134.8437  154.5409 C   0  0  2  0  0  0  0  0  0  0  0  0
  150.4885  136.3721  154.8244 C   0  0  0  0  0  0  0  0  0  0  0  0
  151.8309  136.9487  154.7317 N   0  5  0  0  0  0  0  0  0  0  0  0
  152.4352  137.6807  155.7059 C   0  0  0  0  0  0  0  0  0  0  0  0
  153.4909  137.4224  156.2949 O   0  0  0  0  0  0  0  0  0  0  0  0
  151.7240  138.7762  156.0265 N   0  0  0  0  0  0  0  0  0  0  0  0
  152.0266  139.8085  156.9548 C   0  0  0  0  0  0  0  0  0  0  0  0
  152.8209  139.4747  158.0706 C   0  0  0  0  0  0  0  0  0  0  0  0
  153.1280  140.4580  159.0332 C   0  0  0  0  0  0  0  0  0  0  0  0
  152.6276  141.7744  158.8799 C   0  0  0  0  0  0  0  0  0  0  0  0
  152.8880  142.8124  159.8007 N   0  0  0  0  0  0  0  0  0  0  0  0
  152.4108  144.1626  159.5230 C   0  0  0  0  0  0  0  0  0  0  0  0
  153.5506  142.5111  161.0628 C   0  0  0  0  0  0  0  0  0  0  0  0
  151.8573  142.0434  157.7974 N   0  3  0  0  0  0  0  0  0  0  0  0
  151.5397  141.1326  156.8521 C   0  0  0  0  0  0  0  0  0  0  0  0
  149.2392  134.4179  153.8755 N   0  3  0  0  0  0  0  0  0  0  0  0
  149.2759  133.0272  153.3582 C   0  0  0  0  0  0  0  0  0  0  0  0
  148.0149  132.7353  152.5269 C   0  0  0  0  0  0  0  0  0  0  0  0
  146.8525  132.9670  153.3135 O   0  0  0  0  0  0  0  0  0  0  0  0
  146.7646  134.3178  153.7512 C   0  0  0  0  0  0  0  0  0  0  0  0
  147.9781  134.6496  154.6339 C   0  0  0  0  0  0  0  0  0  0  0  0
  151.8676  134.1911  156.1476 H   0  0  0  0  0  0  0  0  0  0  0  0
  150.8597  132.9137  155.5126 H   0  0  0  0  0  0  0  0  0  0  0  0
  150.1725  134.1112  156.6030 H   0  0  0  0  0  0  0  0  0  0  0  0
  151.3050  134.6874  153.8105 H   0  0  0  0  0  0  0  0  0  0  0  0
  149.8000  136.8504  154.1258 H   0  0  0  0  0  0  0  0  0  0  0  0
  150.0548  136.5427  155.8096 H   0  0  0  0  0  0  0  0  0  0  0  0
  150.8286  138.8544  155.5669 H   0  0  0  0  0  0  0  0  0  0  0  0
  153.1987  138.4694  158.1895 H   0  0  0  0  0  0  0  0  0  0  0  0
  153.7428  140.1820  159.8767 H   0  0  0  0  0  0  0  0  0  0  0  0
  151.3237  144.1743  159.4351 H   0  0  0  0  0  0  0  0  0  0  0  0
  152.8385  144.5362  158.5922 H   0  0  0  0  0  0  0  0  0  0  0  0
  152.6897  144.8540  160.3187 H   0  0  0  0  0  0  0  0  0  0  0  0
  154.5455  142.1016  160.8855 H   0  0  0  0  0  0  0  0  0  0  0  0
  152.9713  141.7865  161.6360 H   0  0  0  0  0  0  0  0  0  0  0  0
  153.6643  143.4064  161.6746 H   0  0  0  0  0  0  0  0  0  0  0  0
  150.8984  141.4995  156.0650 H   0  0  0  0  0  0  0  0  0  0  0  0
  150.1582  132.8803  152.7340 H   0  0  0  0  0  0  0  0  0  0  0  0
  149.3493  132.3260  154.1906 H   0  0  0  0  0  0  0  0  0  0  0  0
  147.9890  133.3559  151.6298 H   0  0  0  0  0  0  0  0  0  0  0  0
  148.0160  131.6971  152.1950 H   0  0  0  0  0  0  0  0  0  0  0  0
  146.7091  134.9909  152.8940 H   0  0  0  0  0  0  0  0  0  0  0  0
  145.8419  134.4456  154.3174 H   0  0  0  0  0  0  0  0  0  0  0  0
  147.9525  134.0233  155.5265 H   0  0  0  0  0  0  0  0  0  0  0  0
  147.9121  135.6859  154.9664 H   0  0  0  0  0  0  0  0  0  0  0  0
  151.4896  142.9888  157.6912 H   0  0  0  0  0  0  0  0  0  0  0  0
  149.1796  135.0014  153.0529 H   0  0  0  0  0  0  0  0  0  0  0  0
  1  2  1  0  0  0  0
  1 23  1  0  0  0  0
  1 24  1  0  0  0  0
  1 25  1  0  0  0  0
  2  3  1  0  0  0  0
  2 17  1  0  0  0  0
  2 26  1  0  0  0  0
  3  4  1  0  0  0  0
  3 27  1  0  0  0  0
  3 28  1  0  0  0  0
  4  5  1  0  0  0  0
  5  6  2  0  0  0  0
  5  7  1  0  0  0  0
  7  8  1  0  0  0  0
  7 29  1  0  0  0  0
  8 16  1  0  0  0  0
  8  9  2  0  0  0  0
  9 10  1  0  0  0  0
  9 30  1  0  0  0  0
 10 11  2  0  0  0  0
 10 31  1  0  0  0  0
 11 12  1  0  0  0  0
 11 15  1  0  0  0  0
 12 13  1  0  0  0  0
 12 14  1  0  0  0  0
 13 32  1  0  0  0  0
 13 33  1  0  0  0  0
 13 34  1  0  0  0  0
 14 35  1  0  0  0  0
 14 36  1  0  0  0  0
 14 37  1  0  0  0  0
 15 16  2  0  0  0  0
 15 47  1  0  0  0  0
 16 38  1  0  0  0  0
 17 22  1  0  0  0  0
 17 18  1  0  0  0  0
 17 48  1  0  0  0  0
 18 19  1  0  0  0  0
 18 39  1  0  0  0  0
 18 40  1  0  0  0  0
 19 20  1  0  0  0  0
 19 41  1  0  0  0  0
 19 42  1  0  0  0  0
 20 21  1  0  0  0  0
 21 22  1  0  0  0  0
 21 43  1  0  0  0  0
 21 44  1  0  0  0  0
 22 45  1  0  0  0  0
 22 46  1  0  0  0  0
M  CHG  1   4  -1
M  CHG  1  15   1
M  CHG  1  17   1
M  END
> <s_m_source_file>
AV-unprocessed.smi

> <i_m_source_file_index>
1239

> <i_lp_mmshare_version>
43012

> <i_f3d_flags>
0

> <s_epik_input>
W0NIMl0xW0NIMl1PW0NIMl1bQ0gyXU4xW0NASF0oW0NIM10pW0NIMl1bTkhdQyg9TylbTkhdYzJbY0hdW2NIXWMoTihbQ0gzXSlbQ0gzXSluW2NIXTI=

> <s_epik_cmdline>
J2VwaWtfcHl0aG9uJywgJy1waCcsICc3LjAnLCAnLXRuJywgJzgnLCAnLW1hJywgJzIwMCcsICctbWV0YWxfYmluZGluZycsICctaW1hZScsICc8aW5maWxlLm1hZT4nLCAnLW9tYWUnLCAnPG91dGZpbGUubWFlPic=

> <r_lp_tautomer_probability>
0.999994

> <r_epik_Ionization_Penalty>
7.43905

> <r_epik_Ionization_Penalty_Charging>
7.43905

> <r_epik_Ionization_Penalty_Neutral>
3.43851e-06

> <r_epik_State_Penalty>
7.63789

> <r_epik_Charging_Adjusted_Penalty>
15.0769

> <i_epik_Tot_Q>
1

> <i_epik_Tot_abs_Q>
3

> <r_epik_Metal_State_Penalty>
3.83826

> <b_epik_Metal_Only>
1

> <s_lp_Force_Field>
OPLS_2005

> <r_lp_Energy>
24.2949

> <b_lp_Chiralities_Consistent>
1

> <s_lp_Variant>
AV-unprocessed.smi:1239-9

> <Gold.Version>
5.8.1

> <Gold.Id.Protein>
6NUR|6NUR_protein|mol2

> <Gold.PLP.Fitness>
48.0671

> <Gold.PLP.PLP>
-38.1157

> <Gold.PLP.part.hbond>
-2.8872

> <Gold.PLP.part.metal>
0.0000

> <Gold.PLP.part.buried>
-5.4513

> <Gold.PLP.part.nonpolar>
-31.4055

> <Gold.PLP.part.repulsive>
0.3708

> <Gold.PLP.ligand.clash>
0.0000

> <Gold.PLP.ligand.torsion>
1.1496

> <Gold.PLP.Chemscore.Hbond>
4.0000

> <Gold.PLP.Chemscore.CHOScore>
0.0000

> <Gold.PLP.Chemscore.Metal>
0.0000

> <Gold.Chemscore.Hbonds>
donor molecule, donor type, donor heavy atom, donor atom, acceptor molecule, acceptor atom, score
      L1  H    17    48       P1  7948  1.20
      P1  H 10752 10764       L1     4  2.00

> <Gold.PLP.Chemscore.Internal.Correction>
0.2508

> <Gold.Rescore>
     Score         DG    S(hbond)    S(metal)    S(lipo)     H(rot)  DE(clash)    DE(int)     intcor
     12.97     -15.56       1.37        0.00      79.50       1.48       0.02       2.57       ----

> <Gold.Chemscore.Fitness>
12.9688

> <Gold.Chemscore.DG>
-15.5614

> <Gold.Chemscore.ZeroCoef>
-5.4800

> <Gold.Chemscore.Hbond>
1.3702

> <Gold.Chemscore.Metal>
0.0000

> <Gold.Chemscore.Lipo>
79.4987

> <Gold.Chemscore.Internal_Hbond>
0.0000

> <Gold.Chemscore.DEClash>
0.0226

> <Gold.Chemscore.DEInternal>
2.5701

> <Gold.Chemscore.Rot>
1.4830

> <Gold.Chemscore.Internal.Correction>
   9.000000E+99

> <Gold.Chemscore.Hbonds>
donor molecule, donor type, donor heavy atom, donor atom, acceptor molecule, acceptor atom, score
      L1  H    17    48       P1  7948  0.04
      P1  H 10752 10764       L1     4  0.38
      P1  H 10752 10765       L1     6  0.01

> <Gold.Chemscore.Hbond.Weighted>
-4.5765

> <Gold.Chemscore.Metal.Weighted>
-0.0000

> <Gold.Chemscore.Lipo.Weighted>
-9.3013

> <Gold.Chemscore.Internal_Hbond.Weighted>
0.0000

> <Gold.Chemscore.DEClash.Weighted>
0.0226

> <Gold.Chemscore.DEInternal.Weighted>
2.5701

> <Gold.Chemscore.Rot.Weighted>
3.7964

> <Gold.Chemscore.Internal.Correction.Weighted>
   9.000000E+99

> <Gold.Protein.RotatedTorsions>
[ 6907 6896 6895 6894 ] final   69.28 input  -60.11 | X-H torsion
[ 7974 7965 7964 7962 ] final  -27.85 input  175.53 | X-H torsion
[ 8008 7997 7996 7995 ] final  -14.74 input   59.86 | X-H torsion
[ 10167 10162 10161 10158 ] final   47.34 input  -65.29 | X-H torsion
[ 10718 10713 10712 10709 ] final   34.95 input   66.30 | X-H torsion
[ 10763 10752 10751 10750 ] final  -77.85 input  -60.55 | X-H torsion
[ 11005 11000 10999 10996 ] final  100.26 input  -57.11 | X-H torsion

> <Gold.Protein.ActiveResidues>
 VAL166  LYS551  ARG553  GLY616  TRP617  ASP618  TYR619  PRO620  LYS621  CYS622 
 ASP623  PHE694  ASN695  SER759  ASP760  ASP761  ALA762  ILE779  LEU786  VAL792 
 PHE793  MET794  SER795  GLU796  ALA797  LYS798  CYS799  TRP800  GLU811  SER814 

> <Gold.Protein.RotatedAtoms>
  152.4676  134.5038  159.9732 H   0  0  0  0  0  0  0  0  0  0  0  0  # atno 6907 bound_to 6896
  151.5072  133.3486  159.2887 H   0  0  0  0  0  0  0  0  0  0  0  0  # atno 6908 bound_to 6896
  150.8668  134.8062  159.7187 H   0  0  0  0  0  0  0  0  0  0  0  0  # atno 6909 bound_to 6896
  146.1329  140.5206  142.8685 H   0  0  0  0  0  0  0  0  0  0  0  0  # atno 7974 bound_to 7965
  154.5186  140.2215  155.9019 H   0  0  0  0  0  0  0  0  0  0  0  0  # atno 8008 bound_to 7997
  156.1636  140.3137  155.8815 H   0  0  0  0  0  0  0  0  0  0  0  0  # atno 8009 bound_to 7997
  155.3702  140.0466  157.3036 H   0  0  0  0  0  0  0  0  0  0  0  0  # atno 8010 bound_to 7997
  140.3046  144.2893  150.6212 H   0  0  0  0  0  0  0  0  0  0  0  0  # atno 10167 bound_to 10162
  157.3167  130.7427  149.6759 H   0  0  0  0  0  0  0  0  0  0  0  0  # atno 10718 bound_to 10713
  154.5183  135.5750  153.6660 H   0  0  0  0  0  0  0  0  0  0  0  0  # atno 10763 bound_to 10752
  152.9911  135.6175  154.2788 H   0  0  0  0  0  0  0  0  0  0  0  0  # atno 10764 bound_to 10752
  154.2707  135.2853  155.2719 H   0  0  0  0  0  0  0  0  0  0  0  0  # atno 10765 bound_to 10752
  139.8771  134.9132  156.4730 H   0  0  0  0  0  0  0  0  0  0  0  0  # atno 11005 bound_to 11000
  144.7709  140.5635  143.6671 LP  0  0  0  0  0  0  0  0  0  0  0  0  # atno 17320 bound_to 7965
  145.5221  139.1476  143.3546 LP  0  0  0  0  0  0  0  0  0  0  0  0  # atno 17321 bound_to 7965
  140.5621  143.2191  151.7746 LP  0  0  0  0  0  0  0  0  0  0  0  0  # atno 17342 bound_to 10162
  139.4907  144.4334  151.9847 LP  0  0  0  0  0  0  0  0  0  0  0  0  # atno 17343 bound_to 10162
  155.9682  130.4235  150.4566 LP  0  0  0  0  0  0  0  0  0  0  0  0  # atno 17370 bound_to 10713
  157.2574  131.0559  151.2342 LP  0  0  0  0  0  0  0  0  0  0  0  0  # atno 17371 bound_to 10713
  140.8782  133.7937  155.9438 LP  0  0  0  0  0  0  0  0  0  0  0  0  # atno 17394 bound_to 11000
  140.8882  134.2528  157.5109 LP  0  0  0  0  0  0  0  0  0  0  0  0  # atno 17395 bound_to 11000

$$$$
