AV-unprocessed.smi:2822|AV-procd|sdf|10882|dock4
  -GOLD-   2272015323D 1   1.00000     0.00000
 Structure written by MMmdl.
 39 41  0  0  0  0  0  0  0  0  1 V2000
  151.1901  144.3478  160.1154 Cl  0  0  0  0  0  0  0  0  0  0  0  0
  152.1992  142.9635  160.3525 C   0  0  0  0  0  0  0  0  0  0  0  0
  153.0971  142.9317  161.4390 C   0  0  0  0  0  0  0  0  0  0  0  0
  153.9196  141.8926  161.6949 N   0  0  0  0  0  0  0  0  0  0  0  0
  153.8704  140.8334  160.8607 C   0  0  0  0  0  0  0  0  0  0  0  0
  153.0097  140.7614  159.7473 C   0  0  0  0  0  0  0  0  0  0  0  0
  152.1497  141.8524  159.4790 C   0  0  0  0  0  0  0  0  0  0  0  0
  151.2623  141.8647  158.3923 N   0  0  0  0  0  0  0  0  0  0  0  0
  151.1460  140.7155  157.5078 C   0  0  0  0  0  0  0  0  0  0  0  0
  151.3481  141.1165  156.0343 C   0  0  2  0  0  0  0  0  0  0  0  0
  150.1283  141.8440  155.4371 C   0  0  0  0  0  0  0  0  0  0  0  0
  148.9945  140.9553  155.2109 N   0  0  0  0  0  0  0  0  0  0  0  0
  147.8693  141.6799  154.6211 C   0  0  0  0  0  0  0  0  0  0  0  0
  146.6431  140.7818  154.3948 C   0  0  0  0  0  0  0  0  0  0  0  0
  147.0189  139.5782  153.5191 C   0  0  0  0  0  0  0  0  0  0  0  0
  148.2322  138.8507  154.1179 C   0  0  0  0  0  0  0  0  0  0  0  0
  149.3991  139.8299  154.3635 C   0  0  2  0  0  0  0  0  0  0  0  0
  150.6058  139.0868  154.9700 C   0  0  0  0  0  0  0  0  0  0  0  0
  151.6779  139.9937  155.2140 O   0  0  0  0  0  0  0  0  0  0  0  0
  153.1574  143.7654  162.1231 H   0  0  0  0  0  0  0  0  0  0  0  0
  154.5384  140.0154  161.0870 H   0  0  0  0  0  0  0  0  0  0  0  0
  153.0237  139.8789  159.1257 H   0  0  0  0  0  0  0  0  0  0  0  0
  150.8690  142.7444  158.0890 H   0  0  0  0  0  0  0  0  0  0  0  0
  151.8565  139.9434  157.8025 H   0  0  0  0  0  0  0  0  0  0  0  0
  150.1497  140.2896  157.6305 H   0  0  0  0  0  0  0  0  0  0  0  0
  152.1954  141.8019  155.9903 H   0  0  0  0  0  0  0  0  0  0  0  0
  149.8334  142.6638  156.0932 H   0  0  0  0  0  0  0  0  0  0  0  0
  150.4230  142.3005  154.4908 H   0  0  0  0  0  0  0  0  0  0  0  0
  147.5867  142.5083  155.2715 H   0  0  0  0  0  0  0  0  0  0  0  0
  148.1719  142.1239  153.6714 H   0  0  0  0  0  0  0  0  0  0  0  0
  146.2603  140.4346  155.3553 H   0  0  0  0  0  0  0  0  0  0  0  0
  145.8407  141.3517  153.9257 H   0  0  0  0  0  0  0  0  0  0  0  0
  146.1733  138.8957  153.4284 H   0  0  0  0  0  0  0  0  0  0  0  0
  147.2575  139.9185  152.5107 H   0  0  0  0  0  0  0  0  0  0  0  0
  147.9438  138.3777  155.0577 H   0  0  0  0  0  0  0  0  0  0  0  0
  148.5467  138.0479  153.4502 H   0  0  0  0  0  0  0  0  0  0  0  0
  149.7115  140.2235  153.3945 H   0  0  0  0  0  0  0  0  0  0  0  0
  150.3284  138.5752  155.8921 H   0  0  0  0  0  0  0  0  0  0  0  0
  150.9577  138.3164  154.2834 H   0  0  0  0  0  0  0  0  0  0  0  0
  1  2  1  0  0  0  0
  2  7  1  0  0  0  0
  2  3  2  0  0  0  0
  3  4  1  0  0  0  0
  3 20  1  0  0  0  0
  4  5  2  0  0  0  0
  5  6  1  0  0  0  0
  5 21  1  0  0  0  0
  6  7  2  0  0  0  0
  6 22  1  0  0  0  0
  7  8  1  0  0  0  0
  8  9  1  0  0  0  0
  8 23  1  0  0  0  0
  9 10  1  0  0  0  0
  9 24  1  0  0  0  0
  9 25  1  0  0  0  0
 10 19  1  0  0  0  0
 10 11  1  0  0  0  0
 10 26  1  0  0  0  0
 11 12  1  0  0  0  0
 11 27  1  0  0  0  0
 11 28  1  0  0  0  0
 12 17  1  0  0  0  0
 12 13  1  0  0  0  0
 13 14  1  0  0  0  0
 13 29  1  0  0  0  0
 13 30  1  0  0  0  0
 14 15  1  0  0  0  0
 14 31  1  0  0  0  0
 14 32  1  0  0  0  0
 15 16  1  0  0  0  0
 15 33  1  0  0  0  0
 15 34  1  0  0  0  0
 16 17  1  0  0  0  0
 16 35  1  0  0  0  0
 16 36  1  0  0  0  0
 17 18  1  0  0  0  0
 17 37  1  0  0  0  0
 18 19  1  0  0  0  0
 18 38  1  0  0  0  0
 18 39  1  0  0  0  0
M  END
> <s_m_source_file>
AV-unprocessed.smi

> <i_m_source_file_index>
2822

> <i_lp_mmshare_version>
43012

> <i_f3d_flags>
0

> <s_epik_input>
Q2xjMVtjSF1uW2NIXVtjSF1jMVtOSF1bQ0gyXVtDQEhdKFtDSDJdMilPW0NIMl1bQ0BASF0oTjIzKVtDSDJdW0NIMl1bQ0gyXVtDSDJdMw==

> <s_epik_cmdline>
J2VwaWtfcHl0aG9uJywgJy1waCcsICc3LjAnLCAnLXRuJywgJzgnLCAnLW1hJywgJzIwMCcsICctbWV0YWxfYmluZGluZycsICctaW1hZScsICc8aW5maWxlLm1hZT4nLCAnLW9tYWUnLCAnPG91dGZpbGUubWFlPic=

> <r_lp_tautomer_probability>
0.999999

> <r_epik_Ionization_Penalty>
2.10064

> <r_epik_Ionization_Penalty_Charging>
0

> <r_epik_Ionization_Penalty_Neutral>
2.10064

> <r_epik_State_Penalty>
2.1757

> <r_epik_Charging_Adjusted_Penalty>
2.1757

> <i_epik_Tot_Q>
0

> <i_epik_Tot_abs_Q>
0

> <r_epik_Metal_State_Penalty>
1.25425

> <b_epik_Metal_Only>
0

> <s_lp_Force_Field>
OPLS_2005

> <r_lp_Energy>
40.8538

> <b_lp_Chiralities_Consistent>
1

> <s_lp_Variant>
AV-unprocessed.smi:2822-23

> <Gold.Version>
5.8.1

> <Gold.Id.Protein>
6NUR|6NUR_protein|mol2

> <Gold.PLP.Fitness>
40.9231

> <Gold.PLP.PLP>
-38.7037

> <Gold.PLP.part.hbond>
-1.6153

> <Gold.PLP.part.metal>
0.0000

> <Gold.PLP.part.buried>
-5.3390

> <Gold.PLP.part.nonpolar>
-31.2135

> <Gold.PLP.part.repulsive>
0.2099

> <Gold.PLP.ligand.clash>
0.0000

> <Gold.PLP.ligand.torsion>
0.1659

> <Gold.PLP.Chemscore.Hbond>
0.8482

> <Gold.PLP.Chemscore.CHOScore>
0.0000

> <Gold.PLP.Chemscore.Metal>
0.0000

> <Gold.Chemscore.Hbonds>
donor molecule, donor type, donor heavy atom, donor atom, acceptor molecule, acceptor atom, score
      P1  H  7989  7998       L1    19  0.85

> <Gold.PLP.Chemscore.Internal.Correction>
0.0066

> <Gold.Rescore>
     Score         DG    S(hbond)    S(metal)    S(lipo)     H(rot)  DE(clash)    DE(int)     intcor
     16.15     -16.35       0.01        0.00     117.84       1.15       0.03       0.17       ----

> <Gold.Chemscore.Fitness>
16.1472

> <Gold.Chemscore.DG>
-16.3458

> <Gold.Chemscore.ZeroCoef>
-5.4800

> <Gold.Chemscore.Hbond>
0.0081

> <Gold.Chemscore.Metal>
0.0000

> <Gold.Chemscore.Lipo>
117.8419

> <Gold.Chemscore.Internal_Hbond>
0.0000

> <Gold.Chemscore.DEClash>
0.0308

> <Gold.Chemscore.DEInternal>
0.1678

> <Gold.Chemscore.Rot>
1.1519

> <Gold.Chemscore.Internal.Correction>
   9.000000E+99

> <Gold.Chemscore.Hbonds>
donor molecule, donor type, donor heavy atom, donor atom, acceptor molecule, acceptor atom, score
      P1  H  7989  7998       L1    19  0.04

> <Gold.Chemscore.Hbond.Weighted>
-0.0271

> <Gold.Chemscore.Metal.Weighted>
-0.0000

> <Gold.Chemscore.Lipo.Weighted>
-13.7875

> <Gold.Chemscore.Internal_Hbond.Weighted>
0.0000

> <Gold.Chemscore.DEClash.Weighted>
0.0308

> <Gold.Chemscore.DEInternal.Weighted>
0.1678

> <Gold.Chemscore.Rot.Weighted>
2.9487

> <Gold.Chemscore.Internal.Correction.Weighted>
   9.000000E+99

> <Gold.Protein.RotatedTorsions>
[ 6907 6896 6895 6894 ] final  -48.27 input  -60.11 | X-H torsion
[ 7974 7965 7964 7962 ] final -173.90 input  175.53 | X-H torsion
[ 8008 7997 7996 7995 ] final  163.42 input   59.86 | X-H torsion
[ 10167 10162 10161 10158 ] final -161.48 input  -65.29 | X-H torsion
[ 10718 10713 10712 10709 ] final -134.52 input   66.30 | X-H torsion
[ 10763 10752 10751 10750 ] final  -66.39 input  -60.55 | X-H torsion
[ 11005 11000 10999 10996 ] final   59.25 input  -57.11 | X-H torsion

> <Gold.Protein.ActiveResidues>
 VAL166  LYS551  ARG553  GLY616  TRP617  ASP618  TYR619  PRO620  LYS621  CYS622 
 ASP623  PHE694  ASN695  SER759  ASP760  ASP761  ALA762  ILE779  LEU786  VAL792 
 PHE793  MET794  SER795  GLU796  ALA797  LYS798  CYS799  TRP800  GLU811  SER814 

> <Gold.Protein.RotatedAtoms>
  150.8922  134.8327  159.7301 H   0  0  0  0  0  0  0  0  0  0  0  0  # atno 6907 bound_to 6896
  152.4844  134.4630  159.9621 H   0  0  0  0  0  0  0  0  0  0  0  0  # atno 6908 bound_to 6896
  151.4692  133.3534  159.2856 H   0  0  0  0  0  0  0  0  0  0  0  0  # atno 6909 bound_to 6896
  144.7135  140.1552  143.6381 H   0  0  0  0  0  0  0  0  0  0  0  0  # atno 7974 bound_to 7965
  156.1958  140.1724  156.8001 H   0  0  0  0  0  0  0  0  0  0  0  0  # atno 8008 bound_to 7997
  154.5528  140.0714  156.8726 H   0  0  0  0  0  0  0  0  0  0  0  0  # atno 8009 bound_to 7997
  155.2996  140.3360  155.4250 H   0  0  0  0  0  0  0  0  0  0  0  0  # atno 8010 bound_to 7997
  139.6462  144.0168  152.2129 H   0  0  0  0  0  0  0  0  0  0  0  0  # atno 10167 bound_to 10162
  156.2563  130.7183  151.1101 H   0  0  0  0  0  0  0  0  0  0  0  0  # atno 10718 bound_to 10713
  154.3591  135.6120  153.5681 H   0  0  0  0  0  0  0  0  0  0  0  0  # atno 10763 bound_to 10752
  152.9794  135.5811  154.4654 H   0  0  0  0  0  0  0  0  0  0  0  0  # atno 10764 bound_to 10752
  154.4388  135.2849  155.1839 H   0  0  0  0  0  0  0  0  0  0  0  0  # atno 10765 bound_to 10752
  140.0317  134.6002  155.9498 H   0  0  0  0  0  0  0  0  0  0  0  0  # atno 11005 bound_to 11000
  145.9080  139.2470  143.1454 LP  0  0  0  0  0  0  0  0  0  0  0  0  # atno 17320 bound_to 7965
  145.9744  140.8734  143.0146 LP  0  0  0  0  0  0  0  0  0  0  0  0  # atno 17321 bound_to 7965
  139.9870  144.6388  150.7848 LP  0  0  0  0  0  0  0  0  0  0  0  0  # atno 17342 bound_to 10162
  140.7515  143.2975  151.3167 LP  0  0  0  0  0  0  0  0  0  0  0  0  # atno 17343 bound_to 10162
  157.7234  131.0667  150.6039 LP  0  0  0  0  0  0  0  0  0  0  0  0  # atno 17370 bound_to 10713
  156.6123  130.4383  149.5854 LP  0  0  0  0  0  0  0  0  0  0  0  0  # atno 17371 bound_to 10713
  141.1835  133.6551  156.5118 LP  0  0  0  0  0  0  0  0  0  0  0  0  # atno 17394 bound_to 11000
  140.4214  134.7184  157.4892 LP  0  0  0  0  0  0  0  0  0  0  0  0  # atno 17395 bound_to 11000

$$$$
