AV-unprocessed.smi:155|AV-procd|sdf|1279|dock8
  -GOLD-   2262018553D 1   1.00000     0.00000
 Structure written by MMmdl.
 64 67  0  0  0  0  0  0  0  0  3 V2000
  144.0526  134.7469  150.2384 C   0  0  0  0  0  0  0  0  0  0  0  0
  144.7644  133.5035  149.8674 N   0  3  0  0  0  0  0  0  0  0  0  0
  143.8182  132.3975  149.5932 C   0  0  0  0  0  0  0  0  0  0  0  0
  145.8140  133.1460  150.8551 C   0  0  0  0  0  0  0  0  0  0  0  0
  146.6645  134.3594  151.2868 C   0  0  0  0  0  0  0  0  0  0  0  0
  147.2760  134.1843  152.6316 N   0  3  2  0  0  0  0  0  0  0  0  0
  147.7286  132.7897  152.8845 C   0  0  0  0  0  0  0  0  0  0  0  0
  149.1070  132.7812  153.5684 C   0  0  0  0  0  0  0  0  0  0  0  0
  149.0721  133.2143  155.0435 C   0  0  0  0  0  0  0  0  0  0  0  0
  148.4589  134.5277  155.2305 N   0  0  0  0  0  0  0  0  0  0  0  0
  149.1612  135.6872  155.0438 C   0  0  0  0  0  0  0  0  0  0  0  0
  150.5183  135.6010  154.9844 N   0  0  0  0  0  0  0  0  0  0  0  0
  151.2746  136.6861  154.8067 C   0  0  0  0  0  0  0  0  0  0  0  0
  150.8893  137.9530  154.6692 N   0  0  0  0  0  0  0  0  0  0  0  0
  149.5324  138.0626  154.7247 C   0  0  0  0  0  0  0  0  0  0  0  0
  148.5998  136.9976  154.9086 C   0  0  0  0  0  0  0  0  0  0  0  0
  147.3106  137.5240  154.9180 N   0  0  0  0  0  0  0  0  0  0  0  0
  147.4699  138.8056  154.7384 C   0  0  0  0  0  0  0  0  0  0  0  0
  148.7748  139.2148  154.6112 N   0  0  0  0  0  0  0  0  0  0  0  0
  149.2402  140.5734  154.3941 C   0  0  0  0  0  0  0  0  0  0  0  0
  149.0588  141.4601  155.6420 C   0  0  2  0  0  0  0  0  0  0  0  0
  148.1095  142.4822  155.4008 O   0  0  0  0  0  0  0  0  0  0  0  0
  150.3827  142.0688  156.1468 C   0  0  2  0  0  0  0  0  0  0  0  0
  151.5054  141.0648  156.4628 C   0  0  0  0  0  0  0  0  0  0  0  0
  151.8248  141.3292  157.9233 C   0  0  0  0  0  0  0  0  0  0  0  0
  151.3588  142.7667  158.1120 C   0  0  0  0  0  0  0  0  0  0  0  0
  150.1716  142.8209  157.3387 O   0  0  0  0  0  0  0  0  0  0  0  0
  146.9950  134.5501  155.1543 C   0  0  0  0  0  0  0  0  0  0  0  0
  146.4373  134.7514  153.7265 C   0  0  0  0  0  0  0  0  0  0  0  0
  143.5161  134.6247  151.1806 H   0  0  0  0  0  0  0  0  0  0  0  0
  143.3316  135.0242  149.4684 H   0  0  0  0  0  0  0  0  0  0  0  0
  144.7512  135.5773  150.3473 H   0  0  0  0  0  0  0  0  0  0  0  0
  143.2878  132.1018  150.4996 H   0  0  0  0  0  0  0  0  0  0  0  0
  144.3328  131.5228  149.1957 H   0  0  0  0  0  0  0  0  0  0  0  0
  143.0781  132.7007  148.8515 H   0  0  0  0  0  0  0  0  0  0  0  0
  145.3244  132.7410  151.7425 H   0  0  0  0  0  0  0  0  0  0  0  0
  146.4365  132.3474  150.4499 H   0  0  0  0  0  0  0  0  0  0  0  0
  147.4439  134.5792  150.5562 H   0  0  0  0  0  0  0  0  0  0  0  0
  146.0051  135.2282  151.3145 H   0  0  0  0  0  0  0  0  0  0  0  0
  146.9885  132.2337  153.4622 H   0  0  0  0  0  0  0  0  0  0  0  0
  147.8329  132.2488  151.9434 H   0  0  0  0  0  0  0  0  0  0  0  0
  149.5176  131.7722  153.5213 H   0  0  0  0  0  0  0  0  0  0  0  0
  149.7979  133.4089  153.0047 H   0  0  0  0  0  0  0  0  0  0  0  0
  148.4914  132.4833  155.6071 H   0  0  0  0  0  0  0  0  0  0  0  0
  150.0615  133.1728  155.4945 H   0  0  0  0  0  0  0  0  0  0  0  0
  152.3402  136.5145  154.7673 H   0  0  0  0  0  0  0  0  0  0  0  0
  146.6357  139.4909  154.6896 H   0  0  0  0  0  0  0  0  0  0  0  0
  150.2925  140.5338  154.1104 H   0  0  0  0  0  0  0  0  0  0  0  0
  148.7049  140.9927  153.5414 H   0  0  0  0  0  0  0  0  0  0  0  0
  148.6495  140.8438  156.4437 H   0  0  0  0  0  0  0  0  0  0  0  0
  148.5537  143.3159  155.4384 H   0  0  0  0  0  0  0  0  0  0  0  0
  150.7526  142.7671  155.3944 H   0  0  0  0  0  0  0  0  0  0  0  0
  151.2267  140.0247  156.2907 H   0  0  0  0  0  0  0  0  0  0  0  0
  152.3765  141.2759  155.8415 H   0  0  0  0  0  0  0  0  0  0  0  0
  151.2364  140.6653  158.5581 H   0  0  0  0  0  0  0  0  0  0  0  0
  152.8785  141.1866  158.1645 H   0  0  0  0  0  0  0  0  0  0  0  0
  151.1714  143.0177  159.1562 H   0  0  0  0  0  0  0  0  0  0  0  0
  152.0904  143.4703  157.7117 H   0  0  0  0  0  0  0  0  0  0  0  0
  146.6244  133.5982  155.5357 H   0  0  0  0  0  0  0  0  0  0  0  0
  146.5822  135.2963  155.8343 H   0  0  0  0  0  0  0  0  0  0  0  0
  146.3420  135.8237  153.5598 H   0  0  0  0  0  0  0  0  0  0  0  0
  145.4270  134.3431  153.6737 H   0  0  0  0  0  0  0  0  0  0  0  0
  145.2377  133.7041  148.9977 H   0  0  0  0  0  0  0  0  0  0  0  0
  148.1253  134.7311  152.6155 H   0  0  0  0  0  0  0  0  0  0  0  0
  1  2  1  0  0  0  0
  1 30  1  0  0  0  0
  1 31  1  0  0  0  0
  1 32  1  0  0  0  0
  2  3  1  0  0  0  0
  2  4  1  0  0  0  0
  2 63  1  0  0  0  0
  3 33  1  0  0  0  0
  3 34  1  0  0  0  0
  3 35  1  0  0  0  0
  4  5  1  0  0  0  0
  4 36  1  0  0  0  0
  4 37  1  0  0  0  0
  5  6  1  0  0  0  0
  5 38  1  0  0  0  0
  5 39  1  0  0  0  0
  6 29  1  0  0  0  0
  6  7  1  0  0  0  0
  6 64  1  0  0  0  0
  7  8  1  0  0  0  0
  7 40  1  0  0  0  0
  7 41  1  0  0  0  0
  8  9  1  0  0  0  0
  8 42  1  0  0  0  0
  8 43  1  0  0  0  0
  9 10  1  0  0  0  0
  9 44  1  0  0  0  0
  9 45  1  0  0  0  0
 10 11  1  0  0  0  0
 10 28  1  0  0  0  0
 11 16  1  0  0  0  0
 11 12  2  0  0  0  0
 12 13  1  0  0  0  0
 13 14  2  0  0  0  0
 13 46  1  0  0  0  0
 14 15  1  0  0  0  0
 15 19  1  0  0  0  0
 15 16  2  0  0  0  0
 16 17  1  0  0  0  0
 17 18  2  0  0  0  0
 18 19  1  0  0  0  0
 18 47  1  0  0  0  0
 19 20  1  0  0  0  0
 20 21  1  0  0  0  0
 20 48  1  0  0  0  0
 20 49  1  0  0  0  0
 21 22  1  0  0  0  0
 21 23  1  0  0  0  0
 21 50  1  0  0  0  0
 22 51  1  0  0  0  0
 23 27  1  0  0  0  0
 23 24  1  0  0  0  0
 23 52  1  0  0  0  0
 24 25  1  0  0  0  0
 24 53  1  0  0  0  0
 24 54  1  0  0  0  0
 25 26  1  0  0  0  0
 25 55  1  0  0  0  0
 25 56  1  0  0  0  0
 26 27  1  0  0  0  0
 26 57  1  0  0  0  0
 26 58  1  0  0  0  0
 28 29  1  0  0  0  0
 28 59  1  0  0  0  0
 28 60  1  0  0  0  0
 29 61  1  0  0  0  0
 29 62  1  0  0  0  0
M  CHG  1   2   1
M  CHG  1   6   1
M  END
> <s_m_source_file>
AV-unprocessed.smi

> <i_m_source_file_index>
155

> <i_lp_mmshare_version>
43012

> <i_f3d_flags>
0

> <s_epik_input>
W0NIM11OKFtDSDNdKVtDSDJdW0NIMl1OMVtDSDJdW0NIMl1bQ0gyXU4oW0NIMl1bQ0gyXTEpYyhuW2NIXW4yKWMoYzIzKW5bY0hdbjNbQ0gyXVtDQEhdKFtPSF0pW0NAQEhdNFtDSDJdW0NIMl1bQ0gyXU80

> <s_epik_cmdline>
J2VwaWtfcHl0aG9uJywgJy1waCcsICc3LjAnLCAnLXRuJywgJzgnLCAnLW1hJywgJzIwMCcsICctbWV0YWxfYmluZGluZycsICctaW1hZScsICc8aW5maWxlLm1hZT4nLCAnLW9tYWUnLCAnPG91dGZpbGUubWFlPic=

> <r_lp_tautomer_probability>
1

> <r_epik_Ionization_Penalty>
3.0333

> <r_epik_Ionization_Penalty_Charging>
3.03317

> <r_epik_Ionization_Penalty_Neutral>
0.000131872

> <r_epik_State_Penalty>
1.99939

> <r_epik_Charging_Adjusted_Penalty>
5.03256

> <i_epik_Tot_Q>
2

> <i_epik_Tot_abs_Q>
2

> <r_epik_Metal_State_Penalty>
2.00021

> <b_epik_Metal_Only>
0

> <s_lp_Force_Field>
OPLS_2005

> <r_lp_Energy>
62.7096

> <b_lp_Chiralities_Consistent>
1

> <s_lp_Variant>
AV-unprocessed.smi:155-13

> <Gold.Version>
5.8.1

> <Gold.Id.Protein>
6NUR|6NUR_protein|mol2

> <Gold.PLP.Fitness>
46.4706

> <Gold.PLP.PLP>
-37.8127

> <Gold.PLP.part.hbond>
-2.8504

> <Gold.PLP.part.metal>
0.0000

> <Gold.PLP.part.buried>
-0.9028

> <Gold.PLP.part.nonpolar>
-34.2749

> <Gold.PLP.part.repulsive>
0.8090

> <Gold.PLP.ligand.clash>
0.0000

> <Gold.PLP.ligand.torsion>
1.4589

> <Gold.PLP.Chemscore.Hbond>
3.7280

> <Gold.PLP.Chemscore.CHOScore>
0.0000

> <Gold.PLP.Chemscore.Metal>
0.0000

> <Gold.Chemscore.Hbonds>
donor molecule, donor type, donor heavy atom, donor atom, acceptor molecule, acceptor atom, score
      L1  H     2    63       P1  7921  1.00
      L1  H     6    64       P1  7948  1.79
      L1  H    22    51       P1  8028  0.78

> <Gold.PLP.Chemscore.Internal.Correction>
0.3916

> <Gold.Rescore>
     Score         DG    S(hbond)    S(metal)    S(lipo)     H(rot)  DE(clash)    DE(int)     intcor
     14.97     -18.48       2.60        0.00      96.88       2.75       1.10       2.41       ----

> <Gold.Chemscore.Fitness>
14.9699

> <Gold.Chemscore.DG>
-18.4752

> <Gold.Chemscore.ZeroCoef>
-5.4800

> <Gold.Chemscore.Hbond>
2.6045

> <Gold.Chemscore.Metal>
0.0000

> <Gold.Chemscore.Lipo>
96.8762

> <Gold.Chemscore.Internal_Hbond>
0.0000

> <Gold.Chemscore.DEClash>
1.0954

> <Gold.Chemscore.DEInternal>
2.4100

> <Gold.Chemscore.Rot>
2.7493

> <Gold.Chemscore.Internal.Correction>
   9.000000E+99

> <Gold.Chemscore.Hbonds>
donor molecule, donor type, donor heavy atom, donor atom, acceptor molecule, acceptor atom, score
      L1  H     2    63       P1  7921  0.73
      L1  H     6    64       P1  7948  0.53
      L1  H    22    51       P1  8028  0.78

> <Gold.Chemscore.Hbond.Weighted>
-8.6989

> <Gold.Chemscore.Metal.Weighted>
-0.0000

> <Gold.Chemscore.Lipo.Weighted>
-11.3345

> <Gold.Chemscore.Internal_Hbond.Weighted>
0.0000

> <Gold.Chemscore.DEClash.Weighted>
1.0954

> <Gold.Chemscore.DEInternal.Weighted>
2.4100

> <Gold.Chemscore.Rot.Weighted>
7.0383

> <Gold.Chemscore.Internal.Correction.Weighted>
   9.000000E+99

> <Gold.Protein.RotatedTorsions>
[ 6907 6896 6895 6894 ] final  163.71 input  -60.11 | X-H torsion
[ 7974 7965 7964 7962 ] final  -91.83 input  175.53 | X-H torsion
[ 8008 7997 7996 7995 ] final  168.29 input   59.86 | X-H torsion
[ 10167 10162 10161 10158 ] final  161.00 input  -65.29 | X-H torsion
[ 10718 10713 10712 10709 ] final  153.01 input   66.30 | X-H torsion
[ 10763 10752 10751 10750 ] final  117.85 input  -60.55 | X-H torsion
[ 11005 11000 10999 10996 ] final   49.03 input  -57.11 | X-H torsion

> <Gold.Protein.ActiveResidues>
 VAL166  LYS551  ARG553  GLY616  TRP617  ASP618  TYR619  PRO620  LYS621  CYS622 
 ASP623  PHE694  ASN695  SER759  ASP760  ASP761  ALA762  ILE779  LEU786  VAL792 
 PHE793  MET794  SER795  GLU796  ALA797  LYS798  CYS799  TRP800  GLU811  SER814 

> <Gold.Protein.RotatedAtoms>
  151.9210  133.3585  159.3896 H   0  0  0  0  0  0  0  0  0  0  0  0  # atno 6907 bound_to 6896
  150.7037  134.4635  159.5401 H   0  0  0  0  0  0  0  0  0  0  0  0  # atno 6908 bound_to 6896
  152.2258  134.8369  160.0531 H   0  0  0  0  0  0  0  0  0  0  0  0  # atno 6909 bound_to 6896
  145.4079  140.9542  143.2250 H   0  0  0  0  0  0  0  0  0  0  0  0  # atno 7974 bound_to 7965
  156.1560  140.1594  156.8692 H   0  0  0  0  0  0  0  0  0  0  0  0  # atno 8008 bound_to 7997
  154.5115  140.0800  156.8035 H   0  0  0  0  0  0  0  0  0  0  0  0  # atno 8009 bound_to 7997
  155.3803  140.3405  155.4249 H   0  0  0  0  0  0  0  0  0  0  0  0  # atno 8010 bound_to 7997
  139.4845  144.4579  151.8743 H   0  0  0  0  0  0  0  0  0  0  0  0  # atno 10167 bound_to 10162
  157.2503  131.0777  151.1734 H   0  0  0  0  0  0  0  0  0  0  0  0  # atno 10718 bound_to 10713
  153.5587  135.3525  155.2790 H   0  0  0  0  0  0  0  0  0  0  0  0  # atno 10763 bound_to 10752
  154.8698  135.4131  154.2855 H   0  0  0  0  0  0  0  0  0  0  0  0  # atno 10764 bound_to 10752
  153.3597  135.7059  153.6791 H   0  0  0  0  0  0  0  0  0  0  0  0  # atno 10765 bound_to 10752
  140.1139  134.4919  155.8654 H   0  0  0  0  0  0  0  0  0  0  0  0  # atno 11005 bound_to 11000
  144.8329  139.5598  143.6935 LP  0  0  0  0  0  0  0  0  0  0  0  0  # atno 17320 bound_to 7965
  146.2719  139.6657  142.9290 LP  0  0  0  0  0  0  0  0  0  0  0  0  # atno 17321 bound_to 7965
  140.4040  144.2456  150.5891 LP  0  0  0  0  0  0  0  0  0  0  0  0  # atno 17342 bound_to 10162
  140.5030  143.2312  151.8650 LP  0  0  0  0  0  0  0  0  0  0  0  0  # atno 17343 bound_to 10162
  157.3285  130.6973  149.6310 LP  0  0  0  0  0  0  0  0  0  0  0  0  # atno 17370 bound_to 10713
  155.9666  130.4314  150.4920 LP  0  0  0  0  0  0  0  0  0  0  0  0  # atno 17371 bound_to 10713
  141.2136  133.6736  156.6758 LP  0  0  0  0  0  0  0  0  0  0  0  0  # atno 17394 bound_to 11000
  140.3055  134.8129  157.4133 LP  0  0  0  0  0  0  0  0  0  0  0  0  # atno 17395 bound_to 11000

$$$$
