AV-unprocessed.smi:705|AV-procd|sdf|3450|dock5
  -GOLD-   22720 0433D 1   1.00000     0.00000
 Structure written by MMmdl.
 28 29  0  0  0  0  0  0  0  0  3 V2000
  150.5889  139.3338  153.5996 N   0  0  0  0  0  0  0  0  0  0  0  0
  151.6894  139.2166  154.3466 C   0  0  0  0  0  0  0  0  0  0  0  0
  152.5918  138.4211  154.0907 O   0  0  0  0  0  0  0  0  0  0  0  0
  151.7586  140.1263  155.5365 C   0  0  0  0  0  0  0  0  0  0  0  0
  151.0713  141.3635  155.6243 C   0  0  0  0  0  0  0  0  0  0  0  0
  151.5049  141.7540  156.9443 C   0  0  0  0  0  0  0  0  0  0  0  0
  150.9887  143.0682  157.4977 C   0  0  2  0  0  0  0  0  0  0  0  0
  152.1143  143.8914  158.1505 C   0  0  0  0  0  0  0  0  0  0  0  0
  151.5536  145.1943  158.7409 C   0  0  0  0  0  0  0  0  0  0  0  0
  150.3908  144.9048  159.7049 C   0  0  0  0  0  0  0  0  0  0  0  0
  149.3346  144.1189  159.0305 N   0  3  0  0  0  0  0  0  0  0  0  0
  149.8296  142.8361  158.4859 C   0  0  0  0  0  0  0  0  0  0  0  0
  152.3286  140.8537  157.5129 N   0  0  0  0  0  0  0  0  0  0  0  0
  152.4733  139.8657  156.6471 N   0  5  0  0  0  0  0  0  0  0  0  0
  150.4637  138.7590  152.7804 H   0  0  0  0  0  0  0  0  0  0  0  0
  149.8883  140.0090  153.8725 H   0  0  0  0  0  0  0  0  0  0  0  0
  150.4185  141.8586  154.9159 H   0  0  0  0  0  0  0  0  0  0  0  0
  150.5981  143.6492  156.6604 H   0  0  0  0  0  0  0  0  0  0  0  0
  152.5883  143.3090  158.9420 H   0  0  0  0  0  0  0  0  0  0  0  0
  152.8924  144.1156  157.4200 H   0  0  0  0  0  0  0  0  0  0  0  0
  152.3431  145.7384  159.2603 H   0  0  0  0  0  0  0  0  0  0  0  0
  151.2095  145.8431  157.9342 H   0  0  0  0  0  0  0  0  0  0  0  0
  150.7479  144.3532  160.5759 H   0  0  0  0  0  0  0  0  0  0  0  0
  149.9619  145.8376  160.0715 H   0  0  0  0  0  0  0  0  0  0  0  0
  148.5934  143.9289  159.6898 H   0  0  0  0  0  0  0  0  0  0  0  0
  149.0058  142.3207  157.9913 H   0  0  0  0  0  0  0  0  0  0  0  0
  150.1524  142.2007  159.3122 H   0  0  0  0  0  0  0  0  0  0  0  0
  148.9622  144.6667  158.2683 H   0  0  0  0  0  0  0  0  0  0  0  0
  1  2  1  0  0  0  0
  1 15  1  0  0  0  0
  1 16  1  0  0  0  0
  2  3  2  0  0  0  0
  2  4  1  0  0  0  0
  4 14  1  0  0  0  0
  4  5  2  0  0  0  0
  5  6  1  0  0  0  0
  5 17  1  0  0  0  0
  6  7  1  0  0  0  0
  6 13  2  0  0  0  0
  7 12  1  0  0  0  0
  7  8  1  0  0  0  0
  7 18  1  0  0  0  0
  8  9  1  0  0  0  0
  8 19  1  0  0  0  0
  8 20  1  0  0  0  0
  9 10  1  0  0  0  0
  9 21  1  0  0  0  0
  9 22  1  0  0  0  0
 10 11  1  0  0  0  0
 10 23  1  0  0  0  0
 10 24  1  0  0  0  0
 11 12  1  0  0  0  0
 11 25  1  0  0  0  0
 11 28  1  0  0  0  0
 12 26  1  0  0  0  0
 12 27  1  0  0  0  0
 13 14  1  0  0  0  0
M  CHG  1  11   1
M  CHG  1  14  -1
M  END
> <s_m_source_file>
AV-unprocessed.smi

> <i_m_source_file_index>
705

> <i_lp_mmshare_version>
43012

> <i_f3d_flags>
0

> <s_epik_input>
W05IMl1DKD1PKWMxW2NIXWMoW25IXW4xKVtDQEBIXTJbQ0gyXVtDSDJdW0NIMl1bTkhdW0NIMl0y

> <s_epik_cmdline>
J2VwaWtfcHl0aG9uJywgJy1waCcsICc3LjAnLCAnLXRuJywgJzgnLCAnLW1hJywgJzIwMCcsICctbWV0YWxfYmluZGluZycsICctaW1hZScsICc8aW5maWxlLm1hZT4nLCAnLW9tYWUnLCAnPG91dGZpbGUubWFlPic=

> <r_lp_tautomer_probability>
0.5

> <r_epik_Ionization_Penalty>
8.1602

> <r_epik_Ionization_Penalty_Charging>
5.25561

> <r_epik_Ionization_Penalty_Neutral>
2.90459

> <r_epik_State_Penalty>
5.66605

> <r_epik_Charging_Adjusted_Penalty>
10.9217

> <i_epik_Tot_Q>
0

> <i_epik_Tot_abs_Q>
2

> <r_epik_Metal_State_Penalty>
1.68656

> <b_epik_Metal_Only>
1

> <s_lp_Force_Field>
OPLS_2005

> <r_lp_Energy>
5.1844

> <b_lp_Chiralities_Consistent>
1

> <s_lp_Variant>
AV-unprocessed.smi:705-5

> <Gold.Version>
5.8.1

> <Gold.Id.Protein>
6NUR|6NUR_protein|mol2

> <Gold.PLP.Fitness>
39.8667

> <Gold.PLP.PLP>
-29.2760

> <Gold.PLP.part.hbond>
-3.0977

> <Gold.PLP.part.metal>
0.0000

> <Gold.PLP.part.buried>
-3.5465

> <Gold.PLP.part.nonpolar>
-21.5951

> <Gold.PLP.part.repulsive>
0.2733

> <Gold.PLP.ligand.clash>
0.0000

> <Gold.PLP.ligand.torsion>
0.7153

> <Gold.PLP.Chemscore.Hbond>
4.0000

> <Gold.PLP.Chemscore.CHOScore>
0.0000

> <Gold.PLP.Chemscore.Metal>
0.0000

> <Gold.Chemscore.Hbonds>
donor molecule, donor type, donor heavy atom, donor atom, acceptor molecule, acceptor atom, score
      L1  H     1    15       P1  7957  0.10
      L1  H    11    28       P1  8029  2.00
      P1  H  7997  8009       L1    14  1.50

> <Gold.PLP.Chemscore.Internal.Correction>
0.0213

> <Gold.Rescore>
     Score         DG    S(hbond)    S(metal)    S(lipo)     H(rot)  DE(clash)    DE(int)     intcor
     15.61     -16.55       1.95        0.00      60.93       1.00       0.09       0.86       ----

> <Gold.Chemscore.Fitness>
15.6107

> <Gold.Chemscore.DG>
-16.5534

> <Gold.Chemscore.ZeroCoef>
-5.4800

> <Gold.Chemscore.Hbond>
1.9475

> <Gold.Chemscore.Metal>
0.0000

> <Gold.Chemscore.Lipo>
60.9278

> <Gold.Chemscore.Internal_Hbond>
0.0000

> <Gold.Chemscore.DEClash>
0.0876

> <Gold.Chemscore.DEInternal>
0.8551

> <Gold.Chemscore.Rot>
1.0000

> <Gold.Chemscore.Internal.Correction>
   9.000000E+99

> <Gold.Chemscore.Hbonds>
donor molecule, donor type, donor heavy atom, donor atom, acceptor molecule, acceptor atom, score
      L1  H     1    15       P1  7957  0.03
      L1  H    11    28       P1  8029  0.44
      P1  H  7997  8009       L1    14  0.08

> <Gold.Chemscore.Hbond.Weighted>
-6.5048

> <Gold.Chemscore.Metal.Weighted>
-0.0000

> <Gold.Chemscore.Lipo.Weighted>
-7.1286

> <Gold.Chemscore.Internal_Hbond.Weighted>
0.0000

> <Gold.Chemscore.DEClash.Weighted>
0.0876

> <Gold.Chemscore.DEInternal.Weighted>
0.8551

> <Gold.Chemscore.Rot.Weighted>
2.5600

> <Gold.Chemscore.Internal.Correction.Weighted>
   9.000000E+99

> <Gold.Protein.RotatedTorsions>
[ 6907 6896 6895 6894 ] final -169.40 input  -60.11 | X-H torsion
[ 7974 7965 7964 7962 ] final   64.49 input  175.53 | X-H torsion
[ 8008 7997 7996 7995 ] final -166.64 input   59.86 | X-H torsion
[ 10167 10162 10161 10158 ] final   39.80 input  -65.29 | X-H torsion
[ 10718 10713 10712 10709 ] final -103.61 input   66.30 | X-H torsion
[ 10763 10752 10751 10750 ] final   27.85 input  -60.55 | X-H torsion
[ 11005 11000 10999 10996 ] final   96.94 input  -57.11 | X-H torsion

> <Gold.Protein.ActiveResidues>
 VAL166  LYS551  ARG553  GLY616  TRP617  ASP618  TYR619  PRO620  LYS621  CYS622 
 ASP623  PHE694  ASN695  SER759  ASP760  ASP761  ALA762  ILE779  LEU786  VAL792 
 PHE793  MET794  SER795  GLU796  ALA797  LYS798  CYS799  TRP800  GLU811  SER814 

> <Gold.Protein.RotatedAtoms>
  151.4911  133.3525  159.2853 H   0  0  0  0  0  0  0  0  0  0  0  0  # atno 6907 bound_to 6896
  150.8834  134.8230  159.7252 H   0  0  0  0  0  0  0  0  0  0  0  0  # atno 6908 bound_to 6896
  152.4777  134.4811  159.9718 H   0  0  0  0  0  0  0  0  0  0  0  0  # atno 6909 bound_to 6896
  145.8496  139.3246  143.0883 H   0  0  0  0  0  0  0  0  0  0  0  0  # atno 7974 bound_to 7965
  155.8666  140.0986  157.1578 H   0  0  0  0  0  0  0  0  0  0  0  0  # atno 8008 bound_to 7997
  154.3994  140.1355  156.4089 H   0  0  0  0  0  0  0  0  0  0  0  0  # atno 8009 bound_to 7997
  155.7797  140.3459  155.5293 H   0  0  0  0  0  0  0  0  0  0  0  0  # atno 8010 bound_to 7997
  140.3804  144.1987  150.6131 H   0  0  0  0  0  0  0  0  0  0  0  0  # atno 10167 bound_to 10162
  156.0272  130.5475  150.7277 H   0  0  0  0  0  0  0  0  0  0  0  0  # atno 10718 bound_to 10713
  153.0529  135.6527  154.0649 H   0  0  0  0  0  0  0  0  0  0  0  0  # atno 10763 bound_to 10752
  154.0333  135.2909  155.3367 H   0  0  0  0  0  0  0  0  0  0  0  0  # atno 10764 bound_to 10752
  154.6828  135.5313  153.8352 H   0  0  0  0  0  0  0  0  0  0  0  0  # atno 10765 bound_to 10752
  139.8778  134.8976  156.4234 H   0  0  0  0  0  0  0  0  0  0  0  0  # atno 11005 bound_to 11000
  145.9373  140.9005  143.0326 LP  0  0  0  0  0  0  0  0  0  0  0  0  # atno 17320 bound_to 7965
  144.6729  140.1500  143.7431 LP  0  0  0  0  0  0  0  0  0  0  0  0  # atno 17321 bound_to 7965
  140.4943  143.2337  151.8772 LP  0  0  0  0  0  0  0  0  0  0  0  0  # atno 17342 bound_to 10162
  139.4796  144.5131  151.8905 LP  0  0  0  0  0  0  0  0  0  0  0  0  # atno 17343 bound_to 10162
  157.4877  131.0908  151.0463 LP  0  0  0  0  0  0  0  0  0  0  0  0  # atno 17370 bound_to 10713
  157.0878  130.5929  149.5433 LP  0  0  0  0  0  0  0  0  0  0  0  0  # atno 17371 bound_to 10713
  140.9118  133.7706  155.9800 LP  0  0  0  0  0  0  0  0  0  0  0  0  # atno 17394 bound_to 11000
  140.8538  134.2922  157.5264 LP  0  0  0  0  0  0  0  0  0  0  0  0  # atno 17395 bound_to 11000

$$$$
