AV-unprocessed.smi:287|AV-procd|sdf|2208|dock5
  -GOLD-   2262022 43D 1   1.00000     0.00000
 Structure written by MMmdl.
 55 58  0  0  0  0  0  0  0  0  1 V2000
  153.2423  142.8120  162.6869 C   0  0  0  0  0  0  0  0  0  0  0  0
  152.4890  143.0142  161.4170 C   0  0  0  0  0  0  0  0  0  0  0  0
  152.3164  142.2637  160.2905 C   0  0  0  0  0  0  0  0  0  0  0  0
  151.4793  143.0077  159.4061 C   0  0  0  0  0  0  0  0  0  0  0  0
  151.0047  142.5685  158.0265 C   0  0  2  0  0  0  0  0  0  0  0  0
  151.8045  141.3470  157.5375 C   0  0  0  0  0  0  0  0  0  0  0  0
  151.2234  143.5563  157.0378 O   0  0  0  0  0  0  0  0  0  0  0  0
  149.4927  142.2510  158.0033 C   0  0  0  0  0  0  0  0  0  0  0  0
  148.9188  142.3010  156.6649 N   0  0  0  0  0  0  0  0  0  0  0  0
  148.4692  141.1825  156.0583 C   0  0  0  0  0  0  0  0  0  0  0  0
  148.7096  141.1064  154.7277 N   0  0  0  0  0  0  0  0  0  0  0  0
  148.3103  140.0381  154.0331 C   0  0  0  0  0  0  0  0  0  0  0  0
  147.6672  138.9539  154.4684 N   0  0  0  0  0  0  0  0  0  0  0  0
  147.4159  139.0214  155.8079 C   0  0  0  0  0  0  0  0  0  0  0  0
  147.7791  140.0948  156.6728 C   0  0  0  0  0  0  0  0  0  0  0  0
  147.3500  139.8059  157.9642 N   0  0  0  0  0  0  0  0  0  0  0  0
  146.7759  138.6385  157.8634 C   0  0  0  0  0  0  0  0  0  0  0  0
  146.7751  138.0908  156.6014 N   0  0  0  0  0  0  0  0  0  0  0  0
  146.2021  136.7750  156.1832 C   0  0  1  0  0  0  0  0  0  0  0  0
  145.1003  137.0200  155.3638 O   0  0  0  0  0  0  0  0  0  0  0  0
  145.1144  136.1217  154.2602 C   0  0  1  0  0  0  0  0  0  0  0  0
  144.3219  136.7268  153.0909 C   0  0  0  0  0  0  0  0  0  0  0  0
  145.0295  137.8146  152.5353 O   0  0  0  0  0  0  0  0  0  0  0  0
  146.6102  135.9745  153.9751 C   0  0  2  0  0  0  0  0  0  0  0  0
  146.9222  134.8199  153.2164 O   0  0  0  0  0  0  0  0  0  0  0  0
  147.2259  135.9641  155.3723 C   0  0  2  0  0  0  0  0  0  0  0  0
  147.3509  134.6526  155.8918 O   0  0  0  0  0  0  0  0  0  0  0  0
  151.1950  144.1669  160.0877 C   0  0  0  0  0  0  0  0  0  0  0  0
  150.3696  145.3726  159.7808 C   0  0  0  0  0  0  0  0  0  0  0  0
  151.8069  144.1810  161.3044 O   0  0  0  0  0  0  0  0  0  0  0  0
  145.8965  136.2939  157.1138 H   0  0  0  0  0  0  0  0  0  0  0  0
  144.7014  135.1593  154.5697 H   0  0  0  0  0  0  0  0  0  0  0  0
  146.9675  136.8496  153.4322 H   0  0  0  0  0  0  0  0  0  0  0  0
  148.2080  136.4396  155.3823 H   0  0  0  0  0  0  0  0  0  0  0  0
  153.7151  141.8299  162.7071 H   0  0  0  0  0  0  0  0  0  0  0  0
  152.5768  142.8848  163.5474 H   0  0  0  0  0  0  0  0  0  0  0  0
  154.0226  143.5651  162.7971 H   0  0  0  0  0  0  0  0  0  0  0  0
  152.7457  141.2876  160.1202 H   0  0  0  0  0  0  0  0  0  0  0  0
  151.6690  140.4882  158.1956 H   0  0  0  0  0  0  0  0  0  0  0  0
  152.8729  141.5629  157.4945 H   0  0  0  0  0  0  0  0  0  0  0  0
  151.4906  141.0382  156.5394 H   0  0  0  0  0  0  0  0  0  0  0  0
  150.3905  143.7896  156.6575 H   0  0  0  0  0  0  0  0  0  0  0  0
  149.2960  141.2854  158.4712 H   0  0  0  0  0  0  0  0  0  0  0  0
  148.9715  143.0044  158.5955 H   0  0  0  0  0  0  0  0  0  0  0  0
  148.9365  143.2058  156.2165 H   0  0  0  0  0  0  0  0  0  0  0  0
  148.5404  140.0536  152.9781 H   0  0  0  0  0  0  0  0  0  0  0  0
  146.3379  138.1387  158.7154 H   0  0  0  0  0  0  0  0  0  0  0  0
  144.1110  135.9784  152.3262 H   0  0  0  0  0  0  0  0  0  0  0  0
  143.3631  137.1082  153.4433 H   0  0  0  0  0  0  0  0  0  0  0  0
  144.4989  138.5923  152.6181 H   0  0  0  0  0  0  0  0  0  0  0  0
  147.8091  134.8994  152.8997 H   0  0  0  0  0  0  0  0  0  0  0  0
  148.2166  134.5626  156.2607 H   0  0  0  0  0  0  0  0  0  0  0  0
  150.8096  145.9431  158.9630 H   0  0  0  0  0  0  0  0  0  0  0  0
  150.2946  146.0310  160.6469 H   0  0  0  0  0  0  0  0  0  0  0  0
  149.3590  145.0854  159.4897 H   0  0  0  0  0  0  0  0  0  0  0  0
  1  2  1  0  0  0  0
  1 35  1  0  0  0  0
  1 36  1  0  0  0  0
  1 37  1  0  0  0  0
  2 30  1  0  0  0  0
  2  3  2  0  0  0  0
  3  4  1  0  0  0  0
  3 38  1  0  0  0  0
  4  5  1  0  0  0  0
  4 28  2  0  0  0  0
  5  6  1  0  0  0  0
  5  7  1  0  0  0  0
  5  8  1  0  0  0  0
  6 39  1  0  0  0  0
  6 40  1  0  0  0  0
  6 41  1  0  0  0  0
  7 42  1  0  0  0  0
  8  9  1  0  0  0  0
  8 43  1  0  0  0  0
  8 44  1  0  0  0  0
  9 10  1  0  0  0  0
  9 45  1  0  0  0  0
 10 15  1  0  0  0  0
 10 11  2  0  0  0  0
 11 12  1  0  0  0  0
 12 13  2  0  0  0  0
 12 46  1  0  0  0  0
 13 14  1  0  0  0  0
 14 18  1  0  0  0  0
 14 15  2  0  0  0  0
 15 16  1  0  0  0  0
 16 17  2  0  0  0  0
 17 18  1  0  0  0  0
 17 47  1  0  0  0  0
 18 19  1  0  0  0  0
 19 31  1  0  0  0  0
 19 26  1  0  0  0  0
 19 20  1  0  0  0  0
 20 21  1  0  0  0  0
 21 32  1  0  0  0  0
 21 22  1  0  0  0  0
 21 24  1  0  0  0  0
 22 23  1  0  0  0  0
 22 48  1  0  0  0  0
 22 49  1  0  0  0  0
 23 50  1  0  0  0  0
 24 33  1  0  0  0  0
 24 25  1  0  0  0  0
 24 26  1  0  0  0  0
 25 51  1  0  0  0  0
 26 34  1  0  0  0  0
 26 27  1  0  0  0  0
 27 52  1  0  0  0  0
 28 29  1  0  0  0  0
 28 30  1  0  0  0  0
 29 53  1  0  0  0  0
 29 54  1  0  0  0  0
 29 55  1  0  0  0  0
M  END
> <s_m_source_file>
AV-unprocessed.smi

> <i_m_source_file_index>
287

> <i_lp_mmshare_version>
43012

> <i_f3d_flags>
0

> <s_epik_input>
W0NIM11jMVtjSF1jKGMobzEpW0NIM10pW0NAQF0oW0NIM10pKFtPSF0pW0NIMl1bTkhdYyhuW2NIXW4yKWMoYzIzKW5bY0hdbjNbQ0BASF00T1tDQEhdKFtDSDJdW09IXSlbQ0BASF0oW09IXSlbQ0BIXTRbT0hd

> <s_epik_cmdline>
J2VwaWtfcHl0aG9uJywgJy1waCcsICc3LjAnLCAnLXRuJywgJzgnLCAnLW1hJywgJzIwMCcsICctbWV0YWxfYmluZGluZycsICctaW1hZScsICc8aW5maWxlLm1hZT4nLCAnLW9tYWUnLCAnPG91dGZpbGUubWFlPic=

> <r_lp_tautomer_probability>
1

> <r_epik_Ionization_Penalty>
0.000992612

> <r_epik_Ionization_Penalty_Charging>
0

> <r_epik_Ionization_Penalty_Neutral>
0.000992612

> <r_epik_State_Penalty>
-0

> <r_epik_Charging_Adjusted_Penalty>
0

> <i_epik_Tot_Q>
0

> <i_epik_Tot_abs_Q>
0

> <r_epik_Metal_State_Penalty>
-0

> <b_epik_Metal_Only>
0

> <s_epik_Chemistry_Notes>
This compound contains an acetal/aminal-like group ( X-CH(R)-Y where X, Y are N, S, or O) that may be acid/base labile, releasing an aldehyde.

> <s_lp_Force_Field>
OPLS_2005

> <r_lp_Energy>
44.724

> <b_lp_Chiralities_Consistent>
1

> <s_lp_Variant>
AV-unprocessed.smi:287-32

> <Gold.Version>
5.8.1

> <Gold.Id.Protein>
6NUR|6NUR_protein|mol2

> <Gold.PLP.Fitness>
52.0942

> <Gold.PLP.PLP>
-39.3921

> <Gold.PLP.part.hbond>
-6.0000

> <Gold.PLP.part.metal>
0.0000

> <Gold.PLP.part.buried>
-7.1607

> <Gold.PLP.part.nonpolar>
-26.5699

> <Gold.PLP.part.repulsive>
0.4350

> <Gold.PLP.ligand.clash>
0.0000

> <Gold.PLP.ligand.torsion>
1.1848

> <Gold.PLP.Chemscore.Hbond>
3.9588

> <Gold.PLP.Chemscore.CHOScore>
1.0000

> <Gold.PLP.Chemscore.Metal>
0.0000

> <Gold.Chemscore.Hbonds>
donor molecule, donor type, donor heavy atom, donor atom, acceptor molecule, acceptor atom, score
      L1  H     7    42       P1  8028  1.00
      L1  H     9    45       P1  8028  1.00
      L1  H    23    50       P1 10175  0.99
      L1  H    25    51       P1  7948  0.80
      L1  C    12    46       P1  7957  1.00

> <Gold.PLP.Chemscore.Internal.Correction>
0.1955

> <Gold.Rescore>
     Score         DG    S(hbond)    S(metal)    S(lipo)     H(rot)  DE(clash)    DE(int)     intcor
     14.26     -15.44       3.94        0.00      87.90       5.27       0.10       1.08       ----

> <Gold.Chemscore.Fitness>
14.2630

> <Gold.Chemscore.DG>
-15.4420

> <Gold.Chemscore.ZeroCoef>
-5.4800

> <Gold.Chemscore.Hbond>
3.9407

> <Gold.Chemscore.Metal>
0.0000

> <Gold.Chemscore.Lipo>
87.8973

> <Gold.Chemscore.Internal_Hbond>
0.0000

> <Gold.Chemscore.DEClash>
0.1035

> <Gold.Chemscore.DEInternal>
1.0756

> <Gold.Chemscore.Rot>
5.2672

> <Gold.Chemscore.Internal.Correction>
   9.000000E+99

> <Gold.Chemscore.Hbonds>
donor molecule, donor type, donor heavy atom, donor atom, acceptor molecule, acceptor atom, score
      L1  H     7    42       P1  8028  0.94
      L1  H     9    45       P1  8028  0.99
      L1  H    23    50       P1 10175  0.92
      L1  H    25    51       P1  7948  0.73

> <Gold.Chemscore.Hbond.Weighted>
-13.1620

> <Gold.Chemscore.Metal.Weighted>
-0.0000

> <Gold.Chemscore.Lipo.Weighted>
-10.2840

> <Gold.Chemscore.Internal_Hbond.Weighted>
0.0000

> <Gold.Chemscore.DEClash.Weighted>
0.1035

> <Gold.Chemscore.DEInternal.Weighted>
1.0756

> <Gold.Chemscore.Rot.Weighted>
13.4839

> <Gold.Chemscore.Internal.Correction.Weighted>
   9.000000E+99

> <Gold.Protein.RotatedTorsions>
[ 6907 6896 6895 6894 ] final -152.19 input  -60.11 | X-H torsion
[ 7974 7965 7964 7962 ] final  168.72 input  175.53 | X-H torsion
[ 8008 7997 7996 7995 ] final  -33.68 input   59.86 | X-H torsion
[ 10167 10162 10161 10158 ] final  164.51 input  -65.29 | X-H torsion
[ 10718 10713 10712 10709 ] final -136.46 input   66.30 | X-H torsion
[ 10763 10752 10751 10750 ] final  113.78 input  -60.55 | X-H torsion
[ 11005 11000 10999 10996 ] final -129.03 input  -57.11 | X-H torsion

> <Gold.Protein.ActiveResidues>
 VAL166  LYS551  ARG553  GLY616  TRP617  ASP618  TYR619  PRO620  LYS621  CYS622 
 ASP623  PHE694  ASN695  SER759  ASP760  ASP761  ALA762  ILE779  LEU786  VAL792 
 PHE793  MET794  SER795  GLU796  ALA797  LYS798  CYS799  TRP800  GLU811  SER814 

> <Gold.Protein.RotatedAtoms>
  151.2242  133.4486  159.2601 H   0  0  0  0  0  0  0  0  0  0  0  0  # atno 6907 bound_to 6896
  151.0856  134.9885  159.8387 H   0  0  0  0  0  0  0  0  0  0  0  0  # atno 6908 bound_to 6896
  152.5429  134.2179  159.8828 H   0  0  0  0  0  0  0  0  0  0  0  0  # atno 6909 bound_to 6896
  144.7379  139.8948  143.6405 H   0  0  0  0  0  0  0  0  0  0  0  0  # atno 7974 bound_to 7965
  154.4142  140.1704  156.1928 H   0  0  0  0  0  0  0  0  0  0  0  0  # atno 8008 bound_to 7997
  155.9589  140.3395  155.6449 H   0  0  0  0  0  0  0  0  0  0  0  0  # atno 8009 bound_to 7997
  155.6774  140.0718  157.2488 H   0  0  0  0  0  0  0  0  0  0  0  0  # atno 8010 bound_to 7997
  139.4890  144.4227  151.9166 H   0  0  0  0  0  0  0  0  0  0  0  0  # atno 10167 bound_to 10162
  156.2773  130.7300  151.1287 H   0  0  0  0  0  0  0  0  0  0  0  0  # atno 10718 bound_to 10713
  153.4975  135.3645  155.2523 H   0  0  0  0  0  0  0  0  0  0  0  0  # atno 10763 bound_to 10752
  154.8749  135.3992  154.3517 H   0  0  0  0  0  0  0  0  0  0  0  0  # atno 10764 bound_to 10752
  153.4147  135.7078  153.6401 H   0  0  0  0  0  0  0  0  0  0  0  0  # atno 10765 bound_to 10752
  140.9466  134.1122  157.4102 H   0  0  0  0  0  0  0  0  0  0  0  0  # atno 11005 bound_to 11000
  146.1115  139.4120  143.0285 LP  0  0  0  0  0  0  0  0  0  0  0  0  # atno 17320 bound_to 7965
  145.7436  140.9999  143.1288 LP  0  0  0  0  0  0  0  0  0  0  0  0  # atno 17321 bound_to 7965
  140.3672  144.2900  150.5925 LP  0  0  0  0  0  0  0  0  0  0  0  0  # atno 17342 bound_to 10162
  140.5351  143.2235  151.8176 LP  0  0  0  0  0  0  0  0  0  0  0  0  # atno 17343 bound_to 10162
  157.7303  131.0617  150.5731 LP  0  0  0  0  0  0  0  0  0  0  0  0  # atno 17370 bound_to 10713
  156.5833  130.4310  149.5968 LP  0  0  0  0  0  0  0  0  0  0  0  0  # atno 17371 bound_to 10713
  139.8835  135.0053  156.6305 LP  0  0  0  0  0  0  0  0  0  0  0  0  # atno 17394 bound_to 11000
  140.7661  133.8777  155.8455 LP  0  0  0  0  0  0  0  0  0  0  0  0  # atno 17395 bound_to 11000

$$$$
