AV-unprocessed.smi:916|AV-procd|sdf|4160|dock4
  -GOLD-   22720 2 63D 1   1.00000     0.00000
 Structure written by MMmdl.
 43 44  0  0  0  0  0  0  0  0  1 V2000
  145.6329  131.9520  149.6229 C   0  0  0  0  0  0  0  0  0  0  0  0
  144.7942  131.9796  150.9056 C   0  0  0  0  0  0  0  0  0  0  0  0
  144.7112  133.3519  151.5019 C   0  0  0  0  0  0  0  0  0  0  0  0
  143.5718  134.0838  151.7326 C   0  0  0  0  0  0  0  0  0  0  0  0
  143.9241  135.6342  152.4479 S   0  0  0  0  0  0  0  0  0  0  0  0
  145.6309  135.2207  152.4091 C   0  0  0  0  0  0  0  0  0  0  0  0
  146.6293  136.1018  152.9004 N   0  0  0  0  0  0  0  0  0  0  0  0
  146.4752  137.1539  153.7233 C   0  0  0  0  0  0  0  0  0  0  0  0
  145.4148  137.5028  154.2436 O   0  0  0  0  0  0  0  0  0  0  0  0
  147.6369  137.7958  153.9133 N   0  0  0  0  0  0  0  0  0  0  0  0
  147.8067  138.9945  154.7285 C   0  0  0  0  0  0  0  0  0  0  0  0
  148.8189  139.9914  154.1088 C   0  0  2  0  0  0  0  0  0  0  0  0
  150.2645  139.6149  154.4034 C   0  0  0  0  0  0  0  0  0  0  0  0
  150.5490  140.3001  155.7424 C   0  0  0  0  0  0  0  0  0  0  0  0
  149.4934  141.2367  155.9395 O   0  0  0  0  0  0  0  0  0  0  0  0
  148.7827  141.4024  154.7199 C   0  0  2  0  0  0  0  0  0  0  0  0
  147.3956  142.0444  154.9495 C   0  0  0  0  0  0  0  0  0  0  0  0
  146.6542  141.3906  156.1283 C   0  0  0  0  0  0  0  0  0  0  0  0
  146.5339  141.9644  153.6789 C   0  0  0  0  0  0  0  0  0  0  0  0
  145.8803  134.0133  151.8901 N   0  0  0  0  0  0  0  0  0  0  0  0
  145.6771  130.9444  149.2092 H   0  0  0  0  0  0  0  0  0  0  0  0
  146.6551  132.2794  149.8146 H   0  0  0  0  0  0  0  0  0  0  0  0
  145.2088  132.6061  148.8602 H   0  0  0  0  0  0  0  0  0  0  0  0
  143.7927  131.6061  150.6891 H   0  0  0  0  0  0  0  0  0  0  0  0
  145.2227  131.2839  151.6278 H   0  0  0  0  0  0  0  0  0  0  0  0
  142.5492  133.8042  151.5273 H   0  0  0  0  0  0  0  0  0  0  0  0
  147.5648  135.9274  152.5640 H   0  0  0  0  0  0  0  0  0  0  0  0
  148.4608  137.4397  153.4516 H   0  0  0  0  0  0  0  0  0  0  0  0
  146.8307  139.4605  154.8645 H   0  0  0  0  0  0  0  0  0  0  0  0
  148.1372  138.6849  155.7204 H   0  0  0  0  0  0  0  0  0  0  0  0
  148.6533  140.0468  153.0323 H   0  0  0  0  0  0  0  0  0  0  0  0
  150.4508  138.5411  154.4305 H   0  0  0  0  0  0  0  0  0  0  0  0
  150.9127  140.0372  153.6342 H   0  0  0  0  0  0  0  0  0  0  0  0
  150.5483  139.5851  156.5652 H   0  0  0  0  0  0  0  0  0  0  0  0
  151.5155  140.8046  155.7316 H   0  0  0  0  0  0  0  0  0  0  0  0
  149.3746  142.0682  154.0878 H   0  0  0  0  0  0  0  0  0  0  0  0
  147.5294  143.1022  155.1765 H   0  0  0  0  0  0  0  0  0  0  0  0
  146.4913  140.3270  155.9508 H   0  0  0  0  0  0  0  0  0  0  0  0
  145.6796  141.8537  156.2843 H   0  0  0  0  0  0  0  0  0  0  0  0
  147.2104  141.4881  157.0605 H   0  0  0  0  0  0  0  0  0  0  0  0
  146.3617  140.9298  153.3803 H   0  0  0  0  0  0  0  0  0  0  0  0
  147.0109  142.4766  152.8428 H   0  0  0  0  0  0  0  0  0  0  0  0
  145.5610  142.4320  153.8335 H   0  0  0  0  0  0  0  0  0  0  0  0
  1  2  1  0  0  0  0
  1 21  1  0  0  0  0
  1 22  1  0  0  0  0
  1 23  1  0  0  0  0
  2  3  1  0  0  0  0
  2 24  1  0  0  0  0
  2 25  1  0  0  0  0
  3 20  1  0  0  0  0
  3  4  2  0  0  0  0
  4  5  1  0  0  0  0
  4 26  1  0  0  0  0
  5  6  1  0  0  0  0
  6  7  1  0  0  0  0
  6 20  2  0  0  0  0
  7  8  1  0  0  0  0
  7 27  1  0  0  0  0
  8  9  2  0  0  0  0
  8 10  1  0  0  0  0
 10 11  1  0  0  0  0
 10 28  1  0  0  0  0
 11 12  1  0  0  0  0
 11 29  1  0  0  0  0
 11 30  1  0  0  0  0
 12 16  1  0  0  0  0
 12 13  1  0  0  0  0
 12 31  1  0  0  0  0
 13 14  1  0  0  0  0
 13 32  1  0  0  0  0
 13 33  1  0  0  0  0
 14 15  1  0  0  0  0
 14 34  1  0  0  0  0
 14 35  1  0  0  0  0
 15 16  1  0  0  0  0
 16 17  1  0  0  0  0
 16 36  1  0  0  0  0
 17 18  1  0  0  0  0
 17 19  1  0  0  0  0
 17 37  1  0  0  0  0
 18 38  1  0  0  0  0
 18 39  1  0  0  0  0
 18 40  1  0  0  0  0
 19 41  1  0  0  0  0
 19 42  1  0  0  0  0
 19 43  1  0  0  0  0
M  END
> <s_m_source_file>
AV-unprocessed.smi

> <i_m_source_file_index>
916

> <i_lp_mmshare_version>
43012

> <i_f3d_flags>
0

> <s_epik_input>
W0NIM11bQ0gyXWMxW2NIXXNjKG4xKVtOSF1DKD1PKVtOSF1bQ0gyXVtDQEBIXTJbQ0gyXVtDSDJdT1tDQEhdMltDSF0oW0NIM10pW0NIM10=

> <s_epik_cmdline>
J2VwaWtfcHl0aG9uJywgJy1waCcsICc3LjAnLCAnLXRuJywgJzgnLCAnLW1hJywgJzIwMCcsICctbWV0YWxfYmluZGluZycsICctaW1hZScsICc8aW5maWxlLm1hZT4nLCAnLW9tYWUnLCAnPG91dGZpbGUubWFlPic=

> <r_lp_tautomer_probability>
0.999

> <r_epik_Ionization_Penalty>
0.000518907

> <r_epik_Ionization_Penalty_Charging>
0

> <r_epik_Ionization_Penalty_Neutral>
0.000518907

> <r_epik_State_Penalty>
0.000177984

> <r_epik_Charging_Adjusted_Penalty>
0.000177984

> <i_epik_Tot_Q>
0

> <i_epik_Tot_abs_Q>
0

> <r_epik_Metal_State_Penalty>
-0

> <b_epik_Metal_Only>
0

> <s_lp_Force_Field>
OPLS_2005

> <r_lp_Energy>
18.5448

> <b_lp_Chiralities_Consistent>
1

> <s_lp_Variant>
AV-unprocessed.smi:916-3

> <Gold.Version>
5.8.1

> <Gold.Id.Protein>
6NUR|6NUR_protein|mol2

> <Gold.PLP.Fitness>
39.9417

> <Gold.PLP.PLP>
-32.4848

> <Gold.PLP.part.hbond>
-1.9374

> <Gold.PLP.part.metal>
0.0000

> <Gold.PLP.part.buried>
-1.9591

> <Gold.PLP.part.nonpolar>
-28.5883

> <Gold.PLP.part.repulsive>
0.2983

> <Gold.PLP.ligand.clash>
0.0000

> <Gold.PLP.ligand.torsion>
0.5291

> <Gold.PLP.Chemscore.Hbond>
1.8160

> <Gold.PLP.Chemscore.CHOScore>
1.0000

> <Gold.PLP.Chemscore.Metal>
0.0000

> <Gold.Chemscore.Hbonds>
donor molecule, donor type, donor heavy atom, donor atom, acceptor molecule, acceptor atom, score
      L1  H     7    27       P1  7948  1.00
      L1  H    10    28       P1  7948  0.77
      L1  C     4    26       P1 10186  0.91

> <Gold.PLP.Chemscore.Internal.Correction>
0.0670

> <Gold.Rescore>
     Score         DG    S(hbond)    S(metal)    S(lipo)     H(rot)  DE(clash)    DE(int)     intcor
     15.86     -17.50       1.93        0.00      81.07       1.52       0.05       1.59       ----

> <Gold.Chemscore.Fitness>
15.8557

> <Gold.Chemscore.DG>
-17.4981

> <Gold.Chemscore.ZeroCoef>
-5.4800

> <Gold.Chemscore.Hbond>
1.9262

> <Gold.Chemscore.Metal>
0.0000

> <Gold.Chemscore.Lipo>
81.0712

> <Gold.Chemscore.Internal_Hbond>
0.0000

> <Gold.Chemscore.DEClash>
0.0489

> <Gold.Chemscore.DEInternal>
1.5934

> <Gold.Chemscore.Rot>
1.5238

> <Gold.Chemscore.Internal.Correction>
   9.000000E+99

> <Gold.Chemscore.Hbonds>
donor molecule, donor type, donor heavy atom, donor atom, acceptor molecule, acceptor atom, score
      L1  H     7    27       P1  7948  0.97
      L1  H    10    28       P1  7948  0.73

> <Gold.Chemscore.Hbond.Weighted>
-6.4336

> <Gold.Chemscore.Metal.Weighted>
-0.0000

> <Gold.Chemscore.Lipo.Weighted>
-9.4853

> <Gold.Chemscore.Internal_Hbond.Weighted>
0.0000

> <Gold.Chemscore.DEClash.Weighted>
0.0489

> <Gold.Chemscore.DEInternal.Weighted>
1.5934

> <Gold.Chemscore.Rot.Weighted>
3.9008

> <Gold.Chemscore.Internal.Correction.Weighted>
   9.000000E+99

> <Gold.Protein.RotatedTorsions>
[ 6907 6896 6895 6894 ] final -101.12 input  -60.11 | X-H torsion
[ 7974 7965 7964 7962 ] final   14.17 input  175.53 | X-H torsion
[ 8008 7997 7996 7995 ] final  -44.99 input   59.86 | X-H torsion
[ 10167 10162 10161 10158 ] final -137.34 input  -65.29 | X-H torsion
[ 10718 10713 10712 10709 ] final  -23.56 input   66.30 | X-H torsion
[ 10763 10752 10751 10750 ] final -163.40 input  -60.55 | X-H torsion
[ 11005 11000 10999 10996 ] final  -62.91 input  -57.11 | X-H torsion

> <Gold.Protein.ActiveResidues>
 VAL166  LYS551  ARG553  GLY616  TRP617  ASP618  TYR619  PRO620  LYS621  CYS622 
 ASP623  PHE694  ASN695  SER759  ASP760  ASP761  ALA762  ILE779  LEU786  VAL792 
 PHE793  MET794  SER795  GLU796  ALA797  LYS798  CYS799  TRP800  GLU811  SER814 

> <Gold.Protein.RotatedAtoms>
  150.7142  134.0782  159.3888 H   0  0  0  0  0  0  0  0  0  0  0  0  # atno 6907 bound_to 6896
  151.8766  135.0467  160.0494 H   0  0  0  0  0  0  0  0  0  0  0  0  # atno 6908 bound_to 6896
  152.2601  133.5254  159.5413 H   0  0  0  0  0  0  0  0  0  0  0  0  # atno 6909 bound_to 6896
  146.2312  139.9081  142.8528 H   0  0  0  0  0  0  0  0  0  0  0  0  # atno 7974 bound_to 7965
  154.3999  140.1408  156.3774 H   0  0  0  0  0  0  0  0  0  0  0  0  # atno 8008 bound_to 7997
  155.8036  140.3475  155.5396 H   0  0  0  0  0  0  0  0  0  0  0  0  # atno 8009 bound_to 7997
  155.8459  140.0934  157.1696 H   0  0  0  0  0  0  0  0  0  0  0  0  # atno 8010 bound_to 7997
  139.8588  143.7104  152.2652 H   0  0  0  0  0  0  0  0  0  0  0  0  # atno 10167 bound_to 10162
  156.4895  130.4563  149.6764 H   0  0  0  0  0  0  0  0  0  0  0  0  # atno 10718 bound_to 10713
  154.7126  135.3009  154.9174 H   0  0  0  0  0  0  0  0  0  0  0  0  # atno 10763 bound_to 10752
  154.0071  135.6699  153.4767 H   0  0  0  0  0  0  0  0  0  0  0  0  # atno 10764 bound_to 10752
  153.0767  135.5031  154.8333 H   0  0  0  0  0  0  0  0  0  0  0  0  # atno 10765 bound_to 10752
  141.1375  133.6645  156.5599 H   0  0  0  0  0  0  0  0  0  0  0  0  # atno 11005 bound_to 11000
  145.2257  140.9953  143.4020 LP  0  0  0  0  0  0  0  0  0  0  0  0  # atno 17320 bound_to 7965
  144.9573  139.4018  143.6373 LP  0  0  0  0  0  0  0  0  0  0  0  0  # atno 17321 bound_to 7965
  139.7394  144.7563  151.0676 LP  0  0  0  0  0  0  0  0  0  0  0  0  # atno 17342 bound_to 10162
  140.7778  143.4991  150.9794 LP  0  0  0  0  0  0  0  0  0  0  0  0  # atno 17343 bound_to 10162
  156.3441  130.7397  151.2347 LP  0  0  0  0  0  0  0  0  0  0  0  0  # atno 17370 bound_to 10713
  157.7475  131.0395  150.4555 LP  0  0  0  0  0  0  0  0  0  0  0  0  # atno 17371 bound_to 10713
  140.3996  134.7368  157.4772 LP  0  0  0  0  0  0  0  0  0  0  0  0  # atno 17394 bound_to 11000
  140.0506  134.6136  155.8867 LP  0  0  0  0  0  0  0  0  0  0  0  0  # atno 17395 bound_to 11000

$$$$
