AV-unprocessed.smi:2911|AV-procd|sdf|11179|dock1
  -GOLD-   2272016 73D 1   1.00000     0.00000
 Structure written by MMmdl.
 41 42  0  0  0  0  0  0  0  0  1 V2000
  147.1541  135.9959  162.4291 C   0  0  0  0  0  0  0  0  0  0  0  0
  147.8615  136.0471  161.1180 C   0  0  0  0  0  0  0  0  0  0  0  0
  148.2075  134.9356  160.4803 N   0  0  0  0  0  0  0  0  0  0  0  0
  148.8438  135.4110  159.3245 O   0  0  0  0  0  0  0  0  0  0  0  0
  148.7879  136.7625  159.4015 C   0  0  0  0  0  0  0  0  0  0  0  0
  149.4317  137.5742  158.3281 C   0  0  0  0  0  0  0  0  0  0  0  0
  150.9657  137.4911  158.3720 C   0  0  0  0  0  0  0  0  0  0  0  0
  151.5632  138.7737  158.7261 N   0  0  0  0  0  0  0  0  0  0  0  0
  152.6479  138.9398  159.5024 C   0  0  0  0  0  0  0  0  0  0  0  0
  153.2278  137.9821  160.0169 O   0  0  0  0  0  0  0  0  0  0  0  0
  153.0095  140.2339  159.7138 N   0  0  0  0  0  0  0  0  0  0  0  0
  152.5637  141.3821  158.8934 C   0  0  0  0  0  0  0  0  0  0  0  0
  151.9992  142.5030  159.7776 C   0  0  0  0  0  0  0  0  0  0  0  0
  153.0419  142.9653  160.8057 C   0  0  1  0  0  0  0  0  0  0  0  0
  152.4911  144.0739  161.7136 C   0  0  0  0  0  0  0  0  0  0  0  0
  153.5373  141.7583  161.6192 C   0  0  0  0  0  0  0  0  0  0  0  0
  154.0183  140.5841  160.7382 C   0  0  2  0  0  0  0  0  0  0  0  0
  155.4102  140.7964  160.1152 C   0  0  0  0  0  0  0  0  0  0  0  0
  148.2029  137.2152  160.5079 N   0  0  0  0  0  0  0  0  0  0  0  0
  146.4042  135.2041  162.4287 H   0  0  0  0  0  0  0  0  0  0  0  0
  146.6528  136.9424  162.6326 H   0  0  0  0  0  0  0  0  0  0  0  0
  147.8655  135.8014  163.2319 H   0  0  0  0  0  0  0  0  0  0  0  0
  149.0587  137.2281  157.3635 H   0  0  0  0  0  0  0  0  0  0  0  0
  149.1077  138.6101  158.4350 H   0  0  0  0  0  0  0  0  0  0  0  0
  151.2757  136.7592  159.1184 H   0  0  0  0  0  0  0  0  0  0  0  0
  151.3589  137.1438  157.4148 H   0  0  0  0  0  0  0  0  0  0  0  0
  151.1191  139.6008  158.3546 H   0  0  0  0  0  0  0  0  0  0  0  0
  153.4135  141.7565  158.3224 H   0  0  0  0  0  0  0  0  0  0  0  0
  151.8148  141.1307  158.1431 H   0  0  0  0  0  0  0  0  0  0  0  0
  151.6931  143.3436  159.1539 H   0  0  0  0  0  0  0  0  0  0  0  0
  151.1009  142.1501  160.2865 H   0  0  0  0  0  0  0  0  0  0  0  0
  153.8916  143.3801  160.2619 H   0  0  0  0  0  0  0  0  0  0  0  0
  151.6319  143.7267  162.2883 H   0  0  0  0  0  0  0  0  0  0  0  0
  152.1737  144.9381  161.1294 H   0  0  0  0  0  0  0  0  0  0  0  0
  153.2487  144.4143  162.4200 H   0  0  0  0  0  0  0  0  0  0  0  0
  154.3333  142.0641  162.2992 H   0  0  0  0  0  0  0  0  0  0  0  0
  152.7224  141.4042  162.2528 H   0  0  0  0  0  0  0  0  0  0  0  0
  154.1362  139.7532  161.4359 H   0  0  0  0  0  0  0  0  0  0  0  0
  156.1604  140.9613  160.8889 H   0  0  0  0  0  0  0  0  0  0  0  0
  155.4355  141.6579  159.4487 H   0  0  0  0  0  0  0  0  0  0  0  0
  155.7196  139.9224  159.5414 H   0  0  0  0  0  0  0  0  0  0  0  0
  1  2  1  0  0  0  0
  1 20  1  0  0  0  0
  1 21  1  0  0  0  0
  1 22  1  0  0  0  0
  2 19  1  0  0  0  0
  2  3  2  0  0  0  0
  3  4  1  0  0  0  0
  4  5  1  0  0  0  0
  5  6  1  0  0  0  0
  5 19  2  0  0  0  0
  6  7  1  0  0  0  0
  6 23  1  0  0  0  0
  6 24  1  0  0  0  0
  7  8  1  0  0  0  0
  7 25  1  0  0  0  0
  7 26  1  0  0  0  0
  8  9  1  0  0  0  0
  8 27  1  0  0  0  0
  9 10  2  0  0  0  0
  9 11  1  0  0  0  0
 11 17  1  0  0  0  0
 11 12  1  0  0  0  0
 12 13  1  0  0  0  0
 12 28  1  0  0  0  0
 12 29  1  0  0  0  0
 13 14  1  0  0  0  0
 13 30  1  0  0  0  0
 13 31  1  0  0  0  0
 14 15  1  0  0  0  0
 14 16  1  0  0  0  0
 14 32  1  0  0  0  0
 15 33  1  0  0  0  0
 15 34  1  0  0  0  0
 15 35  1  0  0  0  0
 16 17  1  0  0  0  0
 16 36  1  0  0  0  0
 16 37  1  0  0  0  0
 17 18  1  0  0  0  0
 17 38  1  0  0  0  0
 18 39  1  0  0  0  0
 18 40  1  0  0  0  0
 18 41  1  0  0  0  0
M  END
> <s_m_source_file>
AV-unprocessed.smi

> <i_m_source_file_index>
2911

> <i_lp_mmshare_version>
43012

> <i_f3d_flags>
0

> <s_epik_input>
W0NIM11jMW5vYyhuMSlbQ0gyXVtDSDJdW05IXUMoPU8pTjJbQ0gyXVtDSDJdW0NAQEhdKFtDSDNdKVtDSDJdW0NASF0yW0NIM10=

> <s_epik_cmdline>
J2VwaWtfcHl0aG9uJywgJy1waCcsICc3LjAnLCAnLXRuJywgJzgnLCAnLW1hJywgJzIwMCcsICctbWV0YWxfYmluZGluZycsICctaW1hZScsICc8aW5maWxlLm1hZT4nLCAnLW9tYWUnLCAnPG91dGZpbGUubWFlPic=

> <r_lp_tautomer_probability>
1

> <r_epik_Ionization_Penalty>
6.61671e-05

> <r_epik_Ionization_Penalty_Charging>
0

> <r_epik_Ionization_Penalty_Neutral>
6.61671e-05

> <r_epik_State_Penalty>
-0

> <r_epik_Charging_Adjusted_Penalty>
0

> <i_epik_Tot_Q>
0

> <i_epik_Tot_abs_Q>
0

> <r_epik_Metal_State_Penalty>
-0

> <b_epik_Metal_Only>
0

> <s_lp_Force_Field>
OPLS_2005

> <r_lp_Energy>
30.51

> <b_lp_Chiralities_Consistent>
1

> <s_lp_Variant>
AV-unprocessed.smi:2911-3

> <Gold.Version>
5.8.1

> <Gold.Id.Protein>
6NUR|6NUR_protein|mol2

> <Gold.PLP.Fitness>
44.5326

> <Gold.PLP.PLP>
-39.1096

> <Gold.PLP.part.hbond>
-3.0000

> <Gold.PLP.part.metal>
0.0000

> <Gold.PLP.part.buried>
-4.7704

> <Gold.PLP.part.nonpolar>
-30.3666

> <Gold.PLP.part.repulsive>
0.1016

> <Gold.PLP.ligand.clash>
0.0000

> <Gold.PLP.ligand.torsion>
0.7369

> <Gold.PLP.Chemscore.Hbond>
2.2903

> <Gold.PLP.Chemscore.CHOScore>
0.0000

> <Gold.PLP.Chemscore.Metal>
0.0000

> <Gold.Chemscore.Hbonds>
donor molecule, donor type, donor heavy atom, donor atom, acceptor molecule, acceptor atom, score
      P1  H  6896  6908       L1     4  1.00
      P1  H  6931  6943       L1    19  0.75
      P1  H  6934  6947       L1    19  0.53

> <Gold.PLP.Chemscore.Internal.Correction>
0.0258

> <Gold.Rescore>
     Score         DG    S(hbond)    S(metal)    S(lipo)     H(rot)  DE(clash)    DE(int)     intcor
     17.26     -18.03       1.85        0.00      89.73       1.61       0.09       0.68       ----

> <Gold.Chemscore.Fitness>
17.2601

> <Gold.Chemscore.DG>
-18.0276

> <Gold.Chemscore.ZeroCoef>
-5.4800

> <Gold.Chemscore.Hbond>
1.8468

> <Gold.Chemscore.Metal>
0.0000

> <Gold.Chemscore.Lipo>
89.7257

> <Gold.Chemscore.Internal_Hbond>
0.0000

> <Gold.Chemscore.DEClash>
0.0905

> <Gold.Chemscore.DEInternal>
0.6771

> <Gold.Chemscore.Rot>
1.6088

> <Gold.Chemscore.Internal.Correction>
   9.000000E+99

> <Gold.Chemscore.Hbonds>
donor molecule, donor type, donor heavy atom, donor atom, acceptor molecule, acceptor atom, score
      P1  H  6896  6908       L1     4  0.23
      P1  H  6931  6943       L1    19  0.37
      P1  H  6934  6947       L1    19  0.51

> <Gold.Chemscore.Hbond.Weighted>
-6.1684

> <Gold.Chemscore.Metal.Weighted>
-0.0000

> <Gold.Chemscore.Lipo.Weighted>
-10.4979

> <Gold.Chemscore.Internal_Hbond.Weighted>
0.0000

> <Gold.Chemscore.DEClash.Weighted>
0.0905

> <Gold.Chemscore.DEInternal.Weighted>
0.6771

> <Gold.Chemscore.Rot.Weighted>
4.1186

> <Gold.Chemscore.Internal.Correction.Weighted>
   9.000000E+99

> <Gold.Protein.RotatedTorsions>
[ 6907 6896 6895 6894 ] final  168.41 input  -60.11 | X-H torsion
[ 7974 7965 7964 7962 ] final  125.56 input  175.53 | X-H torsion
[ 8008 7997 7996 7995 ] final  -82.15 input   59.86 | X-H torsion
[ 10167 10162 10161 10158 ] final  112.75 input  -65.29 | X-H torsion
[ 10718 10713 10712 10709 ] final -129.06 input   66.30 | X-H torsion
[ 10763 10752 10751 10750 ] final   22.56 input  -60.55 | X-H torsion
[ 11005 11000 10999 10996 ] final  -85.33 input  -57.11 | X-H torsion

> <Gold.Protein.ActiveResidues>
 VAL166  LYS551  ARG553  GLY616  TRP617  ASP618  TYR619  PRO620  LYS621  CYS622 
 ASP623  PHE694  ASN695  SER759  ASP760  ASP761  ALA762  ILE779  LEU786  VAL792 
 PHE793  MET794  SER795  GLU796  ALA797  LYS798  CYS799  TRP800  GLU811  SER814 

> <Gold.Protein.RotatedAtoms>
  151.8481  133.3435  159.3664 H   0  0  0  0  0  0  0  0  0  0  0  0  # atno 6907 bound_to 6896
  150.7215  134.5326  159.5717 H   0  0  0  0  0  0  0  0  0  0  0  0  # atno 6908 bound_to 6896
  152.2814  134.7825  160.0447 H   0  0  0  0  0  0  0  0  0  0  0  0  # atno 6909 bound_to 6896
  145.0716  139.3726  143.4955 H   0  0  0  0  0  0  0  0  0  0  0  0  # atno 7974 bound_to 7965
  154.6057  140.0637  156.9427 H   0  0  0  0  0  0  0  0  0  0  0  0  # atno 8008 bound_to 7997
  155.2057  140.3318  155.4318 H   0  0  0  0  0  0  0  0  0  0  0  0  # atno 8009 bound_to 7997
  156.2346  140.1857  156.7137 H   0  0  0  0  0  0  0  0  0  0  0  0  # atno 8010 bound_to 7997
  139.6512  144.7128  151.2044 H   0  0  0  0  0  0  0  0  0  0  0  0  # atno 10167 bound_to 10162
  156.2010  130.6857  151.0539 H   0  0  0  0  0  0  0  0  0  0  0  0  # atno 10718 bound_to 10713
  153.0906  135.6645  153.9861 H   0  0  0  0  0  0  0  0  0  0  0  0  # atno 10763 bound_to 10752
  153.9459  135.2989  155.3442 H   0  0  0  0  0  0  0  0  0  0  0  0  # atno 10764 bound_to 10752
  154.7320  135.5118  153.9053 H   0  0  0  0  0  0  0  0  0  0  0  0  # atno 10765 bound_to 10752
  141.1642  133.7393  156.8999 H   0  0  0  0  0  0  0  0  0  0  0  0  # atno 11005 bound_to 11000
  146.3529  140.0463  142.8639 LP  0  0  0  0  0  0  0  0  0  0  0  0  # atno 17320 bound_to 7965
  145.1286  140.9504  143.4558 LP  0  0  0  0  0  0  0  0  0  0  0  0  # atno 17321 bound_to 7965
  140.7538  143.6147  150.8571 LP  0  0  0  0  0  0  0  0  0  0  0  0  # atno 17342 bound_to 10162
  139.9795  143.5967  152.2947 LP  0  0  0  0  0  0  0  0  0  0  0  0  # atno 17343 bound_to 10162
  157.6986  131.0785  150.6892 LP  0  0  0  0  0  0  0  0  0  0  0  0  # atno 17370 bound_to 10713
  156.6950  130.4606  149.5589 LP  0  0  0  0  0  0  0  0  0  0  0  0  # atno 17371 bound_to 10713
  140.1590  134.9178  157.2690 LP  0  0  0  0  0  0  0  0  0  0  0  0  # atno 17394 bound_to 11000
  140.2633  134.3545  155.7399 LP  0  0  0  0  0  0  0  0  0  0  0  0  # atno 17395 bound_to 11000

$$$$
