AV-unprocessed.smi:1850|AV-procd|sdf|7522|dock7
  -GOLD-   22720 9233D 1   1.00000     0.00000
 Structure written by MMmdl.
 40 41  0  0  0  0  0  0  0  0  1 V2000
  152.3902  129.8999  155.4448 C   0  0  0  0  0  0  0  0  0  0  0  0
  150.9529  130.2286  155.8726 C   0  0  0  0  0  0  0  0  0  0  0  0
  150.6857  131.6710  155.7900 N   0  0  0  0  0  0  0  0  0  0  0  0
  149.8550  132.1040  154.7382 C   0  0  0  0  0  0  0  0  0  0  0  0
  149.5286  133.4027  154.5598 C   0  0  0  0  0  0  0  0  0  0  0  0
  148.6856  133.8957  153.5527 N   0  0  0  0  0  0  0  0  0  0  0  0
  147.6045  133.3204  152.9932 C   0  0  0  0  0  0  0  0  0  0  0  0
  147.1911  132.1845  153.2253 O   0  0  0  0  0  0  0  0  0  0  0  0
  147.0212  134.1504  152.1164 N   0  0  0  0  0  0  0  0  0  0  0  0
  145.8338  133.8444  151.3236 C   0  0  0  0  0  0  0  0  0  0  0  0
  144.6504  133.4817  152.2444 C   0  0  0  0  0  0  0  0  0  0  0  0
  143.4094  133.0758  151.4330 C   0  0  0  0  0  0  0  0  0  0  0  0
  143.7277  131.9266  150.4637 C   0  0  0  0  0  0  0  0  0  0  0  0
  144.9013  132.2891  149.5403 C   0  0  0  0  0  0  0  0  0  0  0  0
  146.1446  132.6917  150.3501 C   0  0  0  0  0  0  0  0  0  0  0  0
  150.0665  134.3487  155.5138 C   0  0  0  0  0  0  0  0  0  0  0  0
  150.8523  133.9441  156.5302 C   0  0  0  0  0  0  0  0  0  0  0  0
  151.1985  132.5332  156.7177 C   0  0  0  0  0  0  0  0  0  0  0  0
  151.9027  132.1518  157.6530 O   0  0  0  0  0  0  0  0  0  0  0  0
  152.5829  128.8301  155.5250 H   0  0  0  0  0  0  0  0  0  0  0  0
  153.1165  130.4156  156.0737 H   0  0  0  0  0  0  0  0  0  0  0  0
  152.5733  130.1931  154.4107 H   0  0  0  0  0  0  0  0  0  0  0  0
  150.2467  129.6640  155.2615 H   0  0  0  0  0  0  0  0  0  0  0  0
  150.7877  129.8752  156.8915 H   0  0  0  0  0  0  0  0  0  0  0  0
  149.4976  131.2968  154.1183 H   0  0  0  0  0  0  0  0  0  0  0  0
  148.9290  134.8134  153.2104 H   0  0  0  0  0  0  0  0  0  0  0  0
  147.4281  135.0651  151.9866 H   0  0  0  0  0  0  0  0  0  0  0  0
  145.5613  134.7195  150.7304 H   0  0  0  0  0  0  0  0  0  0  0  0
  144.9340  132.6600  152.9037 H   0  0  0  0  0  0  0  0  0  0  0  0
  144.4040  134.3249  152.8906 H   0  0  0  0  0  0  0  0  0  0  0  0
  142.6046  132.7818  152.1075 H   0  0  0  0  0  0  0  0  0  0  0  0
  143.0436  133.9365  150.8715 H   0  0  0  0  0  0  0  0  0  0  0  0
  143.9722  131.0274  151.0306 H   0  0  0  0  0  0  0  0  0  0  0  0
  142.8462  131.6871  149.8681 H   0  0  0  0  0  0  0  0  0  0  0  0
  145.1378  131.4460  148.8907 H   0  0  0  0  0  0  0  0  0  0  0  0
  144.6102  133.1115  148.8856 H   0  0  0  0  0  0  0  0  0  0  0  0
  146.9458  132.9830  149.6699 H   0  0  0  0  0  0  0  0  0  0  0  0
  146.5096  131.8258  150.9046 H   0  0  0  0  0  0  0  0  0  0  0  0
  149.8379  135.3998  155.4126 H   0  0  0  0  0  0  0  0  0  0  0  0
  151.2381  134.6760  157.2247 H   0  0  0  0  0  0  0  0  0  0  0  0
  1  2  1  0  0  0  0
  1 20  1  0  0  0  0
  1 21  1  0  0  0  0
  1 22  1  0  0  0  0
  2  3  1  0  0  0  0
  2 23  1  0  0  0  0
  2 24  1  0  0  0  0
  3 18  1  0  0  0  0
  3  4  1  0  0  0  0
  4  5  2  0  0  0  0
  4 25  1  0  0  0  0
  5  6  1  0  0  0  0
  5 16  1  0  0  0  0
  6  7  1  0  0  0  0
  6 26  1  0  0  0  0
  7  8  2  0  0  0  0
  7  9  1  0  0  0  0
  9 10  1  0  0  0  0
  9 27  1  0  0  0  0
 10 15  1  0  0  0  0
 10 11  1  0  0  0  0
 10 28  1  0  0  0  0
 11 12  1  0  0  0  0
 11 29  1  0  0  0  0
 11 30  1  0  0  0  0
 12 13  1  0  0  0  0
 12 31  1  0  0  0  0
 12 32  1  0  0  0  0
 13 14  1  0  0  0  0
 13 33  1  0  0  0  0
 13 34  1  0  0  0  0
 14 15  1  0  0  0  0
 14 35  1  0  0  0  0
 14 36  1  0  0  0  0
 15 37  1  0  0  0  0
 15 38  1  0  0  0  0
 16 17  2  0  0  0  0
 16 39  1  0  0  0  0
 17 18  1  0  0  0  0
 17 40  1  0  0  0  0
 18 19  2  0  0  0  0
M  END
> <s_m_source_file>
AV-unprocessed.smi

> <i_m_source_file_index>
1850

> <i_lp_mmshare_version>
43012

> <i_f3d_flags>
0

> <s_epik_input>
W0NIM11bQ0gyXW4xW2NIXWMoW2NIXVtjSF1jMT1PKVtOSF1DKD1PKVtOSF1bQ0hdMltDSDJdW0NIMl1bQ0gyXVtDSDJdW0NIMl0y

> <s_epik_cmdline>
J2VwaWtfcHl0aG9uJywgJy1waCcsICc3LjAnLCAnLXRuJywgJzgnLCAnLW1hJywgJzIwMCcsICctbWV0YWxfYmluZGluZycsICctaW1hZScsICc8aW5maWxlLm1hZT4nLCAnLW9tYWUnLCAnPG91dGZpbGUubWFlPic=

> <r_lp_tautomer_probability>
1

> <r_epik_Ionization_Penalty>
2.61962e-05

> <r_epik_Ionization_Penalty_Charging>
4.78076e-06

> <r_epik_Ionization_Penalty_Neutral>
2.14155e-05

> <r_epik_State_Penalty>
-0

> <r_epik_Charging_Adjusted_Penalty>
4.78076e-06

> <i_epik_Tot_Q>
0

> <i_epik_Tot_abs_Q>
0

> <r_epik_Metal_State_Penalty>
-0

> <b_epik_Metal_Only>
0

> <s_lp_Force_Field>
OPLS_2005

> <r_lp_Energy>
22.0322

> <b_lp_Chiralities_Consistent>
1

> <s_lp_Variant>
AV-unprocessed.smi:1850-1

> <Gold.Version>
5.8.1

> <Gold.Id.Protein>
6NUR|6NUR_protein|mol2

> <Gold.PLP.Fitness>
46.3051

> <Gold.PLP.PLP>
-38.4539

> <Gold.PLP.part.hbond>
-3.0000

> <Gold.PLP.part.metal>
0.0000

> <Gold.PLP.part.buried>
-5.3568

> <Gold.PLP.part.nonpolar>
-31.3157

> <Gold.PLP.part.repulsive>
0.1297

> <Gold.PLP.ligand.clash>
0.0000

> <Gold.PLP.ligand.torsion>
0.4149

> <Gold.PLP.Chemscore.Hbond>
2.8920

> <Gold.PLP.Chemscore.CHOScore>
0.0000

> <Gold.PLP.Chemscore.Metal>
0.0000

> <Gold.Chemscore.Hbonds>
donor molecule, donor type, donor heavy atom, donor atom, acceptor molecule, acceptor atom, score
      L1  H     6    26       P1  7948  0.90
      L1  H     9    27       P1  7948  1.00
      P1  H  6896  6908       L1    19  1.00

> <Gold.PLP.Chemscore.Internal.Correction>
0.0050

> <Gold.Rescore>
     Score         DG    S(hbond)    S(metal)    S(lipo)     H(rot)  DE(clash)    DE(int)     intcor
     18.07     -19.59       2.24        0.00      82.13       1.17       0.06       1.47       ----

> <Gold.Chemscore.Fitness>
18.0655

> <Gold.Chemscore.DG>
-19.5948

> <Gold.Chemscore.ZeroCoef>
-5.4800

> <Gold.Chemscore.Hbond>
2.2429

> <Gold.Chemscore.Metal>
0.0000

> <Gold.Chemscore.Lipo>
82.1250

> <Gold.Chemscore.Internal_Hbond>
0.0000

> <Gold.Chemscore.DEClash>
0.0605

> <Gold.Chemscore.DEInternal>
1.4687

> <Gold.Chemscore.Rot>
1.1660

> <Gold.Chemscore.Internal.Correction>
   9.000000E+99

> <Gold.Chemscore.Hbonds>
donor molecule, donor type, donor heavy atom, donor atom, acceptor molecule, acceptor atom, score
      L1  H     6    26       P1  7948  0.17
      L1  H     9    27       P1  7948  0.89
      P1  H  6896  6908       L1    19  0.86

> <Gold.Chemscore.Hbond.Weighted>
-7.4911

> <Gold.Chemscore.Metal.Weighted>
-0.0000

> <Gold.Chemscore.Lipo.Weighted>
-9.6086

> <Gold.Chemscore.Internal_Hbond.Weighted>
0.0000

> <Gold.Chemscore.DEClash.Weighted>
0.0605

> <Gold.Chemscore.DEInternal.Weighted>
1.4687

> <Gold.Chemscore.Rot.Weighted>
2.9850

> <Gold.Chemscore.Internal.Correction.Weighted>
   9.000000E+99

> <Gold.Protein.RotatedTorsions>
[ 6907 6896 6895 6894 ] final   50.98 input  -60.11 | X-H torsion
[ 7974 7965 7964 7962 ] final  141.76 input  175.53 | X-H torsion
[ 8008 7997 7996 7995 ] final -110.18 input   59.86 | X-H torsion
[ 10167 10162 10161 10158 ] final -161.32 input  -65.29 | X-H torsion
[ 10718 10713 10712 10709 ] final  -90.24 input   66.30 | X-H torsion
[ 10763 10752 10751 10750 ] final  101.30 input  -60.55 | X-H torsion
[ 11005 11000 10999 10996 ] final    9.19 input  -57.11 | X-H torsion

> <Gold.Protein.ActiveResidues>
 VAL166  LYS551  ARG553  GLY616  TRP617  ASP618  TYR619  PRO620  LYS621  CYS622 
 ASP623  PHE694  ASN695  SER759  ASP760  ASP761  ALA762  ILE779  LEU786  VAL792 
 PHE793  MET794  SER795  GLU796  ALA797  LYS798  CYS799  TRP800  GLU811  SER814 

> <Gold.Protein.RotatedAtoms>
  152.3077  134.7535  160.0343 H   0  0  0  0  0  0  0  0  0  0  0  0  # atno 6907 bound_to 6896
  151.8026  133.3366  159.3539 H   0  0  0  0  0  0  0  0  0  0  0  0  # atno 6908 bound_to 6896
  150.7305  134.5669  159.5915 H   0  0  0  0  0  0  0  0  0  0  0  0  # atno 6909 bound_to 6896
  144.9068  139.5348  143.5728 H   0  0  0  0  0  0  0  0  0  0  0  0  # atno 7974 bound_to 7965
  154.9707  140.0397  157.2233 H   0  0  0  0  0  0  0  0  0  0  0  0  # atno 8008 bound_to 7997
  154.7804  140.2818  155.6046 H   0  0  0  0  0  0  0  0  0  0  0  0  # atno 8009 bound_to 7997
  156.2935  140.2593  156.2628 H   0  0  0  0  0  0  0  0  0  0  0  0  # atno 8010 bound_to 7997
  139.6473  144.0148  152.2136 H   0  0  0  0  0  0  0  0  0  0  0  0  # atno 10167 bound_to 10162
  155.9987  130.4902  150.5293 H   0  0  0  0  0  0  0  0  0  0  0  0  # atno 10718 bound_to 10713
  153.3249  135.4049  155.1447 H   0  0  0  0  0  0  0  0  0  0  0  0  # atno 10763 bound_to 10752
  154.8609  135.3596  154.5547 H   0  0  0  0  0  0  0  0  0  0  0  0  # atno 10764 bound_to 10752
  153.5983  135.7072  153.5454 H   0  0  0  0  0  0  0  0  0  0  0  0  # atno 10765 bound_to 10752
  140.5285  134.0489  155.7866 H   0  0  0  0  0  0  0  0  0  0  0  0  # atno 11005 bound_to 11000
  146.3137  139.7842  142.9000 LP  0  0  0  0  0  0  0  0  0  0  0  0  # atno 17320 bound_to 7965
  145.3523  141.0310  143.3332 LP  0  0  0  0  0  0  0  0  0  0  0  0  # atno 17321 bound_to 7965
  139.9853  144.6400  150.7863 LP  0  0  0  0  0  0  0  0  0  0  0  0  # atno 17342 bound_to 10162
  140.7521  143.2984  151.3144 LP  0  0  0  0  0  0  0  0  0  0  0  0  # atno 17343 bound_to 10162
  157.3244  131.0688  151.1907 LP  0  0  0  0  0  0  0  0  0  0  0  0  # atno 17370 bound_to 10713
  157.2809  130.6750  149.6066 LP  0  0  0  0  0  0  0  0  0  0  0  0  # atno 17371 bound_to 10713
  141.1295  133.9327  157.2566 LP  0  0  0  0  0  0  0  0  0  0  0  0  # atno 17394 bound_to 11000
  139.9567  135.0164  156.9148 LP  0  0  0  0  0  0  0  0  0  0  0  0  # atno 17395 bound_to 11000

$$$$
