AV-unprocessed.smi:1790|AV-procd|sdf|7217|dock7
  -GOLD-   22720 8463D 1   1.00000     0.00000
 Structure written by MMmdl.
 32 33  0  0  0  0  0  0  0  0  2 V2000
  154.8427  140.6800  161.2221 O   0  0  0  0  0  0  0  0  0  0  0  0
  154.5967  139.7957  160.4029 C   0  0  0  0  0  0  0  0  0  0  0  0
  155.3273  138.4584  160.5138 C   0  0  0  0  0  0  0  0  0  0  0  0
  154.3725  137.4165  160.6415 O   0  0  0  0  0  0  0  0  0  0  0  0
  153.6503  137.4832  161.8581 C   0  0  0  0  0  0  0  0  0  0  0  0
  154.5249  136.9577  162.9761 C   0  0  0  0  0  0  0  0  0  0  0  0
  154.4464  135.5083  163.3986 C   0  0  0  0  0  0  0  0  0  0  0  0
  153.9191  136.5865  164.3107 C   0  0  0  0  0  0  0  0  0  0  0  0
  153.6971  139.8805  159.4026 N   0  0  0  0  0  0  0  0  0  0  0  0
  152.8704  140.9507  159.0183 C   0  0  0  0  0  0  0  0  0  0  0  0
  152.6610  142.0804  159.7504 C   0  0  0  0  0  0  0  0  0  0  0  0
  151.7963  143.1598  159.2900 C   0  0  0  0  0  0  0  0  0  0  0  0
  151.6027  144.4650  160.0418 C   0  0  0  0  0  0  0  0  0  0  0  0
  152.1273  145.4888  159.3680 F   0  0  0  0  0  0  0  0  0  0  0  0
  150.3029  144.7023  160.2117 F   0  0  0  0  0  0  0  0  0  0  0  0
  152.1770  144.4146  161.2439 F   0  0  0  0  0  0  0  0  0  0  0  0
  151.2607  142.9063  158.0421 C   0  0  0  0  0  0  0  0  0  0  0  0
  151.4086  141.8161  157.2585 N   0  5  0  0  0  0  0  0  0  0  0  0
  152.2135  140.8095  157.7020 C   0  0  0  0  0  0  0  0  0  0  0  0
  152.4009  139.7930  157.0322 O   0  0  0  0  0  0  0  0  0  0  0  0
  155.9474  138.2993  159.6297 H   0  0  0  0  0  0  0  0  0  0  0  0
  155.9848  138.4836  161.3842 H   0  0  0  0  0  0  0  0  0  0  0  0
  153.3727  138.5149  162.0782 H   0  0  0  0  0  0  0  0  0  0  0  0
  152.7346  136.8930  161.7958 H   0  0  0  0  0  0  0  0  0  0  0  0
  155.5097  137.4191  163.0175 H   0  0  0  0  0  0  0  0  0  0  0  0
  153.7183  134.8730  162.8979 H   0  0  0  0  0  0  0  0  0  0  0  0
  155.3758  135.0181  163.6810 H   0  0  0  0  0  0  0  0  0  0  0  0
  154.4958  136.8147  165.2048 H   0  0  0  0  0  0  0  0  0  0  0  0
  152.8394  136.6683  164.4190 H   0  0  0  0  0  0  0  0  0  0  0  0
  153.5753  139.0455  158.8478 H   0  0  0  0  0  0  0  0  0  0  0  0
  153.1431  142.2230  160.7027 H   0  0  0  0  0  0  0  0  0  0  0  0
  150.6201  143.7022  157.6060 H   0  0  0  0  0  0  0  0  0  0  0  0
  1  2  2  0  0  0  0
  2  3  1  0  0  0  0
  2  9  1  0  0  0  0
  3  4  1  0  0  0  0
  3 21  1  0  0  0  0
  3 22  1  0  0  0  0
  4  5  1  0  0  0  0
  5  6  1  0  0  0  0
  5 23  1  0  0  0  0
  5 24  1  0  0  0  0
  6  8  1  0  0  0  0
  6  7  1  0  0  0  0
  6 25  1  0  0  0  0
  7  8  1  0  0  0  0
  7 26  1  0  0  0  0
  7 27  1  0  0  0  0
  8 28  1  0  0  0  0
  8 29  1  0  0  0  0
  9 10  1  0  0  0  0
  9 30  1  0  0  0  0
 10 19  1  0  0  0  0
 10 11  2  0  0  0  0
 11 12  1  0  0  0  0
 11 31  1  0  0  0  0
 12 13  1  0  0  0  0
 12 17  2  0  0  0  0
 13 14  1  0  0  0  0
 13 15  1  0  0  0  0
 13 16  1  0  0  0  0
 17 18  1  0  0  0  0
 17 32  1  0  0  0  0
 18 19  1  0  0  0  0
 19 20  2  0  0  0  0
M  CHG  1  18  -1
M  END
> <s_m_source_file>
AV-unprocessed.smi

> <i_m_source_file_index>
1790

> <i_lp_mmshare_version>
43012

> <i_f3d_flags>
0

> <s_epik_input>
W0NIMl0xW0NIMl1bQ0hdMVtDSDJdT1tDSDJdQyg9TylbTkhdYzJbY0hdYyhDKEYpKEYpRilbY0hdW25IXWMyPU8=

> <s_epik_cmdline>
J2VwaWtfcHl0aG9uJywgJy1waCcsICc3LjAnLCAnLXRuJywgJzgnLCAnLW1hJywgJzIwMCcsICctbWV0YWxfYmluZGluZycsICctaW1hZScsICc8aW5maWxlLm1hZT4nLCAnLW9tYWUnLCAnPG91dGZpbGUubWFlPic=

> <r_epik_Ionization_Penalty>
2.6027

> <r_epik_Ionization_Penalty_Charging>
0.0561891

> <r_epik_Ionization_Penalty_Neutral>
2.54651

> <r_epik_State_Penalty>
2.71477

> <r_epik_Charging_Adjusted_Penalty>
2.77096

> <i_epik_Tot_Q>
-1

> <i_epik_Tot_abs_Q>
1

> <r_epik_Metal_State_Penalty>
0.521168

> <b_epik_Metal_Only>
0

> <s_lp_Force_Field>
OPLS_2005

> <r_lp_Energy>
28.814

> <b_lp_Chiralities_Consistent>
1

> <s_lp_Variant>
AV-unprocessed.smi:1790-2

> <Gold.Version>
5.8.1

> <Gold.Id.Protein>
6NUR|6NUR_protein|mol2

> <Gold.PLP.Fitness>
45.6352

> <Gold.PLP.PLP>
-43.0383

> <Gold.PLP.part.hbond>
-1.5562

> <Gold.PLP.part.metal>
0.0000

> <Gold.PLP.part.buried>
-5.7590

> <Gold.PLP.part.nonpolar>
-34.6815

> <Gold.PLP.part.repulsive>
0.1284

> <Gold.PLP.ligand.clash>
0.0000

> <Gold.PLP.ligand.torsion>
0.5138

> <Gold.PLP.Chemscore.Hbond>
0.9913

> <Gold.PLP.Chemscore.CHOScore>
0.0000

> <Gold.PLP.Chemscore.Metal>
0.0000

> <Gold.Chemscore.Hbonds>
donor molecule, donor type, donor heavy atom, donor atom, acceptor molecule, acceptor atom, score
      P1  H  7997  8009       L1    20  0.94

> <Gold.PLP.Chemscore.Internal.Correction>
0.6508

> <Gold.Rescore>
     Score         DG    S(hbond)    S(metal)    S(lipo)     H(rot)  DE(clash)    DE(int)     intcor
     11.84     -13.55       0.72        0.00      88.62       1.83       0.21       1.50       ----

> <Gold.Chemscore.Fitness>
11.8395

> <Gold.Chemscore.DG>
-13.5506

> <Gold.Chemscore.ZeroCoef>
-5.4800

> <Gold.Chemscore.Hbond>
0.7167

> <Gold.Chemscore.Metal>
0.0000

> <Gold.Chemscore.Lipo>
88.6178

> <Gold.Chemscore.Internal_Hbond>
0.0000

> <Gold.Chemscore.DEClash>
0.2104

> <Gold.Chemscore.DEInternal>
1.5007

> <Gold.Chemscore.Rot>
1.8326

> <Gold.Chemscore.Internal.Correction>
   9.000000E+99

> <Gold.Chemscore.Hbonds>
donor molecule, donor type, donor heavy atom, donor atom, acceptor molecule, acceptor atom, score
      P1  H  7997  8009       L1    20  0.23

> <Gold.Chemscore.Hbond.Weighted>
-2.3939

> <Gold.Chemscore.Metal.Weighted>
-0.0000

> <Gold.Chemscore.Lipo.Weighted>
-10.3683

> <Gold.Chemscore.Internal_Hbond.Weighted>
0.0000

> <Gold.Chemscore.DEClash.Weighted>
0.2104

> <Gold.Chemscore.DEInternal.Weighted>
1.5007

> <Gold.Chemscore.Rot.Weighted>
4.6916

> <Gold.Chemscore.Internal.Correction.Weighted>
   9.000000E+99

> <Gold.Protein.RotatedTorsions>
[ 6907 6896 6895 6894 ] final    9.94 input  -60.11 | X-H torsion
[ 7974 7965 7964 7962 ] final -114.27 input  175.53 | X-H torsion
[ 8008 7997 7996 7995 ] final -165.76 input   59.86 | X-H torsion
[ 10167 10162 10161 10158 ] final  177.93 input  -65.29 | X-H torsion
[ 10718 10713 10712 10709 ] final -159.96 input   66.30 | X-H torsion
[ 10763 10752 10751 10750 ] final   28.15 input  -60.55 | X-H torsion
[ 11005 11000 10999 10996 ] final   86.00 input  -57.11 | X-H torsion

> <Gold.Protein.ActiveResidues>
 VAL166  LYS551  ARG553  GLY616  TRP617  ASP618  TYR619  PRO620  LYS621  CYS622 
 ASP623  PHE694  ASN695  SER759  ASP760  ASP761  ALA762  ILE779  LEU786  VAL792 
 PHE793  MET794  SER795  GLU796  ALA797  LYS798  CYS799  TRP800  GLU811  SER814 

> <Gold.Protein.RotatedAtoms>
  151.7303  135.0876  160.0298 H   0  0  0  0  0  0  0  0  0  0  0  0  # atno 6907 bound_to 6896
  152.3545  133.6216  159.5978 H   0  0  0  0  0  0  0  0  0  0  0  0  # atno 6908 bound_to 6896
  150.7562  133.9437  159.3506 H   0  0  0  0  0  0  0  0  0  0  0  0  # atno 6909 bound_to 6896
  145.1222  140.8675  143.3807 H   0  0  0  0  0  0  0  0  0  0  0  0  # atno 7974 bound_to 7965
  155.8543  140.0968  157.1655 H   0  0  0  0  0  0  0  0  0  0  0  0  # atno 8008 bound_to 7997
  154.3987  140.1377  156.3944 H   0  0  0  0  0  0  0  0  0  0  0  0  # atno 8009 bound_to 7997
  155.7927  140.3455  155.5361 H   0  0  0  0  0  0  0  0  0  0  0  0  # atno 8010 bound_to 7997
  139.5273  144.2740  152.0604 H   0  0  0  0  0  0  0  0  0  0  0  0  # atno 10167 bound_to 10162
  156.5754  130.8707  151.2850 H   0  0  0  0  0  0  0  0  0  0  0  0  # atno 10718 bound_to 10713
  153.0510  135.6520  154.0694 H   0  0  0  0  0  0  0  0  0  0  0  0  # atno 10763 bound_to 10752
  154.0382  135.2905  155.3360 H   0  0  0  0  0  0  0  0  0  0  0  0  # atno 10764 bound_to 10752
  154.6798  135.5324  153.8314 H   0  0  0  0  0  0  0  0  0  0  0  0  # atno 10765 bound_to 10752
  139.8956  134.8326  156.2661 H   0  0  0  0  0  0  0  0  0  0  0  0  # atno 11005 bound_to 11000
  145.0728  139.3018  143.5823 LP  0  0  0  0  0  0  0  0  0  0  0  0  # atno 17320 bound_to 7965
  146.3520  140.0208  142.8658 LP  0  0  0  0  0  0  0  0  0  0  0  0  # atno 17321 bound_to 7965
  140.2198  144.4478  150.6347 LP  0  0  0  0  0  0  0  0  0  0  0  0  # atno 17342 bound_to 10162
  140.6426  143.2206  151.6257 LP  0  0  0  0  0  0  0  0  0  0  0  0  # atno 17343 bound_to 10162
  157.7338  130.9737  150.1999 LP  0  0  0  0  0  0  0  0  0  0  0  0  # atno 17370 bound_to 10713
  156.2677  130.3718  149.8063 LP  0  0  0  0  0  0  0  0  0  0  0  0  # atno 17371 bound_to 10713
  141.0131  133.7084  156.1144 LP  0  0  0  0  0  0  0  0  0  0  0  0  # atno 17394 bound_to 11000
  140.7339  134.4224  157.5563 LP  0  0  0  0  0  0  0  0  0  0  0  0  # atno 17395 bound_to 11000

$$$$
