AV-unprocessed.smi:2134|AV-procd|sdf|8696|dock1
  -GOLD-   2272011453D 1   1.00000     0.00000
 Structure written by MMmdl.
 34 35  0  0  0  0  0  0  0  0  2 V2000
  145.8390  141.5016  158.1594 C   0  0  0  0  0  0  0  0  0  0  0  0
  146.1770  141.8945  156.7919 N   0  0  0  0  0  0  0  0  0  0  0  0
  147.4650  141.5638  156.4281 N   0  0  0  0  0  0  0  0  0  0  0  0
  147.8745  141.6063  155.1985 C   0  0  0  0  0  0  0  0  0  0  0  0
  149.2727  141.1957  154.8740 C   0  0  0  0  0  0  0  0  0  0  0  0
  149.4921  140.9607  153.6796 O   0  0  0  0  0  0  0  0  0  0  0  0
  150.1760  141.1027  155.8944 N   0  5  0  0  0  0  0  0  0  0  0  0
  150.1023  141.8299  157.1612 C   0  0  0  0  0  0  0  0  0  0  0  0
  151.5268  142.1052  157.6920 C   0  0  0  0  0  0  0  0  0  0  0  0
  151.6354  143.3093  158.6236 C   0  0  0  0  0  0  0  0  0  0  0  0
  152.1578  143.1778  159.9284 C   0  0  0  0  0  0  0  0  0  0  0  0
  152.2376  144.3198  160.7484 C   0  0  0  0  0  0  0  0  0  0  0  0
  151.7943  145.5515  160.2272 C   0  0  0  0  0  0  0  0  0  0  0  0
  151.3001  145.6950  158.9792 N   0  0  0  0  0  0  0  0  0  0  0  0
  151.2248  144.5942  158.2003 C   0  0  0  0  0  0  0  0  0  0  0  0
  146.9261  142.0264  154.0912 C   0  0  0  0  0  0  0  0  0  0  0  0
  145.8106  142.9566  154.6065 C   0  0  0  0  0  0  0  0  0  0  0  0
  145.2934  142.5362  155.9853 C   0  0  0  0  0  0  0  0  0  0  0  0
  144.1368  142.8096  156.3061 O   0  0  0  0  0  0  0  0  0  0  0  0
  144.8391  141.8053  158.4714 H   0  0  0  0  0  0  0  0  0  0  0  0
  146.5471  141.9420  158.8625 H   0  0  0  0  0  0  0  0  0  0  0  0
  145.8993  140.4173  158.2604 H   0  0  0  0  0  0  0  0  0  0  0  0
  149.5745  142.7797  157.0626 H   0  0  0  0  0  0  0  0  0  0  0  0
  149.5527  141.2603  157.9111 H   0  0  0  0  0  0  0  0  0  0  0  0
  151.8829  141.2244  158.2273 H   0  0  0  0  0  0  0  0  0  0  0  0
  152.2139  142.2419  156.8557 H   0  0  0  0  0  0  0  0  0  0  0  0
  152.4882  142.2176  160.2967 H   0  0  0  0  0  0  0  0  0  0  0  0
  152.6273  144.2528  161.7531 H   0  0  0  0  0  0  0  0  0  0  0  0
  151.8408  146.4470  160.8290 H   0  0  0  0  0  0  0  0  0  0  0  0
  150.8190  144.7423  157.2102 H   0  0  0  0  0  0  0  0  0  0  0  0
  147.4641  142.5478  153.2988 H   0  0  0  0  0  0  0  0  0  0  0  0
  146.4896  141.1373  153.6351 H   0  0  0  0  0  0  0  0  0  0  0  0
  146.1941  143.9737  154.6963 H   0  0  0  0  0  0  0  0  0  0  0  0
  144.9878  142.9928  153.8917 H   0  0  0  0  0  0  0  0  0  0  0  0
  1  2  1  0  0  0  0
  1 20  1  0  0  0  0
  1 21  1  0  0  0  0
  1 22  1  0  0  0  0
  2 18  1  0  0  0  0
  2  3  1  0  0  0  0
  3  4  2  0  0  0  0
  4  5  1  0  0  0  0
  4 16  1  0  0  0  0
  5  6  2  0  0  0  0
  5  7  1  0  0  0  0
  7  8  1  0  0  0  0
  8  9  1  0  0  0  0
  8 23  1  0  0  0  0
  8 24  1  0  0  0  0
  9 10  1  0  0  0  0
  9 25  1  0  0  0  0
  9 26  1  0  0  0  0
 10 15  1  0  0  0  0
 10 11  2  0  0  0  0
 11 12  1  0  0  0  0
 11 27  1  0  0  0  0
 12 13  2  0  0  0  0
 12 28  1  0  0  0  0
 13 14  1  0  0  0  0
 13 29  1  0  0  0  0
 14 15  2  0  0  0  0
 15 30  1  0  0  0  0
 16 17  1  0  0  0  0
 16 31  1  0  0  0  0
 16 32  1  0  0  0  0
 17 18  1  0  0  0  0
 17 33  1  0  0  0  0
 17 34  1  0  0  0  0
 18 19  2  0  0  0  0
M  CHG  1   7  -1
M  END
> <s_m_source_file>
AV-unprocessed.smi

> <i_m_source_file_index>
2134

> <i_lp_mmshare_version>
43012

> <i_f3d_flags>
0

> <s_epik_input>
Tz1DMVtDSDJdW0NIMl1DKD1OTjFbQ0gzXSlDKD1PKVtOSF1bQ0gyXVtDSDJdYzJbY0hdW2NIXVtjSF1uW2NIXTI=

> <s_epik_cmdline>
J2VwaWtfcHl0aG9uJywgJy1waCcsICc3LjAnLCAnLXRuJywgJzgnLCAnLW1hJywgJzIwMCcsICctbWV0YWxfYmluZGluZycsICctaW1hZScsICc8aW5maWxlLm1hZT4nLCAnLW9tYWUnLCAnPG91dGZpbGUubWFlPic=

> <r_epik_Ionization_Penalty>
5.39184

> <r_epik_Ionization_Penalty_Charging>
5.3715

> <r_epik_Ionization_Penalty_Neutral>
0.0203369

> <r_epik_State_Penalty>
5.3785

> <r_epik_Charging_Adjusted_Penalty>
10.75

> <i_epik_Tot_Q>
-1

> <i_epik_Tot_abs_Q>
1

> <r_epik_Metal_State_Penalty>
1.41656

> <b_epik_Metal_Only>
1

> <s_epik_Chemistry_Notes>
This compound has an imine and may undergo hydrolysis.

> <s_lp_Force_Field>
OPLS_2005

> <r_lp_Energy>
21.6515

> <b_lp_Chiralities_Consistent>
1

> <s_lp_Variant>
AV-unprocessed.smi:2134-3

> <Gold.Version>
5.8.1

> <Gold.Id.Protein>
6NUR|6NUR_protein|mol2

> <Gold.PLP.Fitness>
44.0632

> <Gold.PLP.PLP>
-38.1292

> <Gold.PLP.part.hbond>
-3.0000

> <Gold.PLP.part.metal>
0.0000

> <Gold.PLP.part.buried>
-6.2035

> <Gold.PLP.part.nonpolar>
-32.4852

> <Gold.PLP.part.repulsive>
3.4653

> <Gold.PLP.ligand.clash>
0.0000

> <Gold.PLP.ligand.torsion>
0.5708

> <Gold.PLP.Chemscore.Hbond>
1.3221

> <Gold.PLP.Chemscore.CHOScore>
1.0000

> <Gold.PLP.Chemscore.Metal>
0.0000

> <Gold.Chemscore.Hbonds>
donor molecule, donor type, donor heavy atom, donor atom, acceptor molecule, acceptor atom, score
      P1  H  7989  7998       L1     6  0.26
      P1  H  8011  8017       L1     6  1.00
      L1  C    15    30       P1  8028  1.00

> <Gold.PLP.Chemscore.Internal.Correction>
0.1093

> <Gold.Rescore>
     Score         DG    S(hbond)    S(metal)    S(lipo)     H(rot)  DE(clash)    DE(int)     intcor
     13.04     -16.33       1.18        0.00      90.20       1.42       1.33       1.96       ----

> <Gold.Chemscore.Fitness>
13.0365

> <Gold.Chemscore.DG>
-16.3282

> <Gold.Chemscore.ZeroCoef>
-5.4800

> <Gold.Chemscore.Hbond>
1.1751

> <Gold.Chemscore.Metal>
0.0000

> <Gold.Chemscore.Lipo>
90.1961

> <Gold.Chemscore.Internal_Hbond>
0.0000

> <Gold.Chemscore.DEClash>
1.3346

> <Gold.Chemscore.DEInternal>
1.9571

> <Gold.Chemscore.Rot>
1.4178

> <Gold.Chemscore.Internal.Correction>
   9.000000E+99

> <Gold.Chemscore.Hbonds>
donor molecule, donor type, donor heavy atom, donor atom, acceptor molecule, acceptor atom, score
      P1  H  7989  7998       L1     6  0.15
      P1  H  8011  8017       L1     6  0.91

> <Gold.Chemscore.Hbond.Weighted>
-3.9248

> <Gold.Chemscore.Metal.Weighted>
-0.0000

> <Gold.Chemscore.Lipo.Weighted>
-10.5529

> <Gold.Chemscore.Internal_Hbond.Weighted>
0.0000

> <Gold.Chemscore.DEClash.Weighted>
1.3346

> <Gold.Chemscore.DEInternal.Weighted>
1.9571

> <Gold.Chemscore.Rot.Weighted>
3.6295

> <Gold.Chemscore.Internal.Correction.Weighted>
   9.000000E+99

> <Gold.Protein.RotatedTorsions>
[ 6907 6896 6895 6894 ] final   78.25 input  -60.11 | X-H torsion
[ 7974 7965 7964 7962 ] final  143.60 input  175.53 | X-H torsion
[ 8008 7997 7996 7995 ] final  -12.21 input   59.86 | X-H torsion
[ 10167 10162 10161 10158 ] final  -35.14 input  -65.29 | X-H torsion
[ 10718 10713 10712 10709 ] final   78.55 input   66.30 | X-H torsion
[ 10763 10752 10751 10750 ] final   45.74 input  -60.55 | X-H torsion
[ 11005 11000 10999 10996 ] final   98.00 input  -57.11 | X-H torsion

> <Gold.Protein.ActiveResidues>
 VAL166  LYS551  ARG553  GLY616  TRP617  ASP618  TYR619  PRO620  LYS621  CYS622 
 ASP623  PHE694  ASN695  SER759  ASP760  ASP761  ALA762  ILE779  LEU786  VAL792 
 PHE793  MET794  SER795  GLU796  ALA797  LYS798  CYS799  TRP800  GLU811  SER814 

> <Gold.Protein.RotatedAtoms>
  152.5152  134.3692  159.9311 H   0  0  0  0  0  0  0  0  0  0  0  0  # atno 6907 bound_to 6896
  151.3646  133.3870  159.2701 H   0  0  0  0  0  0  0  0  0  0  0  0  # atno 6908 bound_to 6896
  150.9625  134.9030  159.7797 H   0  0  0  0  0  0  0  0  0  0  0  0  # atno 6909 bound_to 6896
  144.8907  139.5563  143.5800 H   0  0  0  0  0  0  0  0  0  0  0  0  # atno 7974 bound_to 7965
  154.5397  140.2282  155.8662 H   0  0  0  0  0  0  0  0  0  0  0  0  # atno 8008 bound_to 7997
  156.1846  140.3092  155.9177 H   0  0  0  0  0  0  0  0  0  0  0  0  # atno 8009 bound_to 7997
  155.3282  140.0444  157.3032 H   0  0  0  0  0  0  0  0  0  0  0  0  # atno 8010 bound_to 7997
  140.7171  143.3498  151.2180 H   0  0  0  0  0  0  0  0  0  0  0  0  # atno 10167 bound_to 10162
  157.6748  130.9873  150.1803 H   0  0  0  0  0  0  0  0  0  0  0  0  # atno 10718 bound_to 10713
  152.9820  135.6030  154.3486 H   0  0  0  0  0  0  0  0  0  0  0  0  # atno 10763 bound_to 10752
  154.3177  135.2770  155.2537 H   0  0  0  0  0  0  0  0  0  0  0  0  # atno 10764 bound_to 10752
  154.4717  135.5940  153.6382 H   0  0  0  0  0  0  0  0  0  0  0  0  # atno 10765 bound_to 10752
  139.8774  134.9028  156.4391 H   0  0  0  0  0  0  0  0  0  0  0  0  # atno 11005 bound_to 11000
  146.3052  139.7556  142.9062 LP  0  0  0  0  0  0  0  0  0  0  0  0  # atno 17320 bound_to 7965
  145.3788  141.0355  143.3189 LP  0  0  0  0  0  0  0  0  0  0  0  0  # atno 17321 bound_to 7965
  139.7026  143.9508  152.2912 LP  0  0  0  0  0  0  0  0  0  0  0  0  # atno 17342 bound_to 10162
  139.9206  144.6802  150.8465 LP  0  0  0  0  0  0  0  0  0  0  0  0  # atno 17343 bound_to 10162
  156.2537  130.3703  149.8204 LP  0  0  0  0  0  0  0  0  0  0  0  0  # atno 17370 bound_to 10713
  156.5970  130.8530  151.3422 LP  0  0  0  0  0  0  0  0  0  0  0  0  # atno 17371 bound_to 10713
  140.9012  133.7778  155.9682 LP  0  0  0  0  0  0  0  0  0  0  0  0  # atno 17394 bound_to 11000
  140.8649  134.2797  157.5218 LP  0  0  0  0  0  0  0  0  0  0  0  0  # atno 17395 bound_to 11000

$$$$
