AV-unprocessed.smi:3013|AV-procd|sdf|11465|dock1
  -GOLD-   2272016403D 1   1.00000     0.00000
 Structure written by MMmdl.
 45 46  0  0  0  0  0  0  0  0  2 V2000
  145.5207  136.3720  153.7048 C   0  0  0  0  0  0  0  0  0  0  0  0
  144.9410  136.5880  152.2944 C   0  0  1  0  0  0  0  0  0  0  0  0
  145.8753  137.4248  151.3867 C   0  0  0  0  0  0  0  0  0  0  0  0
  146.4770  138.6591  152.0853 C   0  0  0  0  0  0  0  0  0  0  0  0
  147.8409  138.4108  152.5391 N   0  0  0  0  0  0  0  0  0  0  0  0
  148.4276  139.0226  153.5783 C   0  0  0  0  0  0  0  0  0  0  0  0
  147.8612  139.8628  154.2780 O   0  0  0  0  0  0  0  0  0  0  0  0
  149.6918  138.5987  153.7454 N   0  0  0  0  0  0  0  0  0  0  0  0
  150.6229  139.0081  154.7375 C   0  0  0  0  0  0  0  0  0  0  0  0
  150.9773  140.2600  155.0099 N   0  0  0  0  0  0  0  0  0  0  0  0
  151.8668  140.0301  156.0207 C   0  0  0  0  0  0  0  0  0  0  0  0
  152.0542  138.7532  156.3555 N   0  0  0  0  0  0  0  0  0  0  0  0
  151.2310  138.0979  155.5037 N   0  0  0  0  0  0  0  0  0  0  0  0
  151.1258  136.6522  155.5308 C   0  0  0  0  0  0  0  0  0  0  0  0
  144.5527  135.2801  151.6883 N   0  3  0  0  0  0  0  0  0  0  0  0
  143.6161  134.4552  152.5010 C   0  0  0  0  0  0  0  0  0  0  0  0
  143.0942  133.2596  151.6868 C   0  0  0  0  0  0  0  0  0  0  0  0
  144.2559  132.4069  151.1590 C   0  0  0  0  0  0  0  0  0  0  0  0
  145.2328  133.2824  150.3623 C   0  0  0  0  0  0  0  0  0  0  0  0
  145.7089  134.4823  151.1988 C   0  0  0  0  0  0  0  0  0  0  0  0
  145.6191  137.3142  154.2433 H   0  0  0  0  0  0  0  0  0  0  0  0
  146.5074  135.9100  153.6749 H   0  0  0  0  0  0  0  0  0  0  0  0
  144.8706  135.7316  154.3016 H   0  0  0  0  0  0  0  0  0  0  0  0
  144.0186  137.1538  152.4334 H   0  0  0  0  0  0  0  0  0  0  0  0
  146.6822  136.7954  151.0100 H   0  0  0  0  0  0  0  0  0  0  0  0
  145.3251  137.7688  150.5108 H   0  0  0  0  0  0  0  0  0  0  0  0
  146.5007  139.5029  151.3952 H   0  0  0  0  0  0  0  0  0  0  0  0
  145.8660  138.9679  152.9343 H   0  0  0  0  0  0  0  0  0  0  0  0
  148.3796  137.7353  152.0167 H   0  0  0  0  0  0  0  0  0  0  0  0
  150.0286  137.9085  153.0905 H   0  0  0  0  0  0  0  0  0  0  0  0
  152.3917  140.8277  156.5253 H   0  0  0  0  0  0  0  0  0  0  0  0
  151.3253  136.2507  154.5365 H   0  0  0  0  0  0  0  0  0  0  0  0
  150.1195  136.3646  155.8362 H   0  0  0  0  0  0  0  0  0  0  0  0
  151.8448  136.2282  156.2332 H   0  0  0  0  0  0  0  0  0  0  0  0
  144.1190  134.0911  153.3978 H   0  0  0  0  0  0  0  0  0  0  0  0
  142.7696  135.0557  152.8328 H   0  0  0  0  0  0  0  0  0  0  0  0
  142.4339  132.6486  152.3029 H   0  0  0  0  0  0  0  0  0  0  0  0
  142.4927  133.6194  150.8509 H   0  0  0  0  0  0  0  0  0  0  0  0
  144.7781  131.9376  151.9939 H   0  0  0  0  0  0  0  0  0  0  0  0
  143.8771  131.5984  150.5332 H   0  0  0  0  0  0  0  0  0  0  0  0
  146.0890  132.6878  150.0420 H   0  0  0  0  0  0  0  0  0  0  0  0
  144.7466  133.6397  149.4534 H   0  0  0  0  0  0  0  0  0  0  0  0
  146.3602  135.1059  150.5853 H   0  0  0  0  0  0  0  0  0  0  0  0
  146.3060  134.1328  152.0419 H   0  0  0  0  0  0  0  0  0  0  0  0
  144.0407  135.5274  150.8533 H   0  0  0  0  0  0  0  0  0  0  0  0
  1  2  1  0  0  0  0
  1 21  1  0  0  0  0
  1 22  1  0  0  0  0
  1 23  1  0  0  0  0
  2  3  1  0  0  0  0
  2 15  1  0  0  0  0
  2 24  1  0  0  0  0
  3  4  1  0  0  0  0
  3 25  1  0  0  0  0
  3 26  1  0  0  0  0
  4  5  1  0  0  0  0
  4 27  1  0  0  0  0
  4 28  1  0  0  0  0
  5  6  1  0  0  0  0
  5 29  1  0  0  0  0
  6  7  2  0  0  0  0
  6  8  1  0  0  0  0
  8  9  1  0  0  0  0
  8 30  1  0  0  0  0
  9 13  1  0  0  0  0
  9 10  2  0  0  0  0
 10 11  1  0  0  0  0
 11 12  2  0  0  0  0
 11 31  1  0  0  0  0
 12 13  1  0  0  0  0
 13 14  1  0  0  0  0
 14 32  1  0  0  0  0
 14 33  1  0  0  0  0
 14 34  1  0  0  0  0
 15 20  1  0  0  0  0
 15 16  1  0  0  0  0
 15 45  1  0  0  0  0
 16 17  1  0  0  0  0
 16 35  1  0  0  0  0
 16 36  1  0  0  0  0
 17 18  1  0  0  0  0
 17 37  1  0  0  0  0
 17 38  1  0  0  0  0
 18 19  1  0  0  0  0
 18 39  1  0  0  0  0
 18 40  1  0  0  0  0
 19 20  1  0  0  0  0
 19 41  1  0  0  0  0
 19 42  1  0  0  0  0
 20 43  1  0  0  0  0
 20 44  1  0  0  0  0
M  CHG  1  15   1
M  END
> <s_m_source_file>
AV-unprocessed.smi

> <i_m_source_file_index>
3013

> <i_lp_mmshare_version>
43012

> <i_f3d_flags>
0

> <s_epik_input>
W0NIMl0xW0NIMl1bQ0gyXVtDSDJdW0NIMl1OMVtDQEhdKFtDSDNdKVtDSDJdW0NIMl1bTkhdQyg9TylbTkhdYzJuW2NIXW5uMltDSDNd

> <s_epik_cmdline>
J2VwaWtfcHl0aG9uJywgJy1waCcsICc3LjAnLCAnLXRuJywgJzgnLCAnLW1hJywgJzIwMCcsICctbWV0YWxfYmluZGluZycsICctaW1hZScsICc8aW5maWxlLm1hZT4nLCAnLW9tYWUnLCAnPG91dGZpbGUubWFlPic=

> <r_lp_tautomer_probability>
1

> <r_epik_Ionization_Penalty>
0.000375855

> <r_epik_Ionization_Penalty_Charging>
0.000355659

> <r_epik_Ionization_Penalty_Neutral>
2.01955e-05

> <r_epik_State_Penalty>
0.000216264

> <r_epik_Charging_Adjusted_Penalty>
0.000571923

> <i_epik_Tot_Q>
1

> <i_epik_Tot_abs_Q>
1

> <r_epik_Metal_State_Penalty>
-0

> <b_epik_Metal_Only>
0

> <s_lp_Force_Field>
OPLS_2005

> <r_lp_Energy>
21.9092

> <b_lp_Chiralities_Consistent>
1

> <s_lp_Variant>
AV-unprocessed.smi:3013-2

> <Gold.Version>
5.8.1

> <Gold.Id.Protein>
6NUR|6NUR_protein|mol2

> <Gold.PLP.Fitness>
38.7527

> <Gold.PLP.PLP>
-33.9693

> <Gold.PLP.part.hbond>
-4.8269

> <Gold.PLP.part.metal>
0.0000

> <Gold.PLP.part.buried>
0.4242

> <Gold.PLP.part.nonpolar>
-31.0118

> <Gold.PLP.part.repulsive>
0.3453

> <Gold.PLP.ligand.clash>
0.0000

> <Gold.PLP.ligand.torsion>
1.1215

> <Gold.PLP.Chemscore.Hbond>
2.2948

> <Gold.PLP.Chemscore.CHOScore>
0.0000

> <Gold.PLP.Chemscore.Metal>
0.0000

> <Gold.Chemscore.Hbonds>
donor molecule, donor type, donor heavy atom, donor atom, acceptor molecule, acceptor atom, score
      L1  H     5    29       P1  7948  1.00
      L1  H     8    30       P1  7948  0.23
      P1  H  7989  7998       L1    10  1.00

> <Gold.PLP.Chemscore.Internal.Correction>
0.1420

> <Gold.Rescore>
     Score         DG    S(hbond)    S(metal)    S(lipo)     H(rot)  DE(clash)    DE(int)     intcor
     12.30     -15.52       2.52        0.00      58.13       2.01       2.10       1.12       ----

> <Gold.Chemscore.Fitness>
12.2998

> <Gold.Chemscore.DG>
-15.5236

> <Gold.Chemscore.ZeroCoef>
-5.4800

> <Gold.Chemscore.Hbond>
2.5152

> <Gold.Chemscore.Metal>
0.0000

> <Gold.Chemscore.Lipo>
58.1255

> <Gold.Chemscore.Internal_Hbond>
0.0000

> <Gold.Chemscore.DEClash>
2.0999

> <Gold.Chemscore.DEInternal>
1.1239

> <Gold.Chemscore.Rot>
2.0148

> <Gold.Chemscore.Internal.Correction>
   9.000000E+99

> <Gold.Chemscore.Hbonds>
donor molecule, donor type, donor heavy atom, donor atom, acceptor molecule, acceptor atom, score
      L1  H     5    29       P1  7948  0.94
      L1  H     8    30       P1  7948  0.08
      P1  H  7989  7998       L1    10  0.47

> <Gold.Chemscore.Hbond.Weighted>
-8.4008

> <Gold.Chemscore.Metal.Weighted>
-0.0000

> <Gold.Chemscore.Lipo.Weighted>
-6.8007

> <Gold.Chemscore.Internal_Hbond.Weighted>
0.0000

> <Gold.Chemscore.DEClash.Weighted>
2.0999

> <Gold.Chemscore.DEInternal.Weighted>
1.1239

> <Gold.Chemscore.Rot.Weighted>
5.1579

> <Gold.Chemscore.Internal.Correction.Weighted>
   9.000000E+99

> <Gold.Protein.RotatedTorsions>
[ 6907 6896 6895 6894 ] final   59.16 input  -60.11 | X-H torsion
[ 7974 7965 7964 7962 ] final   36.45 input  175.53 | X-H torsion
[ 8008 7997 7996 7995 ] final -166.23 input   59.86 | X-H torsion
[ 10167 10162 10161 10158 ] final  163.80 input  -65.29 | X-H torsion
[ 10718 10713 10712 10709 ] final   -7.40 input   66.30 | X-H torsion
[ 10763 10752 10751 10750 ] final -179.95 input  -60.55 | X-H torsion
[ 11005 11000 10999 10996 ] final -162.39 input  -57.11 | X-H torsion

> <Gold.Protein.ActiveResidues>
 VAL166  LYS551  ARG553  GLY616  TRP617  ASP618  TYR619  PRO620  LYS621  CYS622 
 ASP623  PHE694  ASN695  SER759  ASP760  ASP761  ALA762  ILE779  LEU786  VAL792 
 PHE793  MET794  SER795  GLU796  ALA797  LYS798  CYS799  TRP800  GLU811  SER814 

> <Gold.Protein.RotatedAtoms>
  152.3890  134.6471  160.0114 H   0  0  0  0  0  0  0  0  0  0  0  0  # atno 6907 bound_to 6896
  151.6711  133.3308  159.3205 H   0  0  0  0  0  0  0  0  0  0  0  0  # atno 6908 bound_to 6896
  150.7810  134.6798  159.6482 H   0  0  0  0  0  0  0  0  0  0  0  0  # atno 6909 bound_to 6896
  146.1210  139.6016  142.9290 H   0  0  0  0  0  0  0  0  0  0  0  0  # atno 7974 bound_to 7965
  155.8609  140.0978  157.1614 H   0  0  0  0  0  0  0  0  0  0  0  0  # atno 8008 bound_to 7997
  154.3990  140.1365  156.4022 H   0  0  0  0  0  0  0  0  0  0  0  0  # atno 8009 bound_to 7997
  155.7857  140.3457  155.5324 H   0  0  0  0  0  0  0  0  0  0  0  0  # atno 8010 bound_to 7997
  139.4879  144.4300  151.9082 H   0  0  0  0  0  0  0  0  0  0  0  0  # atno 10167 bound_to 10162
  156.7177  130.5141  149.5876 H   0  0  0  0  0  0  0  0  0  0  0  0  # atno 10718 bound_to 10713
  154.5285  135.2798  155.1200 H   0  0  0  0  0  0  0  0  0  0  0  0  # atno 10763 bound_to 10752
  154.2730  135.6300  153.5321 H   0  0  0  0  0  0  0  0  0  0  0  0  # atno 10764 bound_to 10752
  152.9952  135.5633  154.5793 H   0  0  0  0  0  0  0  0  0  0  0  0  # atno 10765 bound_to 10752
  140.6097  134.4862  157.5214 H   0  0  0  0  0  0  0  0  0  0  0  0  # atno 11005 bound_to 11000
  145.5466  141.0417  143.2301 LP  0  0  0  0  0  0  0  0  0  0  0  0  # atno 17320 bound_to 7965
  144.7597  139.6987  143.7239 LP  0  0  0  0  0  0  0  0  0  0  0  0  # atno 17321 bound_to 7965
  140.3747  144.2811  150.5915 LP  0  0  0  0  0  0  0  0  0  0  0  0  # atno 17342 bound_to 10162
  140.5287  143.2248  151.8273 LP  0  0  0  0  0  0  0  0  0  0  0  0  # atno 17343 bound_to 10162
  156.1616  130.6378  151.0726 LP  0  0  0  0  0  0  0  0  0  0  0  0  # atno 17370 bound_to 10713
  157.6910  131.0810  150.7106 LP  0  0  0  0  0  0  0  0  0  0  0  0  # atno 17371 bound_to 10713
  139.9197  134.8173  156.1250 LP  0  0  0  0  0  0  0  0  0  0  0  0  # atno 17394 bound_to 11000
  141.0816  133.6752  156.2348 LP  0  0  0  0  0  0  0  0  0  0  0  0  # atno 17395 bound_to 11000

$$$$
