AV-unprocessed.smi:2583|AV-procd|sdf|10141|dock4
  -GOLD-   2272014153D 1   1.00000     0.00000
 Structure written by MMmdl.
 54 56  0  0  0  0  0  0  0  0  2 V2000
  153.2660  141.4771  160.4067 C   0  0  0  0  0  0  0  0  0  0  0  0
  152.6602  142.4686  159.4353 C   0  0  0  0  0  0  0  0  0  0  0  0
  153.0034  143.8352  159.4848 C   0  0  0  0  0  0  0  0  0  0  0  0
  152.4813  144.7600  158.6523 N   0  0  0  0  0  0  0  0  0  0  0  0
  151.5916  144.3455  157.7254 C   0  0  0  0  0  0  0  0  0  0  0  0
  151.1871  143.0022  157.5739 C   0  0  0  0  0  0  0  0  0  0  0  0
  150.2307  142.7013  156.5670 N   0  0  0  0  0  0  0  0  0  0  0  0
  149.9657  141.5123  155.9991 C   0  0  0  0  0  0  0  0  0  0  0  0
  150.5455  140.4567  156.2533 O   0  0  0  0  0  0  0  0  0  0  0  0
  148.9913  141.6163  155.0837 N   0  0  0  0  0  0  0  0  0  0  0  0
  148.4857  140.5145  154.2694 C   0  0  2  0  0  0  0  0  0  0  0  0
  147.4969  141.0247  153.2100 C   0  0  0  0  0  0  0  0  0  0  0  0
  146.8978  139.8591  152.4079 C   0  0  0  0  0  0  0  0  0  0  0  0
  146.2123  138.8699  153.2893 N   0  3  1  0  0  0  0  0  0  0  0  0
  145.4858  137.8188  152.5035 C   0  0  0  0  0  0  0  0  0  0  0  0
  144.8500  136.7661  153.4413 C   0  0  0  0  0  0  0  0  0  0  0  0
  144.1446  135.6466  152.6571 C   0  0  0  0  0  0  0  0  0  0  0  0
  145.0964  134.9752  151.7759 N   0  0  0  0  0  0  0  0  0  0  0  0
  144.4276  133.8787  151.0895 C   0  0  0  0  0  0  0  0  0  0  0  0
  145.6051  135.9243  150.7889 C   0  0  0  0  0  0  0  0  0  0  0  0
  146.3748  137.0569  151.4902 C   0  0  0  0  0  0  0  0  0  0  0  0
  147.1546  138.3504  154.3241 C   0  0  0  0  0  0  0  0  0  0  0  0
  147.7757  139.4854  155.1578 C   0  0  0  0  0  0  0  0  0  0  0  0
  151.7309  142.0449  158.4640 C   0  0  0  0  0  0  0  0  0  0  0  0
  154.1419  141.8961  160.9030 H   0  0  0  0  0  0  0  0  0  0  0  0
  153.5734  140.5705  159.8844 H   0  0  0  0  0  0  0  0  0  0  0  0
  152.5366  141.2046  161.1697 H   0  0  0  0  0  0  0  0  0  0  0  0
  153.7103  144.1997  160.2157 H   0  0  0  0  0  0  0  0  0  0  0  0
  151.1931  145.1138  157.0787 H   0  0  0  0  0  0  0  0  0  0  0  0
  149.7340  143.4960  156.1916 H   0  0  0  0  0  0  0  0  0  0  0  0
  148.5724  142.5232  154.9372 H   0  0  0  0  0  0  0  0  0  0  0  0
  149.3238  140.0215  153.7724 H   0  0  0  0  0  0  0  0  0  0  0  0
  146.6946  141.5896  153.6871 H   0  0  0  0  0  0  0  0  0  0  0  0
  147.9978  141.7142  152.5292 H   0  0  0  0  0  0  0  0  0  0  0  0
  146.2089  140.2775  151.6771 H   0  0  0  0  0  0  0  0  0  0  0  0
  147.6837  139.3565  151.8418 H   0  0  0  0  0  0  0  0  0  0  0  0
  144.6940  138.3102  151.9353 H   0  0  0  0  0  0  0  0  0  0  0  0
  145.6176  136.3303  154.0830 H   0  0  0  0  0  0  0  0  0  0  0  0
  144.1158  137.2168  154.1067 H   0  0  0  0  0  0  0  0  0  0  0  0
  143.7258  134.9229  153.3576 H   0  0  0  0  0  0  0  0  0  0  0  0
  143.3122  136.0523  152.0794 H   0  0  0  0  0  0  0  0  0  0  0  0
  145.1243  133.3580  150.4315 H   0  0  0  0  0  0  0  0  0  0  0  0
  143.5905  134.2354  150.4872 H   0  0  0  0  0  0  0  0  0  0  0  0
  144.0462  133.1523  151.8080 H   0  0  0  0  0  0  0  0  0  0  0  0
  146.2719  135.4072  150.0976 H   0  0  0  0  0  0  0  0  0  0  0  0
  144.7844  136.3324  150.1966 H   0  0  0  0  0  0  0  0  0  0  0  0
  146.7415  137.7302  150.7153 H   0  0  0  0  0  0  0  0  0  0  0  0
  147.2499  136.6423  151.9933 H   0  0  0  0  0  0  0  0  0  0  0  0
  146.6402  137.6953  155.0254 H   0  0  0  0  0  0  0  0  0  0  0  0
  147.9369  137.7608  153.8435 H   0  0  0  0  0  0  0  0  0  0  0  0
  148.4790  139.0671  155.8790 H   0  0  0  0  0  0  0  0  0  0  0  0
  146.9926  139.9746  155.7396 H   0  0  0  0  0  0  0  0  0  0  0  0
  151.4430  141.0056  158.4294 H   0  0  0  0  0  0  0  0  0  0  0  0
  145.5009  139.3755  153.7981 H   0  0  0  0  0  0  0  0  0  0  0  0
  1  2  1  0  0  0  0
  1 25  1  0  0  0  0
  1 26  1  0  0  0  0
  1 27  1  0  0  0  0
  2 24  1  0  0  0  0
  2  3  2  0  0  0  0
  3  4  1  0  0  0  0
  3 28  1  0  0  0  0
  4  5  2  0  0  0  0
  5  6  1  0  0  0  0
  5 29  1  0  0  0  0
  6  7  1  0  0  0  0
  6 24  2  0  0  0  0
  7  8  1  0  0  0  0
  7 30  1  0  0  0  0
  8  9  2  0  0  0  0
  8 10  1  0  0  0  0
 10 11  1  0  0  0  0
 10 31  1  0  0  0  0
 11 23  1  0  0  0  0
 11 12  1  0  0  0  0
 11 32  1  0  0  0  0
 12 13  1  0  0  0  0
 12 33  1  0  0  0  0
 12 34  1  0  0  0  0
 13 14  1  0  0  0  0
 13 35  1  0  0  0  0
 13 36  1  0  0  0  0
 14 15  1  0  0  0  0
 14 22  1  0  0  0  0
 14 54  1  0  0  0  0
 15 21  1  0  0  0  0
 15 16  1  0  0  0  0
 15 37  1  0  0  0  0
 16 17  1  0  0  0  0
 16 38  1  0  0  0  0
 16 39  1  0  0  0  0
 17 18  1  0  0  0  0
 17 40  1  0  0  0  0
 17 41  1  0  0  0  0
 18 19  1  0  0  0  0
 18 20  1  0  0  0  0
 19 42  1  0  0  0  0
 19 43  1  0  0  0  0
 19 44  1  0  0  0  0
 20 21  1  0  0  0  0
 20 45  1  0  0  0  0
 20 46  1  0  0  0  0
 21 47  1  0  0  0  0
 21 48  1  0  0  0  0
 22 23  1  0  0  0  0
 22 49  1  0  0  0  0
 22 50  1  0  0  0  0
 23 51  1  0  0  0  0
 23 52  1  0  0  0  0
 24 53  1  0  0  0  0
M  CHG  1  14   1
M  END
> <s_m_source_file>
AV-unprocessed.smi

> <i_m_source_file_index>
2583

> <i_lp_mmshare_version>
43012

> <i_f3d_flags>
0

> <s_epik_input>
W0NIM11jMVtjSF1uW2NIXWMoW2NIXTEpW05IXUMoPU8pW05IXVtDSF0yW0NIMl1bQ0gyXU4oW0NIMl1bQ0gyXTIpW0NIXTNbQ0gyXVtDSDJdTihbQ0gzXSlbQ0gyXVtDSDJdMw==

> <s_epik_cmdline>
J2VwaWtfcHl0aG9uJywgJy1waCcsICc3LjAnLCAnLXRuJywgJzgnLCAnLW1hJywgJzIwMCcsICctbWV0YWxfYmluZGluZycsICctaW1hZScsICc8aW5maWxlLm1hZT4nLCAnLW9tYWUnLCAnPG91dGZpbGUubWFlPic=

> <r_epik_Ionization_Penalty>
1.38006

> <r_epik_Ionization_Penalty_Charging>
0.00081195

> <r_epik_Ionization_Penalty_Neutral>
1.37925

> <r_epik_State_Penalty>
1.55585

> <r_epik_Charging_Adjusted_Penalty>
1.55666

> <i_epik_Tot_Q>
1

> <i_epik_Tot_abs_Q>
1

> <r_epik_Metal_State_Penalty>
1.55173

> <b_epik_Metal_Only>
0

> <s_lp_Force_Field>
OPLS_2005

> <r_lp_Energy>
35.6185

> <b_lp_Chiralities_Consistent>
1

> <s_lp_Variant>
AV-unprocessed.smi:2583-7

> <Gold.Version>
5.8.1

> <Gold.Id.Protein>
6NUR|6NUR_protein|mol2

> <Gold.PLP.Fitness>
47.6060

> <Gold.PLP.PLP>
-42.4927

> <Gold.PLP.part.hbond>
-2.4145

> <Gold.PLP.part.metal>
0.0000

> <Gold.PLP.part.buried>
-1.8267

> <Gold.PLP.part.nonpolar>
-38.8113

> <Gold.PLP.part.repulsive>
0.3936

> <Gold.PLP.ligand.clash>
0.0000

> <Gold.PLP.ligand.torsion>
0.2110

> <Gold.PLP.Chemscore.Hbond>
1.2548

> <Gold.PLP.Chemscore.CHOScore>
0.5799

> <Gold.PLP.Chemscore.Metal>
0.0000

> <Gold.Chemscore.Hbonds>
donor molecule, donor type, donor heavy atom, donor atom, acceptor molecule, acceptor atom, score
      L1  H     7    30       P1  8028  1.00
      L1  H    10    31       P1  8028  0.23
      L1  C     5    29       P1  8028  0.52

> <Gold.PLP.Chemscore.Internal.Correction>
0.0310

> <Gold.Rescore>
     Score         DG    S(hbond)    S(metal)    S(lipo)     H(rot)  DE(clash)    DE(int)     intcor
     19.21     -21.87       1.44        0.00     125.09       1.19       1.32       1.33       ----

> <Gold.Chemscore.Fitness>
19.2124

> <Gold.Chemscore.DG>
-21.8695

> <Gold.Chemscore.ZeroCoef>
-5.4800

> <Gold.Chemscore.Hbond>
1.4379

> <Gold.Chemscore.Metal>
0.0000

> <Gold.Chemscore.Lipo>
125.0922

> <Gold.Chemscore.Internal_Hbond>
0.0000

> <Gold.Chemscore.DEClash>
1.3249

> <Gold.Chemscore.DEInternal>
1.3322

> <Gold.Chemscore.Rot>
1.1910

> <Gold.Chemscore.Internal.Correction>
   9.000000E+99

> <Gold.Chemscore.Hbonds>
donor molecule, donor type, donor heavy atom, donor atom, acceptor molecule, acceptor atom, score
      L1  H     7    30       P1  8028  0.97
      L1  H    10    31       P1  8028  0.22

> <Gold.Chemscore.Hbond.Weighted>
-4.8026

> <Gold.Chemscore.Metal.Weighted>
-0.0000

> <Gold.Chemscore.Lipo.Weighted>
-14.6358

> <Gold.Chemscore.Internal_Hbond.Weighted>
0.0000

> <Gold.Chemscore.DEClash.Weighted>
1.3249

> <Gold.Chemscore.DEInternal.Weighted>
1.3322

> <Gold.Chemscore.Rot.Weighted>
3.0489

> <Gold.Chemscore.Internal.Correction.Weighted>
   9.000000E+99

> <Gold.Protein.RotatedTorsions>
[ 6907 6896 6895 6894 ] final  120.95 input  -60.11 | X-H torsion
[ 7974 7965 7964 7962 ] final   34.88 input  175.53 | X-H torsion
[ 8008 7997 7996 7995 ] final   64.07 input   59.86 | X-H torsion
[ 10167 10162 10161 10158 ] final   23.09 input  -65.29 | X-H torsion
[ 10718 10713 10712 10709 ] final   80.35 input   66.30 | X-H torsion
[ 10763 10752 10751 10750 ] final   70.31 input  -60.55 | X-H torsion
[ 11005 11000 10999 10996 ] final  -76.22 input  -57.11 | X-H torsion

> <Gold.Protein.ActiveResidues>
 VAL166  LYS551  ARG553  GLY616  TRP617  ASP618  TYR619  PRO620  LYS621  CYS622 
 ASP623  PHE694  ASN695  SER759  ASP760  ASP761  ALA762  ILE779  LEU786  VAL792 
 PHE793  MET794  SER795  GLU796  ALA797  LYS798  CYS799  TRP800  GLU811  SER814 

> <Gold.Protein.RotatedAtoms>
  152.4359  133.7360  159.6613 H   0  0  0  0  0  0  0  0  0  0  0  0  # atno 6907 bound_to 6896
  150.8243  133.8189  159.3131 H   0  0  0  0  0  0  0  0  0  0  0  0  # atno 6908 bound_to 6896
  151.5862  135.1058  160.0080 H   0  0  0  0  0  0  0  0  0  0  0  0  # atno 6909 bound_to 6896
  146.1322  139.6213  142.9219 H   0  0  0  0  0  0  0  0  0  0  0  0  # atno 7974 bound_to 7965
  155.6402  140.3497  155.4712 H   0  0  0  0  0  0  0  0  0  0  0  0  # atno 8008 bound_to 7997
  155.9932  140.1198  157.0642 H   0  0  0  0  0  0  0  0  0  0  0  0  # atno 8009 bound_to 7997
  154.4225  140.1115  156.5580 H   0  0  0  0  0  0  0  0  0  0  0  0  # atno 8010 bound_to 7997
  140.5297  143.9863  150.6459 H   0  0  0  0  0  0  0  0  0  0  0  0  # atno 10167 bound_to 10162
  157.6803  130.9956  150.2067 H   0  0  0  0  0  0  0  0  0  0  0  0  # atno 10718 bound_to 10713
  153.0335  135.5178  154.7422 H   0  0  0  0  0  0  0  0  0  0  0  0  # atno 10763 bound_to 10752
  154.6418  135.2913  155.0097 H   0  0  0  0  0  0  0  0  0  0  0  0  # atno 10764 bound_to 10752
  154.1012  135.6636  153.4921 H   0  0  0  0  0  0  0  0  0  0  0  0  # atno 10765 bound_to 10752
  141.1652  133.6975  156.7636 H   0  0  0  0  0  0  0  0  0  0  0  0  # atno 11005 bound_to 11000
  145.5235  141.0431  143.2422 LP  0  0  0  0  0  0  0  0  0  0  0  0  # atno 17320 bound_to 7965
  144.7702  139.6752  143.7198 LP  0  0  0  0  0  0  0  0  0  0  0  0  # atno 17321 bound_to 7965
  140.3234  143.3122  152.0760 LP  0  0  0  0  0  0  0  0  0  0  0  0  # atno 17342 bound_to 10162
  139.4950  144.6558  151.6576 LP  0  0  0  0  0  0  0  0  0  0  0  0  # atno 17343 bound_to 10162
  156.2746  130.3726  149.7996 LP  0  0  0  0  0  0  0  0  0  0  0  0  # atno 17370 bound_to 10713
  156.5703  130.8422  151.3354 LP  0  0  0  0  0  0  0  0  0  0  0  0  # atno 17371 bound_to 10713
  140.2516  134.8536  157.3672 LP  0  0  0  0  0  0  0  0  0  0  0  0  # atno 17394 bound_to 11000
  140.1697  134.4624  155.7839 LP  0  0  0  0  0  0  0  0  0  0  0  0  # atno 17395 bound_to 11000

$$$$
