AV-unprocessed.smi:2542|AV-procd|sdf|9991|dock9
  -GOLD-   2272014 43D 1   1.00000     0.00000
 Structure written by MMmdl.
 41 42  0  0  0  0  0  0  0  0  1 V2000
  149.9261  135.4445  156.5214 C   0  0  0  0  0  0  0  0  0  0  0  0
  149.1741  136.7664  156.7819 C   0  0  0  0  0  0  0  0  0  0  0  0
  147.7215  136.5726  156.2832 C   0  0  0  0  0  0  0  0  0  0  0  0
  149.1337  137.0303  158.3093 C   0  0  0  0  0  0  0  0  0  0  0  0
  148.2189  136.1229  158.9941 N   0  0  0  0  0  0  0  0  0  0  0  0
  147.7530  136.2865  160.2413 C   0  0  0  0  0  0  0  0  0  0  0  0
  148.0814  137.2416  160.9468 O   0  0  0  0  0  0  0  0  0  0  0  0
  146.7708  135.2194  160.7821 C   0  0  0  0  0  0  0  0  0  0  0  0
  145.5120  135.1965  160.0088 C   0  0  0  0  0  0  0  0  0  0  0  0
  144.5253  135.1783  159.4035 N   0  0  0  0  0  0  0  0  0  0  0  0
  147.4383  133.8179  160.7760 C   0  0  0  0  0  0  0  0  0  0  0  0
  147.5198  133.3398  162.2312 C   0  0  0  0  0  0  0  0  0  0  0  0
  147.4170  134.6058  163.0731 C   0  0  0  0  0  0  0  0  0  0  0  0
  146.4597  135.4878  162.2733 C   0  0  0  0  0  0  0  0  0  0  0  0
  149.8970  137.9211  156.0604 C   0  0  0  0  0  0  0  0  0  0  0  0
  151.2509  138.2554  156.3105 C   0  0  0  0  0  0  0  0  0  0  0  0
  151.8387  139.3142  155.5903 C   0  0  0  0  0  0  0  0  0  0  0  0
  151.1797  140.0405  154.6644 N   0  0  0  0  0  0  0  0  0  0  0  0
  149.8910  139.7254  154.4233 C   0  0  0  0  0  0  0  0  0  0  0  0
  149.2113  138.6850  155.0867 C   0  0  0  0  0  0  0  0  0  0  0  0
  149.4265  134.6028  157.0024 H   0  0  0  0  0  0  0  0  0  0  0  0
  150.9463  135.4701  156.9045 H   0  0  0  0  0  0  0  0  0  0  0  0
  149.9822  135.2261  155.4544 H   0  0  0  0  0  0  0  0  0  0  0  0
  147.2332  135.7480  156.8038 H   0  0  0  0  0  0  0  0  0  0  0  0
  147.6900  136.3390  155.2183 H   0  0  0  0  0  0  0  0  0  0  0  0
  147.1082  137.4589  156.4500 H   0  0  0  0  0  0  0  0  0  0  0  0
  150.1356  136.9412  158.7334 H   0  0  0  0  0  0  0  0  0  0  0  0
  148.8054  138.0507  158.5124 H   0  0  0  0  0  0  0  0  0  0  0  0
  147.9056  135.3169  158.4716 H   0  0  0  0  0  0  0  0  0  0  0  0
  146.8755  133.1038  160.1736 H   0  0  0  0  0  0  0  0  0  0  0  0
  148.4421  133.8464  160.3482 H   0  0  0  0  0  0  0  0  0  0  0  0
  146.6709  132.6902  162.4491 H   0  0  0  0  0  0  0  0  0  0  0  0
  148.4290  132.7740  162.4359 H   0  0  0  0  0  0  0  0  0  0  0  0
  147.0620  134.4100  164.0852 H   0  0  0  0  0  0  0  0  0  0  0  0
  148.3944  135.0837  163.1486 H   0  0  0  0  0  0  0  0  0  0  0  0
  146.5498  136.5385  162.5536 H   0  0  0  0  0  0  0  0  0  0  0  0
  145.4335  135.1929  162.4981 H   0  0  0  0  0  0  0  0  0  0  0  0
  151.8537  137.7250  157.0311 H   0  0  0  0  0  0  0  0  0  0  0  0
  152.8702  139.5841  155.7634 H   0  0  0  0  0  0  0  0  0  0  0  0
  149.3846  140.3184  153.6763 H   0  0  0  0  0  0  0  0  0  0  0  0
  148.1799  138.4806  154.8412 H   0  0  0  0  0  0  0  0  0  0  0  0
  1  2  1  0  0  0  0
  1 21  1  0  0  0  0
  1 22  1  0  0  0  0
  1 23  1  0  0  0  0
  2  3  1  0  0  0  0
  2  4  1  0  0  0  0
  2 15  1  0  0  0  0
  3 24  1  0  0  0  0
  3 25  1  0  0  0  0
  3 26  1  0  0  0  0
  4  5  1  0  0  0  0
  4 27  1  0  0  0  0
  4 28  1  0  0  0  0
  5  6  1  0  0  0  0
  5 29  1  0  0  0  0
  6  7  2  0  0  0  0
  6  8  1  0  0  0  0
  8 14  1  0  0  0  0
  8  9  1  0  0  0  0
  8 11  1  0  0  0  0
  9 10  3  0  0  0  0
 11 12  1  0  0  0  0
 11 30  1  0  0  0  0
 11 31  1  0  0  0  0
 12 13  1  0  0  0  0
 12 32  1  0  0  0  0
 12 33  1  0  0  0  0
 13 14  1  0  0  0  0
 13 34  1  0  0  0  0
 13 35  1  0  0  0  0
 14 36  1  0  0  0  0
 14 37  1  0  0  0  0
 15 20  1  0  0  0  0
 15 16  2  0  0  0  0
 16 17  1  0  0  0  0
 16 38  1  0  0  0  0
 17 18  2  0  0  0  0
 17 39  1  0  0  0  0
 18 19  1  0  0  0  0
 19 20  2  0  0  0  0
 19 40  1  0  0  0  0
 20 41  1  0  0  0  0
M  END
> <s_m_source_file>
AV-unprocessed.smi

> <i_m_source_file_index>
2542

> <i_lp_mmshare_version>
43012

> <i_f3d_flags>
0

> <s_epik_input>
W2NIXTFbY0hdbltjSF1bY0hdYzFDKFtDSDNdKShbQ0gzXSlbQ0gyXVtOSF1DKD1PKUMyKEMjTilbQ0gyXVtDSDJdW0NIMl1bQ0gyXTI=

> <s_epik_cmdline>
J2VwaWtfcHl0aG9uJywgJy1waCcsICc3LjAnLCAnLXRuJywgJzgnLCAnLW1hJywgJzIwMCcsICctbWV0YWxfYmluZGluZycsICctaW1hZScsICc8aW5maWxlLm1hZT4nLCAnLW9tYWUnLCAnPG91dGZpbGUubWFlPic=

> <r_epik_Ionization_Penalty>
0.0480096

> <r_epik_Ionization_Penalty_Charging>
0

> <r_epik_Ionization_Penalty_Neutral>
0.0480096

> <r_epik_State_Penalty>
0.04092

> <r_epik_Charging_Adjusted_Penalty>
0.04092

> <i_epik_Tot_Q>
0

> <i_epik_Tot_abs_Q>
0

> <r_epik_Metal_State_Penalty>
0.0377989

> <b_epik_Metal_Only>
0

> <s_lp_Force_Field>
OPLS_2005

> <r_lp_Energy>
29.6926

> <b_lp_Chiralities_Consistent>
1

> <s_lp_Variant>
AV-unprocessed.smi:2542-1

> <Gold.Version>
5.8.1

> <Gold.Id.Protein>
6NUR|6NUR_protein|mol2

> <Gold.PLP.Fitness>
37.1688

> <Gold.PLP.PLP>
-26.9239

> <Gold.PLP.part.hbond>
-2.9919

> <Gold.PLP.part.metal>
0.0000

> <Gold.PLP.part.buried>
-2.6773

> <Gold.PLP.part.nonpolar>
-22.1525

> <Gold.PLP.part.repulsive>
0.1875

> <Gold.PLP.ligand.clash>
0.0000

> <Gold.PLP.ligand.torsion>
0.2887

> <Gold.PLP.Chemscore.Hbond>
2.5941

> <Gold.PLP.Chemscore.CHOScore>
1.0000

> <Gold.PLP.Chemscore.Metal>
0.0000

> <Gold.Chemscore.Hbonds>
donor molecule, donor type, donor heavy atom, donor atom, acceptor molecule, acceptor atom, score
      P1  H  6931  6943       L1     7  0.91
      P1  H  6934  6947       L1     7  0.69
      P1  H  7989  7998       L1    18  0.93
      L1  C    19    40       P1  7957  0.89

> <Gold.PLP.Chemscore.Internal.Correction>
0.0400

> <Gold.Rescore>
     Score         DG    S(hbond)    S(metal)    S(lipo)     H(rot)  DE(clash)    DE(int)     intcor
     18.25     -18.56       2.65        0.00      68.82       1.49       0.00       0.31       ----

> <Gold.Chemscore.Fitness>
18.2505

> <Gold.Chemscore.DG>
-18.5624

> <Gold.Chemscore.ZeroCoef>
-5.4800

> <Gold.Chemscore.Hbond>
2.6479

> <Gold.Chemscore.Metal>
0.0000

> <Gold.Chemscore.Lipo>
68.8198

> <Gold.Chemscore.Internal_Hbond>
0.0000

> <Gold.Chemscore.DEClash>
0.0000

> <Gold.Chemscore.DEInternal>
0.3120

> <Gold.Chemscore.Rot>
1.4897

> <Gold.Chemscore.Internal.Correction>
   9.000000E+99

> <Gold.Chemscore.Hbonds>
donor molecule, donor type, donor heavy atom, donor atom, acceptor molecule, acceptor atom, score
      P1  H  6931  6943       L1     7  0.88
      P1  H  6934  6947       L1     7  0.66
      P1  H  7989  7998       L1    18  0.53

> <Gold.Chemscore.Hbond.Weighted>
-8.8441

> <Gold.Chemscore.Metal.Weighted>
-0.0000

> <Gold.Chemscore.Lipo.Weighted>
-8.0519

> <Gold.Chemscore.Internal_Hbond.Weighted>
0.0000

> <Gold.Chemscore.DEClash.Weighted>
0.0000

> <Gold.Chemscore.DEInternal.Weighted>
0.3120

> <Gold.Chemscore.Rot.Weighted>
3.8136

> <Gold.Chemscore.Internal.Correction.Weighted>
   9.000000E+99

> <Gold.Protein.RotatedTorsions>
[ 6907 6896 6895 6894 ] final -147.24 input  -60.11 | X-H torsion
[ 7974 7965 7964 7962 ] final -123.19 input  175.53 | X-H torsion
[ 8008 7997 7996 7995 ] final   86.08 input   59.86 | X-H torsion
[ 10167 10162 10161 10158 ] final   -4.93 input  -65.29 | X-H torsion
[ 10718 10713 10712 10709 ] final -122.64 input   66.30 | X-H torsion
[ 10763 10752 10751 10750 ] final -138.24 input  -60.55 | X-H torsion
[ 11005 11000 10999 10996 ] final  -64.39 input  -57.11 | X-H torsion

> <Gold.Protein.ActiveResidues>
 VAL166  LYS551  ARG553  GLY616  TRP617  ASP618  TYR619  PRO620  LYS621  CYS622 
 ASP623  PHE694  ASN695  SER759  ASP760  ASP761  ALA762  ILE779  LEU786  VAL792 
 PHE793  MET794  SER795  GLU796  ALA797  LYS798  CYS799  TRP800  GLU811  SER814 

> <Gold.Protein.RotatedAtoms>
  151.1529  133.4896  159.2594 H   0  0  0  0  0  0  0  0  0  0  0  0  # atno 6907 bound_to 6896
  151.1535  135.0238  159.8689 H   0  0  0  0  0  0  0  0  0  0  0  0  # atno 6908 bound_to 6896
  152.5463  134.1410  159.8532 H   0  0  0  0  0  0  0  0  0  0  0  0  # atno 6909 bound_to 6896
  145.0213  140.7991  143.4379 H   0  0  0  0  0  0  0  0  0  0  0  0  # atno 7974 bound_to 7965
  155.9582  140.3395  155.6467 H   0  0  0  0  0  0  0  0  0  0  0  0  # atno 8008 bound_to 7997
  155.6833  140.0740  157.2495 H   0  0  0  0  0  0  0  0  0  0  0  0  # atno 8009 bound_to 7997
  154.4137  140.1670  156.1993 H   0  0  0  0  0  0  0  0  0  0  0  0  # atno 8010 bound_to 7997
  140.6945  143.6367  150.8473 H   0  0  0  0  0  0  0  0  0  0  0  0  # atno 10167 bound_to 10162
  156.1435  130.6483  150.9808 H   0  0  0  0  0  0  0  0  0  0  0  0  # atno 10718 bound_to 10713
  154.8642  135.3618  154.5353 H   0  0  0  0  0  0  0  0  0  0  0  0  # atno 10763 bound_to 10752
  153.5977  135.7013  153.5402 H   0  0  0  0  0  0  0  0  0  0  0  0  # atno 10764 bound_to 10752
  153.3318  135.4122  155.1463 H   0  0  0  0  0  0  0  0  0  0  0  0  # atno 10765 bound_to 10752
  141.1423  133.6665  156.5826 H   0  0  0  0  0  0  0  0  0  0  0  0  # atno 11005 bound_to 11000
  145.1891  139.2310  143.5252 LP  0  0  0  0  0  0  0  0  0  0  0  0  # atno 17320 bound_to 7965
  146.3486  140.1683  142.8590 LP  0  0  0  0  0  0  0  0  0  0  0  0  # atno 17321 bound_to 7965
  140.0083  143.5670  152.2849 LP  0  0  0  0  0  0  0  0  0  0  0  0  # atno 17342 bound_to 10162
  139.6384  144.7652  151.2389 LP  0  0  0  0  0  0  0  0  0  0  0  0  # atno 17343 bound_to 10162
  157.6597  131.0883  150.7867 LP  0  0  0  0  0  0  0  0  0  0  0  0  # atno 17370 bound_to 10713
  156.7941  130.4899  149.5380 LP  0  0  0  0  0  0  0  0  0  0  0  0  # atno 17371 bound_to 10713
  140.3825  134.7510  157.4670 LP  0  0  0  0  0  0  0  0  0  0  0  0  # atno 17394 bound_to 11000
  140.0626  134.5974  155.8731 LP  0  0  0  0  0  0  0  0  0  0  0  0  # atno 17395 bound_to 11000

$$$$
