AV-unprocessed.smi:3048|AV-procd|sdf|11628|dock4
  -GOLD-   2272017 13D 1   1.00000     0.00000
 Structure written by MMmdl.
 37 38  0  0  0  0  0  0  0  0  1 V2000
  145.9537  142.9291  153.6584 C   0  0  0  0  0  0  0  0  0  0  0  0
  146.9159  141.8347  154.0202 C   0  0  0  0  0  0  0  0  0  0  0  0
  146.8713  140.4663  153.6285 C   0  0  0  0  0  0  0  0  0  0  0  0
  147.8719  139.7562  154.1235 N   0  0  0  0  0  0  0  0  0  0  0  0
  148.5880  140.6427  154.8468 N   0  0  0  0  0  0  0  0  0  0  0  0
  149.7790  140.2053  155.5521 C   0  0  0  0  0  0  0  0  0  0  0  0
  150.7601  141.3590  155.8156 C   0  0  0  0  0  0  0  0  0  0  0  0
  151.3158  141.2923  157.1643 N   0  0  0  0  0  0  0  0  0  0  0  0
  150.6948  142.2279  158.0957 C   0  0  0  0  0  0  0  0  0  0  0  0
  151.6954  142.6904  159.1656 C   0  0  1  0  0  0  0  0  0  0  0  0
  151.1636  143.9011  159.9569 C   0  0  0  0  0  0  0  0  0  0  0  0
  152.1386  144.2858  161.0759 C   0  0  0  0  0  0  0  0  0  0  0  0
  152.4442  143.0581  161.9406 C   0  0  0  0  0  0  0  0  0  0  0  0
  152.8993  141.8850  161.0585 C   0  0  0  0  0  0  0  0  0  0  0  0
  151.9094  141.6098  160.0721 O   0  0  0  0  0  0  0  0  0  0  0  0
  148.0349  141.9048  154.8007 C   0  0  0  0  0  0  0  0  0  0  0  0
  145.4833  142.7504  152.6913 H   0  0  0  0  0  0  0  0  0  0  0  0
  146.4480  143.8991  153.6002 H   0  0  0  0  0  0  0  0  0  0  0  0
  145.1541  143.0184  154.3940 H   0  0  0  0  0  0  0  0  0  0  0  0
  146.1438  139.9704  153.0028 H   0  0  0  0  0  0  0  0  0  0  0  0
  149.4722  139.7563  156.4979 H   0  0  0  0  0  0  0  0  0  0  0  0
  150.2615  139.4155  154.9743 H   0  0  0  0  0  0  0  0  0  0  0  0
  151.5611  141.3341  155.0758 H   0  0  0  0  0  0  0  0  0  0  0  0
  150.2417  142.3086  155.6791 H   0  0  0  0  0  0  0  0  0  0  0  0
  152.3162  141.4612  157.1292 H   0  0  0  0  0  0  0  0  0  0  0  0
  150.3405  143.0985  157.5420 H   0  0  0  0  0  0  0  0  0  0  0  0
  149.8189  141.7799  158.5664 H   0  0  0  0  0  0  0  0  0  0  0  0
  152.6384  142.9613  158.6863 H   0  0  0  0  0  0  0  0  0  0  0  0
  151.0103  144.7508  159.2907 H   0  0  0  0  0  0  0  0  0  0  0  0
  150.1903  143.6611  160.3871 H   0  0  0  0  0  0  0  0  0  0  0  0
  153.0631  144.6683  160.6416 H   0  0  0  0  0  0  0  0  0  0  0  0
  151.7222  145.0878  161.6863 H   0  0  0  0  0  0  0  0  0  0  0  0
  153.2098  143.2966  162.6794 H   0  0  0  0  0  0  0  0  0  0  0  0
  151.5513  142.7693  162.4964 H   0  0  0  0  0  0  0  0  0  0  0  0
  153.8547  142.1044  160.5794 H   0  0  0  0  0  0  0  0  0  0  0  0
  153.0472  140.9932  161.6677 H   0  0  0  0  0  0  0  0  0  0  0  0
  148.4773  142.7387  155.3258 H   0  0  0  0  0  0  0  0  0  0  0  0
  1  2  1  0  0  0  0
  1 17  1  0  0  0  0
  1 18  1  0  0  0  0
  1 19  1  0  0  0  0
  2 16  2  0  0  0  0
  2  3  1  0  0  0  0
  3  4  2  0  0  0  0
  3 20  1  0  0  0  0
  4  5  1  0  0  0  0
  5  6  1  0  0  0  0
  5 16  1  0  0  0  0
  6  7  1  0  0  0  0
  6 21  1  0  0  0  0
  6 22  1  0  0  0  0
  7  8  1  0  0  0  0
  7 23  1  0  0  0  0
  7 24  1  0  0  0  0
  8  9  1  0  0  0  0
  8 25  1  0  0  0  0
  9 10  1  0  0  0  0
  9 26  1  0  0  0  0
  9 27  1  0  0  0  0
 10 15  1  0  0  0  0
 10 11  1  0  0  0  0
 10 28  1  0  0  0  0
 11 12  1  0  0  0  0
 11 29  1  0  0  0  0
 11 30  1  0  0  0  0
 12 13  1  0  0  0  0
 12 31  1  0  0  0  0
 12 32  1  0  0  0  0
 13 14  1  0  0  0  0
 13 33  1  0  0  0  0
 13 34  1  0  0  0  0
 14 15  1  0  0  0  0
 14 35  1  0  0  0  0
 14 36  1  0  0  0  0
 16 37  1  0  0  0  0
M  END
> <s_m_source_file>
AV-unprocessed.smi

> <i_m_source_file_index>
3048

> <i_lp_mmshare_version>
43012

> <i_f3d_flags>
0

> <s_epik_input>
W0NIM11jMVtjSF1ubihbY0hdMSlbQ0gyXVtDSDJdW05IXVtDSDJdW0NAQEhdMltDSDJdW0NIMl1bQ0gyXVtDSDJdTzI=

> <s_epik_cmdline>
J2VwaWtfcHl0aG9uJywgJy1waCcsICc3LjAnLCAnLXRuJywgJzgnLCAnLW1hJywgJzIwMCcsICctbWV0YWxfYmluZGluZycsICctaW1hZScsICc8aW5maWxlLm1hZT4nLCAnLW9tYWUnLCAnPG91dGZpbGUubWFlPic=

> <r_lp_tautomer_probability>
1

> <r_epik_Ionization_Penalty>
2.52229

> <r_epik_Ionization_Penalty_Charging>
0

> <r_epik_Ionization_Penalty_Neutral>
2.52229

> <r_epik_State_Penalty>
2.68614

> <r_epik_Charging_Adjusted_Penalty>
2.68614

> <i_epik_Tot_Q>
0

> <i_epik_Tot_abs_Q>
0

> <r_epik_Metal_State_Penalty>
2.68365

> <b_epik_Metal_Only>
0

> <s_lp_Force_Field>
OPLS_2005

> <r_lp_Energy>
12.9812

> <b_lp_Chiralities_Consistent>
1

> <s_lp_Variant>
AV-unprocessed.smi:3048-4

> <Gold.Version>
5.8.1

> <Gold.Id.Protein>
6NUR|6NUR_protein|mol2

> <Gold.PLP.Fitness>
39.9433

> <Gold.PLP.PLP>
-36.3405

> <Gold.PLP.part.hbond>
-0.2864

> <Gold.PLP.part.metal>
0.0000

> <Gold.PLP.part.buried>
-4.7990

> <Gold.PLP.part.nonpolar>
-31.7776

> <Gold.PLP.part.repulsive>
0.1294

> <Gold.PLP.ligand.clash>
0.0000

> <Gold.PLP.ligand.torsion>
1.2124

> <Gold.PLP.Chemscore.Hbond>
0.0000

> <Gold.PLP.Chemscore.CHOScore>
2.0000

> <Gold.PLP.Chemscore.Metal>
0.0000

> <Gold.Chemscore.Hbonds>
donor molecule, donor type, donor heavy atom, donor atom, acceptor molecule, acceptor atom, score
      L1  C     3    20       P1 10175  0.91
      L1  C    16    37       P1  8028  1.00

> <Gold.PLP.Chemscore.Internal.Correction>
0.0276

> <Gold.Rescore>
     Score         DG    S(hbond)    S(metal)    S(lipo)     H(rot)  DE(clash)    DE(int)     intcor
     12.55     -13.78       0.00        0.00     104.69       1.54       0.07       1.16       ----

> <Gold.Chemscore.Fitness>
12.5519

> <Gold.Chemscore.DG>
-13.7831

> <Gold.Chemscore.ZeroCoef>
-5.4800

> <Gold.Chemscore.Hbond>
0.0000

> <Gold.Chemscore.Metal>
0.0000

> <Gold.Chemscore.Lipo>
104.6860

> <Gold.Chemscore.Internal_Hbond>
0.0000

> <Gold.Chemscore.DEClash>
0.0668

> <Gold.Chemscore.DEInternal>
1.1644

> <Gold.Chemscore.Rot>
1.5411

> <Gold.Chemscore.Internal.Correction>
   9.000000E+99

> <Gold.Chemscore.Hbond.Weighted>
-0.0000

> <Gold.Chemscore.Metal.Weighted>
-0.0000

> <Gold.Chemscore.Lipo.Weighted>
-12.2483

> <Gold.Chemscore.Internal_Hbond.Weighted>
0.0000

> <Gold.Chemscore.DEClash.Weighted>
0.0668

> <Gold.Chemscore.DEInternal.Weighted>
1.1644

> <Gold.Chemscore.Rot.Weighted>
3.9452

> <Gold.Chemscore.Internal.Correction.Weighted>
   9.000000E+99

> <Gold.Protein.RotatedTorsions>
[ 6907 6896 6895 6894 ] final  -10.89 input  -60.11 | X-H torsion
[ 7974 7965 7964 7962 ] final -113.93 input  175.53 | X-H torsion
[ 8008 7997 7996 7995 ] final  155.53 input   59.86 | X-H torsion
[ 10167 10162 10161 10158 ] final  159.90 input  -65.29 | X-H torsion
[ 10718 10713 10712 10709 ] final  -99.50 input   66.30 | X-H torsion
[ 10763 10752 10751 10750 ] final   36.58 input  -60.55 | X-H torsion
[ 11005 11000 10999 10996 ] final -161.88 input  -57.11 | X-H torsion

> <Gold.Protein.ActiveResidues>
 VAL166  LYS551  ARG553  GLY616  TRP617  ASP618  TYR619  PRO620  LYS621  CYS622 
 ASP623  PHE694  ASN695  SER759  ASP760  ASP761  ALA762  ILE779  LEU786  VAL792 
 PHE793  MET794  SER795  GLU796  ALA797  LYS798  CYS799  TRP800  GLU811  SER814 

> <Gold.Protein.RotatedAtoms>
  151.3949  135.0962  159.9537 H   0  0  0  0  0  0  0  0  0  0  0  0  # atno 6907 bound_to 6896
  152.5068  133.8944  159.7420 H   0  0  0  0  0  0  0  0  0  0  0  0  # atno 6908 bound_to 6896
  150.9406  133.6605  159.2820 H   0  0  0  0  0  0  0  0  0  0  0  0  # atno 6909 bound_to 6896
  145.1261  140.8697  143.3785 H   0  0  0  0  0  0  0  0  0  0  0  0  # atno 7974 bound_to 7965
  156.2473  140.1937  156.6815 H   0  0  0  0  0  0  0  0  0  0  0  0  # atno 8008 bound_to 7997
  154.6318  140.0595  156.9768 H   0  0  0  0  0  0  0  0  0  0  0  0  # atno 8009 bound_to 7997
  155.1698  140.3267  155.4397 H   0  0  0  0  0  0  0  0  0  0  0  0  # atno 8010 bound_to 7997
  139.4836  144.4686  151.8607 H   0  0  0  0  0  0  0  0  0  0  0  0  # atno 10167 bound_to 10162
  156.0136  130.5285  150.6679 H   0  0  0  0  0  0  0  0  0  0  0  0  # atno 10718 bound_to 10713
  153.0071  135.6302  154.2008 H   0  0  0  0  0  0  0  0  0  0  0  0  # atno 10763 bound_to 10752
  154.1751  135.2816  155.3071 H   0  0  0  0  0  0  0  0  0  0  0  0  # atno 10764 bound_to 10752
  154.5878  135.5627  153.7308 H   0  0  0  0  0  0  0  0  0  0  0  0  # atno 10765 bound_to 10752
  140.6154  134.4806  157.5219 H   0  0  0  0  0  0  0  0  0  0  0  0  # atno 11005 bound_to 11000
  145.0686  139.3049  143.5843 LP  0  0  0  0  0  0  0  0  0  0  0  0  # atno 17320 bound_to 7965
  146.3517  140.0153  142.8663 LP  0  0  0  0  0  0  0  0  0  0  0  0  # atno 17321 bound_to 7965
  140.4153  144.2315  150.5888 LP  0  0  0  0  0  0  0  0  0  0  0  0  # atno 17342 bound_to 10162
  140.4927  143.2342  151.8795 LP  0  0  0  0  0  0  0  0  0  0  0  0  # atno 17343 bound_to 10162
  157.4408  131.0861  151.0945 LP  0  0  0  0  0  0  0  0  0  0  0  0  # atno 17370 bound_to 10713
  157.1490  130.6176  149.5577 LP  0  0  0  0  0  0  0  0  0  0  0  0  # atno 17371 bound_to 10713
  139.9175  134.8216  156.1319 LP  0  0  0  0  0  0  0  0  0  0  0  0  # atno 17394 bound_to 11000
  141.0779  133.6767  156.2275 LP  0  0  0  0  0  0  0  0  0  0  0  0  # atno 17395 bound_to 11000

$$$$
