AV-unprocessed.smi:671|AV-procd|sdf|3279|dock9
  -GOLD-   22720 0243D 1   1.00000     0.00000
 Structure written by MMmdl.
 49 50  0  0  0  0  0  0  0  0  1 V2000
  152.5585  138.6427  154.7727 C   0  0  0  0  0  0  0  0  0  0  0  0
  151.7663  139.6374  155.5727 C   0  0  0  0  0  0  0  0  0  0  0  0
  152.3480  140.2830  156.5696 N   0  0  0  0  0  0  0  0  0  0  0  0
  151.3845  141.0827  157.0696 N   0  0  0  0  0  0  0  0  0  0  0  0
  151.6899  141.9455  158.1944 C   0  0  0  0  0  0  0  0  0  0  0  0
  150.1926  140.9455  156.3845 C   0  0  0  0  0  0  0  0  0  0  0  0
  148.9729  141.7309  156.7448 C   0  0  0  0  0  0  0  0  0  0  0  0
  150.4023  140.0143  155.4026 C   0  0  0  0  0  0  0  0  0  0  0  0
  149.4422  139.4882  154.3681 C   0  0  0  0  0  0  0  0  0  0  0  0
  148.6857  138.2349  154.8598 C   0  0  2  0  0  0  0  0  0  0  0  0
  149.6136  137.2238  155.5507 C   0  0  0  0  0  0  0  0  0  0  0  0
  148.0156  137.5745  153.7371 N   0  0  0  0  0  0  0  0  0  0  0  0
  146.6952  137.5006  153.4857 C   0  0  0  0  0  0  0  0  0  0  0  0
  145.8639  138.0172  154.2296 O   0  0  0  0  0  0  0  0  0  0  0  0
  146.3748  136.8228  152.3704 N   0  0  0  0  0  0  0  0  0  0  0  0
  145.0207  136.5584  151.8944 C   0  0  1  0  0  0  0  0  0  0  0  0
  145.0541  135.6486  150.6508 C   0  0  0  0  0  0  0  0  0  0  0  0
  144.3981  134.3294  151.0626 C   0  0  0  0  0  0  0  0  0  0  0  0
  143.4408  134.7178  152.1842 C   0  0  0  0  0  0  0  0  0  0  0  0
  144.1930  135.8036  152.9581 C   0  0  2  0  0  0  0  0  0  0  0  0
  143.2746  136.7088  153.7906 C   0  0  0  0  0  0  0  0  0  0  0  0
  152.8347  139.0550  153.8023 H   0  0  0  0  0  0  0  0  0  0  0  0
  151.9804  137.7359  154.5942 H   0  0  0  0  0  0  0  0  0  0  0  0
  153.4766  138.3512  155.2838 H   0  0  0  0  0  0  0  0  0  0  0  0
  151.6959  142.9852  157.8661 H   0  0  0  0  0  0  0  0  0  0  0  0
  152.6671  141.7007  158.6136 H   0  0  0  0  0  0  0  0  0  0  0  0
  150.9344  141.8208  158.9706 H   0  0  0  0  0  0  0  0  0  0  0  0
  148.1731  141.5773  156.0208 H   0  0  0  0  0  0  0  0  0  0  0  0
  149.1930  142.7982  156.7728 H   0  0  0  0  0  0  0  0  0  0  0  0
  148.5989  141.4356  157.7252 H   0  0  0  0  0  0  0  0  0  0  0  0
  148.7270  140.2706  154.1124 H   0  0  0  0  0  0  0  0  0  0  0  0
  149.9539  139.2622  153.4321 H   0  0  0  0  0  0  0  0  0  0  0  0
  147.9325  138.5339  155.5908 H   0  0  0  0  0  0  0  0  0  0  0  0
  150.0826  137.6550  156.4353 H   0  0  0  0  0  0  0  0  0  0  0  0
  150.4079  136.8907  154.8820 H   0  0  0  0  0  0  0  0  0  0  0  0
  149.0598  136.3423  155.8754 H   0  0  0  0  0  0  0  0  0  0  0  0
  148.6252  137.1440  153.0570 H   0  0  0  0  0  0  0  0  0  0  0  0
  147.1300  136.4404  151.8205 H   0  0  0  0  0  0  0  0  0  0  0  0
  144.5280  137.4927  151.6179 H   0  0  0  0  0  0  0  0  0  0  0  0
  144.4690  136.1093  149.8537 H   0  0  0  0  0  0  0  0  0  0  0  0
  146.0593  135.4915  150.2566 H   0  0  0  0  0  0  0  0  0  0  0  0
  143.8937  133.8350  150.2322 H   0  0  0  0  0  0  0  0  0  0  0  0
  145.1544  133.6444  151.4467 H   0  0  0  0  0  0  0  0  0  0  0  0
  142.5245  135.1259  151.7552 H   0  0  0  0  0  0  0  0  0  0  0  0
  143.1662  133.8695  152.8121 H   0  0  0  0  0  0  0  0  0  0  0  0
  144.8763  135.2926  153.6393 H   0  0  0  0  0  0  0  0  0  0  0  0
  142.5630  137.2418  153.1593 H   0  0  0  0  0  0  0  0  0  0  0  0
  143.8526  137.4512  154.3415 H   0  0  0  0  0  0  0  0  0  0  0  0
  142.7066  136.1265  154.5166 H   0  0  0  0  0  0  0  0  0  0  0  0
  1  2  1  0  0  0  0
  1 22  1  0  0  0  0
  1 23  1  0  0  0  0
  1 24  1  0  0  0  0
  2  8  1  0  0  0  0
  2  3  2  0  0  0  0
  3  4  1  0  0  0  0
  4  5  1  0  0  0  0
  4  6  1  0  0  0  0
  5 25  1  0  0  0  0
  5 26  1  0  0  0  0
  5 27  1  0  0  0  0
  6  7  1  0  0  0  0
  6  8  2  0  0  0  0
  7 28  1  0  0  0  0
  7 29  1  0  0  0  0
  7 30  1  0  0  0  0
  8  9  1  0  0  0  0
  9 10  1  0  0  0  0
  9 31  1  0  0  0  0
  9 32  1  0  0  0  0
 10 11  1  0  0  0  0
 10 12  1  0  0  0  0
 10 33  1  0  0  0  0
 11 34  1  0  0  0  0
 11 35  1  0  0  0  0
 11 36  1  0  0  0  0
 12 13  1  0  0  0  0
 12 37  1  0  0  0  0
 13 14  2  0  0  0  0
 13 15  1  0  0  0  0
 15 16  1  0  0  0  0
 15 38  1  0  0  0  0
 16 20  1  0  0  0  0
 16 17  1  0  0  0  0
 16 39  1  0  0  0  0
 17 18  1  0  0  0  0
 17 40  1  0  0  0  0
 17 41  1  0  0  0  0
 18 19  1  0  0  0  0
 18 42  1  0  0  0  0
 18 43  1  0  0  0  0
 19 20  1  0  0  0  0
 19 44  1  0  0  0  0
 19 45  1  0  0  0  0
 20 21  1  0  0  0  0
 20 46  1  0  0  0  0
 21 47  1  0  0  0  0
 21 48  1  0  0  0  0
 21 49  1  0  0  0  0
M  END
> <s_m_source_file>
AV-unprocessed.smi

> <i_m_source_file_index>
671

> <i_lp_mmshare_version>
43012

> <i_f3d_flags>
0

> <s_epik_input>
W0NIM11jMW5uKFtDSDNdKWMoW0NIM10pYzFbQ0gyXVtDQEhdKFtDSDNdKVtOSF1DKD1PKVtOSF1bQ0BASF0yW0NIMl1bQ0gyXVtDSDJdW0NASF0yW0NIM10=

> <s_epik_cmdline>
J2VwaWtfcHl0aG9uJywgJy1waCcsICc3LjAnLCAnLXRuJywgJzgnLCAnLW1hJywgJzIwMCcsICctbWV0YWxfYmluZGluZycsICctaW1hZScsICc8aW5maWxlLm1hZT4nLCAnLW9tYWUnLCAnPG91dGZpbGUubWFlPic=

> <r_lp_tautomer_probability>
1

> <r_epik_Ionization_Penalty>
0.0126855

> <r_epik_Ionization_Penalty_Charging>
0

> <r_epik_Ionization_Penalty_Neutral>
0.0126855

> <r_epik_State_Penalty>
0.00977547

> <r_epik_Charging_Adjusted_Penalty>
0.00977547

> <i_epik_Tot_Q>
0

> <i_epik_Tot_abs_Q>
0

> <r_epik_Metal_State_Penalty>
0.00957132

> <b_epik_Metal_Only>
0

> <s_lp_Force_Field>
OPLS_2005

> <r_lp_Energy>
21.5891

> <b_lp_Chiralities_Consistent>
1

> <s_lp_Variant>
AV-unprocessed.smi:671-7

> <Gold.Version>
5.8.1

> <Gold.Id.Protein>
6NUR|6NUR_protein|mol2

> <Gold.PLP.Fitness>
40.6215

> <Gold.PLP.PLP>
-33.1988

> <Gold.PLP.part.hbond>
-2.8402

> <Gold.PLP.part.metal>
0.0000

> <Gold.PLP.part.buried>
-1.9500

> <Gold.PLP.part.nonpolar>
-27.7299

> <Gold.PLP.part.repulsive>
0.1388

> <Gold.PLP.ligand.clash>
0.0000

> <Gold.PLP.ligand.torsion>
0.5576

> <Gold.PLP.Chemscore.Hbond>
2.8393

> <Gold.PLP.Chemscore.CHOScore>
0.0000

> <Gold.PLP.Chemscore.Metal>
0.0000

> <Gold.Chemscore.Hbonds>
donor molecule, donor type, donor heavy atom, donor atom, acceptor molecule, acceptor atom, score
      L1  H    12    37       P1  7948  0.99
      L1  H    15    38       P1  7948  0.85
      P1  H  7997  8009       L1     3  1.00

> <Gold.PLP.Chemscore.Internal.Correction>
0.0202

> <Gold.Rescore>
     Score         DG    S(hbond)    S(metal)    S(lipo)     H(rot)  DE(clash)    DE(int)     intcor
     19.21     -20.82       2.85        0.00      81.43       1.45       0.14       1.46       ----

> <Gold.Chemscore.Fitness>
19.2110

> <Gold.Chemscore.DG>
-20.8167

> <Gold.Chemscore.ZeroCoef>
-5.4800

> <Gold.Chemscore.Hbond>
2.8506

> <Gold.Chemscore.Metal>
0.0000

> <Gold.Chemscore.Lipo>
81.4330

> <Gold.Chemscore.Internal_Hbond>
0.0000

> <Gold.Chemscore.DEClash>
0.1423

> <Gold.Chemscore.DEInternal>
1.4635

> <Gold.Chemscore.Rot>
1.4499

> <Gold.Chemscore.Internal.Correction>
   9.000000E+99

> <Gold.Chemscore.Hbonds>
donor molecule, donor type, donor heavy atom, donor atom, acceptor molecule, acceptor atom, score
      L1  H    12    37       P1  7948  0.91
      L1  H    15    38       P1  7948  0.83
      P1  H  7997  8009       L1     3  0.76

> <Gold.Chemscore.Hbond.Weighted>
-9.5209

> <Gold.Chemscore.Metal.Weighted>
-0.0000

> <Gold.Chemscore.Lipo.Weighted>
-9.5277

> <Gold.Chemscore.Internal_Hbond.Weighted>
0.0000

> <Gold.Chemscore.DEClash.Weighted>
0.1423

> <Gold.Chemscore.DEInternal.Weighted>
1.4635

> <Gold.Chemscore.Rot.Weighted>
3.7118

> <Gold.Chemscore.Internal.Correction.Weighted>
   9.000000E+99

> <Gold.Protein.RotatedTorsions>
[ 6907 6896 6895 6894 ] final  -82.50 input  -60.11 | X-H torsion
[ 7974 7965 7964 7962 ] final  136.87 input  175.53 | X-H torsion
[ 8008 7997 7996 7995 ] final -172.76 input   59.86 | X-H torsion
[ 10167 10162 10161 10158 ] final  130.02 input  -65.29 | X-H torsion
[ 10718 10713 10712 10709 ] final  149.48 input   66.30 | X-H torsion
[ 10763 10752 10751 10750 ] final  129.98 input  -60.55 | X-H torsion
[ 11005 11000 10999 10996 ] final -112.27 input  -57.11 | X-H torsion

> <Gold.Protein.ActiveResidues>
 VAL166  LYS551  ARG553  GLY616  TRP617  ASP618  TYR619  PRO620  LYS621  CYS622 
 ASP623  PHE694  ASN695  SER759  ASP760  ASP761  ALA762  ILE779  LEU786  VAL792 
 PHE793  MET794  SER795  GLU796  ALA797  LYS798  CYS799  TRP800  GLU811  SER814 

> <Gold.Protein.RotatedAtoms>
  150.6896  134.3656  159.4969 H   0  0  0  0  0  0  0  0  0  0  0  0  # atno 6907 bound_to 6896
  152.1479  134.9009  160.0559 H   0  0  0  0  0  0  0  0  0  0  0  0  # atno 6908 bound_to 6896
  152.0118  133.3829  159.4259 H   0  0  0  0  0  0  0  0  0  0  0  0  # atno 6909 bound_to 6896
  144.9523  139.4805  143.5520 H   0  0  0  0  0  0  0  0  0  0  0  0  # atno 7974 bound_to 7965
  155.9488  140.1122  157.0994 H   0  0  0  0  0  0  0  0  0  0  0  0  # atno 8008 bound_to 7997
  154.4105  140.1204  156.5091 H   0  0  0  0  0  0  0  0  0  0  0  0  # atno 8009 bound_to 7997
  155.6869  140.3473  155.4880 H   0  0  0  0  0  0  0  0  0  0  0  0  # atno 8010 bound_to 7997
  139.5450  144.6765  151.4502 H   0  0  0  0  0  0  0  0  0  0  0  0  # atno 10167 bound_to 10162
  157.2956  131.0861  151.1429 H   0  0  0  0  0  0  0  0  0  0  0  0  # atno 10718 bound_to 10713
  153.7506  135.3210  155.3320 H   0  0  0  0  0  0  0  0  0  0  0  0  # atno 10763 bound_to 10752
  154.8264  135.4566  154.0936 H   0  0  0  0  0  0  0  0  0  0  0  0  # atno 10764 bound_to 10752
  153.2137  135.6939  153.8165 H   0  0  0  0  0  0  0  0  0  0  0  0  # atno 10765 bound_to 10752
  141.0685  133.9419  157.2531 H   0  0  0  0  0  0  0  0  0  0  0  0  # atno 11005 bound_to 11000
  146.3325  139.8616  142.8855 LP  0  0  0  0  0  0  0  0  0  0  0  0  # atno 17320 bound_to 7965
  145.2825  141.0143  143.3709 LP  0  0  0  0  0  0  0  0  0  0  0  0  # atno 17321 bound_to 7965
  140.6695  143.8326  150.6981 LP  0  0  0  0  0  0  0  0  0  0  0  0  # atno 17342 bound_to 10162
  140.1745  143.4166  152.1977 LP  0  0  0  0  0  0  0  0  0  0  0  0  # atno 17343 bound_to 10162
  157.2808  130.6749  149.6065 LP  0  0  0  0  0  0  0  0  0  0  0  0  # atno 17370 bound_to 10713
  155.9669  130.4450  150.5485 LP  0  0  0  0  0  0  0  0  0  0  0  0  # atno 17371 bound_to 10713
  139.9500  135.0177  156.8966 LP  0  0  0  0  0  0  0  0  0  0  0  0  # atno 17394 bound_to 11000
  140.5723  134.0432  155.7434 LP  0  0  0  0  0  0  0  0  0  0  0  0  # atno 17395 bound_to 11000

$$$$
