AV-unprocessed.smi:3290|AV-procd|sdf|12612|dock5
  -GOLD-   2272018543D 1   1.00000     0.00000
 Structure written by MMmdl.
 43 44  0  0  0  0  0  0  0  0  2 V2000
  153.2517  142.3137  159.1539 C   0  0  0  0  0  0  0  0  0  0  0  0
  151.9134  142.5533  159.8819 C   0  0  1  0  0  0  0  0  0  0  0  0
  152.0517  143.6217  160.9876 C   0  0  0  0  0  0  0  0  0  0  0  0
  152.1831  145.0434  160.4175 C   0  0  0  0  0  0  0  0  0  0  0  0
  151.0101  145.3763  159.4848 C   0  0  0  0  0  0  0  0  0  0  0  0
  150.8654  144.3294  158.3692 C   0  0  0  0  0  0  0  0  0  0  0  0
  150.7255  142.9018  158.9398 C   0  0  1  0  0  0  0  0  0  0  0  0
  150.4929  141.8754  157.8120 C   0  0  0  0  0  0  0  0  0  0  0  0
  149.3695  142.2672  156.9382 N   0  3  0  0  0  0  0  0  0  0  0  0
  148.9327  141.2095  156.0053 C   0  0  0  0  0  0  0  0  0  0  0  0
  149.8955  141.0786  154.8125 C   0  0  2  0  0  0  0  0  0  0  0  0
  149.1685  141.2879  153.6172 O   0  0  0  0  0  0  0  0  0  0  0  0
  150.5949  139.7286  154.8173 C   0  0  0  0  0  0  0  0  0  0  0  0
  149.9107  138.5679  154.3993 C   0  0  0  0  0  0  0  0  0  0  0  0
  150.5988  137.3378  154.4133 C   0  0  0  0  0  0  0  0  0  0  0  0
  151.8847  137.2122  154.8045 N   0  0  0  0  0  0  0  0  0  0  0  0
  152.5362  138.3264  155.2011 C   0  0  0  0  0  0  0  0  0  0  0  0
  151.9408  139.6034  155.2253 C   0  0  0  0  0  0  0  0  0  0  0  0
  153.5558  143.1731  158.5574 H   0  0  0  0  0  0  0  0  0  0  0  0
  153.1988  141.4510  158.4904 H   0  0  0  0  0  0  0  0  0  0  0  0
  154.0507  142.1122  159.8676 H   0  0  0  0  0  0  0  0  0  0  0  0
  151.6729  141.6184  160.3891 H   0  0  0  0  0  0  0  0  0  0  0  0
  151.1747  143.5815  161.6355 H   0  0  0  0  0  0  0  0  0  0  0  0
  152.9062  143.3970  161.6270 H   0  0  0  0  0  0  0  0  0  0  0  0
  152.2227  145.7663  161.2330 H   0  0  0  0  0  0  0  0  0  0  0  0
  153.1244  145.1432  159.8764 H   0  0  0  0  0  0  0  0  0  0  0  0
  150.0867  145.4218  160.0636 H   0  0  0  0  0  0  0  0  0  0  0  0
  151.1502  146.3665  159.0503 H   0  0  0  0  0  0  0  0  0  0  0  0
  149.9930  144.5741  157.7619 H   0  0  0  0  0  0  0  0  0  0  0  0
  151.7242  144.3855  157.6998 H   0  0  0  0  0  0  0  0  0  0  0  0
  149.8229  142.9015  159.5537 H   0  0  0  0  0  0  0  0  0  0  0  0
  151.3908  141.7981  157.1973 H   0  0  0  0  0  0  0  0  0  0  0  0
  150.3141  140.8815  158.2230 H   0  0  0  0  0  0  0  0  0  0  0  0
  148.5823  142.5140  157.5215 H   0  0  0  0  0  0  0  0  0  0  0  0
  148.8888  140.2653  156.5500 H   0  0  0  0  0  0  0  0  0  0  0  0
  147.9219  141.4250  155.6552 H   0  0  0  0  0  0  0  0  0  0  0  0
  150.6541  141.8603  154.8732 H   0  0  0  0  0  0  0  0  0  0  0  0
  148.3934  140.7469  153.6392 H   0  0  0  0  0  0  0  0  0  0  0  0
  148.8819  138.6126  154.0741 H   0  0  0  0  0  0  0  0  0  0  0  0
  150.1026  136.4312  154.1001 H   0  0  0  0  0  0  0  0  0  0  0  0
  153.5637  138.1970  155.5070 H   0  0  0  0  0  0  0  0  0  0  0  0
  152.5086  140.4635  155.5490 H   0  0  0  0  0  0  0  0  0  0  0  0
  149.6418  143.0797  156.4037 H   0  0  0  0  0  0  0  0  0  0  0  0
  1  2  1  0  0  0  0
  1 19  1  0  0  0  0
  1 20  1  0  0  0  0
  1 21  1  0  0  0  0
  2  7  1  0  0  0  0
  2  3  1  0  0  0  0
  2 22  1  0  0  0  0
  3  4  1  0  0  0  0
  3 23  1  0  0  0  0
  3 24  1  0  0  0  0
  4  5  1  0  0  0  0
  4 25  1  0  0  0  0
  4 26  1  0  0  0  0
  5  6  1  0  0  0  0
  5 27  1  0  0  0  0
  5 28  1  0  0  0  0
  6  7  1  0  0  0  0
  6 29  1  0  0  0  0
  6 30  1  0  0  0  0
  7  8  1  0  0  0  0
  7 31  1  0  0  0  0
  8  9  1  0  0  0  0
  8 32  1  0  0  0  0
  8 33  1  0  0  0  0
  9 10  1  0  0  0  0
  9 34  1  0  0  0  0
  9 43  1  0  0  0  0
 10 11  1  0  0  0  0
 10 35  1  0  0  0  0
 10 36  1  0  0  0  0
 11 12  1  0  0  0  0
 11 13  1  0  0  0  0
 11 37  1  0  0  0  0
 12 38  1  0  0  0  0
 13 18  1  0  0  0  0
 13 14  2  0  0  0  0
 14 15  1  0  0  0  0
 14 39  1  0  0  0  0
 15 16  2  0  0  0  0
 15 40  1  0  0  0  0
 16 17  1  0  0  0  0
 17 18  2  0  0  0  0
 17 41  1  0  0  0  0
 18 42  1  0  0  0  0
M  CHG  1   9   1
M  END
> <s_m_source_file>
AV-unprocessed.smi

> <i_m_source_file_index>
3290

> <i_lp_mmshare_version>
43012

> <i_f3d_flags>
0

> <s_epik_input>
W0NIM11bQ0BASF0xW0NIMl1bQ0gyXVtDSDJdW0NIMl1bQ0BIXTFbQ0gyXVtOSF1bQ0gyXVtDQEhdKFtPSF0pYzJbY0hdW2NIXW5bY0hdW2NIXTI=

> <s_epik_cmdline>
J2VwaWtfcHl0aG9uJywgJy1waCcsICc3LjAnLCAnLXRuJywgJzgnLCAnLW1hJywgJzIwMCcsICctbWV0YWxfYmluZGluZycsICctaW1hZScsICc8aW5maWxlLm1hZT4nLCAnLW9tYWUnLCAnPG91dGZpbGUubWFlPic=

> <r_lp_tautomer_probability>
1

> <r_epik_Ionization_Penalty>
0.00420552

> <r_epik_Ionization_Penalty_Charging>
0.00207255

> <r_epik_Ionization_Penalty_Neutral>
0.00213297

> <r_epik_State_Penalty>
-0

> <r_epik_Charging_Adjusted_Penalty>
0.00207255

> <i_epik_Tot_Q>
1

> <i_epik_Tot_abs_Q>
1

> <r_epik_Metal_State_Penalty>
-0

> <b_epik_Metal_Only>
0

> <s_lp_Force_Field>
OPLS_2005

> <r_lp_Energy>
18.26

> <b_lp_Chiralities_Consistent>
1

> <s_lp_Variant>
AV-unprocessed.smi:3290-2

> <Gold.Version>
5.8.1

> <Gold.Id.Protein>
6NUR|6NUR_protein|mol2

> <Gold.PLP.Fitness>
53.3293

> <Gold.PLP.PLP>
-42.8814

> <Gold.PLP.part.hbond>
-5.0000

> <Gold.PLP.part.metal>
0.0000

> <Gold.PLP.part.buried>
-0.7973

> <Gold.PLP.part.nonpolar>
-36.9324

> <Gold.PLP.part.repulsive>
0.1188

> <Gold.PLP.ligand.clash>
0.0000

> <Gold.PLP.ligand.torsion>
1.2511

> <Gold.PLP.Chemscore.Hbond>
3.4560

> <Gold.PLP.Chemscore.CHOScore>
0.8481

> <Gold.PLP.Chemscore.Metal>
0.0000

> <Gold.Chemscore.Hbonds>
donor molecule, donor type, donor heavy atom, donor atom, acceptor molecule, acceptor atom, score
      L1  H     9    43       P1  8028  1.63
      P1  H  8011  8017       L1    12  0.91
      P1  H 10752 10765       L1    16  0.98
      L1  C    15    40       P1  7948  0.81
      L1  C    15    40       P1  7949  0.01

> <Gold.PLP.Chemscore.Internal.Correction>
0.0379

> <Gold.Rescore>
     Score         DG    S(hbond)    S(metal)    S(lipo)     H(rot)  DE(clash)    DE(int)     intcor
     20.91     -23.27       2.47        0.00     126.37       2.05       1.25       1.12       ----

> <Gold.Chemscore.Fitness>
20.9054

> <Gold.Chemscore.DG>
-23.2740

> <Gold.Chemscore.ZeroCoef>
-5.4800

> <Gold.Chemscore.Hbond>
2.4719

> <Gold.Chemscore.Metal>
0.0000

> <Gold.Chemscore.Lipo>
126.3700

> <Gold.Chemscore.Internal_Hbond>
0.0000

> <Gold.Chemscore.DEClash>
1.2464

> <Gold.Chemscore.DEInternal>
1.1222

> <Gold.Chemscore.Rot>
2.0498

> <Gold.Chemscore.Internal.Correction>
   9.000000E+99

> <Gold.Chemscore.Hbonds>
donor molecule, donor type, donor heavy atom, donor atom, acceptor molecule, acceptor atom, score
      L1  H     9    43       P1  8028  0.81
      P1  H  8011  8017       L1    12  0.88
      P1  H 10752 10765       L1    16  0.87

> <Gold.Chemscore.Hbond.Weighted>
-8.2562

> <Gold.Chemscore.Metal.Weighted>
-0.0000

> <Gold.Chemscore.Lipo.Weighted>
-14.7853

> <Gold.Chemscore.Internal_Hbond.Weighted>
0.0000

> <Gold.Chemscore.DEClash.Weighted>
1.2464

> <Gold.Chemscore.DEInternal.Weighted>
1.1222

> <Gold.Chemscore.Rot.Weighted>
5.2475

> <Gold.Chemscore.Internal.Correction.Weighted>
   9.000000E+99

> <Gold.Protein.RotatedTorsions>
[ 6907 6896 6895 6894 ] final  122.31 input  -60.11 | X-H torsion
[ 7974 7965 7964 7962 ] final  -75.56 input  175.53 | X-H torsion
[ 8008 7997 7996 7995 ] final  -44.03 input   59.86 | X-H torsion
[ 10167 10162 10161 10158 ] final  132.46 input  -65.29 | X-H torsion
[ 10718 10713 10712 10709 ] final   28.80 input   66.30 | X-H torsion
[ 10763 10752 10751 10750 ] final  166.12 input  -60.55 | X-H torsion
[ 11005 11000 10999 10996 ] final  137.59 input  -57.11 | X-H torsion

> <Gold.Protein.ActiveResidues>
 VAL166  LYS551  ARG553  GLY616  TRP617  ASP618  TYR619  PRO620  LYS621  CYS622 
 ASP623  PHE694  ASN695  SER759  ASP760  ASP761  ALA762  ILE779  LEU786  VAL792 
 PHE793  MET794  SER795  GLU796  ALA797  LYS798  CYS799  TRP800  GLU811  SER814 

> <Gold.Protein.RotatedAtoms>
  152.4253  133.7184  159.6518 H   0  0  0  0  0  0  0  0  0  0  0  0  # atno 6907 bound_to 6896
  150.8129  133.8378  159.3180 H   0  0  0  0  0  0  0  0  0  0  0  0  # atno 6908 bound_to 6896
  151.6083  135.1044  160.0127 H   0  0  0  0  0  0  0  0  0  0  0  0  # atno 6909 bound_to 6896
  145.6244  140.9354  143.1121 H   0  0  0  0  0  0  0  0  0  0  0  0  # atno 7974 bound_to 7965
  154.3997  140.1432  156.3616 H   0  0  0  0  0  0  0  0  0  0  0  0  # atno 8008 bound_to 7997
  155.8176  140.3470  155.5474 H   0  0  0  0  0  0  0  0  0  0  0  0  # atno 8009 bound_to 7997
  155.8322  140.0914  157.1776 H   0  0  0  0  0  0  0  0  0  0  0  0  # atno 8010 bound_to 7997
  139.5339  144.6661  151.4854 H   0  0  0  0  0  0  0  0  0  0  0  0  # atno 10167 bound_to 10162
  157.2383  130.7057  149.6346 H   0  0  0  0  0  0  0  0  0  0  0  0  # atno 10718 bound_to 10713
  154.3343  135.2754  155.2456 H   0  0  0  0  0  0  0  0  0  0  0  0  # atno 10763 bound_to 10752
  154.4754  135.5872  153.6355 H   0  0  0  0  0  0  0  0  0  0  0  0  # atno 10764 bound_to 10752
  152.9863  135.6098  154.3538 H   0  0  0  0  0  0  0  0  0  0  0  0  # atno 10765 bound_to 10752
  140.0125  134.9433  157.0306 H   0  0  0  0  0  0  0  0  0  0  0  0  # atno 11005 bound_to 11000
  144.7218  139.8004  143.7379 LP  0  0  0  0  0  0  0  0  0  0  0  0  # atno 17320 bound_to 7965
  146.1406  139.4462  143.0111 LP  0  0  0  0  0  0  0  0  0  0  0  0  # atno 17321 bound_to 7965
  140.6534  143.8650  150.6809 LP  0  0  0  0  0  0  0  0  0  0  0  0  # atno 17342 bound_to 10162
  140.2022  143.3950  152.1783 LP  0  0  0  0  0  0  0  0  0  0  0  0  # atno 17343 bound_to 10162
  155.9671  130.4466  150.5549 LP  0  0  0  0  0  0  0  0  0  0  0  0  # atno 17370 bound_to 10713
  157.3406  131.0716  151.1791 LP  0  0  0  0  0  0  0  0  0  0  0  0  # atno 17371 bound_to 10713
  140.4530  134.1563  155.7183 LP  0  0  0  0  0  0  0  0  0  0  0  0  # atno 17394 bound_to 11000
  141.1720  133.8589  157.1540 LP  0  0  0  0  0  0  0  0  0  0  0  0  # atno 17395 bound_to 11000

$$$$
