AV-unprocessed.smi:69|AV-procd|sdf|649|dock2
  -GOLD-   2262016543D 1   1.00000     0.00000
 Structure written by MMmdl.
 32 34  0  0  0  0  0  0  0  0  1 V2000
  139.9233  136.8511  155.4584 N   0  0  0  0  0  0  0  0  0  0  0  0
  140.7439  136.9567  154.4041 C   0  0  0  0  0  0  0  0  0  0  0  0
  140.8514  138.1585  153.7927 N   0  0  0  0  0  0  0  0  0  0  0  0
  141.6671  138.2891  152.7429 C   0  0  0  0  0  0  0  0  0  0  0  0
  142.4382  137.3646  152.1664 N   0  0  0  0  0  0  0  0  0  0  0  0
  142.3330  136.1483  152.7799 C   0  0  0  0  0  0  0  0  0  0  0  0
  141.5052  135.8697  153.9046 C   0  0  0  0  0  0  0  0  0  0  0  0
  141.6394  134.5412  154.2767 N   0  0  0  0  0  0  0  0  0  0  0  0
  142.5057  134.0661  153.4244 C   0  0  0  0  0  0  0  0  0  0  0  0
  142.9696  134.9542  152.4767 N   0  0  0  0  0  0  0  0  0  0  0  0
  143.9949  134.6506  151.4152 C   0  0  2  0  0  0  0  0  0  0  0  0
  144.3335  133.3040  151.5058 O   0  0  0  0  0  0  0  0  0  0  0  0
  145.5023  133.1545  152.2984 C   0  0  1  0  0  0  0  0  0  0  0  0
  146.1967  131.8288  151.9527 C   0  0  0  0  0  0  0  0  0  0  0  0
  147.3640  131.6743  152.7313 O   0  0  0  0  0  0  0  0  0  0  0  0
  146.3323  134.3924  151.9242 C   0  0  2  0  0  0  0  0  0  0  0  0
  147.1149  134.8101  153.0246 O   0  0  0  0  0  0  0  0  0  0  0  0
  145.2970  135.4602  151.5568 C   0  0  1  0  0  0  0  0  0  0  0  0
  145.6529  136.0798  150.3367 O   0  0  0  0  0  0  0  0  0  0  0  0
  143.4665  134.8395  150.4793 H   0  0  0  0  0  0  0  0  0  0  0  0
  145.2307  133.1763  153.3538 H   0  0  0  0  0  0  0  0  0  0  0  0
  146.9787  134.1688  151.0737 H   0  0  0  0  0  0  0  0  0  0  0  0
  145.1890  136.2397  152.3101 H   0  0  0  0  0  0  0  0  0  0  0  0
  139.8281  135.9650  155.9335 H   0  0  0  0  0  0  0  0  0  0  0  0
  139.4097  137.6585  155.7800 H   0  0  0  0  0  0  0  0  0  0  0  0
  141.7096  139.2741  152.3021 H   0  0  0  0  0  0  0  0  0  0  0  0
  142.8364  133.0384  153.4667 H   0  0  0  0  0  0  0  0  0  0  0  0
  145.5277  130.9800  152.0954 H   0  0  0  0  0  0  0  0  0  0  0  0
  146.5015  131.8293  150.9059 H   0  0  0  0  0  0  0  0  0  0  0  0
  148.0619  131.3725  152.1703 H   0  0  0  0  0  0  0  0  0  0  0  0
  147.7103  135.4822  152.7298 H   0  0  0  0  0  0  0  0  0  0  0  0
  144.8938  136.5275  149.9954 H   0  0  0  0  0  0  0  0  0  0  0  0
  1  2  1  0  0  0  0
  1 24  1  0  0  0  0
  1 25  1  0  0  0  0
  2  7  1  0  0  0  0
  2  3  2  0  0  0  0
  3  4  1  0  0  0  0
  4  5  2  0  0  0  0
  4 26  1  0  0  0  0
  5  6  1  0  0  0  0
  6 10  1  0  0  0  0
  6  7  2  0  0  0  0
  7  8  1  0  0  0  0
  8  9  2  0  0  0  0
  9 10  1  0  0  0  0
  9 27  1  0  0  0  0
 10 11  1  0  0  0  0
 11 20  1  0  0  0  0
 11 18  1  0  0  0  0
 11 12  1  0  0  0  0
 12 13  1  0  0  0  0
 13 21  1  0  0  0  0
 13 14  1  0  0  0  0
 13 16  1  0  0  0  0
 14 15  1  0  0  0  0
 14 28  1  0  0  0  0
 14 29  1  0  0  0  0
 15 30  1  0  0  0  0
 16 22  1  0  0  0  0
 16 17  1  0  0  0  0
 16 18  1  0  0  0  0
 17 31  1  0  0  0  0
 18 23  1  0  0  0  0
 18 19  1  0  0  0  0
 19 32  1  0  0  0  0
M  END
> <s_m_source_file>
AV-unprocessed.smi

> <i_m_source_file_index>
69

> <i_lp_mmshare_version>
43012

> <i_f3d_flags>
0

> <s_epik_input>
bjFbY0hdbmMoW05IMl0pYyhjMTIpbltjSF1uMltDQEBIXTNPW0NASF0oW0NIMl1bT0hdKVtDQEBIXShbT0hdKVtDQEhdM1tPSF0=

> <s_epik_cmdline>
J2VwaWtfcHl0aG9uJywgJy1waCcsICc3LjAnLCAnLXRuJywgJzgnLCAnLW1hJywgJzIwMCcsICctbWV0YWxfYmluZGluZycsICctaW1hZScsICc8aW5maWxlLm1hZT4nLCAnLW9tYWUnLCAnPG91dGZpbGUubWFlPic=

> <r_lp_tautomer_probability>
1

> <r_epik_Ionization_Penalty>
0.000428445

> <r_epik_Ionization_Penalty_Charging>
0

> <r_epik_Ionization_Penalty_Neutral>
0.000428445

> <r_epik_State_Penalty>
-0

> <r_epik_Charging_Adjusted_Penalty>
0

> <i_epik_Tot_Q>
0

> <i_epik_Tot_abs_Q>
0

> <r_epik_Metal_State_Penalty>
-0

> <b_epik_Metal_Only>
0

> <s_epik_Chemistry_Notes>
This compound contains an acetal/aminal-like group ( X-CH(R)-Y where X, Y are N, S, or O) that may be acid/base labile, releasing an aldehyde.

> <s_lp_Force_Field>
OPLS_2005

> <r_lp_Energy>
31.8637

> <b_lp_Chiralities_Consistent>
1

> <s_lp_Variant>
AV-unprocessed.smi:69-7

> <Gold.Version>
5.8.1

> <Gold.Id.Protein>
6NUR|6NUR_protein|mol2

> <Gold.PLP.Fitness>
43.8666

> <Gold.PLP.PLP>
-21.7854

> <Gold.PLP.part.hbond>
-5.1604

> <Gold.PLP.part.metal>
0.0000

> <Gold.PLP.part.buried>
0.2420

> <Gold.PLP.part.nonpolar>
-18.9179

> <Gold.PLP.part.repulsive>
1.5890

> <Gold.PLP.ligand.clash>
0.0000

> <Gold.PLP.ligand.torsion>
0.0227

> <Gold.PLP.Chemscore.Hbond>
4.6880

> <Gold.PLP.Chemscore.CHOScore>
2.6807

> <Gold.PLP.Chemscore.Metal>
0.0000

> <Gold.Chemscore.Hbonds>
donor molecule, donor type, donor heavy atom, donor atom, acceptor molecule, acceptor atom, score
      L1  H     1    24       P1 11000  0.85
      L1  H    15    30       P1 10747  0.68
      L1  H    17    31       P1  7948  1.00
      L1  H    19    32       P1 10171  0.32
      P1  H 11000 11005       L1     8  0.77
      L1  C     4    26       P1 10160  1.00
      L1  C     4    26       P1 10175  0.80
      L1  C     9    27       P1 10957  0.50

> <Gold.PLP.Chemscore.Internal.Correction>
0.0206

> <Gold.Rescore>
     Score         DG    S(hbond)    S(metal)    S(lipo)     H(rot)  DE(clash)    DE(int)     intcor
     10.18     -12.21       4.15        0.00      27.23       4.03       1.80       0.22       ----

> <Gold.Chemscore.Fitness>
10.1806

> <Gold.Chemscore.DG>
-12.2063

> <Gold.Chemscore.ZeroCoef>
-5.4800

> <Gold.Chemscore.Hbond>
4.1469

> <Gold.Chemscore.Metal>
0.0000

> <Gold.Chemscore.Lipo>
27.2349

> <Gold.Chemscore.Internal_Hbond>
0.0000

> <Gold.Chemscore.DEClash>
1.8041

> <Gold.Chemscore.DEInternal>
0.2216

> <Gold.Chemscore.Rot>
4.0277

> <Gold.Chemscore.Internal.Correction>
   9.000000E+99

> <Gold.Chemscore.Hbonds>
donor molecule, donor type, donor heavy atom, donor atom, acceptor molecule, acceptor atom, score
      L1  H     1    24       P1 11000  0.14
      L1  H    15    30       P1 10747  0.68
      L1  H    17    31       P1  7948  0.99
      L1  H    19    32       P1 10171  0.31
      P1  H 11000 11005       L1     8  0.76

> <Gold.Chemscore.Hbond.Weighted>
-13.8508

> <Gold.Chemscore.Metal.Weighted>
-0.0000

> <Gold.Chemscore.Lipo.Weighted>
-3.1865

> <Gold.Chemscore.Internal_Hbond.Weighted>
0.0000

> <Gold.Chemscore.DEClash.Weighted>
1.8041

> <Gold.Chemscore.DEInternal.Weighted>
0.2216

> <Gold.Chemscore.Rot.Weighted>
10.3110

> <Gold.Chemscore.Internal.Correction.Weighted>
   9.000000E+99

> <Gold.Protein.RotatedTorsions>
[ 6907 6896 6895 6894 ] final -174.20 input  -60.11 | X-H torsion
[ 7974 7965 7964 7962 ] final -159.90 input  175.53 | X-H torsion
[ 8008 7997 7996 7995 ] final -167.97 input   59.86 | X-H torsion
[ 10167 10162 10161 10158 ] final -163.75 input  -65.29 | X-H torsion
[ 10718 10713 10712 10709 ] final   77.73 input   66.30 | X-H torsion
[ 10763 10752 10751 10750 ] final -110.56 input  -60.55 | X-H torsion
[ 11005 11000 10999 10996 ] final  -18.67 input  -57.11 | X-H torsion

> <Gold.Protein.ActiveResidues>
 VAL166  LYS551  ARG553  GLY616  TRP617  ASP618  TYR619  PRO620  LYS621  CYS622 
 ASP623  PHE694  ASN695  SER759  ASP760  ASP761  ALA762  ILE779  LEU786  VAL792 
 PHE793  MET794  SER795  GLU796  ALA797  LYS798  CYS799  TRP800  GLU811  SER814 

> <Gold.Protein.RotatedAtoms>
  151.5684  133.3393  159.2984 H   0  0  0  0  0  0  0  0  0  0  0  0  # atno 6907 bound_to 6896
  150.8381  134.7666  159.6921 H   0  0  0  0  0  0  0  0  0  0  0  0  # atno 6908 bound_to 6896
  152.4454  134.5512  159.9919 H   0  0  0  0  0  0  0  0  0  0  0  0  # atno 6909 bound_to 6896
  144.7447  140.3618  143.6094 H   0  0  0  0  0  0  0  0  0  0  0  0  # atno 7974 bound_to 7965
  155.8851  140.1015  157.1458 H   0  0  0  0  0  0  0  0  0  0  0  0  # atno 8008 bound_to 7997
  154.4009  140.1321  156.4308 H   0  0  0  0  0  0  0  0  0  0  0  0  # atno 8009 bound_to 7997
  155.7599  140.3463  155.5195 H   0  0  0  0  0  0  0  0  0  0  0  0  # atno 8010 bound_to 7997
  139.6298  144.0461  152.2006 H   0  0  0  0  0  0  0  0  0  0  0  0  # atno 10167 bound_to 10162
  157.6721  130.9835  150.1684 H   0  0  0  0  0  0  0  0  0  0  0  0  # atno 10718 bound_to 10713
  154.8254  135.4560  154.0904 H   0  0  0  0  0  0  0  0  0  0  0  0  # atno 10763 bound_to 10752
  153.2222  135.6895  153.7993 H   0  0  0  0  0  0  0  0  0  0  0  0  # atno 10764 bound_to 10752
  153.7406  135.3313  155.3280 H   0  0  0  0  0  0  0  0  0  0  0  0  # atno 10765 bound_to 10752
  140.8290  133.8011  155.9739 H   0  0  0  0  0  0  0  0  0  0  0  0  # atno 11005 bound_to 11000
  145.7169  139.1699  143.2507 LP  0  0  0  0  0  0  0  0  0  0  0  0  # atno 17320 bound_to 7965
  146.1306  140.7190  142.9414 LP  0  0  0  0  0  0  0  0  0  0  0  0  # atno 17321 bound_to 7965
  140.0123  144.6214  150.7636 LP  0  0  0  0  0  0  0  0  0  0  0  0  # atno 17342 bound_to 10162
  140.7432  143.2843  151.3507 LP  0  0  0  0  0  0  0  0  0  0  0  0  # atno 17343 bound_to 10162
  156.2444  130.3694  149.8301 LP  0  0  0  0  0  0  0  0  0  0  0  0  # atno 17370 bound_to 10713
  156.6092  130.8579  151.3450 LP  0  0  0  0  0  0  0  0  0  0  0  0  # atno 17371 bound_to 10713
  140.9018  134.2369  157.5037 LP  0  0  0  0  0  0  0  0  0  0  0  0  # atno 17394 bound_to 11000
  139.8705  134.9710  156.4721 LP  0  0  0  0  0  0  0  0  0  0  0  0  # atno 17395 bound_to 11000

$$$$
