AV-unprocessed.smi:1022|AV-procd|sdf|4458|dock7
  -GOLD-   22720 2433D 1   1.00000     0.00000
 Structure written by MMmdl.
 33 34  0  0  0  0  0  0  0  0  1 V2000
  145.0059  144.0852  154.0336 C   0  0  0  0  0  0  0  0  0  0  0  0
  145.6093  142.9009  154.5231 O   0  0  0  0  0  0  0  0  0  0  0  0
  146.4818  142.3023  153.5780 C   0  0  0  0  0  0  0  0  0  0  0  0
  147.4321  141.3380  154.3043 C   0  0  2  0  0  0  0  0  0  0  0  0
  146.6598  140.2788  155.1065 C   0  0  0  0  0  0  0  0  0  0  0  0
  148.3100  142.0948  155.1933 N   0  0  0  0  0  0  0  0  0  0  0  0
  149.0995  141.5657  156.1390 C   0  0  0  0  0  0  0  0  0  0  0  0
  149.1662  140.3582  156.3715 O   0  0  0  0  0  0  0  0  0  0  0  0
  149.7881  142.5218  156.7865 N   0  0  0  0  0  0  0  0  0  0  0  0
  150.7242  142.3694  157.8432 C   0  0  0  0  0  0  0  0  0  0  0  0
  151.2724  141.1968  158.1900 N   0  0  0  0  0  0  0  0  0  0  0  0
  152.1548  141.3315  159.2526 N   0  0  0  0  0  0  0  0  0  0  0  0
  152.2496  142.5971  159.6773 C   0  0  0  0  0  0  0  0  0  0  0  0
  153.1369  142.9915  160.8109 C   0  0  0  0  0  0  0  0  0  0  0  0
  153.0339  142.3314  162.1686 C   0  0  0  0  0  0  0  0  0  0  0  0
  152.5868  143.7599  161.9902 C   0  0  0  0  0  0  0  0  0  0  0  0
  151.2496  143.7472  158.7950 S   0  0  0  0  0  0  0  0  0  0  0  0
  144.3504  144.5045  154.7971 H   0  0  0  0  0  0  0  0  0  0  0  0
  144.4036  143.8830  153.1470 H   0  0  0  0  0  0  0  0  0  0  0  0
  145.7559  144.8369  153.7842 H   0  0  0  0  0  0  0  0  0  0  0  0
  145.9102  141.7725  152.8137 H   0  0  0  0  0  0  0  0  0  0  0  0
  147.0573  143.0806  153.0742 H   0  0  0  0  0  0  0  0  0  0  0  0
  148.0308  140.8265  153.5486 H   0  0  0  0  0  0  0  0  0  0  0  0
  146.0042  139.6973  154.4581 H   0  0  0  0  0  0  0  0  0  0  0  0
  146.0419  140.7381  155.8789 H   0  0  0  0  0  0  0  0  0  0  0  0
  147.3395  139.5799  155.5952 H   0  0  0  0  0  0  0  0  0  0  0  0
  148.3224  143.0967  155.0696 H   0  0  0  0  0  0  0  0  0  0  0  0
  149.6199  143.4720  156.4912 H   0  0  0  0  0  0  0  0  0  0  0  0
  154.1283  143.2561  160.4483 H   0  0  0  0  0  0  0  0  0  0  0  0
  152.2581  141.5839  162.3223 H   0  0  0  0  0  0  0  0  0  0  0  0
  153.9599  142.1595  162.7135 H   0  0  0  0  0  0  0  0  0  0  0  0
  153.2131  144.5410  162.4164 H   0  0  0  0  0  0  0  0  0  0  0  0
  151.5166  143.9567  162.0106 H   0  0  0  0  0  0  0  0  0  0  0  0
  1  2  1  0  0  0  0
  1 18  1  0  0  0  0
  1 19  1  0  0  0  0
  1 20  1  0  0  0  0
  2  3  1  0  0  0  0
  3  4  1  0  0  0  0
  3 21  1  0  0  0  0
  3 22  1  0  0  0  0
  4  5  1  0  0  0  0
  4  6  1  0  0  0  0
  4 23  1  0  0  0  0
  5 24  1  0  0  0  0
  5 25  1  0  0  0  0
  5 26  1  0  0  0  0
  6  7  1  0  0  0  0
  6 27  1  0  0  0  0
  7  8  2  0  0  0  0
  7  9  1  0  0  0  0
  9 10  1  0  0  0  0
  9 28  1  0  0  0  0
 10 17  1  0  0  0  0
 10 11  2  0  0  0  0
 11 12  1  0  0  0  0
 12 13  2  0  0  0  0
 13 14  1  0  0  0  0
 13 17  1  0  0  0  0
 14 16  1  0  0  0  0
 14 15  1  0  0  0  0
 14 29  1  0  0  0  0
 15 16  1  0  0  0  0
 15 30  1  0  0  0  0
 15 31  1  0  0  0  0
 16 32  1  0  0  0  0
 16 33  1  0  0  0  0
M  END
> <s_m_source_file>
AV-unprocessed.smi

> <i_m_source_file_index>
1022

> <i_lp_mmshare_version>
43012

> <i_f3d_flags>
0

> <s_epik_input>
W0NIM11PW0NIMl1bQ0BIXShbQ0gzXSlbTkhdQyg9TylbTkhdYzFubmMoczEpW0NIXTJbQ0gyXVtDSDJdMg==

> <s_epik_cmdline>
J2VwaWtfcHl0aG9uJywgJy1waCcsICc3LjAnLCAnLXRuJywgJzgnLCAnLW1hJywgJzIwMCcsICctbWV0YWxfYmluZGluZycsICctaW1hZScsICc8aW5maWxlLm1hZT4nLCAnLW9tYWUnLCAnPG91dGZpbGUubWFlPic=

> <r_lp_tautomer_probability>
1

> <r_epik_Ionization_Penalty>
0.00129266

> <r_epik_Ionization_Penalty_Charging>
0

> <r_epik_Ionization_Penalty_Neutral>
0.00129266

> <r_epik_State_Penalty>
-0

> <r_epik_Charging_Adjusted_Penalty>
0

> <i_epik_Tot_Q>
0

> <i_epik_Tot_abs_Q>
0

> <r_epik_Metal_State_Penalty>
0.30857

> <b_epik_Metal_Only>
0

> <s_lp_Force_Field>
OPLS_2005

> <r_lp_Energy>
1.45425

> <b_lp_Chiralities_Consistent>
1

> <s_lp_Variant>
AV-unprocessed.smi:1022-1

> <Gold.Version>
5.8.1

> <Gold.Id.Protein>
6NUR|6NUR_protein|mol2

> <Gold.PLP.Fitness>
39.2241

> <Gold.PLP.PLP>
-33.7821

> <Gold.PLP.part.hbond>
-2.0000

> <Gold.PLP.part.metal>
0.0000

> <Gold.PLP.part.buried>
-6.6954

> <Gold.PLP.part.nonpolar>
-25.2380

> <Gold.PLP.part.repulsive>
0.4032

> <Gold.PLP.ligand.clash>
0.0000

> <Gold.PLP.ligand.torsion>
0.3588

> <Gold.PLP.Chemscore.Hbond>
2.0000

> <Gold.PLP.Chemscore.CHOScore>
0.0000

> <Gold.PLP.Chemscore.Metal>
0.0000

> <Gold.Chemscore.Hbonds>
donor molecule, donor type, donor heavy atom, donor atom, acceptor molecule, acceptor atom, score
      L1  H     6    27       P1  8028  0.99
      L1  H     9    28       P1  8028  1.00

> <Gold.PLP.Chemscore.Internal.Correction>
0.1595

> <Gold.Rescore>
     Score         DG    S(hbond)    S(metal)    S(lipo)     H(rot)  DE(clash)    DE(int)     intcor
     13.77     -16.77       1.95        0.00      78.85       1.73       0.07       2.93       ----

> <Gold.Chemscore.Fitness>
13.7718

> <Gold.Chemscore.DG>
-16.7729

> <Gold.Chemscore.ZeroCoef>
-5.4800

> <Gold.Chemscore.Hbond>
1.9464

> <Gold.Chemscore.Metal>
0.0000

> <Gold.Chemscore.Lipo>
78.8507

> <Gold.Chemscore.Internal_Hbond>
0.0000

> <Gold.Chemscore.DEClash>
0.0733

> <Gold.Chemscore.DEInternal>
2.9278

> <Gold.Chemscore.Rot>
1.7318

> <Gold.Chemscore.Internal.Correction>
   9.000000E+99

> <Gold.Chemscore.Hbonds>
donor molecule, donor type, donor heavy atom, donor atom, acceptor molecule, acceptor atom, score
      L1  H     6    27       P1  8028  0.94
      L1  H     9    28       P1  8028  0.99

> <Gold.Chemscore.Hbond.Weighted>
-6.5009

> <Gold.Chemscore.Metal.Weighted>
-0.0000

> <Gold.Chemscore.Lipo.Weighted>
-9.2255

> <Gold.Chemscore.Internal_Hbond.Weighted>
0.0000

> <Gold.Chemscore.DEClash.Weighted>
0.0733

> <Gold.Chemscore.DEInternal.Weighted>
2.9278

> <Gold.Chemscore.Rot.Weighted>
4.4335

> <Gold.Chemscore.Internal.Correction.Weighted>
   9.000000E+99

> <Gold.Protein.RotatedTorsions>
[ 6907 6896 6895 6894 ] final  -49.18 input  -60.11 | X-H torsion
[ 7974 7965 7964 7962 ] final -178.02 input  175.53 | X-H torsion
[ 8008 7997 7996 7995 ] final   31.46 input   59.86 | X-H torsion
[ 10167 10162 10161 10158 ] final -177.67 input  -65.29 | X-H torsion
[ 10718 10713 10712 10709 ] final  -37.58 input   66.30 | X-H torsion
[ 10763 10752 10751 10750 ] final  -25.50 input  -60.55 | X-H torsion
[ 11005 11000 10999 10996 ] final   25.95 input  -57.11 | X-H torsion

> <Gold.Protein.ActiveResidues>
 VAL166  LYS551  ARG553  GLY616  TRP617  ASP618  TYR619  PRO620  LYS621  CYS622 
 ASP623  PHE694  ASN695  SER759  ASP760  ASP761  ALA762  ILE779  LEU786  VAL792 
 PHE793  MET794  SER795  GLU796  ALA797  LYS798  CYS799  TRP800  GLU811  SER814 

> <Gold.Protein.RotatedAtoms>
  150.8830  134.8224  159.7238 H   0  0  0  0  0  0  0  0  0  0  0  0  # atno 6907 bound_to 6896
  152.4790  134.4766  159.9662 H   0  0  0  0  0  0  0  0  0  0  0  0  # atno 6908 bound_to 6896
  151.4838  133.3501  159.2878 H   0  0  0  0  0  0  0  0  0  0  0  0  # atno 6909 bound_to 6896
  144.7129  140.0931  143.6420 H   0  0  0  0  0  0  0  0  0  0  0  0  # atno 7974 bound_to 7965
  155.1067  140.3235  155.4532 H   0  0  0  0  0  0  0  0  0  0  0  0  # atno 8008 bound_to 7997
  156.2702  140.2051  156.6140 H   0  0  0  0  0  0  0  0  0  0  0  0  # atno 8009 bound_to 7997
  154.6787  140.0528  157.0230 H   0  0  0  0  0  0  0  0  0  0  0  0  # atno 8010 bound_to 7997
  139.5469  144.2212  152.1004 H   0  0  0  0  0  0  0  0  0  0  0  0  # atno 10167 bound_to 10162
  156.3136  130.4256  149.8027 H   0  0  0  0  0  0  0  0  0  0  0  0  # atno 10718 bound_to 10713
  153.7009  135.6956  153.5063 H   0  0  0  0  0  0  0  0  0  0  0  0  # atno 10763 bound_to 10752
  153.2343  135.4327  155.0629 H   0  0  0  0  0  0  0  0  0  0  0  0  # atno 10764 bound_to 10752
  154.8344  135.3492  154.6548 H   0  0  0  0  0  0  0  0  0  0  0  0  # atno 10765 bound_to 10752
  140.3423  134.2320  155.7688 H   0  0  0  0  0  0  0  0  0  0  0  0  # atno 11005 bound_to 11000
  145.9603  139.2796  143.1159 LP  0  0  0  0  0  0  0  0  0  0  0  0  # atno 17320 bound_to 7965
  145.9228  140.9103  143.0396 LP  0  0  0  0  0  0  0  0  0  0  0  0  # atno 17321 bound_to 7965
  140.1701  144.4944  150.6584 LP  0  0  0  0  0  0  0  0  0  0  0  0  # atno 17342 bound_to 10162
  140.6720  143.2289  151.5602 LP  0  0  0  0  0  0  0  0  0  0  0  0  # atno 17343 bound_to 10162
  156.5361  130.8279  151.3253 LP  0  0  0  0  0  0  0  0  0  0  0  0  # atno 17370 bound_to 10713
  157.7396  130.9835  150.2327 LP  0  0  0  0  0  0  0  0  0  0  0  0  # atno 17371 bound_to 10713
  141.2035  133.7910  157.0336 LP  0  0  0  0  0  0  0  0  0  0  0  0  # atno 17394 bound_to 11000
  140.0771  134.9669  157.1563 LP  0  0  0  0  0  0  0  0  0  0  0  0  # atno 17395 bound_to 11000

$$$$
