AV-unprocessed.smi:35|AV-procd|sdf|276|dock3
  -GOLD-   2262016 43D 1   1.00000     0.00000
 Structure written by MMmdl.
 28 29  0  0  0  0  0  0  0  0  2 V2000
  153.0289  138.9489  157.0288 O   0  0  0  0  0  0  0  0  0  0  0  0
  152.0760  139.5419  156.5262 C   0  0  0  0  0  0  0  0  0  0  0  0
  151.3552  140.4879  157.1955 N   0  5  0  0  0  0  0  0  0  0  0  0
  150.3016  141.1485  156.6310 C   0  0  0  0  0  0  0  0  0  0  0  0
  149.6285  141.9834  157.2357 O   0  0  0  0  0  0  0  0  0  0  0  0
  149.9500  140.8571  155.2844 N   0  0  0  0  0  0  0  0  0  0  0  0
  148.7821  141.5776  154.6500 C   0  0  1  0  0  0  0  0  0  0  0  0
  148.5915  141.0856  153.3544 O   0  0  0  0  0  0  0  0  0  0  0  0
  147.2360  140.6907  153.1693 C   0  0  1  0  0  0  0  0  0  0  0  0
  147.1773  139.5653  152.1238 C   0  0  0  0  0  0  0  0  0  0  0  0
  145.8864  138.9957  152.0750 O   0  0  0  0  0  0  0  0  0  0  0  0
  146.7862  140.2929  154.5766 C   0  0  2  0  0  0  0  0  0  0  0  0
  145.3822  140.3076  154.7525 O   0  0  0  0  0  0  0  0  0  0  0  0
  147.4984  141.3154  155.4533 C   0  0  2  0  0  0  0  0  0  0  0  0
  146.7583  142.5116  155.6172 O   0  0  0  0  0  0  0  0  0  0  0  0
  150.6481  139.8854  154.5875 C   0  0  0  0  0  0  0  0  0  0  0  0
  151.6816  139.2312  155.1546 C   0  0  0  0  0  0  0  0  0  0  0  0
  152.5883  137.8654  154.0413 Br  0  0  0  0  0  0  0  0  0  0  0  0
  149.0687  142.6290  154.5912 H   0  0  0  0  0  0  0  0  0  0  0  0
  146.6837  141.5672  152.8254 H   0  0  0  0  0  0  0  0  0  0  0  0
  147.4068  139.9640  151.1355 H   0  0  0  0  0  0  0  0  0  0  0  0
  147.9156  138.7917  152.3369 H   0  0  0  0  0  0  0  0  0  0  0  0
  145.2504  139.6787  152.2225 H   0  0  0  0  0  0  0  0  0  0  0  0
  147.1625  139.2966  154.8130 H   0  0  0  0  0  0  0  0  0  0  0  0
  144.9869  140.5717  153.9355 H   0  0  0  0  0  0  0  0  0  0  0  0
  147.7230  140.9136  156.4425 H   0  0  0  0  0  0  0  0  0  0  0  0
  147.3555  143.2405  155.5405 H   0  0  0  0  0  0  0  0  0  0  0  0
  150.3657  139.6355  153.5760 H   0  0  0  0  0  0  0  0  0  0  0  0
  1  2  2  0  0  0  0
  2 17  1  0  0  0  0
  2  3  1  0  0  0  0
  3  4  1  0  0  0  0
  4  5  2  0  0  0  0
  4  6  1  0  0  0  0
  6  7  1  0  0  0  0
  6 16  1  0  0  0  0
  7 14  1  0  0  0  0
  7  8  1  0  0  0  0
  7 19  1  0  0  0  0
  8  9  1  0  0  0  0
  9 10  1  0  0  0  0
  9 12  1  0  0  0  0
  9 20  1  0  0  0  0
 10 11  1  0  0  0  0
 10 21  1  0  0  0  0
 10 22  1  0  0  0  0
 11 23  1  0  0  0  0
 12 13  1  0  0  0  0
 12 14  1  0  0  0  0
 12 24  1  0  0  0  0
 13 25  1  0  0  0  0
 14 15  1  0  0  0  0
 14 26  1  0  0  0  0
 15 27  1  0  0  0  0
 16 17  2  0  0  0  0
 16 28  1  0  0  0  0
 17 18  1  0  0  0  0
M  CHG  1   3  -1
M  END
> <s_m_source_file>
AV-unprocessed.smi

> <i_m_source_file_index>
35

> <i_lp_mmshare_version>
43012

> <i_f3d_flags>
0

> <s_epik_input>
Tz1jMVtuSF1jKD1PKW4oW2NIXWMxQnIpW0NAQEhdMk9bQ0BASF0oW0NIMl1bT0hdKVtDQEBIXShbT0hdKVtDQEhdMltPSF0=

> <s_epik_cmdline>
J2VwaWtfcHl0aG9uJywgJy1waCcsICc3LjAnLCAnLXRuJywgJzgnLCAnLW1hJywgJzIwMCcsICctbWV0YWxfYmluZGluZycsICctaW1hZScsICc8aW5maWxlLm1hZT4nLCAnLW9tYWUnLCAnPG91dGZpbGUubWFlPic=

> <r_epik_Ionization_Penalty>
1.06112

> <r_epik_Ionization_Penalty_Charging>
2.1796e-09

> <r_epik_Ionization_Penalty_Neutral>
1.06112

> <r_epik_State_Penalty>
1.11484

> <r_epik_Charging_Adjusted_Penalty>
1.11484

> <i_epik_Tot_Q>
-1

> <i_epik_Tot_abs_Q>
1

> <r_epik_Metal_State_Penalty>
0.0032876

> <b_epik_Metal_Only>
0

> <s_epik_Chemistry_Notes>
This compound contains an acetal/aminal-like group ( X-CH(R)-Y where X, Y are N, S, or O) that may be acid/base labile, releasing an aldehyde.

> <s_lp_Force_Field>
OPLS_2005

> <r_lp_Energy>
40.7288

> <b_lp_Chiralities_Consistent>
1

> <s_lp_Variant>
AV-unprocessed.smi:35-30

> <Gold.Version>
5.8.1

> <Gold.Id.Protein>
6NUR|6NUR_protein|mol2

> <Gold.PLP.Fitness>
40.9134

> <Gold.PLP.PLP>
-24.3975

> <Gold.PLP.part.hbond>
-5.9242

> <Gold.PLP.part.metal>
0.0000

> <Gold.PLP.part.buried>
5.9205

> <Gold.PLP.part.nonpolar>
-26.3868

> <Gold.PLP.part.repulsive>
3.4504

> <Gold.PLP.ligand.clash>
0.0000

> <Gold.PLP.ligand.torsion>
0.0369

> <Gold.PLP.Chemscore.Hbond>
4.6272

> <Gold.PLP.Chemscore.CHOScore>
0.8984

> <Gold.PLP.Chemscore.Metal>
0.0000

> <Gold.Chemscore.Hbonds>
donor molecule, donor type, donor heavy atom, donor atom, acceptor molecule, acceptor atom, score
      L1  H    11    23       P1 10175  1.00
      L1  H    13    25       P1 10175  1.00
      L1  H    15    27       P1  8028  0.59
      P1  H  7997  8010       L1     1  1.00
      P1  H  8011  8017       L1     8  0.86
      L1  C    16    28       P1  7957  0.94

> <Gold.PLP.Chemscore.Internal.Correction>
0.0129

> <Gold.Rescore>
     Score         DG    S(hbond)    S(metal)    S(lipo)     H(rot)  DE(clash)    DE(int)     intcor
      7.95     -11.29       2.92        0.00      45.73       3.63       2.00       1.33       ----

> <Gold.Chemscore.Fitness>
7.9511

> <Gold.Chemscore.DG>
-11.2893

> <Gold.Chemscore.ZeroCoef>
-5.4800

> <Gold.Chemscore.Hbond>
2.9166

> <Gold.Chemscore.Metal>
0.0000

> <Gold.Chemscore.Lipo>
45.7303

> <Gold.Chemscore.Internal_Hbond>
0.0000

> <Gold.Chemscore.DEClash>
2.0046

> <Gold.Chemscore.DEInternal>
1.3336

> <Gold.Chemscore.Rot>
3.6261

> <Gold.Chemscore.Internal.Correction>
   9.000000E+99

> <Gold.Chemscore.Hbonds>
donor molecule, donor type, donor heavy atom, donor atom, acceptor molecule, acceptor atom, score
      L1  H    11    23       P1 10175  0.97
      L1  H    13    25       P1 10175  0.97
      L1  H    15    27       P1  8028  0.06
      P1  H  7997  8010       L1     1  0.30
      P1  H  8011  8017       L1     8  0.18

> <Gold.Chemscore.Hbond.Weighted>
-9.7416

> <Gold.Chemscore.Metal.Weighted>
-0.0000

> <Gold.Chemscore.Lipo.Weighted>
-5.3504

> <Gold.Chemscore.Internal_Hbond.Weighted>
0.0000

> <Gold.Chemscore.DEClash.Weighted>
2.0046

> <Gold.Chemscore.DEInternal.Weighted>
1.3336

> <Gold.Chemscore.Rot.Weighted>
9.2828

> <Gold.Chemscore.Internal.Correction.Weighted>
   9.000000E+99

> <Gold.Protein.RotatedTorsions>
[ 6907 6896 6895 6894 ] final -108.08 input  -60.11 | X-H torsion
[ 7974 7965 7964 7962 ] final -117.42 input  175.53 | X-H torsion
[ 8008 7997 7996 7995 ] final   61.16 input   59.86 | X-H torsion
[ 10167 10162 10161 10158 ] final   73.87 input  -65.29 | X-H torsion
[ 10718 10713 10712 10709 ] final   17.40 input   66.30 | X-H torsion
[ 10763 10752 10751 10750 ] final  142.71 input  -60.55 | X-H torsion
[ 11005 11000 10999 10996 ] final -148.59 input  -57.11 | X-H torsion

> <Gold.Protein.ActiveResidues>
 VAL166  LYS551  ARG553  GLY616  TRP617  ASP618  TYR619  PRO620  LYS621  CYS622 
 ASP623  PHE694  ASN695  SER759  ASP760  ASP761  ALA762  ILE779  LEU786  VAL792 
 PHE793  MET794  SER795  GLU796  ALA797  LYS798  CYS799  TRP800  GLU811  SER814 

> <Gold.Protein.RotatedAtoms>
  150.7481  133.9731  159.3551 H   0  0  0  0  0  0  0  0  0  0  0  0  # atno 6907 bound_to 6896
  151.7666  135.0795  160.0363 H   0  0  0  0  0  0  0  0  0  0  0  0  # atno 6908 bound_to 6896
  152.3367  133.5983  159.5883 H   0  0  0  0  0  0  0  0  0  0  0  0  # atno 6909 bound_to 6896
  145.0854  140.8454  143.4014 H   0  0  0  0  0  0  0  0  0  0  0  0  # atno 7974 bound_to 7965
  155.5940  140.3493  155.4574 H   0  0  0  0  0  0  0  0  0  0  0  0  # atno 8008 bound_to 7997
  156.0280  140.1268  157.0313 H   0  0  0  0  0  0  0  0  0  0  0  0  # atno 8009 bound_to 7997
  154.4341  140.1049  156.6044 H   0  0  0  0  0  0  0  0  0  0  0  0  # atno 8010 bound_to 7997
  140.0198  144.5549  150.7591 H   0  0  0  0  0  0  0  0  0  0  0  0  # atno 10167 bound_to 10162
  157.0816  130.6390  149.5828 H   0  0  0  0  0  0  0  0  0  0  0  0  # atno 10718 bound_to 10713
  153.9603  135.2961  155.3434 H   0  0  0  0  0  0  0  0  0  0  0  0  # atno 10763 bound_to 10752
  154.7378  135.5038  153.9074 H   0  0  0  0  0  0  0  0  0  0  0  0  # atno 10764 bound_to 10752
  153.0950  135.6718  153.9891 H   0  0  0  0  0  0  0  0  0  0  0  0  # atno 10765 bound_to 10752
  140.7596  134.3313  157.5105 H   0  0  0  0  0  0  0  0  0  0  0  0  # atno 11005 bound_to 11000
  145.1128  139.2745  143.5628 LP  0  0  0  0  0  0  0  0  0  0  0  0  # atno 17320 bound_to 7965
  146.3531  140.0729  142.8622 LP  0  0  0  0  0  0  0  0  0  0  0  0  # atno 17321 bound_to 7965
  140.7347  143.2732  151.3823 LP  0  0  0  0  0  0  0  0  0  0  0  0  # atno 17342 bound_to 10162
  139.6147  144.1026  152.2334 LP  0  0  0  0  0  0  0  0  0  0  0  0  # atno 17343 bound_to 10162
  155.9922  130.4979  150.7331 LP  0  0  0  0  0  0  0  0  0  0  0  0  # atno 17370 bound_to 10713
  157.4796  131.0901  151.0551 LP  0  0  0  0  0  0  0  0  0  0  0  0  # atno 17371 bound_to 10713
  139.8773  134.9193  156.3225 LP  0  0  0  0  0  0  0  0  0  0  0  0  # atno 17394 bound_to 11000
  140.9675  133.7348  156.0488 LP  0  0  0  0  0  0  0  0  0  0  0  0  # atno 17395 bound_to 11000

$$$$
