AV-unprocessed.smi:3260|AV-procd|sdf|12477|dock9
  -GOLD-   2272018373D 1   1.00000     0.00000
 Structure written by MMmdl.
 38 39  0  0  0  0  0  0  0  0  1 V2000
  152.4840  138.2303  154.9612 C   0  0  0  0  0  0  0  0  0  0  0  0
  151.2660  139.0095  154.8999 N   0  0  0  0  0  0  0  0  0  0  0  0
  150.0875  138.7146  154.2491 C   0  0  0  0  0  0  0  0  0  0  0  0
  149.2245  139.7501  154.4744 C   0  0  0  0  0  0  0  0  0  0  0  0
  147.8137  139.9250  153.9861 C   0  0  0  0  0  0  0  0  0  0  0  0
  146.9505  138.6914  154.2966 C   0  0  0  0  0  0  0  0  0  0  0  0
  146.9557  137.7418  153.1900 N   0  0  0  0  0  0  0  0  0  0  0  0
  145.8589  137.2088  152.6342 C   0  0  0  0  0  0  0  0  0  0  0  0
  144.7101  137.4602  152.9991 O   0  0  0  0  0  0  0  0  0  0  0  0
  146.1649  136.3713  151.6335 N   0  0  0  0  0  0  0  0  0  0  0  0
  145.1923  135.6630  150.8095 C   0  0  0  0  0  0  0  0  0  0  0  0
  145.0726  134.1888  151.2288 C   0  0  1  0  0  0  0  0  0  0  0  0
  144.0282  133.4059  150.4370 C   0  0  0  0  0  0  0  0  0  0  0  0
  144.4942  131.9646  150.5690 C   0  0  0  0  0  0  0  0  0  0  0  0
  145.9543  132.0839  151.0168 C   0  0  0  0  0  0  0  0  0  0  0  0
  146.2604  133.4693  150.9381 O   0  0  0  0  0  0  0  0  0  0  0  0
  149.9819  140.6395  155.2891 C   0  0  0  0  0  0  0  0  0  0  0  0
  151.2015  140.1934  155.5427 N   0  0  0  0  0  0  0  0  0  0  0  0
  152.4139  137.3734  154.2906 H   0  0  0  0  0  0  0  0  0  0  0  0
  152.6415  137.8730  155.9791 H   0  0  0  0  0  0  0  0  0  0  0  0
  153.3331  138.8454  154.6610 H   0  0  0  0  0  0  0  0  0  0  0  0
  149.9612  137.8038  153.6825 H   0  0  0  0  0  0  0  0  0  0  0  0
  147.3602  140.8056  154.4423 H   0  0  0  0  0  0  0  0  0  0  0  0
  147.8067  140.1124  152.9115 H   0  0  0  0  0  0  0  0  0  0  0  0
  147.2948  138.2034  155.2103 H   0  0  0  0  0  0  0  0  0  0  0  0
  145.9184  138.9934  154.4770 H   0  0  0  0  0  0  0  0  0  0  0  0
  147.8562  137.4756  152.8199 H   0  0  0  0  0  0  0  0  0  0  0  0
  147.1393  136.2293  151.4115 H   0  0  0  0  0  0  0  0  0  0  0  0
  144.2293  136.1575  150.9386 H   0  0  0  0  0  0  0  0  0  0  0  0
  145.4412  135.7462  149.7499 H   0  0  0  0  0  0  0  0  0  0  0  0
  144.8601  134.1114  152.2971 H   0  0  0  0  0  0  0  0  0  0  0  0
  143.0145  133.5613  150.8071 H   0  0  0  0  0  0  0  0  0  0  0  0
  144.0528  133.7013  149.3871 H   0  0  0  0  0  0  0  0  0  0  0  0
  143.9094  131.4261  151.3154 H   0  0  0  0  0  0  0  0  0  0  0  0
  144.4006  131.4328  149.6216 H   0  0  0  0  0  0  0  0  0  0  0  0
  146.0671  131.7488  152.0489 H   0  0  0  0  0  0  0  0  0  0  0  0
  146.6328  131.5004  150.3940 H   0  0  0  0  0  0  0  0  0  0  0  0
  149.6820  141.5922  155.7006 H   0  0  0  0  0  0  0  0  0  0  0  0
  1  2  1  0  0  0  0
  1 19  1  0  0  0  0
  1 20  1  0  0  0  0
  1 21  1  0  0  0  0
  2 18  1  0  0  0  0
  2  3  1  0  0  0  0
  3  4  2  0  0  0  0
  3 22  1  0  0  0  0
  4  5  1  0  0  0  0
  4 17  1  0  0  0  0
  5  6  1  0  0  0  0
  5 23  1  0  0  0  0
  5 24  1  0  0  0  0
  6  7  1  0  0  0  0
  6 25  1  0  0  0  0
  6 26  1  0  0  0  0
  7  8  1  0  0  0  0
  7 27  1  0  0  0  0
  8  9  2  0  0  0  0
  8 10  1  0  0  0  0
 10 11  1  0  0  0  0
 10 28  1  0  0  0  0
 11 12  1  0  0  0  0
 11 29  1  0  0  0  0
 11 30  1  0  0  0  0
 12 16  1  0  0  0  0
 12 13  1  0  0  0  0
 12 31  1  0  0  0  0
 13 14  1  0  0  0  0
 13 32  1  0  0  0  0
 13 33  1  0  0  0  0
 14 15  1  0  0  0  0
 14 34  1  0  0  0  0
 14 35  1  0  0  0  0
 15 16  1  0  0  0  0
 15 36  1  0  0  0  0
 15 37  1  0  0  0  0
 17 18  2  0  0  0  0
 17 38  1  0  0  0  0
M  END
> <s_m_source_file>
AV-unprocessed.smi

> <i_m_source_file_index>
3260

> <i_lp_mmshare_version>
43012

> <i_f3d_flags>
0

> <s_epik_input>
W0NIM11uMVtjSF1jKFtjSF1uMSlbQ0gyXVtDSDJdW05IXUMoPU8pW05IXVtDSDJdW0NAQEhdMltDSDJdW0NIMl1bQ0gyXU8y

> <s_epik_cmdline>
J2VwaWtfcHl0aG9uJywgJy1waCcsICc3LjAnLCAnLXRuJywgJzgnLCAnLW1hJywgJzIwMCcsICctbWV0YWxfYmluZGluZycsICctaW1hZScsICc8aW5maWxlLm1hZT4nLCAnLW9tYWUnLCAnPG91dGZpbGUubWFlPic=

> <r_lp_tautomer_probability>
1

> <r_epik_Ionization_Penalty>
0.000550106

> <r_epik_Ionization_Penalty_Charging>
0

> <r_epik_Ionization_Penalty_Neutral>
0.000550106

> <r_epik_State_Penalty>
-0

> <r_epik_Charging_Adjusted_Penalty>
0

> <i_epik_Tot_Q>
0

> <i_epik_Tot_abs_Q>
0

> <r_epik_Metal_State_Penalty>
-0

> <b_epik_Metal_Only>
0

> <s_lp_Force_Field>
OPLS_2005

> <r_lp_Energy>
10.8429

> <b_lp_Chiralities_Consistent>
1

> <s_lp_Variant>
AV-unprocessed.smi:3260-2

> <Gold.Version>
5.8.1

> <Gold.Id.Protein>
6NUR|6NUR_protein|mol2

> <Gold.PLP.Fitness>
44.0110

> <Gold.PLP.PLP>
-35.9074

> <Gold.PLP.part.hbond>
-3.0000

> <Gold.PLP.part.metal>
0.0000

> <Gold.PLP.part.buried>
-3.5281

> <Gold.PLP.part.nonpolar>
-29.9156

> <Gold.PLP.part.repulsive>
0.5264

> <Gold.PLP.ligand.clash>
0.0000

> <Gold.PLP.ligand.torsion>
0.4494

> <Gold.PLP.Chemscore.Hbond>
1.9920

> <Gold.PLP.Chemscore.CHOScore>
0.9981

> <Gold.PLP.Chemscore.Metal>
0.0000

> <Gold.Chemscore.Hbonds>
donor molecule, donor type, donor heavy atom, donor atom, acceptor molecule, acceptor atom, score
      L1  H     7    27       P1  7948  1.00
      L1  H    10    28       P1  7948  1.00
      L1  C     3    22       P1  7948  0.90

> <Gold.PLP.Chemscore.Internal.Correction>
0.0322

> <Gold.Rescore>
     Score         DG    S(hbond)    S(metal)    S(lipo)     H(rot)  DE(clash)    DE(int)     intcor
     15.73     -16.13       1.89        0.00      77.72       1.85       0.02       0.38       ----

> <Gold.Chemscore.Fitness>
15.7293

> <Gold.Chemscore.DG>
-16.1341

> <Gold.Chemscore.ZeroCoef>
-5.4800

> <Gold.Chemscore.Hbond>
1.8874

> <Gold.Chemscore.Metal>
0.0000

> <Gold.Chemscore.Lipo>
77.7231

> <Gold.Chemscore.Internal_Hbond>
0.0000

> <Gold.Chemscore.DEClash>
0.0232

> <Gold.Chemscore.DEInternal>
0.3816

> <Gold.Chemscore.Rot>
1.8528

> <Gold.Chemscore.Internal.Correction>
   9.000000E+99

> <Gold.Chemscore.Hbonds>
donor molecule, donor type, donor heavy atom, donor atom, acceptor molecule, acceptor atom, score
      L1  H     7    27       P1  7948  0.94
      L1  H    10    28       P1  7948  0.98

> <Gold.Chemscore.Hbond.Weighted>
-6.3038

> <Gold.Chemscore.Metal.Weighted>
-0.0000

> <Gold.Chemscore.Lipo.Weighted>
-9.0936

> <Gold.Chemscore.Internal_Hbond.Weighted>
0.0000

> <Gold.Chemscore.DEClash.Weighted>
0.0232

> <Gold.Chemscore.DEInternal.Weighted>
0.3816

> <Gold.Chemscore.Rot.Weighted>
4.7433

> <Gold.Chemscore.Internal.Correction.Weighted>
   9.000000E+99

> <Gold.Protein.RotatedTorsions>
[ 6907 6896 6895 6894 ] final   33.62 input  -60.11 | X-H torsion
[ 7974 7965 7964 7962 ] final -177.44 input  175.53 | X-H torsion
[ 8008 7997 7996 7995 ] final    8.44 input   59.86 | X-H torsion
[ 10167 10162 10161 10158 ] final  -16.23 input  -65.29 | X-H torsion
[ 10718 10713 10712 10709 ] final  -84.21 input   66.30 | X-H torsion
[ 10763 10752 10751 10750 ] final -139.47 input  -60.55 | X-H torsion
[ 11005 11000 10999 10996 ] final  -92.25 input  -57.11 | X-H torsion

> <Gold.Protein.ActiveResidues>
 VAL166  LYS551  ARG553  GLY616  TRP617  ASP618  TYR619  PRO620  LYS621  CYS622 
 ASP623  PHE694  ASN695  SER759  ASP760  ASP761  ALA762  ILE779  LEU786  VAL792 
 PHE793  MET794  SER795  GLU796  ALA797  LYS798  CYS799  TRP800  GLU811  SER814 

> <Gold.Protein.RotatedAtoms>
  152.0910  134.9407  160.0571 H   0  0  0  0  0  0  0  0  0  0  0  0  # atno 6907 bound_to 6896
  152.0658  133.4078  159.4446 H   0  0  0  0  0  0  0  0  0  0  0  0  # atno 6908 bound_to 6896
  150.6837  134.3068  159.4773 H   0  0  0  0  0  0  0  0  0  0  0  0  # atno 6909 bound_to 6896
  144.7128  140.1018  143.6416 H   0  0  0  0  0  0  0  0  0  0  0  0  # atno 7974 bound_to 7965
  154.7668  140.2794  155.6169 H   0  0  0  0  0  0  0  0  0  0  0  0  # atno 8008 bound_to 7997
  156.2926  140.2649  156.2388 H   0  0  0  0  0  0  0  0  0  0  0  0  # atno 8009 bound_to 7997
  154.9949  140.0373  157.2325 H   0  0  0  0  0  0  0  0  0  0  0  0  # atno 8010 bound_to 7997
  140.7230  143.5138  150.9717 H   0  0  0  0  0  0  0  0  0  0  0  0  # atno 10167 bound_to 10162
  156.0009  130.4690  150.4375 H   0  0  0  0  0  0  0  0  0  0  0  0  # atno 10718 bound_to 10713
  154.8608  135.3581  154.5552 H   0  0  0  0  0  0  0  0  0  0  0  0  # atno 10763 bound_to 10752
  153.6169  135.7007  153.5330 H   0  0  0  0  0  0  0  0  0  0  0  0  # atno 10764 bound_to 10752
  153.3162  135.4164  155.1338 H   0  0  0  0  0  0  0  0  0  0  0  0  # atno 10765 bound_to 10752
  141.1526  133.7809  156.9994 H   0  0  0  0  0  0  0  0  0  0  0  0  # atno 11005 bound_to 11000
  145.9531  139.2747  143.1200 LP  0  0  0  0  0  0  0  0  0  0  0  0  # atno 17320 bound_to 7965
  145.9302  140.9054  143.0360 LP  0  0  0  0  0  0  0  0  0  0  0  0  # atno 17321 bound_to 7965
  139.8852  143.7022  152.3152 LP  0  0  0  0  0  0  0  0  0  0  0  0  # atno 17342 bound_to 10162
  139.7318  144.7580  151.0790 LP  0  0  0  0  0  0  0  0  0  0  0  0  # atno 17343 bound_to 10162
  157.2419  131.0527  151.2431 LP  0  0  0  0  0  0  0  0  0  0  0  0  # atno 17370 bound_to 10713
  157.3612  130.7132  149.6503 LP  0  0  0  0  0  0  0  0  0  0  0  0  # atno 17371 bound_to 10713
  140.0950  134.9570  157.1835 LP  0  0  0  0  0  0  0  0  0  0  0  0  # atno 17394 bound_to 11000
  140.3394  134.2720  155.7214 LP  0  0  0  0  0  0  0  0  0  0  0  0  # atno 17395 bound_to 11000

$$$$
