AV-unprocessed.smi:1008|AV-procd|sdf|4410|dock8
  -GOLD-   22720 2353D 1   1.00000     0.00000
 Structure written by MMmdl.
 23 23  0  0  0  0  0  0  0  0  1 V2000
  146.8173  142.5822  153.9502 C   0  0  0  0  0  0  0  0  0  0  0  0
  147.5577  141.2785  153.7086 C   0  0  0  0  0  0  0  0  0  0  0  0
  146.8834  140.3349  152.9216 N   0  0  0  0  0  0  0  0  0  0  0  0
  147.4418  139.1963  152.6681 C   0  0  0  0  0  0  0  0  0  0  0  0
  146.8953  138.1795  151.9126 N   0  0  0  0  0  0  0  0  0  0  0  0
  148.7089  138.8880  153.1633 N   0  0  0  0  0  0  0  0  0  0  0  0
  149.4400  139.7323  153.9255 C   0  0  0  0  0  0  0  0  0  0  0  0
  150.5559  139.4036  154.3254 O   0  0  0  0  0  0  0  0  0  0  0  0
  148.7994  141.0276  154.2125 C   0  0  0  0  0  0  0  0  0  0  0  0
  149.5626  142.0191  155.0863 C   0  0  0  0  0  0  0  0  0  0  0  0
  149.5677  141.6034  156.5644 C   0  0  0  0  0  0  0  0  0  0  0  0
  150.0404  142.6692  157.3588 O   0  0  0  0  0  0  0  0  0  0  0  0
  149.1110  137.9886  152.9436 H   0  0  0  0  0  0  0  0  0  0  0  0
  147.4417  143.4357  153.6851 H   0  0  0  0  0  0  0  0  0  0  0  0
  146.5357  142.6698  154.9997 H   0  0  0  0  0  0  0  0  0  0  0  0
  145.9067  142.6376  153.3525 H   0  0  0  0  0  0  0  0  0  0  0  0
  145.9847  138.2394  151.4798 H   0  0  0  0  0  0  0  0  0  0  0  0
  147.3594  137.3008  151.7341 H   0  0  0  0  0  0  0  0  0  0  0  0
  150.5880  142.1200  154.7316 H   0  0  0  0  0  0  0  0  0  0  0  0
  149.1249  143.0128  154.9779 H   0  0  0  0  0  0  0  0  0  0  0  0
  148.5644  141.3329  156.8948 H   0  0  0  0  0  0  0  0  0  0  0  0
  150.2085  140.7349  156.7189 H   0  0  0  0  0  0  0  0  0  0  0  0
  149.7189  143.4803  156.9959 H   0  0  0  0  0  0  0  0  0  0  0  0
  1  2  1  0  0  0  0
  1 14  1  0  0  0  0
  1 15  1  0  0  0  0
  1 16  1  0  0  0  0
  2  9  2  0  0  0  0
  2  3  1  0  0  0  0
  3  4  2  0  0  0  0
  4  5  1  0  0  0  0
  4  6  1  0  0  0  0
  5 17  1  0  0  0  0
  5 18  1  0  0  0  0
  6 13  1  0  0  0  0
  6  7  1  0  0  0  0
  7  8  2  0  0  0  0
  7  9  1  0  0  0  0
  9 10  1  0  0  0  0
 10 11  1  0  0  0  0
 10 19  1  0  0  0  0
 10 20  1  0  0  0  0
 11 12  1  0  0  0  0
 11 21  1  0  0  0  0
 11 22  1  0  0  0  0
 12 23  1  0  0  0  0
M  END
> <s_m_source_file>
AV-unprocessed.smi

> <i_m_source_file_index>
1008

> <i_lp_mmshare_version>
43012

> <i_f3d_flags>
0

> <s_epik_input>
W0NIM11jMW5jKFtOSDJdKVtuSF1jKD1PKWMxW0NIMl1bQ0gyXVtPSF0=

> <s_epik_cmdline>
J2VwaWtfcHl0aG9uJywgJy1waCcsICc3LjAnLCAnLXRuJywgJzgnLCAnLW1hJywgJzIwMCcsICctbWV0YWxfYmluZGluZycsICctaW1hZScsICc8aW5maWxlLm1hZT4nLCAnLW9tYWUnLCAnPG91dGZpbGUubWFlPic=

> <r_lp_tautomer_probability>
0.878315

> <r_epik_Ionization_Penalty>
0.000554322

> <r_epik_Ionization_Penalty_Charging>
3.57358e-05

> <r_epik_Ionization_Penalty_Neutral>
0.000518586

> <r_epik_State_Penalty>
0.0663044

> <r_epik_Charging_Adjusted_Penalty>
0.0663402

> <i_epik_Tot_Q>
0

> <i_epik_Tot_abs_Q>
0

> <r_epik_Metal_State_Penalty>
0.196169

> <b_epik_Metal_Only>
0

> <s_lp_Force_Field>
OPLS_2005

> <r_lp_Energy>
7.47934

> <b_lp_Chiralities_Consistent>
1

> <s_lp_Variant>
AV-unprocessed.smi:1008-1

> <Gold.Version>
5.8.1

> <Gold.Id.Protein>
6NUR|6NUR_protein|mol2

> <Gold.PLP.Fitness>
32.7348

> <Gold.PLP.PLP>
-21.3455

> <Gold.PLP.part.hbond>
-5.0000

> <Gold.PLP.part.metal>
0.0000

> <Gold.PLP.part.buried>
2.2180

> <Gold.PLP.part.nonpolar>
-19.3740

> <Gold.PLP.part.repulsive>
0.5417

> <Gold.PLP.ligand.clash>
0.0000

> <Gold.PLP.ligand.torsion>
0.2096

> <Gold.PLP.Chemscore.Hbond>
3.9360

> <Gold.PLP.Chemscore.CHOScore>
0.0000

> <Gold.PLP.Chemscore.Metal>
0.0000

> <Gold.Chemscore.Hbonds>
donor molecule, donor type, donor heavy atom, donor atom, acceptor molecule, acceptor atom, score
      L1  H     5    18       P1  7948  0.98
      L1  H     6    13       P1  7948  0.94
      L1  H    12    23       P1  8028  1.00
      P1  H  7989  7998       L1     8  0.95

> <Gold.PLP.Chemscore.Internal.Correction>
0.0006

> <Gold.Rescore>
     Score         DG    S(hbond)    S(metal)    S(lipo)     H(rot)  DE(clash)    DE(int)     intcor
     13.53     -15.32       3.30        0.00      34.83       2.06       1.47       0.32       ----

> <Gold.Chemscore.Fitness>
13.5277

> <Gold.Chemscore.DG>
-15.3160

> <Gold.Chemscore.ZeroCoef>
-5.4800

> <Gold.Chemscore.Hbond>
3.3034

> <Gold.Chemscore.Metal>
0.0000

> <Gold.Chemscore.Lipo>
34.8294

> <Gold.Chemscore.Internal_Hbond>
0.0000

> <Gold.Chemscore.DEClash>
1.4671

> <Gold.Chemscore.DEInternal>
0.3212

> <Gold.Chemscore.Rot>
2.0595

> <Gold.Chemscore.Internal.Correction>
   9.000000E+99

> <Gold.Chemscore.Hbonds>
donor molecule, donor type, donor heavy atom, donor atom, acceptor molecule, acceptor atom, score
      L1  H     5    18       P1  7948  0.93
      L1  H     6    13       P1  7948  0.85
      L1  H    12    23       P1  8028  0.94
      P1  H  7989  7998       L1     8  0.21

> <Gold.Chemscore.Hbond.Weighted>
-11.0334

> <Gold.Chemscore.Metal.Weighted>
-0.0000

> <Gold.Chemscore.Lipo.Weighted>
-4.0750

> <Gold.Chemscore.Internal_Hbond.Weighted>
0.0000

> <Gold.Chemscore.DEClash.Weighted>
1.4671

> <Gold.Chemscore.DEInternal.Weighted>
0.3212

> <Gold.Chemscore.Rot.Weighted>
5.2724

> <Gold.Chemscore.Internal.Correction.Weighted>
   9.000000E+99

> <Gold.Protein.RotatedTorsions>
[ 6907 6896 6895 6894 ] final   32.62 input  -60.11 | X-H torsion
[ 7974 7965 7964 7962 ] final -177.26 input  175.53 | X-H torsion
[ 8008 7997 7996 7995 ] final  -76.29 input   59.86 | X-H torsion
[ 10167 10162 10161 10158 ] final  -25.66 input  -65.29 | X-H torsion
[ 10718 10713 10712 10709 ] final  -40.98 input   66.30 | X-H torsion
[ 10763 10752 10751 10750 ] final   11.76 input  -60.55 | X-H torsion
[ 11005 11000 10999 10996 ] final  152.47 input  -57.11 | X-H torsion

> <Gold.Protein.ActiveResidues>
 VAL166  LYS551  ARG553  GLY616  TRP617  ASP618  TYR619  PRO620  LYS621  CYS622 
 ASP623  PHE694  ASN695  SER759  ASP760  ASP761  ALA762  ILE779  LEU786  VAL792 
 PHE793  MET794  SER795  GLU796  ALA797  LYS798  CYS799  TRP800  GLU811  SER814 

> <Gold.Protein.RotatedAtoms>
  152.0771  134.9496  160.0573 H   0  0  0  0  0  0  0  0  0  0  0  0  # atno 6907 bound_to 6896
  152.0799  133.4143  159.4505 H   0  0  0  0  0  0  0  0  0  0  0  0  # atno 6908 bound_to 6896
  150.6836  134.2914  159.4712 H   0  0  0  0  0  0  0  0  0  0  0  0  # atno 6909 bound_to 6896
  144.7127  140.1046  143.6414 H   0  0  0  0  0  0  0  0  0  0  0  0  # atno 7974 bound_to 7965
  154.5492  140.0729  156.8640 H   0  0  0  0  0  0  0  0  0  0  0  0  # atno 8008 bound_to 7997
  155.3027  140.3385  155.4229 H   0  0  0  0  0  0  0  0  0  0  0  0  # atno 8009 bound_to 7997
  156.1946  140.1699  156.8010 H   0  0  0  0  0  0  0  0  0  0  0  0  # atno 8010 bound_to 7997
  140.7286  143.4246  151.0897 H   0  0  0  0  0  0  0  0  0  0  0  0  # atno 10167 bound_to 10162
  156.2754  130.4211  149.8393 H   0  0  0  0  0  0  0  0  0  0  0  0  # atno 10718 bound_to 10713
  153.1892  135.6840  153.8374 H   0  0  0  0  0  0  0  0  0  0  0  0  # atno 10763 bound_to 10752
  153.7679  135.3200  155.3348 H   0  0  0  0  0  0  0  0  0  0  0  0  # atno 10764 bound_to 10752
  154.8107  135.4719  154.0607 H   0  0  0  0  0  0  0  0  0  0  0  0  # atno 10765 bound_to 10752
  140.1310  134.8802  157.2204 H   0  0  0  0  0  0  0  0  0  0  0  0  # atno 11005 bound_to 11000
  145.9508  139.2732  143.1213 LP  0  0  0  0  0  0  0  0  0  0  0  0  # atno 17320 bound_to 7965
  145.9325  140.9038  143.0349 LP  0  0  0  0  0  0  0  0  0  0  0  0  # atno 17321 bound_to 7965
  139.7895  143.8238  152.3150 LP  0  0  0  0  0  0  0  0  0  0  0  0  # atno 17342 bound_to 10162
  139.8217  144.7292  150.9563 LP  0  0  0  0  0  0  0  0  0  0  0  0  # atno 17343 bound_to 10162
  156.5860  130.8486  151.3395 LP  0  0  0  0  0  0  0  0  0  0  0  0  # atno 17370 bound_to 10713
  157.7297  130.9675  150.1801 LP  0  0  0  0  0  0  0  0  0  0  0  0  # atno 17371 bound_to 10713
  140.2842  134.3315  155.7334 LP  0  0  0  0  0  0  0  0  0  0  0  0  # atno 17394 bound_to 11000
  141.2170  133.7496  156.9408 LP  0  0  0  0  0  0  0  0  0  0  0  0  # atno 17395 bound_to 11000

$$$$
