AV-unprocessed.smi:713|AV-procd|sdf|3474|dock6
  -GOLD-   22720 0463D 1   1.00000     0.00000
 Structure written by MMmdl.
 41 42  0  0  0  0  0  0  0  0  1 V2000
  145.4271  135.9131  151.6805 C   0  0  0  0  0  0  0  0  0  0  0  0
  144.4795  136.9554  152.3087 C   0  0  2  0  0  0  0  0  0  0  0  0
  145.1538  137.8056  153.4002 C   0  0  0  0  0  0  0  0  0  0  0  0
  144.7359  137.7928  154.5589 O   0  0  0  0  0  0  0  0  0  0  0  0
  146.2141  138.5348  153.0150 N   0  0  0  0  0  0  0  0  0  0  0  0
  146.9931  139.4138  153.8803 C   0  0  2  0  0  0  0  0  0  0  0  0
  147.0953  140.8086  153.2377 C   0  0  0  0  0  0  0  0  0  0  0  0
  147.9452  141.7646  154.0893 C   0  0  0  0  0  0  0  0  0  0  0  0
  149.3358  141.1748  154.3888 C   0  0  0  0  0  0  0  0  0  0  0  0
  149.2918  139.7456  154.9768 C   0  0  1  0  0  0  0  0  0  0  0  0
  148.7872  139.6913  156.7671 S   0  0  0  0  0  0  0  0  0  0  0  0
  148.4707  141.4649  157.1445 C   0  0  0  0  0  0  0  0  0  0  0  0
  147.5122  138.9732  156.9097 O   0  0  0  0  0  0  0  0  0  0  0  0
  149.9500  139.2564  157.5553 O   0  0  0  0  0  0  0  0  0  0  0  0
  148.3993  138.8262  154.1197 C   0  0  0  0  0  0  0  0  0  0  0  0
  143.2560  136.3395  152.8115 N   0  0  0  0  0  0  0  0  0  0  0  0
  142.1172  136.9683  153.2732 C   0  0  0  0  0  0  0  0  0  0  0  0
  141.2443  135.9968  153.6713 C   0  0  0  0  0  0  0  0  0  0  0  0
  141.9480  134.7864  153.4192 C   0  0  0  0  0  0  0  0  0  0  0  0
  143.1515  134.9935  152.9112 N   0  0  0  0  0  0  0  0  0  0  0  0
  146.2992  136.3917  151.2338 H   0  0  0  0  0  0  0  0  0  0  0  0
  144.9224  135.3556  150.8912 H   0  0  0  0  0  0  0  0  0  0  0  0
  145.7858  135.1918  152.4162 H   0  0  0  0  0  0  0  0  0  0  0  0
  144.1881  137.6448  151.5146 H   0  0  0  0  0  0  0  0  0  0  0  0
  146.4934  138.4872  152.0459 H   0  0  0  0  0  0  0  0  0  0  0  0
  146.4707  139.5135  154.8325 H   0  0  0  0  0  0  0  0  0  0  0  0
  147.5365  140.7251  152.2433 H   0  0  0  0  0  0  0  0  0  0  0  0
  146.0992  141.2307  153.0988 H   0  0  0  0  0  0  0  0  0  0  0  0
  148.0583  142.7148  153.5666 H   0  0  0  0  0  0  0  0  0  0  0  0
  147.4205  141.9999  155.0134 H   0  0  0  0  0  0  0  0  0  0  0  0
  149.8983  141.1423  153.4549 H   0  0  0  0  0  0  0  0  0  0  0  0
  149.8921  141.8458  155.0415 H   0  0  0  0  0  0  0  0  0  0  0  0
  150.3029  139.3384  154.9541 H   0  0  0  0  0  0  0  0  0  0  0  0
  148.2709  141.5738  158.2103 H   0  0  0  0  0  0  0  0  0  0  0  0
  147.6056  141.8181  156.5848 H   0  0  0  0  0  0  0  0  0  0  0  0
  149.3465  142.0572  156.8810 H   0  0  0  0  0  0  0  0  0  0  0  0
  148.3253  137.8432  154.5858 H   0  0  0  0  0  0  0  0  0  0  0  0
  148.8861  138.6640  153.1569 H   0  0  0  0  0  0  0  0  0  0  0  0
  142.0240  138.0443  153.2803 H   0  0  0  0  0  0  0  0  0  0  0  0
  140.2547  136.1304  154.0823 H   0  0  0  0  0  0  0  0  0  0  0  0
  141.6238  133.7707  153.5916 H   0  0  0  0  0  0  0  0  0  0  0  0
  1  2  1  0  0  0  0
  1 21  1  0  0  0  0
  1 22  1  0  0  0  0
  1 23  1  0  0  0  0
  2  3  1  0  0  0  0
  2 16  1  0  0  0  0
  2 24  1  0  0  0  0
  3  4  2  0  0  0  0
  3  5  1  0  0  0  0
  5  6  1  0  0  0  0
  5 25  1  0  0  0  0
  6 15  1  0  0  0  0
  6  7  1  0  0  0  0
  6 26  1  0  0  0  0
  7  8  1  0  0  0  0
  7 27  1  0  0  0  0
  7 28  1  0  0  0  0
  8  9  1  0  0  0  0
  8 29  1  0  0  0  0
  8 30  1  0  0  0  0
  9 10  1  0  0  0  0
  9 31  1  0  0  0  0
  9 32  1  0  0  0  0
 10 11  1  0  0  0  0
 10 15  1  0  0  0  0
 10 33  1  0  0  0  0
 11 12  1  0  0  0  0
 11 13  2  0  0  0  0
 11 14  2  0  0  0  0
 12 34  1  0  0  0  0
 12 35  1  0  0  0  0
 12 36  1  0  0  0  0
 15 37  1  0  0  0  0
 15 38  1  0  0  0  0
 16 20  1  0  0  0  0
 16 17  1  0  0  0  0
 17 18  2  0  0  0  0
 17 39  1  0  0  0  0
 18 19  1  0  0  0  0
 18 40  1  0  0  0  0
 19 20  2  0  0  0  0
 19 41  1  0  0  0  0
M  END
> <s_m_source_file>
AV-unprocessed.smi

> <i_m_source_file_index>
713

> <i_lp_mmshare_version>
43012

> <i_f3d_flags>
0

> <s_epik_input>
bjFbY0hdW2NIXVtjSF1uMVtDQEhdKFtDSDNdKUMoPU8pW05IXVtDQEBIXTJbQ0gyXVtDSDJdW0NIMl1bQ0BIXShbQ0gyXTIpUyg9TykoPU8pW0NIM10=

> <s_epik_cmdline>
J2VwaWtfcHl0aG9uJywgJy1waCcsICc3LjAnLCAnLXRuJywgJzgnLCAnLW1hJywgJzIwMCcsICctbWV0YWxfYmluZGluZycsICctaW1hZScsICc8aW5maWxlLm1hZT4nLCAnLW9tYWUnLCAnPG91dGZpbGUubWFlPic=

> <r_lp_tautomer_probability>
1

> <r_epik_Ionization_Penalty>
4.07816e-05

> <r_epik_Ionization_Penalty_Charging>
0

> <r_epik_Ionization_Penalty_Neutral>
4.07816e-05

> <r_epik_State_Penalty>
-0

> <r_epik_Charging_Adjusted_Penalty>
0

> <i_epik_Tot_Q>
0

> <i_epik_Tot_abs_Q>
0

> <r_epik_Metal_State_Penalty>
-0

> <b_epik_Metal_Only>
0

> <s_lp_Force_Field>
OPLS_2005

> <r_lp_Energy>
4.10812

> <b_lp_Chiralities_Consistent>
1

> <s_lp_Variant>
AV-unprocessed.smi:713-1

> <Gold.Version>
5.8.1

> <Gold.Id.Protein>
6NUR|6NUR_protein|mol2

> <Gold.PLP.Fitness>
32.2486

> <Gold.PLP.PLP>
-29.6318

> <Gold.PLP.part.hbond>
-0.3218

> <Gold.PLP.part.metal>
0.0000

> <Gold.PLP.part.buried>
-2.4877

> <Gold.PLP.part.nonpolar>
-26.6153

> <Gold.PLP.part.repulsive>
0.2450

> <Gold.PLP.ligand.clash>
0.0000

> <Gold.PLP.ligand.torsion>
0.3280

> <Gold.PLP.Chemscore.Hbond>
0.0000

> <Gold.PLP.Chemscore.CHOScore>
0.9945

> <Gold.PLP.Chemscore.Metal>
0.0000

> <Gold.Chemscore.Hbonds>
donor molecule, donor type, donor heavy atom, donor atom, acceptor molecule, acceptor atom, score
      L1  C    19    41       P1 10957  1.00

> <Gold.PLP.Chemscore.Internal.Correction>
0.2894

> <Gold.Rescore>
     Score         DG    S(hbond)    S(metal)    S(lipo)     H(rot)  DE(clash)    DE(int)     intcor
      8.12      -9.30       0.00        0.00      70.39       1.72       0.08       1.10       ----

> <Gold.Chemscore.Fitness>
8.1151

> <Gold.Chemscore.DG>
-9.3005

> <Gold.Chemscore.ZeroCoef>
-5.4800

> <Gold.Chemscore.Hbond>
0.0000

> <Gold.Chemscore.Metal>
0.0000

> <Gold.Chemscore.Lipo>
70.3948

> <Gold.Chemscore.Internal_Hbond>
0.0000

> <Gold.Chemscore.DEClash>
0.0833

> <Gold.Chemscore.DEInternal>
1.1020

> <Gold.Chemscore.Rot>
1.7249

> <Gold.Chemscore.Internal.Correction>
   9.000000E+99

> <Gold.Chemscore.Hbond.Weighted>
-0.0000

> <Gold.Chemscore.Metal.Weighted>
-0.0000

> <Gold.Chemscore.Lipo.Weighted>
-8.2362

> <Gold.Chemscore.Internal_Hbond.Weighted>
0.0000

> <Gold.Chemscore.DEClash.Weighted>
0.0833

> <Gold.Chemscore.DEInternal.Weighted>
1.1020

> <Gold.Chemscore.Rot.Weighted>
4.4157

> <Gold.Chemscore.Internal.Correction.Weighted>
   9.000000E+99

> <Gold.Protein.RotatedTorsions>
[ 6907 6896 6895 6894 ] final   19.88 input  -60.11 | X-H torsion
[ 7974 7965 7964 7962 ] final  -62.60 input  175.53 | X-H torsion
[ 8008 7997 7996 7995 ] final  165.85 input   59.86 | X-H torsion
[ 10167 10162 10161 10158 ] final   24.99 input  -65.29 | X-H torsion
[ 10718 10713 10712 10709 ] final  109.47 input   66.30 | X-H torsion
[ 10763 10752 10751 10750 ] final  -29.95 input  -60.55 | X-H torsion
[ 11005 11000 10999 10996 ] final  -48.76 input  -57.11 | X-H torsion

> <Gold.Protein.ActiveResidues>
 VAL166  LYS551  ARG553  GLY616  TRP617  ASP618  TYR619  PRO620  LYS621  CYS622 
 ASP623  PHE694  ASN695  SER759  ASP760  ASP761  ALA762  ILE779  LEU786  VAL792 
 PHE793  MET794  SER795  GLU796  ALA797  LYS798  CYS799  TRP800  GLU811  SER814 

> <Gold.Protein.RotatedAtoms>
  151.8878  135.0428  160.0494 H   0  0  0  0  0  0  0  0  0  0  0  0  # atno 6907 bound_to 6896
  152.2460  133.5171  159.5306 H   0  0  0  0  0  0  0  0  0  0  0  0  # atno 6908 bound_to 6896
  150.7068  134.0940  159.3984 H   0  0  0  0  0  0  0  0  0  0  0  0  # atno 6909 bound_to 6896
  145.7893  140.8718  143.0289 H   0  0  0  0  0  0  0  0  0  0  0  0  # atno 7974 bound_to 7965
  156.1767  140.1659  156.8350 H   0  0  0  0  0  0  0  0  0  0  0  0  # atno 8008 bound_to 7997
  154.5315  140.0756  156.8386 H   0  0  0  0  0  0  0  0  0  0  0  0  # atno 8009 bound_to 7997
  155.3398  140.3384  155.4241 H   0  0  0  0  0  0  0  0  0  0  0  0  # atno 8010 bound_to 7997
  140.5143  144.0109  150.6387 H   0  0  0  0  0  0  0  0  0  0  0  0  # atno 10167 bound_to 10162
  157.6540  131.0914  150.6459 H   0  0  0  0  0  0  0  0  0  0  0  0  # atno 10718 bound_to 10713
  153.7730  135.6911  153.4903 H   0  0  0  0  0  0  0  0  0  0  0  0  # atno 10763 bound_to 10752
  153.1862  135.4488  155.0090 H   0  0  0  0  0  0  0  0  0  0  0  0  # atno 10764 bound_to 10752
  154.8110  135.3378  154.7238 H   0  0  0  0  0  0  0  0  0  0  0  0  # atno 10765 bound_to 10752
  141.0720  133.6676  156.3488 H   0  0  0  0  0  0  0  0  0  0  0  0  # atno 11005 bound_to 11000
  144.6784  140.0101  143.7484 LP  0  0  0  0  0  0  0  0  0  0  0  0  # atno 17320 bound_to 7965
  145.9993  139.3078  143.0937 LP  0  0  0  0  0  0  0  0  0  0  0  0  # atno 17321 bound_to 7965
  140.3440  143.3002  152.0558 LP  0  0  0  0  0  0  0  0  0  0  0  0  # atno 17342 bound_to 10162
  139.4905  144.6422  151.6853 LP  0  0  0  0  0  0  0  0  0  0  0  0  # atno 17343 bound_to 10162
  156.6767  130.4555  149.5640 LP  0  0  0  0  0  0  0  0  0  0  0  0  # atno 17370 bound_to 10713
  156.1958  130.6589  151.1113 LP  0  0  0  0  0  0  0  0  0  0  0  0  # atno 17371 bound_to 10713
  140.5654  134.5893  157.5444 LP  0  0  0  0  0  0  0  0  0  0  0  0  # atno 17394 bound_to 11000
  139.9533  134.7579  156.0399 LP  0  0  0  0  0  0  0  0  0  0  0  0  # atno 17395 bound_to 11000

$$$$
