AV-unprocessed.smi:89|AV-procd|sdf|825|dock5
  -GOLD-   2262017233D 1   1.00000     0.00000
 Structure written by MMmdl.
 54 56  0  0  0  0  0  0  0  0  1 V2000
  145.2386  139.6293  158.3983 C   0  0  0  0  0  0  0  0  0  0  0  0
  144.7285  138.5168  157.4679 C   0  0  0  0  0  0  0  0  0  0  0  0
  145.7893  137.6236  156.9936 N   0  0  0  0  0  0  0  0  0  0  0  0
  145.4510  136.6292  156.1379 C   0  0  0  0  0  0  0  0  0  0  0  0
  145.6016  135.3552  156.5801 N   0  0  0  0  0  0  0  0  0  0  0  0
  145.2893  134.3275  155.7862 C   0  0  0  0  0  0  0  0  0  0  0  0
  144.8111  134.3511  154.5407 N   0  0  0  0  0  0  0  0  0  0  0  0
  144.6412  135.6300  154.0980 C   0  0  0  0  0  0  0  0  0  0  0  0
  144.9378  136.8192  154.8227 C   0  0  0  0  0  0  0  0  0  0  0  0
  144.6353  137.9317  154.0463 N   0  0  0  0  0  0  0  0  0  0  0  0
  144.1953  137.4295  152.9255 C   0  0  0  0  0  0  0  0  0  0  0  0
  144.1492  136.0548  152.8757 N   0  0  0  0  0  0  0  0  0  0  0  0
  143.6972  135.2384  151.7587 C   0  0  0  0  0  0  0  0  0  0  0  0
  144.8420  134.6709  150.8800 C   0  0  1  0  0  0  0  0  0  0  0  0
  145.3318  135.6934  150.0329 O   0  0  0  0  0  0  0  0  0  0  0  0
  146.0101  134.0773  151.6720 C   0  0  0  0  0  0  0  0  0  0  0  0
  145.7283  132.5824  151.6320 C   0  0  0  0  0  0  0  0  0  0  0  0
  145.2432  132.4026  150.3139 O   0  0  0  0  0  0  0  0  0  0  0  0
  144.3616  133.4806  150.0242 C   0  0  0  0  0  0  0  0  0  0  0  0
  146.9214  137.2949  157.8674 C   0  0  2  0  0  0  0  0  0  0  0  0
  148.0833  136.6639  157.0806 C   0  0  0  0  0  0  0  0  0  0  0  0
  146.5022  136.4221  159.0665 C   0  0  0  0  0  0  0  0  0  0  0  0
  147.9206  136.1055  160.2088 S   0  0  0  0  0  0  0  0  0  0  0  0
  148.9640  135.3868  159.4619 O   0  0  0  0  0  0  0  0  0  0  0  0
  148.2516  137.3655  160.8919 O   0  0  0  0  0  0  0  0  0  0  0  0
  147.1843  134.9473  161.4425 C   0  0  0  0  0  0  0  0  0  0  0  0
  147.2526  135.5050  162.8690 C   0  0  0  0  0  0  0  0  0  0  0  0
  144.4070  140.2223  158.7784 H   0  0  0  0  0  0  0  0  0  0  0  0
  145.9179  140.3117  157.8875 H   0  0  0  0  0  0  0  0  0  0  0  0
  145.7656  139.2096  159.2556 H   0  0  0  0  0  0  0  0  0  0  0  0
  143.9869  137.9333  158.0109 H   0  0  0  0  0  0  0  0  0  0  0  0
  144.1999  138.9503  156.6196 H   0  0  0  0  0  0  0  0  0  0  0  0
  145.4432  133.3462  156.2104 H   0  0  0  0  0  0  0  0  0  0  0  0
  143.8812  138.0534  152.1014 H   0  0  0  0  0  0  0  0  0  0  0  0
  143.0954  134.4225  152.1611 H   0  0  0  0  0  0  0  0  0  0  0  0
  143.0219  135.8416  151.1502 H   0  0  0  0  0  0  0  0  0  0  0  0
  145.4048  135.3480  149.1565 H   0  0  0  0  0  0  0  0  0  0  0  0
  146.9571  134.2663  151.1633 H   0  0  0  0  0  0  0  0  0  0  0  0
  146.1097  134.4558  152.6879 H   0  0  0  0  0  0  0  0  0  0  0  0
  146.6162  131.9791  151.8223 H   0  0  0  0  0  0  0  0  0  0  0  0
  144.9575  132.3067  152.3533 H   0  0  0  0  0  0  0  0  0  0  0  0
  143.3494  133.1792  150.2983 H   0  0  0  0  0  0  0  0  0  0  0  0
  144.3591  133.6905  148.9539 H   0  0  0  0  0  0  0  0  0  0  0  0
  147.3111  138.2231  158.2885 H   0  0  0  0  0  0  0  0  0  0  0  0
  148.9481  136.5036  157.7246 H   0  0  0  0  0  0  0  0  0  0  0  0
  148.4019  137.3087  156.2611 H   0  0  0  0  0  0  0  0  0  0  0  0
  147.8050  135.6984  156.6572 H   0  0  0  0  0  0  0  0  0  0  0  0
  145.6862  136.8697  159.6313 H   0  0  0  0  0  0  0  0  0  0  0  0
  146.1520  135.4529  158.7115 H   0  0  0  0  0  0  0  0  0  0  0  0
  146.1544  134.7429  161.1506 H   0  0  0  0  0  0  0  0  0  0  0  0
  147.7338  134.0077  161.3821 H   0  0  0  0  0  0  0  0  0  0  0  0
  146.8427  134.7889  163.5816 H   0  0  0  0  0  0  0  0  0  0  0  0
  146.6818  136.4277  162.9662 H   0  0  0  0  0  0  0  0  0  0  0  0
  148.2813  135.7125  163.1635 H   0  0  0  0  0  0  0  0  0  0  0  0
  1  2  1  0  0  0  0
  1 28  1  0  0  0  0
  1 29  1  0  0  0  0
  1 30  1  0  0  0  0
  2  3  1  0  0  0  0
  2 31  1  0  0  0  0
  2 32  1  0  0  0  0
  3  4  1  0  0  0  0
  3 20  1  0  0  0  0
  4  9  1  0  0  0  0
  4  5  2  0  0  0  0
  5  6  1  0  0  0  0
  6  7  2  0  0  0  0
  6 33  1  0  0  0  0
  7  8  1  0  0  0  0
  8 12  1  0  0  0  0
  8  9  2  0  0  0  0
  9 10  1  0  0  0  0
 10 11  2  0  0  0  0
 11 12  1  0  0  0  0
 11 34  1  0  0  0  0
 12 13  1  0  0  0  0
 13 14  1  0  0  0  0
 13 35  1  0  0  0  0
 13 36  1  0  0  0  0
 14 19  1  0  0  0  0
 14 15  1  0  0  0  0
 14 16  1  0  0  0  0
 15 37  1  0  0  0  0
 16 17  1  0  0  0  0
 16 38  1  0  0  0  0
 16 39  1  0  0  0  0
 17 18  1  0  0  0  0
 17 40  1  0  0  0  0
 17 41  1  0  0  0  0
 18 19  1  0  0  0  0
 19 42  1  0  0  0  0
 19 43  1  0  0  0  0
 20 21  1  0  0  0  0
 20 22  1  0  0  0  0
 20 44  1  0  0  0  0
 21 45  1  0  0  0  0
 21 46  1  0  0  0  0
 21 47  1  0  0  0  0
 22 23  1  0  0  0  0
 22 48  1  0  0  0  0
 22 49  1  0  0  0  0
 23 24  2  0  0  0  0
 23 25  2  0  0  0  0
 23 26  1  0  0  0  0
 26 27  1  0  0  0  0
 26 50  1  0  0  0  0
 26 51  1  0  0  0  0
 27 52  1  0  0  0  0
 27 53  1  0  0  0  0
 27 54  1  0  0  0  0
M  END
> <s_m_source_file>
AV-unprocessed.smi

> <i_m_source_file_index>
89

> <i_lp_mmshare_version>
43012

> <i_f3d_flags>
0

> <s_epik_input>
W0NIM11bQ0gyXVMoPU8pKD1PKVtDSDJdW0NAQEhdKFtDSDNdKU4oW0NIMl1bQ0gzXSljKG5bY0hdbjEpYyhjMTIpbltjSF1uMltDSDJdW0NAQF0zKFtPSF0pW0NIMl1bQ0gyXU9bQ0gyXTM=

> <s_epik_cmdline>
J2VwaWtfcHl0aG9uJywgJy1waCcsICc3LjAnLCAnLXRuJywgJzgnLCAnLW1hJywgJzIwMCcsICctbWV0YWxfYmluZGluZycsICctaW1hZScsICc8aW5maWxlLm1hZT4nLCAnLW9tYWUnLCAnPG91dGZpbGUubWFlPic=

> <r_lp_tautomer_probability>
1

> <r_epik_Ionization_Penalty>
0.00103773

> <r_epik_Ionization_Penalty_Charging>
0

> <r_epik_Ionization_Penalty_Neutral>
0.00103773

> <r_epik_State_Penalty>
0.000558914

> <r_epik_Charging_Adjusted_Penalty>
0.000558914

> <i_epik_Tot_Q>
0

> <i_epik_Tot_abs_Q>
0

> <r_epik_Metal_State_Penalty>
-0

> <b_epik_Metal_Only>
0

> <s_lp_Force_Field>
OPLS_2005

> <r_lp_Energy>
26.0666

> <b_lp_Chiralities_Consistent>
1

> <s_lp_Variant>
AV-unprocessed.smi:89-1

> <Gold.Version>
5.8.1

> <Gold.Id.Protein>
6NUR|6NUR_protein|mol2

> <Gold.PLP.Fitness>
44.8407

> <Gold.PLP.PLP>
-30.7348

> <Gold.PLP.part.hbond>
-5.0000

> <Gold.PLP.part.metal>
0.0000

> <Gold.PLP.part.buried>
-4.1296

> <Gold.PLP.part.nonpolar>
-21.5031

> <Gold.PLP.part.repulsive>
0.3747

> <Gold.PLP.ligand.clash>
0.0000

> <Gold.PLP.ligand.torsion>
1.9617

> <Gold.PLP.Chemscore.Hbond>
3.6800

> <Gold.PLP.Chemscore.CHOScore>
1.8028

> <Gold.PLP.Chemscore.Metal>
0.0000

> <Gold.Chemscore.Hbonds>
donor molecule, donor type, donor heavy atom, donor atom, acceptor molecule, acceptor atom, score
      L1  H    15    37       P1  7921  1.00
      P1  H  6896  6908       L1    24  1.00
      P1  H  6931  6943       L1    25  0.83
      P1  H  6934  6947       L1    25  0.58
      L1  C    11    34       P1 10171  1.00
      L1  C    11    34       P1 10175  0.79

> <Gold.PLP.Chemscore.Internal.Correction>
1.5810

> <Gold.Rescore>
     Score         DG    S(hbond)    S(metal)    S(lipo)     H(rot)  DE(clash)    DE(int)     intcor
      9.89     -15.77       3.68        0.00      51.61       3.14       0.04       5.83       ----

> <Gold.Chemscore.Fitness>
9.8912

> <Gold.Chemscore.DG>
-15.7663

> <Gold.Chemscore.ZeroCoef>
-5.4800

> <Gold.Chemscore.Hbond>
3.6776

> <Gold.Chemscore.Metal>
0.0000

> <Gold.Chemscore.Lipo>
51.6062

> <Gold.Chemscore.Internal_Hbond>
0.0000

> <Gold.Chemscore.DEClash>
0.0427

> <Gold.Chemscore.DEInternal>
5.8324

> <Gold.Chemscore.Rot>
3.1386

> <Gold.Chemscore.Internal.Correction>
   9.000000E+99

> <Gold.Chemscore.Hbonds>
donor molecule, donor type, donor heavy atom, donor atom, acceptor molecule, acceptor atom, score
      L1  H    15    37       P1  7921  1.00
      P1  H  6896  6908       L1    24  1.00
      P1  H  6931  6943       L1    25  0.79
      P1  H  6934  6947       L1    25  0.57

> <Gold.Chemscore.Hbond.Weighted>
-12.2833

> <Gold.Chemscore.Metal.Weighted>
-0.0000

> <Gold.Chemscore.Lipo.Weighted>
-6.0379

> <Gold.Chemscore.Internal_Hbond.Weighted>
0.0000

> <Gold.Chemscore.DEClash.Weighted>
0.0427

> <Gold.Chemscore.DEInternal.Weighted>
5.8324

> <Gold.Chemscore.Rot.Weighted>
8.0349

> <Gold.Chemscore.Internal.Correction.Weighted>
   9.000000E+99

> <Gold.Protein.RotatedTorsions>
[ 6907 6896 6895 6894 ] final  173.17 input  -60.11 | X-H torsion
[ 7974 7965 7964 7962 ] final  135.80 input  175.53 | X-H torsion
[ 8008 7997 7996 7995 ] final  -16.85 input   59.86 | X-H torsion
[ 10167 10162 10161 10158 ] final -118.69 input  -65.29 | X-H torsion
[ 10718 10713 10712 10709 ] final  128.91 input   66.30 | X-H torsion
[ 10763 10752 10751 10750 ] final  -70.60 input  -60.55 | X-H torsion
[ 11005 11000 10999 10996 ] final   11.11 input  -57.11 | X-H torsion

> <Gold.Protein.ActiveResidues>
 VAL166  LYS551  ARG553  GLY616  TRP617  ASP618  TYR619  PRO620  LYS621  CYS622 
 ASP623  PHE694  ASN695  SER759  ASP760  ASP761  ALA762  ILE779  LEU786  VAL792 
 PHE793  MET794  SER795  GLU796  ALA797  LYS798  CYS799  TRP800  GLU811  SER814 

> <Gold.Protein.RotatedAtoms>
  151.7726  133.3342  159.3448 H   0  0  0  0  0  0  0  0  0  0  0  0  # atno 6907 bound_to 6896
  150.7456  134.6004  159.6043 H   0  0  0  0  0  0  0  0  0  0  0  0  # atno 6908 bound_to 6896
  152.3330  134.7236  160.0336 H   0  0  0  0  0  0  0  0  0  0  0  0  # atno 6909 bound_to 6896
  144.9627  139.4692  143.5471 H   0  0  0  0  0  0  0  0  0  0  0  0  # atno 7974 bound_to 7965
  154.5022  140.2158  155.9324 H   0  0  0  0  0  0  0  0  0  0  0  0  # atno 8008 bound_to 7997
  156.1448  140.3173  155.8519 H   0  0  0  0  0  0  0  0  0  0  0  0  # atno 8009 bound_to 7997
  155.4052  140.0487  157.3025 H   0  0  0  0  0  0  0  0  0  0  0  0  # atno 8010 bound_to 7997
  140.0547  143.5026  152.2063 H   0  0  0  0  0  0  0  0  0  0  0  0  # atno 10167 bound_to 10162
  157.5202  131.1098  150.9164 H   0  0  0  0  0  0  0  0  0  0  0  0  # atno 10718 bound_to 10713
  154.4199  135.5989  153.6004 H   0  0  0  0  0  0  0  0  0  0  0  0  # atno 10763 bound_to 10752
  152.9793  135.5950  154.3967 H   0  0  0  0  0  0  0  0  0  0  0  0  # atno 10764 bound_to 10752
  154.3791  135.2841  155.2200 H   0  0  0  0  0  0  0  0  0  0  0  0  # atno 10765 bound_to 10752
  140.5069  134.0690  155.7808 H   0  0  0  0  0  0  0  0  0  0  0  0  # atno 11005 bound_to 11000
  146.3358  139.8788  142.8828 LP  0  0  0  0  0  0  0  0  0  0  0  0  # atno 17320 bound_to 7965
  145.2675  141.0098  143.3791 LP  0  0  0  0  0  0  0  0  0  0  0  0  # atno 17321 bound_to 7965
  139.5931  144.7557  151.3352 LP  0  0  0  0  0  0  0  0  0  0  0  0  # atno 17342 bound_to 10162
  140.7200  143.7161  150.7731 LP  0  0  0  0  0  0  0  0  0  0  0  0  # atno 17343 bound_to 10162
  156.9777  130.5515  149.5294 LP  0  0  0  0  0  0  0  0  0  0  0  0  # atno 17370 bound_to 10713
  156.0348  130.5437  150.8626 LP  0  0  0  0  0  0  0  0  0  0  0  0  # atno 17371 bound_to 10713
  141.1406  133.9145  157.2335 LP  0  0  0  0  0  0  0  0  0  0  0  0  # atno 17394 bound_to 11000
  139.9681  135.0136  156.9440 LP  0  0  0  0  0  0  0  0  0  0  0  0  # atno 17395 bound_to 11000

$$$$
