AV-unprocessed.smi:1447|AV-procd|sdf|5893|dock6
  -GOLD-   22720 5573D 1   1.00000     0.00000
 Structure written by MMmdl.
 47 49  0  0  0  0  0  0  0  0  1 V2000
  155.7457  133.1417  158.6923 C   0  0  0  0  0  0  0  0  0  0  0  0
  154.6329  133.0609  159.5646 O   0  0  0  0  0  0  0  0  0  0  0  0
  155.0131  132.8538  160.9163 C   0  0  0  0  0  0  0  0  0  0  0  0
  155.9248  134.0088  161.3838 C   0  0  0  0  0  0  0  0  0  0  0  0
  155.2569  135.0994  162.1212 N   0  0  0  0  0  0  0  0  0  0  0  0
  155.2821  136.3507  161.5233 N   0  0  0  0  0  0  0  0  0  0  0  0
  154.7358  137.3684  162.1043 C   0  0  0  0  0  0  0  0  0  0  0  0
  154.7698  138.7258  161.4940 C   0  0  0  0  0  0  0  0  0  0  0  0
  155.7058  139.5040  161.6859 O   0  0  0  0  0  0  0  0  0  0  0  0
  153.7110  139.0310  160.7219 N   0  0  0  0  0  0  0  0  0  0  0  0
  153.5191  140.2831  159.9986 C   0  0  0  0  0  0  0  0  0  0  0  0
  153.3654  141.4659  160.9710 C   0  0  0  0  0  0  0  0  0  0  0  0
  153.0098  142.7579  160.2146 C   0  0  0  0  0  0  0  0  0  0  0  0
  151.7730  142.5771  159.4540 N   0  0  0  0  0  0  0  0  0  0  0  0
  151.4464  143.8274  158.7879 C   0  0  0  0  0  0  0  0  0  0  0  0
  152.5947  144.6740  158.2878 C   0  0  0  0  0  0  0  0  0  0  0  0
  151.8056  145.1131  159.4973 C   0  0  0  0  0  0  0  0  0  0  0  0
  151.9593  141.5361  158.4428 C   0  0  0  0  0  0  0  0  0  0  0  0
  152.2631  140.1873  159.1182 C   0  0  0  0  0  0  0  0  0  0  0  0
  154.0684  137.2214  163.3856 C   0  0  0  0  0  0  0  0  0  0  0  0
  154.0339  135.9949  163.9516 C   0  0  0  0  0  0  0  0  0  0  0  0
  154.6478  134.8278  163.3148 C   0  0  0  0  0  0  0  0  0  0  0  0
  154.6172  133.7006  163.8080 O   0  0  0  0  0  0  0  0  0  0  0  0
  155.4000  133.3171  157.6736 H   0  0  0  0  0  0  0  0  0  0  0  0
  156.3167  132.2119  158.6971 H   0  0  0  0  0  0  0  0  0  0  0  0
  156.4076  133.9628  158.9705 H   0  0  0  0  0  0  0  0  0  0  0  0
  154.1387  132.7601  161.5629 H   0  0  0  0  0  0  0  0  0  0  0  0
  155.5584  131.9119  160.9910 H   0  0  0  0  0  0  0  0  0  0  0  0
  156.7047  133.5975  162.0266 H   0  0  0  0  0  0  0  0  0  0  0  0
  156.4320  134.4190  160.5086 H   0  0  0  0  0  0  0  0  0  0  0  0
  152.9875  138.3332  160.6219 H   0  0  0  0  0  0  0  0  0  0  0  0
  154.3805  140.4608  159.3517 H   0  0  0  0  0  0  0  0  0  0  0  0
  152.5873  141.2495  161.7047 H   0  0  0  0  0  0  0  0  0  0  0  0
  154.2881  141.6141  161.5332 H   0  0  0  0  0  0  0  0  0  0  0  0
  152.8825  143.5727  160.9284 H   0  0  0  0  0  0  0  0  0  0  0  0
  153.8252  143.0418  159.5471 H   0  0  0  0  0  0  0  0  0  0  0  0
  150.5423  143.8710  158.1824 H   0  0  0  0  0  0  0  0  0  0  0  0
  153.6074  144.3119  158.4557 H   0  0  0  0  0  0  0  0  0  0  0  0
  152.4449  145.2259  157.3622 H   0  0  0  0  0  0  0  0  0  0  0  0
  151.1287  145.9567  159.3780 H   0  0  0  0  0  0  0  0  0  0  0  0
  152.2950  145.0423  160.4669 H   0  0  0  0  0  0  0  0  0  0  0  0
  151.0532  141.4451  157.8427 H   0  0  0  0  0  0  0  0  0  0  0  0
  152.7675  141.8101  157.7625 H   0  0  0  0  0  0  0  0  0  0  0  0
  152.3965  139.4165  158.3584 H   0  0  0  0  0  0  0  0  0  0  0  0
  151.4048  139.8833  159.7200 H   0  0  0  0  0  0  0  0  0  0  0  0
  153.6080  138.0655  163.8783 H   0  0  0  0  0  0  0  0  0  0  0  0
  153.5397  135.8697  164.9038 H   0  0  0  0  0  0  0  0  0  0  0  0
  1  2  1  0  0  0  0
  1 24  1  0  0  0  0
  1 25  1  0  0  0  0
  1 26  1  0  0  0  0
  2  3  1  0  0  0  0
  3  4  1  0  0  0  0
  3 27  1  0  0  0  0
  3 28  1  0  0  0  0
  4  5  1  0  0  0  0
  4 29  1  0  0  0  0
  4 30  1  0  0  0  0
  5 22  1  0  0  0  0
  5  6  1  0  0  0  0
  6  7  2  0  0  0  0
  7  8  1  0  0  0  0
  7 20  1  0  0  0  0
  8  9  2  0  0  0  0
  8 10  1  0  0  0  0
 10 11  1  0  0  0  0
 10 31  1  0  0  0  0
 11 19  1  0  0  0  0
 11 12  1  0  0  0  0
 11 32  1  0  0  0  0
 12 13  1  0  0  0  0
 12 33  1  0  0  0  0
 12 34  1  0  0  0  0
 13 14  1  0  0  0  0
 13 35  1  0  0  0  0
 13 36  1  0  0  0  0
 14 15  1  0  0  0  0
 14 18  1  0  0  0  0
 15 17  1  0  0  0  0
 15 16  1  0  0  0  0
 15 37  1  0  0  0  0
 16 17  1  0  0  0  0
 16 38  1  0  0  0  0
 16 39  1  0  0  0  0
 17 40  1  0  0  0  0
 17 41  1  0  0  0  0
 18 19  1  0  0  0  0
 18 42  1  0  0  0  0
 18 43  1  0  0  0  0
 19 44  1  0  0  0  0
 19 45  1  0  0  0  0
 20 21  2  0  0  0  0
 20 46  1  0  0  0  0
 21 22  1  0  0  0  0
 21 47  1  0  0  0  0
 22 23  2  0  0  0  0
M  END
> <s_m_source_file>
AV-unprocessed.smi

> <i_m_source_file_index>
1447

> <i_lp_mmshare_version>
43012

> <i_f3d_flags>
0

> <s_epik_input>
W0NIM11PW0NIMl1bQ0gyXW4xbmMoW2NIXVtjSF1jMT1PKUMoPU8pW05IXVtDSF0yW0NIMl1bQ0gyXU4oW0NIMl1bQ0gyXTIpW0NIXTNbQ0gyXVtDSDJdMw==

> <s_epik_cmdline>
J2VwaWtfcHl0aG9uJywgJy1waCcsICc3LjAnLCAnLXRuJywgJzgnLCAnLW1hJywgJzIwMCcsICctbWV0YWxfYmluZGluZycsICctaW1hZScsICc8aW5maWxlLm1hZT4nLCAnLW9tYWUnLCAnPG91dGZpbGUubWFlPic=

> <r_lp_tautomer_probability>
1

> <r_epik_Ionization_Penalty>
0.826878

> <r_epik_Ionization_Penalty_Charging>
6.86753e-09

> <r_epik_Ionization_Penalty_Neutral>
0.826878

> <r_epik_State_Penalty>
0.8604

> <r_epik_Charging_Adjusted_Penalty>
0.8604

> <i_epik_Tot_Q>
0

> <i_epik_Tot_abs_Q>
0

> <r_epik_Metal_State_Penalty>
0.8604

> <b_epik_Metal_Only>
0

> <s_lp_Force_Field>
OPLS_2005

> <r_lp_Energy>
44.3131

> <b_lp_Chiralities_Consistent>
1

> <s_lp_Variant>
AV-unprocessed.smi:1447-3

> <Gold.Version>
5.8.1

> <Gold.Id.Protein>
6NUR|6NUR_protein|mol2

> <Gold.PLP.Fitness>
44.3117

> <Gold.PLP.PLP>
-45.2274

> <Gold.PLP.part.hbond>
-1.0000

> <Gold.PLP.part.metal>
0.0000

> <Gold.PLP.part.buried>
-6.2547

> <Gold.PLP.part.nonpolar>
-38.6163

> <Gold.PLP.part.repulsive>
0.0701

> <Gold.PLP.ligand.clash>
0.3774

> <Gold.PLP.ligand.torsion>
2.3748

> <Gold.PLP.Chemscore.Hbond>
1.0000

> <Gold.PLP.Chemscore.CHOScore>
0.0000

> <Gold.PLP.Chemscore.Metal>
0.0000

> <Gold.Chemscore.Hbonds>
donor molecule, donor type, donor heavy atom, donor atom, acceptor molecule, acceptor atom, score
      P1  H  6896  6907       L1     2  0.49

> <Gold.PLP.Chemscore.Internal.Correction>
1.2113

> <Gold.Rescore>
     Score         DG    S(hbond)    S(metal)    S(lipo)     H(rot)  DE(clash)    DE(int)     intcor
     14.89     -18.42       0.97        0.00     120.37       1.71       0.01       3.51       ----

> <Gold.Chemscore.Fitness>
14.8932

> <Gold.Chemscore.DG>
-18.4169

> <Gold.Chemscore.ZeroCoef>
-5.4800

> <Gold.Chemscore.Hbond>
0.9708

> <Gold.Chemscore.Metal>
0.0000

> <Gold.Chemscore.Lipo>
120.3684

> <Gold.Chemscore.Internal_Hbond>
0.0000

> <Gold.Chemscore.DEClash>
0.0096

> <Gold.Chemscore.DEInternal>
3.5141

> <Gold.Chemscore.Rot>
1.7143

> <Gold.Chemscore.Internal.Correction>
   9.000000E+99

> <Gold.Chemscore.Hbonds>
donor molecule, donor type, donor heavy atom, donor atom, acceptor molecule, acceptor atom, score
      P1  H  6896  6907       L1     2  0.17

> <Gold.Chemscore.Hbond.Weighted>
-3.2425

> <Gold.Chemscore.Metal.Weighted>
-0.0000

> <Gold.Chemscore.Lipo.Weighted>
-14.0831

> <Gold.Chemscore.Internal_Hbond.Weighted>
0.0000

> <Gold.Chemscore.DEClash.Weighted>
0.0096

> <Gold.Chemscore.DEInternal.Weighted>
3.5141

> <Gold.Chemscore.Rot.Weighted>
4.3887

> <Gold.Chemscore.Internal.Correction.Weighted>
   9.000000E+99

> <Gold.Protein.RotatedTorsions>
[ 6907 6896 6895 6894 ] final  103.28 input  -60.11 | X-H torsion
[ 7974 7965 7964 7962 ] final   77.19 input  175.53 | X-H torsion
[ 8008 7997 7996 7995 ] final   78.68 input   59.86 | X-H torsion
[ 10167 10162 10161 10158 ] final -110.10 input  -65.29 | X-H torsion
[ 10718 10713 10712 10709 ] final  -69.10 input   66.30 | X-H torsion
[ 10763 10752 10751 10750 ] final  -16.38 input  -60.55 | X-H torsion
[ 11005 11000 10999 10996 ] final -138.01 input  -57.11 | X-H torsion

> <Gold.Protein.ActiveResidues>
 VAL166  LYS551  ARG553  GLY616  TRP617  ASP618  TYR619  PRO620  LYS621  CYS622 
 ASP623  PHE694  ASN695  SER759  ASP760  ASP761  ALA762  ILE779  LEU786  VAL792 
 PHE793  MET794  SER795  GLU796  ALA797  LYS798  CYS799  TRP800  GLU811  SER814 

> <Gold.Protein.RotatedAtoms>
  152.5300  133.9850  159.7823 H   0  0  0  0  0  0  0  0  0  0  0  0  # atno 6907 bound_to 6896
  151.0096  133.5970  159.2691 H   0  0  0  0  0  0  0  0  0  0  0  0  # atno 6908 bound_to 6896
  151.3049  135.0785  159.9305 H   0  0  0  0  0  0  0  0  0  0  0  0  # atno 6909 bound_to 6896
  145.6932  139.2559  143.1747 H   0  0  0  0  0  0  0  0  0  0  0  0  # atno 7974 bound_to 7965
  155.8592  140.3454  155.5745 H   0  0  0  0  0  0  0  0  0  0  0  0  # atno 8008 bound_to 7997
  155.7952  140.0877  157.2006 H   0  0  0  0  0  0  0  0  0  0  0  0  # atno 8009 bound_to 7997
  154.4011  140.1475  156.3197 H   0  0  0  0  0  0  0  0  0  0  0  0  # atno 8010 bound_to 7997
  140.1481  143.4222  152.1514 H   0  0  0  0  0  0  0  0  0  0  0  0  # atno 10167 bound_to 10162
  156.0472  130.4306  150.2097 H   0  0  0  0  0  0  0  0  0  0  0  0  # atno 10718 bound_to 10713
  153.5577  135.7010  153.5562 H   0  0  0  0  0  0  0  0  0  0  0  0  # atno 10763 bound_to 10752
  153.3457  135.4009  155.1607 H   0  0  0  0  0  0  0  0  0  0  0  0  # atno 10764 bound_to 10752
  154.8652  135.3753  154.5092 H   0  0  0  0  0  0  0  0  0  0  0  0  # atno 10765 bound_to 10752
  140.8657  134.2114  157.4681 H   0  0  0  0  0  0  0  0  0  0  0  0  # atno 11005 bound_to 11000
  146.0863  140.7707  142.9617 LP  0  0  0  0  0  0  0  0  0  0  0  0  # atno 17320 bound_to 7965
  144.6990  140.3567  143.7171 LP  0  0  0  0  0  0  0  0  0  0  0  0  # atno 17321 bound_to 7965
  139.5439  144.7281  151.4645 LP  0  0  0  0  0  0  0  0  0  0  0  0  # atno 17342 bound_to 10162
  140.6719  143.8274  150.7010 LP  0  0  0  0  0  0  0  0  0  0  0  0  # atno 17343 bound_to 10162
  157.0185  130.9972  151.3346 LP  0  0  0  0  0  0  0  0  0  0  0  0  # atno 17370 bound_to 10713
  157.5360  130.8089  149.7973 LP  0  0  0  0  0  0  0  0  0  0  0  0  # atno 17371 bound_to 10713
  139.8709  134.9750  156.4869 LP  0  0  0  0  0  0  0  0  0  0  0  0  # atno 17394 bound_to 11000
  140.8632  133.8044  155.9286 LP  0  0  0  0  0  0  0  0  0  0  0  0  # atno 17395 bound_to 11000

$$$$
