AV-unprocessed.smi:2017|AV-procd|sdf|8167|dock7
  -GOLD-   2272010413D 1   1.00000     0.00000
 Structure written by MMmdl.
 45 46  0  0  0  0  0  0  0  0  1 V2000
  150.2890  141.0062  158.0295 O   0  0  0  0  0  0  0  0  0  0  0  0
  150.8027  141.5180  157.0335 C   0  0  0  0  0  0  0  0  0  0  0  0
  151.1991  140.6658  155.8187 C   0  0  0  0  0  0  0  0  0  0  0  0
  150.0730  140.3688  154.9207 N   0  0  0  0  0  0  0  0  0  0  0  0
  149.0925  141.3238  154.6915 C   0  0  0  0  0  0  0  0  0  0  0  0
  148.0353  141.1249  153.8691 C   0  0  0  0  0  0  0  0  0  0  0  0
  147.8762  139.8574  153.1644 C   0  0  0  0  0  0  0  0  0  0  0  0
  146.9540  139.5818  152.4003 O   0  0  0  0  0  0  0  0  0  0  0  0
  148.8840  138.9234  153.4189 N   0  0  0  0  0  0  0  0  0  0  0  0
  149.9770  139.1227  154.2638 C   0  0  0  0  0  0  0  0  0  0  0  0
  150.8132  138.2325  154.4131 O   0  0  0  0  0  0  0  0  0  0  0  0
  151.0641  142.8305  156.9373 N   0  0  0  0  0  0  0  0  0  0  0  0
  150.7807  143.8203  157.9697 C   0  0  0  0  0  0  0  0  0  0  0  0
  152.0662  144.4917  158.4838 C   0  0  0  0  0  0  0  0  0  0  0  0
  152.7549  143.6792  159.5864 C   0  0  0  0  0  0  0  0  0  0  0  0
  152.4069  142.3098  159.4409 O   0  0  0  0  0  0  0  0  0  0  0  0
  153.4463  141.4010  159.7772 C   0  0  0  0  0  0  0  0  0  0  0  0
  153.0401  139.9567  159.4165 C   0  0  0  0  0  0  0  0  0  0  0  0
  154.0932  138.9433  159.8937 C   0  0  0  0  0  0  0  0  0  0  0  0
  154.3583  139.0803  161.4015 C   0  0  0  0  0  0  0  0  0  0  0  0
  154.7590  140.5183  161.7667 C   0  0  0  0  0  0  0  0  0  0  0  0
  153.7022  141.5276  161.2894 C   0  0  0  0  0  0  0  0  0  0  0  0
  148.8175  138.0315  152.9504 H   0  0  0  0  0  0  0  0  0  0  0  0
  151.9992  141.1693  155.2724 H   0  0  0  0  0  0  0  0  0  0  0  0
  151.6412  139.7367  156.1821 H   0  0  0  0  0  0  0  0  0  0  0  0
  149.1724  142.2797  155.1893 H   0  0  0  0  0  0  0  0  0  0  0  0
  147.3040  141.9083  153.7309 H   0  0  0  0  0  0  0  0  0  0  0  0
  151.4886  143.1687  156.0859 H   0  0  0  0  0  0  0  0  0  0  0  0
  150.1147  144.5695  157.5411 H   0  0  0  0  0  0  0  0  0  0  0  0
  150.2351  143.3560  158.7929 H   0  0  0  0  0  0  0  0  0  0  0  0
  152.7649  144.6199  157.6564 H   0  0  0  0  0  0  0  0  0  0  0  0
  151.8427  145.4928  158.8546 H   0  0  0  0  0  0  0  0  0  0  0  0
  153.8341  143.8232  159.5332 H   0  0  0  0  0  0  0  0  0  0  0  0
  152.4272  144.0345  160.5643 H   0  0  0  0  0  0  0  0  0  0  0  0
  154.3644  141.6704  159.2516 H   0  0  0  0  0  0  0  0  0  0  0  0
  152.0779  139.7230  159.8742 H   0  0  0  0  0  0  0  0  0  0  0  0
  152.9019  139.8514  158.3408 H   0  0  0  0  0  0  0  0  0  0  0  0
  153.7630  137.9295  159.6654 H   0  0  0  0  0  0  0  0  0  0  0  0
  155.0223  139.0971  159.3437 H   0  0  0  0  0  0  0  0  0  0  0  0
  153.4625  138.7990  161.9564 H   0  0  0  0  0  0  0  0  0  0  0  0
  155.1420  138.3864  161.7064 H   0  0  0  0  0  0  0  0  0  0  0  0
  154.8945  140.6039  162.8453 H   0  0  0  0  0  0  0  0  0  0  0  0
  155.7223  140.7561  161.3137 H   0  0  0  0  0  0  0  0  0  0  0  0
  154.0258  142.5414  161.5275 H   0  0  0  0  0  0  0  0  0  0  0  0
  152.7717  141.3645  161.8349 H   0  0  0  0  0  0  0  0  0  0  0  0
  1  2  2  0  0  0  0
  2  3  1  0  0  0  0
  2 12  1  0  0  0  0
  3  4  1  0  0  0  0
  3 24  1  0  0  0  0
  3 25  1  0  0  0  0
  4 10  1  0  0  0  0
  4  5  1  0  0  0  0
  5  6  2  0  0  0  0
  5 26  1  0  0  0  0
  6  7  1  0  0  0  0
  6 27  1  0  0  0  0
  7  8  2  0  0  0  0
  7  9  1  0  0  0  0
  9 23  1  0  0  0  0
  9 10  1  0  0  0  0
 10 11  2  0  0  0  0
 12 13  1  0  0  0  0
 12 28  1  0  0  0  0
 13 14  1  0  0  0  0
 13 29  1  0  0  0  0
 13 30  1  0  0  0  0
 14 15  1  0  0  0  0
 14 31  1  0  0  0  0
 14 32  1  0  0  0  0
 15 16  1  0  0  0  0
 15 33  1  0  0  0  0
 15 34  1  0  0  0  0
 16 17  1  0  0  0  0
 17 22  1  0  0  0  0
 17 18  1  0  0  0  0
 17 35  1  0  0  0  0
 18 19  1  0  0  0  0
 18 36  1  0  0  0  0
 18 37  1  0  0  0  0
 19 20  1  0  0  0  0
 19 38  1  0  0  0  0
 19 39  1  0  0  0  0
 20 21  1  0  0  0  0
 20 40  1  0  0  0  0
 20 41  1  0  0  0  0
 21 22  1  0  0  0  0
 21 42  1  0  0  0  0
 21 43  1  0  0  0  0
 22 44  1  0  0  0  0
 22 45  1  0  0  0  0
M  END
> <s_m_source_file>
AV-unprocessed.smi

> <i_m_source_file_index>
2017

> <i_lp_mmshare_version>
43012

> <i_f3d_flags>
0

> <s_epik_input>
Tz1jMVtuSF1jKD1PKVtjSF1bY0hdbjFbQ0gyXUMoPU8pW05IXVtDSDJdW0NIMl1bQ0gyXU9bQ0hdMltDSDJdW0NIMl1bQ0gyXVtDSDJdW0NIMl0y

> <s_epik_cmdline>
J2VwaWtfcHl0aG9uJywgJy1waCcsICc3LjAnLCAnLXRuJywgJzgnLCAnLW1hJywgJzIwMCcsICctbWV0YWxfYmluZGluZycsICctaW1hZScsICc8aW5maWxlLm1hZT4nLCAnLW9tYWUnLCAnPG91dGZpbGUubWFlPic=

> <r_lp_tautomer_probability>
0.999537

> <r_epik_Ionization_Penalty>
0.003299

> <r_epik_Ionization_Penalty_Charging>
0.00329898

> <r_epik_Ionization_Penalty_Neutral>
1.92812e-08

> <r_epik_State_Penalty>
0.00233129

> <r_epik_Charging_Adjusted_Penalty>
0.00563027

> <i_epik_Tot_Q>
0

> <i_epik_Tot_abs_Q>
0

> <r_epik_Metal_State_Penalty>
0.365405

> <b_epik_Metal_Only>
0

> <s_lp_Force_Field>
OPLS_2005

> <r_lp_Energy>
10.1374

> <b_lp_Chiralities_Consistent>
1

> <s_lp_Variant>
AV-unprocessed.smi:2017-1

> <Gold.Version>
5.8.1

> <Gold.Id.Protein>
6NUR|6NUR_protein|mol2

> <Gold.PLP.Fitness>
48.7191

> <Gold.PLP.PLP>
-45.5340

> <Gold.PLP.part.hbond>
-2.4006

> <Gold.PLP.part.metal>
0.0000

> <Gold.PLP.part.buried>
-2.2407

> <Gold.PLP.part.nonpolar>
-42.4585

> <Gold.PLP.part.repulsive>
1.1349

> <Gold.PLP.ligand.clash>
0.0000

> <Gold.PLP.ligand.torsion>
1.2652

> <Gold.PLP.Chemscore.Hbond>
0.8613

> <Gold.PLP.Chemscore.CHOScore>
0.9990

> <Gold.PLP.Chemscore.Metal>
0.0000

> <Gold.Chemscore.Hbonds>
donor molecule, donor type, donor heavy atom, donor atom, acceptor molecule, acceptor atom, score
      L1  H     9    23       P1  7948  0.88
      L1  C     5    26       P1  8028  1.00

> <Gold.PLP.Chemscore.Internal.Correction>
0.1349

> <Gold.Rescore>
     Score         DG    S(hbond)    S(metal)    S(lipo)     H(rot)  DE(clash)    DE(int)     intcor
      9.78     -13.98       0.99        0.00     104.23       2.74       0.07       4.13       ----

> <Gold.Chemscore.Fitness>
9.7807

> <Gold.Chemscore.DG>
-13.9843

> <Gold.Chemscore.ZeroCoef>
-5.4800

> <Gold.Chemscore.Hbond>
0.9936

> <Gold.Chemscore.Metal>
0.0000

> <Gold.Chemscore.Lipo>
104.2333

> <Gold.Chemscore.Internal_Hbond>
0.0000

> <Gold.Chemscore.DEClash>
0.0737

> <Gold.Chemscore.DEInternal>
4.1299

> <Gold.Chemscore.Rot>
2.7382

> <Gold.Chemscore.Internal.Correction>
   9.000000E+99

> <Gold.Chemscore.Hbonds>
donor molecule, donor type, donor heavy atom, donor atom, acceptor molecule, acceptor atom, score
      L1  H     9    23       P1  7948  0.84

> <Gold.Chemscore.Hbond.Weighted>
-3.3188

> <Gold.Chemscore.Metal.Weighted>
-0.0000

> <Gold.Chemscore.Lipo.Weighted>
-12.1953

> <Gold.Chemscore.Internal_Hbond.Weighted>
0.0000

> <Gold.Chemscore.DEClash.Weighted>
0.0737

> <Gold.Chemscore.DEInternal.Weighted>
4.1299

> <Gold.Chemscore.Rot.Weighted>
7.0098

> <Gold.Chemscore.Internal.Correction.Weighted>
   9.000000E+99

> <Gold.Protein.RotatedTorsions>
[ 6907 6896 6895 6894 ] final   24.14 input  -60.11 | X-H torsion
[ 7974 7965 7964 7962 ] final  -57.13 input  175.53 | X-H torsion
[ 8008 7997 7996 7995 ] final   38.22 input   59.86 | X-H torsion
[ 10167 10162 10161 10158 ] final   17.49 input  -65.29 | X-H torsion
[ 10718 10713 10712 10709 ] final  103.88 input   66.30 | X-H torsion
[ 10763 10752 10751 10750 ] final    2.43 input  -60.55 | X-H torsion
[ 11005 11000 10999 10996 ] final  -67.83 input  -57.11 | X-H torsion

> <Gold.Protein.ActiveResidues>
 VAL166  LYS551  ARG553  GLY616  TRP617  ASP618  TYR619  PRO620  LYS621  CYS622 
 ASP623  PHE694  ASN695  SER759  ASP760  ASP761  ALA762  ILE779  LEU786  VAL792 
 PHE793  MET794  SER795  GLU796  ALA797  LYS798  CYS799  TRP800  GLU811  SER814 

> <Gold.Protein.RotatedAtoms>
  151.9529  135.0160  160.0542 H   0  0  0  0  0  0  0  0  0  0  0  0  # atno 6907 bound_to 6896
  152.1937  133.4786  159.5029 H   0  0  0  0  0  0  0  0  0  0  0  0  # atno 6908 bound_to 6896
  150.6940  134.1597  159.4214 H   0  0  0  0  0  0  0  0  0  0  0  0  # atno 6909 bound_to 6896
  145.8547  140.8328  142.9968 H   0  0  0  0  0  0  0  0  0  0  0  0  # atno 7974 bound_to 7965
  155.2166  140.3327  155.4321 H   0  0  0  0  0  0  0  0  0  0  0  0  # atno 8008 bound_to 7997
  156.2350  140.1868  156.7192 H   0  0  0  0  0  0  0  0  0  0  0  0  # atno 8009 bound_to 7997
  154.6043  140.0618  156.9395 H   0  0  0  0  0  0  0  0  0  0  0  0  # atno 8010 bound_to 7997
  140.5722  143.9139  150.6722 H   0  0  0  0  0  0  0  0  0  0  0  0  # atno 10167 bound_to 10162
  157.6758  131.0790  150.5622 H   0  0  0  0  0  0  0  0  0  0  0  0  # atno 10718 bound_to 10713
  153.2957  135.6952  153.7251 H   0  0  0  0  0  0  0  0  0  0  0  0  # atno 10763 bound_to 10752
  153.6185  135.3431  155.3003 H   0  0  0  0  0  0  0  0  0  0  0  0  # atno 10764 bound_to 10752
  154.8536  135.4380  154.2053 H   0  0  0  0  0  0  0  0  0  0  0  0  # atno 10765 bound_to 10752
  141.1517  133.6727  156.6352 H   0  0  0  0  0  0  0  0  0  0  0  0  # atno 11005 bound_to 11000
  144.6728  140.1005  143.7461 LP  0  0  0  0  0  0  0  0  0  0  0  0  # atno 17320 bound_to 7965
  145.9318  139.2611  143.1321 LP  0  0  0  0  0  0  0  0  0  0  0  0  # atno 17321 bound_to 7965
  140.2617  143.3519  152.1316 LP  0  0  0  0  0  0  0  0  0  0  0  0  # atno 17342 bound_to 10162
  139.5124  144.6915  151.5746 LP  0  0  0  0  0  0  0  0  0  0  0  0  # atno 17343 bound_to 10162
  156.5925  130.4333  149.5931 LP  0  0  0  0  0  0  0  0  0  0  0  0  # atno 17370 bound_to 10713
  156.2572  130.6941  151.1698 LP  0  0  0  0  0  0  0  0  0  0  0  0  # atno 17371 bound_to 10713
  140.3436  134.7828  157.4415 LP  0  0  0  0  0  0  0  0  0  0  0  0  # atno 17394 bound_to 11000
  140.0918  134.5591  155.8437 LP  0  0  0  0  0  0  0  0  0  0  0  0  # atno 17395 bound_to 11000

$$$$
