AV-unprocessed.smi:1209|AV-procd|sdf|5076|dock10
  -GOLD-   22720 4123D 1   1.00000     0.00000
 Structure written by MMmdl.
 49 51  0  0  0  0  0  0  0  0  2 V2000
  146.4020  144.3664  160.6598 C   0  0  0  0  0  0  0  0  0  0  0  0
  146.2317  143.7903  159.2961 C   0  0  0  0  0  0  0  0  0  0  0  0
  146.8346  142.7556  158.6390 C   0  0  0  0  0  0  0  0  0  0  0  0
  146.1996  142.7507  157.3665 C   0  0  0  0  0  0  0  0  0  0  0  0
  146.4373  141.8262  156.2040 C   0  0  0  0  0  0  0  0  0  0  0  0
  146.9467  142.5515  155.0117 N   0  3  2  0  0  0  0  0  0  0  0  0
  145.8734  143.2666  154.2763 C   0  0  0  0  0  0  0  0  0  0  0  0
  147.7607  141.6757  154.1293 C   0  0  0  0  0  0  0  0  0  0  0  0
  148.9110  140.9716  154.8835 C   0  0  1  0  0  0  0  0  0  0  0  0
  149.3981  139.9120  154.0853 O   0  0  0  0  0  0  0  0  0  0  0  0
  150.0989  141.9001  155.2043 C   0  0  0  0  0  0  0  0  0  0  0  0
  150.9704  141.3543  156.2283 N   0  0  0  0  0  0  0  0  0  0  0  0
  151.6172  140.1733  156.1966 C   0  0  0  0  0  0  0  0  0  0  0  0
  152.3578  139.8570  157.2547 N   0  0  0  0  0  0  0  0  0  0  0  0
  152.1760  140.9645  158.0653 C   0  0  0  0  0  0  0  0  0  0  0  0
  152.6905  141.2589  159.3468 C   0  0  0  0  0  0  0  0  0  0  0  0
  152.3596  142.4672  160.0009 C   0  0  0  0  0  0  0  0  0  0  0  0
  152.9366  142.7437  161.3782 C   0  0  0  0  0  0  0  0  0  0  0  0
  151.5007  143.4036  159.3717 C   0  0  0  0  0  0  0  0  0  0  0  0
  151.1269  144.7061  160.0566 C   0  0  0  0  0  0  0  0  0  0  0  0
  150.9807  143.1269  158.0906 C   0  0  0  0  0  0  0  0  0  0  0  0
  151.3162  141.9209  157.4506 C   0  0  0  0  0  0  0  0  0  0  0  0
  145.2853  143.7017  157.2702 N   0  0  0  0  0  0  0  0  0  0  0  0
  145.2998  144.3722  158.4983 O   0  0  0  0  0  0  0  0  0  0  0  0
  147.1710  143.8304  161.2166 H   0  0  0  0  0  0  0  0  0  0  0  0
  145.4715  144.3058  161.2245 H   0  0  0  0  0  0  0  0  0  0  0  0
  146.6959  145.4145  160.6024 H   0  0  0  0  0  0  0  0  0  0  0  0
  147.6106  142.1035  159.0114 H   0  0  0  0  0  0  0  0  0  0  0  0
  147.1573  141.0649  156.5078 H   0  0  0  0  0  0  0  0  0  0  0  0
  145.5222  141.2926  155.9430 H   0  0  0  0  0  0  0  0  0  0  0  0
  145.1370  142.5648  153.8823 H   0  0  0  0  0  0  0  0  0  0  0  0
  146.2726  143.8400  153.4412 H   0  0  0  0  0  0  0  0  0  0  0  0
  145.3538  143.9746  154.9218 H   0  0  0  0  0  0  0  0  0  0  0  0
  147.1336  140.9064  153.6765 H   0  0  0  0  0  0  0  0  0  0  0  0
  148.1391  142.2795  153.3040 H   0  0  0  0  0  0  0  0  0  0  0  0
  148.5487  140.5470  155.8191 H   0  0  0  0  0  0  0  0  0  0  0  0
  148.9148  139.1265  154.2933 H   0  0  0  0  0  0  0  0  0  0  0  0
  150.6947  142.0760  154.3075 H   0  0  0  0  0  0  0  0  0  0  0  0
  149.7437  142.8765  155.5367 H   0  0  0  0  0  0  0  0  0  0  0  0
  151.5338  139.5051  155.3517 H   0  0  0  0  0  0  0  0  0  0  0  0
  153.3442  140.5452  159.8263 H   0  0  0  0  0  0  0  0  0  0  0  0
  153.5683  143.6319  161.3546 H   0  0  0  0  0  0  0  0  0  0  0  0
  153.5444  141.9099  161.7310 H   0  0  0  0  0  0  0  0  0  0  0  0
  152.1387  142.9048  162.1033 H   0  0  0  0  0  0  0  0  0  0  0  0
  150.4644  145.3074  159.4333 H   0  0  0  0  0  0  0  0  0  0  0  0
  152.0183  145.2979  160.2655 H   0  0  0  0  0  0  0  0  0  0  0  0
  150.6124  144.5092  160.9972 H   0  0  0  0  0  0  0  0  0  0  0  0
  150.3257  143.8322  157.6011 H   0  0  0  0  0  0  0  0  0  0  0  0
  147.5809  143.2529  155.3681 H   0  0  0  0  0  0  0  0  0  0  0  0
  1  2  1  0  0  0  0
  1 25  1  0  0  0  0
  1 26  1  0  0  0  0
  1 27  1  0  0  0  0
  2 24  1  0  0  0  0
  2  3  2  0  0  0  0
  3  4  1  0  0  0  0
  3 28  1  0  0  0  0
  4  5  1  0  0  0  0
  4 23  2  0  0  0  0
  5  6  1  0  0  0  0
  5 29  1  0  0  0  0
  5 30  1  0  0  0  0
  6  7  1  0  0  0  0
  6  8  1  0  0  0  0
  6 49  1  0  0  0  0
  7 31  1  0  0  0  0
  7 32  1  0  0  0  0
  7 33  1  0  0  0  0
  8  9  1  0  0  0  0
  8 34  1  0  0  0  0
  8 35  1  0  0  0  0
  9 10  1  0  0  0  0
  9 11  1  0  0  0  0
  9 36  1  0  0  0  0
 10 37  1  0  0  0  0
 11 12  1  0  0  0  0
 11 38  1  0  0  0  0
 11 39  1  0  0  0  0
 12 22  1  0  0  0  0
 12 13  1  0  0  0  0
 13 14  2  0  0  0  0
 13 40  1  0  0  0  0
 14 15  1  0  0  0  0
 15 22  2  0  0  0  0
 15 16  1  0  0  0  0
 16 17  2  0  0  0  0
 16 41  1  0  0  0  0
 17 18  1  0  0  0  0
 17 19  1  0  0  0  0
 18 42  1  0  0  0  0
 18 43  1  0  0  0  0
 18 44  1  0  0  0  0
 19 20  1  0  0  0  0
 19 21  2  0  0  0  0
 20 45  1  0  0  0  0
 20 46  1  0  0  0  0
 20 47  1  0  0  0  0
 21 22  1  0  0  0  0
 21 48  1  0  0  0  0
 23 24  1  0  0  0  0
M  CHG  1   6   1
M  END
> <s_m_source_file>
AV-unprocessed.smi

> <i_m_source_file_index>
1209

> <i_lp_mmshare_version>
43012

> <i_f3d_flags>
0

> <s_epik_input>
W0NIM11jMVtjSF1jKG5vMSlbQ0gyXU4oW0NIM10pW0NIMl1bQ0BIXShbT0hdKVtDSDJdbihbY0hdbjIpYyhjMjMpW2NIXWMoW0NIM10pYyhbY0hdMylbQ0gzXQ==

> <s_epik_cmdline>
J2VwaWtfcHl0aG9uJywgJy1waCcsICc3LjAnLCAnLXRuJywgJzgnLCAnLW1hJywgJzIwMCcsICctbWV0YWxfYmluZGluZycsICctaW1hZScsICc8aW5maWxlLm1hZT4nLCAnLW9tYWUnLCAnPG91dGZpbGUubWFlPic=

> <r_epik_Ionization_Penalty>
2.05249

> <r_epik_Ionization_Penalty_Charging>
1.96618

> <r_epik_Ionization_Penalty_Neutral>
0.0863156

> <r_epik_State_Penalty>
2.19215

> <r_epik_Charging_Adjusted_Penalty>
4.15833

> <i_epik_Tot_Q>
1

> <i_epik_Tot_abs_Q>
1

> <r_epik_Metal_State_Penalty>
2.17654

> <b_epik_Metal_Only>
0

> <s_lp_Force_Field>
OPLS_2005

> <r_lp_Energy>
8.03996

> <b_lp_Chiralities_Consistent>
1

> <s_lp_Variant>
AV-unprocessed.smi:1209-8

> <Gold.Version>
5.8.1

> <Gold.Id.Protein>
6NUR|6NUR_protein|mol2

> <Gold.PLP.Fitness>
55.3229

> <Gold.PLP.PLP>
-47.2627

> <Gold.PLP.part.hbond>
-3.0338

> <Gold.PLP.part.metal>
0.0000

> <Gold.PLP.part.buried>
-6.3311

> <Gold.PLP.part.nonpolar>
-37.3867

> <Gold.PLP.part.repulsive>
0.3482

> <Gold.PLP.ligand.clash>
0.0000

> <Gold.PLP.ligand.torsion>
0.5152

> <Gold.PLP.Chemscore.Hbond>
3.0000

> <Gold.PLP.Chemscore.CHOScore>
0.0000

> <Gold.PLP.Chemscore.Metal>
0.0000

> <Gold.Chemscore.Hbonds>
donor molecule, donor type, donor heavy atom, donor atom, acceptor molecule, acceptor atom, score
      L1  H     6    49       P1  8028  2.00
      P1  H  7997  8008       L1    14  0.78

> <Gold.PLP.Chemscore.Internal.Correction>
0.0906

> <Gold.Rescore>
     Score         DG    S(hbond)    S(metal)    S(lipo)     H(rot)  DE(clash)    DE(int)     intcor
     13.99     -15.56       0.98        0.00     113.46       2.53       0.15       1.42       ----

> <Gold.Chemscore.Fitness>
13.9856

> <Gold.Chemscore.DG>
-15.5575

> <Gold.Chemscore.ZeroCoef>
-5.4800

> <Gold.Chemscore.Hbond>
0.9844

> <Gold.Chemscore.Metal>
0.0000

> <Gold.Chemscore.Lipo>
113.4573

> <Gold.Chemscore.Internal_Hbond>
0.0000

> <Gold.Chemscore.DEClash>
0.1517

> <Gold.Chemscore.DEInternal>
1.4201

> <Gold.Chemscore.Rot>
2.5332

> <Gold.Chemscore.Internal.Correction>
   9.000000E+99

> <Gold.Chemscore.Hbonds>
donor molecule, donor type, donor heavy atom, donor atom, acceptor molecule, acceptor atom, score
      L1  H     6    49       P1  8028  0.25
      P1  H  7997  8008       L1    14  0.13

> <Gold.Chemscore.Hbond.Weighted>
-3.2881

> <Gold.Chemscore.Metal.Weighted>
-0.0000

> <Gold.Chemscore.Lipo.Weighted>
-13.2745

> <Gold.Chemscore.Internal_Hbond.Weighted>
0.0000

> <Gold.Chemscore.DEClash.Weighted>
0.1517

> <Gold.Chemscore.DEInternal.Weighted>
1.4201

> <Gold.Chemscore.Rot.Weighted>
6.4851

> <Gold.Chemscore.Internal.Correction.Weighted>
   9.000000E+99

> <Gold.Protein.RotatedTorsions>
[ 6907 6896 6895 6894 ] final   77.88 input  -60.11 | X-H torsion
[ 7974 7965 7964 7962 ] final   14.84 input  175.53 | X-H torsion
[ 8008 7997 7996 7995 ] final  -58.86 input   59.86 | X-H torsion
[ 10167 10162 10161 10158 ] final -179.13 input  -65.29 | X-H torsion
[ 10718 10713 10712 10709 ] final -128.28 input   66.30 | X-H torsion
[ 10763 10752 10751 10750 ] final  119.49 input  -60.55 | X-H torsion
[ 11005 11000 10999 10996 ] final   84.11 input  -57.11 | X-H torsion

> <Gold.Protein.ActiveResidues>
 VAL166  LYS551  ARG553  GLY616  TRP617  ASP618  TYR619  PRO620  LYS621  CYS622 
 ASP623  PHE694  ASN695  SER759  ASP760  ASP761  ALA762  ILE779  LEU786  VAL792 
 PHE793  MET794  SER795  GLU796  ALA797  LYS798  CYS799  TRP800  GLU811  SER814 

> <Gold.Protein.RotatedAtoms>
  152.5136  134.3749  159.9330 H   0  0  0  0  0  0  0  0  0  0  0  0  # atno 6907 bound_to 6896
  151.3704  133.3850  159.2707 H   0  0  0  0  0  0  0  0  0  0  0  0  # atno 6908 bound_to 6896
  150.9582  134.8993  159.7772 H   0  0  0  0  0  0  0  0  0  0  0  0  # atno 6909 bound_to 6896
  146.2294  139.8982  142.8543 H   0  0  0  0  0  0  0  0  0  0  0  0  # atno 7974 bound_to 7965
  154.4327  140.1074  156.6025 H   0  0  0  0  0  0  0  0  0  0  0  0  # atno 8008 bound_to 7997
  155.5896  140.3492  155.4544 H   0  0  0  0  0  0  0  0  0  0  0  0  # atno 8009 bound_to 7997
  156.0256  140.1249  157.0301 H   0  0  0  0  0  0  0  0  0  0  0  0  # atno 8010 bound_to 7997
  139.5400  144.2389  152.0876 H   0  0  0  0  0  0  0  0  0  0  0  0  # atno 10167 bound_to 10162
  156.1936  130.6811  151.0455 H   0  0  0  0  0  0  0  0  0  0  0  0  # atno 10718 bound_to 10713
  153.5838  135.3479  155.2885 H   0  0  0  0  0  0  0  0  0  0  0  0  # atno 10763 bound_to 10752
  154.8663  135.4188  154.2591 H   0  0  0  0  0  0  0  0  0  0  0  0  # atno 10764 bound_to 10752
  153.3383  135.7048  153.6959 H   0  0  0  0  0  0  0  0  0  0  0  0  # atno 10765 bound_to 10752
  139.9010  134.8193  156.2400 H   0  0  0  0  0  0  0  0  0  0  0  0  # atno 11005 bound_to 11000
  145.2350  140.9987  143.3969 LP  0  0  0  0  0  0  0  0  0  0  0  0  # atno 17320 bound_to 7965
  144.9499  139.4094  143.6407 LP  0  0  0  0  0  0  0  0  0  0  0  0  # atno 17321 bound_to 7965
  140.1866  144.4793  150.6501 LP  0  0  0  0  0  0  0  0  0  0  0  0  # atno 17342 bound_to 10162
  140.6626  143.2257  151.5820 LP  0  0  0  0  0  0  0  0  0  0  0  0  # atno 17343 bound_to 10162
  157.6944  131.0799  150.7012 LP  0  0  0  0  0  0  0  0  0  0  0  0  # atno 17370 bound_to 10713
  156.7069  130.4640  149.5558 LP  0  0  0  0  0  0  0  0  0  0  0  0  # atno 17371 bound_to 10713
  141.0291  133.6999  156.1399 LP  0  0  0  0  0  0  0  0  0  0  0  0  # atno 17394 bound_to 11000
  140.7123  134.4448  157.5581 LP  0  0  0  0  0  0  0  0  0  0  0  0  # atno 17395 bound_to 11000

$$$$
