AV-unprocessed.smi:1033|AV-procd|sdf|4498|dock8
  -GOLD-   22720 2493D 1   1.00000     0.00000
 Structure written by MMmdl.
 57 59  0  0  0  0  0  0  0  0  3 V2000
  145.6557  130.1968  151.4146 C   0  0  0  0  0  0  0  0  0  0  0  0
  145.5820  131.6891  151.6903 C   0  0  0  0  0  0  0  0  0  0  0  0
  144.5519  132.4378  151.0779 C   0  0  0  0  0  0  0  0  0  0  0  0
  144.5106  133.8002  151.3489 C   0  0  0  0  0  0  0  0  0  0  0  0
  143.6353  134.7933  150.9051 N   0  3  0  0  0  0  0  0  0  0  0  0
  143.9957  135.9908  151.4435 C   0  0  0  0  0  0  0  0  0  0  0  0
  145.0904  135.7785  152.2240 N   0  0  0  0  0  0  0  0  0  0  0  0
  145.8655  136.7336  153.0302 C   0  0  0  0  0  0  0  0  0  0  0  0
  146.1515  138.0530  152.2862 C   0  0  2  0  0  0  0  0  0  0  0  0
  146.7247  137.7683  151.0249 O   0  0  0  0  0  0  0  0  0  0  0  0
  147.1211  138.9536  153.0782 C   0  0  0  0  0  0  0  0  0  0  0  0
  148.3060  138.2180  153.5896 N   0  3  0  0  0  0  0  0  0  0  0  0
  148.0564  137.5954  154.9154 C   0  0  0  0  0  0  0  0  0  0  0  0
  149.2852  136.7807  155.3684 C   0  0  0  0  0  0  0  0  0  0  0  0
  150.5141  137.5714  155.4247 N   0  0  0  0  0  0  0  0  0  0  0  0
  150.5293  138.5184  156.5461 C   0  0  0  0  0  0  0  0  0  0  0  0
  151.9273  138.9156  157.0599 C   0  0  2  0  0  0  0  0  0  0  0  0
  151.8738  139.8797  158.2538 C   0  0  0  0  0  0  0  0  0  0  0  0
  152.6113  139.5591  156.0058 O   0  0  0  0  0  0  0  0  0  0  0  0
  150.7374  138.1764  154.1090 C   0  0  0  0  0  0  0  0  0  0  0  0
  149.5511  139.0316  153.6186 C   0  0  0  0  0  0  0  0  0  0  0  0
  145.4470  134.4238  152.1969 C   0  0  0  0  0  0  0  0  0  0  0  0
  146.4686  133.6995  152.8082 C   0  0  0  0  0  0  0  0  0  0  0  0
  146.5282  132.3123  152.5443 C   0  0  0  0  0  0  0  0  0  0  0  0
  147.6329  131.4975  153.1954 C   0  0  0  0  0  0  0  0  0  0  0  0
  144.8813  129.8812  150.7149 H   0  0  0  0  0  0  0  0  0  0  0  0
  145.5224  129.6311  152.3370 H   0  0  0  0  0  0  0  0  0  0  0  0
  146.6213  129.9327  150.9825 H   0  0  0  0  0  0  0  0  0  0  0  0
  143.8280  131.9700  150.4264 H   0  0  0  0  0  0  0  0  0  0  0  0
  143.5002  136.9372  151.2810 H   0  0  0  0  0  0  0  0  0  0  0  0
  145.2828  136.9358  153.9297 H   0  0  0  0  0  0  0  0  0  0  0  0
  146.7871  136.2586  153.3674 H   0  0  0  0  0  0  0  0  0  0  0  0
  145.2041  138.5653  152.1216 H   0  0  0  0  0  0  0  0  0  0  0  0
  147.3217  137.0417  151.1232 H   0  0  0  0  0  0  0  0  0  0  0  0
  147.4569  139.7899  152.4631 H   0  0  0  0  0  0  0  0  0  0  0  0
  146.5763  139.3929  153.9157 H   0  0  0  0  0  0  0  0  0  0  0  0
  147.8056  138.3643  155.6475 H   0  0  0  0  0  0  0  0  0  0  0  0
  147.1935  136.9318  154.8494 H   0  0  0  0  0  0  0  0  0  0  0  0
  149.0911  136.3270  156.3411 H   0  0  0  0  0  0  0  0  0  0  0  0
  149.4301  135.9485  154.6780 H   0  0  0  0  0  0  0  0  0  0  0  0
  149.9801  139.4212  156.2800 H   0  0  0  0  0  0  0  0  0  0  0  0
  149.9809  138.0812  157.3819 H   0  0  0  0  0  0  0  0  0  0  0  0
  152.5087  138.0332  157.3247 H   0  0  0  0  0  0  0  0  0  0  0  0
  151.3862  139.4160  159.1118 H   0  0  0  0  0  0  0  0  0  0  0  0
  151.3207  140.7873  158.0087 H   0  0  0  0  0  0  0  0  0  0  0  0
  152.8757  140.1745  158.5675 H   0  0  0  0  0  0  0  0  0  0  0  0
  151.9818  140.0319  155.4826 H   0  0  0  0  0  0  0  0  0  0  0  0
  151.6503  138.7702  154.1095 H   0  0  0  0  0  0  0  0  0  0  0  0
  150.9146  137.3809  153.3838 H   0  0  0  0  0  0  0  0  0  0  0  0
  149.7796  139.4050  152.6214 H   0  0  0  0  0  0  0  0  0  0  0  0
  149.4133  139.9070  154.2544 H   0  0  0  0  0  0  0  0  0  0  0  0
  147.1930  134.1707  153.4557 H   0  0  0  0  0  0  0  0  0  0  0  0
  148.2554  132.1144  153.8442 H   0  0  0  0  0  0  0  0  0  0  0  0
  148.2787  131.0547  152.4368 H   0  0  0  0  0  0  0  0  0  0  0  0
  147.2116  130.6961  153.8031 H   0  0  0  0  0  0  0  0  0  0  0  0
  148.4669  137.4539  152.9485 H   0  0  0  0  0  0  0  0  0  0  0  0
  142.8475  134.6652  150.2827 H   0  0  0  0  0  0  0  0  0  0  0  0
  1  2  1  0  0  0  0
  1 26  1  0  0  0  0
  1 27  1  0  0  0  0
  1 28  1  0  0  0  0
  2 24  1  0  0  0  0
  2  3  2  0  0  0  0
  3  4  1  0  0  0  0
  3 29  1  0  0  0  0
  4 22  2  0  0  0  0
  4  5  1  0  0  0  0
  5  6  2  0  0  0  0
  5 57  1  0  0  0  0
  6  7  1  0  0  0  0
  6 30  1  0  0  0  0
  7  8  1  0  0  0  0
  7 22  1  0  0  0  0
  8  9  1  0  0  0  0
  8 31  1  0  0  0  0
  8 32  1  0  0  0  0
  9 10  1  0  0  0  0
  9 11  1  0  0  0  0
  9 33  1  0  0  0  0
 10 34  1  0  0  0  0
 11 12  1  0  0  0  0
 11 35  1  0  0  0  0
 11 36  1  0  0  0  0
 12 21  1  0  0  0  0
 12 13  1  0  0  0  0
 12 56  1  0  0  0  0
 13 14  1  0  0  0  0
 13 37  1  0  0  0  0
 13 38  1  0  0  0  0
 14 15  1  0  0  0  0
 14 39  1  0  0  0  0
 14 40  1  0  0  0  0
 15 16  1  0  0  0  0
 15 20  1  0  0  0  0
 16 17  1  0  0  0  0
 16 41  1  0  0  0  0
 16 42  1  0  0  0  0
 17 18  1  0  0  0  0
 17 19  1  0  0  0  0
 17 43  1  0  0  0  0
 18 44  1  0  0  0  0
 18 45  1  0  0  0  0
 18 46  1  0  0  0  0
 19 47  1  0  0  0  0
 20 21  1  0  0  0  0
 20 48  1  0  0  0  0
 20 49  1  0  0  0  0
 21 50  1  0  0  0  0
 21 51  1  0  0  0  0
 22 23  1  0  0  0  0
 23 24  2  0  0  0  0
 23 52  1  0  0  0  0
 24 25  1  0  0  0  0
 25 53  1  0  0  0  0
 25 54  1  0  0  0  0
 25 55  1  0  0  0  0
M  CHG  1   5   1
M  CHG  1  12   1
M  END
> <s_m_source_file>
AV-unprocessed.smi

> <i_m_source_file_index>
1033

> <i_lp_mmshare_version>
43012

> <i_f3d_flags>
0

> <s_epik_input>
W0NIM11jKFtjSF0xKWMoW0NIM10pW2NIXWMoYzEyKW4oW2NIXW4yKVtDSDJdW0NASF0oW09IXSlbQ0gyXU4zW0NIMl1bQ0gyXU4oW0NIMl1bQ0gyXTMpW0NIMl1bQ0BIXShbQ0gzXSlbT0hd

> <s_epik_cmdline>
J2VwaWtfcHl0aG9uJywgJy1waCcsICc3LjAnLCAnLXRuJywgJzgnLCAnLW1hJywgJzIwMCcsICctbWV0YWxfYmluZGluZycsICctaW1hZScsICc8aW5maWxlLm1hZT4nLCAnLW9tYWUnLCAnPG91dGZpbGUubWFlPic=

> <r_epik_Ionization_Penalty>
1.22049

> <r_epik_Ionization_Penalty_Charging>
1.17952

> <r_epik_Ionization_Penalty_Neutral>
0.0409743

> <r_epik_State_Penalty>
1.61468

> <r_epik_Charging_Adjusted_Penalty>
2.7942

> <i_epik_Tot_Q>
2

> <i_epik_Tot_abs_Q>
2

> <r_epik_Metal_State_Penalty>
5.63169

> <b_epik_Metal_Only>
0

> <s_lp_Force_Field>
OPLS_2005

> <r_lp_Energy>
42.2447

> <b_lp_Chiralities_Consistent>
1

> <s_lp_Variant>
AV-unprocessed.smi:1033-9

> <Gold.Version>
5.8.1

> <Gold.Id.Protein>
6NUR|6NUR_protein|mol2

> <Gold.PLP.Fitness>
57.5659

> <Gold.PLP.PLP>
-38.4290

> <Gold.PLP.part.hbond>
-5.5770

> <Gold.PLP.part.metal>
0.0000

> <Gold.PLP.part.buried>
-3.4048

> <Gold.PLP.part.nonpolar>
-31.0088

> <Gold.PLP.part.repulsive>
0.1114

> <Gold.PLP.ligand.clash>
0.0000

> <Gold.PLP.ligand.torsion>
0.9728

> <Gold.PLP.Chemscore.Hbond>
5.9825

> <Gold.PLP.Chemscore.CHOScore>
1.0000

> <Gold.PLP.Chemscore.Metal>
0.0000

> <Gold.Chemscore.Hbonds>
donor molecule, donor type, donor heavy atom, donor atom, acceptor molecule, acceptor atom, score
      L1  H     5    57       P1 10186  2.00
      L1  H    10    34       P1  7948  1.00
      L1  H    12    56       P1  7948  2.00
      P1  H  7997  8009       L1    19  1.00
      L1  C     6    30       P1 10171  1.00

> <Gold.PLP.Chemscore.Internal.Correction>
0.1351

> <Gold.Rescore>
     Score         DG    S(hbond)    S(metal)    S(lipo)     H(rot)  DE(clash)    DE(int)     intcor
     19.72     -22.41       3.81        0.00     104.73       3.15       1.50       1.19       ----

> <Gold.Chemscore.Fitness>
19.7227

> <Gold.Chemscore.DG>
-22.4074

> <Gold.Chemscore.ZeroCoef>
-5.4800

> <Gold.Chemscore.Hbond>
3.8123

> <Gold.Chemscore.Metal>
0.0000

> <Gold.Chemscore.Lipo>
104.7344

> <Gold.Chemscore.Internal_Hbond>
0.0000

> <Gold.Chemscore.DEClash>
1.4950

> <Gold.Chemscore.DEInternal>
1.1897

> <Gold.Chemscore.Rot>
3.1483

> <Gold.Chemscore.Internal.Correction>
   9.000000E+99

> <Gold.Chemscore.Hbonds>
donor molecule, donor type, donor heavy atom, donor atom, acceptor molecule, acceptor atom, score
      L1  H     5    57       P1 10186  0.49
      L1  H    10    34       P1  7948  0.96
      L1  H    12    56       P1  7948  1.00
      P1  H  7997  8009       L1    19  0.90

> <Gold.Chemscore.Hbond.Weighted>
-12.7331

> <Gold.Chemscore.Metal.Weighted>
-0.0000

> <Gold.Chemscore.Lipo.Weighted>
-12.2539

> <Gold.Chemscore.Internal_Hbond.Weighted>
0.0000

> <Gold.Chemscore.DEClash.Weighted>
1.4950

> <Gold.Chemscore.DEInternal.Weighted>
1.1897

> <Gold.Chemscore.Rot.Weighted>
8.0597

> <Gold.Chemscore.Internal.Correction.Weighted>
   9.000000E+99

> <Gold.Protein.RotatedTorsions>
[ 6907 6896 6895 6894 ] final  -34.26 input  -60.11 | X-H torsion
[ 7974 7965 7964 7962 ] final   36.38 input  175.53 | X-H torsion
[ 8008 7997 7996 7995 ] final -138.58 input   59.86 | X-H torsion
[ 10167 10162 10161 10158 ] final  -76.15 input  -65.29 | X-H torsion
[ 10718 10713 10712 10709 ] final   48.26 input   66.30 | X-H torsion
[ 10763 10752 10751 10750 ] final  -61.78 input  -60.55 | X-H torsion
[ 11005 11000 10999 10996 ] final  -11.99 input  -57.11 | X-H torsion

> <Gold.Protein.ActiveResidues>
 VAL166  LYS551  ARG553  GLY616  TRP617  ASP618  TYR619  PRO620  LYS621  CYS622 
 ASP623  PHE694  ASN695  SER759  ASP760  ASP761  ALA762  ILE779  LEU786  VAL792 
 PHE793  MET794  SER795  GLU796  ALA797  LYS798  CYS799  TRP800  GLU811  SER814 

> <Gold.Protein.RotatedAtoms>
  151.0549  134.9698  159.8230 H   0  0  0  0  0  0  0  0  0  0  0  0  # atno 6907 bound_to 6896
  152.5386  134.2491  159.8901 H   0  0  0  0  0  0  0  0  0  0  0  0  # atno 6908 bound_to 6896
  151.2508  133.4308  159.2645 H   0  0  0  0  0  0  0  0  0  0  0  0  # atno 6909 bound_to 6896
  146.1215  139.6024  142.9286 H   0  0  0  0  0  0  0  0  0  0  0  0  # atno 7974 bound_to 7965
  155.4307  140.0525  157.3019 H   0  0  0  0  0  0  0  0  0  0  0  0  # atno 8008 bound_to 7997
  154.4861  140.2101  155.9610 H   0  0  0  0  0  0  0  0  0  0  0  0  # atno 8009 bound_to 7997
  156.1277  140.3177  155.8306 H   0  0  0  0  0  0  0  0  0  0  0  0  # atno 8010 bound_to 7997
  140.4881  143.2386  151.7950 H   0  0  0  0  0  0  0  0  0  0  0  0  # atno 10167 bound_to 10162
  157.4668  130.8230  149.7945 H   0  0  0  0  0  0  0  0  0  0  0  0  # atno 10718 bound_to 10713
  154.2899  135.6255  153.5381 H   0  0  0  0  0  0  0  0  0  0  0  0  # atno 10763 bound_to 10752
  152.9854  135.5653  154.5402 H   0  0  0  0  0  0  0  0  0  0  0  0  # atno 10764 bound_to 10752
  154.5010  135.2872  155.1396 H   0  0  0  0  0  0  0  0  0  0  0  0  # atno 10765 bound_to 10752
  140.7611  133.8514  155.9125 H   0  0  0  0  0  0  0  0  0  0  0  0  # atno 11005 bound_to 11000
  145.5456  141.0417  143.2307 LP  0  0  0  0  0  0  0  0  0  0  0  0  # atno 17320 bound_to 7965
  144.7602  139.6976  143.7237 LP  0  0  0  0  0  0  0  0  0  0  0  0  # atno 17321 bound_to 7965
  139.4846  144.4685  151.9455 LP  0  0  0  0  0  0  0  0  0  0  0  0  # atno 17342 bound_to 10162
  140.3771  144.2783  150.5913 LP  0  0  0  0  0  0  0  0  0  0  0  0  # atno 17343 bound_to 10162
  156.0054  130.3858  150.2450 LP  0  0  0  0  0  0  0  0  0  0  0  0  # atno 17370 bound_to 10713
  157.0631  131.0095  151.3216 LP  0  0  0  0  0  0  0  0  0  0  0  0  # atno 17371 bound_to 10713
  140.9662  134.1591  157.4614 LP  0  0  0  0  0  0  0  0  0  0  0  0  # atno 17394 bound_to 11000
  139.8771  134.9962  156.5785 LP  0  0  0  0  0  0  0  0  0  0  0  0  # atno 17395 bound_to 11000

$$$$
