AV-unprocessed.smi:91|AV-procd|sdf|835|dock1
  -GOLD-   2262017263D 1   1.00000     0.00000
 Structure written by MMmdl.
 60 63  0  0  0  0  0  0  0  0  1 V2000
  147.2848  132.7534  152.7945 C   0  0  0  0  0  0  0  0  0  0  0  0
  147.1632  131.7881  153.8242 O   0  0  0  0  0  0  0  0  0  0  0  0
  148.4150  131.2399  154.2066 C   0  0  0  0  0  0  0  0  0  0  0  0
  148.9825  132.0083  155.4082 C   0  0  2  0  0  0  0  0  0  0  0  0
  149.5347  133.3930  155.0269 C   0  0  0  0  0  0  0  0  0  0  0  0
  150.1547  134.0199  156.1873 N   0  0  0  0  0  0  0  0  0  0  0  0
  150.4016  135.3477  156.0523 C   0  0  0  0  0  0  0  0  0  0  0  0
  150.8453  135.8407  154.8644 N   0  0  0  0  0  0  0  0  0  0  0  0
  151.0777  137.1486  154.7188 C   0  0  0  0  0  0  0  0  0  0  0  0
  150.9372  138.1258  155.6161 N   0  0  0  0  0  0  0  0  0  0  0  0
  150.5028  137.6371  156.8125 C   0  0  0  0  0  0  0  0  0  0  0  0
  150.2150  136.2763  157.1155 C   0  0  0  0  0  0  0  0  0  0  0  0
  149.8106  136.1638  158.4412 N   0  0  0  0  0  0  0  0  0  0  0  0
  149.8481  137.3880  158.8923 C   0  0  0  0  0  0  0  0  0  0  0  0
  150.2457  138.3363  157.9776 N   0  0  0  0  0  0  0  0  0  0  0  0
  150.3722  139.7653  158.2004 C   0  0  0  0  0  0  0  0  0  0  0  0
  151.4647  140.1241  159.2380 C   0  0  1  0  0  0  0  0  0  0  0  0
  152.8072  139.4037  158.9637 C   0  0  0  0  0  0  0  0  0  0  0  0
  153.0001  139.1776  157.5822 O   0  0  0  0  0  0  0  0  0  0  0  0
  151.6325  141.6582  159.3766 C   0  0  2  0  0  0  0  0  0  0  0  0
  151.8083  142.4062  158.0667 C   0  0  0  0  0  0  0  0  0  0  0  0
  152.4055  143.7309  158.5284 C   0  0  0  0  0  0  0  0  0  0  0  0
  153.1805  143.4229  159.6815 O   0  0  0  0  0  0  0  0  0  0  0  0
  152.9027  142.0950  160.1144 C   0  0  0  0  0  0  0  0  0  0  0  0
  151.1909  133.1866  156.7922 C   0  0  0  0  0  0  0  0  0  0  0  0
  150.6420  131.7892  157.1586 C   0  0  0  0  0  0  0  0  0  0  0  0
  151.8093  130.8472  157.4915 C   0  0  0  0  0  0  0  0  0  0  0  0
  149.6777  131.8455  158.3627 C   0  0  0  0  0  0  0  0  0  0  0  0
  150.0023  131.2133  156.0142 O   0  0  0  0  0  0  0  0  0  0  0  0
  146.2995  133.1433  152.5396 H   0  0  0  0  0  0  0  0  0  0  0  0
  147.7169  132.3164  151.8933 H   0  0  0  0  0  0  0  0  0  0  0  0
  147.9071  133.5915  153.1107 H   0  0  0  0  0  0  0  0  0  0  0  0
  148.2871  130.1890  154.4718 H   0  0  0  0  0  0  0  0  0  0  0  0
  149.1175  131.2812  153.3728 H   0  0  0  0  0  0  0  0  0  0  0  0
  148.1670  132.1364  156.1198 H   0  0  0  0  0  0  0  0  0  0  0  0
  150.2867  133.2998  154.2423 H   0  0  0  0  0  0  0  0  0  0  0  0
  148.7299  134.0050  154.6209 H   0  0  0  0  0  0  0  0  0  0  0  0
  151.4247  137.4559  153.7432 H   0  0  0  0  0  0  0  0  0  0  0  0
  149.5779  137.6363  159.9086 H   0  0  0  0  0  0  0  0  0  0  0  0
  150.5834  140.2472  157.2450 H   0  0  0  0  0  0  0  0  0  0  0  0
  149.3987  140.1357  158.5220 H   0  0  0  0  0  0  0  0  0  0  0  0
  151.1154  139.7541  160.2033 H   0  0  0  0  0  0  0  0  0  0  0  0
  153.6463  139.9861  159.3432 H   0  0  0  0  0  0  0  0  0  0  0  0
  152.8510  138.4474  159.4846 H   0  0  0  0  0  0  0  0  0  0  0  0
  152.2433  138.7239  157.2439 H   0  0  0  0  0  0  0  0  0  0  0  0
  150.7697  142.0751  159.8988 H   0  0  0  0  0  0  0  0  0  0  0  0
  152.5141  141.8831  157.4198 H   0  0  0  0  0  0  0  0  0  0  0  0
  150.8761  142.5417  157.5176 H   0  0  0  0  0  0  0  0  0  0  0  0
  153.0089  144.2076  157.7557 H   0  0  0  0  0  0  0  0  0  0  0  0
  151.6146  144.4242  158.8170 H   0  0  0  0  0  0  0  0  0  0  0  0
  152.7919  142.0528  161.1982 H   0  0  0  0  0  0  0  0  0  0  0  0
  153.7482  141.4630  159.8379 H   0  0  0  0  0  0  0  0  0  0  0  0
  152.0133  133.0869  156.0820 H   0  0  0  0  0  0  0  0  0  0  0  0
  151.5939  133.6703  157.6834 H   0  0  0  0  0  0  0  0  0  0  0  0
  152.3828  131.2115  158.3446 H   0  0  0  0  0  0  0  0  0  0  0  0
  152.4945  130.7548  156.6481 H   0  0  0  0  0  0  0  0  0  0  0  0
  151.4525  129.8459  157.7344 H   0  0  0  0  0  0  0  0  0  0  0  0
  150.1987  132.1690  159.2641 H   0  0  0  0  0  0  0  0  0  0  0  0
  149.2464  130.8650  158.5664 H   0  0  0  0  0  0  0  0  0  0  0  0
  148.8552  132.5429  158.2071 H   0  0  0  0  0  0  0  0  0  0  0  0
  1  2  1  0  0  0  0
  1 30  1  0  0  0  0
  1 31  1  0  0  0  0
  1 32  1  0  0  0  0
  2  3  1  0  0  0  0
  3  4  1  0  0  0  0
  3 33  1  0  0  0  0
  3 34  1  0  0  0  0
  4 29  1  0  0  0  0
  4  5  1  0  0  0  0
  4 35  1  0  0  0  0
  5  6  1  0  0  0  0
  5 36  1  0  0  0  0
  5 37  1  0  0  0  0
  6  7  1  0  0  0  0
  6 25  1  0  0  0  0
  7 12  1  0  0  0  0
  7  8  2  0  0  0  0
  8  9  1  0  0  0  0
  9 10  2  0  0  0  0
  9 38  1  0  0  0  0
 10 11  1  0  0  0  0
 11 15  1  0  0  0  0
 11 12  2  0  0  0  0
 12 13  1  0  0  0  0
 13 14  2  0  0  0  0
 14 15  1  0  0  0  0
 14 39  1  0  0  0  0
 15 16  1  0  0  0  0
 16 17  1  0  0  0  0
 16 40  1  0  0  0  0
 16 41  1  0  0  0  0
 17 18  1  0  0  0  0
 17 20  1  0  0  0  0
 17 42  1  0  0  0  0
 18 19  1  0  0  0  0
 18 43  1  0  0  0  0
 18 44  1  0  0  0  0
 19 45  1  0  0  0  0
 20 24  1  0  0  0  0
 20 21  1  0  0  0  0
 20 46  1  0  0  0  0
 21 22  1  0  0  0  0
 21 47  1  0  0  0  0
 21 48  1  0  0  0  0
 22 23  1  0  0  0  0
 22 49  1  0  0  0  0
 22 50  1  0  0  0  0
 23 24  1  0  0  0  0
 24 51  1  0  0  0  0
 24 52  1  0  0  0  0
 25 26  1  0  0  0  0
 25 53  1  0  0  0  0
 25 54  1  0  0  0  0
 26 27  1  0  0  0  0
 26 28  1  0  0  0  0
 26 29  1  0  0  0  0
 27 55  1  0  0  0  0
 27 56  1  0  0  0  0
 27 57  1  0  0  0  0
 28 58  1  0  0  0  0
 28 59  1  0  0  0  0
 28 60  1  0  0  0  0
M  END
> <s_m_source_file>
AV-unprocessed.smi

> <i_m_source_file_index>
91

> <i_lp_mmshare_version>
43012

> <i_f3d_flags>
0

> <s_epik_input>
W0NIM11PW0NIMl1bQ0BASF0oTzEpW0NIMl1OKFtDSDJdQzEoW0NIM10pW0NIM10pYyhuW2NIXW4yKWMoYzIzKW5bY0hdbjNbQ0gyXVtDQEhdKFtDSDJdW09IXSlbQ0BASF00W0NIMl1bQ0gyXU9bQ0gyXTQ=

> <s_epik_cmdline>
J2VwaWtfcHl0aG9uJywgJy1waCcsICc3LjAnLCAnLXRuJywgJzgnLCAnLW1hJywgJzIwMCcsICctbWV0YWxfYmluZGluZycsICctaW1hZScsICc8aW5maWxlLm1hZT4nLCAnLW9tYWUnLCAnPG91dGZpbGUubWFlPic=

> <r_lp_tautomer_probability>
1

> <r_epik_Ionization_Penalty>
8.63591e-05

> <r_epik_Ionization_Penalty_Charging>
0

> <r_epik_Ionization_Penalty_Neutral>
8.63591e-05

> <r_epik_State_Penalty>
-0

> <r_epik_Charging_Adjusted_Penalty>
0

> <i_epik_Tot_Q>
0

> <i_epik_Tot_abs_Q>
0

> <r_epik_Metal_State_Penalty>
-0

> <b_epik_Metal_Only>
0

> <s_lp_Force_Field>
OPLS_2005

> <r_lp_Energy>
46.4326

> <b_lp_Chiralities_Consistent>
1

> <s_lp_Variant>
AV-unprocessed.smi:91-3

> <Gold.Version>
5.8.1

> <Gold.Id.Protein>
6NUR|6NUR_protein|mol2

> <Gold.PLP.Fitness>
48.2524

> <Gold.PLP.PLP>
-41.1713

> <Gold.PLP.part.hbond>
-3.0000

> <Gold.PLP.part.metal>
0.0000

> <Gold.PLP.part.buried>
-7.1901

> <Gold.PLP.part.nonpolar>
-32.4251

> <Gold.PLP.part.repulsive>
0.5862

> <Gold.PLP.ligand.clash>
0.0000

> <Gold.PLP.ligand.torsion>
1.6978

> <Gold.PLP.Chemscore.Hbond>
2.6382

> <Gold.PLP.Chemscore.CHOScore>
0.5626

> <Gold.PLP.Chemscore.Metal>
0.0000

> <Gold.Chemscore.Hbonds>
donor molecule, donor type, donor heavy atom, donor atom, acceptor molecule, acceptor atom, score
      P1  H  6896  6907       L1    13  0.88
      P1  H  7997  8010       L1    19  1.00
      P1  H 10752 10765       L1     8  0.18
      L1  C     9    38       P1  7949  0.52

> <Gold.PLP.Chemscore.Internal.Correction>
0.8745

> <Gold.Rescore>
     Score         DG    S(hbond)    S(metal)    S(lipo)     H(rot)  DE(clash)    DE(int)     intcor
     12.94     -15.67       1.90        0.00      99.20       3.03       0.12       2.61       ----

> <Gold.Chemscore.Fitness>
12.9436

> <Gold.Chemscore.DG>
-15.6741

> <Gold.Chemscore.ZeroCoef>
-5.4800

> <Gold.Chemscore.Hbond>
1.8983

> <Gold.Chemscore.Metal>
0.0000

> <Gold.Chemscore.Lipo>
99.2026

> <Gold.Chemscore.Internal_Hbond>
0.0000

> <Gold.Chemscore.DEClash>
0.1200

> <Gold.Chemscore.DEInternal>
2.6105

> <Gold.Chemscore.Rot>
3.0284

> <Gold.Chemscore.Internal.Correction>
   9.000000E+99

> <Gold.Chemscore.Hbonds>
donor molecule, donor type, donor heavy atom, donor atom, acceptor molecule, acceptor atom, score
      P1  H  6896  6907       L1    13  0.75
      P1  H  7997  8010       L1    19  0.85

> <Gold.Chemscore.Hbond.Weighted>
-6.3402

> <Gold.Chemscore.Metal.Weighted>
-0.0000

> <Gold.Chemscore.Lipo.Weighted>
-11.6067

> <Gold.Chemscore.Internal_Hbond.Weighted>
0.0000

> <Gold.Chemscore.DEClash.Weighted>
0.1200

> <Gold.Chemscore.DEInternal.Weighted>
2.6105

> <Gold.Chemscore.Rot.Weighted>
7.7528

> <Gold.Chemscore.Internal.Correction.Weighted>
   9.000000E+99

> <Gold.Protein.RotatedTorsions>
[ 6907 6896 6895 6894 ] final  -63.56 input  -60.11 | X-H torsion
[ 7974 7965 7964 7962 ] final  179.93 input  175.53 | X-H torsion
[ 8008 7997 7996 7995 ] final   42.61 input   59.86 | X-H torsion
[ 10167 10162 10161 10158 ] final  -56.21 input  -65.29 | X-H torsion
[ 10718 10713 10712 10709 ] final   77.52 input   66.30 | X-H torsion
[ 10763 10752 10751 10750 ] final  167.35 input  -60.55 | X-H torsion
[ 11005 11000 10999 10996 ] final   20.04 input  -57.11 | X-H torsion

> <Gold.Protein.ActiveResidues>
 VAL166  LYS551  ARG553  GLY616  TRP617  ASP618  TYR619  PRO620  LYS621  CYS622 
 ASP623  PHE694  ASN695  SER759  ASP760  ASP761  ALA762  ILE779  LEU786  VAL792 
 PHE793  MET794  SER795  GLU796  ALA797  LYS798  CYS799  TRP800  GLU811  SER814 

> <Gold.Protein.RotatedAtoms>
  150.7641  134.6419  159.6241 H   0  0  0  0  0  0  0  0  0  0  0  0  # atno 6907 bound_to 6896
  152.3664  134.6794  160.0199 H   0  0  0  0  0  0  0  0  0  0  0  0  # atno 6908 bound_to 6896
  151.7168  133.3277  159.3341 H   0  0  0  0  0  0  0  0  0  0  0  0  # atno 6909 bound_to 6896
  144.7141  140.0622  143.6432 H   0  0  0  0  0  0  0  0  0  0  0  0  # atno 7974 bound_to 7965
  155.2890  140.3377  155.4253 H   0  0  0  0  0  0  0  0  0  0  0  0  # atno 8008 bound_to 7997
  156.2055  140.1749  156.7850 H   0  0  0  0  0  0  0  0  0  0  0  0  # atno 8009 bound_to 7997
  154.5614  140.0686  156.8810 H   0  0  0  0  0  0  0  0  0  0  0  0  # atno 8010 bound_to 7997
  140.6330  143.2468  151.5191 H   0  0  0  0  0  0  0  0  0  0  0  0  # atno 10167 bound_to 10162
  157.6713  130.9825  150.1653 H   0  0  0  0  0  0  0  0  0  0  0  0  # atno 10718 bound_to 10713
  154.3525  135.2753  155.2364 H   0  0  0  0  0  0  0  0  0  0  0  0  # atno 10763 bound_to 10752
  154.4587  135.5912  153.6244 H   0  0  0  0  0  0  0  0  0  0  0  0  # atno 10764 bound_to 10752
  152.9849  135.6059  154.3737 H   0  0  0  0  0  0  0  0  0  0  0  0  # atno 10765 bound_to 10752
  140.4070  134.1658  155.7665 H   0  0  0  0  0  0  0  0  0  0  0  0  # atno 11005 bound_to 11000
  145.9855  139.2974  143.1016 LP  0  0  0  0  0  0  0  0  0  0  0  0  # atno 17320 bound_to 7965
  145.8963  140.9272  143.0526 LP  0  0  0  0  0  0  0  0  0  0  0  0  # atno 17321 bound_to 7965
  139.5542  144.2317  152.1584 LP  0  0  0  0  0  0  0  0  0  0  0  0  # atno 17342 bound_to 10162
  140.1566  144.5065  150.6657 LP  0  0  0  0  0  0  0  0  0  0  0  0  # atno 17343 bound_to 10162
  156.2420  130.3692  149.8327 LP  0  0  0  0  0  0  0  0  0  0  0  0  # atno 17370 bound_to 10713
  156.6124  130.8592  151.3457 LP  0  0  0  0  0  0  0  0  0  0  0  0  # atno 17371 bound_to 10713
  141.1835  133.8362  157.1171 LP  0  0  0  0  0  0  0  0  0  0  0  0  # atno 17394 bound_to 11000
  140.0295  134.9908  157.0752 LP  0  0  0  0  0  0  0  0  0  0  0  0  # atno 17395 bound_to 11000

$$$$
