AV-unprocessed.smi:3095|AV-procd|sdf|11792|dock8
  -GOLD-   2272017173D 1   1.00000     0.00000
 Structure written by MMmdl.
 25 26  0  0  0  0  0  0  0  0  2 V2000
  153.0593  143.9798  163.2306 C   0  0  0  0  0  0  0  0  0  0  0  0
  153.2543  142.9901  162.1252 C   0  0  0  0  0  0  0  0  0  0  0  0
  153.9776  141.8252  162.1795 C   0  0  0  0  0  0  0  0  0  0  0  0
  153.9450  140.9693  160.6628 S   0  0  0  0  0  0  0  0  0  0  0  0
  152.9179  142.2369  160.0023 C   0  0  0  0  0  0  0  0  0  0  0  0
  152.4390  142.2349  158.5855 C   0  0  2  0  0  0  0  0  0  0  0  0
  151.4561  143.3844  158.2935 C   0  0  0  0  0  0  0  0  0  0  0  0
  150.9594  143.2809  156.9075 N   0  3  0  0  0  0  0  0  0  0  0  0
  150.3672  141.9548  156.6415 C   0  0  0  0  0  0  0  0  0  0  0  0
  151.3714  140.8436  156.9964 C   0  0  0  0  0  0  0  0  0  0  0  0
  151.7913  140.9866  158.3495 O   0  0  0  0  0  0  0  0  0  0  0  0
  152.6666  143.2164  160.8772 N   0  0  0  0  0  0  0  0  0  0  0  0
  153.6030  143.6865  164.1291 H   0  0  0  0  0  0  0  0  0  0  0  0
  152.0064  144.0690  163.4983 H   0  0  0  0  0  0  0  0  0  0  0  0
  153.4127  144.9697  162.9411 H   0  0  0  0  0  0  0  0  0  0  0  0
  154.5281  141.4215  163.0168 H   0  0  0  0  0  0  0  0  0  0  0  0
  153.3120  142.3146  157.9353 H   0  0  0  0  0  0  0  0  0  0  0  0
  150.6089  143.3470  158.9801 H   0  0  0  0  0  0  0  0  0  0  0  0
  151.9406  144.3514  158.4311 H   0  0  0  0  0  0  0  0  0  0  0  0
  150.2671  143.9980  156.7431 H   0  0  0  0  0  0  0  0  0  0  0  0
  149.4576  141.8432  157.2331 H   0  0  0  0  0  0  0  0  0  0  0  0
  150.0790  141.8913  155.5919 H   0  0  0  0  0  0  0  0  0  0  0  0
  150.9082  139.8647  156.8715 H   0  0  0  0  0  0  0  0  0  0  0  0
  152.2365  140.8738  156.3319 H   0  0  0  0  0  0  0  0  0  0  0  0
  151.7348  143.4210  156.2754 H   0  0  0  0  0  0  0  0  0  0  0  0
  1  2  1  0  0  0  0
  1 13  1  0  0  0  0
  1 14  1  0  0  0  0
  1 15  1  0  0  0  0
  2 12  1  0  0  0  0
  2  3  2  0  0  0  0
  3  4  1  0  0  0  0
  3 16  1  0  0  0  0
  4  5  1  0  0  0  0
  5  6  1  0  0  0  0
  5 12  2  0  0  0  0
  6 11  1  0  0  0  0
  6  7  1  0  0  0  0
  6 17  1  0  0  0  0
  7  8  1  0  0  0  0
  7 18  1  0  0  0  0
  7 19  1  0  0  0  0
  8  9  1  0  0  0  0
  8 20  1  0  0  0  0
  8 25  1  0  0  0  0
  9 10  1  0  0  0  0
  9 21  1  0  0  0  0
  9 22  1  0  0  0  0
 10 11  1  0  0  0  0
 10 23  1  0  0  0  0
 10 24  1  0  0  0  0
M  CHG  1   8   1
M  END
> <s_m_source_file>
AV-unprocessed.smi

> <i_m_source_file_index>
3095

> <i_lp_mmshare_version>
43012

> <i_f3d_flags>
0

> <s_epik_input>
W0NIM11jMVtjSF1zYyhuMSlbQ0BASF0yW0NIMl1bTkhdW0NIMl1bQ0gyXU8y

> <s_epik_cmdline>
J2VwaWtfcHl0aG9uJywgJy1waCcsICc3LjAnLCAnLXRuJywgJzgnLCAnLW1hJywgJzIwMCcsICctbWV0YWxfYmluZGluZycsICctaW1hZScsICc8aW5maWxlLm1hZT4nLCAnLW9tYWUnLCAnPG91dGZpbGUubWFlPic=

> <r_epik_Ionization_Penalty>
0.125709

> <r_epik_Ionization_Penalty_Charging>
0.125708

> <r_epik_Ionization_Penalty_Neutral>
7.00244e-07

> <r_epik_State_Penalty>
0.0155371

> <r_epik_Charging_Adjusted_Penalty>
0.141245

> <i_epik_Tot_Q>
1

> <i_epik_Tot_abs_Q>
1

> <r_epik_Metal_State_Penalty>
0.0155948

> <b_epik_Metal_Only>
0

> <s_lp_Force_Field>
OPLS_2005

> <r_lp_Energy>
6.74862

> <b_lp_Chiralities_Consistent>
1

> <s_lp_Variant>
AV-unprocessed.smi:3095-1

> <Gold.Version>
5.8.1

> <Gold.Id.Protein>
6NUR|6NUR_protein|mol2

> <Gold.PLP.Fitness>
34.5886

> <Gold.PLP.PLP>
-28.7710

> <Gold.PLP.part.hbond>
-1.0000

> <Gold.PLP.part.metal>
0.0000

> <Gold.PLP.part.buried>
-1.9975

> <Gold.PLP.part.nonpolar>
-25.5049

> <Gold.PLP.part.repulsive>
0.0847

> <Gold.PLP.ligand.clash>
0.0000

> <Gold.PLP.ligand.torsion>
0.0962

> <Gold.PLP.Chemscore.Hbond>
2.0000

> <Gold.PLP.Chemscore.CHOScore>
0.0000

> <Gold.PLP.Chemscore.Metal>
0.0000

> <Gold.Chemscore.Hbonds>
donor molecule, donor type, donor heavy atom, donor atom, acceptor molecule, acceptor atom, score
      L1  H     8    20       P1  8028  2.00

> <Gold.PLP.Chemscore.Internal.Correction>
0.0100

> <Gold.Rescore>
     Score         DG    S(hbond)    S(metal)    S(lipo)     H(rot)  DE(clash)    DE(int)     intcor
     15.72     -15.96       1.00        0.00      82.89       1.00       0.07       0.16       ----

> <Gold.Chemscore.Fitness>
15.7221

> <Gold.Chemscore.DG>
-15.9578

> <Gold.Chemscore.ZeroCoef>
-5.4800

> <Gold.Chemscore.Hbond>
0.9999

> <Gold.Chemscore.Metal>
0.0000

> <Gold.Chemscore.Lipo>
82.8917

> <Gold.Chemscore.Internal_Hbond>
0.0000

> <Gold.Chemscore.DEClash>
0.0735

> <Gold.Chemscore.DEInternal>
0.1623

> <Gold.Chemscore.Rot>
1.0000

> <Gold.Chemscore.Internal.Correction>
   9.000000E+99

> <Gold.Chemscore.Hbonds>
donor molecule, donor type, donor heavy atom, donor atom, acceptor molecule, acceptor atom, score
      L1  H     8    20       P1  8028  0.95

> <Gold.Chemscore.Hbond.Weighted>
-3.3395

> <Gold.Chemscore.Metal.Weighted>
-0.0000

> <Gold.Chemscore.Lipo.Weighted>
-9.6983

> <Gold.Chemscore.Internal_Hbond.Weighted>
0.0000

> <Gold.Chemscore.DEClash.Weighted>
0.0735

> <Gold.Chemscore.DEInternal.Weighted>
0.1623

> <Gold.Chemscore.Rot.Weighted>
2.5600

> <Gold.Chemscore.Internal.Correction.Weighted>
   9.000000E+99

> <Gold.Protein.RotatedTorsions>
[ 6907 6896 6895 6894 ] final  -60.21 input  -60.11 | X-H torsion
[ 7974 7965 7964 7962 ] final   -0.20 input  175.53 | X-H torsion
[ 8008 7997 7996 7995 ] final -166.08 input   59.86 | X-H torsion
[ 10167 10162 10161 10158 ] final  -26.19 input  -65.29 | X-H torsion
[ 10718 10713 10712 10709 ] final   70.33 input   66.30 | X-H torsion
[ 10763 10752 10751 10750 ] final -157.07 input  -60.55 | X-H torsion
[ 11005 11000 10999 10996 ] final  155.82 input  -57.11 | X-H torsion

> <Gold.Protein.ActiveResidues>
 VAL166  LYS551  ARG553  GLY616  TRP617  ASP618  TYR619  PRO620  LYS621  CYS622 
 ASP623  PHE694  ASN695  SER759  ASP760  ASP761  ALA762  ILE779  LEU786  VAL792 
 PHE793  MET794  SER795  GLU796  ALA797  LYS798  CYS799  TRP800  GLU811  SER814 

> <Gold.Protein.RotatedAtoms>
  150.7873  134.6867  159.6473 H   0  0  0  0  0  0  0  0  0  0  0  0  # atno 6907 bound_to 6896
  152.3971  134.6344  160.0093 H   0  0  0  0  0  0  0  0  0  0  0  0  # atno 6908 bound_to 6896
  151.6626  133.3279  159.3214 H   0  0  0  0  0  0  0  0  0  0  0  0  # atno 6909 bound_to 6896
  146.2429  140.1234  142.8340 H   0  0  0  0  0  0  0  0  0  0  0  0  # atno 7974 bound_to 7965
  155.8589  140.0975  157.1626 H   0  0  0  0  0  0  0  0  0  0  0  0  # atno 8008 bound_to 7997
  154.3989  140.1369  156.3998 H   0  0  0  0  0  0  0  0  0  0  0  0  # atno 8009 bound_to 7997
  155.7879  140.3456  155.5335 H   0  0  0  0  0  0  0  0  0  0  0  0  # atno 8010 bound_to 7997
  140.7284  143.4199  151.0968 H   0  0  0  0  0  0  0  0  0  0  0  0  # atno 10167 bound_to 10162
  157.6394  130.9471  150.0635 H   0  0  0  0  0  0  0  0  0  0  0  0  # atno 10718 bound_to 10713
  154.7664  135.3132  154.8277 H   0  0  0  0  0  0  0  0  0  0  0  0  # atno 10763 bound_to 10752
  153.9024  135.6814  153.4759 H   0  0  0  0  0  0  0  0  0  0  0  0  # atno 10764 bound_to 10752
  153.1271  135.4797  154.9222 H   0  0  0  0  0  0  0  0  0  0  0  0  # atno 10765 bound_to 10752
  140.1617  134.8604  157.2583 H   0  0  0  0  0  0  0  0  0  0  0  0  # atno 11005 bound_to 11000
  145.0387  140.8928  143.5065 LP  0  0  0  0  0  0  0  0  0  0  0  0  # atno 17320 bound_to 7965
  145.1311  139.2631  143.5539 LP  0  0  0  0  0  0  0  0  0  0  0  0  # atno 17321 bound_to 7965
  139.7843  143.8309  152.3142 LP  0  0  0  0  0  0  0  0  0  0  0  0  # atno 17342 bound_to 10162
  139.8271  144.7270  150.9497 LP  0  0  0  0  0  0  0  0  0  0  0  0  # atno 17343 bound_to 10162
  156.1661  130.3645  149.9231 LP  0  0  0  0  0  0  0  0  0  0  0  0  # atno 17370 bound_to 10713
  156.7217  130.9009  151.3618 LP  0  0  0  0  0  0  0  0  0  0  0  0  # atno 17371 bound_to 10713
  140.2481  134.3715  155.7453 LP  0  0  0  0  0  0  0  0  0  0  0  0  # atno 17394 bound_to 11000
  141.2210  133.7302  156.8893 LP  0  0  0  0  0  0  0  0  0  0  0  0  # atno 17395 bound_to 11000

$$$$
