AV-unprocessed.smi:362|AV-procd|sdf|2421|dock1
  -GOLD-   2262022353D 1   1.00000     0.00000
 Structure written by MMmdl.
 36 38  0  0  0  0  0  0  0  0  1 V2000
  150.0879  140.6538  157.8078 O   0  0  0  0  0  0  0  0  0  0  0  0
  150.9585  141.2440  157.1671 C   0  0  0  0  0  0  0  0  0  0  0  0
  151.2924  140.8246  155.7285 C   0  0  0  0  0  0  0  0  0  0  0  0
  150.1029  140.4563  154.9467 N   0  0  0  0  0  0  0  0  0  0  0  0
  149.0244  141.3253  154.8596 C   0  0  0  0  0  0  0  0  0  0  0  0
  147.8957  141.0454  154.1660 C   0  0  0  0  0  0  0  0  0  0  0  0
  147.7591  139.7772  153.4578 C   0  0  0  0  0  0  0  0  0  0  0  0
  146.7784  139.4328  152.8022 O   0  0  0  0  0  0  0  0  0  0  0  0
  148.8639  138.9293  153.5714 N   0  0  0  0  0  0  0  0  0  0  0  0
  150.0295  139.2110  154.2855 C   0  0  0  0  0  0  0  0  0  0  0  0
  150.9448  138.3895  154.3241 O   0  0  0  0  0  0  0  0  0  0  0  0
  151.6524  142.2854  157.6517 N   0  0  0  0  0  0  0  0  0  0  0  0
  151.5082  142.8613  158.9845 C   0  0  0  0  0  0  0  0  0  0  0  0
  150.9994  144.2931  158.9473 C   0  0  0  0  0  0  0  0  0  0  0  0
  151.9479  145.4665  159.0234 C   0  0  0  0  0  0  0  0  0  0  0  0
  151.0191  145.1689  160.1780 C   0  0  0  0  0  0  0  0  0  0  0  0
  152.8072  142.7823  159.7657 C   0  0  0  0  0  0  0  0  0  0  0  0
  153.2693  141.4813  160.3773 C   0  0  0  0  0  0  0  0  0  0  0  0
  152.8180  142.6175  161.2672 C   0  0  0  0  0  0  0  0  0  0  0  0
  148.8141  138.0379  153.0998 H   0  0  0  0  0  0  0  0  0  0  0  0
  151.8197  141.6510  155.2500 H   0  0  0  0  0  0  0  0  0  0  0  0
  152.0041  139.9964  155.7384 H   0  0  0  0  0  0  0  0  0  0  0  0
  149.0792  142.2751  155.3726 H   0  0  0  0  0  0  0  0  0  0  0  0
  147.0887  141.7633  154.1362 H   0  0  0  0  0  0  0  0  0  0  0  0
  152.3424  142.7104  157.0494 H   0  0  0  0  0  0  0  0  0  0  0  0
  150.7749  142.2675  159.5343 H   0  0  0  0  0  0  0  0  0  0  0  0
  150.1438  144.4287  158.2881 H   0  0  0  0  0  0  0  0  0  0  0  0
  153.0060  145.2615  159.1724 H   0  0  0  0  0  0  0  0  0  0  0  0
  151.7233  146.3337  158.4059 H   0  0  0  0  0  0  0  0  0  0  0  0
  150.1741  145.8369  160.3312 H   0  0  0  0  0  0  0  0  0  0  0  0
  151.4641  144.7645  161.0850 H   0  0  0  0  0  0  0  0  0  0  0  0
  153.5943  143.4149  159.3592 H   0  0  0  0  0  0  0  0  0  0  0  0
  152.6110  140.6187  160.2918 H   0  0  0  0  0  0  0  0  0  0  0  0
  154.3341  141.2606  160.3424 H   0  0  0  0  0  0  0  0  0  0  0  0
  153.5824  143.1544  161.8252 H   0  0  0  0  0  0  0  0  0  0  0  0
  151.8636  142.5019  161.7769 H   0  0  0  0  0  0  0  0  0  0  0  0
  1  2  2  0  0  0  0
  2  3  1  0  0  0  0
  2 12  1  0  0  0  0
  3  4  1  0  0  0  0
  3 21  1  0  0  0  0
  3 22  1  0  0  0  0
  4 10  1  0  0  0  0
  4  5  1  0  0  0  0
  5  6  2  0  0  0  0
  5 23  1  0  0  0  0
  6  7  1  0  0  0  0
  6 24  1  0  0  0  0
  7  8  2  0  0  0  0
  7  9  1  0  0  0  0
  9 20  1  0  0  0  0
  9 10  1  0  0  0  0
 10 11  2  0  0  0  0
 12 13  1  0  0  0  0
 12 25  1  0  0  0  0
 13 14  1  0  0  0  0
 13 17  1  0  0  0  0
 13 26  1  0  0  0  0
 14 16  1  0  0  0  0
 14 15  1  0  0  0  0
 14 27  1  0  0  0  0
 15 16  1  0  0  0  0
 15 28  1  0  0  0  0
 15 29  1  0  0  0  0
 16 30  1  0  0  0  0
 16 31  1  0  0  0  0
 17 19  1  0  0  0  0
 17 18  1  0  0  0  0
 17 32  1  0  0  0  0
 18 19  1  0  0  0  0
 18 33  1  0  0  0  0
 18 34  1  0  0  0  0
 19 35  1  0  0  0  0
 19 36  1  0  0  0  0
M  END
> <s_m_source_file>
AV-unprocessed.smi

> <i_m_source_file_index>
362

> <i_lp_mmshare_version>
43012

> <i_f3d_flags>
0

> <s_epik_input>
W0NIMl0xW0NIMl1bQ0hdMVtDSF0oW0NIXTJbQ0gyXVtDSDJdMilbTkhdQyg9TylbQ0gyXW4zW2NIXVtjSF1jKD1PKVtuSF1jMz1P

> <s_epik_cmdline>
J2VwaWtfcHl0aG9uJywgJy1waCcsICc3LjAnLCAnLXRuJywgJzgnLCAnLW1hJywgJzIwMCcsICctbWV0YWxfYmluZGluZycsICctaW1hZScsICc8aW5maWxlLm1hZT4nLCAnLW9tYWUnLCAnPG91dGZpbGUubWFlPic=

> <r_lp_tautomer_probability>
0.999537

> <r_epik_Ionization_Penalty>
0.00315598

> <r_epik_Ionization_Penalty_Charging>
0.00315596

> <r_epik_Ionization_Penalty_Neutral>
2.04126e-08

> <r_epik_State_Penalty>
0.00222351

> <r_epik_Charging_Adjusted_Penalty>
0.00537947

> <i_epik_Tot_Q>
0

> <i_epik_Tot_abs_Q>
0

> <r_epik_Metal_State_Penalty>
0.363464

> <b_epik_Metal_Only>
0

> <s_lp_Force_Field>
OPLS_2005

> <r_lp_Energy>
23.1626

> <b_lp_Chiralities_Consistent>
1

> <s_lp_Variant>
AV-unprocessed.smi:362-1

> <Gold.Version>
5.8.1

> <Gold.Id.Protein>
6NUR|6NUR_protein|mol2

> <Gold.PLP.Fitness>
49.0334

> <Gold.PLP.PLP>
-44.6472

> <Gold.PLP.part.hbond>
-1.6881

> <Gold.PLP.part.metal>
0.0000

> <Gold.PLP.part.buried>
-2.8325

> <Gold.PLP.part.nonpolar>
-40.3068

> <Gold.PLP.part.repulsive>
0.5807

> <Gold.PLP.ligand.clash>
0.0000

> <Gold.PLP.ligand.torsion>
1.4318

> <Gold.PLP.Chemscore.Hbond>
0.6988

> <Gold.PLP.Chemscore.CHOScore>
0.9990

> <Gold.PLP.Chemscore.Metal>
0.0000

> <Gold.Chemscore.Hbonds>
donor molecule, donor type, donor heavy atom, donor atom, acceptor molecule, acceptor atom, score
      L1  H     9    20       P1  7948  0.65
      L1  C     5    23       P1  8028  1.00

> <Gold.PLP.Chemscore.Internal.Correction>
2.1565

> <Gold.Rescore>
     Score         DG    S(hbond)    S(metal)    S(lipo)     H(rot)  DE(clash)    DE(int)     intcor
     12.95     -14.56       0.93        0.00      98.14       2.15       0.07       1.54       ----

> <Gold.Chemscore.Fitness>
12.9524

> <Gold.Chemscore.DG>
-14.5611

> <Gold.Chemscore.ZeroCoef>
-5.4800

> <Gold.Chemscore.Hbond>
0.9288

> <Gold.Chemscore.Metal>
0.0000

> <Gold.Chemscore.Lipo>
98.1449

> <Gold.Chemscore.Internal_Hbond>
0.0000

> <Gold.Chemscore.DEClash>
0.0699

> <Gold.Chemscore.DEInternal>
1.5388

> <Gold.Chemscore.Rot>
2.1500

> <Gold.Chemscore.Internal.Correction>
   9.000000E+99

> <Gold.Chemscore.Hbonds>
donor molecule, donor type, donor heavy atom, donor atom, acceptor molecule, acceptor atom, score
      L1  H     9    20       P1  7948  0.65

> <Gold.Chemscore.Hbond.Weighted>
-3.1022

> <Gold.Chemscore.Metal.Weighted>
-0.0000

> <Gold.Chemscore.Lipo.Weighted>
-11.4830

> <Gold.Chemscore.Internal_Hbond.Weighted>
0.0000

> <Gold.Chemscore.DEClash.Weighted>
0.0699

> <Gold.Chemscore.DEInternal.Weighted>
1.5388

> <Gold.Chemscore.Rot.Weighted>
5.5040

> <Gold.Chemscore.Internal.Correction.Weighted>
   9.000000E+99

> <Gold.Protein.RotatedTorsions>
[ 6907 6896 6895 6894 ] final   67.61 input  -60.11 | X-H torsion
[ 7974 7965 7964 7962 ] final  -27.72 input  175.53 | X-H torsion
[ 8008 7997 7996 7995 ] final  -33.47 input   59.86 | X-H torsion
[ 10167 10162 10161 10158 ] final  146.12 input  -65.29 | X-H torsion
[ 10718 10713 10712 10709 ] final -118.12 input   66.30 | X-H torsion
[ 10763 10752 10751 10750 ] final  -29.33 input  -60.55 | X-H torsion
[ 11005 11000 10999 10996 ] final   87.88 input  -57.11 | X-H torsion

> <Gold.Protein.ActiveResidues>
 VAL166  LYS551  ARG553  GLY616  TRP617  ASP618  TYR619  PRO620  LYS621  CYS622 
 ASP623  PHE694  ASN695  SER759  ASP760  ASP761  ALA762  ILE779  LEU786  VAL792 
 PHE793  MET794  SER795  GLU796  ALA797  LYS798  CYS799  TRP800  GLU811  SER814 

> <Gold.Protein.RotatedAtoms>
  152.4564  134.5282  159.9802 H   0  0  0  0  0  0  0  0  0  0  0  0  # atno 6907 bound_to 6896
  151.5342  133.3438  159.2931 H   0  0  0  0  0  0  0  0  0  0  0  0  # atno 6908 bound_to 6896
  150.8510  134.7865  159.7071 H   0  0  0  0  0  0  0  0  0  0  0  0  # atno 6909 bound_to 6896
  146.1338  140.5189  142.8682 H   0  0  0  0  0  0  0  0  0  0  0  0  # atno 7974 bound_to 7965
  154.4148  140.1710  156.1894 H   0  0  0  0  0  0  0  0  0  0  0  0  # atno 8008 bound_to 7997
  155.9616  140.3393  155.6472 H   0  0  0  0  0  0  0  0  0  0  0  0  # atno 8009 bound_to 7997
  155.6741  140.0715  157.2500 H   0  0  0  0  0  0  0  0  0  0  0  0  # atno 8010 bound_to 7997
  139.4913  144.5852  151.6792 H   0  0  0  0  0  0  0  0  0  0  0  0  # atno 10167 bound_to 10162
  156.1083  130.6228  150.9251 H   0  0  0  0  0  0  0  0  0  0  0  0  # atno 10718 bound_to 10713
  153.7628  135.6918  153.4922 H   0  0  0  0  0  0  0  0  0  0  0  0  # atno 10763 bound_to 10752
  153.1926  135.4465  155.0167 H   0  0  0  0  0  0  0  0  0  0  0  0  # atno 10764 bound_to 10752
  154.8146  135.3393  154.7143 H   0  0  0  0  0  0  0  0  0  0  0  0  # atno 10765 bound_to 10752
  139.8909  134.8451  156.2922 H   0  0  0  0  0  0  0  0  0  0  0  0  # atno 11005 bound_to 11000
  144.7718  140.5654  143.6665 LP  0  0  0  0  0  0  0  0  0  0  0  0  # atno 17320 bound_to 7965
  145.5202  139.1477  143.3557 LP  0  0  0  0  0  0  0  0  0  0  0  0  # atno 17321 bound_to 7965
  140.5467  144.0492  150.6110 LP  0  0  0  0  0  0  0  0  0  0  0  0  # atno 17342 bound_to 10162
  140.3532  143.2951  152.0464 LP  0  0  0  0  0  0  0  0  0  0  0  0  # atno 17343 bound_to 10162
  157.6262  131.0925  150.8529 LP  0  0  0  0  0  0  0  0  0  0  0  0  # atno 17370 bound_to 10713
  156.8644  130.5124  149.5301 LP  0  0  0  0  0  0  0  0  0  0  0  0  # atno 17371 bound_to 10713
  140.9969  133.7175  156.0899 LP  0  0  0  0  0  0  0  0  0  0  0  0  # atno 17394 bound_to 11000
  140.7551  134.4002  157.5535 LP  0  0  0  0  0  0  0  0  0  0  0  0  # atno 17395 bound_to 11000

$$$$
