AV-unprocessed.smi:2445|AV-procd|sdf|9633|dock8
  -GOLD-   2272013263D 1   1.00000     0.00000
 Structure written by MMmdl.
 40 41  0  0  0  0  0  0  0  0  1 V2000
  144.2029  131.8224  150.4101 C   0  0  0  0  0  0  0  0  0  0  0  0
  145.4200  132.2998  151.1269 C   0  0  0  0  0  0  0  0  0  0  0  0
  146.1872  133.4011  150.8385 C   0  0  0  0  0  0  0  0  0  0  0  0
  147.2688  133.5784  151.7041 N   0  0  0  0  0  0  0  0  0  0  0  0
  147.3335  132.6311  152.6435 C   0  0  0  0  0  0  0  0  0  0  0  0
  148.3999  132.5842  153.6968 C   0  0  2  0  0  0  0  0  0  0  0  0
  148.5338  131.1803  154.3033 C   0  0  0  0  0  0  0  0  0  0  0  0
  148.2218  133.6705  154.7757 C   0  0  0  0  0  0  0  0  0  0  0  0
  148.7962  134.9444  154.3571 N   0  0  0  0  0  0  0  0  0  0  0  0
  149.0553  135.9681  155.1799 C   0  0  0  0  0  0  0  0  0  0  0  0
  148.8608  135.9423  156.3952 O   0  0  0  0  0  0  0  0  0  0  0  0
  149.5469  137.0239  154.5181 N   0  0  0  0  0  0  0  0  0  0  0  0
  149.9174  138.2967  155.1290 C   0  0  2  0  0  0  0  0  0  0  0  0
  149.0289  139.4251  154.6484 C   0  0  0  0  0  0  0  0  0  0  0  0
  149.9104  140.6431  154.8957 C   0  0  0  0  0  0  0  0  0  0  0  0
  151.2447  140.2017  154.6735 O   0  0  0  0  0  0  0  0  0  0  0  0
  151.3054  138.7773  154.6805 C   0  0  1  0  0  0  0  0  0  0  0  0
  152.4565  138.3056  155.5773 C   0  0  0  0  0  0  0  0  0  0  0  0
  146.0431  131.4387  152.5093 S   0  0  0  0  0  0  0  0  0  0  0  0
  143.9273  132.5047  149.6056 H   0  0  0  0  0  0  0  0  0  0  0  0
  143.3560  131.7478  151.0925 H   0  0  0  0  0  0  0  0  0  0  0  0
  144.3728  130.8384  149.9731 H   0  0  0  0  0  0  0  0  0  0  0  0
  146.0370  134.1108  150.0383 H   0  0  0  0  0  0  0  0  0  0  0  0
  149.3454  132.7959  153.1945 H   0  0  0  0  0  0  0  0  0  0  0  0
  148.7393  130.4378  153.5315 H   0  0  0  0  0  0  0  0  0  0  0  0
  147.6201  130.8812  154.8180 H   0  0  0  0  0  0  0  0  0  0  0  0
  149.3498  131.1406  155.0252 H   0  0  0  0  0  0  0  0  0  0  0  0
  147.1585  133.8026  154.9849 H   0  0  0  0  0  0  0  0  0  0  0  0
  148.6908  133.3582  155.7097 H   0  0  0  0  0  0  0  0  0  0  0  0
  148.9897  135.0584  153.3726 H   0  0  0  0  0  0  0  0  0  0  0  0
  149.6714  136.9449  153.5194 H   0  0  0  0  0  0  0  0  0  0  0  0
  149.8626  138.2474  156.2186 H   0  0  0  0  0  0  0  0  0  0  0  0
  148.8255  139.3289  153.5805 H   0  0  0  0  0  0  0  0  0  0  0  0
  148.0755  139.4758  155.1755 H   0  0  0  0  0  0  0  0  0  0  0  0
  149.6541  141.4846  154.2518 H   0  0  0  0  0  0  0  0  0  0  0  0
  149.8219  140.9701  155.9325 H   0  0  0  0  0  0  0  0  0  0  0  0
  151.4919  138.4652  153.6517 H   0  0  0  0  0  0  0  0  0  0  0  0
  152.5433  137.2192  155.5669 H   0  0  0  0  0  0  0  0  0  0  0  0
  152.3074  138.6206  156.6102 H   0  0  0  0  0  0  0  0  0  0  0  0
  153.4072  138.7167  155.2373 H   0  0  0  0  0  0  0  0  0  0  0  0
  1  2  1  0  0  0  0
  1 20  1  0  0  0  0
  1 21  1  0  0  0  0
  1 22  1  0  0  0  0
  2 19  1  0  0  0  0
  2  3  2  0  0  0  0
  3  4  1  0  0  0  0
  3 23  1  0  0  0  0
  4  5  2  0  0  0  0
  5  6  1  0  0  0  0
  5 19  1  0  0  0  0
  6  7  1  0  0  0  0
  6  8  1  0  0  0  0
  6 24  1  0  0  0  0
  7 25  1  0  0  0  0
  7 26  1  0  0  0  0
  7 27  1  0  0  0  0
  8  9  1  0  0  0  0
  8 28  1  0  0  0  0
  8 29  1  0  0  0  0
  9 10  1  0  0  0  0
  9 30  1  0  0  0  0
 10 11  2  0  0  0  0
 10 12  1  0  0  0  0
 12 13  1  0  0  0  0
 12 31  1  0  0  0  0
 13 17  1  0  0  0  0
 13 14  1  0  0  0  0
 13 32  1  0  0  0  0
 14 15  1  0  0  0  0
 14 33  1  0  0  0  0
 14 34  1  0  0  0  0
 15 16  1  0  0  0  0
 15 35  1  0  0  0  0
 15 36  1  0  0  0  0
 16 17  1  0  0  0  0
 17 18  1  0  0  0  0
 17 37  1  0  0  0  0
 18 38  1  0  0  0  0
 18 39  1  0  0  0  0
 18 40  1  0  0  0  0
M  END
> <s_m_source_file>
AV-unprocessed.smi

> <i_m_source_file_index>
2445

> <i_lp_mmshare_version>
43012

> <i_f3d_flags>
0

> <s_epik_input>
W0NIM11jMVtjSF1uYyhzMSlbQ0BIXShbQ0gzXSlbQ0gyXVtOSF1DKD1PKVtOSF1bQ0BASF0yW0NIMl1bQ0gyXU9bQ0BIXTJbQ0gzXQ==

> <s_epik_cmdline>
J2VwaWtfcHl0aG9uJywgJy1waCcsICc3LjAnLCAnLXRuJywgJzgnLCAnLW1hJywgJzIwMCcsICctbWV0YWxfYmluZGluZycsICctaW1hZScsICc8aW5maWxlLm1hZT4nLCAnLW9tYWUnLCAnPG91dGZpbGUubWFlPic=

> <r_epik_Ionization_Penalty>
0.000649483

> <r_epik_Ionization_Penalty_Charging>
0

> <r_epik_Ionization_Penalty_Neutral>
0.000649483

> <r_epik_State_Penalty>
0.000379895

> <r_epik_Charging_Adjusted_Penalty>
0.000379895

> <i_epik_Tot_Q>
0

> <i_epik_Tot_abs_Q>
0

> <r_epik_Metal_State_Penalty>
-0

> <b_epik_Metal_Only>
0

> <s_lp_Force_Field>
OPLS_2005

> <r_lp_Energy>
5.96994

> <b_lp_Chiralities_Consistent>
1

> <s_lp_Variant>
AV-unprocessed.smi:2445-1

> <Gold.Version>
5.8.1

> <Gold.Id.Protein>
6NUR|6NUR_protein|mol2

> <Gold.PLP.Fitness>
43.4224

> <Gold.PLP.PLP>
-33.7312

> <Gold.PLP.part.hbond>
-2.8887

> <Gold.PLP.part.metal>
0.0000

> <Gold.PLP.part.buried>
-3.7928

> <Gold.PLP.part.nonpolar>
-28.1724

> <Gold.PLP.part.repulsive>
0.7939

> <Gold.PLP.ligand.clash>
0.0000

> <Gold.PLP.ligand.torsion>
0.9266

> <Gold.PLP.Chemscore.Hbond>
2.8137

> <Gold.PLP.Chemscore.CHOScore>
0.9983

> <Gold.PLP.Chemscore.Metal>
0.0000

> <Gold.Chemscore.Hbonds>
donor molecule, donor type, donor heavy atom, donor atom, acceptor molecule, acceptor atom, score
      L1  H     9    30       P1  7948  0.96
      L1  H    12    31       P1  7948  0.94
      P1  H  7989  7998       L1    16  0.68
      L1  C     3    23       P1  7921  1.00

> <Gold.PLP.Chemscore.Internal.Correction>
0.1085

> <Gold.Rescore>
     Score         DG    S(hbond)    S(metal)    S(lipo)     H(rot)  DE(clash)    DE(int)     intcor
     18.96     -19.63       2.53        0.00      82.20       1.53       0.01       0.66       ----

> <Gold.Chemscore.Fitness>
18.9595

> <Gold.Chemscore.DG>
-19.6260

> <Gold.Chemscore.ZeroCoef>
-5.4800

> <Gold.Chemscore.Hbond>
2.5305

> <Gold.Chemscore.Metal>
0.0000

> <Gold.Chemscore.Lipo>
82.2017

> <Gold.Chemscore.Internal_Hbond>
0.0000

> <Gold.Chemscore.DEClash>
0.0096

> <Gold.Chemscore.DEInternal>
0.6569

> <Gold.Chemscore.Rot>
1.5325

> <Gold.Chemscore.Internal.Correction>
   9.000000E+99

> <Gold.Chemscore.Hbonds>
donor molecule, donor type, donor heavy atom, donor atom, acceptor molecule, acceptor atom, score
      L1  H     9    30       P1  7948  0.32
      L1  H    12    31       P1  7948  0.63
      P1  H  7989  7998       L1    16  0.29

> <Gold.Chemscore.Hbond.Weighted>
-8.4518

> <Gold.Chemscore.Metal.Weighted>
-0.0000

> <Gold.Chemscore.Lipo.Weighted>
-9.6176

> <Gold.Chemscore.Internal_Hbond.Weighted>
0.0000

> <Gold.Chemscore.DEClash.Weighted>
0.0096

> <Gold.Chemscore.DEInternal.Weighted>
0.6569

> <Gold.Chemscore.Rot.Weighted>
3.9233

> <Gold.Chemscore.Internal.Correction.Weighted>
   9.000000E+99

> <Gold.Protein.RotatedTorsions>
[ 6907 6896 6895 6894 ] final  133.04 input  -60.11 | X-H torsion
[ 7974 7965 7964 7962 ] final -134.21 input  175.53 | X-H torsion
[ 8008 7997 7996 7995 ] final   82.55 input   59.86 | X-H torsion
[ 10167 10162 10161 10158 ] final  157.39 input  -65.29 | X-H torsion
[ 10718 10713 10712 10709 ] final -167.06 input   66.30 | X-H torsion
[ 10763 10752 10751 10750 ] final   75.55 input  -60.55 | X-H torsion
[ 11005 11000 10999 10996 ] final    3.25 input  -57.11 | X-H torsion

> <Gold.Protein.ActiveResidues>
 VAL166  LYS551  ARG553  GLY616  TRP617  ASP618  TYR619  PRO620  LYS621  CYS622 
 ASP623  PHE694  ASN695  SER759  ASP760  ASP761  ALA762  ILE779  LEU786  VAL792 
 PHE793  MET794  SER795  GLU796  ALA797  LYS798  CYS799  TRP800  GLU811  SER814 

> <Gold.Protein.RotatedAtoms>
  152.3261  133.5907  159.5777 H   0  0  0  0  0  0  0  0  0  0  0  0  # atno 6907 bound_to 6896
  150.7397  133.9938  159.3624 H   0  0  0  0  0  0  0  0  0  0  0  0  # atno 6908 bound_to 6896
  151.7818  135.0760  160.0426 H   0  0  0  0  0  0  0  0  0  0  0  0  # atno 6909 bound_to 6896
  144.9124  140.6911  143.5017 H   0  0  0  0  0  0  0  0  0  0  0  0  # atno 7974 bound_to 7965
  155.9121  140.3427  155.6106 H   0  0  0  0  0  0  0  0  0  0  0  0  # atno 8008 bound_to 7997
  155.7376  140.0803  157.2279 H   0  0  0  0  0  0  0  0  0  0  0  0  # atno 8009 bound_to 7997
  154.4057  140.1576  156.2566 H   0  0  0  0  0  0  0  0  0  0  0  0  # atno 8010 bound_to 7997
  139.4823  144.4921  151.8293 H   0  0  0  0  0  0  0  0  0  0  0  0  # atno 10167 bound_to 10162
  156.6769  130.9106  151.3051 H   0  0  0  0  0  0  0  0  0  0  0  0  # atno 10718 bound_to 10713
  153.0663  135.4984  154.8206 H   0  0  0  0  0  0  0  0  0  0  0  0  # atno 10763 bound_to 10752
  154.6957  135.2992  154.9417 H   0  0  0  0  0  0  0  0  0  0  0  0  # atno 10764 bound_to 10752
  154.0157  135.6748  153.4821 H   0  0  0  0  0  0  0  0  0  0  0  0  # atno 10765 bound_to 10752
  140.5952  133.9887  155.8106 H   0  0  0  0  0  0  0  0  0  0  0  0  # atno 11005 bound_to 11000
  145.3433  139.1726  143.4474 LP  0  0  0  0  0  0  0  0  0  0  0  0  # atno 17320 bound_to 7965
  146.3165  140.3476  142.8653 LP  0  0  0  0  0  0  0  0  0  0  0  0  # atno 17321 bound_to 7965
  140.4406  144.1991  150.5891 LP  0  0  0  0  0  0  0  0  0  0  0  0  # atno 17342 bound_to 10162
  140.4686  143.2421  151.9120 LP  0  0  0  0  0  0  0  0  0  0  0  0  # atno 17343 bound_to 10162
  157.7057  130.9383  150.0925 LP  0  0  0  0  0  0  0  0  0  0  0  0  # atno 17370 bound_to 10713
  156.1897  130.3654  149.8926 LP  0  0  0  0  0  0  0  0  0  0  0  0  # atno 17371 bound_to 10713
  141.0909  133.9918  157.3239 LP  0  0  0  0  0  0  0  0  0  0  0  0  # atno 17394 bound_to 11000
  139.9257  135.0201  156.8224 LP  0  0  0  0  0  0  0  0  0  0  0  0  # atno 17395 bound_to 11000

$$$$
