AV-unprocessed.smi:561|AV-procd|sdf|2938|dock1
  -GOLD-   2262023433D 1   1.00000     0.00000
 Structure written by MMmdl.
 36 37  0  0  0  0  0  0  0  0  1 V2000
  144.6791  134.9222  152.9697 C   0  0  0  0  0  0  0  0  0  0  0  0
  145.3253  135.6907  151.8094 C   0  0  2  0  0  0  0  0  0  0  0  0
  145.9662  134.7312  150.7853 C   0  0  0  0  0  0  0  0  0  0  0  0
  145.3332  133.4250  150.7704 N   0  0  0  0  0  0  0  0  0  0  0  0
  143.9914  133.1468  150.5431 C   0  0  0  0  0  0  0  0  0  0  0  0
  143.8525  131.7805  150.6353 C   0  0  0  0  0  0  0  0  0  0  0  0
  145.0889  131.2010  150.9108 N   0  0  0  0  0  0  0  0  0  0  0  0
  145.9165  132.2360  150.9752 C   0  0  0  0  0  0  0  0  0  0  0  0
  146.3255  136.6121  152.3469 N   0  0  0  0  0  0  0  0  0  0  0  0
  146.0769  137.6694  153.1426 C   0  0  0  0  0  0  0  0  0  0  0  0
  144.9498  137.9584  153.5452 O   0  0  0  0  0  0  0  0  0  0  0  0
  147.2550  138.5013  153.5038 C   0  0  0  0  0  0  0  0  0  0  0  0
  148.2921  137.9527  154.0553 N   0  0  0  0  0  0  0  0  0  0  0  0
  149.4154  138.6815  154.3890 N   0  0  0  0  0  0  0  0  0  0  0  0
  150.5858  137.8790  154.7389 C   0  0  0  0  0  0  0  0  0  0  0  0
  149.4724  140.0360  154.4284 C   0  0  0  0  0  0  0  0  0  0  0  0
  150.4886  140.6704  154.7117 O   0  0  0  0  0  0  0  0  0  0  0  0
  148.1698  140.7826  154.1267 C   0  0  0  0  0  0  0  0  0  0  0  0
  147.2436  139.9838  153.1883 C   0  0  0  0  0  0  0  0  0  0  0  0
  143.9102  134.2393  152.6073 H   0  0  0  0  0  0  0  0  0  0  0  0
  144.2056  135.6040  153.6770 H   0  0  0  0  0  0  0  0  0  0  0  0
  145.4163  134.3331  153.5163 H   0  0  0  0  0  0  0  0  0  0  0  0
  144.5306  136.2497  151.3121 H   0  0  0  0  0  0  0  0  0  0  0  0
  145.9192  135.1549  149.7811 H   0  0  0  0  0  0  0  0  0  0  0  0
  147.0230  134.5886  151.0148 H   0  0  0  0  0  0  0  0  0  0  0  0
  143.2661  133.9226  150.3471 H   0  0  0  0  0  0  0  0  0  0  0  0
  142.9651  131.1749  150.5250 H   0  0  0  0  0  0  0  0  0  0  0  0
  146.9711  132.1275  151.1823 H   0  0  0  0  0  0  0  0  0  0  0  0
  147.2832  136.4534  152.0682 H   0  0  0  0  0  0  0  0  0  0  0  0
  150.9217  138.1074  155.7516 H   0  0  0  0  0  0  0  0  0  0  0  0
  151.4085  138.0834  154.0521 H   0  0  0  0  0  0  0  0  0  0  0  0
  150.3775  136.8085  154.6946 H   0  0  0  0  0  0  0  0  0  0  0  0
  147.6655  140.9582  155.0776 H   0  0  0  0  0  0  0  0  0  0  0  0
  148.3876  141.7625  153.7007 H   0  0  0  0  0  0  0  0  0  0  0  0
  147.5467  140.1323  152.1513 H   0  0  0  0  0  0  0  0  0  0  0  0
  146.2342  140.3881  153.2746 H   0  0  0  0  0  0  0  0  0  0  0  0
  1  2  1  0  0  0  0
  1 20  1  0  0  0  0
  1 21  1  0  0  0  0
  1 22  1  0  0  0  0
  2  3  1  0  0  0  0
  2  9  1  0  0  0  0
  2 23  1  0  0  0  0
  3  4  1  0  0  0  0
  3 24  1  0  0  0  0
  3 25  1  0  0  0  0
  4  8  1  0  0  0  0
  4  5  1  0  0  0  0
  5  6  2  0  0  0  0
  5 26  1  0  0  0  0
  6  7  1  0  0  0  0
  6 27  1  0  0  0  0
  7  8  2  0  0  0  0
  8 28  1  0  0  0  0
  9 10  1  0  0  0  0
  9 29  1  0  0  0  0
 10 11  2  0  0  0  0
 10 12  1  0  0  0  0
 12 19  1  0  0  0  0
 12 13  2  0  0  0  0
 13 14  1  0  0  0  0
 14 15  1  0  0  0  0
 14 16  1  0  0  0  0
 15 30  1  0  0  0  0
 15 31  1  0  0  0  0
 15 32  1  0  0  0  0
 16 17  2  0  0  0  0
 16 18  1  0  0  0  0
 18 19  1  0  0  0  0
 18 33  1  0  0  0  0
 18 34  1  0  0  0  0
 19 35  1  0  0  0  0
 19 36  1  0  0  0  0
M  END
> <s_m_source_file>
AV-unprocessed.smi

> <i_m_source_file_index>
561

> <i_lp_mmshare_version>
43012

> <i_f3d_flags>
0

> <s_epik_input>
W2NIXTFuW2NIXVtjSF1uMVtDSDJdW0NAQEhdKFtDSDNdKVtOSF1DKD1PKUMyPU5OKFtDSDNdKUMoPU8pW0NIMl1bQ0gyXTI=

> <s_epik_cmdline>
J2VwaWtfcHl0aG9uJywgJy1waCcsICc3LjAnLCAnLXRuJywgJzgnLCAnLW1hJywgJzIwMCcsICctbWV0YWxfYmluZGluZycsICctaW1hZScsICc8aW5maWxlLm1hZT4nLCAnLW9tYWUnLCAnPG91dGZpbGUubWFlPic=

> <r_lp_tautomer_probability>
1

> <r_epik_Ionization_Penalty>
0.46798

> <r_epik_Ionization_Penalty_Charging>
0.467902

> <r_epik_Ionization_Penalty_Neutral>
7.78263e-05

> <r_epik_State_Penalty>
0.47192

> <r_epik_Charging_Adjusted_Penalty>
0.939822

> <i_epik_Tot_Q>
0

> <i_epik_Tot_abs_Q>
0

> <r_epik_Metal_State_Penalty>
0.280825

> <b_epik_Metal_Only>
0

> <s_epik_Chemistry_Notes>
This compound has an imine and may undergo hydrolysis.

> <s_lp_Force_Field>
OPLS_2005

> <r_lp_Energy>
18.1828

> <b_lp_Chiralities_Consistent>
1

> <s_lp_Variant>
AV-unprocessed.smi:561-3

> <Gold.Version>
5.8.1

> <Gold.Id.Protein>
6NUR|6NUR_protein|mol2

> <Gold.PLP.Fitness>
41.8256

> <Gold.PLP.PLP>
-29.8654

> <Gold.PLP.part.hbond>
-2.0000

> <Gold.PLP.part.metal>
0.0000

> <Gold.PLP.part.buried>
-5.5200

> <Gold.PLP.part.nonpolar>
-25.1078

> <Gold.PLP.part.repulsive>
2.3354

> <Gold.PLP.ligand.clash>
0.0000

> <Gold.PLP.ligand.torsion>
1.4948

> <Gold.PLP.Chemscore.Hbond>
1.9440

> <Gold.PLP.Chemscore.CHOScore>
3.0000

> <Gold.PLP.Chemscore.Metal>
0.0000

> <Gold.Chemscore.Hbonds>
donor molecule, donor type, donor heavy atom, donor atom, acceptor molecule, acceptor atom, score
      L1  H     9    29       P1  7948  1.00
      P1  H  7989  7998       L1    17  0.91
      L1  C     5    26       P1 10186  1.00
      L1  C     6    27       P1 10952  1.00
      L1  C     8    28       P1 10747  0.97

> <Gold.PLP.Chemscore.Internal.Correction>
0.1178

> <Gold.Rescore>
     Score         DG    S(hbond)    S(metal)    S(lipo)     H(rot)  DE(clash)    DE(int)     intcor
     12.23     -13.95       1.88        0.00      56.07       1.71       0.07       1.65       ----

> <Gold.Chemscore.Fitness>
12.2265

> <Gold.Chemscore.DG>
-13.9473

> <Gold.Chemscore.ZeroCoef>
-5.4800

> <Gold.Chemscore.Hbond>
1.8806

> <Gold.Chemscore.Metal>
0.0000

> <Gold.Chemscore.Lipo>
56.0687

> <Gold.Chemscore.Internal_Hbond>
0.0000

> <Gold.Chemscore.DEClash>
0.0734

> <Gold.Chemscore.DEInternal>
1.6474

> <Gold.Chemscore.Rot>
1.7086

> <Gold.Chemscore.Internal.Correction>
   9.000000E+99

> <Gold.Chemscore.Hbonds>
donor molecule, donor type, donor heavy atom, donor atom, acceptor molecule, acceptor atom, score
      L1  H     9    29       P1  7948  1.00
      P1  H  7989  7998       L1    17  0.83

> <Gold.Chemscore.Hbond.Weighted>
-6.2812

> <Gold.Chemscore.Metal.Weighted>
-0.0000

> <Gold.Chemscore.Lipo.Weighted>
-6.5600

> <Gold.Chemscore.Internal_Hbond.Weighted>
0.0000

> <Gold.Chemscore.DEClash.Weighted>
0.0734

> <Gold.Chemscore.DEInternal.Weighted>
1.6474

> <Gold.Chemscore.Rot.Weighted>
4.3739

> <Gold.Chemscore.Internal.Correction.Weighted>
   9.000000E+99

> <Gold.Protein.RotatedTorsions>
[ 6907 6896 6895 6894 ] final  120.48 input  -60.11 | X-H torsion
[ 7974 7965 7964 7962 ] final -122.38 input  175.53 | X-H torsion
[ 8008 7997 7996 7995 ] final -115.05 input   59.86 | X-H torsion
[ 10167 10162 10161 10158 ] final -106.68 input  -65.29 | X-H torsion
[ 10718 10713 10712 10709 ] final    2.35 input   66.30 | X-H torsion
[ 10763 10752 10751 10750 ] final  -80.83 input  -60.55 | X-H torsion
[ 11005 11000 10999 10996 ] final -136.58 input  -57.11 | X-H torsion

> <Gold.Protein.ActiveResidues>
 VAL166  LYS551  ARG553  GLY616  TRP617  ASP618  TYR619  PRO620  LYS621  CYS622 
 ASP623  PHE694  ASN695  SER759  ASP760  ASP761  ALA762  ILE779  LEU786  VAL792 
 PHE793  MET794  SER795  GLU796  ALA797  LYS798  CYS799  TRP800  GLU811  SER814 

> <Gold.Protein.RotatedAtoms>
  152.4395  133.7421  159.6646 H   0  0  0  0  0  0  0  0  0  0  0  0  # atno 6907 bound_to 6896
  150.8283  133.8123  159.3115 H   0  0  0  0  0  0  0  0  0  0  0  0  # atno 6908 bound_to 6896
  151.5785  135.1062  160.0063 H   0  0  0  0  0  0  0  0  0  0  0  0  # atno 6909 bound_to 6896
  145.0301  140.8060  143.4329 H   0  0  0  0  0  0  0  0  0  0  0  0  # atno 7974 bound_to 7965
  155.0460  140.0392  157.2527 H   0  0  0  0  0  0  0  0  0  0  0  0  # atno 8008 bound_to 7997
  154.7177  140.2705  155.6546 H   0  0  0  0  0  0  0  0  0  0  0  0  # atno 8009 bound_to 7997
  156.2808  140.2709  156.1838 H   0  0  0  0  0  0  0  0  0  0  0  0  # atno 8010 bound_to 7997
  140.1851  143.3936  152.1250 H   0  0  0  0  0  0  0  0  0  0  0  0  # atno 10167 bound_to 10162
  156.8617  130.5589  149.5662 H   0  0  0  0  0  0  0  0  0  0  0  0  # atno 10718 bound_to 10713
  154.5560  135.5647  153.6965 H   0  0  0  0  0  0  0  0  0  0  0  0  # atno 10763 bound_to 10752
  153.0004  135.6262  154.2309 H   0  0  0  0  0  0  0  0  0  0  0  0  # atno 10764 bound_to 10752
  154.2245  135.2868  155.2892 H   0  0  0  0  0  0  0  0  0  0  0  0  # atno 10765 bound_to 10752
  140.8792  134.1953  157.4602 H   0  0  0  0  0  0  0  0  0  0  0  0  # atno 11005 bound_to 11000
  145.1782  139.2366  143.5306 LP  0  0  0  0  0  0  0  0  0  0  0  0  # atno 17320 bound_to 7965
  146.3497  140.1549  142.8592 LP  0  0  0  0  0  0  0  0  0  0  0  0  # atno 17321 bound_to 7965
  139.5279  144.7125  151.5161 LP  0  0  0  0  0  0  0  0  0  0  0  0  # atno 17342 bound_to 10162
  140.6493  143.8729  150.6769 LP  0  0  0  0  0  0  0  0  0  0  0  0  # atno 17343 bound_to 10162
  156.0773  130.5792  150.9497 LP  0  0  0  0  0  0  0  0  0  0  0  0  # atno 17370 bound_to 10713
  157.6246  131.0927  150.8558 LP  0  0  0  0  0  0  0  0  0  0  0  0  # atno 17371 bound_to 10713
  139.8718  134.9809  156.5096 LP  0  0  0  0  0  0  0  0  0  0  0  0  # atno 17394 bound_to 11000
  140.8482  133.8153  155.9142 LP  0  0  0  0  0  0  0  0  0  0  0  0  # atno 17395 bound_to 11000

$$$$
