AV-unprocessed.smi:2192|AV-procd|sdf|8896|dock1
  -GOLD-   2272012103D 1   1.00000     0.00000
 Structure written by MMmdl.
 42 44  0  0  0  0  0  0  0  0  1 V2000
  150.5309  142.9153  161.7681 C   0  0  0  0  0  0  0  0  0  0  0  0
  151.2272  142.0421  160.8047 N   0  0  0  0  0  0  0  0  0  0  0  0
  150.7529  141.9877  159.5202 C   0  0  0  0  0  0  0  0  0  0  0  0
  149.7824  142.6173  159.0975 O   0  0  0  0  0  0  0  0  0  0  0  0
  151.5121  141.0886  158.6469 C   0  0  0  0  0  0  0  0  0  0  0  0
  152.5859  140.3799  159.0704 C   0  0  0  0  0  0  0  0  0  0  0  0
  153.1207  139.6089  158.0445 N   0  0  0  0  0  0  0  0  0  0  0  0
  152.3131  139.9049  157.0249 C   0  0  0  0  0  0  0  0  0  0  0  0
  151.3232  140.7784  157.3020 N   0  0  0  0  0  0  0  0  0  0  0  0
  150.3110  141.2626  156.3766 C   0  0  0  0  0  0  0  0  0  0  0  0
  149.9931  140.2468  155.2610 C   0  0  2  0  0  0  0  0  0  0  0  0
  151.0502  140.2180  154.3218 O   0  0  0  0  0  0  0  0  0  0  0  0
  148.6906  140.5805  154.5202 C   0  0  0  0  0  0  0  0  0  0  0  0
  147.6334  140.6600  155.4672 O   0  0  0  0  0  0  0  0  0  0  0  0
  146.5018  141.3688  155.1265 C   0  0  0  0  0  0  0  0  0  0  0  0
  145.4717  141.4284  156.0880 C   0  0  0  0  0  0  0  0  0  0  0  0
  144.2801  142.1317  155.8260 C   0  0  0  0  0  0  0  0  0  0  0  0
  144.1059  142.7840  154.5916 C   0  0  0  0  0  0  0  0  0  0  0  0
  142.9608  143.4603  154.3368 F   0  0  0  0  0  0  0  0  0  0  0  0
  145.1247  142.7316  153.6221 C   0  0  0  0  0  0  0  0  0  0  0  0
  146.3172  142.0294  153.8851 C   0  0  0  0  0  0  0  0  0  0  0  0
  152.9960  140.5100  160.4203 N   0  0  0  0  0  0  0  0  0  0  0  0
  154.1622  139.7287  160.8430 C   0  0  0  0  0  0  0  0  0  0  0  0
  152.3190  141.3373  161.2843 C   0  0  0  0  0  0  0  0  0  0  0  0
  152.6769  141.4481  162.4600 O   0  0  0  0  0  0  0  0  0  0  0  0
  149.6792  143.4618  161.3615 H   0  0  0  0  0  0  0  0  0  0  0  0
  151.2162  143.6648  162.1674 H   0  0  0  0  0  0  0  0  0  0  0  0
  150.1502  142.3284  162.6056 H   0  0  0  0  0  0  0  0  0  0  0  0
  152.4431  139.4682  156.0454 H   0  0  0  0  0  0  0  0  0  0  0  0
  149.4131  141.5075  156.9448 H   0  0  0  0  0  0  0  0  0  0  0  0
  150.6585  142.2014  155.9426 H   0  0  0  0  0  0  0  0  0  0  0  0
  149.9085  139.2456  155.6846 H   0  0  0  0  0  0  0  0  0  0  0  0
  150.9960  139.4111  153.8328 H   0  0  0  0  0  0  0  0  0  0  0  0
  148.7981  141.5217  153.9781 H   0  0  0  0  0  0  0  0  0  0  0  0
  148.4692  139.7948  153.7957 H   0  0  0  0  0  0  0  0  0  0  0  0
  145.5975  140.9298  157.0380 H   0  0  0  0  0  0  0  0  0  0  0  0
  143.5004  142.1700  156.5724 H   0  0  0  0  0  0  0  0  0  0  0  0
  144.9921  143.2308  152.6737 H   0  0  0  0  0  0  0  0  0  0  0  0
  147.0749  142.0120  153.1167 H   0  0  0  0  0  0  0  0  0  0  0  0
  154.4304  139.8500  161.8928 H   0  0  0  0  0  0  0  0  0  0  0  0
  155.0330  140.0122  160.2510 H   0  0  0  0  0  0  0  0  0  0  0  0
  153.9783  138.6664  160.6778 H   0  0  0  0  0  0  0  0  0  0  0  0
  1  2  1  0  0  0  0
  1 26  1  0  0  0  0
  1 27  1  0  0  0  0
  1 28  1  0  0  0  0
  2 24  1  0  0  0  0
  2  3  1  0  0  0  0
  3  4  2  0  0  0  0
  3  5  1  0  0  0  0
  5  9  1  0  0  0  0
  5  6  2  0  0  0  0
  6  7  1  0  0  0  0
  6 22  1  0  0  0  0
  7  8  2  0  0  0  0
  8  9  1  0  0  0  0
  8 29  1  0  0  0  0
  9 10  1  0  0  0  0
 10 11  1  0  0  0  0
 10 30  1  0  0  0  0
 10 31  1  0  0  0  0
 11 12  1  0  0  0  0
 11 13  1  0  0  0  0
 11 32  1  0  0  0  0
 12 33  1  0  0  0  0
 13 14  1  0  0  0  0
 13 34  1  0  0  0  0
 13 35  1  0  0  0  0
 14 15  1  0  0  0  0
 15 21  1  0  0  0  0
 15 16  2  0  0  0  0
 16 17  1  0  0  0  0
 16 36  1  0  0  0  0
 17 18  2  0  0  0  0
 17 37  1  0  0  0  0
 18 19  1  0  0  0  0
 18 20  1  0  0  0  0
 20 21  2  0  0  0  0
 20 38  1  0  0  0  0
 21 39  1  0  0  0  0
 22 23  1  0  0  0  0
 22 24  1  0  0  0  0
 23 40  1  0  0  0  0
 23 41  1  0  0  0  0
 23 42  1  0  0  0  0
 24 25  2  0  0  0  0
M  END
> <s_m_source_file>
AV-unprocessed.smi

> <i_m_source_file_index>
2192

> <i_lp_mmshare_version>
43012

> <i_f3d_flags>
0

> <s_epik_input>
Tz1jMW4oW0NIM10pYyg9TyluKFtDSDNdKWMoYzEyKW5bY0hdbjJbQ0gyXVtDQEhdKFtPSF0pW0NIMl1PYzNbY0hdW2NIXWMoRilbY0hdW2NIXTM=

> <s_epik_cmdline>
J2VwaWtfcHl0aG9uJywgJy1waCcsICc3LjAnLCAnLXRuJywgJzgnLCAnLW1hJywgJzIwMCcsICctbWV0YWxfYmluZGluZycsICctaW1hZScsICc8aW5maWxlLm1hZT4nLCAnLW9tYWUnLCAnPG91dGZpbGUubWFlPic=

> <r_lp_tautomer_probability>
1

> <r_epik_Ionization_Penalty>
1.0344e-06

> <r_epik_Ionization_Penalty_Charging>
3.2247e-09

> <r_epik_Ionization_Penalty_Neutral>
1.03118e-06

> <r_epik_State_Penalty>
-0

> <r_epik_Charging_Adjusted_Penalty>
3.2247e-09

> <i_epik_Tot_Q>
0

> <i_epik_Tot_abs_Q>
0

> <r_epik_Metal_State_Penalty>
-0

> <b_epik_Metal_Only>
0

> <s_lp_Force_Field>
OPLS_2005

> <r_lp_Energy>
38.6998

> <b_lp_Chiralities_Consistent>
1

> <s_lp_Variant>
AV-unprocessed.smi:2192-1

> <Gold.Version>
5.8.1

> <Gold.Id.Protein>
6NUR|6NUR_protein|mol2

> <Gold.PLP.Fitness>
57.4953

> <Gold.PLP.PLP>
-53.0631

> <Gold.PLP.part.hbond>
-2.2873

> <Gold.PLP.part.metal>
0.0000

> <Gold.PLP.part.buried>
-6.9750

> <Gold.PLP.part.nonpolar>
-43.5020

> <Gold.PLP.part.repulsive>
0.2395

> <Gold.PLP.ligand.clash>
0.0005

> <Gold.PLP.ligand.torsion>
0.5920

> <Gold.PLP.Chemscore.Hbond>
1.8640

> <Gold.PLP.Chemscore.CHOScore>
0.0000

> <Gold.PLP.Chemscore.Metal>
0.0000

> <Gold.Chemscore.Hbonds>
donor molecule, donor type, donor heavy atom, donor atom, acceptor molecule, acceptor atom, score
      P1  H  7989  7998       L1    12  0.16
      P1  H  7997  8008       L1     7  0.85

> <Gold.PLP.Chemscore.Internal.Correction>
0.0248

> <Gold.Rescore>
     Score         DG    S(hbond)    S(metal)    S(lipo)     H(rot)  DE(clash)    DE(int)     intcor
      7.26      -8.97       0.97        0.00      65.07       2.88       0.05       1.66       ----

> <Gold.Chemscore.Fitness>
7.2646

> <Gold.Chemscore.DG>
-8.9749

> <Gold.Chemscore.ZeroCoef>
-5.4800

> <Gold.Chemscore.Hbond>
0.9714

> <Gold.Chemscore.Metal>
0.0000

> <Gold.Chemscore.Lipo>
65.0731

> <Gold.Chemscore.Internal_Hbond>
0.0000

> <Gold.Chemscore.DEClash>
0.0465

> <Gold.Chemscore.DEInternal>
1.6638

> <Gold.Chemscore.Rot>
2.8762

> <Gold.Chemscore.Internal.Correction>
   9.000000E+99

> <Gold.Chemscore.Hbonds>
donor molecule, donor type, donor heavy atom, donor atom, acceptor molecule, acceptor atom, score
      P1  H  7989  7998       L1    12  0.03
      P1  H  7997  8008       L1     7  0.21

> <Gold.Chemscore.Hbond.Weighted>
-3.2445

> <Gold.Chemscore.Metal.Weighted>
-0.0000

> <Gold.Chemscore.Lipo.Weighted>
-7.6136

> <Gold.Chemscore.Internal_Hbond.Weighted>
0.0000

> <Gold.Chemscore.DEClash.Weighted>
0.0465

> <Gold.Chemscore.DEInternal.Weighted>
1.6638

> <Gold.Chemscore.Rot.Weighted>
7.3631

> <Gold.Chemscore.Internal.Correction.Weighted>
   9.000000E+99

> <Gold.Protein.RotatedTorsions>
[ 6907 6896 6895 6894 ] final  -27.35 input  -60.11 | X-H torsion
[ 7974 7965 7964 7962 ] final  -65.64 input  175.53 | X-H torsion
[ 8008 7997 7996 7995 ] final -106.00 input   59.86 | X-H torsion
[ 10167 10162 10161 10158 ] final  143.81 input  -65.29 | X-H torsion
[ 10718 10713 10712 10709 ] final  161.99 input   66.30 | X-H torsion
[ 10763 10752 10751 10750 ] final  -61.80 input  -60.55 | X-H torsion
[ 11005 11000 10999 10996 ] final  154.60 input  -57.11 | X-H torsion

> <Gold.Protein.ActiveResidues>
 VAL166  LYS551  ARG553  GLY616  TRP617  ASP618  TYR619  PRO620  LYS621  CYS622 
 ASP623  PHE694  ASN695  SER759  ASP760  ASP761  ALA762  ILE779  LEU786  VAL792 
 PHE793  MET794  SER795  GLU796  ALA797  LYS798  CYS799  TRP800  GLU811  SER814 

> <Gold.Protein.RotatedAtoms>
  151.1481  135.0213  159.8655 H   0  0  0  0  0  0  0  0  0  0  0  0  # atno 6907 bound_to 6896
  152.5453  134.1421  159.8493 H   0  0  0  0  0  0  0  0  0  0  0  0  # atno 6908 bound_to 6896
  151.1503  133.4866  159.2628 H   0  0  0  0  0  0  0  0  0  0  0  0  # atno 6909 bound_to 6896
  145.7518  140.8905  143.0476 H   0  0  0  0  0  0  0  0  0  0  0  0  # atno 7974 bound_to 7965
  154.9081  140.0411  157.1931 H   0  0  0  0  0  0  0  0  0  0  0  0  # atno 8008 bound_to 7997
  154.8376  140.2909  155.5660 H   0  0  0  0  0  0  0  0  0  0  0  0  # atno 8009 bound_to 7997
  156.2990  140.2489  156.3312 H   0  0  0  0  0  0  0  0  0  0  0  0  # atno 8010 bound_to 7997
  139.4961  144.6015  151.6471 H   0  0  0  0  0  0  0  0  0  0  0  0  # atno 10167 bound_to 10162
  157.1288  131.0511  151.2381 H   0  0  0  0  0  0  0  0  0  0  0  0  # atno 10718 bound_to 10713
  154.2902  135.6255  153.5382 H   0  0  0  0  0  0  0  0  0  0  0  0  # atno 10763 bound_to 10752
  152.9853  135.5654  154.5398 H   0  0  0  0  0  0  0  0  0  0  0  0  # atno 10764 bound_to 10752
  154.5007  135.2872  155.1398 H   0  0  0  0  0  0  0  0  0  0  0  0  # atno 10765 bound_to 10752
  140.1504  134.8679  157.2447 H   0  0  0  0  0  0  0  0  0  0  0  0  # atno 11005 bound_to 11000
  144.6848  139.9601  143.7480 LP  0  0  0  0  0  0  0  0  0  0  0  0  # atno 17320 bound_to 7965
  146.0350  139.3369  143.0732 LP  0  0  0  0  0  0  0  0  0  0  0  0  # atno 17321 bound_to 7965
  140.5666  144.0180  150.6195 LP  0  0  0  0  0  0  0  0  0  0  0  0  # atno 17342 bound_to 10162
  140.3283  143.3093  152.0713 LP  0  0  0  0  0  0  0  0  0  0  0  0  # atno 17343 bound_to 10162
  157.4411  130.7544  149.7070 LP  0  0  0  0  0  0  0  0  0  0  0  0  # atno 17370 bound_to 10713
  155.9812  130.4021  150.3484 LP  0  0  0  0  0  0  0  0  0  0  0  0  # atno 17371 bound_to 10713
  140.2612  134.3569  155.7406 LP  0  0  0  0  0  0  0  0  0  0  0  0  # atno 17394 bound_to 11000
  141.2198  133.7370  156.9083 LP  0  0  0  0  0  0  0  0  0  0  0  0  # atno 17395 bound_to 11000

$$$$
