AV-unprocessed.smi:910|AV-procd|sdf|4130|dock3
  -GOLD-   22720 2 33D 1   1.00000     0.00000
 Structure written by MMmdl.
 47 48  0  0  0  0  0  0  0  0  2 V2000
  146.8816  133.8947  161.7871 C   0  0  0  0  0  0  0  0  0  0  0  0
  147.4012  135.1408  161.1415 C   0  0  0  0  0  0  0  0  0  0  0  0
  147.8591  135.3154  159.8567 N   0  3  0  0  0  0  0  0  0  0  0  0
  148.2346  136.5805  159.6865 C   0  0  0  0  0  0  0  0  0  0  0  0
  148.7353  137.1045  158.4732 N   0  0  0  0  0  0  0  0  0  0  0  0
  149.6897  138.0409  158.3706 C   0  0  0  0  0  0  0  0  0  0  0  0
  150.3692  138.4489  159.3133 O   0  0  0  0  0  0  0  0  0  0  0  0
  149.8064  138.4969  157.1144 N   0  0  0  0  0  0  0  0  0  0  0  0
  150.6447  139.6228  156.7127 C   0  0  0  0  0  0  0  0  0  0  0  0
  150.2690  140.8961  157.4869 C   0  0  0  0  0  0  0  0  0  0  0  0
  151.4072  141.3500  158.2028 O   0  0  0  0  0  0  0  0  0  0  0  0
  151.1368  142.2730  159.2495 C   0  0  2  0  0  0  0  0  0  0  0  0
  150.4584  143.5001  158.6131 C   0  0  0  0  0  0  0  0  0  0  0  0
  151.4067  144.2507  157.6621 C   0  0  0  0  0  0  0  0  0  0  0  0
  152.7088  144.6490  158.3724 C   0  0  0  0  0  0  0  0  0  0  0  0
  153.3979  143.4281  159.0016 C   0  0  0  0  0  0  0  0  0  0  0  0
  152.4528  142.6755  159.9602 C   0  0  2  0  0  0  0  0  0  0  0  0
  153.1591  141.4885  160.6327 C   0  0  0  0  0  0  0  0  0  0  0  0
  148.0423  137.2942  160.8282 O   0  0  0  0  0  0  0  0  0  0  0  0
  147.5213  136.3842  161.7247 C   0  0  0  0  0  0  0  0  0  0  0  0
  147.2017  136.8906  163.0903 C   0  0  0  0  0  0  0  0  0  0  0  0
  147.4245  133.6711  162.7056 H   0  0  0  0  0  0  0  0  0  0  0  0
  146.9830  133.0330  161.1269 H   0  0  0  0  0  0  0  0  0  0  0  0
  145.8262  133.9943  162.0414 H   0  0  0  0  0  0  0  0  0  0  0  0
  147.8888  134.5681  159.1747 H   0  0  0  0  0  0  0  0  0  0  0  0
  149.2196  138.0927  156.3991 H   0  0  0  0  0  0  0  0  0  0  0  0
  151.7029  139.3896  156.8432 H   0  0  0  0  0  0  0  0  0  0  0  0
  150.4936  139.7879  155.6459 H   0  0  0  0  0  0  0  0  0  0  0  0
  149.9444  141.6763  156.7973 H   0  0  0  0  0  0  0  0  0  0  0  0
  149.4360  140.6906  158.1603 H   0  0  0  0  0  0  0  0  0  0  0  0
  150.4446  141.8423  159.9761 H   0  0  0  0  0  0  0  0  0  0  0  0
  149.5611  143.1923  158.0757 H   0  0  0  0  0  0  0  0  0  0  0  0
  150.1266  144.1789  159.3998 H   0  0  0  0  0  0  0  0  0  0  0  0
  151.6385  143.6218  156.8015 H   0  0  0  0  0  0  0  0  0  0  0  0
  150.9112  145.1388  157.2688 H   0  0  0  0  0  0  0  0  0  0  0  0
  153.3837  145.1337  157.6664 H   0  0  0  0  0  0  0  0  0  0  0  0
  152.4914  145.3851  159.1472 H   0  0  0  0  0  0  0  0  0  0  0  0
  153.7410  142.7574  158.2135 H   0  0  0  0  0  0  0  0  0  0  0  0
  154.2908  143.7523  159.5367 H   0  0  0  0  0  0  0  0  0  0  0  0
  152.1839  143.3689  160.7585 H   0  0  0  0  0  0  0  0  0  0  0  0
  153.5110  140.7636  159.8991 H   0  0  0  0  0  0  0  0  0  0  0  0
  152.4906  140.9722  161.3220 H   0  0  0  0  0  0  0  0  0  0  0  0
  154.0253  141.8234  161.2041 H   0  0  0  0  0  0  0  0  0  0  0  0
  146.6227  136.1601  163.6554 H   0  0  0  0  0  0  0  0  0  0  0  0
  146.6194  137.8105  163.0350 H   0  0  0  0  0  0  0  0  0  0  0  0
  148.1154  137.1006  163.6464 H   0  0  0  0  0  0  0  0  0  0  0  0
  148.2773  136.8029  157.6260 H   0  0  0  0  0  0  0  0  0  0  0  0
  1 22  1  0  0  0  0
  1 23  1  0  0  0  0
  1 24  1  0  0  0  0
  1  2  1  0  0  0  0
  2  3  1  0  0  0  0
  2 20  2  0  0  0  0
  3 25  1  0  0  0  0
  3  4  2  0  0  0  0
  4 19  1  0  0  0  0
  4  5  1  0  0  0  0
  5  6  1  0  0  0  0
  5 47  1  0  0  0  0
  6  8  1  0  0  0  0
  6  7  2  0  0  0  0
  8  9  1  0  0  0  0
  8 26  1  0  0  0  0
  9 10  1  0  0  0  0
  9 27  1  0  0  0  0
  9 28  1  0  0  0  0
 10 11  1  0  0  0  0
 10 29  1  0  0  0  0
 10 30  1  0  0  0  0
 11 12  1  0  0  0  0
 12 17  1  0  0  0  0
 12 13  1  0  0  0  0
 12 31  1  0  0  0  0
 13 14  1  0  0  0  0
 13 32  1  0  0  0  0
 13 33  1  0  0  0  0
 14 15  1  0  0  0  0
 14 34  1  0  0  0  0
 14 35  1  0  0  0  0
 15 16  1  0  0  0  0
 15 36  1  0  0  0  0
 15 37  1  0  0  0  0
 16 17  1  0  0  0  0
 16 38  1  0  0  0  0
 16 39  1  0  0  0  0
 17 18  1  0  0  0  0
 17 40  1  0  0  0  0
 18 41  1  0  0  0  0
 18 42  1  0  0  0  0
 18 43  1  0  0  0  0
 19 20  1  0  0  0  0
 20 21  1  0  0  0  0
 21 44  1  0  0  0  0
 21 45  1  0  0  0  0
 21 46  1  0  0  0  0
M  CHG  1   3   1
M  END
> <s_m_source_file>
AV-unprocessed.smi

> <i_m_source_file_index>
910

> <i_lp_mmshare_version>
43012

> <i_f3d_flags>
0

> <s_epik_input>
W0NIM11jMW5jKG9jMVtDSDNdKVtOSF1DKD1PKVtOSF1bQ0gyXVtDSDJdT1tDQEBIXTJbQ0gyXVtDSDJdW0NIMl1bQ0gyXVtDQEhdMltDSDNd

> <s_epik_cmdline>
J2VwaWtfcHl0aG9uJywgJy1waCcsICc3LjAnLCAnLXRuJywgJzgnLCAnLW1hJywgJzIwMCcsICctbWV0YWxfYmluZGluZycsICctaW1hZScsICc8aW5maWxlLm1hZT4nLCAnLW9tYWUnLCAnPG91dGZpbGUubWFlPic=

> <r_epik_Ionization_Penalty>
7.32931

> <r_epik_Ionization_Penalty_Charging>
7.12214

> <r_epik_Ionization_Penalty_Neutral>
0.207166

> <r_epik_State_Penalty>
2.61278

> <r_epik_Charging_Adjusted_Penalty>
9.73492

> <i_epik_Tot_Q>
1

> <i_epik_Tot_abs_Q>
1

> <r_epik_Metal_State_Penalty>
2.64585

> <b_epik_Metal_Only>
0

> <s_lp_Force_Field>
OPLS_2005

> <r_lp_Energy>
15.8254

> <b_lp_Chiralities_Consistent>
1

> <s_lp_Variant>
AV-unprocessed.smi:910-15

> <Gold.Version>
5.8.1

> <Gold.Id.Protein>
6NUR|6NUR_protein|mol2

> <Gold.PLP.Fitness>
46.0572

> <Gold.PLP.PLP>
-43.2362

> <Gold.PLP.part.hbond>
-3.0000

> <Gold.PLP.part.metal>
0.0000

> <Gold.PLP.part.buried>
-4.0275

> <Gold.PLP.part.nonpolar>
-37.4533

> <Gold.PLP.part.repulsive>
0.2314

> <Gold.PLP.ligand.clash>
0.0000

> <Gold.PLP.ligand.torsion>
0.7116

> <Gold.PLP.Chemscore.Hbond>
1.3929

> <Gold.PLP.Chemscore.CHOScore>
0.0000

> <Gold.PLP.Chemscore.Metal>
0.0000

> <Gold.Chemscore.Hbonds>
donor molecule, donor type, donor heavy atom, donor atom, acceptor molecule, acceptor atom, score
      P1  H  6931  6943       L1    19  0.83
      P1  H  6934  6947       L1    19  0.70

> <Gold.PLP.Chemscore.Internal.Correction>
0.0656

> <Gold.Rescore>
     Score         DG    S(hbond)    S(metal)    S(lipo)     H(rot)  DE(clash)    DE(int)     intcor
     17.71     -19.33       1.21        0.00     120.93       1.69       0.09       1.53       ----

> <Gold.Chemscore.Fitness>
17.7115

> <Gold.Chemscore.DG>
-19.3274

> <Gold.Chemscore.ZeroCoef>
-5.4800

> <Gold.Chemscore.Hbond>
1.2090

> <Gold.Chemscore.Metal>
0.0000

> <Gold.Chemscore.Lipo>
120.9255

> <Gold.Chemscore.Internal_Hbond>
0.0000

> <Gold.Chemscore.DEClash>
0.0867

> <Gold.Chemscore.DEInternal>
1.5293

> <Gold.Chemscore.Rot>
1.6949

> <Gold.Chemscore.Internal.Correction>
   9.000000E+99

> <Gold.Chemscore.Hbonds>
donor molecule, donor type, donor heavy atom, donor atom, acceptor molecule, acceptor atom, score
      P1  H  6931  6943       L1    19  0.25
      P1  H  6934  6947       L1    19  0.59

> <Gold.Chemscore.Hbond.Weighted>
-4.0381

> <Gold.Chemscore.Metal.Weighted>
-0.0000

> <Gold.Chemscore.Lipo.Weighted>
-14.1483

> <Gold.Chemscore.Internal_Hbond.Weighted>
0.0000

> <Gold.Chemscore.DEClash.Weighted>
0.0867

> <Gold.Chemscore.DEInternal.Weighted>
1.5293

> <Gold.Chemscore.Rot.Weighted>
4.3390

> <Gold.Chemscore.Internal.Correction.Weighted>
   9.000000E+99

> <Gold.Protein.RotatedTorsions>
[ 6907 6896 6895 6894 ] final   -9.69 input  -60.11 | X-H torsion
[ 7974 7965 7964 7962 ] final  169.34 input  175.53 | X-H torsion
[ 8008 7997 7996 7995 ] final -149.11 input   59.86 | X-H torsion
[ 10167 10162 10161 10158 ] final   96.98 input  -65.29 | X-H torsion
[ 10718 10713 10712 10709 ] final -144.08 input   66.30 | X-H torsion
[ 10763 10752 10751 10750 ] final  -35.24 input  -60.55 | X-H torsion
[ 11005 11000 10999 10996 ] final -162.72 input  -57.11 | X-H torsion

> <Gold.Protein.ActiveResidues>
 VAL166  LYS551  ARG553  GLY616  TRP617  ASP618  TYR619  PRO620  LYS621  CYS622 
 ASP623  PHE694  ASN695  SER759  ASP760  ASP761  ALA762  ILE779  LEU786  VAL792 
 PHE793  MET794  SER795  GLU796  ALA797  LYS798  CYS799  TRP800  GLU811  SER814 

> <Gold.Protein.RotatedAtoms>
  151.4137  135.0988  159.9592 H   0  0  0  0  0  0  0  0  0  0  0  0  # atno 6907 bound_to 6896
  152.5011  133.8773  159.7339 H   0  0  0  0  0  0  0  0  0  0  0  0  # atno 6908 bound_to 6896
  150.9273  133.6751  159.2846 H   0  0  0  0  0  0  0  0  0  0  0  0  # atno 6909 bound_to 6896
  144.7358  139.9040  143.6411 H   0  0  0  0  0  0  0  0  0  0  0  0  # atno 7974 bound_to 7965
  155.6024  140.0663  157.2729 H   0  0  0  0  0  0  0  0  0  0  0  0  # atno 8008 bound_to 7997
  154.4275  140.1816  156.1234 H   0  0  0  0  0  0  0  0  0  0  0  0  # atno 8009 bound_to 7997
  156.0149  140.3323  155.6982 H   0  0  0  0  0  0  0  0  0  0  0  0  # atno 8010 bound_to 7997
  139.7843  144.6876  150.9979 H   0  0  0  0  0  0  0  0  0  0  0  0  # atno 10167 bound_to 10162
  156.3658  130.7762  151.1936 H   0  0  0  0  0  0  0  0  0  0  0  0  # atno 10718 bound_to 10713
  153.8599  135.6841  153.4784 H   0  0  0  0  0  0  0  0  0  0  0  0  # atno 10763 bound_to 10752
  153.1348  135.4682  154.9403 H   0  0  0  0  0  0  0  0  0  0  0  0  # atno 10764 bound_to 10752
  154.7763  135.3254  154.8033 H   0  0  0  0  0  0  0  0  0  0  0  0  # atno 10765 bound_to 10752
  140.6061  134.4897  157.5210 H   0  0  0  0  0  0  0  0  0  0  0  0  # atno 11005 bound_to 11000
  146.1051  139.4049  143.0323 LP  0  0  0  0  0  0  0  0  0  0  0  0  # atno 17320 bound_to 7965
  145.7524  140.9967  143.1243 LP  0  0  0  0  0  0  0  0  0  0  0  0  # atno 17321 bound_to 7965
  140.7819  143.4449  151.0497 LP  0  0  0  0  0  0  0  0  0  0  0  0  # atno 17342 bound_to 10162
  139.8128  143.7927  152.3172 LP  0  0  0  0  0  0  0  0  0  0  0  0  # atno 17343 bound_to 10162
  157.7478  131.0387  150.4514 LP  0  0  0  0  0  0  0  0  0  0  0  0  # atno 17370 bound_to 10713
  156.4732  130.4057  149.6505 LP  0  0  0  0  0  0  0  0  0  0  0  0  # atno 17371 bound_to 10713
  139.9212  134.8146  156.1207 LP  0  0  0  0  0  0  0  0  0  0  0  0  # atno 17394 bound_to 11000
  141.0839  133.6742  156.2395 LP  0  0  0  0  0  0  0  0  0  0  0  0  # atno 17395 bound_to 11000

$$$$
