AV-unprocessed.smi:2967|AV-procd|sdf|11326|dock7
  -GOLD-   2272016233D 1   1.00000     0.00000
 Structure written by MMmdl.
 38 39  0  0  0  0  0  0  0  0  1 V2000
  151.4571  140.3444  156.4565 O   0  0  0  0  0  0  0  0  0  0  0  0
  150.6921  141.2265  156.0635 C   0  0  0  0  0  0  0  0  0  0  0  0
  149.6610  140.9430  154.9614 C   0  0  0  0  0  0  0  0  0  0  0  0
  148.3630  141.5926  155.1977 N   0  0  0  0  0  0  0  0  0  0  0  0
  147.6920  142.2145  154.1543 C   0  0  0  0  0  0  0  0  0  0  0  0
  146.4984  142.8368  154.3010 C   0  0  0  0  0  0  0  0  0  0  0  0
  145.8447  142.8827  155.6045 C   0  0  0  0  0  0  0  0  0  0  0  0
  144.7634  143.4184  155.8369 O   0  0  0  0  0  0  0  0  0  0  0  0
  146.5528  142.2498  156.6296 N   0  0  0  0  0  0  0  0  0  0  0  0
  147.7842  141.6085  156.4857 C   0  0  0  0  0  0  0  0  0  0  0  0
  148.3261  141.0849  157.4586 O   0  0  0  0  0  0  0  0  0  0  0  0
  150.6873  142.4723  156.5627 N   0  0  0  0  0  0  0  0  0  0  0  0
  151.5722  142.9740  157.6116 C   0  0  0  0  0  0  0  0  0  0  0  0
  151.3259  142.1590  158.8984 C   0  0  0  0  0  0  0  0  0  0  0  0
  152.4184  142.3594  159.9625 C   0  0  0  0  0  0  0  0  0  0  0  0
  152.2102  143.5496  160.9156 C   0  0  0  0  0  0  0  0  0  0  0  0
  151.6601  144.8432  160.2903 C   0  0  0  0  0  0  0  0  0  0  0  0
  152.1808  145.1642  158.8804 C   0  0  0  0  0  0  0  0  0  0  0  0
  151.3518  144.4924  157.7720 C   0  0  0  0  0  0  0  0  0  0  0  0
  146.1408  142.2594  157.5513 H   0  0  0  0  0  0  0  0  0  0  0  0
  150.0806  141.2747  154.0106 H   0  0  0  0  0  0  0  0  0  0  0  0
  149.5271  139.8644  154.8560 H   0  0  0  0  0  0  0  0  0  0  0  0
  148.1409  142.2092  153.1710 H   0  0  0  0  0  0  0  0  0  0  0  0
  146.0252  143.3039  153.4496 H   0  0  0  0  0  0  0  0  0  0  0  0
  150.0215  143.1288  156.1816 H   0  0  0  0  0  0  0  0  0  0  0  0
  152.6052  142.8039  157.3014 H   0  0  0  0  0  0  0  0  0  0  0  0
  150.3380  142.3634  159.3128 H   0  0  0  0  0  0  0  0  0  0  0  0
  151.3229  141.1008  158.6323 H   0  0  0  0  0  0  0  0  0  0  0  0
  152.4877  141.4566  160.5702 H   0  0  0  0  0  0  0  0  0  0  0  0
  153.3896  142.4471  159.4737 H   0  0  0  0  0  0  0  0  0  0  0  0
  151.5391  143.2501  161.7217 H   0  0  0  0  0  0  0  0  0  0  0  0
  153.1648  143.7656  161.3969 H   0  0  0  0  0  0  0  0  0  0  0  0
  150.5701  144.8069  160.2748 H   0  0  0  0  0  0  0  0  0  0  0  0
  151.9080  145.6696  160.9575 H   0  0  0  0  0  0  0  0  0  0  0  0
  152.1099  146.2428  158.7355 H   0  0  0  0  0  0  0  0  0  0  0  0
  153.2396  144.9210  158.7852 H   0  0  0  0  0  0  0  0  0  0  0  0
  151.5999  144.9771  156.8268 H   0  0  0  0  0  0  0  0  0  0  0  0
  150.2931  144.6982  157.9363 H   0  0  0  0  0  0  0  0  0  0  0  0
  1  2  2  0  0  0  0
  2  3  1  0  0  0  0
  2 12  1  0  0  0  0
  3  4  1  0  0  0  0
  3 21  1  0  0  0  0
  3 22  1  0  0  0  0
  4 10  1  0  0  0  0
  4  5  1  0  0  0  0
  5  6  2  0  0  0  0
  5 23  1  0  0  0  0
  6  7  1  0  0  0  0
  6 24  1  0  0  0  0
  7  8  2  0  0  0  0
  7  9  1  0  0  0  0
  9 20  1  0  0  0  0
  9 10  1  0  0  0  0
 10 11  2  0  0  0  0
 12 13  1  0  0  0  0
 12 25  1  0  0  0  0
 13 19  1  0  0  0  0
 13 14  1  0  0  0  0
 13 26  1  0  0  0  0
 14 15  1  0  0  0  0
 14 27  1  0  0  0  0
 14 28  1  0  0  0  0
 15 16  1  0  0  0  0
 15 29  1  0  0  0  0
 15 30  1  0  0  0  0
 16 17  1  0  0  0  0
 16 31  1  0  0  0  0
 16 32  1  0  0  0  0
 17 18  1  0  0  0  0
 17 33  1  0  0  0  0
 17 34  1  0  0  0  0
 18 19  1  0  0  0  0
 18 35  1  0  0  0  0
 18 36  1  0  0  0  0
 19 37  1  0  0  0  0
 19 38  1  0  0  0  0
M  END
> <s_m_source_file>
AV-unprocessed.smi

> <i_m_source_file_index>
2967

> <i_lp_mmshare_version>
43012

> <i_f3d_flags>
0

> <s_epik_input>
W0NIMl0xW0NIMl1bQ0gyXVtDSDJdW0NIMl1bQ0gyXVtDSF0xW05IXUMoPU8pW0NIMl1uMltjSF1bY0hdYyg9TylbbkhdYzI9Tw==

> <s_epik_cmdline>
J2VwaWtfcHl0aG9uJywgJy1waCcsICc3LjAnLCAnLXRuJywgJzgnLCAnLW1hJywgJzIwMCcsICctbWV0YWxfYmluZGluZycsICctaW1hZScsICc8aW5maWxlLm1hZT4nLCAnLW9tYWUnLCAnPG91dGZpbGUubWFlPic=

> <r_lp_tautomer_probability>
0.999537

> <r_epik_Ionization_Penalty>
0.00321433

> <r_epik_Ionization_Penalty_Charging>
0.00321431

> <r_epik_Ionization_Penalty_Neutral>
2.02148e-08

> <r_epik_State_Penalty>
0.00226744

> <r_epik_Charging_Adjusted_Penalty>
0.00548175

> <i_epik_Tot_Q>
0

> <i_epik_Tot_abs_Q>
0

> <r_epik_Metal_State_Penalty>
0.364272

> <b_epik_Metal_Only>
0

> <s_lp_Force_Field>
OPLS_2005

> <r_lp_Energy>
14.3008

> <b_lp_Chiralities_Consistent>
1

> <s_lp_Variant>
AV-unprocessed.smi:2967-1

> <Gold.Version>
5.8.1

> <Gold.Id.Protein>
6NUR|6NUR_protein|mol2

> <Gold.PLP.Fitness>
44.4792

> <Gold.PLP.PLP>
-42.5758

> <Gold.PLP.part.hbond>
-1.0000

> <Gold.PLP.part.metal>
0.0000

> <Gold.PLP.part.buried>
-4.0328

> <Gold.PLP.part.nonpolar>
-37.8443

> <Gold.PLP.part.repulsive>
0.2445

> <Gold.PLP.ligand.clash>
0.0000

> <Gold.PLP.ligand.torsion>
0.5560

> <Gold.PLP.Chemscore.Hbond>
1.0000

> <Gold.PLP.Chemscore.CHOScore>
0.0000

> <Gold.PLP.Chemscore.Metal>
0.0000

> <Gold.Chemscore.Hbonds>
donor molecule, donor type, donor heavy atom, donor atom, acceptor molecule, acceptor atom, score
      L1  H    12    25       P1  8028  1.00

> <Gold.PLP.Chemscore.Internal.Correction>
0.0153

> <Gold.Rescore>
     Score         DG    S(hbond)    S(metal)    S(lipo)     H(rot)  DE(clash)    DE(int)     intcor
     14.45     -16.18       0.99        0.00     100.17       1.69       0.04       1.69       ----

> <Gold.Chemscore.Fitness>
14.4521

> <Gold.Chemscore.DG>
-16.1823

> <Gold.Chemscore.ZeroCoef>
-5.4800

> <Gold.Chemscore.Hbond>
0.9888

> <Gold.Chemscore.Metal>
0.0000

> <Gold.Chemscore.Lipo>
100.1671

> <Gold.Chemscore.Internal_Hbond>
0.0000

> <Gold.Chemscore.DEClash>
0.0396

> <Gold.Chemscore.DEInternal>
1.6905

> <Gold.Chemscore.Rot>
1.6874

> <Gold.Chemscore.Internal.Correction>
   9.000000E+99

> <Gold.Chemscore.Hbonds>
donor molecule, donor type, donor heavy atom, donor atom, acceptor molecule, acceptor atom, score
      L1  H    12    25       P1  8028  0.94

> <Gold.Chemscore.Hbond.Weighted>
-3.3025

> <Gold.Chemscore.Metal.Weighted>
-0.0000

> <Gold.Chemscore.Lipo.Weighted>
-11.7195

> <Gold.Chemscore.Internal_Hbond.Weighted>
0.0000

> <Gold.Chemscore.DEClash.Weighted>
0.0396

> <Gold.Chemscore.DEInternal.Weighted>
1.6905

> <Gold.Chemscore.Rot.Weighted>
4.3198

> <Gold.Chemscore.Internal.Correction.Weighted>
   9.000000E+99

> <Gold.Protein.RotatedTorsions>
[ 6907 6896 6895 6894 ] final   70.48 input  -60.11 | X-H torsion
[ 7974 7965 7964 7962 ] final   98.67 input  175.53 | X-H torsion
[ 8008 7997 7996 7995 ] final  142.42 input   59.86 | X-H torsion
[ 10167 10162 10161 10158 ] final -159.50 input  -65.29 | X-H torsion
[ 10718 10713 10712 10709 ] final    9.06 input   66.30 | X-H torsion
[ 10763 10752 10751 10750 ] final   82.26 input  -60.55 | X-H torsion
[ 11005 11000 10999 10996 ] final  131.40 input  -57.11 | X-H torsion

> <Gold.Protein.ActiveResidues>
 VAL166  LYS551  ARG553  GLY616  TRP617  ASP618  TYR619  PRO620  LYS621  CYS622 
 ASP623  PHE694  ASN695  SER759  ASP760  ASP761  ALA762  ILE779  LEU786  VAL792 
 PHE793  MET794  SER795  GLU796  ALA797  LYS798  CYS799  TRP800  GLU811  SER814 

> <Gold.Protein.RotatedAtoms>
  152.4752  134.4862  159.9680 H   0  0  0  0  0  0  0  0  0  0  0  0  # atno 6907 bound_to 6896
  151.4880  133.3525  159.2856 H   0  0  0  0  0  0  0  0  0  0  0  0  # atno 6908 bound_to 6896
  150.8785  134.8199  159.7269 H   0  0  0  0  0  0  0  0  0  0  0  0  # atno 6909 bound_to 6896
  145.4091  139.2336  143.3258 H   0  0  0  0  0  0  0  0  0  0  0  0  # atno 7974 bound_to 7965
  156.2949  140.2289  156.4724 H   0  0  0  0  0  0  0  0  0  0  0  0  # atno 8008 bound_to 7997
  154.7923  140.0453  157.1231 H   0  0  0  0  0  0  0  0  0  0  0  0  # atno 8009 bound_to 7997
  154.9630  140.3057  155.5025 H   0  0  0  0  0  0  0  0  0  0  0  0  # atno 8010 bound_to 7997
  139.6610  143.9912  152.2225 H   0  0  0  0  0  0  0  0  0  0  0  0  # atno 10167 bound_to 10162
  156.9608  130.5932  149.5662 H   0  0  0  0  0  0  0  0  0  0  0  0  # atno 10718 bound_to 10713
  153.1187  135.4735  154.9159 H   0  0  0  0  0  0  0  0  0  0  0  0  # atno 10763 bound_to 10752
  154.7554  135.3117  154.8481 H   0  0  0  0  0  0  0  0  0  0  0  0  # atno 10764 bound_to 10752
  153.9051  135.6871  153.4807 H   0  0  0  0  0  0  0  0  0  0  0  0  # atno 10765 bound_to 10752
  139.9728  134.9572  156.9432 H   0  0  0  0  0  0  0  0  0  0  0  0  # atno 11005 bound_to 11000
  146.2714  140.4800  142.8813 LP  0  0  0  0  0  0  0  0  0  0  0  0  # atno 17320 bound_to 7965
  144.8321  140.6724  143.6284 LP  0  0  0  0  0  0  0  0  0  0  0  0  # atno 17321 bound_to 7965
  139.9651  144.6531  150.8042 LP  0  0  0  0  0  0  0  0  0  0  0  0  # atno 17342 bound_to 10162
  140.7580  143.3098  151.2873 LP  0  0  0  0  0  0  0  0  0  0  0  0  # atno 17343 bound_to 10162
  156.0323  130.5413  150.8565 LP  0  0  0  0  0  0  0  0  0  0  0  0  # atno 17370 bound_to 10713
  157.5659  131.0946  150.9491 LP  0  0  0  0  0  0  0  0  0  0  0  0  # atno 17371 bound_to 10713
  140.5258  134.0862  155.7303 LP  0  0  0  0  0  0  0  0  0  0  0  0  # atno 17394 bound_to 11000
  141.1407  133.9144  157.2333 LP  0  0  0  0  0  0  0  0  0  0  0  0  # atno 17395 bound_to 11000

$$$$
