AV-unprocessed.smi:2342|AV-procd|sdf|9355|dock10
  -GOLD-   2272012573D 1   1.00000     0.00000
 Structure written by MMmdl.
 38 38  0  0  0  0  0  0  0  0  2 V2000
  150.5944  140.3280  155.7522 C   0  0  0  0  0  0  0  0  0  0  0  0
  150.7715  138.8320  155.4163 C   0  0  1  0  0  0  0  0  0  0  0  0
  149.5589  138.2397  154.6534 C   0  0  0  0  0  0  0  0  0  0  0  0
  149.7362  136.8230  154.3564 N   0  0  0  0  0  0  0  0  0  0  0  0
  150.1750  135.8944  155.2201 C   0  0  0  0  0  0  0  0  0  0  0  0
  150.5709  136.1530  156.3565 O   0  0  0  0  0  0  0  0  0  0  0  0
  150.1415  134.4459  154.7303 C   0  0  0  0  0  0  0  0  0  0  0  0
  148.7202  133.9658  154.6618 C   0  0  0  0  0  0  0  0  0  0  0  0
  147.8560  133.7959  155.7136 C   0  0  0  0  0  0  0  0  0  0  0  0
  146.2860  133.2629  155.1829 S   0  0  0  0  0  0  0  0  0  0  0  0
  146.8656  133.2796  153.5132 C   0  0  0  0  0  0  0  0  0  0  0  0
  146.0318  132.9379  152.3019 C   0  0  0  0  0  0  0  0  0  0  0  0
  144.6966  133.7056  152.3564 C   0  0  0  0  0  0  0  0  0  0  0  0
  145.7038  131.4299  152.2539 C   0  0  0  0  0  0  0  0  0  0  0  0
  146.8069  133.2861  151.0163 C   0  0  0  0  0  0  0  0  0  0  0  0
  148.1468  133.6540  153.4247 N   0  0  0  0  0  0  0  0  0  0  0  0
  152.0948  138.6164  154.6556 C   0  0  0  0  0  0  0  0  0  0  0  0
  152.9458  139.5341  154.6618 O   0  0  0  0  0  0  0  0  0  0  0  0
  152.2351  137.5223  154.0654 O   0  5  0  0  0  0  0  0  0  0  0  0
  151.4716  140.7419  156.2506 H   0  0  0  0  0  0  0  0  0  0  0  0
  149.7516  140.4832  156.4254 H   0  0  0  0  0  0  0  0  0  0  0  0
  150.4125  140.9176  154.8533 H   0  0  0  0  0  0  0  0  0  0  0  0
  150.8752  138.2914  156.3581 H   0  0  0  0  0  0  0  0  0  0  0  0
  148.6532  138.3350  155.2537 H   0  0  0  0  0  0  0  0  0  0  0  0
  149.3765  138.7872  153.7268 H   0  0  0  0  0  0  0  0  0  0  0  0
  149.4333  136.5117  153.4449 H   0  0  0  0  0  0  0  0  0  0  0  0
  150.6232  134.3833  153.7535 H   0  0  0  0  0  0  0  0  0  0  0  0
  150.7273  133.8208  155.4054 H   0  0  0  0  0  0  0  0  0  0  0  0
  148.0435  133.9670  156.7634 H   0  0  0  0  0  0  0  0  0  0  0  0
  144.0670  133.4720  151.4970 H   0  0  0  0  0  0  0  0  0  0  0  0
  144.8548  134.7848  152.3591 H   0  0  0  0  0  0  0  0  0  0  0  0
  144.1320  133.4558  153.2555 H   0  0  0  0  0  0  0  0  0  0  0  0
  145.1352  131.1129  153.1291 H   0  0  0  0  0  0  0  0  0  0  0  0
  146.6086  130.8228  152.2064 H   0  0  0  0  0  0  0  0  0  0  0  0
  145.1048  131.1828  151.3765 H   0  0  0  0  0  0  0  0  0  0  0  0
  146.2325  133.0332  150.1246 H   0  0  0  0  0  0  0  0  0  0  0  0
  147.7524  132.7446  150.9643 H   0  0  0  0  0  0  0  0  0  0  0  0
  147.0351  134.3511  150.9630 H   0  0  0  0  0  0  0  0  0  0  0  0
  1  2  1  0  0  0  0
  1 20  1  0  0  0  0
  1 21  1  0  0  0  0
  1 22  1  0  0  0  0
  2  3  1  0  0  0  0
  2 17  1  0  0  0  0
  2 23  1  0  0  0  0
  3  4  1  0  0  0  0
  3 24  1  0  0  0  0
  3 25  1  0  0  0  0
  4  5  1  0  0  0  0
  4 26  1  0  0  0  0
  5  6  2  0  0  0  0
  5  7  1  0  0  0  0
  7  8  1  0  0  0  0
  7 27  1  0  0  0  0
  7 28  1  0  0  0  0
  8 16  1  0  0  0  0
  8  9  2  0  0  0  0
  9 10  1  0  0  0  0
  9 29  1  0  0  0  0
 10 11  1  0  0  0  0
 11 12  1  0  0  0  0
 11 16  2  0  0  0  0
 12 13  1  0  0  0  0
 12 14  1  0  0  0  0
 12 15  1  0  0  0  0
 13 30  1  0  0  0  0
 13 31  1  0  0  0  0
 13 32  1  0  0  0  0
 14 33  1  0  0  0  0
 14 34  1  0  0  0  0
 14 35  1  0  0  0  0
 15 36  1  0  0  0  0
 15 37  1  0  0  0  0
 15 38  1  0  0  0  0
 17 18  2  0  0  0  0
 17 19  1  0  0  0  0
M  CHG  1  19  -1
M  END
> <s_m_source_file>
AV-unprocessed.smi

> <i_m_source_file_index>
2342

> <i_lp_mmshare_version>
43012

> <i_f3d_flags>
0

> <s_epik_input>
Tz1DKFtPSF0pW0NASF0oW0NIM10pW0NIMl1bTkhdQyg9TylbQ0gyXWMxW2NIXXNjKG4xKUMoW0NIM10pKFtDSDNdKVtDSDNd

> <s_epik_cmdline>
J2VwaWtfcHl0aG9uJywgJy1waCcsICc3LjAnLCAnLXRuJywgJzgnLCAnLW1hJywgJzIwMCcsICctbWV0YWxfYmluZGluZycsICctaW1hZScsICc8aW5maWxlLm1hZT4nLCAnLW9tYWUnLCAnPG91dGZpbGUubWFlPic=

> <r_epik_Ionization_Penalty>
0.00120065

> <r_epik_Ionization_Penalty_Charging>
0.00115909

> <r_epik_Ionization_Penalty_Neutral>
4.15663e-05

> <r_epik_State_Penalty>
0.00076313

> <r_epik_Charging_Adjusted_Penalty>
0.00192222

> <i_epik_Tot_Q>
-1

> <i_epik_Tot_abs_Q>
1

> <r_epik_Metal_State_Penalty>
-0

> <b_epik_Metal_Only>
0

> <s_lp_Force_Field>
OPLS_2005

> <r_lp_Energy>
-2.08659

> <b_lp_Chiralities_Consistent>
1

> <s_lp_Variant>
AV-unprocessed.smi:2342-2

> <Gold.Version>
5.8.1

> <Gold.Id.Protein>
6NUR|6NUR_protein|mol2

> <Gold.PLP.Fitness>
41.8020

> <Gold.PLP.PLP>
-29.2738

> <Gold.PLP.part.hbond>
-4.0596

> <Gold.PLP.part.metal>
0.0000

> <Gold.PLP.part.buried>
-6.6730

> <Gold.PLP.part.nonpolar>
-20.5058

> <Gold.PLP.part.repulsive>
0.7804

> <Gold.PLP.ligand.clash>
0.0000

> <Gold.PLP.ligand.torsion>
1.0080

> <Gold.PLP.Chemscore.Hbond>
4.8191

> <Gold.PLP.Chemscore.CHOScore>
0.0000

> <Gold.PLP.Chemscore.Metal>
0.0000

> <Gold.Chemscore.Hbonds>
donor molecule, donor type, donor heavy atom, donor atom, acceptor molecule, acceptor atom, score
      L1  H     4    26       P1  7948  1.00
      P1  H  7989  7998       L1    18  0.18
      P1  H  7997  8008       L1    18  1.92
      P1  H 10752 10765       L1    19  1.66

> <Gold.PLP.Chemscore.Internal.Correction>
0.0868

> <Gold.Rescore>
     Score         DG    S(hbond)    S(metal)    S(lipo)     H(rot)  DE(clash)    DE(int)     intcor
     10.04     -14.86       2.72        0.00      54.72       2.38       0.04       4.78       ----

> <Gold.Chemscore.Fitness>
10.0372

> <Gold.Chemscore.DG>
-14.8577

> <Gold.Chemscore.ZeroCoef>
-5.4800

> <Gold.Chemscore.Hbond>
2.7161

> <Gold.Chemscore.Metal>
0.0000

> <Gold.Chemscore.Lipo>
54.7153

> <Gold.Chemscore.Internal_Hbond>
0.0000

> <Gold.Chemscore.DEClash>
0.0417

> <Gold.Chemscore.DEInternal>
4.7788

> <Gold.Chemscore.Rot>
2.3812

> <Gold.Chemscore.Internal.Correction>
   9.000000E+99

> <Gold.Chemscore.Hbonds>
donor molecule, donor type, donor heavy atom, donor atom, acceptor molecule, acceptor atom, score
      L1  H     4    26       P1  7948  0.78
      P1  H  7989  7998       L1    18  0.02
      P1  H  7997  8008       L1    18  0.90
      P1  H 10752 10765       L1    19  0.82

> <Gold.Chemscore.Hbond.Weighted>
-9.0719

> <Gold.Chemscore.Metal.Weighted>
-0.0000

> <Gold.Chemscore.Lipo.Weighted>
-6.4017

> <Gold.Chemscore.Internal_Hbond.Weighted>
0.0000

> <Gold.Chemscore.DEClash.Weighted>
0.0417

> <Gold.Chemscore.DEInternal.Weighted>
4.7788

> <Gold.Chemscore.Rot.Weighted>
6.0959

> <Gold.Chemscore.Internal.Correction.Weighted>
   9.000000E+99

> <Gold.Protein.RotatedTorsions>
[ 6907 6896 6895 6894 ] final  -25.55 input  -60.11 | X-H torsion
[ 7974 7965 7964 7962 ] final  -67.05 input  175.53 | X-H torsion
[ 8008 7997 7996 7995 ] final  -15.43 input   59.86 | X-H torsion
[ 10167 10162 10161 10158 ] final  -28.80 input  -65.29 | X-H torsion
[ 10718 10713 10712 10709 ] final -119.30 input   66.30 | X-H torsion
[ 10763 10752 10751 10750 ] final  151.75 input  -60.55 | X-H torsion
[ 11005 11000 10999 10996 ] final -104.78 input  -57.11 | X-H torsion

> <Gold.Protein.ActiveResidues>
 VAL166  LYS551  ARG553  GLY616  TRP617  ASP618  TYR619  PRO620  LYS621  CYS622 
 ASP623  PHE694  ASN695  SER759  ASP760  ASP761  ALA762  ILE779  LEU786  VAL792 
 PHE793  MET794  SER795  GLU796  ALA797  LYS798  CYS799  TRP800  GLU811  SER814 

> <Gold.Protein.RotatedAtoms>
  151.1736  135.0329  159.8761 H   0  0  0  0  0  0  0  0  0  0  0  0  # atno 6907 bound_to 6896
  152.5448  134.1142  159.8382 H   0  0  0  0  0  0  0  0  0  0  0  0  # atno 6908 bound_to 6896
  151.1251  133.5030  159.2633 H   0  0  0  0  0  0  0  0  0  0  0  0  # atno 6909 bound_to 6896
  145.7341  140.8984  143.0564 H   0  0  0  0  0  0  0  0  0  0  0  0  # atno 7974 bound_to 7965
  154.5131  140.2196  155.9119 H   0  0  0  0  0  0  0  0  0  0  0  0  # atno 8008 bound_to 7997
  156.1575  140.3149  155.8717 H   0  0  0  0  0  0  0  0  0  0  0  0  # atno 8009 bound_to 7997
  155.3817  140.0473  157.3034 H   0  0  0  0  0  0  0  0  0  0  0  0  # atno 8010 bound_to 7997
  140.7266  143.3980  151.1314 H   0  0  0  0  0  0  0  0  0  0  0  0  # atno 10167 bound_to 10162
  156.1171  130.6294  150.9399 H   0  0  0  0  0  0  0  0  0  0  0  0  # atno 10718 bound_to 10713
  154.1088  135.2840  155.3235 H   0  0  0  0  0  0  0  0  0  0  0  0  # atno 10763 bound_to 10752
  154.6504  135.5371  153.7898 H   0  0  0  0  0  0  0  0  0  0  0  0  # atno 10764 bound_to 10752
  153.0353  135.6508  154.1248 H   0  0  0  0  0  0  0  0  0  0  0  0  # atno 10765 bound_to 10752
  141.1085  133.8752  157.1653 H   0  0  0  0  0  0  0  0  0  0  0  0  # atno 11005 bound_to 11000
  144.6886  139.9371  143.7474 LP  0  0  0  0  0  0  0  0  0  0  0  0  # atno 17320 bound_to 7965
  146.0510  139.3511  143.0639 LP  0  0  0  0  0  0  0  0  0  0  0  0  # atno 17321 bound_to 7965
  139.7595  143.8656  152.3097 LP  0  0  0  0  0  0  0  0  0  0  0  0  # atno 17342 bound_to 10162
  139.8537  144.7151  150.9182 LP  0  0  0  0  0  0  0  0  0  0  0  0  # atno 17343 bound_to 10162
  157.6354  131.0916  150.8359 LP  0  0  0  0  0  0  0  0  0  0  0  0  # atno 17370 bound_to 10713
  156.8460  130.5064  149.5316 LP  0  0  0  0  0  0  0  0  0  0  0  0  # atno 17371 bound_to 10713
  139.9966  135.0044  157.0096 LP  0  0  0  0  0  0  0  0  0  0  0  0  # atno 17394 bound_to 11000
  140.4839  134.1261  155.7221 LP  0  0  0  0  0  0  0  0  0  0  0  0  # atno 17395 bound_to 11000

$$$$
