AV-unprocessed.smi:1641|AV-procd|sdf|6556|dock7
  -GOLD-   22720 7243D 1   1.00000     0.00000
 Structure written by MMmdl.
 41 42  0  0  0  0  0  0  0  0  1 V2000
  146.5934  130.2977  152.0445 C   0  0  0  0  0  0  0  0  0  0  0  0
  147.4418  131.3629  152.6508 C   0  0  0  0  0  0  0  0  0  0  0  0
  148.2026  131.1543  153.7323 N   0  0  0  0  0  0  0  0  0  0  0  0
  148.9027  132.2915  154.1105 N   0  0  0  0  0  0  0  0  0  0  0  0
  148.6482  133.3277  153.2998 C   0  0  0  0  0  0  0  0  0  0  0  0
  149.2292  134.6142  153.4560 N   0  0  0  0  0  0  0  0  0  0  0  0
  150.0279  135.0534  154.4446 C   0  0  0  0  0  0  0  0  0  0  0  0
  150.3937  134.3883  155.4144 O   0  0  0  0  0  0  0  0  0  0  0  0
  150.3834  136.3314  154.2500 N   0  0  0  0  0  0  0  0  0  0  0  0
  151.2330  137.1076  155.1450 C   0  0  0  0  0  0  0  0  0  0  0  0
  151.9105  138.2733  154.4005 C   0  0  0  0  0  0  0  0  0  0  0  0
  151.2228  139.5585  154.5097 N   0  0  0  0  0  0  0  0  0  0  0  0
  151.3166  140.1318  155.8503 C   0  0  0  0  0  0  0  0  0  0  0  0
  150.5653  141.4729  155.9592 C   0  0  2  0  0  0  0  0  0  0  0  0
  150.5850  142.0328  157.3853 C   0  0  0  0  0  0  0  0  0  0  0  0
  149.2069  141.2827  155.5726 O   0  0  0  0  0  0  0  0  0  0  0  0
  149.0635  140.7668  154.2521 C   0  0  2  0  0  0  0  0  0  0  0  0
  147.5682  140.6151  153.9543 C   0  0  0  0  0  0  0  0  0  0  0  0
  149.8149  139.4260  154.1531 C   0  0  0  0  0  0  0  0  0  0  0  0
  147.5255  132.9926  151.9926 S   0  0  0  0  0  0  0  0  0  0  0  0
  147.1417  129.7934  151.2488 H   0  0  0  0  0  0  0  0  0  0  0  0
  145.6866  130.7330  151.6246 H   0  0  0  0  0  0  0  0  0  0  0  0
  146.3090  129.5613  152.7970 H   0  0  0  0  0  0  0  0  0  0  0  0
  149.0067  135.2798  152.7307 H   0  0  0  0  0  0  0  0  0  0  0  0
  150.0395  136.8039  153.4268 H   0  0  0  0  0  0  0  0  0  0  0  0
  150.6390  137.4616  155.9884 H   0  0  0  0  0  0  0  0  0  0  0  0
  151.9910  136.4396  155.5551 H   0  0  0  0  0  0  0  0  0  0  0  0
  152.9178  138.3807  154.8057 H   0  0  0  0  0  0  0  0  0  0  0  0
  152.0381  138.0151  153.3480 H   0  0  0  0  0  0  0  0  0  0  0  0
  150.9133  139.4284  156.5808 H   0  0  0  0  0  0  0  0  0  0  0  0
  152.3599  140.2957  156.1182 H   0  0  0  0  0  0  0  0  0  0  0  0
  151.0244  142.2030  155.2900 H   0  0  0  0  0  0  0  0  0  0  0  0
  151.6066  142.2032  157.7258 H   0  0  0  0  0  0  0  0  0  0  0  0
  150.1084  141.3458  158.0853 H   0  0  0  0  0  0  0  0  0  0  0  0
  150.0541  142.9837  157.4380 H   0  0  0  0  0  0  0  0  0  0  0  0
  149.4913  141.4791  153.5445 H   0  0  0  0  0  0  0  0  0  0  0  0
  147.4059  140.2273  152.9485 H   0  0  0  0  0  0  0  0  0  0  0  0
  147.0572  141.5754  154.0268 H   0  0  0  0  0  0  0  0  0  0  0  0
  147.0935  139.9310  154.6582 H   0  0  0  0  0  0  0  0  0  0  0  0
  149.7278  139.0396  153.1369 H   0  0  0  0  0  0  0  0  0  0  0  0
  149.3374  138.6933  154.8062 H   0  0  0  0  0  0  0  0  0  0  0  0
  1  2  1  0  0  0  0
  1 21  1  0  0  0  0
  1 22  1  0  0  0  0
  1 23  1  0  0  0  0
  2 20  1  0  0  0  0
  2  3  2  0  0  0  0
  3  4  1  0  0  0  0
  4  5  2  0  0  0  0
  5  6  1  0  0  0  0
  5 20  1  0  0  0  0
  6  7  1  0  0  0  0
  6 24  1  0  0  0  0
  7  8  2  0  0  0  0
  7  9  1  0  0  0  0
  9 10  1  0  0  0  0
  9 25  1  0  0  0  0
 10 11  1  0  0  0  0
 10 26  1  0  0  0  0
 10 27  1  0  0  0  0
 11 12  1  0  0  0  0
 11 28  1  0  0  0  0
 11 29  1  0  0  0  0
 12 19  1  0  0  0  0
 12 13  1  0  0  0  0
 13 14  1  0  0  0  0
 13 30  1  0  0  0  0
 13 31  1  0  0  0  0
 14 15  1  0  0  0  0
 14 16  1  0  0  0  0
 14 32  1  0  0  0  0
 15 33  1  0  0  0  0
 15 34  1  0  0  0  0
 15 35  1  0  0  0  0
 16 17  1  0  0  0  0
 17 18  1  0  0  0  0
 17 19  1  0  0  0  0
 17 36  1  0  0  0  0
 18 37  1  0  0  0  0
 18 38  1  0  0  0  0
 18 39  1  0  0  0  0
 19 40  1  0  0  0  0
 19 41  1  0  0  0  0
M  END
> <s_m_source_file>
AV-unprocessed.smi

> <i_m_source_file_index>
1641

> <i_lp_mmshare_version>
43012

> <i_f3d_flags>
0

> <s_epik_input>
W0NIM11jMW5uYyhzMSlbTkhdQyg9TylbTkhdW0NIMl1bQ0gyXU4yW0NIMl1bQ0BASF0oW0NIM10pT1tDQEBIXShbQ0gzXSlbQ0gyXTI=

> <s_epik_cmdline>
J2VwaWtfcHl0aG9uJywgJy1waCcsICc3LjAnLCAnLXRuJywgJzgnLCAnLW1hJywgJzIwMCcsICctbWV0YWxfYmluZGluZycsICctaW1hZScsICc8aW5maWxlLm1hZT4nLCAnLW9tYWUnLCAnPG91dGZpbGUubWFlPic=

> <r_lp_tautomer_probability>
1

> <r_epik_Ionization_Penalty>
0.221104

> <r_epik_Ionization_Penalty_Charging>
0

> <r_epik_Ionization_Penalty_Neutral>
0.221104

> <r_epik_State_Penalty>
0.209349

> <r_epik_Charging_Adjusted_Penalty>
0.209349

> <i_epik_Tot_Q>
0

> <i_epik_Tot_abs_Q>
0

> <r_epik_Metal_State_Penalty>
0.560954

> <b_epik_Metal_Only>
0

> <s_lp_Force_Field>
OPLS_2005

> <r_lp_Energy>
18.567

> <b_lp_Chiralities_Consistent>
1

> <s_lp_Variant>
AV-unprocessed.smi:1641-1

> <Gold.Version>
5.8.1

> <Gold.Id.Protein>
6NUR|6NUR_protein|mol2

> <Gold.PLP.Fitness>
43.2291

> <Gold.PLP.PLP>
-35.9234

> <Gold.PLP.part.hbond>
-3.9626

> <Gold.PLP.part.metal>
0.0000

> <Gold.PLP.part.buried>
-2.5419

> <Gold.PLP.part.nonpolar>
-29.5117

> <Gold.PLP.part.repulsive>
0.4249

> <Gold.PLP.ligand.clash>
0.0000

> <Gold.PLP.ligand.torsion>
0.4612

> <Gold.PLP.Chemscore.Hbond>
2.7410

> <Gold.PLP.Chemscore.CHOScore>
0.0000

> <Gold.PLP.Chemscore.Metal>
0.0000

> <Gold.Chemscore.Hbonds>
donor molecule, donor type, donor heavy atom, donor atom, acceptor molecule, acceptor atom, score
      L1  H     6    24       P1  7948  0.23
      L1  H     9    25       P1  7948  0.58
      P1  H  7989  7998       L1    12  0.95

> <Gold.PLP.Chemscore.Internal.Correction>
0.0051

> <Gold.Rescore>
     Score         DG    S(hbond)    S(metal)    S(lipo)     H(rot)  DE(clash)    DE(int)     intcor
     12.53     -14.36       1.36        0.00      72.05       1.60       0.16       1.67       ----

> <Gold.Chemscore.Fitness>
12.5283

> <Gold.Chemscore.DG>
-14.3624

> <Gold.Chemscore.ZeroCoef>
-5.4800

> <Gold.Chemscore.Hbond>
1.3598

> <Gold.Chemscore.Metal>
0.0000

> <Gold.Chemscore.Lipo>
72.0534

> <Gold.Chemscore.Internal_Hbond>
0.0000

> <Gold.Chemscore.DEClash>
0.1609

> <Gold.Chemscore.DEInternal>
1.6732

> <Gold.Chemscore.Rot>
1.5975

> <Gold.Chemscore.Internal.Correction>
   9.000000E+99

> <Gold.Chemscore.Hbonds>
donor molecule, donor type, donor heavy atom, donor atom, acceptor molecule, acceptor atom, score
      L1  H     6    24       P1  7948  0.03
      L1  H     9    25       P1  7948  0.10
      P1  H  7989  7998       L1    12  0.09

> <Gold.Chemscore.Hbond.Weighted>
-4.5417

> <Gold.Chemscore.Metal.Weighted>
-0.0000

> <Gold.Chemscore.Lipo.Weighted>
-8.4303

> <Gold.Chemscore.Internal_Hbond.Weighted>
0.0000

> <Gold.Chemscore.DEClash.Weighted>
0.1609

> <Gold.Chemscore.DEInternal.Weighted>
1.6732

> <Gold.Chemscore.Rot.Weighted>
4.0896

> <Gold.Chemscore.Internal.Correction.Weighted>
   9.000000E+99

> <Gold.Protein.RotatedTorsions>
[ 6907 6896 6895 6894 ] final   85.61 input  -60.11 | X-H torsion
[ 7974 7965 7964 7962 ] final   61.45 input  175.53 | X-H torsion
[ 8008 7997 7996 7995 ] final  -38.10 input   59.86 | X-H torsion
[ 10167 10162 10161 10158 ] final   93.77 input  -65.29 | X-H torsion
[ 10718 10713 10712 10709 ] final   46.70 input   66.30 | X-H torsion
[ 10763 10752 10751 10750 ] final  -28.73 input  -60.55 | X-H torsion
[ 11005 11000 10999 10996 ] final  -33.07 input  -57.11 | X-H torsion

> <Gold.Protein.ActiveResidues>
 VAL166  LYS551  ARG553  GLY616  TRP617  ASP618  TYR619  PRO620  LYS621  CYS622 
 ASP623  PHE694  ASN695  SER759  ASP760  ASP761  ALA762  ILE779  LEU786  VAL792 
 PHE793  MET794  SER795  GLU796  ALA797  LYS798  CYS799  TRP800  GLU811  SER814 

> <Gold.Protein.RotatedAtoms>
  152.5378  134.2560  159.8916 H   0  0  0  0  0  0  0  0  0  0  0  0  # atno 6907 bound_to 6896
  151.2521  133.4338  159.2619 H   0  0  0  0  0  0  0  0  0  0  0  0  # atno 6908 bound_to 6896
  151.0529  134.9699  159.8277 H   0  0  0  0  0  0  0  0  0  0  0  0  # atno 6909 bound_to 6896
  145.8846  139.3467  143.0686 H   0  0  0  0  0  0  0  0  0  0  0  0  # atno 7974 bound_to 7965
  154.4042  140.1587  156.2644 H   0  0  0  0  0  0  0  0  0  0  0  0  # atno 8008 bound_to 7997
  155.9008  140.3433  155.6003 H   0  0  0  0  0  0  0  0  0  0  0  0  # atno 8009 bound_to 7997
  155.7450  140.0797  157.2218 H   0  0  0  0  0  0  0  0  0  0  0  0  # atno 8010 bound_to 7997
  139.8147  144.6758  150.9595 H   0  0  0  0  0  0  0  0  0  0  0  0  # atno 10167 bound_to 10162
  157.4508  130.8137  149.7787 H   0  0  0  0  0  0  0  0  0  0  0  0  # atno 10718 bound_to 10713
  153.7530  135.6924  153.4941 H   0  0  0  0  0  0  0  0  0  0  0  0  # atno 10763 bound_to 10752
  153.1990  135.4443  155.0242 H   0  0  0  0  0  0  0  0  0  0  0  0  # atno 10764 bound_to 10752
  154.8180  135.3408  154.7050 H   0  0  0  0  0  0  0  0  0  0  0  0  # atno 10765 bound_to 10752
  140.9605  133.7167  156.1361 H   0  0  0  0  0  0  0  0  0  0  0  0  # atno 11005 bound_to 11000
  145.8982  140.9260  143.0516 LP  0  0  0  0  0  0  0  0  0  0  0  0  # atno 17320 bound_to 7965
  144.6728  140.0997  143.7461 LP  0  0  0  0  0  0  0  0  0  0  0  0  # atno 17321 bound_to 7965
  140.7816  143.4150  151.0932 LP  0  0  0  0  0  0  0  0  0  0  0  0  # atno 17342 bound_to 10162
  139.7814  143.8349  152.3138 LP  0  0  0  0  0  0  0  0  0  0  0  0  # atno 17343 bound_to 10162
  155.9986  130.3893  150.2695 LP  0  0  0  0  0  0  0  0  0  0  0  0  # atno 17370 bound_to 10713
  157.0866  131.0158  151.3137 LP  0  0  0  0  0  0  0  0  0  0  0  0  # atno 17371 bound_to 10713
  140.7475  134.4082  157.5546 LP  0  0  0  0  0  0  0  0  0  0  0  0  # atno 17394 bound_to 11000
  139.8876  134.8877  156.2518 LP  0  0  0  0  0  0  0  0  0  0  0  0  # atno 17395 bound_to 11000

$$$$
