AV-unprocessed.smi:1005|AV-procd|sdf|4364|dock1
  -GOLD-   22720 2263D 1   1.00000     0.00000
 Structure written by MMmdl.
 56 58  0  0  0  0  0  0  0  0  2 V2000
  152.5430  143.3567  161.5970 C   0  0  0  0  0  0  0  0  0  0  0  0
  152.0349  142.8451  160.2607 C   0  0  0  0  0  0  0  0  0  0  0  0
  152.6025  141.6729  159.7127 C   0  0  0  0  0  0  0  0  0  0  0  0
  152.1568  141.1630  158.4738 C   0  0  0  0  0  0  0  0  0  0  0  0
  152.5622  140.0457  157.7640 N   0  0  0  0  0  0  0  0  0  0  0  0
  151.7730  140.1067  156.6957 C   0  0  0  0  0  0  0  0  0  0  0  0
  150.8965  141.1272  156.6332 N   0  0  0  0  0  0  0  0  0  0  0  0
  149.9334  141.3834  155.5772 C   0  0  0  0  0  0  0  0  0  0  0  0
  150.0693  140.3853  154.4123 C   0  0  2  0  0  0  0  0  0  0  0  0
  149.3382  140.8964  153.3175 O   0  0  0  0  0  0  0  0  0  0  0  0
  149.5224  138.9784  154.7453 C   0  0  0  0  0  0  0  0  0  0  0  0
  148.0650  138.8776  154.8261 N   0  0  0  0  0  0  0  0  0  0  0  0
  147.6648  138.0765  155.9775 C   0  0  0  0  0  0  0  0  0  0  0  0
  146.1368  137.9438  156.0809 C   0  0  0  0  0  0  0  0  0  0  0  0
  145.6279  137.3834  154.8751 O   0  0  0  0  0  0  0  0  0  0  0  0
  145.9477  138.1572  153.7214 C   0  0  2  0  0  0  0  0  0  0  0  0
  145.3582  137.4454  152.4911 C   0  0  0  0  0  0  0  0  0  0  0  0
  146.1576  136.2641  152.0783 N   0  3  0  0  0  0  0  0  0  0  0  0
  146.1332  135.1637  153.0692 C   0  0  0  0  0  0  0  0  0  0  0  0
  145.7894  135.7863  150.7273 C   0  0  0  0  0  0  0  0  0  0  0  0
  147.4812  138.2874  153.6218 C   0  0  0  0  0  0  0  0  0  0  0  0
  151.1187  141.8633  157.7922 C   0  0  0  0  0  0  0  0  0  0  0  0
  150.5467  143.0313  158.3267 C   0  0  0  0  0  0  0  0  0  0  0  0
  151.0050  143.5280  159.5648 C   0  0  0  0  0  0  0  0  0  0  0  0
  150.3806  144.7898  160.1330 C   0  0  0  0  0  0  0  0  0  0  0  0
  153.2942  142.6891  162.0203 H   0  0  0  0  0  0  0  0  0  0  0  0
  151.7251  143.4348  162.3135 H   0  0  0  0  0  0  0  0  0  0  0  0
  152.9973  144.3409  161.4804 H   0  0  0  0  0  0  0  0  0  0  0  0
  153.3871  141.1523  160.2420 H   0  0  0  0  0  0  0  0  0  0  0  0
  151.8288  139.3614  155.9156 H   0  0  0  0  0  0  0  0  0  0  0  0
  148.9279  141.3477  155.9981 H   0  0  0  0  0  0  0  0  0  0  0  0
  150.0866  142.4035  155.2220 H   0  0  0  0  0  0  0  0  0  0  0  0
  151.1180  140.3460  154.1215 H   0  0  0  0  0  0  0  0  0  0  0  0
  149.3284  140.2435  152.6342 H   0  0  0  0  0  0  0  0  0  0  0  0
  149.8721  138.2579  154.0059 H   0  0  0  0  0  0  0  0  0  0  0  0
  149.9676  138.6561  155.6880 H   0  0  0  0  0  0  0  0  0  0  0  0
  148.1091  137.0821  155.9095 H   0  0  0  0  0  0  0  0  0  0  0  0
  148.0484  138.5268  156.8939 H   0  0  0  0  0  0  0  0  0  0  0  0
  145.8674  137.2980  156.9166 H   0  0  0  0  0  0  0  0  0  0  0  0
  145.6749  138.9153  156.2636 H   0  0  0  0  0  0  0  0  0  0  0  0
  145.5182  139.1540  153.8253 H   0  0  0  0  0  0  0  0  0  0  0  0
  144.3285  137.1383  152.6810 H   0  0  0  0  0  0  0  0  0  0  0  0
  145.3160  138.1637  151.6706 H   0  0  0  0  0  0  0  0  0  0  0  0
  145.1186  134.7894  153.2130 H   0  0  0  0  0  0  0  0  0  0  0  0
  146.5192  135.4849  154.0359 H   0  0  0  0  0  0  0  0  0  0  0  0
  146.7554  134.3332  152.7338 H   0  0  0  0  0  0  0  0  0  0  0  0
  144.7525  135.4491  150.7006 H   0  0  0  0  0  0  0  0  0  0  0  0
  146.4277  134.9558  150.4238 H   0  0  0  0  0  0  0  0  0  0  0  0
  145.9117  136.5797  149.9890 H   0  0  0  0  0  0  0  0  0  0  0  0
  147.7199  138.8902  152.7471 H   0  0  0  0  0  0  0  0  0  0  0  0
  147.9177  137.3027  153.4460 H   0  0  0  0  0  0  0  0  0  0  0  0
  149.7603  143.5397  157.7889 H   0  0  0  0  0  0  0  0  0  0  0  0
  149.6555  145.2207  159.4419 H   0  0  0  0  0  0  0  0  0  0  0  0
  151.1445  145.5433  160.3262 H   0  0  0  0  0  0  0  0  0  0  0  0
  149.8642  144.5710  161.0679 H   0  0  0  0  0  0  0  0  0  0  0  0
  147.1158  136.5779  152.0099 H   0  0  0  0  0  0  0  0  0  0  0  0
  1  2  1  0  0  0  0
  1 26  1  0  0  0  0
  1 27  1  0  0  0  0
  1 28  1  0  0  0  0
  2 24  1  0  0  0  0
  2  3  2  0  0  0  0
  3  4  1  0  0  0  0
  3 29  1  0  0  0  0
  4 22  2  0  0  0  0
  4  5  1  0  0  0  0
  5  6  2  0  0  0  0
  6  7  1  0  0  0  0
  6 30  1  0  0  0  0
  7  8  1  0  0  0  0
  7 22  1  0  0  0  0
  8  9  1  0  0  0  0
  8 31  1  0  0  0  0
  8 32  1  0  0  0  0
  9 10  1  0  0  0  0
  9 11  1  0  0  0  0
  9 33  1  0  0  0  0
 10 34  1  0  0  0  0
 11 12  1  0  0  0  0
 11 35  1  0  0  0  0
 11 36  1  0  0  0  0
 12 21  1  0  0  0  0
 12 13  1  0  0  0  0
 13 14  1  0  0  0  0
 13 37  1  0  0  0  0
 13 38  1  0  0  0  0
 14 15  1  0  0  0  0
 14 39  1  0  0  0  0
 14 40  1  0  0  0  0
 15 16  1  0  0  0  0
 16 17  1  0  0  0  0
 16 21  1  0  0  0  0
 16 41  1  0  0  0  0
 17 18  1  0  0  0  0
 17 42  1  0  0  0  0
 17 43  1  0  0  0  0
 18 19  1  0  0  0  0
 18 20  1  0  0  0  0
 18 56  1  0  0  0  0
 19 44  1  0  0  0  0
 19 45  1  0  0  0  0
 19 46  1  0  0  0  0
 20 47  1  0  0  0  0
 20 48  1  0  0  0  0
 20 49  1  0  0  0  0
 21 50  1  0  0  0  0
 21 51  1  0  0  0  0
 22 23  1  0  0  0  0
 23 24  2  0  0  0  0
 23 52  1  0  0  0  0
 24 25  1  0  0  0  0
 25 53  1  0  0  0  0
 25 54  1  0  0  0  0
 25 55  1  0  0  0  0
M  CHG  1  18   1
M  END
> <s_m_source_file>
AV-unprocessed.smi

> <i_m_source_file_index>
1005

> <i_lp_mmshare_version>
43012

> <i_f3d_flags>
0

> <s_epik_input>
W0NIM11jKFtjSF0xKWMoW0NIM10pW2NIXWMoYzEyKW4oW2NIXW4yKVtDSDJdW0NASF0oW09IXSlbQ0gyXU4zW0NIMl1bQ0gyXU9bQ0BIXShbQ0gyXTMpW0NIMl1OKFtDSDNdKVtDSDNd

> <s_epik_cmdline>
J2VwaWtfcHl0aG9uJywgJy1waCcsICc3LjAnLCAnLXRuJywgJzgnLCAnLW1hJywgJzIwMCcsICctbWV0YWxfYmluZGluZycsICctaW1hZScsICc8aW5maWxlLm1hZT4nLCAnLW9tYWUnLCAnPG91dGZpbGUubWFlPic=

> <r_epik_Ionization_Penalty>
0.226781

> <r_epik_Ionization_Penalty_Charging>
0.00915946

> <r_epik_Ionization_Penalty_Neutral>
0.217622

> <r_epik_State_Penalty>
0.173018

> <r_epik_Charging_Adjusted_Penalty>
0.182178

> <i_epik_Tot_Q>
1

> <i_epik_Tot_abs_Q>
1

> <r_epik_Metal_State_Penalty>
0.0905268

> <b_epik_Metal_Only>
0

> <s_lp_Force_Field>
OPLS_2005

> <r_lp_Energy>
37.9452

> <b_lp_Chiralities_Consistent>
1

> <s_lp_Variant>
AV-unprocessed.smi:1005-3

> <Gold.Version>
5.8.1

> <Gold.Id.Protein>
6NUR|6NUR_protein|mol2

> <Gold.PLP.Fitness>
55.8204

> <Gold.PLP.PLP>
-42.7299

> <Gold.PLP.part.hbond>
-4.4132

> <Gold.PLP.part.metal>
0.0000

> <Gold.PLP.part.buried>
-3.0706

> <Gold.PLP.part.nonpolar>
-35.9159

> <Gold.PLP.part.repulsive>
0.1569

> <Gold.PLP.ligand.clash>
0.0000

> <Gold.PLP.ligand.torsion>
0.9893

> <Gold.PLP.Chemscore.Hbond>
4.8480

> <Gold.PLP.Chemscore.CHOScore>
0.0000

> <Gold.PLP.Chemscore.Metal>
0.0000

> <Gold.Chemscore.Hbonds>
donor molecule, donor type, donor heavy atom, donor atom, acceptor molecule, acceptor atom, score
      L1  H    10    34       P1  7957  0.81
      L1  H    18    56       P1  7948  2.00
      P1  H  7997  8009       L1     5  0.73
      P1  H  8011  8017       L1    10  1.00

> <Gold.PLP.Chemscore.Internal.Correction>
0.5250

> <Gold.Rescore>
     Score         DG    S(hbond)    S(metal)    S(lipo)     H(rot)  DE(clash)    DE(int)     intcor
     19.06     -22.94       2.95        0.00     117.79       2.41       1.64       2.24       ----

> <Gold.Chemscore.Fitness>
19.0648

> <Gold.Chemscore.DG>
-22.9429

> <Gold.Chemscore.ZeroCoef>
-5.4800

> <Gold.Chemscore.Hbond>
2.9523

> <Gold.Chemscore.Metal>
0.0000

> <Gold.Chemscore.Lipo>
117.7875

> <Gold.Chemscore.Internal_Hbond>
0.0000

> <Gold.Chemscore.DEClash>
1.6383

> <Gold.Chemscore.DEInternal>
2.2398

> <Gold.Chemscore.Rot>
2.4136

> <Gold.Chemscore.Internal.Correction>
   9.000000E+99

> <Gold.Chemscore.Hbonds>
donor molecule, donor type, donor heavy atom, donor atom, acceptor molecule, acceptor atom, score
      L1  H    10    34       P1  7957  0.76
      L1  H    18    56       P1  7948  0.95
      P1  H  7997  8009       L1     5  0.14
      P1  H  8011  8017       L1    10  0.25

> <Gold.Chemscore.Hbond.Weighted>
-9.8606

> <Gold.Chemscore.Metal.Weighted>
-0.0000

> <Gold.Chemscore.Lipo.Weighted>
-13.7811

> <Gold.Chemscore.Internal_Hbond.Weighted>
0.0000

> <Gold.Chemscore.DEClash.Weighted>
1.6383

> <Gold.Chemscore.DEInternal.Weighted>
2.2398

> <Gold.Chemscore.Rot.Weighted>
6.1788

> <Gold.Chemscore.Internal.Correction.Weighted>
   9.000000E+99

> <Gold.Protein.RotatedTorsions>
[ 6907 6896 6895 6894 ] final  170.70 input  -60.11 | X-H torsion
[ 7974 7965 7964 7962 ] final  168.35 input  175.53 | X-H torsion
[ 8008 7997 7996 7995 ] final  173.45 input   59.86 | X-H torsion
[ 10167 10162 10161 10158 ] final -146.34 input  -65.29 | X-H torsion
[ 10718 10713 10712 10709 ] final   92.81 input   66.30 | X-H torsion
[ 10763 10752 10751 10750 ] final -124.75 input  -60.55 | X-H torsion
[ 11005 11000 10999 10996 ] final  -13.34 input  -57.11 | X-H torsion

> <Gold.Protein.ActiveResidues>
 VAL166  LYS551  ARG553  GLY616  TRP617  ASP618  TYR619  PRO620  LYS621  CYS622 
 ASP623  PHE694  ASN695  SER759  ASP760  ASP761  ALA762  ILE779  LEU786  VAL792 
 PHE793  MET794  SER795  GLU796  ALA797  LYS798  CYS799  TRP800  GLU811  SER814 

> <Gold.Protein.RotatedAtoms>
  151.8120  133.3383  159.3557 H   0  0  0  0  0  0  0  0  0  0  0  0  # atno 6907 bound_to 6896
  150.7323  134.5655  159.5873 H   0  0  0  0  0  0  0  0  0  0  0  0  # atno 6908 bound_to 6896
  152.3068  134.7546  160.0396 H   0  0  0  0  0  0  0  0  0  0  0  0  # atno 6909 bound_to 6896
  144.7391  139.8895  143.6402 H   0  0  0  0  0  0  0  0  0  0  0  0  # atno 7974 bound_to 7965
  156.1074  140.1460  156.9385 H   0  0  0  0  0  0  0  0  0  0  0  0  # atno 8008 bound_to 7997
  154.4743  140.0899  156.7268 H   0  0  0  0  0  0  0  0  0  0  0  0  # atno 8009 bound_to 7997
  155.4655  140.3440  155.4321 H   0  0  0  0  0  0  0  0  0  0  0  0  # atno 8010 bound_to 7997
  139.7722  143.8221  152.2626 H   0  0  0  0  0  0  0  0  0  0  0  0  # atno 10167 bound_to 10162
  157.6957  131.0456  150.3938 H   0  0  0  0  0  0  0  0  0  0  0  0  # atno 10718 bound_to 10713
  154.8727  135.4053  154.3156 H   0  0  0  0  0  0  0  0  0  0  0  0  # atno 10763 bound_to 10752
  153.3992  135.7017  153.6444 H   0  0  0  0  0  0  0  0  0  0  0  0  # atno 10764 bound_to 10752
  153.5193  135.3690  155.2595 H   0  0  0  0  0  0  0  0  0  0  0  0  # atno 10765 bound_to 10752
  140.7751  133.8407  155.9241 H   0  0  0  0  0  0  0  0  0  0  0  0  # atno 11005 bound_to 11000
  146.1152  139.4162  143.0263 LP  0  0  0  0  0  0  0  0  0  0  0  0  # atno 17320 bound_to 7965
  145.7385  141.0017  143.1314 LP  0  0  0  0  0  0  0  0  0  0  0  0  # atno 17321 bound_to 7965
  139.8259  144.7275  150.9513 LP  0  0  0  0  0  0  0  0  0  0  0  0  # atno 17342 bound_to 10162
  140.7814  143.4115  151.0985 LP  0  0  0  0  0  0  0  0  0  0  0  0  # atno 17343 bound_to 10162
  156.4338  130.3977  149.6742 LP  0  0  0  0  0  0  0  0  0  0  0  0  # atno 17370 bound_to 10713
  156.3950  130.7646  151.2650 LP  0  0  0  0  0  0  0  0  0  0  0  0  # atno 17371 bound_to 10713
  140.9536  134.1746  157.4708 LP  0  0  0  0  0  0  0  0  0  0  0  0  # atno 17394 bound_to 11000
  139.8750  134.9919  156.5569 LP  0  0  0  0  0  0  0  0  0  0  0  0  # atno 17395 bound_to 11000

$$$$
