AV-unprocessed.smi:862|AV-procd|sdf|3976|dock5
  -GOLD-   22720 1453D 1   1.00000     0.00000
 Structure written by MMmdl.
 44 46  0  0  0  0  0  0  0  0  2 V2000
  151.8238  144.6566  162.0161 N   0  0  0  0  0  0  0  0  0  0  0  0
  152.4428  143.5249  161.6661 C   0  0  0  0  0  0  0  0  0  0  0  0
  152.7637  142.6915  162.5112 O   0  0  0  0  0  0  0  0  0  0  0  0
  152.6373  143.3598  160.3333 N   0  0  0  0  0  0  0  0  0  0  0  0
  152.6558  142.0762  159.6125 C   0  0  0  0  0  0  0  0  0  0  0  0
  151.3301  141.9220  158.8444 C   0  0  0  0  0  0  0  0  0  0  0  0
  151.1016  143.1044  157.8790 C   0  0  0  0  0  0  0  0  0  0  0  0
  149.7623  142.9942  157.2588 N   0  3  0  0  0  0  0  0  0  0  0  0
  149.4192  141.6766  156.6762 C   0  0  2  0  0  0  0  0  0  0  0  0
  150.4165  141.1862  155.6223 C   0  0  0  0  0  0  0  0  0  0  0  0
  149.6341  140.1834  154.7641 C   0  0  0  0  0  0  0  0  0  0  0  0
  148.1439  140.4851  154.9894 C   0  0  0  0  0  0  0  0  0  0  0  0
  148.0990  141.7225  155.8981 C   0  0  1  0  0  0  0  0  0  0  0  0
  146.9245  141.7694  156.7556 N   0  0  0  0  0  0  0  0  0  0  0  0
  146.5556  142.7756  157.6419 C   0  0  0  0  0  0  0  0  0  0  0  0
  145.3703  142.3799  158.2185 C   0  0  0  0  0  0  0  0  0  0  0  0
  144.9902  141.1434  157.7038 N   0  0  0  0  0  0  0  0  0  0  0  0
  145.9584  140.8445  156.8482 C   0  0  0  0  0  0  0  0  0  0  0  0
  151.2719  144.4513  158.6182 C   0  0  0  0  0  0  0  0  0  0  0  0
  152.5977  144.4918  159.3998 C   0  0  0  0  0  0  0  0  0  0  0  0
  151.6360  144.8412  162.9911 H   0  0  0  0  0  0  0  0  0  0  0  0
  151.5369  145.3166  161.3083 H   0  0  0  0  0  0  0  0  0  0  0  0
  153.4946  142.0691  158.9149 H   0  0  0  0  0  0  0  0  0  0  0  0
  152.8096  141.2109  160.2572 H   0  0  0  0  0  0  0  0  0  0  0  0
  151.3313  140.9827  158.2902 H   0  0  0  0  0  0  0  0  0  0  0  0
  150.5068  141.8589  159.5578 H   0  0  0  0  0  0  0  0  0  0  0  0
  151.8617  143.0359  157.0989 H   0  0  0  0  0  0  0  0  0  0  0  0
  149.0886  143.1628  157.9922 H   0  0  0  0  0  0  0  0  0  0  0  0
  149.3457  140.9337  157.4723 H   0  0  0  0  0  0  0  0  0  0  0  0
  150.7391  142.0196  154.9962 H   0  0  0  0  0  0  0  0  0  0  0  0
  151.3064  140.7378  156.0648 H   0  0  0  0  0  0  0  0  0  0  0  0
  149.9103  140.2679  153.7124 H   0  0  0  0  0  0  0  0  0  0  0  0
  149.8558  139.1622  155.0764 H   0  0  0  0  0  0  0  0  0  0  0  0
  147.6162  140.6602  154.0511 H   0  0  0  0  0  0  0  0  0  0  0  0
  147.6735  139.6246  155.4672 H   0  0  0  0  0  0  0  0  0  0  0  0
  148.0962  142.6098  155.2615 H   0  0  0  0  0  0  0  0  0  0  0  0
  147.1500  143.6655  157.7897 H   0  0  0  0  0  0  0  0  0  0  0  0
  144.7669  142.8857  158.9578 H   0  0  0  0  0  0  0  0  0  0  0  0
  145.9612  139.9309  156.2718 H   0  0  0  0  0  0  0  0  0  0  0  0
  151.2439  145.2842  157.9173 H   0  0  0  0  0  0  0  0  0  0  0  0
  150.4418  144.6027  159.3099 H   0  0  0  0  0  0  0  0  0  0  0  0
  152.7063  145.4537  159.9032 H   0  0  0  0  0  0  0  0  0  0  0  0
  153.4421  144.4237  158.7125 H   0  0  0  0  0  0  0  0  0  0  0  0
  149.6555  143.7166  156.5610 H   0  0  0  0  0  0  0  0  0  0  0  0
  1  2  1  0  0  0  0
  1 21  1  0  0  0  0
  1 22  1  0  0  0  0
  2  3  2  0  0  0  0
  2  4  1  0  0  0  0
  4 20  1  0  0  0  0
  4  5  1  0  0  0  0
  5  6  1  0  0  0  0
  5 23  1  0  0  0  0
  5 24  1  0  0  0  0
  6  7  1  0  0  0  0
  6 25  1  0  0  0  0
  6 26  1  0  0  0  0
  7  8  1  0  0  0  0
  7 19  1  0  0  0  0
  7 27  1  0  0  0  0
  8  9  1  0  0  0  0
  8 28  1  0  0  0  0
  8 44  1  0  0  0  0
  9 13  1  0  0  0  0
  9 10  1  0  0  0  0
  9 29  1  0  0  0  0
 10 11  1  0  0  0  0
 10 30  1  0  0  0  0
 10 31  1  0  0  0  0
 11 12  1  0  0  0  0
 11 32  1  0  0  0  0
 11 33  1  0  0  0  0
 12 13  1  0  0  0  0
 12 34  1  0  0  0  0
 12 35  1  0  0  0  0
 13 14  1  0  0  0  0
 13 36  1  0  0  0  0
 14 18  1  0  0  0  0
 14 15  1  0  0  0  0
 15 16  2  0  0  0  0
 15 37  1  0  0  0  0
 16 17  1  0  0  0  0
 16 38  1  0  0  0  0
 17 18  2  0  0  0  0
 18 39  1  0  0  0  0
 19 20  1  0  0  0  0
 19 40  1  0  0  0  0
 19 41  1  0  0  0  0
 20 42  1  0  0  0  0
 20 43  1  0  0  0  0
M  CHG  1   8   1
M  END
> <s_m_source_file>
AV-unprocessed.smi

> <i_m_source_file_index>
862

> <i_lp_mmshare_version>
43012

> <i_f3d_flags>
0

> <s_epik_input>
W05IMl1DKD1PKU4xW0NIMl1bQ0gyXVtDSF0oW0NIMl1bQ0gyXTEpW05IXVtDQEBIXTJbQ0gyXVtDSDJdW0NIMl1bQ0BIXTJuM1tjSF1bY0hdbltjSF0z

> <s_epik_cmdline>
J2VwaWtfcHl0aG9uJywgJy1waCcsICc3LjAnLCAnLXRuJywgJzgnLCAnLW1hJywgJzIwMCcsICctbWV0YWxfYmluZGluZycsICctaW1hZScsICc8aW5maWxlLm1hZT4nLCAnLW9tYWUnLCAnPG91dGZpbGUubWFlPic=

> <r_lp_tautomer_probability>
1

> <r_epik_Ionization_Penalty>
0.0731506

> <r_epik_Ionization_Penalty_Charging>
0.0731

> <r_epik_Ionization_Penalty_Neutral>
5.05966e-05

> <r_epik_State_Penalty>
0.128895

> <r_epik_Charging_Adjusted_Penalty>
0.201995

> <i_epik_Tot_Q>
1

> <i_epik_Tot_abs_Q>
1

> <r_epik_Metal_State_Penalty>
0.113934

> <b_epik_Metal_Only>
0

> <s_lp_Force_Field>
OPLS_2005

> <r_lp_Energy>
56.1174

> <b_lp_Chiralities_Consistent>
1

> <s_lp_Variant>
AV-unprocessed.smi:862-1

> <Gold.Version>
5.8.1

> <Gold.Id.Protein>
6NUR|6NUR_protein|mol2

> <Gold.PLP.Fitness>
46.0326

> <Gold.PLP.PLP>
-39.4460

> <Gold.PLP.part.hbond>
-2.6763

> <Gold.PLP.part.metal>
0.0000

> <Gold.PLP.part.buried>
-5.7951

> <Gold.PLP.part.nonpolar>
-30.7102

> <Gold.PLP.part.repulsive>
0.1691

> <Gold.PLP.ligand.clash>
0.6033

> <Gold.PLP.ligand.torsion>
0.3577

> <Gold.PLP.Chemscore.Hbond>
2.0000

> <Gold.PLP.Chemscore.CHOScore>
0.6174

> <Gold.PLP.Chemscore.Metal>
0.0000

> <Gold.Chemscore.Hbonds>
donor molecule, donor type, donor heavy atom, donor atom, acceptor molecule, acceptor atom, score
      L1  H     8    44       P1  8028  2.00
      L1  C    15    37       P1  8029  0.55

> <Gold.PLP.Chemscore.Internal.Correction>
0.0530

> <Gold.Rescore>
     Score         DG    S(hbond)    S(metal)    S(lipo)     H(rot)  DE(clash)    DE(int)     intcor
     12.21     -13.79       0.96        0.00      79.54       1.64       1.24       0.34       ----

> <Gold.Chemscore.Fitness>
12.2126

> <Gold.Chemscore.DG>
-13.7895

> <Gold.Chemscore.ZeroCoef>
-5.4800

> <Gold.Chemscore.Hbond>
0.9596

> <Gold.Chemscore.Metal>
0.0000

> <Gold.Chemscore.Lipo>
79.5363

> <Gold.Chemscore.Internal_Hbond>
0.0000

> <Gold.Chemscore.DEClash>
1.2397

> <Gold.Chemscore.DEInternal>
0.3373

> <Gold.Chemscore.Rot>
1.6411

> <Gold.Chemscore.Internal.Correction>
   9.000000E+99

> <Gold.Chemscore.Hbonds>
donor molecule, donor type, donor heavy atom, donor atom, acceptor molecule, acceptor atom, score
      L1  H     8    44       P1  8028  0.93

> <Gold.Chemscore.Hbond.Weighted>
-3.2051

> <Gold.Chemscore.Metal.Weighted>
-0.0000

> <Gold.Chemscore.Lipo.Weighted>
-9.3058

> <Gold.Chemscore.Internal_Hbond.Weighted>
0.0000

> <Gold.Chemscore.DEClash.Weighted>
1.2397

> <Gold.Chemscore.DEInternal.Weighted>
0.3373

> <Gold.Chemscore.Rot.Weighted>
4.2013

> <Gold.Chemscore.Internal.Correction.Weighted>
   9.000000E+99

> <Gold.Protein.RotatedTorsions>
[ 6907 6896 6895 6894 ] final  124.83 input  -60.11 | X-H torsion
[ 7974 7965 7964 7962 ] final -147.90 input  175.53 | X-H torsion
[ 8008 7997 7996 7995 ] final  153.87 input   59.86 | X-H torsion
[ 10167 10162 10161 10158 ] final  124.80 input  -65.29 | X-H torsion
[ 10718 10713 10712 10709 ] final  101.10 input   66.30 | X-H torsion
[ 10763 10752 10751 10750 ] final  -55.31 input  -60.55 | X-H torsion
[ 11005 11000 10999 10996 ] final -159.03 input  -57.11 | X-H torsion

> <Gold.Protein.ActiveResidues>
 VAL166  LYS551  ARG553  GLY616  TRP617  ASP618  TYR619  PRO620  LYS621  CYS622 
 ASP623  PHE694  ASN695  SER759  ASP760  ASP761  ALA762  ILE779  LEU786  VAL792 
 PHE793  MET794  SER795  GLU796  ALA797  LYS798  CYS799  TRP800  GLU811  SER814 

> <Gold.Protein.RotatedAtoms>
  152.4044  133.6867  159.6343 H   0  0  0  0  0  0  0  0  0  0  0  0  # atno 6907 bound_to 6896
  150.7931  133.8734  159.3274 H   0  0  0  0  0  0  0  0  0  0  0  0  # atno 6908 bound_to 6896
  151.6492  135.1005  160.0208 H   0  0  0  0  0  0  0  0  0  0  0  0  # atno 6909 bound_to 6896
  144.8063  140.5266  143.5672 H   0  0  0  0  0  0  0  0  0  0  0  0  # atno 7974 bound_to 7965
  156.2560  140.1982  156.6558 H   0  0  0  0  0  0  0  0  0  0  0  0  # atno 8008 bound_to 7997
  154.6502  140.0573  156.9971 H   0  0  0  0  0  0  0  0  0  0  0  0  # atno 8009 bound_to 7997
  155.1430  140.3244  155.4450 H   0  0  0  0  0  0  0  0  0  0  0  0  # atno 8010 bound_to 7997
  139.5721  144.6944  151.3751 H   0  0  0  0  0  0  0  0  0  0  0  0  # atno 10167 bound_to 10162
  157.6838  131.0717  150.5201 H   0  0  0  0  0  0  0  0  0  0  0  0  # atno 10718 bound_to 10713
  154.1888  135.6431  153.5054 H   0  0  0  0  0  0  0  0  0  0  0  0  # atno 10763 bound_to 10752
  153.0040  135.5423  154.6437 H   0  0  0  0  0  0  0  0  0  0  0  0  # atno 10764 bound_to 10752
  154.5820  135.2926  155.0695 H   0  0  0  0  0  0  0  0  0  0  0  0  # atno 10765 bound_to 10752
  140.6471  134.4490  157.5234 H   0  0  0  0  0  0  0  0  0  0  0  0  # atno 11005 bound_to 11000
  145.5429  139.1475  143.3437 LP  0  0  0  0  0  0  0  0  0  0  0  0  # atno 17320 bound_to 7965
  146.2355  140.5569  142.8956 LP  0  0  0  0  0  0  0  0  0  0  0  0  # atno 17321 bound_to 7965
  140.7005  143.7643  150.7395 LP  0  0  0  0  0  0  0  0  0  0  0  0  # atno 17342 bound_to 10162
  140.1152  143.4662  152.2346 LP  0  0  0  0  0  0  0  0  0  0  0  0  # atno 17343 bound_to 10162
  156.5515  130.4233  149.6105 LP  0  0  0  0  0  0  0  0  0  0  0  0  # atno 17370 bound_to 10713
  156.2899  130.7118  151.1964 LP  0  0  0  0  0  0  0  0  0  0  0  0  # atno 17371 bound_to 10713
  139.9059  134.8450  156.1709 LP  0  0  0  0  0  0  0  0  0  0  0  0  # atno 17394 bound_to 11000
  141.0564  133.6863  156.1869 LP  0  0  0  0  0  0  0  0  0  0  0  0  # atno 17395 bound_to 11000

$$$$
