AV-unprocessed.smi:8|AV-procd|sdf|45|dock6
  -GOLD-   2262015163D 1   1.00000     0.00000
 Structure written by MMmdl.
 34 35  0  0  0  0  0  0  0  0  1 V2000
  151.6366  145.6103  160.3147 C   0  0  0  0  0  0  0  0  0  0  0  0
  152.1518  144.3105  160.9508 C   0  0  0  0  0  0  0  0  0  0  0  0
  152.2439  143.2221  160.0091 N   0  0  0  0  0  0  0  0  0  0  0  0
  151.6051  143.2463  158.7788 C   0  0  0  0  0  0  0  0  0  0  0  0
  151.6556  142.2268  157.8842 C   0  0  0  0  0  0  0  0  0  0  0  0
  150.9575  142.3089  156.5354 C   0  0  0  0  0  0  0  0  0  0  0  0
  150.8087  141.0093  155.8931 N   0  0  0  0  0  0  0  0  0  0  0  0
  149.7026  140.7439  155.0714 C   0  0  0  0  0  0  0  0  0  0  0  0
  148.7771  141.7150  154.8838 N   0  0  0  0  0  0  0  0  0  0  0  0
  147.7382  141.4289  154.0954 C   0  0  0  0  0  0  0  0  0  0  0  0
  147.5089  140.2757  153.4644 N   0  0  0  0  0  0  0  0  0  0  0  0
  148.4229  139.2980  153.6394 C   0  0  0  0  0  0  0  0  0  0  0  0
  149.5645  139.4796  154.4498 C   0  0  0  0  0  0  0  0  0  0  0  0
  150.5788  138.3655  154.6334 C   0  0  0  0  0  0  0  0  0  0  0  0
  152.4390  141.0285  158.2062 C   0  0  0  0  0  0  0  0  0  0  0  0
  152.5767  140.0488  157.4757 O   0  0  0  0  0  0  0  0  0  0  0  0
  153.0608  141.0458  159.4584 N   0  0  0  0  0  0  0  0  0  0  0  0
  152.9959  142.0862  160.3837 C   0  0  0  0  0  0  0  0  0  0  0  0
  153.5769  141.9849  161.4645 O   0  0  0  0  0  0  0  0  0  0  0  0
  153.6028  140.2337  159.7161 H   0  0  0  0  0  0  0  0  0  0  0  0
  151.6181  146.4174  161.0473 H   0  0  0  0  0  0  0  0  0  0  0  0
  150.6243  145.4950  159.9266 H   0  0  0  0  0  0  0  0  0  0  0  0
  152.2771  145.9252  159.4904 H   0  0  0  0  0  0  0  0  0  0  0  0
  153.1554  144.4528  161.3544 H   0  0  0  0  0  0  0  0  0  0  0  0
  151.5316  143.9785  161.7861 H   0  0  0  0  0  0  0  0  0  0  0  0
  151.0299  144.1239  158.5192 H   0  0  0  0  0  0  0  0  0  0  0  0
  149.9704  142.7560  156.6589 H   0  0  0  0  0  0  0  0  0  0  0  0
  151.5284  142.9758  155.8877 H   0  0  0  0  0  0  0  0  0  0  0  0
  151.3654  140.2368  156.2287 H   0  0  0  0  0  0  0  0  0  0  0  0
  147.0069  142.2112  153.9556 H   0  0  0  0  0  0  0  0  0  0  0  0
  148.2393  138.3644  153.1282 H   0  0  0  0  0  0  0  0  0  0  0  0
  150.2906  137.4741  154.0758 H   0  0  0  0  0  0  0  0  0  0  0  0
  150.6603  138.0950  155.6865 H   0  0  0  0  0  0  0  0  0  0  0  0
  151.5603  138.6832  154.2805 H   0  0  0  0  0  0  0  0  0  0  0  0
  1  2  1  0  0  0  0
  1 21  1  0  0  0  0
  1 22  1  0  0  0  0
  1 23  1  0  0  0  0
  2  3  1  0  0  0  0
  2 24  1  0  0  0  0
  2 25  1  0  0  0  0
  3 18  1  0  0  0  0
  3  4  1  0  0  0  0
  4  5  2  0  0  0  0
  4 26  1  0  0  0  0
  5  6  1  0  0  0  0
  5 15  1  0  0  0  0
  6  7  1  0  0  0  0
  6 27  1  0  0  0  0
  6 28  1  0  0  0  0
  7  8  1  0  0  0  0
  7 29  1  0  0  0  0
  8 13  1  0  0  0  0
  8  9  2  0  0  0  0
  9 10  1  0  0  0  0
 10 11  2  0  0  0  0
 10 30  1  0  0  0  0
 11 12  1  0  0  0  0
 12 13  2  0  0  0  0
 12 31  1  0  0  0  0
 13 14  1  0  0  0  0
 14 32  1  0  0  0  0
 14 33  1  0  0  0  0
 14 34  1  0  0  0  0
 15 16  2  0  0  0  0
 15 17  1  0  0  0  0
 17 20  1  0  0  0  0
 17 18  1  0  0  0  0
 18 19  2  0  0  0  0
M  END
> <s_m_source_file>
AV-unprocessed.smi

> <i_m_source_file_index>
8

> <i_lp_mmshare_version>
43012

> <i_f3d_flags>
0

> <s_epik_input>
W0NIM11bQ0gyXW4xW2NIXWMoYyg9TylbbkhdYzE9TylbQ0gyXVtOSF1jMm5bY0hdbltjSF1jMltDSDNd

> <s_epik_cmdline>
J2VwaWtfcHl0aG9uJywgJy1waCcsICc3LjAnLCAnLXRuJywgJzgnLCAnLW1hJywgJzIwMCcsICctbWV0YWxfYmluZGluZycsICctaW1hZScsICc8aW5maWxlLm1hZT4nLCAnLW9tYWUnLCAnPG91dGZpbGUubWFlPic=

> <r_lp_tautomer_probability>
0.999537

> <r_epik_Ionization_Penalty>
0.0165471

> <r_epik_Ionization_Penalty_Charging>
0.000694205

> <r_epik_Ionization_Penalty_Neutral>
0.0158529

> <r_epik_State_Penalty>
0.0119799

> <r_epik_Charging_Adjusted_Penalty>
0.0126741

> <i_epik_Tot_Q>
0

> <i_epik_Tot_abs_Q>
0

> <r_epik_Metal_State_Penalty>
0.262409

> <b_epik_Metal_Only>
0

> <s_lp_Force_Field>
OPLS_2005

> <r_lp_Energy>
9.23324

> <b_lp_Chiralities_Consistent>
1

> <s_lp_Variant>
AV-unprocessed.smi:8-1

> <Gold.Version>
5.8.1

> <Gold.Id.Protein>
6NUR|6NUR_protein|mol2

> <Gold.PLP.Fitness>
43.5876

> <Gold.PLP.PLP>
-38.8119

> <Gold.PLP.part.hbond>
-1.0000

> <Gold.PLP.part.metal>
0.0000

> <Gold.PLP.part.buried>
-5.1565

> <Gold.PLP.part.nonpolar>
-32.8610

> <Gold.PLP.part.repulsive>
1.0412

> <Gold.PLP.ligand.clash>
0.0000

> <Gold.PLP.ligand.torsion>
0.6146

> <Gold.PLP.Chemscore.Hbond>
1.0000

> <Gold.PLP.Chemscore.CHOScore>
1.0000

> <Gold.PLP.Chemscore.Metal>
0.0000

> <Gold.Chemscore.Hbonds>
donor molecule, donor type, donor heavy atom, donor atom, acceptor molecule, acceptor atom, score
      P1  H  7997  8010       L1    16  1.00
      L1  C    12    31       P1  7948  0.92

> <Gold.PLP.Chemscore.Internal.Correction>
0.0049

> <Gold.Rescore>
     Score         DG    S(hbond)    S(metal)    S(lipo)     H(rot)  DE(clash)    DE(int)     intcor
     10.01     -12.17       0.84        0.00      71.17       1.73       0.00       2.16       ----

> <Gold.Chemscore.Fitness>
10.0071

> <Gold.Chemscore.DG>
-12.1670

> <Gold.Chemscore.ZeroCoef>
-5.4800

> <Gold.Chemscore.Hbond>
0.8356

> <Gold.Chemscore.Metal>
0.0000

> <Gold.Chemscore.Lipo>
71.1691

> <Gold.Chemscore.Internal_Hbond>
0.0000

> <Gold.Chemscore.DEClash>
0.0008

> <Gold.Chemscore.DEInternal>
2.1591

> <Gold.Chemscore.Rot>
1.7307

> <Gold.Chemscore.Internal.Correction>
   9.000000E+99

> <Gold.Chemscore.Hbonds>
donor molecule, donor type, donor heavy atom, donor atom, acceptor molecule, acceptor atom, score
      P1  H  7997  8010       L1    16  0.67

> <Gold.Chemscore.Hbond.Weighted>
-2.7908

> <Gold.Chemscore.Metal.Weighted>
-0.0000

> <Gold.Chemscore.Lipo.Weighted>
-8.3268

> <Gold.Chemscore.Internal_Hbond.Weighted>
0.0000

> <Gold.Chemscore.DEClash.Weighted>
0.0008

> <Gold.Chemscore.DEInternal.Weighted>
2.1591

> <Gold.Chemscore.Rot.Weighted>
4.4305

> <Gold.Chemscore.Internal.Correction.Weighted>
   9.000000E+99

> <Gold.Protein.RotatedTorsions>
[ 6907 6896 6895 6894 ] final   20.69 input  -60.11 | X-H torsion
[ 7974 7965 7964 7962 ] final -110.86 input  175.53 | X-H torsion
[ 8008 7997 7996 7995 ] final   59.84 input   59.86 | X-H torsion
[ 10167 10162 10161 10158 ] final   33.85 input  -65.29 | X-H torsion
[ 10718 10713 10712 10709 ] final -174.89 input   66.30 | X-H torsion
[ 10763 10752 10751 10750 ] final   70.17 input  -60.55 | X-H torsion
[ 11005 11000 10999 10996 ] final   54.62 input  -57.11 | X-H torsion

> <Gold.Protein.ActiveResidues>
 VAL166  LYS551  ARG553  GLY616  TRP617  ASP618  TYR619  PRO620  LYS621  CYS622 
 ASP623  PHE694  ASN695  SER759  ASP760  ASP761  ALA762  ILE779  LEU786  VAL792 
 PHE793  MET794  SER795  GLU796  ALA797  LYS798  CYS799  TRP800  GLU811  SER814 

> <Gold.Protein.RotatedAtoms>
  151.9002  135.0381  160.0505 H   0  0  0  0  0  0  0  0  0  0  0  0  # atno 6907 bound_to 6896
  152.2364  133.5095  159.5253 H   0  0  0  0  0  0  0  0  0  0  0  0  # atno 6908 bound_to 6896
  150.7040  134.1064  159.4027 H   0  0  0  0  0  0  0  0  0  0  0  0  # atno 6909 bound_to 6896
  145.1630  140.8888  143.3579 H   0  0  0  0  0  0  0  0  0  0  0  0  # atno 7974 bound_to 7965
  155.5727  140.3490  155.4519 H   0  0  0  0  0  0  0  0  0  0  0  0  # atno 8008 bound_to 7997
  156.0432  140.1300  157.0158 H   0  0  0  0  0  0  0  0  0  0  0  0  # atno 8009 bound_to 7997
  154.4401  140.1020  156.6253 H   0  0  0  0  0  0  0  0  0  0  0  0  # atno 8010 bound_to 7997
  140.4369  144.1244  150.6167 H   0  0  0  0  0  0  0  0  0  0  0  0  # atno 10167 bound_to 10162
  156.7917  130.9520  151.3120 H   0  0  0  0  0  0  0  0  0  0  0  0  # atno 10718 bound_to 10713
  153.0327  135.5183  154.7400 H   0  0  0  0  0  0  0  0  0  0  0  0  # atno 10763 bound_to 10752
  154.6402  135.2911  155.0114 H   0  0  0  0  0  0  0  0  0  0  0  0  # atno 10764 bound_to 10752
  154.1035  135.6633  153.4925 H   0  0  0  0  0  0  0  0  0  0  0  0  # atno 10765 bound_to 10752
  140.0672  134.5520  155.9086 H   0  0  0  0  0  0  0  0  0  0  0  0  # atno 11005 bound_to 11000
  145.0311  139.3340  143.6024 LP  0  0  0  0  0  0  0  0  0  0  0  0  # atno 17320 bound_to 7965
  146.3479  139.9648  142.8713 LP  0  0  0  0  0  0  0  0  0  0  0  0  # atno 17321 bound_to 7965
  140.4363  143.2546  151.9530 LP  0  0  0  0  0  0  0  0  0  0  0  0  # atno 17342 bound_to 10162
  139.4787  144.5696  151.8109 LP  0  0  0  0  0  0  0  0  0  0  0  0  # atno 17343 bound_to 10162
  157.6597  130.8955  149.9803 LP  0  0  0  0  0  0  0  0  0  0  0  0  # atno 17370 bound_to 10713
  156.1155  130.3648  149.9976 LP  0  0  0  0  0  0  0  0  0  0  0  0  # atno 17371 bound_to 10713
  141.1997  133.6608  156.5859 LP  0  0  0  0  0  0  0  0  0  0  0  0  # atno 17394 bound_to 11000
  140.3681  134.7629  157.4580 LP  0  0  0  0  0  0  0  0  0  0  0  0  # atno 17395 bound_to 11000

$$$$
