AV-unprocessed.smi:711|AV-procd|sdf|3464|dock9
  -GOLD-   22720 0453D 1   1.00000     0.00000
 Structure written by MMmdl.
 29 30  0  0  0  0  0  0  0  0  1 V2000
  146.8209  140.3987  152.3170 O   0  0  0  0  0  0  0  0  0  0  0  0
  147.6561  140.5584  153.2049 C   0  0  0  0  0  0  0  0  0  0  0  0
  148.7206  139.6607  153.3283 N   0  0  0  0  0  0  0  0  0  0  0  0
  149.7320  139.7253  154.2872 C   0  0  0  0  0  0  0  0  0  0  0  0
  150.6100  138.8627  154.3043 O   0  0  0  0  0  0  0  0  0  0  0  0
  149.6701  140.7999  155.2070 N   0  0  0  0  0  0  0  0  0  0  0  0
  150.6754  140.8964  156.2412 C   0  0  0  0  0  0  0  0  0  0  0  0
  150.6081  142.2129  157.0473 C   0  0  2  0  0  0  0  0  0  0  0  0
  150.9552  143.2780  156.1854 O   0  0  0  0  0  0  0  0  0  0  0  0
  151.4570  142.1871  158.3140 C   0  0  0  0  0  0  0  0  0  0  0  0
  152.0064  140.9705  158.7771 C   0  0  0  0  0  0  0  0  0  0  0  0
  152.7716  140.9387  159.9588 C   0  0  0  0  0  0  0  0  0  0  0  0
  152.9923  142.1229  160.6868 C   0  0  0  0  0  0  0  0  0  0  0  0
  153.7270  142.0926  161.8237 F   0  0  0  0  0  0  0  0  0  0  0  0
  152.4460  143.3383  160.2332 C   0  0  0  0  0  0  0  0  0  0  0  0
  151.6793  143.3726  159.0523 C   0  0  0  0  0  0  0  0  0  0  0  0
  151.1483  144.5489  158.6395 F   0  0  0  0  0  0  0  0  0  0  0  0
  148.6285  141.7105  155.1234 C   0  0  0  0  0  0  0  0  0  0  0  0
  147.6487  141.6383  154.1905 C   0  0  0  0  0  0  0  0  0  0  0  0
  146.3816  142.8116  154.1566 Cl  0  0  0  0  0  0  0  0  0  0  0  0
  148.7582  138.8970  152.6691 H   0  0  0  0  0  0  0  0  0  0  0  0
  150.6185  140.0125  156.8795 H   0  0  0  0  0  0  0  0  0  0  0  0
  151.6289  140.8174  155.7155 H   0  0  0  0  0  0  0  0  0  0  0  0
  149.5703  142.3907  157.3308 H   0  0  0  0  0  0  0  0  0  0  0  0
  150.1867  143.8082  156.0396 H   0  0  0  0  0  0  0  0  0  0  0  0
  151.8352  140.0540  158.2317 H   0  0  0  0  0  0  0  0  0  0  0  0
  153.1863  140.0043  160.3078 H   0  0  0  0  0  0  0  0  0  0  0  0
  152.6119  144.2462  160.7943 H   0  0  0  0  0  0  0  0  0  0  0  0
  148.5928  142.5172  155.8421 H   0  0  0  0  0  0  0  0  0  0  0  0
  1  2  2  0  0  0  0
  2 19  1  0  0  0  0
  2  3  1  0  0  0  0
  3 21  1  0  0  0  0
  3  4  1  0  0  0  0
  4  5  2  0  0  0  0
  4  6  1  0  0  0  0
  6  7  1  0  0  0  0
  6 18  1  0  0  0  0
  7  8  1  0  0  0  0
  7 22  1  0  0  0  0
  7 23  1  0  0  0  0
  8  9  1  0  0  0  0
  8 10  1  0  0  0  0
  8 24  1  0  0  0  0
  9 25  1  0  0  0  0
 10 16  1  0  0  0  0
 10 11  2  0  0  0  0
 11 12  1  0  0  0  0
 11 26  1  0  0  0  0
 12 13  2  0  0  0  0
 12 27  1  0  0  0  0
 13 14  1  0  0  0  0
 13 15  1  0  0  0  0
 15 16  2  0  0  0  0
 15 28  1  0  0  0  0
 16 17  1  0  0  0  0
 18 19  2  0  0  0  0
 18 29  1  0  0  0  0
 19 20  1  0  0  0  0
M  END
> <s_m_source_file>
AV-unprocessed.smi

> <i_m_source_file_index>
711

> <i_lp_mmshare_version>
43012

> <i_f3d_flags>
0

> <s_epik_input>
Tz1jMVtuSF1jKD1PKW4oW2NIXWMxQ2wpW0NIMl1bQ0BIXShbT0hdKWMyW2NIXVtjSF1jKEYpW2NIXWMyRg==

> <s_epik_cmdline>
J2VwaWtfcHl0aG9uJywgJy1waCcsICc3LjAnLCAnLXRuJywgJzgnLCAnLW1hJywgJzIwMCcsICctbWV0YWxfYmluZGluZycsICctaW1hZScsICc8aW5maWxlLm1hZT4nLCAnLW9tYWUnLCAnPG91dGZpbGUubWFlPic=

> <r_lp_tautomer_probability>
0.999537

> <r_epik_Ionization_Penalty>
0.0292058

> <r_epik_Ionization_Penalty_Charging>
0.0292057

> <r_epik_Ionization_Penalty_Neutral>
9.07348e-08

> <r_epik_State_Penalty>
0.0240115

> <r_epik_Charging_Adjusted_Penalty>
0.0532172

> <i_epik_Tot_Q>
0

> <i_epik_Tot_abs_Q>
0

> <r_epik_Metal_State_Penalty>
2.21956

> <b_epik_Metal_Only>
0

> <s_lp_Force_Field>
OPLS_2005

> <r_lp_Energy>
11.2971

> <b_lp_Chiralities_Consistent>
1

> <s_lp_Variant>
AV-unprocessed.smi:711-1

> <Gold.Version>
5.8.1

> <Gold.Id.Protein>
6NUR|6NUR_protein|mol2

> <Gold.PLP.Fitness>
51.1255

> <Gold.PLP.PLP>
-45.9164

> <Gold.PLP.part.hbond>
-1.6735

> <Gold.PLP.part.metal>
0.0000

> <Gold.PLP.part.buried>
-1.4458

> <Gold.PLP.part.nonpolar>
-43.5093

> <Gold.PLP.part.repulsive>
1.2429

> <Gold.PLP.ligand.clash>
0.0058

> <Gold.PLP.ligand.torsion>
0.4043

> <Gold.PLP.Chemscore.Hbond>
1.0000

> <Gold.PLP.Chemscore.CHOScore>
1.0000

> <Gold.PLP.Chemscore.Metal>
0.0000

> <Gold.Chemscore.Hbonds>
donor molecule, donor type, donor heavy atom, donor atom, acceptor molecule, acceptor atom, score
      L1  H     9    25       P1  8028  1.00
      L1  C    18    29       P1  8028  1.00

> <Gold.PLP.Chemscore.Internal.Correction>
0.0236

> <Gold.Rescore>
     Score         DG    S(hbond)    S(metal)    S(lipo)     H(rot)  DE(clash)    DE(int)     intcor
     13.57     -15.25       1.92        0.00      80.48       2.37       0.18       1.50       ----

> <Gold.Chemscore.Fitness>
13.5725

> <Gold.Chemscore.DG>
-15.2496

> <Gold.Chemscore.ZeroCoef>
-5.4800

> <Gold.Chemscore.Hbond>
1.9186

> <Gold.Chemscore.Metal>
0.0000

> <Gold.Chemscore.Lipo>
80.4821

> <Gold.Chemscore.Internal_Hbond>
0.0000

> <Gold.Chemscore.DEClash>
0.1819

> <Gold.Chemscore.DEInternal>
1.4952

> <Gold.Chemscore.Rot>
2.3652

> <Gold.Chemscore.Internal.Correction>
   9.000000E+99

> <Gold.Chemscore.Hbonds>
donor molecule, donor type, donor heavy atom, donor atom, acceptor molecule, acceptor atom, score
      L1  H     3    21       P1  7957  0.02
      L1  H     9    25       P1  8028  0.99

> <Gold.Chemscore.Hbond.Weighted>
-6.4080

> <Gold.Chemscore.Metal.Weighted>
-0.0000

> <Gold.Chemscore.Lipo.Weighted>
-9.4164

> <Gold.Chemscore.Internal_Hbond.Weighted>
0.0000

> <Gold.Chemscore.DEClash.Weighted>
0.1819

> <Gold.Chemscore.DEInternal.Weighted>
1.4952

> <Gold.Chemscore.Rot.Weighted>
6.0548

> <Gold.Chemscore.Internal.Correction.Weighted>
   9.000000E+99

> <Gold.Protein.RotatedTorsions>
[ 6907 6896 6895 6894 ] final -140.62 input  -60.11 | X-H torsion
[ 7974 7965 7964 7962 ] final  170.79 input  175.53 | X-H torsion
[ 8008 7997 7996 7995 ] final   52.32 input   59.86 | X-H torsion
[ 10167 10162 10161 10158 ] final -143.14 input  -65.29 | X-H torsion
[ 10718 10713 10712 10709 ] final   83.46 input   66.30 | X-H torsion
[ 10763 10752 10751 10750 ] final -170.74 input  -60.55 | X-H torsion
[ 11005 11000 10999 10996 ] final  -74.40 input  -57.11 | X-H torsion

> <Gold.Protein.ActiveResidues>
 VAL166  LYS551  ARG553  GLY616  TRP617  ASP618  TYR619  PRO620  LYS621  CYS622 
 ASP623  PHE694  ASN695  SER759  ASP760  ASP761  ALA762  ILE779  LEU786  VAL792 
 PHE793  MET794  SER795  GLU796  ALA797  LYS798  CYS799  TRP800  GLU811  SER814 

> <Gold.Protein.RotatedAtoms>
  151.0631  133.5528  159.2632 H   0  0  0  0  0  0  0  0  0  0  0  0  # atno 6907 bound_to 6896
  151.2496  135.0616  159.9066 H   0  0  0  0  0  0  0  0  0  0  0  0  # atno 6908 bound_to 6896
  152.5400  134.0393  159.8114 H   0  0  0  0  0  0  0  0  0  0  0  0  # atno 6909 bound_to 6896
  144.7313  139.9254  143.6422 H   0  0  0  0  0  0  0  0  0  0  0  0  # atno 7974 bound_to 7965
  155.4499  140.3458  155.4299 H   0  0  0  0  0  0  0  0  0  0  0  0  # atno 8008 bound_to 7997
  156.1227  140.1491  156.9212 H   0  0  0  0  0  0  0  0  0  0  0  0  # atno 8009 bound_to 7997
  154.4835  140.0862  156.7411 H   0  0  0  0  0  0  0  0  0  0  0  0  # atno 8010 bound_to 7997
  139.8021  143.7819  152.2659 H   0  0  0  0  0  0  0  0  0  0  0  0  # atno 10167 bound_to 10162
  157.6879  131.0092  150.2527 H   0  0  0  0  0  0  0  0  0  0  0  0  # atno 10718 bound_to 10713
  154.6382  135.2895  155.0136 H   0  0  0  0  0  0  0  0  0  0  0  0  # atno 10763 bound_to 10752
  154.1272  135.6539  153.4918 H   0  0  0  0  0  0  0  0  0  0  0  0  # atno 10764 bound_to 10752
  153.0313  135.5301  154.7237 H   0  0  0  0  0  0  0  0  0  0  0  0  # atno 10765 bound_to 10752
  141.1634  133.6910  156.7358 H   0  0  0  0  0  0  0  0  0  0  0  0  # atno 11005 bound_to 11000
  146.0898  139.3887  143.0413 LP  0  0  0  0  0  0  0  0  0  0  0  0  # atno 17320 bound_to 7965
  145.7727  140.9890  143.1141 LP  0  0  0  0  0  0  0  0  0  0  0  0  # atno 17321 bound_to 7965
  139.7942  144.7399  150.9913 LP  0  0  0  0  0  0  0  0  0  0  0  0  # atno 17342 bound_to 10162
  140.7820  143.4411  151.0551 LP  0  0  0  0  0  0  0  0  0  0  0  0  # atno 17343 bound_to 10162
  156.3121  130.3773  149.7652 LP  0  0  0  0  0  0  0  0  0  0  0  0  # atno 17370 bound_to 10713
  156.5249  130.8232  151.3217 LP  0  0  0  0  0  0  0  0  0  0  0  0  # atno 17371 bound_to 10713
  140.2711  134.8391  157.3848 LP  0  0  0  0  0  0  0  0  0  0  0  0  # atno 17394 bound_to 11000
  140.1521  134.4837  155.7954 LP  0  0  0  0  0  0  0  0  0  0  0  0  # atno 17395 bound_to 11000

$$$$
