AV-unprocessed.smi:232|AV-procd|sdf|1779|dock9
  -GOLD-   2262020323D 1   1.00000     0.00000
 Structure written by MMmdl.
 52 55  0  0  0  0  0  0  0  0  1 V2000
  151.3460  140.1854  155.5911 C   0  0  0  0  0  0  0  0  0  0  0  0
  151.4269  141.5112  156.3600 C   0  0  0  0  0  0  0  0  0  0  0  0
  151.4728  141.3290  157.8881 C   0  0  2  0  0  0  0  0  0  0  0  0
  151.2511  142.6420  158.6606 C   0  0  0  0  0  0  0  0  0  0  0  0
  152.1798  142.5236  159.8648 C   0  0  0  0  0  0  0  0  0  0  0  0
  153.3606  141.7738  159.2570 C   0  0  1  0  0  0  0  0  0  0  0  0
  154.3782  141.2312  160.2806 C   0  0  0  0  0  0  0  0  0  0  0  0
  152.7626  140.7963  158.3446 N   0  0  0  0  0  0  0  0  0  0  0  0
  152.7738  139.4936  158.7173 C   0  0  0  0  0  0  0  0  0  0  0  0
  151.6380  138.8897  159.1579 N   0  0  0  0  0  0  0  0  0  0  0  0
  151.6654  137.6053  159.5276 C   0  0  0  0  0  0  0  0  0  0  0  0
  152.6998  136.7610  159.5397 N   0  0  0  0  0  0  0  0  0  0  0  0
  153.8409  137.3712  159.1080 C   0  0  0  0  0  0  0  0  0  0  0  0
  153.9651  138.7235  158.6858 C   0  0  0  0  0  0  0  0  0  0  0  0
  155.2778  138.9927  158.3205 N   0  0  0  0  0  0  0  0  0  0  0  0
  155.8959  137.8586  158.5106 C   0  0  0  0  0  0  0  0  0  0  0  0
  155.1072  136.8312  158.9775 N   0  0  0  0  0  0  0  0  0  0  0  0
  155.5253  135.4705  159.2619 C   0  0  0  0  0  0  0  0  0  0  0  0
  156.0784  135.3183  160.6920 C   0  0  1  0  0  0  0  0  0  0  0  0
  157.1451  136.2218  160.9127 O   0  0  0  0  0  0  0  0  0  0  0  0
  154.9944  135.4898  161.7749 C   0  0  1  0  0  0  0  0  0  0  0  0
  155.4358  135.2577  163.2227 C   0  0  0  0  0  0  0  0  0  0  0  0
  154.3954  136.0529  163.9790 C   0  0  0  0  0  0  0  0  0  0  0  0
  154.2082  137.2641  163.0691 C   0  0  0  0  0  0  0  0  0  0  0  0
  154.4089  136.7895  161.7402 O   0  0  0  0  0  0  0  0  0  0  0  0
  151.2528  140.3645  154.5199 H   0  0  0  0  0  0  0  0  0  0  0  0
  150.4824  139.5995  155.9066 H   0  0  0  0  0  0  0  0  0  0  0  0
  152.2381  139.5787  155.7464 H   0  0  0  0  0  0  0  0  0  0  0  0
  152.2959  142.0785  156.0247 H   0  0  0  0  0  0  0  0  0  0  0  0
  150.5529  142.1102  156.1018 H   0  0  0  0  0  0  0  0  0  0  0  0
  150.6627  140.6536  158.1649 H   0  0  0  0  0  0  0  0  0  0  0  0
  151.5568  143.4965  158.0549 H   0  0  0  0  0  0  0  0  0  0  0  0
  150.2092  142.7925  158.9443 H   0  0  0  0  0  0  0  0  0  0  0  0
  152.4587  143.4911  160.2828 H   0  0  0  0  0  0  0  0  0  0  0  0
  151.7099  141.9302  160.6505 H   0  0  0  0  0  0  0  0  0  0  0  0
  153.9024  142.4712  158.6165 H   0  0  0  0  0  0  0  0  0  0  0  0
  154.8107  142.0474  160.8594 H   0  0  0  0  0  0  0  0  0  0  0  0
  155.1992  140.7121  159.7851 H   0  0  0  0  0  0  0  0  0  0  0  0
  153.9184  140.5406  160.9883 H   0  0  0  0  0  0  0  0  0  0  0  0
  150.7232  137.1953  159.8602 H   0  0  0  0  0  0  0  0  0  0  0  0
  156.9500  137.7373  158.3076 H   0  0  0  0  0  0  0  0  0  0  0  0
  154.6754  134.8051  159.1046 H   0  0  0  0  0  0  0  0  0  0  0  0
  156.2839  135.1872  158.5312 H   0  0  0  0  0  0  0  0  0  0  0  0
  156.4959  134.3157  160.7946 H   0  0  0  0  0  0  0  0  0  0  0  0
  157.6084  136.3389  160.0973 H   0  0  0  0  0  0  0  0  0  0  0  0
  154.1830  134.7921  161.5604 H   0  0  0  0  0  0  0  0  0  0  0  0
  155.4532  134.2029  163.4977 H   0  0  0  0  0  0  0  0  0  0  0  0
  156.4242  135.6761  163.4155 H   0  0  0  0  0  0  0  0  0  0  0  0
  153.4661  135.4856  164.0474 H   0  0  0  0  0  0  0  0  0  0  0  0
  154.7090  136.3214  164.9881 H   0  0  0  0  0  0  0  0  0  0  0  0
  153.2274  137.7258  163.1844 H   0  0  0  0  0  0  0  0  0  0  0  0
  154.9656  138.0190  163.2836 H   0  0  0  0  0  0  0  0  0  0  0  0
  1  2  1  0  0  0  0
  1 26  1  0  0  0  0
  1 27  1  0  0  0  0
  1 28  1  0  0  0  0
  2  3  1  0  0  0  0
  2 29  1  0  0  0  0
  2 30  1  0  0  0  0
  3  8  1  0  0  0  0
  3  4  1  0  0  0  0
  3 31  1  0  0  0  0
  4  5  1  0  0  0  0
  4 32  1  0  0  0  0
  4 33  1  0  0  0  0
  5  6  1  0  0  0  0
  5 34  1  0  0  0  0
  5 35  1  0  0  0  0
  6  7  1  0  0  0  0
  6  8  1  0  0  0  0
  6 36  1  0  0  0  0
  7 37  1  0  0  0  0
  7 38  1  0  0  0  0
  7 39  1  0  0  0  0
  8  9  1  0  0  0  0
  9 14  1  0  0  0  0
  9 10  2  0  0  0  0
 10 11  1  0  0  0  0
 11 12  2  0  0  0  0
 11 40  1  0  0  0  0
 12 13  1  0  0  0  0
 13 17  1  0  0  0  0
 13 14  2  0  0  0  0
 14 15  1  0  0  0  0
 15 16  2  0  0  0  0
 16 17  1  0  0  0  0
 16 41  1  0  0  0  0
 17 18  1  0  0  0  0
 18 19  1  0  0  0  0
 18 42  1  0  0  0  0
 18 43  1  0  0  0  0
 19 20  1  0  0  0  0
 19 21  1  0  0  0  0
 19 44  1  0  0  0  0
 20 45  1  0  0  0  0
 21 25  1  0  0  0  0
 21 22  1  0  0  0  0
 21 46  1  0  0  0  0
 22 23  1  0  0  0  0
 22 47  1  0  0  0  0
 22 48  1  0  0  0  0
 23 24  1  0  0  0  0
 23 49  1  0  0  0  0
 23 50  1  0  0  0  0
 24 25  1  0  0  0  0
 24 51  1  0  0  0  0
 24 52  1  0  0  0  0
M  END
> <s_m_source_file>
AV-unprocessed.smi

> <i_m_source_file_index>
232

> <i_lp_mmshare_version>
43012

> <i_f3d_flags>
0

> <s_epik_input>
W0NIM11bQ0gyXVtDQEBIXTFbQ0gyXVtDSDJdW0NAQEhdKFtDSDNdKU4xYyhuW2NIXW4yKWMoYzIzKW5bY0hdbjNbQ0gyXVtDQEhdKFtPSF0pW0NAQEhdNFtDSDJdW0NIMl1bQ0gyXU80

> <s_epik_cmdline>
J2VwaWtfcHl0aG9uJywgJy1waCcsICc3LjAnLCAnLXRuJywgJzgnLCAnLW1hJywgJzIwMCcsICctbWV0YWxfYmluZGluZycsICctaW1hZScsICc8aW5maWxlLm1hZT4nLCAnLW9tYWUnLCAnPG91dGZpbGUubWFlPic=

> <r_lp_tautomer_probability>
1

> <r_epik_Ionization_Penalty>
0.00258048

> <r_epik_Ionization_Penalty_Charging>
0

> <r_epik_Ionization_Penalty_Neutral>
0.00258048

> <r_epik_State_Penalty>
0.00168551

> <r_epik_Charging_Adjusted_Penalty>
0.00168551

> <i_epik_Tot_Q>
0

> <i_epik_Tot_abs_Q>
0

> <r_epik_Metal_State_Penalty>
-0

> <b_epik_Metal_Only>
0

> <s_lp_Force_Field>
OPLS_2005

> <r_lp_Energy>
58.3384

> <b_lp_Chiralities_Consistent>
1

> <s_lp_Variant>
AV-unprocessed.smi:232-13

> <Gold.Version>
5.8.1

> <Gold.Id.Protein>
6NUR|6NUR_protein|mol2

> <Gold.PLP.Fitness>
43.4202

> <Gold.PLP.PLP>
-39.1961

> <Gold.PLP.part.hbond>
-1.9748

> <Gold.PLP.part.metal>
0.0000

> <Gold.PLP.part.buried>
-4.9271

> <Gold.PLP.part.nonpolar>
-30.9141

> <Gold.PLP.part.repulsive>
0.0000

> <Gold.PLP.ligand.clash>
0.0000

> <Gold.PLP.ligand.torsion>
0.9877

> <Gold.PLP.Chemscore.Hbond>
2.0000

> <Gold.PLP.Chemscore.CHOScore>
0.0000

> <Gold.PLP.Chemscore.Metal>
0.0000

> <Gold.Chemscore.Hbonds>
donor molecule, donor type, donor heavy atom, donor atom, acceptor molecule, acceptor atom, score
      P1  H  6896  6909       L1    12  1.00
      P1  H  7997  8009       L1    15  0.67

> <Gold.PLP.Chemscore.Internal.Correction>
0.1995

> <Gold.Rescore>
     Score         DG    S(hbond)    S(metal)    S(lipo)     H(rot)  DE(clash)    DE(int)     intcor
     11.36     -17.28       1.91        0.00      99.27       2.43       0.06       5.85       ----

> <Gold.Chemscore.Fitness>
11.3626

> <Gold.Chemscore.DG>
-17.2751

> <Gold.Chemscore.ZeroCoef>
-5.4800

> <Gold.Chemscore.Hbond>
1.9136

> <Gold.Chemscore.Metal>
0.0000

> <Gold.Chemscore.Lipo>
99.2678

> <Gold.Chemscore.Internal_Hbond>
0.0000

> <Gold.Chemscore.DEClash>
0.0600

> <Gold.Chemscore.DEInternal>
5.8525

> <Gold.Chemscore.Rot>
2.4260

> <Gold.Chemscore.Internal.Correction>
   9.000000E+99

> <Gold.Chemscore.Hbonds>
donor molecule, donor type, donor heavy atom, donor atom, acceptor molecule, acceptor atom, score
      P1  H  6896  6909       L1    12  0.44
      P1  H  7997  8009       L1    15  0.55

> <Gold.Chemscore.Hbond.Weighted>
-6.3915

> <Gold.Chemscore.Metal.Weighted>
-0.0000

> <Gold.Chemscore.Lipo.Weighted>
-11.6143

> <Gold.Chemscore.Internal_Hbond.Weighted>
0.0000

> <Gold.Chemscore.DEClash.Weighted>
0.0600

> <Gold.Chemscore.DEInternal.Weighted>
5.8525

> <Gold.Chemscore.Rot.Weighted>
6.2107

> <Gold.Chemscore.Internal.Correction.Weighted>
   9.000000E+99

> <Gold.Protein.RotatedTorsions>
[ 6907 6896 6895 6894 ] final  140.08 input  -60.11 | X-H torsion
[ 7974 7965 7964 7962 ] final   97.99 input  175.53 | X-H torsion
[ 8008 7997 7996 7995 ] final  105.81 input   59.86 | X-H torsion
[ 10167 10162 10161 10158 ] final   83.38 input  -65.29 | X-H torsion
[ 10718 10713 10712 10709 ] final  -35.95 input   66.30 | X-H torsion
[ 10763 10752 10751 10750 ] final -179.26 input  -60.55 | X-H torsion
[ 11005 11000 10999 10996 ] final -157.90 input  -57.11 | X-H torsion

> <Gold.Protein.ActiveResidues>
 VAL166  LYS551  ARG553  GLY616  TRP617  ASP618  TYR619  PRO620  LYS621  CYS622 
 ASP623  PHE694  ASN695  SER759  ASP760  ASP761  ALA762  ILE779  LEU786  VAL792 
 PHE793  MET794  SER795  GLU796  ALA797  LYS798  CYS799  TRP800  GLU811  SER814 

> <Gold.Protein.RotatedAtoms>
  152.2473  133.5185  159.5304 H   0  0  0  0  0  0  0  0  0  0  0  0  # atno 6907 bound_to 6896
  150.7082  134.1008  159.3974 H   0  0  0  0  0  0  0  0  0  0  0  0  # atno 6908 bound_to 6896
  151.8928  135.0409  160.0550 H   0  0  0  0  0  0  0  0  0  0  0  0  # atno 6909 bound_to 6896
  145.4181  139.2325  143.3211 H   0  0  0  0  0  0  0  0  0  0  0  0  # atno 7974 bound_to 7965
  156.1691  140.3124  155.8941 H   0  0  0  0  0  0  0  0  0  0  0  0  # atno 8008 bound_to 7997
  155.3625  140.0477  157.3063 H   0  0  0  0  0  0  0  0  0  0  0  0  # atno 8009 bound_to 7997
  154.5222  140.2202  155.8965 H   0  0  0  0  0  0  0  0  0  0  0  0  # atno 8010 bound_to 7997
  139.9190  144.6225  150.8460 H   0  0  0  0  0  0  0  0  0  0  0  0  # atno 10167 bound_to 10162
  156.3326  130.4281  149.7859 H   0  0  0  0  0  0  0  0  0  0  0  0  # atno 10718 bound_to 10713
  154.5373  135.2803  155.1127 H   0  0  0  0  0  0  0  0  0  0  0  0  # atno 10763 bound_to 10752
  154.2623  135.6319  153.5283 H   0  0  0  0  0  0  0  0  0  0  0  0  # atno 10764 bound_to 10752
  152.9970  135.5608  154.5903 H   0  0  0  0  0  0  0  0  0  0  0  0  # atno 10765 bound_to 10752
  140.6595  134.4364  157.5234 H   0  0  0  0  0  0  0  0  0  0  0  0  # atno 11005 bound_to 11000
  146.2670  140.4902  142.8830 LP  0  0  0  0  0  0  0  0  0  0  0  0  # atno 17320 bound_to 7965
  144.8264  140.6635  143.6320 LP  0  0  0  0  0  0  0  0  0  0  0  0  # atno 17321 bound_to 7965
  140.7667  143.3311  151.2409 LP  0  0  0  0  0  0  0  0  0  0  0  0  # atno 17342 bound_to 10162
  139.6878  143.9744  152.2843 LP  0  0  0  0  0  0  0  0  0  0  0  0  # atno 17343 bound_to 10162
  156.5125  130.8178  151.3174 LP  0  0  0  0  0  0  0  0  0  0  0  0  # atno 17370 bound_to 10713
  157.7433  130.9909  150.2582 LP  0  0  0  0  0  0  0  0  0  0  0  0  # atno 17371 bound_to 10713
  139.9018  134.8539  156.1866 LP  0  0  0  0  0  0  0  0  0  0  0  0  # atno 17394 bound_to 11000
  141.0476  133.6905  156.1712 LP  0  0  0  0  0  0  0  0  0  0  0  0  # atno 17395 bound_to 11000

$$$$
