AV-unprocessed.smi:1995|AV-procd|sdf|8083|dock10
  -GOLD-   2272010303D 1   1.00000     0.00000
 Structure written by MMmdl.
 42 43  0  0  0  0  0  0  0  0  3 V2000
  150.0297  134.0754  155.3598 C   0  0  0  0  0  0  0  0  0  0  0  0
  149.6833  135.5371  155.0262 C   0  0  0  0  0  0  0  0  0  0  0  0
  148.1669  135.8976  154.9905 C   0  0  2  0  0  0  0  0  0  0  0  0
  148.0064  137.4415  154.9645 C   0  0  0  0  0  0  0  0  0  0  0  0
  147.4582  135.3893  156.2825 C   0  0  0  0  0  0  0  0  0  0  0  0
  147.9501  136.0636  157.4857 N   0  0  0  0  0  0  0  0  0  0  0  0
  148.5624  135.4922  158.5324 C   0  0  0  0  0  0  0  0  0  0  0  0
  148.8662  134.2984  158.4967 O   0  0  0  0  0  0  0  0  0  0  0  0
  148.7567  136.3350  159.5698 N   0  5  0  0  0  0  0  0  0  0  0  0
  148.0600  136.1679  160.7055 C   0  0  0  0  0  0  0  0  0  0  0  0
  147.9868  137.1041  161.6589 N   0  0  0  0  0  0  0  0  0  0  0  0
  147.2107  136.7205  162.7543 C   0  0  0  0  0  0  0  0  0  0  0  0
  146.6867  135.4608  162.6344 C   0  0  0  0  0  0  0  0  0  0  0  0
  147.1546  134.7141  161.1333 S   0  0  0  0  0  0  0  0  0  0  0  0
  147.4958  135.2742  153.7901 N   0  3  0  0  0  0  0  0  0  0  0  0
  147.5698  133.7926  153.6578 C   0  0  0  0  0  0  0  0  0  0  0  0
  147.0381  133.3577  152.2793 C   0  0  0  0  0  0  0  0  0  0  0  0
  145.7123  133.8335  152.0872 O   0  0  0  0  0  0  0  0  0  0  0  0
  145.6477  135.2524  152.1401 C   0  0  0  0  0  0  0  0  0  0  0  0
  146.0980  135.7178  153.5322 C   0  0  0  0  0  0  0  0  0  0  0  0
  151.1088  133.9250  155.3239 H   0  0  0  0  0  0  0  0  0  0  0  0
  149.5849  133.3791  154.6497 H   0  0  0  0  0  0  0  0  0  0  0  0
  149.7028  133.7962  156.3611 H   0  0  0  0  0  0  0  0  0  0  0  0
  150.1914  136.1753  155.7499 H   0  0  0  0  0  0  0  0  0  0  0  0
  150.1408  135.7565  154.0615 H   0  0  0  0  0  0  0  0  0  0  0  0
  148.2905  137.8928  155.9153 H   0  0  0  0  0  0  0  0  0  0  0  0
  146.9737  137.7386  154.7773 H   0  0  0  0  0  0  0  0  0  0  0  0
  148.6321  137.9049  154.2010 H   0  0  0  0  0  0  0  0  0  0  0  0
  146.3745  135.4786  156.2027 H   0  0  0  0  0  0  0  0  0  0  0  0
  147.6419  134.3243  156.4232 H   0  0  0  0  0  0  0  0  0  0  0  0
  147.7479  137.0500  157.5615 H   0  0  0  0  0  0  0  0  0  0  0  0
  147.0864  137.4078  163.5776 H   0  0  0  0  0  0  0  0  0  0  0  0
  146.0590  134.9285  163.3330 H   0  0  0  0  0  0  0  0  0  0  0  0
  148.5914  133.4256  153.7338 H   0  0  0  0  0  0  0  0  0  0  0  0
  146.9946  133.3182  154.4538 H   0  0  0  0  0  0  0  0  0  0  0  0
  147.6847  133.7284  151.4820 H   0  0  0  0  0  0  0  0  0  0  0  0
  147.0355  132.2701  152.2047 H   0  0  0  0  0  0  0  0  0  0  0  0
  146.2666  135.6942  151.3571 H   0  0  0  0  0  0  0  0  0  0  0  0
  144.6209  135.5659  151.9521 H   0  0  0  0  0  0  0  0  0  0  0  0
  145.4245  135.2987  154.2807 H   0  0  0  0  0  0  0  0  0  0  0  0
  146.0041  136.7999  153.5956 H   0  0  0  0  0  0  0  0  0  0  0  0
  148.0327  135.6251  153.0085 H   0  0  0  0  0  0  0  0  0  0  0  0
  1  2  1  0  0  0  0
  1 21  1  0  0  0  0
  1 22  1  0  0  0  0
  1 23  1  0  0  0  0
  2  3  1  0  0  0  0
  2 24  1  0  0  0  0
  2 25  1  0  0  0  0
  3  4  1  0  0  0  0
  3  5  1  0  0  0  0
  3 15  1  0  0  0  0
  4 26  1  0  0  0  0
  4 27  1  0  0  0  0
  4 28  1  0  0  0  0
  5  6  1  0  0  0  0
  5 29  1  0  0  0  0
  5 30  1  0  0  0  0
  6  7  1  0  0  0  0
  6 31  1  0  0  0  0
  7  8  2  0  0  0  0
  7  9  1  0  0  0  0
  9 10  1  0  0  0  0
 10 14  1  0  0  0  0
 10 11  2  0  0  0  0
 11 12  1  0  0  0  0
 12 13  2  0  0  0  0
 12 32  1  0  0  0  0
 13 14  1  0  0  0  0
 13 33  1  0  0  0  0
 15 20  1  0  0  0  0
 15 16  1  0  0  0  0
 15 42  1  0  0  0  0
 16 17  1  0  0  0  0
 16 34  1  0  0  0  0
 16 35  1  0  0  0  0
 17 18  1  0  0  0  0
 17 36  1  0  0  0  0
 17 37  1  0  0  0  0
 18 19  1  0  0  0  0
 19 20  1  0  0  0  0
 19 38  1  0  0  0  0
 19 39  1  0  0  0  0
 20 40  1  0  0  0  0
 20 41  1  0  0  0  0
M  CHG  1   9  -1
M  CHG  1  15   1
M  END
> <s_m_source_file>
AV-unprocessed.smi

> <i_m_source_file_index>
1995

> <i_lp_mmshare_version>
43012

> <i_f3d_flags>
0

> <s_epik_input>
W0NIMl0xW0NIMl1PW0NIMl1bQ0gyXU4xW0NAQF0oW0NIM10pKFtDSDJdW0NIM10pW0NIMl1bTkhdQyg9TylbTkhdYzJuW2NIXVtjSF1zMg==

> <s_epik_cmdline>
J2VwaWtfcHl0aG9uJywgJy1waCcsICc3LjAnLCAnLXRuJywgJzgnLCAnLW1hJywgJzIwMCcsICctbWV0YWxfYmluZGluZycsICctaW1hZScsICc8aW5maWxlLm1hZT4nLCAnLW9tYWUnLCAnPG91dGZpbGUubWFlPic=

> <r_lp_tautomer_probability>
0.999

> <r_epik_Ionization_Penalty>
8.09417

> <r_epik_Ionization_Penalty_Charging>
6.70334

> <r_epik_Ionization_Penalty_Neutral>
1.39083

> <r_epik_State_Penalty>
6.86521

> <r_epik_Charging_Adjusted_Penalty>
13.5685

> <i_epik_Tot_Q>
0

> <i_epik_Tot_abs_Q>
2

> <r_epik_Metal_State_Penalty>
2.79608

> <b_epik_Metal_Only>
1

> <s_lp_Force_Field>
OPLS_2005

> <r_lp_Energy>
20.9753

> <b_lp_Chiralities_Consistent>
1

> <s_lp_Variant>
AV-unprocessed.smi:1995-8

> <Gold.Version>
5.8.1

> <Gold.Id.Protein>
6NUR|6NUR_protein|mol2

> <Gold.PLP.Fitness>
41.6204

> <Gold.PLP.PLP>
-29.9200

> <Gold.PLP.part.hbond>
-4.0000

> <Gold.PLP.part.metal>
0.0000

> <Gold.PLP.part.buried>
-2.9556

> <Gold.PLP.part.nonpolar>
-22.9389

> <Gold.PLP.part.repulsive>
0.1344

> <Gold.PLP.ligand.clash>
0.0000

> <Gold.PLP.ligand.torsion>
0.8869

> <Gold.PLP.Chemscore.Hbond>
4.4337

> <Gold.PLP.Chemscore.CHOScore>
0.0000

> <Gold.PLP.Chemscore.Metal>
0.0000

> <Gold.Chemscore.Hbonds>
donor molecule, donor type, donor heavy atom, donor atom, acceptor molecule, acceptor atom, score
      L1  H    15    42       P1  7948  2.00
      P1  H  6896  6909       L1     8  0.63
      P1  H  6931  6943       L1    11  1.00
      P1  H  6934  6947       L1    11  0.37

> <Gold.PLP.Chemscore.Internal.Correction>
0.1732

> <Gold.Rescore>
     Score         DG    S(hbond)    S(metal)    S(lipo)     H(rot)  DE(clash)    DE(int)     intcor
     18.33     -19.37       3.48        0.00      57.56       1.75       0.02       1.02       ----

> <Gold.Chemscore.Fitness>
18.3315

> <Gold.Chemscore.DG>
-19.3653

> <Gold.Chemscore.ZeroCoef>
-5.4800

> <Gold.Chemscore.Hbond>
3.4841

> <Gold.Chemscore.Metal>
0.0000

> <Gold.Chemscore.Lipo>
57.5576

> <Gold.Chemscore.Internal_Hbond>
0.0000

> <Gold.Chemscore.DEClash>
0.0180

> <Gold.Chemscore.DEInternal>
1.0158

> <Gold.Chemscore.Rot>
1.7523

> <Gold.Chemscore.Internal.Correction>
   9.000000E+99

> <Gold.Chemscore.Hbonds>
donor molecule, donor type, donor heavy atom, donor atom, acceptor molecule, acceptor atom, score
      L1  H    15    42       P1  7948  0.97
      P1  H  6896  6909       L1     8  0.58
      P1  H  6931  6943       L1    11  0.89
      P1  H  6934  6947       L1    11  0.20

> <Gold.Chemscore.Hbond.Weighted>
-11.6369

> <Gold.Chemscore.Metal.Weighted>
-0.0000

> <Gold.Chemscore.Lipo.Weighted>
-6.7342

> <Gold.Chemscore.Internal_Hbond.Weighted>
0.0000

> <Gold.Chemscore.DEClash.Weighted>
0.0180

> <Gold.Chemscore.DEInternal.Weighted>
1.0158

> <Gold.Chemscore.Rot.Weighted>
4.4858

> <Gold.Chemscore.Internal.Correction.Weighted>
   9.000000E+99

> <Gold.Protein.RotatedTorsions>
[ 6907 6896 6895 6894 ] final   -1.40 input  -60.11 | X-H torsion
[ 7974 7965 7964 7962 ] final  -60.21 input  175.53 | X-H torsion
[ 8008 7997 7996 7995 ] final   70.54 input   59.86 | X-H torsion
[ 10167 10162 10161 10158 ] final -108.40 input  -65.29 | X-H torsion
[ 10718 10713 10712 10709 ] final  -56.65 input   66.30 | X-H torsion
[ 10763 10752 10751 10750 ] final   64.73 input  -60.55 | X-H torsion
[ 11005 11000 10999 10996 ] final  -47.94 input  -57.11 | X-H torsion

> <Gold.Protein.ActiveResidues>
 VAL166  LYS551  ARG553  GLY616  TRP617  ASP618  TYR619  PRO620  LYS621  CYS622 
 ASP623  PHE694  ASN695  SER759  ASP760  ASP761  ALA762  ILE779  LEU786  VAL792 
 PHE793  MET794  SER795  GLU796  ALA797  LYS798  CYS799  TRP800  GLU811  SER814 

> <Gold.Protein.RotatedAtoms>
  151.5467  135.1068  159.9939 H   0  0  0  0  0  0  0  0  0  0  0  0  # atno 6907 bound_to 6896
  152.4510  133.7626  159.6765 H   0  0  0  0  0  0  0  0  0  0  0  0  # atno 6908 bound_to 6896
  150.8439  133.7826  159.3075 H   0  0  0  0  0  0  0  0  0  0  0  0  # atno 6909 bound_to 6896
  145.8182  140.8556  143.0146 H   0  0  0  0  0  0  0  0  0  0  0  0  # atno 7974 bound_to 7965
  155.7403  140.3490  155.5101 H   0  0  0  0  0  0  0  0  0  0  0  0  # atno 8008 bound_to 7997
  155.9100  140.1049  157.1308 H   0  0  0  0  0  0  0  0  0  0  0  0  # atno 8009 bound_to 7997
  154.4054  140.1269  156.4532 H   0  0  0  0  0  0  0  0  0  0  0  0  # atno 8010 bound_to 7997
  140.1665  143.4077  152.1386 H   0  0  0  0  0  0  0  0  0  0  0  0  # atno 10167 bound_to 10162
  156.1272  130.4162  150.0333 H   0  0  0  0  0  0  0  0  0  0  0  0  # atno 10718 bound_to 10713
  153.0067  135.5382  154.6556 H   0  0  0  0  0  0  0  0  0  0  0  0  # atno 10763 bound_to 10752
  154.5777  135.2847  155.0766 H   0  0  0  0  0  0  0  0  0  0  0  0  # atno 10764 bound_to 10752
  154.1907  135.6500  153.5112 H   0  0  0  0  0  0  0  0  0  0  0  0  # atno 10765 bound_to 10752
  141.0671  133.6690  156.3370 H   0  0  0  0  0  0  0  0  0  0  0  0  # atno 11005 bound_to 11000
  144.6750  140.0495  143.7479 LP  0  0  0  0  0  0  0  0  0  0  0  0  # atno 17320 bound_to 7965
  145.9703  139.2865  143.1102 LP  0  0  0  0  0  0  0  0  0  0  0  0  # atno 17321 bound_to 7965
  139.5357  144.7207  151.4902 LP  0  0  0  0  0  0  0  0  0  0  0  0  # atno 17342 bound_to 10162
  140.6609  143.8500  150.6887 LP  0  0  0  0  0  0  0  0  0  0  0  0  # atno 17343 bound_to 10162
  156.8256  130.9374  151.3639 LP  0  0  0  0  0  0  0  0  0  0  0  0  # atno 17370 bound_to 10713
  157.6453  130.8839  149.9526 LP  0  0  0  0  0  0  0  0  0  0  0  0  # atno 17371 bound_to 10713
  140.5750  134.5802  157.5466 LP  0  0  0  0  0  0  0  0  0  0  0  0  # atno 17394 bound_to 11000
  139.9487  134.7656  156.0500 LP  0  0  0  0  0  0  0  0  0  0  0  0  # atno 17395 bound_to 11000

$$$$
