AV-unprocessed.smi:3215|AV-procd|sdf|12285|dock6
  -GOLD-   2272018123D 1   1.00000     0.00000
 Structure written by MMmdl.
 38 39  0  0  0  0  0  0  0  0  2 V2000
  153.5331  143.2375  163.3185 C   0  0  0  0  0  0  0  0  0  0  0  0
  153.0177  143.0556  161.9198 C   0  0  0  0  0  0  0  0  0  0  0  0
  153.1600  141.9182  161.0752 C   0  0  0  0  0  0  0  0  0  0  0  0
  152.5835  142.0795  159.8954 N   0  0  0  0  0  0  0  0  0  0  0  0
  152.0496  143.3182  159.9462 N   0  0  0  0  0  0  0  0  0  0  0  0
  151.3282  143.8441  158.8001 C   0  0  0  0  0  0  0  0  0  0  0  0
  149.9106  143.2603  158.6731 C   0  0  0  0  0  0  0  0  0  0  0  0
  149.6220  142.8429  157.2865 N   0  3  0  0  0  0  0  0  0  0  0  0
  150.6479  141.9646  156.6888 C   0  0  0  0  0  0  0  0  0  0  0  0
  150.0643  141.0413  155.6096 C   0  0  0  0  0  0  0  0  0  0  0  0
  149.0476  141.3812  155.0020 O   0  0  0  0  0  0  0  0  0  0  0  0
  150.6917  139.8735  155.3607 N   0  0  0  0  0  0  0  0  0  0  0  0
  151.9075  139.4477  156.0514 C   0  0  0  0  0  0  0  0  0  0  0  0
  152.4068  138.2197  155.2903 C   0  0  0  0  0  0  0  0  0  0  0  0
  151.1516  137.6460  154.6483 C   0  0  0  0  0  0  0  0  0  0  0  0
  150.2743  138.8700  154.3819 C   0  0  0  0  0  0  0  0  0  0  0  0
  152.3070  143.9345  161.1525 C   0  0  0  0  0  0  0  0  0  0  0  0
  154.0615  142.3530  163.6747 H   0  0  0  0  0  0  0  0  0  0  0  0
  152.7243  143.4333  164.0228 H   0  0  0  0  0  0  0  0  0  0  0  0
  154.2275  144.0749  163.3851 H   0  0  0  0  0  0  0  0  0  0  0  0
  153.6624  140.9852  161.2841 H   0  0  0  0  0  0  0  0  0  0  0  0
  151.2825  144.9309  158.8834 H   0  0  0  0  0  0  0  0  0  0  0  0
  151.9064  143.6232  157.9021 H   0  0  0  0  0  0  0  0  0  0  0  0
  149.8103  142.3979  159.3330 H   0  0  0  0  0  0  0  0  0  0  0  0
  149.1686  143.9928  158.9943 H   0  0  0  0  0  0  0  0  0  0  0  0
  148.7410  142.3481  157.2797 H   0  0  0  0  0  0  0  0  0  0  0  0
  151.4325  142.5832  156.2515 H   0  0  0  0  0  0  0  0  0  0  0  0
  151.0998  141.3579  157.4746 H   0  0  0  0  0  0  0  0  0  0  0  0
  152.6644  140.2334  156.0757 H   0  0  0  0  0  0  0  0  0  0  0  0
  151.6578  139.1851  157.0804 H   0  0  0  0  0  0  0  0  0  0  0  0
  153.1043  138.5312  154.5115 H   0  0  0  0  0  0  0  0  0  0  0  0
  152.9211  137.5037  155.9319 H   0  0  0  0  0  0  0  0  0  0  0  0
  151.3622  137.0707  153.7463 H   0  0  0  0  0  0  0  0  0  0  0  0
  150.6512  136.9849  155.3573 H   0  0  0  0  0  0  0  0  0  0  0  0
  149.2169  138.6165  154.4673 H   0  0  0  0  0  0  0  0  0  0  0  0
  150.4542  139.2554  153.3772 H   0  0  0  0  0  0  0  0  0  0  0  0
  151.9628  144.9358  161.3669 H   0  0  0  0  0  0  0  0  0  0  0  0
  149.5303  143.6664  156.7087 H   0  0  0  0  0  0  0  0  0  0  0  0
  1  2  1  0  0  0  0
  1 18  1  0  0  0  0
  1 19  1  0  0  0  0
  1 20  1  0  0  0  0
  2 17  2  0  0  0  0
  2  3  1  0  0  0  0
  3  4  2  0  0  0  0
  3 21  1  0  0  0  0
  4  5  1  0  0  0  0
  5  6  1  0  0  0  0
  5 17  1  0  0  0  0
  6  7  1  0  0  0  0
  6 22  1  0  0  0  0
  6 23  1  0  0  0  0
  7  8  1  0  0  0  0
  7 24  1  0  0  0  0
  7 25  1  0  0  0  0
  8  9  1  0  0  0  0
  8 26  1  0  0  0  0
  8 38  1  0  0  0  0
  9 10  1  0  0  0  0
  9 27  1  0  0  0  0
  9 28  1  0  0  0  0
 10 11  2  0  0  0  0
 10 12  1  0  0  0  0
 12 16  1  0  0  0  0
 12 13  1  0  0  0  0
 13 14  1  0  0  0  0
 13 29  1  0  0  0  0
 13 30  1  0  0  0  0
 14 15  1  0  0  0  0
 14 31  1  0  0  0  0
 14 32  1  0  0  0  0
 15 16  1  0  0  0  0
 15 33  1  0  0  0  0
 15 34  1  0  0  0  0
 16 35  1  0  0  0  0
 16 36  1  0  0  0  0
 17 37  1  0  0  0  0
M  CHG  1   8   1
M  END
> <s_m_source_file>
AV-unprocessed.smi

> <i_m_source_file_index>
3215

> <i_lp_mmshare_version>
43012

> <i_f3d_flags>
0

> <s_epik_input>
W0NIM11jMVtjSF1ubihbY0hdMSlbQ0gyXVtDSDJdW05IXVtDSDJdQyg9TylOMltDSDJdW0NIMl1bQ0gyXVtDSDJdMg==

> <s_epik_cmdline>
J2VwaWtfcHl0aG9uJywgJy1waCcsICc3LjAnLCAnLXRuJywgJzgnLCAnLW1hJywgJzIwMCcsICctbWV0YWxfYmluZGluZycsICctaW1hZScsICc8aW5maWxlLm1hZT4nLCAnLW9tYWUnLCAnPG91dGZpbGUubWFlPic=

> <r_lp_tautomer_probability>
1

> <r_epik_Ionization_Penalty>
0.203173

> <r_epik_Ionization_Penalty_Charging>
0.203168

> <r_epik_Ionization_Penalty_Neutral>
4.79177e-06

> <r_epik_State_Penalty>
0.193773

> <r_epik_Charging_Adjusted_Penalty>
0.396942

> <i_epik_Tot_Q>
1

> <i_epik_Tot_abs_Q>
1

> <r_epik_Metal_State_Penalty>
0.194058

> <b_epik_Metal_Only>
0

> <s_lp_Force_Field>
OPLS_2005

> <r_lp_Energy>
25.9096

> <b_lp_Chiralities_Consistent>
1

> <s_lp_Variant>
AV-unprocessed.smi:3215-1

> <Gold.Version>
5.8.1

> <Gold.Id.Protein>
6NUR|6NUR_protein|mol2

> <Gold.PLP.Fitness>
50.1295

> <Gold.PLP.PLP>
-46.2710

> <Gold.PLP.part.hbond>
-1.0000

> <Gold.PLP.part.metal>
0.0000

> <Gold.PLP.part.buried>
-2.9617

> <Gold.PLP.part.nonpolar>
-40.4456

> <Gold.PLP.part.repulsive>
0.1511

> <Gold.PLP.ligand.clash>
0.0000

> <Gold.PLP.ligand.torsion>
1.0852

> <Gold.PLP.Chemscore.Hbond>
2.0000

> <Gold.PLP.Chemscore.CHOScore>
0.0000

> <Gold.PLP.Chemscore.Metal>
0.0000

> <Gold.Chemscore.Hbonds>
donor molecule, donor type, donor heavy atom, donor atom, acceptor molecule, acceptor atom, score
      L1  H     8    38       P1  8028  2.00

> <Gold.PLP.Chemscore.Internal.Correction>
0.0290

> <Gold.Rescore>
     Score         DG    S(hbond)    S(metal)    S(lipo)     H(rot)  DE(clash)    DE(int)     intcor
     15.67     -16.87       1.32        0.00      99.48       1.81       0.38       0.82       ----

> <Gold.Chemscore.Fitness>
15.6748

> <Gold.Chemscore.DG>
-16.8712

> <Gold.Chemscore.ZeroCoef>
-5.4800

> <Gold.Chemscore.Hbond>
1.3160

> <Gold.Chemscore.Metal>
0.0000

> <Gold.Chemscore.Lipo>
99.4774

> <Gold.Chemscore.Internal_Hbond>
0.0000

> <Gold.Chemscore.DEClash>
0.3794

> <Gold.Chemscore.DEInternal>
0.8170

> <Gold.Chemscore.Rot>
1.8137

> <Gold.Chemscore.Internal.Correction>
   9.000000E+99

> <Gold.Chemscore.Hbonds>
donor molecule, donor type, donor heavy atom, donor atom, acceptor molecule, acceptor atom, score
      L1  H     8    38       P1  8028  0.97

> <Gold.Chemscore.Hbond.Weighted>
-4.3955

> <Gold.Chemscore.Metal.Weighted>
-0.0000

> <Gold.Chemscore.Lipo.Weighted>
-11.6389

> <Gold.Chemscore.Internal_Hbond.Weighted>
0.0000

> <Gold.Chemscore.DEClash.Weighted>
0.3794

> <Gold.Chemscore.DEInternal.Weighted>
0.8170

> <Gold.Chemscore.Rot.Weighted>
4.6431

> <Gold.Chemscore.Internal.Correction.Weighted>
   9.000000E+99

> <Gold.Protein.RotatedTorsions>
[ 6907 6896 6895 6894 ] final    0.63 input  -60.11 | X-H torsion
[ 7974 7965 7964 7962 ] final   53.49 input  175.53 | X-H torsion
[ 8008 7997 7996 7995 ] final  -67.08 input   59.86 | X-H torsion
[ 10167 10162 10161 10158 ] final  -79.51 input  -65.29 | X-H torsion
[ 10718 10713 10712 10709 ] final   92.16 input   66.30 | X-H torsion
[ 10763 10752 10751 10750 ] final  -51.58 input  -60.55 | X-H torsion
[ 11005 11000 10999 10996 ] final   99.89 input  -57.11 | X-H torsion

> <Gold.Protein.ActiveResidues>
 VAL166  LYS551  ARG553  GLY616  TRP617  ASP618  TYR619  PRO620  LYS621  CYS622 
 ASP623  PHE694  ASN695  SER759  ASP760  ASP761  ALA762  ILE779  LEU786  VAL792 
 PHE793  MET794  SER795  GLU796  ALA797  LYS798  CYS799  TRP800  GLU811  SER814 

> <Gold.Protein.RotatedAtoms>
  151.5796  135.1059  160.0013 H   0  0  0  0  0  0  0  0  0  0  0  0  # atno 6907 bound_to 6896
  152.4361  133.7359  159.6624 H   0  0  0  0  0  0  0  0  0  0  0  0  # atno 6908 bound_to 6896
  150.8259  133.8103  159.3142 H   0  0  0  0  0  0  0  0  0  0  0  0  # atno 6909 bound_to 6896
  145.9706  139.4146  143.0192 H   0  0  0  0  0  0  0  0  0  0  0  0  # atno 7974 bound_to 7965
  154.4776  140.0900  156.7300 H   0  0  0  0  0  0  0  0  0  0  0  0  # atno 8008 bound_to 7997
  155.4555  140.3459  155.4288 H   0  0  0  0  0  0  0  0  0  0  0  0  # atno 8009 bound_to 7997
  156.1141  140.1456  156.9286 H   0  0  0  0  0  0  0  0  0  0  0  0  # atno 8010 bound_to 7997
  140.4586  143.2460  151.8382 H   0  0  0  0  0  0  0  0  0  0  0  0  # atno 10167 bound_to 10162
  157.6959  131.0433  150.3840 H   0  0  0  0  0  0  0  0  0  0  0  0  # atno 10718 bound_to 10713
  154.1289  135.6523  153.4918 H   0  0  0  0  0  0  0  0  0  0  0  0  # atno 10763 bound_to 10752
  153.0201  135.5288  154.7021 H   0  0  0  0  0  0  0  0  0  0  0  0  # atno 10764 bound_to 10752
  154.6250  135.2969  155.0253 H   0  0  0  0  0  0  0  0  0  0  0  0  # atno 10765 bound_to 10752
  139.8770  134.9116  156.4674 H   0  0  0  0  0  0  0  0  0  0  0  0  # atno 11005 bound_to 11000
  145.7911  140.9814  143.1048 LP  0  0  0  0  0  0  0  0  0  0  0  0  # atno 17320 bound_to 7965
  144.6836  139.9683  143.7481 LP  0  0  0  0  0  0  0  0  0  0  0  0  # atno 17321 bound_to 7965
  139.4804  144.5034  151.9030 LP  0  0  0  0  0  0  0  0  0  0  0  0  # atno 17342 bound_to 10162
  140.4120  144.2356  150.5888 LP  0  0  0  0  0  0  0  0  0  0  0  0  # atno 17343 bound_to 10162
  156.4250  130.3960  149.6799 LP  0  0  0  0  0  0  0  0  0  0  0  0  # atno 17370 bound_to 10713
  156.4036  130.7687  151.2696 LP  0  0  0  0  0  0  0  0  0  0  0  0  # atno 17371 bound_to 10713
  140.8820  133.7910  155.9477 LP  0  0  0  0  0  0  0  0  0  0  0  0  # atno 17394 bound_to 11000
  140.8844  134.2572  157.5128 LP  0  0  0  0  0  0  0  0  0  0  0  0  # atno 17395 bound_to 11000

$$$$
