AV-unprocessed.smi:1851|AV-procd|sdf|7523|dock5
  -GOLD-   22720 9233D 1   1.00000     0.00000
 Structure written by MMmdl.
 39 41  0  0  0  0  0  0  0  0  1 V2000
  153.5004  136.3462  160.4680 O   0  0  0  0  0  0  0  0  0  0  0  0
  153.9861  137.4149  160.8347 C   0  0  0  0  0  0  0  0  0  0  0  0
  153.6209  138.6166  160.3653 N   0  0  0  0  0  0  0  0  0  0  0  0
  152.6014  138.8445  159.3464 C   0  0  0  0  0  0  0  0  0  0  0  0
  152.4737  140.3194  159.0981 C   0  0  0  0  0  0  0  0  0  0  0  0
  153.2261  141.2120  159.7427 N   0  0  0  0  0  0  0  0  0  0  0  0
  152.7946  142.4130  159.2144 C   0  0  0  0  0  0  0  0  0  0  0  0
  153.2061  143.7373  159.4868 C   0  0  0  0  0  0  0  0  0  0  0  0
  152.6160  144.8224  158.8055 C   0  0  0  0  0  0  0  0  0  0  0  0
  151.6079  144.5994  157.8452 C   0  0  0  0  0  0  0  0  0  0  0  0
  151.1818  143.2877  157.5606 C   0  0  0  0  0  0  0  0  0  0  0  0
  151.7736  142.2085  158.2438 C   0  0  0  0  0  0  0  0  0  0  0  0
  151.5926  140.8301  158.2010 N   0  0  0  0  0  0  0  0  0  0  0  0
  150.6546  140.1150  157.3504 C   0  0  0  0  0  0  0  0  0  0  0  0
  149.2197  140.6157  157.5524 C   0  0  0  0  0  0  0  0  0  0  0  0
  148.6416  140.8636  156.2786 O   0  0  0  0  0  0  0  0  0  0  0  0
  147.5729  141.7314  156.2057 C   0  0  0  0  0  0  0  0  0  0  0  0
  147.0625  142.0116  154.9210 C   0  0  0  0  0  0  0  0  0  0  0  0
  145.9732  142.8879  154.7527 C   0  0  0  0  0  0  0  0  0  0  0  0
  145.3796  143.4957  155.8747 C   0  0  0  0  0  0  0  0  0  0  0  0
  144.0452  144.5706  155.6716 Cl  0  0  0  0  0  0  0  0  0  0  0  0
  145.8776  143.2244  157.1627 C   0  0  0  0  0  0  0  0  0  0  0  0
  146.9677  142.3479  157.3305 C   0  0  0  0  0  0  0  0  0  0  0  0
  154.7782  137.5146  161.5926 H   0  0  0  0  0  0  0  0  0  0  0  0
  154.0870  139.4321  160.7357 H   0  0  0  0  0  0  0  0  0  0  0  0
  152.8524  138.3313  158.4163 H   0  0  0  0  0  0  0  0  0  0  0  0
  151.6488  138.4357  159.6826 H   0  0  0  0  0  0  0  0  0  0  0  0
  153.9782  143.9186  160.2199 H   0  0  0  0  0  0  0  0  0  0  0  0
  152.9390  145.8305  159.0200 H   0  0  0  0  0  0  0  0  0  0  0  0
  151.1619  145.4356  157.3272 H   0  0  0  0  0  0  0  0  0  0  0  0
  150.4103  143.1134  156.8256 H   0  0  0  0  0  0  0  0  0  0  0  0
  150.9551  140.2191  156.3080 H   0  0  0  0  0  0  0  0  0  0  0  0
  150.7168  139.0511  157.5815 H   0  0  0  0  0  0  0  0  0  0  0  0
  148.6399  139.8636  158.0902 H   0  0  0  0  0  0  0  0  0  0  0  0
  149.2270  141.5307  158.1469 H   0  0  0  0  0  0  0  0  0  0  0  0
  147.5120  141.5501  154.0540 H   0  0  0  0  0  0  0  0  0  0  0  0
  145.5942  143.0926  153.7621 H   0  0  0  0  0  0  0  0  0  0  0  0
  145.4244  143.6885  158.0263 H   0  0  0  0  0  0  0  0  0  0  0  0
  147.3204  142.1652  158.3340 H   0  0  0  0  0  0  0  0  0  0  0  0
  1  2  2  0  0  0  0
  2  3  1  0  0  0  0
  2 24  1  0  0  0  0
  3  4  1  0  0  0  0
  3 25  1  0  0  0  0
  4  5  1  0  0  0  0
  4 26  1  0  0  0  0
  4 27  1  0  0  0  0
  5 13  1  0  0  0  0
  5  6  2  0  0  0  0
  6  7  1  0  0  0  0
  7 12  2  0  0  0  0
  7  8  1  0  0  0  0
  8  9  2  0  0  0  0
  8 28  1  0  0  0  0
  9 10  1  0  0  0  0
  9 29  1  0  0  0  0
 10 11  2  0  0  0  0
 10 30  1  0  0  0  0
 11 12  1  0  0  0  0
 11 31  1  0  0  0  0
 12 13  1  0  0  0  0
 13 14  1  0  0  0  0
 14 15  1  0  0  0  0
 14 32  1  0  0  0  0
 14 33  1  0  0  0  0
 15 16  1  0  0  0  0
 15 34  1  0  0  0  0
 15 35  1  0  0  0  0
 16 17  1  0  0  0  0
 17 23  1  0  0  0  0
 17 18  2  0  0  0  0
 18 19  1  0  0  0  0
 18 36  1  0  0  0  0
 19 20  2  0  0  0  0
 19 37  1  0  0  0  0
 20 21  1  0  0  0  0
 20 22  1  0  0  0  0
 22 23  2  0  0  0  0
 22 38  1  0  0  0  0
 23 39  1  0  0  0  0
M  END
> <s_m_source_file>
AV-unprocessed.smi

> <i_m_source_file_index>
1851

> <i_lp_mmshare_version>
43012

> <i_f3d_flags>
0

> <s_epik_input>
Tz1bQ0hdW05IXVtDSDJdYyhuMSluKGMoYzEyKVtjSF1bY0hdW2NIXVtjSF0yKVtDSDJdW0NIMl1PYzNbY0hdW2NIXWMoQ2wpW2NIXVtjSF0z

> <s_epik_cmdline>
J2VwaWtfcHl0aG9uJywgJy1waCcsICc3LjAnLCAnLXRuJywgJzgnLCAnLW1hJywgJzIwMCcsICctbWV0YWxfYmluZGluZycsICctaW1hZScsICc8aW5maWxlLm1hZT4nLCAnLW9tYWUnLCAnPG91dGZpbGUubWFlPic=

> <r_lp_tautomer_probability>
1

> <r_epik_Ionization_Penalty>
0.0670201

> <r_epik_Ionization_Penalty_Charging>
0

> <r_epik_Ionization_Penalty_Neutral>
0.0670201

> <r_epik_State_Penalty>
0.0585513

> <r_epik_Charging_Adjusted_Penalty>
0.0585513

> <i_epik_Tot_Q>
0

> <i_epik_Tot_abs_Q>
0

> <r_epik_Metal_State_Penalty>
0.0525581

> <b_epik_Metal_Only>
0

> <s_lp_Force_Field>
OPLS_2005

> <r_lp_Energy>
12.626

> <b_lp_Chiralities_Consistent>
1

> <s_lp_Variant>
AV-unprocessed.smi:1851-1

> <Gold.Version>
5.8.1

> <Gold.Id.Protein>
6NUR|6NUR_protein|mol2

> <Gold.PLP.Fitness>
49.8282

> <Gold.PLP.PLP>
-47.7066

> <Gold.PLP.part.hbond>
-1.0000

> <Gold.PLP.part.metal>
0.0000

> <Gold.PLP.part.buried>
-7.9580

> <Gold.PLP.part.nonpolar>
-39.5757

> <Gold.PLP.part.repulsive>
0.1113

> <Gold.PLP.ligand.clash>
0.0000

> <Gold.PLP.ligand.torsion>
0.4864

> <Gold.PLP.Chemscore.Hbond>
1.0000

> <Gold.PLP.Chemscore.CHOScore>
0.0000

> <Gold.PLP.Chemscore.Metal>
0.0000

> <Gold.Chemscore.Hbonds>
donor molecule, donor type, donor heavy atom, donor atom, acceptor molecule, acceptor atom, score
      P1  H  6896  6907       L1     1  1.00

> <Gold.PLP.Chemscore.Internal.Correction>
0.0944

> <Gold.Rescore>
     Score         DG    S(hbond)    S(metal)    S(lipo)     H(rot)  DE(clash)    DE(int)     intcor
     15.89     -16.52       1.00        0.00     118.81       2.42       0.18       0.45       ----

> <Gold.Chemscore.Fitness>
15.8945

> <Gold.Chemscore.DG>
-16.5239

> <Gold.Chemscore.ZeroCoef>
-5.4800

> <Gold.Chemscore.Hbond>
1.0000

> <Gold.Chemscore.Metal>
0.0000

> <Gold.Chemscore.Lipo>
118.8073

> <Gold.Chemscore.Internal_Hbond>
0.0000

> <Gold.Chemscore.DEClash>
0.1831

> <Gold.Chemscore.DEInternal>
0.4464

> <Gold.Chemscore.Rot>
2.4205

> <Gold.Chemscore.Internal.Correction>
   9.000000E+99

> <Gold.Chemscore.Hbonds>
donor molecule, donor type, donor heavy atom, donor atom, acceptor molecule, acceptor atom, score
      P1  H  6896  6907       L1     1  0.99

> <Gold.Chemscore.Hbond.Weighted>
-3.3399

> <Gold.Chemscore.Metal.Weighted>
-0.0000

> <Gold.Chemscore.Lipo.Weighted>
-13.9005

> <Gold.Chemscore.Internal_Hbond.Weighted>
0.0000

> <Gold.Chemscore.DEClash.Weighted>
0.1831

> <Gold.Chemscore.DEInternal.Weighted>
0.4464

> <Gold.Chemscore.Rot.Weighted>
6.1965

> <Gold.Chemscore.Internal.Correction.Weighted>
   9.000000E+99

> <Gold.Protein.RotatedTorsions>
[ 6907 6896 6895 6894 ] final   46.76 input  -60.11 | X-H torsion
[ 7974 7965 7964 7962 ] final    7.71 input  175.53 | X-H torsion
[ 8008 7997 7996 7995 ] final -109.63 input   59.86 | X-H torsion
[ 10167 10162 10161 10158 ] final   23.80 input  -65.29 | X-H torsion
[ 10718 10713 10712 10709 ] final   75.58 input   66.30 | X-H torsion
[ 10763 10752 10751 10750 ] final -111.13 input  -60.55 | X-H torsion
[ 11005 11000 10999 10996 ] final  105.42 input  -57.11 | X-H torsion

> <Gold.Protein.ActiveResidues>
 VAL166  LYS551  ARG553  GLY616  TRP617  ASP618  TYR619  PRO620  LYS621  CYS622 
 ASP623  PHE694  ASN695  SER759  ASP760  ASP761  ALA762  ILE779  LEU786  VAL792 
 PHE793  MET794  SER795  GLU796  ALA797  LYS798  CYS799  TRP800  GLU811  SER814 

> <Gold.Protein.RotatedAtoms>
  152.2601  134.8043  160.0431 H   0  0  0  0  0  0  0  0  0  0  0  0  # atno 6907 bound_to 6896
  151.8692  133.3467  159.3737 H   0  0  0  0  0  0  0  0  0  0  0  0  # atno 6908 bound_to 6896
  150.7114  134.5057  159.5627 H   0  0  0  0  0  0  0  0  0  0  0  0  # atno 6909 bound_to 6896
  146.2424  140.0043  142.8413 H   0  0  0  0  0  0  0  0  0  0  0  0  # atno 7974 bound_to 7965
  154.9623  140.0399  157.2196 H   0  0  0  0  0  0  0  0  0  0  0  0  # atno 8008 bound_to 7997
  154.7877  140.2830  155.5993 H   0  0  0  0  0  0  0  0  0  0  0  0  # atno 8009 bound_to 7997
  156.2945  140.2579  156.2718 H   0  0  0  0  0  0  0  0  0  0  0  0  # atno 8010 bound_to 7997
  140.5239  143.9955  150.6431 H   0  0  0  0  0  0  0  0  0  0  0  0  # atno 10167 bound_to 10162
  157.6640  130.9733  150.1374 H   0  0  0  0  0  0  0  0  0  0  0  0  # atno 10718 bound_to 10713
  154.8284  135.4538  154.0992 H   0  0  0  0  0  0  0  0  0  0  0  0  # atno 10763 bound_to 10752
  153.2286  135.6903  153.7922 H   0  0  0  0  0  0  0  0  0  0  0  0  # atno 10764 bound_to 10752
  153.7313  135.3326  155.3263 H   0  0  0  0  0  0  0  0  0  0  0  0  # atno 10765 bound_to 10752
  139.8802  134.9335  156.5511 H   0  0  0  0  0  0  0  0  0  0  0  0  # atno 11005 bound_to 11000
  145.1386  140.9559  143.4502 LP  0  0  0  0  0  0  0  0  0  0  0  0  # atno 17320 bound_to 7965
  145.0317  139.3335  143.6021 LP  0  0  0  0  0  0  0  0  0  0  0  0  # atno 17321 bound_to 7965
  140.3312  143.3076  152.0685 LP  0  0  0  0  0  0  0  0  0  0  0  0  # atno 17342 bound_to 10162
  139.4932  144.6508  151.6680 LP  0  0  0  0  0  0  0  0  0  0  0  0  # atno 17343 bound_to 10162
  156.2205  130.3673  149.8562 LP  0  0  0  0  0  0  0  0  0  0  0  0  # atno 17370 bound_to 10713
  156.6416  130.8707  151.3515 LP  0  0  0  0  0  0  0  0  0  0  0  0  # atno 17371 bound_to 10713
  140.8239  133.8332  155.8921 LP  0  0  0  0  0  0  0  0  0  0  0  0  # atno 17394 bound_to 11000
  140.9392  134.1922  157.4809 LP  0  0  0  0  0  0  0  0  0  0  0  0  # atno 17395 bound_to 11000

$$$$
