AV-unprocessed.smi:1427|AV-procd|sdf|5812|dock6
  -GOLD-   22720 5463D 1   1.00000     0.00000
 Structure written by MMmdl.
 33 34  0  0  0  0  0  0  0  0  1 V2000
  145.5825  136.2711  151.3342 C   0  0  0  0  0  0  0  0  0  0  0  0
  145.5901  135.2716  152.4988 C   0  0  1  0  0  0  0  0  0  0  0  0
  144.5537  134.1476  152.2819 C   0  0  0  0  0  0  0  0  0  0  0  0
  144.8499  133.3285  151.1188 N   0  0  0  0  0  0  0  0  0  0  0  0
  144.0897  133.1469  149.9829 C   0  0  0  0  0  0  0  0  0  0  0  0
  144.7633  132.2729  149.1788 C   0  0  0  0  0  0  0  0  0  0  0  0
  145.9426  131.9746  149.9168 C   0  0  0  0  0  0  0  0  0  0  0  0
  145.9938  132.6108  151.0756 N   0  0  0  0  0  0  0  0  0  0  0  0
  146.9362  134.7186  152.6435 N   0  0  0  0  0  0  0  0  0  0  0  0
  147.2879  133.7231  153.4732 C   0  0  0  0  0  0  0  0  0  0  0  0
  146.5030  133.1850  154.2556 O   0  0  0  0  0  0  0  0  0  0  0  0
  148.7535  133.2705  153.4091 C   0  0  1  0  0  0  0  0  0  0  0  0
  149.5117  133.4137  154.7435 C   0  0  0  0  0  0  0  0  0  0  0  0
  149.5651  132.0001  155.3393 C   0  0  0  0  0  0  0  0  0  0  0  0
  149.2716  131.1172  154.1377 C   0  0  0  0  0  0  0  0  0  0  0  0
  149.4087  129.8962  154.1418 O   0  0  0  0  0  0  0  0  0  0  0  0
  148.8524  131.8520  153.1071 N   0  0  0  0  0  0  0  0  0  0  0  0
  144.5993  136.7276  151.2166 H   0  0  0  0  0  0  0  0  0  0  0  0
  145.8386  135.7860  150.3916 H   0  0  0  0  0  0  0  0  0  0  0  0
  146.2995  137.0755  151.5014 H   0  0  0  0  0  0  0  0  0  0  0  0
  145.3188  135.8264  153.3990 H   0  0  0  0  0  0  0  0  0  0  0  0
  144.5294  133.4904  153.1518 H   0  0  0  0  0  0  0  0  0  0  0  0
  143.5504  134.5654  152.1813 H   0  0  0  0  0  0  0  0  0  0  0  0
  143.1395  133.6422  149.8477 H   0  0  0  0  0  0  0  0  0  0  0  0
  144.4583  131.9006  148.2122 H   0  0  0  0  0  0  0  0  0  0  0  0
  146.7572  131.3187  149.6467 H   0  0  0  0  0  0  0  0  0  0  0  0
  147.6497  135.1021  152.0408 H   0  0  0  0  0  0  0  0  0  0  0  0
  149.2696  133.8292  152.6265 H   0  0  0  0  0  0  0  0  0  0  0  0
  150.5250  133.7730  154.5584 H   0  0  0  0  0  0  0  0  0  0  0  0
  149.0391  134.1227  155.4253 H   0  0  0  0  0  0  0  0  0  0  0  0
  150.5345  131.7723  155.7833 H   0  0  0  0  0  0  0  0  0  0  0  0
  148.7884  131.8553  156.0909 H   0  0  0  0  0  0  0  0  0  0  0  0
  148.5866  131.4694  152.2113 H   0  0  0  0  0  0  0  0  0  0  0  0
  1  2  1  0  0  0  0
  1 18  1  0  0  0  0
  1 19  1  0  0  0  0
  1 20  1  0  0  0  0
  2  3  1  0  0  0  0
  2  9  1  0  0  0  0
  2 21  1  0  0  0  0
  3  4  1  0  0  0  0
  3 22  1  0  0  0  0
  3 23  1  0  0  0  0
  4  8  1  0  0  0  0
  4  5  1  0  0  0  0
  5  6  2  0  0  0  0
  5 24  1  0  0  0  0
  6  7  1  0  0  0  0
  6 25  1  0  0  0  0
  7  8  2  0  0  0  0
  7 26  1  0  0  0  0
  9 10  1  0  0  0  0
  9 27  1  0  0  0  0
 10 11  2  0  0  0  0
 10 12  1  0  0  0  0
 12 17  1  0  0  0  0
 12 13  1  0  0  0  0
 12 28  1  0  0  0  0
 13 14  1  0  0  0  0
 13 29  1  0  0  0  0
 13 30  1  0  0  0  0
 14 15  1  0  0  0  0
 14 31  1  0  0  0  0
 14 32  1  0  0  0  0
 15 16  2  0  0  0  0
 15 17  1  0  0  0  0
 17 33  1  0  0  0  0
M  END
> <s_m_source_file>
AV-unprocessed.smi

> <i_m_source_file_index>
1427

> <i_lp_mmshare_version>
43012

> <i_f3d_flags>
0

> <s_epik_input>
bjFbY0hdW2NIXVtjSF1uMVtDSDJdW0NAQEhdKFtDSDNdKVtOSF1DKD1PKVtDQEBIXTJbQ0gyXVtDSDJdQyg9TylbTkhdMg==

> <s_epik_cmdline>
J2VwaWtfcHl0aG9uJywgJy1waCcsICc3LjAnLCAnLXRuJywgJzgnLCAnLW1hJywgJzIwMCcsICctbWV0YWxfYmluZGluZycsICctaW1hZScsICc8aW5maWxlLm1hZT4nLCAnLW9tYWUnLCAnPG91dGZpbGUubWFlPic=

> <r_lp_tautomer_probability>
1

> <r_epik_Ionization_Penalty>
0.000310707

> <r_epik_Ionization_Penalty_Charging>
0

> <r_epik_Ionization_Penalty_Neutral>
0.000310707

> <r_epik_State_Penalty>
-0

> <r_epik_Charging_Adjusted_Penalty>
0

> <i_epik_Tot_Q>
0

> <i_epik_Tot_abs_Q>
0

> <r_epik_Metal_State_Penalty>
-0

> <b_epik_Metal_Only>
0

> <s_lp_Force_Field>
OPLS_2005

> <r_lp_Energy>
14.0885

> <b_lp_Chiralities_Consistent>
1

> <s_lp_Variant>
AV-unprocessed.smi:1427-4

> <Gold.Version>
5.8.1

> <Gold.Id.Protein>
6NUR|6NUR_protein|mol2

> <Gold.PLP.Fitness>
42.7387

> <Gold.PLP.PLP>
-30.9045

> <Gold.PLP.part.hbond>
-2.0000

> <Gold.PLP.part.metal>
0.0000

> <Gold.PLP.part.buried>
-2.5440

> <Gold.PLP.part.nonpolar>
-25.5974

> <Gold.PLP.part.repulsive>
0.3572

> <Gold.PLP.ligand.clash>
0.0000

> <Gold.PLP.ligand.torsion>
0.0847

> <Gold.PLP.Chemscore.Hbond>
1.9920

> <Gold.PLP.Chemscore.CHOScore>
2.0000

> <Gold.PLP.Chemscore.Metal>
0.0000

> <Gold.Chemscore.Hbonds>
donor molecule, donor type, donor heavy atom, donor atom, acceptor molecule, acceptor atom, score
      L1  H     9    27       P1  7948  0.98
      L1  H    17    33       P1 10747  0.96
      L1  C     5    24       P1 10186  1.00
      L1  C     7    26       P1 10747  1.00

> <Gold.PLP.Chemscore.Internal.Correction>
0.0275

> <Gold.Rescore>
     Score         DG    S(hbond)    S(metal)    S(lipo)     H(rot)  DE(clash)    DE(int)     intcor
     12.08     -14.12       1.86        0.00      61.98       1.88       0.01       2.02       ----

> <Gold.Chemscore.Fitness>
12.0812

> <Gold.Chemscore.DG>
-14.1156

> <Gold.Chemscore.ZeroCoef>
-5.4800

> <Gold.Chemscore.Hbond>
1.8567

> <Gold.Chemscore.Metal>
0.0000

> <Gold.Chemscore.Lipo>
61.9845

> <Gold.Chemscore.Internal_Hbond>
0.0000

> <Gold.Chemscore.DEClash>
0.0149

> <Gold.Chemscore.DEInternal>
2.0195

> <Gold.Chemscore.Rot>
1.8821

> <Gold.Chemscore.Internal.Correction>
   9.000000E+99

> <Gold.Chemscore.Hbonds>
donor molecule, donor type, donor heavy atom, donor atom, acceptor molecule, acceptor atom, score
      L1  H     9    27       P1  7948  0.85
      L1  H    17    33       P1 10747  0.85

> <Gold.Chemscore.Hbond.Weighted>
-6.2014

> <Gold.Chemscore.Metal.Weighted>
-0.0000

> <Gold.Chemscore.Lipo.Weighted>
-7.2522

> <Gold.Chemscore.Internal_Hbond.Weighted>
0.0000

> <Gold.Chemscore.DEClash.Weighted>
0.0149

> <Gold.Chemscore.DEInternal.Weighted>
2.0195

> <Gold.Chemscore.Rot.Weighted>
4.8181

> <Gold.Chemscore.Internal.Correction.Weighted>
   9.000000E+99

> <Gold.Protein.RotatedTorsions>
[ 6907 6896 6895 6894 ] final  118.32 input  -60.11 | X-H torsion
[ 7974 7965 7964 7962 ] final  -92.18 input  175.53 | X-H torsion
[ 8008 7997 7996 7995 ] final  -30.69 input   59.86 | X-H torsion
[ 10167 10162 10161 10158 ] final -122.15 input  -65.29 | X-H torsion
[ 10718 10713 10712 10709 ] final   47.66 input   66.30 | X-H torsion
[ 10763 10752 10751 10750 ] final -136.62 input  -60.55 | X-H torsion
[ 11005 11000 10999 10996 ] final -102.69 input  -57.11 | X-H torsion

> <Gold.Protein.ActiveResidues>
 VAL166  LYS551  ARG553  GLY616  TRP617  ASP618  TYR619  PRO620  LYS621  CYS622 
 ASP623  PHE694  ASN695  SER759  ASP760  ASP761  ALA762  ILE779  LEU786  VAL792 
 PHE793  MET794  SER795  GLU796  ALA797  LYS798  CYS799  TRP800  GLU811  SER814 

> <Gold.Protein.RotatedAtoms>
  152.4551  133.7707  159.6796 H   0  0  0  0  0  0  0  0  0  0  0  0  # atno 6907 bound_to 6896
  150.8475  133.7829  159.3044 H   0  0  0  0  0  0  0  0  0  0  0  0  # atno 6908 bound_to 6896
  151.5434  135.1071  159.9984 H   0  0  0  0  0  0  0  0  0  0  0  0  # atno 6909 bound_to 6896
  145.4032  140.9539  143.2275 H   0  0  0  0  0  0  0  0  0  0  0  0  # atno 7974 bound_to 7965
  154.4241  140.1784  156.1447 H   0  0  0  0  0  0  0  0  0  0  0  0  # atno 8008 bound_to 7997
  155.9963  140.3364  155.6777 H   0  0  0  0  0  0  0  0  0  0  0  0  # atno 8009 bound_to 7997
  155.6303  140.0669  157.2641 H   0  0  0  0  0  0  0  0  0  0  0  0  # atno 8010 bound_to 7997
  140.0173  143.5380  152.2236 H   0  0  0  0  0  0  0  0  0  0  0  0  # atno 10167 bound_to 10162
  157.4608  130.8195  149.7884 H   0  0  0  0  0  0  0  0  0  0  0  0  # atno 10718 bound_to 10713
  154.8680  135.3667  154.5091 H   0  0  0  0  0  0  0  0  0  0  0  0  # atno 10763 bound_to 10752
  153.5727  135.7020  153.5502 H   0  0  0  0  0  0  0  0  0  0  0  0  # atno 10764 bound_to 10752
  153.3527  135.4067  155.1622 H   0  0  0  0  0  0  0  0  0  0  0  0  # atno 10765 bound_to 10752
  141.1178  133.8579  157.1392 H   0  0  0  0  0  0  0  0  0  0  0  0  # atno 11005 bound_to 11000
  144.8359  139.5551  143.6922 LP  0  0  0  0  0  0  0  0  0  0  0  0  # atno 17320 bound_to 7965
  146.2741  139.6709  142.9275 LP  0  0  0  0  0  0  0  0  0  0  0  0  # atno 17321 bound_to 7965
  139.6163  144.7620  151.2838 LP  0  0  0  0  0  0  0  0  0  0  0  0  # atno 17342 bound_to 10162
  140.7357  143.6730  150.8066 LP  0  0  0  0  0  0  0  0  0  0  0  0  # atno 17343 bound_to 10162
  156.0027  130.3871  150.2543 LP  0  0  0  0  0  0  0  0  0  0  0  0  # atno 17370 bound_to 10713
  157.0720  131.0119  151.3187 LP  0  0  0  0  0  0  0  0  0  0  0  0  # atno 17371 bound_to 10713
  140.0113  134.9987  157.0400 LP  0  0  0  0  0  0  0  0  0  0  0  0  # atno 17394 bound_to 11000
  140.4595  134.1498  155.7190 LP  0  0  0  0  0  0  0  0  0  0  0  0  # atno 17395 bound_to 11000

$$$$
