AV-unprocessed.smi:395|AV-procd|sdf|2486|dock7
  -GOLD-   2262022423D 1   1.00000     0.00000
 Structure written by MMmdl.
 34 35  0  0  0  0  0  0  0  0  1 V2000
  146.9280  142.4188  154.2120 C   0  0  0  0  0  0  0  0  0  0  0  0
  147.5213  141.2390  154.4638 C   0  0  0  0  0  0  0  0  0  0  0  0
  149.0173  140.9558  154.4853 C   0  0  0  0  0  0  0  0  0  0  0  0
  149.5163  140.4828  155.7739 N   0  0  0  0  0  0  0  0  0  0  0  0
  150.7772  140.0948  156.0187 C   0  0  0  0  0  0  0  0  0  0  0  0
  151.6705  140.1310  155.1714 O   0  0  0  0  0  0  0  0  0  0  0  0
  151.0626  139.5905  157.4411 C   0  0  0  0  0  0  0  0  0  0  0  0
  151.7625  140.5905  158.2766 N   0  0  0  0  0  0  0  0  0  0  0  0
  153.0123  140.2494  158.8541 C   0  0  0  0  0  0  0  0  0  0  0  0
  153.5319  139.1521  158.6439 O   0  0  0  0  0  0  0  0  0  0  0  0
  153.6093  141.2724  159.7096 C   0  0  0  0  0  0  0  0  0  0  0  0
  154.8499  140.9545  160.3358 C   0  0  0  0  0  0  0  0  0  0  0  0
  155.8501  140.7096  160.8642 N   0  0  0  0  0  0  0  0  0  0  0  0
  153.0011  142.4613  159.9001 C   0  0  0  0  0  0  0  0  0  0  0  0
  151.8054  142.7874  159.2983 N   0  0  0  0  0  0  0  0  0  0  0  0
  151.0983  143.9888  159.6420 C   0  0  0  0  0  0  0  0  0  0  0  0
  151.4452  145.3021  158.9681 C   0  0  0  0  0  0  0  0  0  0  0  0
  151.8228  145.0717  160.4112 C   0  0  0  0  0  0  0  0  0  0  0  0
  151.1270  141.8351  158.5070 C   0  0  0  0  0  0  0  0  0  0  0  0
  150.0100  142.0722  158.0392 O   0  0  0  0  0  0  0  0  0  0  0  0
  147.4933  143.3127  153.9934 H   0  0  0  0  0  0  0  0  0  0  0  0
  145.8516  142.5038  154.2226 H   0  0  0  0  0  0  0  0  0  0  0  0
  146.8913  140.3869  154.6734 H   0  0  0  0  0  0  0  0  0  0  0  0
  149.2543  140.2378  153.6987 H   0  0  0  0  0  0  0  0  0  0  0  0
  149.5437  141.8762  154.2328 H   0  0  0  0  0  0  0  0  0  0  0  0
  148.8472  140.4246  156.5279 H   0  0  0  0  0  0  0  0  0  0  0  0
  150.1171  139.2794  157.8870 H   0  0  0  0  0  0  0  0  0  0  0  0
  151.6467  138.6696  157.3889 H   0  0  0  0  0  0  0  0  0  0  0  0
  153.4693  143.1901  160.5461 H   0  0  0  0  0  0  0  0  0  0  0  0
  150.0486  143.8513  159.8958 H   0  0  0  0  0  0  0  0  0  0  0  0
  152.2530  145.3097  158.2387 H   0  0  0  0  0  0  0  0  0  0  0  0
  150.6281  145.9909  158.7647 H   0  0  0  0  0  0  0  0  0  0  0  0
  151.2590  145.6097  161.1704 H   0  0  0  0  0  0  0  0  0  0  0  0
  152.8784  144.9253  160.6320 H   0  0  0  0  0  0  0  0  0  0  0  0
  1  2  2  0  0  0  0
  1 21  1  0  0  0  0
  1 22  1  0  0  0  0
  2  3  1  0  0  0  0
  2 23  1  0  0  0  0
  3  4  1  0  0  0  0
  3 24  1  0  0  0  0
  3 25  1  0  0  0  0
  4  5  1  0  0  0  0
  4 26  1  0  0  0  0
  5  6  2  0  0  0  0
  5  7  1  0  0  0  0
  7  8  1  0  0  0  0
  7 27  1  0  0  0  0
  7 28  1  0  0  0  0
  8 19  1  0  0  0  0
  8  9  1  0  0  0  0
  9 10  2  0  0  0  0
  9 11  1  0  0  0  0
 11 12  1  0  0  0  0
 11 14  2  0  0  0  0
 12 13  3  0  0  0  0
 14 15  1  0  0  0  0
 14 29  1  0  0  0  0
 15 16  1  0  0  0  0
 15 19  1  0  0  0  0
 16 18  1  0  0  0  0
 16 17  1  0  0  0  0
 16 30  1  0  0  0  0
 17 18  1  0  0  0  0
 17 31  1  0  0  0  0
 17 32  1  0  0  0  0
 18 33  1  0  0  0  0
 18 34  1  0  0  0  0
 19 20  2  0  0  0  0
M  END
> <s_m_source_file>
AV-unprocessed.smi

> <i_m_source_file_index>
395

> <i_lp_mmshare_version>
43012

> <i_f3d_flags>
0

> <s_epik_input>
W0NIMl09W0NIXVtDSDJdW05IXUMoPU8pW0NIMl1uMWMoPU8pYyhDI04pW2NIXW4oYzE9TylbQ0hdMltDSDJdW0NIMl0y

> <s_epik_cmdline>
J2VwaWtfcHl0aG9uJywgJy1waCcsICc3LjAnLCAnLXRuJywgJzgnLCAnLW1hJywgJzIwMCcsICctbWV0YWxfYmluZGluZycsICctaW1hZScsICc8aW5maWxlLm1hZT4nLCAnLW9tYWUnLCAnPG91dGZpbGUubWFlPic=

> <r_lp_tautomer_probability>
1

> <r_epik_Ionization_Penalty>
1.93471e-08

> <r_epik_Ionization_Penalty_Charging>
8.01404e-11

> <r_epik_Ionization_Penalty_Neutral>
1.9267e-08

> <r_epik_State_Penalty>
-0

> <r_epik_Charging_Adjusted_Penalty>
8.01404e-11

> <i_epik_Tot_Q>
0

> <i_epik_Tot_abs_Q>
0

> <r_epik_Metal_State_Penalty>
-0

> <b_epik_Metal_Only>
0

> <s_lp_Force_Field>
OPLS_2005

> <r_lp_Energy>
28.6083

> <b_lp_Chiralities_Consistent>
1

> <s_lp_Variant>
AV-unprocessed.smi:395-1

> <Gold.Version>
5.8.1

> <Gold.Id.Protein>
6NUR|6NUR_protein|mol2

> <Gold.PLP.Fitness>
49.2520

> <Gold.PLP.PLP>
-45.7065

> <Gold.PLP.part.hbond>
-3.0000

> <Gold.PLP.part.metal>
0.0000

> <Gold.PLP.part.buried>
-5.0517

> <Gold.PLP.part.nonpolar>
-37.3905

> <Gold.PLP.part.repulsive>
0.2001

> <Gold.PLP.ligand.clash>
0.0000

> <Gold.PLP.ligand.torsion>
0.6056

> <Gold.PLP.Chemscore.Hbond>
1.5140

> <Gold.PLP.Chemscore.CHOScore>
0.0000

> <Gold.PLP.Chemscore.Metal>
0.0000

> <Gold.Chemscore.Hbonds>
donor molecule, donor type, donor heavy atom, donor atom, acceptor molecule, acceptor atom, score
      P1  H  7989  7998       L1     6  0.96
      P1  H  7997  8009       L1    10  0.41

> <Gold.PLP.Chemscore.Internal.Correction>
0.2146

> <Gold.Rescore>
     Score         DG    S(hbond)    S(metal)    S(lipo)     H(rot)  DE(clash)    DE(int)     intcor
     10.45     -12.99       0.94        0.00      82.96       2.09       0.05       2.49       ----

> <Gold.Chemscore.Fitness>
10.4481

> <Gold.Chemscore.DG>
-12.9926

> <Gold.Chemscore.ZeroCoef>
-5.4800

> <Gold.Chemscore.Hbond>
0.9440

> <Gold.Chemscore.Metal>
0.0000

> <Gold.Chemscore.Lipo>
82.9615

> <Gold.Chemscore.Internal_Hbond>
0.0000

> <Gold.Chemscore.DEClash>
0.0500

> <Gold.Chemscore.DEInternal>
2.4945

> <Gold.Chemscore.Rot>
2.0886

> <Gold.Chemscore.Internal.Correction>
   9.000000E+99

> <Gold.Chemscore.Hbonds>
donor molecule, donor type, donor heavy atom, donor atom, acceptor molecule, acceptor atom, score
      P1  H  7989  7998       L1     6  0.92
      P1  H  7997  8009       L1    10  0.03

> <Gold.Chemscore.Hbond.Weighted>
-3.1530

> <Gold.Chemscore.Metal.Weighted>
-0.0000

> <Gold.Chemscore.Lipo.Weighted>
-9.7065

> <Gold.Chemscore.Internal_Hbond.Weighted>
0.0000

> <Gold.Chemscore.DEClash.Weighted>
0.0500

> <Gold.Chemscore.DEInternal.Weighted>
2.4945

> <Gold.Chemscore.Rot.Weighted>
5.3469

> <Gold.Chemscore.Internal.Correction.Weighted>
   9.000000E+99

> <Gold.Protein.RotatedTorsions>
[ 6907 6896 6895 6894 ] final -145.92 input  -60.11 | X-H torsion
[ 7974 7965 7964 7962 ] final -168.53 input  175.53 | X-H torsion
[ 8008 7997 7996 7995 ] final  127.21 input   59.86 | X-H torsion
[ 10167 10162 10161 10158 ] final   17.80 input  -65.29 | X-H torsion
[ 10718 10713 10712 10709 ] final -103.37 input   66.30 | X-H torsion
[ 10763 10752 10751 10750 ] final -131.99 input  -60.55 | X-H torsion
[ 11005 11000 10999 10996 ] final  -41.89 input  -57.11 | X-H torsion

> <Gold.Protein.ActiveResidues>
 VAL166  LYS551  ARG553  GLY616  TRP617  ASP618  TYR619  PRO620  LYS621  CYS622 
 ASP623  PHE694  ASN695  SER759  ASP760  ASP761  ALA762  ILE779  LEU786  VAL792 
 PHE793  MET794  SER795  GLU796  ALA797  LYS798  CYS799  TRP800  GLU811  SER814 

> <Gold.Protein.RotatedAtoms>
  151.1345  133.5014  159.2598 H   0  0  0  0  0  0  0  0  0  0  0  0  # atno 6907 bound_to 6896
  151.1722  135.0322  159.8766 H   0  0  0  0  0  0  0  0  0  0  0  0  # atno 6908 bound_to 6896
  152.5461  134.1207  159.8451 H   0  0  0  0  0  0  0  0  0  0  0  0  # atno 6909 bound_to 6896
  144.7201  140.2357  143.6298 H   0  0  0  0  0  0  0  0  0  0  0  0  # atno 7974 bound_to 7965
  156.2885  140.2674  156.2237 H   0  0  0  0  0  0  0  0  0  0  0  0  # atno 8008 bound_to 7997
  155.0142  140.0387  157.2430 H   0  0  0  0  0  0  0  0  0  0  0  0  # atno 8009 bound_to 7997
  154.7491  140.2739  155.6312 H   0  0  0  0  0  0  0  0  0  0  0  0  # atno 8010 bound_to 7997
  140.5699  143.9180  150.6705 H   0  0  0  0  0  0  0  0  0  0  0  0  # atno 10167 bound_to 10162
  156.0263  130.5464  150.7243 H   0  0  0  0  0  0  0  0  0  0  0  0  # atno 10718 bound_to 10713
  154.8747  135.3812  154.4336 H   0  0  0  0  0  0  0  0  0  0  0  0  # atno 10763 bound_to 10752
  153.5028  135.7030  153.5828 H   0  0  0  0  0  0  0  0  0  0  0  0  # atno 10764 bound_to 10752
  153.4152  135.3915  155.2042 H   0  0  0  0  0  0  0  0  0  0  0  0  # atno 10765 bound_to 10752
  141.0277  133.6834  156.2519 H   0  0  0  0  0  0  0  0  0  0  0  0  # atno 11005 bound_to 11000
  145.8368  139.2111  143.1850 LP  0  0  0  0  0  0  0  0  0  0  0  0  # atno 17320 bound_to 7965
  146.0382  140.8191  142.9842 LP  0  0  0  0  0  0  0  0  0  0  0  0  # atno 17321 bound_to 7965
  140.2653  143.3495  152.1287 LP  0  0  0  0  0  0  0  0  0  0  0  0  # atno 17342 bound_to 10162
  139.5112  144.6897  151.5793 LP  0  0  0  0  0  0  0  0  0  0  0  0  # atno 17343 bound_to 10162
  157.4851  131.0906  151.0492 LP  0  0  0  0  0  0  0  0  0  0  0  0  # atno 17370 bound_to 10713
  157.0914  130.5944  149.5440 LP  0  0  0  0  0  0  0  0  0  0  0  0  # atno 17371 bound_to 10713
  140.6462  134.5115  157.5574 LP  0  0  0  0  0  0  0  0  0  0  0  0  # atno 17394 bound_to 11000
  139.9187  134.8193  156.1282 LP  0  0  0  0  0  0  0  0  0  0  0  0  # atno 17395 bound_to 11000

$$$$
