AV-unprocessed.smi:2850|AV-procd|sdf|10968|dock2
  -GOLD-   2272015423D 1   1.00000     0.00000
 Structure written by MMmdl.
 45 46  0  0  0  0  0  0  0  0  2 V2000
  153.5772  142.3098  162.3265 C   0  0  0  0  0  0  0  0  0  0  0  0
  152.5933  143.7269  161.7636 S   0  0  0  0  0  0  0  0  0  0  0  0
  151.9764  143.3305  160.1554 C   0  0  0  0  0  0  0  0  0  0  0  0
  152.2739  142.0919  159.5597 C   0  0  0  0  0  0  0  0  0  0  0  0
  151.7470  141.8569  158.2778 C   0  0  0  0  0  0  0  0  0  0  0  0
  150.9675  142.8755  157.6929 C   0  0  0  0  0  0  0  0  0  0  0  0
  150.4303  142.6687  156.4154 N   0  0  0  0  0  0  0  0  0  0  0  0
  150.5172  141.3605  155.7811 C   0  0  0  0  0  0  0  0  0  0  0  0
  149.4261  141.1736  154.7179 C   0  0  1  0  0  0  0  0  0  0  0  0
  149.1833  139.6837  154.4052 C   0  0  0  0  0  0  0  0  0  0  0  0
  148.0718  139.5284  153.4338 N   0  3  1  0  0  0  0  0  0  0  0  0
  147.8099  138.1191  153.0429 C   0  0  0  0  0  0  0  0  0  0  0  0
  146.5940  137.9630  152.1040 C   0  0  0  0  0  0  0  0  0  0  0  0
  146.4806  139.1324  151.1115 C   0  0  0  0  0  0  0  0  0  0  0  0
  145.2988  137.8248  152.9182 C   0  0  0  0  0  0  0  0  0  0  0  0
  146.8541  140.2104  153.9315 C   0  0  0  0  0  0  0  0  0  0  0  0
  147.1609  141.6779  154.2689 C   0  0  0  0  0  0  0  0  0  0  0  0
  148.2164  141.7338  155.2194 O   0  0  0  0  0  0  0  0  0  0  0  0
  150.7205  144.0473  158.3318 N   0  0  0  0  0  0  0  0  0  0  0  0
  151.2196  144.2751  159.5521 N   0  0  0  0  0  0  0  0  0  0  0  0
  153.9743  142.5024  163.3231 H   0  0  0  0  0  0  0  0  0  0  0  0
  154.4142  142.1332  161.6507 H   0  0  0  0  0  0  0  0  0  0  0  0
  152.9636  141.4096  162.3686 H   0  0  0  0  0  0  0  0  0  0  0  0
  152.8806  141.3533  160.0626 H   0  0  0  0  0  0  0  0  0  0  0  0
  151.9376  140.9265  157.7630 H   0  0  0  0  0  0  0  0  0  0  0  0
  149.8232  143.3676  156.0121 H   0  0  0  0  0  0  0  0  0  0  0  0
  151.4995  141.2690  155.3158 H   0  0  0  0  0  0  0  0  0  0  0  0
  150.4441  140.5773  156.5368 H   0  0  0  0  0  0  0  0  0  0  0  0
  149.7230  141.6920  153.8038 H   0  0  0  0  0  0  0  0  0  0  0  0
  150.0987  139.2487  154.0057 H   0  0  0  0  0  0  0  0  0  0  0  0
  148.9458  139.1409  155.3217 H   0  0  0  0  0  0  0  0  0  0  0  0
  148.7076  137.7027  152.5831 H   0  0  0  0  0  0  0  0  0  0  0  0
  147.6262  137.5247  153.9395 H   0  0  0  0  0  0  0  0  0  0  0  0
  146.7004  137.0437  151.5291 H   0  0  0  0  0  0  0  0  0  0  0  0
  146.3755  140.0851  151.6316 H   0  0  0  0  0  0  0  0  0  0  0  0
  145.6129  139.0121  150.4623 H   0  0  0  0  0  0  0  0  0  0  0  0
  147.3586  139.1982  150.4688 H   0  0  0  0  0  0  0  0  0  0  0  0
  145.1055  138.7185  153.5124 H   0  0  0  0  0  0  0  0  0  0  0  0
  145.3507  136.9762  153.6008 H   0  0  0  0  0  0  0  0  0  0  0  0
  144.4390  137.6671  152.2661 H   0  0  0  0  0  0  0  0  0  0  0  0
  146.0677  140.1662  153.1768 H   0  0  0  0  0  0  0  0  0  0  0  0
  146.4803  139.6931  154.8166 H   0  0  0  0  0  0  0  0  0  0  0  0
  147.4304  142.2380  153.3721 H   0  0  0  0  0  0  0  0  0  0  0  0
  146.2788  142.1589  154.6920 H   0  0  0  0  0  0  0  0  0  0  0  0
  148.3439  140.0149  152.5914 H   0  0  0  0  0  0  0  0  0  0  0  0
  1  2  1  0  0  0  0
  1 21  1  0  0  0  0
  1 22  1  0  0  0  0
  1 23  1  0  0  0  0
  2  3  1  0  0  0  0
  3 20  1  0  0  0  0
  3  4  2  0  0  0  0
  4  5  1  0  0  0  0
  4 24  1  0  0  0  0
  5  6  2  0  0  0  0
  5 25  1  0  0  0  0
  6  7  1  0  0  0  0
  6 19  1  0  0  0  0
  7  8  1  0  0  0  0
  7 26  1  0  0  0  0
  8  9  1  0  0  0  0
  8 27  1  0  0  0  0
  8 28  1  0  0  0  0
  9 18  1  0  0  0  0
  9 10  1  0  0  0  0
  9 29  1  0  0  0  0
 10 11  1  0  0  0  0
 10 30  1  0  0  0  0
 10 31  1  0  0  0  0
 11 12  1  0  0  0  0
 11 16  1  0  0  0  0
 11 45  1  0  0  0  0
 12 13  1  0  0  0  0
 12 32  1  0  0  0  0
 12 33  1  0  0  0  0
 13 14  1  0  0  0  0
 13 15  1  0  0  0  0
 13 34  1  0  0  0  0
 14 35  1  0  0  0  0
 14 36  1  0  0  0  0
 14 37  1  0  0  0  0
 15 38  1  0  0  0  0
 15 39  1  0  0  0  0
 15 40  1  0  0  0  0
 16 17  1  0  0  0  0
 16 41  1  0  0  0  0
 16 42  1  0  0  0  0
 17 18  1  0  0  0  0
 17 43  1  0  0  0  0
 17 44  1  0  0  0  0
 19 20  2  0  0  0  0
M  CHG  1  11   1
M  END
> <s_m_source_file>
AV-unprocessed.smi

> <i_m_source_file_index>
2850

> <i_lp_mmshare_version>
43012

> <i_f3d_flags>
0

> <s_epik_input>
W0NIM11TYzFbY0hdW2NIXWMobm4xKVtOSF1bQ0gyXVtDQEBIXTJbQ0gyXU4oW0NIMl1bQ0gyXU8yKVtDSDJdW0NIXShbQ0gzXSlbQ0gzXQ==

> <s_epik_cmdline>
J2VwaWtfcHl0aG9uJywgJy1waCcsICc3LjAnLCAnLXRuJywgJzgnLCAnLW1hJywgJzIwMCcsICctbWV0YWxfYmluZGluZycsICctaW1hZScsICc8aW5maWxlLm1hZT4nLCAnLW9tYWUnLCAnPG91dGZpbGUubWFlPic=

> <r_lp_tautomer_probability>
0.999978

> <r_epik_Ionization_Penalty>
0.0874875

> <r_epik_Ionization_Penalty_Charging>
0.0831532

> <r_epik_Ionization_Penalty_Neutral>
0.00433433

> <r_epik_State_Penalty>
0.0738301

> <r_epik_Charging_Adjusted_Penalty>
0.156983

> <i_epik_Tot_Q>
1

> <i_epik_Tot_abs_Q>
1

> <r_epik_Metal_State_Penalty>
0.073888

> <b_epik_Metal_Only>
0

> <s_lp_Force_Field>
OPLS_2005

> <r_lp_Energy>
24.628

> <b_lp_Chiralities_Consistent>
1

> <s_lp_Variant>
AV-unprocessed.smi:2850-4

> <Gold.Version>
5.8.1

> <Gold.Id.Protein>
6NUR|6NUR_protein|mol2

> <Gold.PLP.Fitness>
41.9856

> <Gold.PLP.PLP>
-37.3052

> <Gold.PLP.part.hbond>
-2.0000

> <Gold.PLP.part.metal>
0.0000

> <Gold.PLP.part.buried>
4.6088

> <Gold.PLP.part.nonpolar>
-40.7557

> <Gold.PLP.part.repulsive>
0.8746

> <Gold.PLP.ligand.clash>
0.0000

> <Gold.PLP.ligand.torsion>
0.6831

> <Gold.PLP.Chemscore.Hbond>
1.9600

> <Gold.PLP.Chemscore.CHOScore>
0.0000

> <Gold.PLP.Chemscore.Metal>
0.0000

> <Gold.Chemscore.Hbonds>
donor molecule, donor type, donor heavy atom, donor atom, acceptor molecule, acceptor atom, score
      L1  H     7    26       P1  8028  1.00
      L1  H    11    45       P1  7957  0.90

> <Gold.PLP.Chemscore.Internal.Correction>
0.1666

> <Gold.Rescore>
     Score         DG    S(hbond)    S(metal)    S(lipo)     H(rot)  DE(clash)    DE(int)     intcor
     16.27     -20.85       1.88        0.00     112.80       1.60       2.82       1.76       ----

> <Gold.Chemscore.Fitness>
16.2669

> <Gold.Chemscore.DG>
-20.8467

> <Gold.Chemscore.ZeroCoef>
-5.4800

> <Gold.Chemscore.Hbond>
1.8759

> <Gold.Chemscore.Metal>
0.0000

> <Gold.Chemscore.Lipo>
112.8043

> <Gold.Chemscore.Internal_Hbond>
0.0000

> <Gold.Chemscore.DEClash>
2.8240

> <Gold.Chemscore.DEInternal>
1.7558

> <Gold.Chemscore.Rot>
1.6003

> <Gold.Chemscore.Internal.Correction>
   9.000000E+99

> <Gold.Chemscore.Hbonds>
donor molecule, donor type, donor heavy atom, donor atom, acceptor molecule, acceptor atom, score
      L1  H     7    26       P1  8028  1.00
      L1  H    11    45       P1  7957  0.88

> <Gold.Chemscore.Hbond.Weighted>
-6.2654

> <Gold.Chemscore.Metal.Weighted>
-0.0000

> <Gold.Chemscore.Lipo.Weighted>
-13.1981

> <Gold.Chemscore.Internal_Hbond.Weighted>
0.0000

> <Gold.Chemscore.DEClash.Weighted>
2.8240

> <Gold.Chemscore.DEInternal.Weighted>
1.7558

> <Gold.Chemscore.Rot.Weighted>
4.0968

> <Gold.Chemscore.Internal.Correction.Weighted>
   9.000000E+99

> <Gold.Protein.RotatedTorsions>
[ 6907 6896 6895 6894 ] final -104.98 input  -60.11 | X-H torsion
[ 7974 7965 7964 7962 ] final -152.84 input  175.53 | X-H torsion
[ 8008 7997 7996 7995 ] final   18.50 input   59.86 | X-H torsion
[ 10167 10162 10161 10158 ] final   42.63 input  -65.29 | X-H torsion
[ 10718 10713 10712 10709 ] final  -86.58 input   66.30 | X-H torsion
[ 10763 10752 10751 10750 ] final   45.83 input  -60.55 | X-H torsion
[ 11005 11000 10999 10996 ] final -178.89 input  -57.11 | X-H torsion

> <Gold.Protein.ActiveResidues>
 VAL166  LYS551  ARG553  GLY616  TRP617  ASP618  TYR619  PRO620  LYS621  CYS622 
 ASP623  PHE694  ASN695  SER759  ASP760  ASP761  ALA762  ILE779  LEU786  VAL792 
 PHE793  MET794  SER795  GLU796  ALA797  LYS798  CYS799  TRP800  GLU811  SER814 

> <Gold.Protein.RotatedAtoms>
  150.7314  134.0195  159.3696 H   0  0  0  0  0  0  0  0  0  0  0  0  # atno 6907 bound_to 6896
  151.8159  135.0664  160.0428 H   0  0  0  0  0  0  0  0  0  0  0  0  # atno 6908 bound_to 6896
  152.3039  133.5647  159.5672 H   0  0  0  0  0  0  0  0  0  0  0  0  # atno 6909 bound_to 6896
  144.7772  140.4607  143.5865 H   0  0  0  0  0  0  0  0  0  0  0  0  # atno 7974 bound_to 7965
  154.9069  140.3008  155.5287 H   0  0  0  0  0  0  0  0  0  0  0  0  # atno 8008 bound_to 7997
  156.3016  140.2396  156.4039 H   0  0  0  0  0  0  0  0  0  0  0  0  # atno 8009 bound_to 7997
  154.8464  140.0411  157.1564 H   0  0  0  0  0  0  0  0  0  0  0  0  # atno 8010 bound_to 7997
  140.3525  144.2332  150.6144 H   0  0  0  0  0  0  0  0  0  0  0  0  # atno 10167 bound_to 10162
  155.9989  130.4770  150.4736 H   0  0  0  0  0  0  0  0  0  0  0  0  # atno 10718 bound_to 10713
  152.9819  135.6027  154.3500 H   0  0  0  0  0  0  0  0  0  0  0  0  # atno 10763 bound_to 10752
  154.3190  135.2770  155.2531 H   0  0  0  0  0  0  0  0  0  0  0  0  # atno 10764 bound_to 10752
  154.4706  135.5943  153.6374 H   0  0  0  0  0  0  0  0  0  0  0  0  # atno 10765 bound_to 10752
  140.4247  134.6573  157.4682 H   0  0  0  0  0  0  0  0  0  0  0  0  # atno 11005 bound_to 11000
  145.6151  139.1517  143.3054 LP  0  0  0  0  0  0  0  0  0  0  0  0  # atno 17320 bound_to 7965
  146.1959  140.6265  142.9124 LP  0  0  0  0  0  0  0  0  0  0  0  0  # atno 17321 bound_to 7965
  140.5206  143.2267  151.8395 LP  0  0  0  0  0  0  0  0  0  0  0  0  # atno 17342 bound_to 10162
  139.4824  144.4842  151.9268 LP  0  0  0  0  0  0  0  0  0  0  0  0  # atno 17343 bound_to 10162
  157.2748  131.0594  151.2236 LP  0  0  0  0  0  0  0  0  0  0  0  0  # atno 17370 bound_to 10713
  157.3303  130.6982  149.6320 LP  0  0  0  0  0  0  0  0  0  0  0  0  # atno 17371 bound_to 10713
  140.0175  134.6596  155.9288 LP  0  0  0  0  0  0  0  0  0  0  0  0  # atno 17394 bound_to 11000
  141.1770  133.6541  156.4867 LP  0  0  0  0  0  0  0  0  0  0  0  0  # atno 17395 bound_to 11000

$$$$
