AV-unprocessed.smi:589|AV-procd|sdf|3005|dock2
  -GOLD-   2262023513D 1   1.00000     0.00000
 Structure written by MMmdl.
 40 41  0  0  0  0  0  0  0  0  1 V2000
  149.2153  136.6859  159.9387 C   0  0  0  0  0  0  0  0  0  0  0  0
  149.5557  137.5214  158.7226 C   0  0  0  0  0  0  0  0  0  0  0  0
  149.0302  137.2074  157.4568 C   0  0  0  0  0  0  0  0  0  0  0  0
  149.3720  138.0198  156.3565 C   0  0  0  0  0  0  0  0  0  0  0  0
  148.7605  137.6918  155.0021 C   0  0  0  0  0  0  0  0  0  0  0  0
  150.2509  139.1214  156.5632 C   0  0  0  0  0  0  0  0  0  0  0  0
  150.6501  140.0347  155.4306 C   0  0  0  0  0  0  0  0  0  0  0  0
  149.6473  140.5847  154.7404 N   0  0  0  0  0  0  0  0  0  0  0  0
  151.8312  140.2271  155.1473 O   0  0  0  0  0  0  0  0  0  0  0  0
  150.7157  139.3576  157.8898 C   0  0  0  0  0  0  0  0  0  0  0  0
  151.5852  140.4253  158.1748 N   0  0  0  0  0  0  0  0  0  0  0  0
  152.2716  140.3029  159.4532 C   0  0  0  0  0  0  0  0  0  0  0  0
  153.3268  141.4172  159.5903 C   0  0  2  0  0  0  0  0  0  0  0  0
  154.0061  141.4026  160.9636 C   0  0  0  0  0  0  0  0  0  0  0  0
  152.6949  142.6843  159.4172 O   0  0  0  0  0  0  0  0  0  0  0  0
  152.0869  142.8260  158.1345 C   0  0  2  0  0  0  0  0  0  0  0  0
  151.5092  144.2407  158.0274 C   0  0  0  0  0  0  0  0  0  0  0  0
  151.0026  141.7449  157.9721 C   0  0  0  0  0  0  0  0  0  0  0  0
  150.3752  138.5684  158.9367 N   0  0  0  0  0  0  0  0  0  0  0  0
  148.5198  135.8846  159.6872 H   0  0  0  0  0  0  0  0  0  0  0  0
  148.7542  137.3063  160.7076 H   0  0  0  0  0  0  0  0  0  0  0  0
  150.1173  136.2363  160.3545 H   0  0  0  0  0  0  0  0  0  0  0  0
  148.3678  136.3630  157.3342 H   0  0  0  0  0  0  0  0  0  0  0  0
  148.3666  138.5880  154.5219 H   0  0  0  0  0  0  0  0  0  0  0  0
  147.9348  136.9869  155.1047 H   0  0  0  0  0  0  0  0  0  0  0  0
  149.5043  137.2395  154.3462 H   0  0  0  0  0  0  0  0  0  0  0  0
  149.8472  141.2094  153.9731 H   0  0  0  0  0  0  0  0  0  0  0  0
  148.6921  140.3764  154.9932 H   0  0  0  0  0  0  0  0  0  0  0  0
  151.5462  140.3702  160.2654 H   0  0  0  0  0  0  0  0  0  0  0  0
  152.7469  139.3235  159.5235 H   0  0  0  0  0  0  0  0  0  0  0  0
  154.0925  141.2929  158.8223 H   0  0  0  0  0  0  0  0  0  0  0  0
  154.5130  140.4538  161.1404 H   0  0  0  0  0  0  0  0  0  0  0  0
  153.2804  141.5494  161.7639 H   0  0  0  0  0  0  0  0  0  0  0  0
  154.7499  142.1961  161.0387 H   0  0  0  0  0  0  0  0  0  0  0  0
  152.8481  142.7012  157.3620 H   0  0  0  0  0  0  0  0  0  0  0  0
  151.0383  144.3989  157.0569 H   0  0  0  0  0  0  0  0  0  0  0  0
  152.2914  144.9912  158.1437 H   0  0  0  0  0  0  0  0  0  0  0  0
  150.7582  144.4193  158.7974 H   0  0  0  0  0  0  0  0  0  0  0  0
  150.5603  141.8011  156.9766 H   0  0  0  0  0  0  0  0  0  0  0  0
  150.2012  141.9091  158.6937 H   0  0  0  0  0  0  0  0  0  0  0  0
  1  2  1  0  0  0  0
  1 20  1  0  0  0  0
  1 21  1  0  0  0  0
  1 22  1  0  0  0  0
  2 19  1  0  0  0  0
  2  3  2  0  0  0  0
  3  4  1  0  0  0  0
  3 23  1  0  0  0  0
  4  5  1  0  0  0  0
  4  6  2  0  0  0  0
  5 24  1  0  0  0  0
  5 25  1  0  0  0  0
  5 26  1  0  0  0  0
  6  7  1  0  0  0  0
  6 10  1  0  0  0  0
  7  8  1  0  0  0  0
  7  9  2  0  0  0  0
  8 27  1  0  0  0  0
  8 28  1  0  0  0  0
 10 11  1  0  0  0  0
 10 19  2  0  0  0  0
 11 18  1  0  0  0  0
 11 12  1  0  0  0  0
 12 13  1  0  0  0  0
 12 29  1  0  0  0  0
 12 30  1  0  0  0  0
 13 14  1  0  0  0  0
 13 15  1  0  0  0  0
 13 31  1  0  0  0  0
 14 32  1  0  0  0  0
 14 33  1  0  0  0  0
 14 34  1  0  0  0  0
 15 16  1  0  0  0  0
 16 17  1  0  0  0  0
 16 18  1  0  0  0  0
 16 35  1  0  0  0  0
 17 36  1  0  0  0  0
 17 37  1  0  0  0  0
 17 38  1  0  0  0  0
 18 39  1  0  0  0  0
 18 40  1  0  0  0  0
M  END
> <s_m_source_file>
AV-unprocessed.smi

> <i_m_source_file_index>
589

> <i_lp_mmshare_version>
43012

> <i_f3d_flags>
0

> <s_epik_input>
W0NIM11jMVtjSF1jKFtDSDNdKWMoQyg9TylbTkgyXSljKG4xKU4yW0NIMl1bQ0BASF0oW0NIM10pT1tDQEBIXShbQ0gzXSlbQ0gyXTI=

> <s_epik_cmdline>
J2VwaWtfcHl0aG9uJywgJy1waCcsICc3LjAnLCAnLXRuJywgJzgnLCAnLW1hJywgJzIwMCcsICctbWV0YWxfYmluZGluZycsICctaW1hZScsICc8aW5maWxlLm1hZT4nLCAnLW9tYWUnLCAnPG91dGZpbGUubWFlPic=

> <r_lp_tautomer_probability>
1

> <r_epik_Ionization_Penalty>
0.000626871

> <r_epik_Ionization_Penalty_Charging>
0

> <r_epik_Ionization_Penalty_Neutral>
0.000626871

> <r_epik_State_Penalty>
0.000395665

> <r_epik_Charging_Adjusted_Penalty>
0.000395665

> <i_epik_Tot_Q>
0

> <i_epik_Tot_abs_Q>
0

> <r_epik_Metal_State_Penalty>
-0

> <b_epik_Metal_Only>
0

> <s_lp_Force_Field>
OPLS_2005

> <r_lp_Energy>
24.7039

> <b_lp_Chiralities_Consistent>
1

> <s_lp_Variant>
AV-unprocessed.smi:589-1

> <Gold.Version>
5.8.1

> <Gold.Id.Protein>
6NUR|6NUR_protein|mol2

> <Gold.PLP.Fitness>
28.6869

> <Gold.PLP.PLP>
-28.3491

> <Gold.PLP.part.hbond>
-1.3904

> <Gold.PLP.part.metal>
0.0000

> <Gold.PLP.part.buried>
-5.3911

> <Gold.PLP.part.nonpolar>
-22.3300

> <Gold.PLP.part.repulsive>
0.1884

> <Gold.PLP.ligand.clash>
0.0000

> <Gold.PLP.ligand.torsion>
1.2701

> <Gold.PLP.Chemscore.Hbond>
0.8480

> <Gold.PLP.Chemscore.CHOScore>
0.0000

> <Gold.PLP.Chemscore.Metal>
0.0000

> <Gold.Chemscore.Hbonds>
donor molecule, donor type, donor heavy atom, donor atom, acceptor molecule, acceptor atom, score
      P1  H  7989  7998       L1     9  0.85

> <Gold.PLP.Chemscore.Internal.Correction>
0.3340

> <Gold.Rescore>
     Score         DG    S(hbond)    S(metal)    S(lipo)     H(rot)  DE(clash)    DE(int)     intcor
     13.07     -14.64       0.98        0.00      72.06       1.00       0.08       1.50       ----

> <Gold.Chemscore.Fitness>
13.0654

> <Gold.Chemscore.DG>
-14.6356

> <Gold.Chemscore.ZeroCoef>
-5.4800

> <Gold.Chemscore.Hbond>
0.9835

> <Gold.Chemscore.Metal>
0.0000

> <Gold.Chemscore.Lipo>
72.0561

> <Gold.Chemscore.Internal_Hbond>
0.0000

> <Gold.Chemscore.DEClash>
0.0751

> <Gold.Chemscore.DEInternal>
1.4951

> <Gold.Chemscore.Rot>
1.0000

> <Gold.Chemscore.Internal.Correction>
   9.000000E+99

> <Gold.Chemscore.Hbonds>
donor molecule, donor type, donor heavy atom, donor atom, acceptor molecule, acceptor atom, score
      P1  H  7989  7998       L1     9  0.25

> <Gold.Chemscore.Hbond.Weighted>
-3.2850

> <Gold.Chemscore.Metal.Weighted>
-0.0000

> <Gold.Chemscore.Lipo.Weighted>
-8.4306

> <Gold.Chemscore.Internal_Hbond.Weighted>
0.0000

> <Gold.Chemscore.DEClash.Weighted>
0.0751

> <Gold.Chemscore.DEInternal.Weighted>
1.4951

> <Gold.Chemscore.Rot.Weighted>
2.5600

> <Gold.Chemscore.Internal.Correction.Weighted>
   9.000000E+99

> <Gold.Protein.RotatedTorsions>
[ 6907 6896 6895 6894 ] final  171.78 input  -60.11 | X-H torsion
[ 7974 7965 7964 7962 ] final   43.20 input  175.53 | X-H torsion
[ 8008 7997 7996 7995 ] final -141.55 input   59.86 | X-H torsion
[ 10167 10162 10161 10158 ] final    6.25 input  -65.29 | X-H torsion
[ 10718 10713 10712 10709 ] final  -36.55 input   66.30 | X-H torsion
[ 10763 10752 10751 10750 ] final  -62.29 input  -60.55 | X-H torsion
[ 11005 11000 10999 10996 ] final  -73.08 input  -57.11 | X-H torsion

> <Gold.Protein.ActiveResidues>
 VAL166  LYS551  ARG553  GLY616  TRP617  ASP618  TYR619  PRO620  LYS621  CYS622 
 ASP623  PHE694  ASN695  SER759  ASP760  ASP761  ALA762  ILE779  LEU786  VAL792 
 PHE793  MET794  SER795  GLU796  ALA797  LYS798  CYS799  TRP800  GLU811  SER814 

> <Gold.Protein.RotatedAtoms>
  151.7947  133.3363  159.3509 H   0  0  0  0  0  0  0  0  0  0  0  0  # atno 6907 bound_to 6896
  150.7379  134.5809  159.5948 H   0  0  0  0  0  0  0  0  0  0  0  0  # atno 6908 bound_to 6896
  152.3185  134.7411  160.0371 H   0  0  0  0  0  0  0  0  0  0  0  0  # atno 6909 bound_to 6896
  146.0676  139.5214  142.9618 H   0  0  0  0  0  0  0  0  0  0  0  0  # atno 7974 bound_to 7965
  155.4797  140.0559  157.2969 H   0  0  0  0  0  0  0  0  0  0  0  0  # atno 8008 bound_to 7997
  154.4665  140.2021  156.0057 H   0  0  0  0  0  0  0  0  0  0  0  0  # atno 8009 bound_to 7997
  156.0983  140.3223  155.7912 H   0  0  0  0  0  0  0  0  0  0  0  0  # atno 8010 bound_to 7997
  140.6438  143.7711  150.7468 H   0  0  0  0  0  0  0  0  0  0  0  0  # atno 10167 bound_to 10162
  156.3255  130.4271  149.7921 H   0  0  0  0  0  0  0  0  0  0  0  0  # atno 10718 bound_to 10713
  154.2976  135.6241  153.5411 H   0  0  0  0  0  0  0  0  0  0  0  0  # atno 10763 bound_to 10752
  152.9844  135.5671  154.5319 H   0  0  0  0  0  0  0  0  0  0  0  0  # atno 10764 bound_to 10752
  154.4943  135.2869  155.1447 H   0  0  0  0  0  0  0  0  0  0  0  0  # atno 10765 bound_to 10752
  141.1618  133.6867  156.7157 H   0  0  0  0  0  0  0  0  0  0  0  0  # atno 11005 bound_to 11000
  145.6450  141.0276  143.1791 LP  0  0  0  0  0  0  0  0  0  0  0  0  # atno 17320 bound_to 7965
  144.7212  139.8025  143.7381 LP  0  0  0  0  0  0  0  0  0  0  0  0  # atno 17321 bound_to 7965
  140.1348  143.4494  152.2231 LP  0  0  0  0  0  0  0  0  0  0  0  0  # atno 17342 bound_to 10162
  139.5648  144.7428  151.4054 LP  0  0  0  0  0  0  0  0  0  0  0  0  # atno 17343 bound_to 10162
  156.5213  130.8216  151.3204 LP  0  0  0  0  0  0  0  0  0  0  0  0  # atno 17370 bound_to 10713
  157.7420  130.9882  150.2487 LP  0  0  0  0  0  0  0  0  0  0  0  0  # atno 17371 bound_to 10713
  140.2854  134.8283  157.3970 LP  0  0  0  0  0  0  0  0  0  0  0  0  # atno 17394 bound_to 11000
  140.1395  134.4990  155.8042 LP  0  0  0  0  0  0  0  0  0  0  0  0  # atno 17395 bound_to 11000

$$$$
