AV-unprocessed.smi:3212|AV-procd|sdf|12280|dock4
  -GOLD-   2272018113D 1   1.00000     0.00000
 Structure written by MMmdl.
 39 39  0  0  0  0  0  0  0  0  1 V2000
  154.1654  139.7110  160.5272 C   0  0  0  0  0  0  0  0  0  0  0  0
  153.4789  140.5569  159.4421 C   0  0  2  0  0  0  0  0  0  0  0  0
  152.5333  141.4972  160.0723 N   0  0  0  0  0  0  0  0  0  0  0  0
  153.0785  142.2091  161.2231 C   0  0  0  0  0  0  0  0  0  0  0  0
  152.2215  143.4500  161.5094 C   0  0  0  0  0  0  0  0  0  0  0  0
  151.6813  144.0151  160.2882 N   0  0  0  0  0  0  0  0  0  0  0  0
  151.9822  145.2244  159.6975 C   0  0  0  0  0  0  0  0  0  0  0  0
  151.2316  145.3189  158.5608 C   0  0  0  0  0  0  0  0  0  0  0  0
  150.4933  144.1024  158.5414 C   0  0  0  0  0  0  0  0  0  0  0  0
  150.7653  143.3239  159.5763 N   0  0  0  0  0  0  0  0  0  0  0  0
  152.8266  139.6599  158.3753 C   0  0  0  0  0  0  0  0  0  0  0  0
  152.9087  138.4348  158.4649 O   0  0  0  0  0  0  0  0  0  0  0  0
  152.1611  140.2957  157.3936 N   0  0  0  0  0  0  0  0  0  0  0  0
  151.4032  139.7149  156.2796 C   0  0  0  0  0  0  0  0  0  0  0  0
  150.6998  140.8801  155.5617 C   0  0  0  0  0  0  0  0  0  0  0  0
  150.3340  138.7338  156.8056 C   0  0  0  0  0  0  0  0  0  0  0  0
  152.3490  139.0100  155.2846 C   0  0  0  0  0  0  0  0  0  0  0  0
  154.8830  139.0142  160.0919 H   0  0  0  0  0  0  0  0  0  0  0  0
  153.4435  139.1301  161.1032 H   0  0  0  0  0  0  0  0  0  0  0  0
  154.7113  140.3436  161.2278 H   0  0  0  0  0  0  0  0  0  0  0  0
  154.2606  141.1442  158.9565 H   0  0  0  0  0  0  0  0  0  0  0  0
  151.6811  141.0287  160.3445 H   0  0  0  0  0  0  0  0  0  0  0  0
  153.0779  141.5505  162.0930 H   0  0  0  0  0  0  0  0  0  0  0  0
  154.1096  142.5142  161.0407 H   0  0  0  0  0  0  0  0  0  0  0  0
  151.3937  143.2010  162.1756 H   0  0  0  0  0  0  0  0  0  0  0  0
  152.8132  144.2169  162.0112 H   0  0  0  0  0  0  0  0  0  0  0  0
  152.6986  145.9079  160.1291 H   0  0  0  0  0  0  0  0  0  0  0  0
  151.2129  146.1326  157.8511 H   0  0  0  0  0  0  0  0  0  0  0  0
  149.7736  143.7640  157.8104 H   0  0  0  0  0  0  0  0  0  0  0  0
  152.1646  141.3045  157.4336 H   0  0  0  0  0  0  0  0  0  0  0  0
  150.1096  140.5267  154.7155 H   0  0  0  0  0  0  0  0  0  0  0  0
  151.4194  141.6047  155.1783 H   0  0  0  0  0  0  0  0  0  0  0  0
  150.0237  141.4115  156.2327 H   0  0  0  0  0  0  0  0  0  0  0  0
  149.6859  139.2109  157.5419 H   0  0  0  0  0  0  0  0  0  0  0  0
  150.7775  137.8568  157.2768 H   0  0  0  0  0  0  0  0  0  0  0  0
  149.6994  138.3730  155.9953 H   0  0  0  0  0  0  0  0  0  0  0  0
  151.8054  138.6658  154.4043 H   0  0  0  0  0  0  0  0  0  0  0  0
  152.8300  138.1360  155.7236 H   0  0  0  0  0  0  0  0  0  0  0  0
  153.1363  139.6817  154.9412 H   0  0  0  0  0  0  0  0  0  0  0  0
  1  2  1  0  0  0  0
  1 18  1  0  0  0  0
  1 19  1  0  0  0  0
  1 20  1  0  0  0  0
  2  3  1  0  0  0  0
  2 11  1  0  0  0  0
  2 21  1  0  0  0  0
  3  4  1  0  0  0  0
  3 22  1  0  0  0  0
  4  5  1  0  0  0  0
  4 23  1  0  0  0  0
  4 24  1  0  0  0  0
  5  6  1  0  0  0  0
  5 25  1  0  0  0  0
  5 26  1  0  0  0  0
  6 10  1  0  0  0  0
  6  7  1  0  0  0  0
  7  8  2  0  0  0  0
  7 27  1  0  0  0  0
  8  9  1  0  0  0  0
  8 28  1  0  0  0  0
  9 10  2  0  0  0  0
  9 29  1  0  0  0  0
 11 12  2  0  0  0  0
 11 13  1  0  0  0  0
 13 14  1  0  0  0  0
 13 30  1  0  0  0  0
 14 15  1  0  0  0  0
 14 16  1  0  0  0  0
 14 17  1  0  0  0  0
 15 31  1  0  0  0  0
 15 32  1  0  0  0  0
 15 33  1  0  0  0  0
 16 34  1  0  0  0  0
 16 35  1  0  0  0  0
 16 36  1  0  0  0  0
 17 37  1  0  0  0  0
 17 38  1  0  0  0  0
 17 39  1  0  0  0  0
M  END
> <s_m_source_file>
AV-unprocessed.smi

> <i_m_source_file_index>
3212

> <i_lp_mmshare_version>
43012

> <i_f3d_flags>
0

> <s_epik_input>
W0NIM11DKFtDSDNdKShbQ0gzXSlbTkhdQyg9TylbQ0BIXShbQ0gzXSlbTkhdW0NIMl1bQ0gyXW4xW2NIXVtjSF1bY0hdbjE=

> <s_epik_cmdline>
J2VwaWtfcHl0aG9uJywgJy1waCcsICc3LjAnLCAnLXRuJywgJzgnLCAnLW1hJywgJzIwMCcsICctbWV0YWxfYmluZGluZycsICctaW1hZScsICc8aW5maWxlLm1hZT4nLCAnLW9tYWUnLCAnPG91dGZpbGUubWFlPic=

> <r_lp_tautomer_probability>
1

> <r_epik_Ionization_Penalty>
0.745735

> <r_epik_Ionization_Penalty_Charging>
0

> <r_epik_Ionization_Penalty_Neutral>
0.745735

> <r_epik_State_Penalty>
0.771152

> <r_epik_Charging_Adjusted_Penalty>
0.771152

> <i_epik_Tot_Q>
0

> <i_epik_Tot_abs_Q>
0

> <r_epik_Metal_State_Penalty>
0.770403

> <b_epik_Metal_Only>
0

> <s_lp_Force_Field>
OPLS_2005

> <r_lp_Energy>
5.75151

> <b_lp_Chiralities_Consistent>
1

> <s_lp_Variant>
AV-unprocessed.smi:3212-3

> <Gold.Version>
5.8.1

> <Gold.Id.Protein>
6NUR|6NUR_protein|mol2

> <Gold.PLP.Fitness>
38.8947

> <Gold.PLP.PLP>
-36.7146

> <Gold.PLP.part.hbond>
-0.5917

> <Gold.PLP.part.metal>
0.0000

> <Gold.PLP.part.buried>
-3.3992

> <Gold.PLP.part.nonpolar>
-30.9334

> <Gold.PLP.part.repulsive>
0.1596

> <Gold.PLP.ligand.clash>
0.0000

> <Gold.PLP.ligand.torsion>
0.4559

> <Gold.PLP.Chemscore.Hbond>
0.0000

> <Gold.PLP.Chemscore.CHOScore>
1.0126

> <Gold.PLP.Chemscore.Metal>
0.0000

> <Gold.Chemscore.Hbonds>
donor molecule, donor type, donor heavy atom, donor atom, acceptor molecule, acceptor atom, score
      L1  C     9    29       P1  8028  1.00
      L1  C     9    29       P1  8029  0.01

> <Gold.PLP.Chemscore.Internal.Correction>
0.0542

> <Gold.Rescore>
     Score         DG    S(hbond)    S(metal)    S(lipo)     H(rot)  DE(clash)    DE(int)     intcor
      9.54     -11.56       0.00        0.00      95.46       1.99       0.01       2.00       ----

> <Gold.Chemscore.Fitness>
9.5437

> <Gold.Chemscore.DG>
-11.5592

> <Gold.Chemscore.ZeroCoef>
-5.4800

> <Gold.Chemscore.Hbond>
0.0000

> <Gold.Chemscore.Metal>
0.0000

> <Gold.Chemscore.Lipo>
95.4570

> <Gold.Chemscore.Internal_Hbond>
0.0000

> <Gold.Chemscore.DEClash>
0.0139

> <Gold.Chemscore.DEInternal>
2.0016

> <Gold.Chemscore.Rot>
1.9880

> <Gold.Chemscore.Internal.Correction>
   9.000000E+99

> <Gold.Chemscore.Hbond.Weighted>
-0.0000

> <Gold.Chemscore.Metal.Weighted>
-0.0000

> <Gold.Chemscore.Lipo.Weighted>
-11.1685

> <Gold.Chemscore.Internal_Hbond.Weighted>
0.0000

> <Gold.Chemscore.DEClash.Weighted>
0.0139

> <Gold.Chemscore.DEInternal.Weighted>
2.0016

> <Gold.Chemscore.Rot.Weighted>
5.0893

> <Gold.Chemscore.Internal.Correction.Weighted>
   9.000000E+99

> <Gold.Protein.RotatedTorsions>
[ 6907 6896 6895 6894 ] final  135.82 input  -60.11 | X-H torsion
[ 7974 7965 7964 7962 ] final -122.77 input  175.53 | X-H torsion
[ 8008 7997 7996 7995 ] final -167.48 input   59.86 | X-H torsion
[ 10167 10162 10161 10158 ] final -141.50 input  -65.29 | X-H torsion
[ 10718 10713 10712 10709 ] final -120.08 input   66.30 | X-H torsion
[ 10763 10752 10751 10750 ] final  148.39 input  -60.55 | X-H torsion
[ 11005 11000 10999 10996 ] final   65.41 input  -57.11 | X-H torsion

> <Gold.Protein.ActiveResidues>
 VAL166  LYS551  ARG553  GLY616  TRP617  ASP618  TYR619  PRO620  LYS621  CYS622 
 ASP623  PHE694  ASN695  SER759  ASP760  ASP761  ALA762  ILE779  LEU786  VAL792 
 PHE793  MET794  SER795  GLU796  ALA797  LYS798  CYS799  TRP800  GLU811  SER814 

> <Gold.Protein.RotatedAtoms>
  152.2962  133.5609  159.5588 H   0  0  0  0  0  0  0  0  0  0  0  0  # atno 6907 bound_to 6896
  150.7257  134.0358  159.3758 H   0  0  0  0  0  0  0  0  0  0  0  0  # atno 6908 bound_to 6896
  151.8261  135.0637  160.0482 H   0  0  0  0  0  0  0  0  0  0  0  0  # atno 6909 bound_to 6896
  145.0259  140.8027  143.4353 H   0  0  0  0  0  0  0  0  0  0  0  0  # atno 7974 bound_to 7965
  155.8783  140.1004  157.1503 H   0  0  0  0  0  0  0  0  0  0  0  0  # atno 8008 bound_to 7997
  154.4003  140.1334  156.4227 H   0  0  0  0  0  0  0  0  0  0  0  0  # atno 8009 bound_to 7997
  155.7672  140.3461  155.5231 H   0  0  0  0  0  0  0  0  0  0  0  0  # atno 8010 bound_to 7997
  139.8179  143.7614  152.2665 H   0  0  0  0  0  0  0  0  0  0  0  0  # atno 10167 bound_to 10162
  156.1230  130.6337  150.9495 H   0  0  0  0  0  0  0  0  0  0  0  0  # atno 10718 bound_to 10713
  154.0540  135.2879  155.3336 H   0  0  0  0  0  0  0  0  0  0  0  0  # atno 10763 bound_to 10752
  154.6851  135.5248  153.8318 H   0  0  0  0  0  0  0  0  0  0  0  0  # atno 10764 bound_to 10752
  153.0549  135.6591  154.0734 H   0  0  0  0  0  0  0  0  0  0  0  0  # atno 10765 bound_to 10752
  139.9896  134.6612  156.0114 H   0  0  0  0  0  0  0  0  0  0  0  0  # atno 11005 bound_to 11000
  145.1834  139.2339  143.5280 LP  0  0  0  0  0  0  0  0  0  0  0  0  # atno 17320 bound_to 7965
  146.3492  140.1613  142.8591 LP  0  0  0  0  0  0  0  0  0  0  0  0  # atno 17321 bound_to 7965
  139.7783  144.7453  151.0125 LP  0  0  0  0  0  0  0  0  0  0  0  0  # atno 17342 bound_to 10162
  140.7815  143.4570  151.0332 LP  0  0  0  0  0  0  0  0  0  0  0  0  # atno 17343 bound_to 10162
  157.6413  131.0910  150.8246 LP  0  0  0  0  0  0  0  0  0  0  0  0  # atno 17370 bound_to 10713
  156.8340  130.5025  149.5328 LP  0  0  0  0  0  0  0  0  0  0  0  0  # atno 17371 bound_to 10713
  141.1554  133.6543  156.4146 LP  0  0  0  0  0  0  0  0  0  0  0  0  # atno 17394 bound_to 11000
  140.4934  134.6554  157.5220 LP  0  0  0  0  0  0  0  0  0  0  0  0  # atno 17395 bound_to 11000

$$$$
