AV-unprocessed.smi:910|AV-procd|sdf|4124|dock1
  -GOLD-   22720 2 23D 1   1.00000     0.00000
 Structure written by MMmdl.
 46 47  0  0  0  0  0  0  0  0  1 V2000
  148.3415  133.1661  153.3094 C   0  0  0  0  0  0  0  0  0  0  0  0
  149.4202  133.6221  154.2672 C   0  0  0  0  0  0  0  0  0  0  0  0
  149.8062  134.9308  154.3560 N   0  0  0  0  0  0  0  0  0  0  0  0
  150.8080  135.0261  155.3191 C   0  0  0  0  0  0  0  0  0  0  0  0
  151.4984  136.0233  155.7813 N   0  0  0  0  0  0  0  0  0  0  0  0
  151.2955  137.2994  155.2757 C   0  0  0  0  0  0  0  0  0  0  0  0
  151.0797  137.6362  154.1072 O   0  0  0  0  0  0  0  0  0  0  0  0
  151.3437  138.2005  156.2681 N   0  0  0  0  0  0  0  0  0  0  0  0
  151.1494  139.6395  156.1206 C   0  0  0  0  0  0  0  0  0  0  0  0
  150.8440  140.3145  157.4655 C   0  0  0  0  0  0  0  0  0  0  0  0
  151.7779  141.3637  157.6736 O   0  0  0  0  0  0  0  0  0  0  0  0
  151.4585  142.2333  158.7520 C   0  0  2  0  0  0  0  0  0  0  0  0
  150.6009  143.4054  158.2309 C   0  0  0  0  0  0  0  0  0  0  0  0
  150.3467  144.4507  159.3269 C   0  0  0  0  0  0  0  0  0  0  0  0
  151.6679  144.9591  159.9205 C   0  0  0  0  0  0  0  0  0  0  0  0
  152.5188  143.7946  160.4497 C   0  0  0  0  0  0  0  0  0  0  0  0
  152.7868  142.7388  159.3583 C   0  0  1  0  0  0  0  0  0  0  0  0
  153.6335  141.5824  159.9166 C   0  0  0  0  0  0  0  0  0  0  0  0
  151.0034  133.7534  155.7939 O   0  0  0  0  0  0  0  0  0  0  0  0
  150.1474  132.9233  155.1348 C   0  0  0  0  0  0  0  0  0  0  0  0
  150.1588  131.4494  155.4719 C   0  0  0  0  0  0  0  0  0  0  0  0
  147.5149  132.7162  153.8596 H   0  0  0  0  0  0  0  0  0  0  0  0
  148.7401  132.4232  152.6184 H   0  0  0  0  0  0  0  0  0  0  0  0
  147.9529  134.0033  152.7289 H   0  0  0  0  0  0  0  0  0  0  0  0
  149.4063  135.6706  153.7968 H   0  0  0  0  0  0  0  0  0  0  0  0
  151.5146  137.8604  157.2034 H   0  0  0  0  0  0  0  0  0  0  0  0
  152.0550  140.0665  155.6890 H   0  0  0  0  0  0  0  0  0  0  0  0
  150.3454  139.8344  155.4092 H   0  0  0  0  0  0  0  0  0  0  0  0
  149.8281  140.7088  157.4541 H   0  0  0  0  0  0  0  0  0  0  0  0
  150.9000  139.5858  158.2754 H   0  0  0  0  0  0  0  0  0  0  0  0
  150.9110  141.6939  159.5276 H   0  0  0  0  0  0  0  0  0  0  0  0
  151.1059  143.8801  157.3886 H   0  0  0  0  0  0  0  0  0  0  0  0
  149.6458  143.0423  157.8523 H   0  0  0  0  0  0  0  0  0  0  0  0
  149.7762  145.2856  158.9190 H   0  0  0  0  0  0  0  0  0  0  0  0
  149.7341  144.0126  160.1159 H   0  0  0  0  0  0  0  0  0  0  0  0
  152.2267  145.5043  159.1587 H   0  0  0  0  0  0  0  0  0  0  0  0
  151.4664  145.6683  160.7238 H   0  0  0  0  0  0  0  0  0  0  0  0
  153.4631  144.1803  160.8354 H   0  0  0  0  0  0  0  0  0  0  0  0
  152.0088  143.3297  161.2946 H   0  0  0  0  0  0  0  0  0  0  0  0
  153.3617  143.2171  158.5637 H   0  0  0  0  0  0  0  0  0  0  0  0
  153.1118  141.0605  160.7193 H   0  0  0  0  0  0  0  0  0  0  0  0
  154.5796  141.9478  160.3165 H   0  0  0  0  0  0  0  0  0  0  0  0
  153.8685  140.8501  159.1436 H   0  0  0  0  0  0  0  0  0  0  0  0
  150.0500  130.8507  154.5675 H   0  0  0  0  0  0  0  0  0  0  0  0
  149.3370  131.2109  156.1472 H   0  0  0  0  0  0  0  0  0  0  0  0
  151.0964  131.1752  155.9559 H   0  0  0  0  0  0  0  0  0  0  0  0
  1 22  1  0  0  0  0
  1 23  1  0  0  0  0
  1 24  1  0  0  0  0
  1  2  1  0  0  0  0
  2  3  1  0  0  0  0
  2 20  2  0  0  0  0
  3 25  1  0  0  0  0
  3  4  1  0  0  0  0
  4 19  1  0  0  0  0
  4  5  2  0  0  0  0
  5  6  1  0  0  0  0
  6  8  1  0  0  0  0
  6  7  2  0  0  0  0
  8  9  1  0  0  0  0
  8 26  1  0  0  0  0
  9 10  1  0  0  0  0
  9 27  1  0  0  0  0
  9 28  1  0  0  0  0
 10 11  1  0  0  0  0
 10 29  1  0  0  0  0
 10 30  1  0  0  0  0
 11 12  1  0  0  0  0
 12 17  1  0  0  0  0
 12 13  1  0  0  0  0
 12 31  1  0  0  0  0
 13 14  1  0  0  0  0
 13 32  1  0  0  0  0
 13 33  1  0  0  0  0
 14 15  1  0  0  0  0
 14 34  1  0  0  0  0
 14 35  1  0  0  0  0
 15 16  1  0  0  0  0
 15 36  1  0  0  0  0
 15 37  1  0  0  0  0
 16 17  1  0  0  0  0
 16 38  1  0  0  0  0
 16 39  1  0  0  0  0
 17 18  1  0  0  0  0
 17 40  1  0  0  0  0
 18 41  1  0  0  0  0
 18 42  1  0  0  0  0
 18 43  1  0  0  0  0
 19 20  1  0  0  0  0
 20 21  1  0  0  0  0
 21 44  1  0  0  0  0
 21 45  1  0  0  0  0
 21 46  1  0  0  0  0
M  END
> <s_m_source_file>
AV-unprocessed.smi

> <i_m_source_file_index>
910

> <i_lp_mmshare_version>
43012

> <i_f3d_flags>
0

> <s_epik_input>
W0NIM11jMW5jKG9jMVtDSDNdKVtOSF1DKD1PKVtOSF1bQ0gyXVtDSDJdT1tDQEBIXTJbQ0gyXVtDSDJdW0NIMl1bQ0gyXVtDQEhdMltDSDNd

> <s_epik_cmdline>
J2VwaWtfcHl0aG9uJywgJy1waCcsICc3LjAnLCAnLXRuJywgJzgnLCAnLW1hJywgJzIwMCcsICctbWV0YWxfYmluZGluZycsICctaW1hZScsICc8aW5maWxlLm1hZT4nLCAnLW9tYWUnLCAnPG91dGZpbGUubWFlPic=

> <r_lp_tautomer_probability>
0.107061

> <r_epik_Ionization_Penalty>
0.727192

> <r_epik_Ionization_Penalty_Charging>
0.726719

> <r_epik_Ionization_Penalty_Neutral>
0.000473387

> <r_epik_State_Penalty>
2.53712

> <r_epik_Charging_Adjusted_Penalty>
3.26383

> <i_epik_Tot_Q>
0

> <i_epik_Tot_abs_Q>
0

> <r_epik_Metal_State_Penalty>
3.71015

> <b_epik_Metal_Only>
0

> <s_lp_Force_Field>
OPLS_2005

> <r_lp_Energy>
31.238

> <b_lp_Chiralities_Consistent>
1

> <s_lp_Variant>
AV-unprocessed.smi:910-9

> <Gold.Version>
5.8.1

> <Gold.Id.Protein>
6NUR|6NUR_protein|mol2

> <Gold.PLP.Fitness>
42.5827

> <Gold.PLP.PLP>
-41.5394

> <Gold.PLP.part.hbond>
-2.2399

> <Gold.PLP.part.metal>
0.0000

> <Gold.PLP.part.buried>
-4.7090

> <Gold.PLP.part.nonpolar>
-35.0704

> <Gold.PLP.part.repulsive>
0.6043

> <Gold.PLP.ligand.clash>
0.0000

> <Gold.PLP.ligand.torsion>
1.2114

> <Gold.PLP.Chemscore.Hbond>
1.1435

> <Gold.PLP.Chemscore.CHOScore>
0.0000

> <Gold.PLP.Chemscore.Metal>
0.0000

> <Gold.Chemscore.Hbonds>
donor molecule, donor type, donor heavy atom, donor atom, acceptor molecule, acceptor atom, score
      L1  H     3    25       P1  7948  0.84
      P1  H 10752 10763       L1     5  0.29

> <Gold.PLP.Chemscore.Internal.Correction>
0.0356

> <Gold.Rescore>
     Score         DG    S(hbond)    S(metal)    S(lipo)     H(rot)  DE(clash)    DE(int)     intcor
     13.34     -15.47       0.62        0.00     104.12       1.66       0.06       2.08       ----

> <Gold.Chemscore.Fitness>
13.3363

> <Gold.Chemscore.DG>
-15.4746

> <Gold.Chemscore.ZeroCoef>
-5.4800

> <Gold.Chemscore.Hbond>
0.6157

> <Gold.Chemscore.Metal>
0.0000

> <Gold.Chemscore.Lipo>
104.1184

> <Gold.Chemscore.Internal_Hbond>
0.0000

> <Gold.Chemscore.DEClash>
0.0566

> <Gold.Chemscore.DEInternal>
2.0816

> <Gold.Chemscore.Rot>
1.6576

> <Gold.Chemscore.Internal.Correction>
   9.000000E+99

> <Gold.Chemscore.Hbonds>
donor molecule, donor type, donor heavy atom, donor atom, acceptor molecule, acceptor atom, score
      L1  H     3    25       P1  7948  0.34

> <Gold.Chemscore.Hbond.Weighted>
-2.0563

> <Gold.Chemscore.Metal.Weighted>
-0.0000

> <Gold.Chemscore.Lipo.Weighted>
-12.1818

> <Gold.Chemscore.Internal_Hbond.Weighted>
0.0000

> <Gold.Chemscore.DEClash.Weighted>
0.0566

> <Gold.Chemscore.DEInternal.Weighted>
2.0816

> <Gold.Chemscore.Rot.Weighted>
4.2436

> <Gold.Chemscore.Internal.Correction.Weighted>
   9.000000E+99

> <Gold.Protein.RotatedTorsions>
[ 6907 6896 6895 6894 ] final -115.95 input  -60.11 | X-H torsion
[ 7974 7965 7964 7962 ] final -121.24 input  175.53 | X-H torsion
[ 8008 7997 7996 7995 ] final -162.74 input   59.86 | X-H torsion
[ 10167 10162 10161 10158 ] final  -37.18 input  -65.29 | X-H torsion
[ 10718 10713 10712 10709 ] final -154.23 input   66.30 | X-H torsion
[ 10763 10752 10751 10750 ] final   53.29 input  -60.55 | X-H torsion
[ 11005 11000 10999 10996 ] final  148.47 input  -57.11 | X-H torsion

> <Gold.Protein.ActiveResidues>
 VAL166  LYS551  ARG553  GLY616  TRP617  ASP618  TYR619  PRO620  LYS621  CYS622 
 ASP623  PHE694  ASN695  SER759  ASP760  ASP761  ALA762  ILE779  LEU786  VAL792 
 PHE793  MET794  SER795  GLU796  ALA797  LYS798  CYS799  TRP800  GLU811  SER814 

> <Gold.Protein.RotatedAtoms>
  150.8018  133.8585  159.3225 H   0  0  0  0  0  0  0  0  0  0  0  0  # atno 6907 bound_to 6896
  151.6395  135.1012  160.0148 H   0  0  0  0  0  0  0  0  0  0  0  0  # atno 6908 bound_to 6896
  152.4106  133.6917  159.6429 H   0  0  0  0  0  0  0  0  0  0  0  0  # atno 6909 bound_to 6896
  145.0425  140.8156  143.4258 H   0  0  0  0  0  0  0  0  0  0  0  0  # atno 7974 bound_to 7965
  155.8112  140.0906  157.1903 H   0  0  0  0  0  0  0  0  0  0  0  0  # atno 8008 bound_to 7997
  154.3980  140.1454  156.3448 H   0  0  0  0  0  0  0  0  0  0  0  0  # atno 8009 bound_to 7997
  155.8363  140.3440  155.5606 H   0  0  0  0  0  0  0  0  0  0  0  0  # atno 8010 bound_to 7997
  140.7124  143.3359  151.2464 H   0  0  0  0  0  0  0  0  0  0  0  0  # atno 10167 bound_to 10162
  156.4966  130.8372  151.2592 H   0  0  0  0  0  0  0  0  0  0  0  0  # atno 10718 bound_to 10713
  152.9794  135.5784  154.4717 H   0  0  0  0  0  0  0  0  0  0  0  0  # atno 10763 bound_to 10752
  154.4279  135.2773  155.1934 H   0  0  0  0  0  0  0  0  0  0  0  0  # atno 10764 bound_to 10752
  154.3655  135.6179  153.5766 H   0  0  0  0  0  0  0  0  0  0  0  0  # atno 10765 bound_to 10752
  140.0963  134.9011  157.1728 H   0  0  0  0  0  0  0  0  0  0  0  0  # atno 11005 bound_to 11000
  145.1629  139.2448  143.5382 LP  0  0  0  0  0  0  0  0  0  0  0  0  # atno 17320 bound_to 7965
  146.3511  140.1361  142.8596 LP  0  0  0  0  0  0  0  0  0  0  0  0  # atno 17321 bound_to 7965
  139.6854  143.9783  152.2831 LP  0  0  0  0  0  0  0  0  0  0  0  0  # atno 17342 bound_to 10162
  139.9427  144.6671  150.8250 LP  0  0  0  0  0  0  0  0  0  0  0  0  # atno 17343 bound_to 10162
  157.7468  130.9996  150.2894 LP  0  0  0  0  0  0  0  0  0  0  0  0  # atno 17370 bound_to 10713
  156.3374  130.3810  149.7438 LP  0  0  0  0  0  0  0  0  0  0  0  0  # atno 17371 bound_to 10713
  140.3282  134.2839  155.7233 LP  0  0  0  0  0  0  0  0  0  0  0  0  # atno 17394 bound_to 11000
  141.2093  133.7753  157.0007 LP  0  0  0  0  0  0  0  0  0  0  0  0  # atno 17395 bound_to 11000

$$$$
