AV-unprocessed.smi:1802|AV-procd|sdf|7275|dock1
  -GOLD-   22720 8533D 1   1.00000     0.00000
 Structure written by MMmdl.
 40 41  0  0  0  0  0  0  0  0  3 V2000
  152.6577  142.9415  161.7678 C   0  0  0  0  0  0  0  0  0  0  0  0
  152.6545  142.8928  160.2333 C   0  0  2  0  0  0  0  0  0  0  0  0
  152.2010  144.2328  159.6300 C   0  0  0  0  0  0  0  0  0  0  0  0
  152.1820  144.1466  158.0990 C   0  0  0  0  0  0  0  0  0  0  0  0
  151.3145  142.9698  157.6252 C   0  0  0  0  0  0  0  0  0  0  0  0
  151.7775  141.6893  158.2196 N   0  3  2  0  0  0  0  0  0  0  0  0
  151.0439  140.5199  157.6722 C   0  0  0  0  0  0  0  0  0  0  0  0
  151.6539  139.1818  158.1221 C   0  0  0  0  0  0  0  0  0  0  0  0
  150.6787  138.0105  157.9492 C   0  0  0  0  0  0  0  0  0  0  0  0
  149.8340  137.8737  159.1276 N   0  0  0  0  0  0  0  0  0  0  0  0
  149.2327  136.7429  159.5198 C   0  0  0  0  0  0  0  0  0  0  0  0
  149.3708  135.7126  158.8568 O   0  0  0  0  0  0  0  0  0  0  0  0
  148.5133  136.8766  160.6566 N   0  5  0  0  0  0  0  0  0  0  0  0
  147.7970  135.8405  161.1238 C   0  0  0  0  0  0  0  0  0  0  0  0
  147.5076  134.7678  160.3698 N   0  0  0  0  0  0  0  0  0  0  0  0
  146.7533  133.8155  161.0420 N   0  0  0  0  0  0  0  0  0  0  0  0
  146.4849  134.2005  162.2894 C   0  0  0  0  0  0  0  0  0  0  0  0
  147.1271  135.7612  162.7558 S   0  0  0  0  0  0  0  0  0  0  0  0
  151.7715  141.7435  159.7064 C   0  0  0  0  0  0  0  0  0  0  0  0
  151.6572  143.1238  162.1612 H   0  0  0  0  0  0  0  0  0  0  0  0
  153.3088  143.7357  162.1342 H   0  0  0  0  0  0  0  0  0  0  0  0
  153.0158  142.0024  162.1907 H   0  0  0  0  0  0  0  0  0  0  0  0
  153.6797  142.7057  159.9093 H   0  0  0  0  0  0  0  0  0  0  0  0
  151.2052  144.4890  159.9950 H   0  0  0  0  0  0  0  0  0  0  0  0
  152.8662  145.0366  159.9476 H   0  0  0  0  0  0  0  0  0  0  0  0
  151.8067  145.0799  157.6783 H   0  0  0  0  0  0  0  0  0  0  0  0
  153.1998  144.0261  157.7257 H   0  0  0  0  0  0  0  0  0  0  0  0
  150.2697  143.1393  157.8906 H   0  0  0  0  0  0  0  0  0  0  0  0
  151.3606  142.9105  156.5371 H   0  0  0  0  0  0  0  0  0  0  0  0
  149.9890  140.5783  157.9447 H   0  0  0  0  0  0  0  0  0  0  0  0
  151.0820  140.5544  156.5825 H   0  0  0  0  0  0  0  0  0  0  0  0
  152.5584  138.9843  157.5448 H   0  0  0  0  0  0  0  0  0  0  0  0
  151.9582  139.2336  159.1674 H   0  0  0  0  0  0  0  0  0  0  0  0
  150.0478  138.1684  157.0734 H   0  0  0  0  0  0  0  0  0  0  0  0
  151.2329  137.0845  157.7876 H   0  0  0  0  0  0  0  0  0  0  0  0
  149.6936  138.6967  159.6951 H   0  0  0  0  0  0  0  0  0  0  0  0
  145.9029  133.5631  162.9380 H   0  0  0  0  0  0  0  0  0  0  0  0
  152.1377  140.8028  160.1160 H   0  0  0  0  0  0  0  0  0  0  0  0
  150.7460  141.8618  160.0606 H   0  0  0  0  0  0  0  0  0  0  0  0
  152.7396  141.5800  157.9322 H   0  0  0  0  0  0  0  0  0  0  0  0
  1  2  1  0  0  0  0
  1 20  1  0  0  0  0
  1 21  1  0  0  0  0
  1 22  1  0  0  0  0
  2 19  1  0  0  0  0
  2  3  1  0  0  0  0
  2 23  1  0  0  0  0
  3  4  1  0  0  0  0
  3 24  1  0  0  0  0
  3 25  1  0  0  0  0
  4  5  1  0  0  0  0
  4 26  1  0  0  0  0
  4 27  1  0  0  0  0
  5  6  1  0  0  0  0
  5 28  1  0  0  0  0
  5 29  1  0  0  0  0
  6  7  1  0  0  0  0
  6 19  1  0  0  0  0
  6 40  1  0  0  0  0
  7  8  1  0  0  0  0
  7 30  1  0  0  0  0
  7 31  1  0  0  0  0
  8  9  1  0  0  0  0
  8 32  1  0  0  0  0
  8 33  1  0  0  0  0
  9 10  1  0  0  0  0
  9 34  1  0  0  0  0
  9 35  1  0  0  0  0
 10 11  1  0  0  0  0
 10 36  1  0  0  0  0
 11 12  2  0  0  0  0
 11 13  1  0  0  0  0
 13 14  1  0  0  0  0
 14 18  1  0  0  0  0
 14 15  2  0  0  0  0
 15 16  1  0  0  0  0
 16 17  2  0  0  0  0
 17 18  1  0  0  0  0
 17 37  1  0  0  0  0
 19 38  1  0  0  0  0
 19 39  1  0  0  0  0
M  CHG  1   6   1
M  CHG  1  13  -1
M  END
> <s_m_source_file>
AV-unprocessed.smi

> <i_m_source_file_index>
1802

> <i_lp_mmshare_version>
43012

> <i_f3d_flags>
0

> <s_epik_input>
W0NIM11bQ0BASF0xW0NIMl1bQ0gyXVtDSDJdTihbQ0gyXTEpW0NIMl1bQ0gyXVtDSDJdW05IXUMoPU8pW05IXWMybm5bY0hdczI=

> <s_epik_cmdline>
J2VwaWtfcHl0aG9uJywgJy1waCcsICc3LjAnLCAnLXRuJywgJzgnLCAnLW1hJywgJzIwMCcsICctbWV0YWxfYmluZGluZycsICctaW1hZScsICc8aW5maWxlLm1hZT4nLCAnLW9tYWUnLCAnPG91dGZpbGUubWFlPic=

> <r_lp_tautomer_probability>
1

> <r_epik_Ionization_Penalty>
3.29702

> <r_epik_Ionization_Penalty_Charging>
3.26059

> <r_epik_Ionization_Penalty_Neutral>
0.0364294

> <r_epik_State_Penalty>
3.25788

> <r_epik_Charging_Adjusted_Penalty>
6.51847

> <i_epik_Tot_Q>
0

> <i_epik_Tot_abs_Q>
2

> <r_epik_Metal_State_Penalty>
0.477639

> <b_epik_Metal_Only>
1

> <s_lp_Force_Field>
OPLS_2005

> <r_lp_Energy>
10.8961

> <b_lp_Chiralities_Consistent>
1

> <s_lp_Variant>
AV-unprocessed.smi:1802-5

> <Gold.Version>
5.8.1

> <Gold.Id.Protein>
6NUR|6NUR_protein|mol2

> <Gold.PLP.Fitness>
50.6219

> <Gold.PLP.PLP>
-43.1577

> <Gold.PLP.part.hbond>
-2.1681

> <Gold.PLP.part.metal>
0.0000

> <Gold.PLP.part.buried>
-6.6983

> <Gold.PLP.part.nonpolar>
-36.0081

> <Gold.PLP.part.repulsive>
0.3080

> <Gold.PLP.ligand.clash>
0.0000

> <Gold.PLP.ligand.torsion>
0.4853

> <Gold.PLP.Chemscore.Hbond>
2.7600

> <Gold.PLP.Chemscore.CHOScore>
0.0000

> <Gold.PLP.Chemscore.Metal>
0.0000

> <Gold.Chemscore.Hbonds>
donor molecule, donor type, donor heavy atom, donor atom, acceptor molecule, acceptor atom, score
      P1  H  6896  6907       L1    12  1.00
      P1  H  6931  6943       L1    13  1.82

> <Gold.PLP.Chemscore.Internal.Correction>
0.1547

> <Gold.Rescore>
     Score         DG    S(hbond)    S(metal)    S(lipo)     H(rot)  DE(clash)    DE(int)     intcor
     16.14     -18.65       1.84        0.00     102.41       1.94       0.34       2.18       ----

> <Gold.Chemscore.Fitness>
16.1401

> <Gold.Chemscore.DG>
-18.6513

> <Gold.Chemscore.ZeroCoef>
-5.4800

> <Gold.Chemscore.Hbond>
1.8416

> <Gold.Chemscore.Metal>
0.0000

> <Gold.Chemscore.Lipo>
102.4143

> <Gold.Chemscore.Internal_Hbond>
0.0000

> <Gold.Chemscore.DEClash>
0.3354

> <Gold.Chemscore.DEInternal>
2.1758

> <Gold.Chemscore.Rot>
1.9383

> <Gold.Chemscore.Internal.Correction>
   9.000000E+99

> <Gold.Chemscore.Hbonds>
donor molecule, donor type, donor heavy atom, donor atom, acceptor molecule, acceptor atom, score
      P1  H  6896  6907       L1    12  0.93
      P1  H  6931  6943       L1    13  0.82

> <Gold.Chemscore.Hbond.Weighted>
-6.1509

> <Gold.Chemscore.Metal.Weighted>
-0.0000

> <Gold.Chemscore.Lipo.Weighted>
-11.9825

> <Gold.Chemscore.Internal_Hbond.Weighted>
0.0000

> <Gold.Chemscore.DEClash.Weighted>
0.3354

> <Gold.Chemscore.DEInternal.Weighted>
2.1758

> <Gold.Chemscore.Rot.Weighted>
4.9620

> <Gold.Chemscore.Internal.Correction.Weighted>
   9.000000E+99

> <Gold.Protein.RotatedTorsions>
[ 6907 6896 6895 6894 ] final  -79.35 input  -60.11 | X-H torsion
[ 7974 7965 7964 7962 ] final  -20.93 input  175.53 | X-H torsion
[ 8008 7997 7996 7995 ] final  133.87 input   59.86 | X-H torsion
[ 10167 10162 10161 10158 ] final  110.97 input  -65.29 | X-H torsion
[ 10718 10713 10712 10709 ] final   41.83 input   66.30 | X-H torsion
[ 10763 10752 10751 10750 ] final -143.42 input  -60.55 | X-H torsion
[ 11005 11000 10999 10996 ] final  118.27 input  -57.11 | X-H torsion

> <Gold.Protein.ActiveResidues>
 VAL166  LYS551  ARG553  GLY616  TRP617  ASP618  TYR619  PRO620  LYS621  CYS622 
 ASP623  PHE694  ASN695  SER759  ASP760  ASP761  ALA762  ILE779  LEU786  VAL792 
 PHE793  MET794  SER795  GLU796  ALA797  LYS798  CYS799  TRP800  GLU811  SER814 

> <Gold.Protein.RotatedAtoms>
  150.6952  134.4134  159.5172 H   0  0  0  0  0  0  0  0  0  0  0  0  # atno 6907 bound_to 6896
  152.1889  134.8686  160.0528 H   0  0  0  0  0  0  0  0  0  0  0  0  # atno 6908 bound_to 6896
  151.9649  133.3672  159.4086 H   0  0  0  0  0  0  0  0  0  0  0  0  # atno 6909 bound_to 6896
  146.1761  140.4271  142.8513 H   0  0  0  0  0  0  0  0  0  0  0  0  # atno 7974 bound_to 7965
  156.2995  140.2510  156.3324 H   0  0  0  0  0  0  0  0  0  0  0  0  # atno 8008 bound_to 7997
  154.9133  140.0403  157.1977 H   0  0  0  0  0  0  0  0  0  0  0  0  # atno 8009 bound_to 7997
  154.8384  140.2887  155.5680 H   0  0  0  0  0  0  0  0  0  0  0  0  # atno 8010 bound_to 7997
  139.6647  144.7128  151.1799 H   0  0  0  0  0  0  0  0  0  0  0  0  # atno 10167 bound_to 10162
  157.3980  130.7844  149.7324 H   0  0  0  0  0  0  0  0  0  0  0  0  # atno 10718 bound_to 10713
  154.8471  135.3468  154.6184 H   0  0  0  0  0  0  0  0  0  0  0  0  # atno 10763 bound_to 10752
  153.6792  135.6981  153.5127 H   0  0  0  0  0  0  0  0  0  0  0  0  # atno 10764 bound_to 10752
  153.2681  135.4301  155.0917 H   0  0  0  0  0  0  0  0  0  0  0  0  # atno 10765 bound_to 10752
  139.9103  134.9618  156.7477 H   0  0  0  0  0  0  0  0  0  0  0  0  # atno 11005 bound_to 11000
  144.8238  140.6595  143.6335 LP  0  0  0  0  0  0  0  0  0  0  0  0  # atno 17320 bound_to 7965
  145.4208  139.1564  143.4075 LP  0  0  0  0  0  0  0  0  0  0  0  0  # atno 17321 bound_to 7965
  140.7594  143.5938  150.8769 LP  0  0  0  0  0  0  0  0  0  0  0  0  # atno 17342 bound_to 10162
  139.9598  143.6176  152.3005 LP  0  0  0  0  0  0  0  0  0  0  0  0  # atno 17343 bound_to 10162
  155.9815  130.4018  150.3465 LP  0  0  0  0  0  0  0  0  0  0  0  0  # atno 17370 bound_to 10713
  157.1590  131.0340  151.2850 LP  0  0  0  0  0  0  0  0  0  0  0  0  # atno 17371 bound_to 10713
  140.6798  133.9484  155.7904 LP  0  0  0  0  0  0  0  0  0  0  0  0  # atno 17394 bound_to 11000
  141.0518  134.0474  157.3774 LP  0  0  0  0  0  0  0  0  0  0  0  0  # atno 17395 bound_to 11000

$$$$
