AV-unprocessed.smi:1047|AV-procd|sdf|4590|dock1
  -GOLD-   22720 3 63D 1   1.00000     0.00000
 Structure written by MMmdl.
 57 59  0  0  0  0  0  0  0  0  3 V2000
  150.9614  129.7108  154.6697 C   0  0  0  0  0  0  0  0  0  0  0  0
  149.4973  130.0688  154.3774 C   0  0  0  0  0  0  0  0  0  0  0  0
  149.2842  131.4200  153.8611 N   0  0  0  0  0  0  0  0  0  0  0  0
  147.8680  131.7445  153.7083 C   0  0  0  0  0  0  0  0  0  0  0  0
  147.6626  133.1796  153.1944 C   0  0  0  0  0  0  0  0  0  0  0  0
  148.3124  134.0976  154.0679 O   0  0  0  0  0  0  0  0  0  0  0  0
  149.7101  133.8491  154.1974 C   0  0  1  0  0  0  0  0  0  0  0  0
  150.2959  134.8992  155.1510 C   0  0  0  0  0  0  0  0  0  0  0  0
  149.9838  136.2665  154.6907 N   0  3  0  0  0  0  0  0  0  0  0  0
  151.0891  137.2286  154.8716 C   0  0  0  0  0  0  0  0  0  0  0  0
  150.6809  138.3986  155.7881 C   0  0  1  0  0  0  0  0  0  0  0  0
  150.3404  137.8914  157.0628 O   0  0  0  0  0  0  0  0  0  0  0  0
  151.7957  139.4434  156.0007 C   0  0  0  0  0  0  0  0  0  0  0  0
  151.2839  140.7766  156.3485 N   0  0  0  0  0  0  0  0  0  0  0  0
  150.4121  141.5718  155.6700 C   0  0  0  0  0  0  0  0  0  0  0  0
  150.2327  142.7051  156.4030 N   0  3  0  0  0  0  0  0  0  0  0  0
  150.9974  142.6324  157.5690 C   0  0  0  0  0  0  0  0  0  0  0  0
  151.1439  143.5325  158.6176 C   0  0  0  0  0  0  0  0  0  0  0  0
  152.0061  143.1591  159.6730 C   0  0  0  0  0  0  0  0  0  0  0  0
  152.1860  144.1196  160.8367 C   0  0  0  0  0  0  0  0  0  0  0  0
  152.6900  141.9161  159.6510 C   0  0  0  0  0  0  0  0  0  0  0  0
  153.6168  141.5252  160.7898 C   0  0  0  0  0  0  0  0  0  0  0  0
  152.5278  141.0142  158.5752 C   0  0  0  0  0  0  0  0  0  0  0  0
  151.6729  141.3962  157.5432 C   0  0  0  0  0  0  0  0  0  0  0  0
  149.9072  132.4149  154.7271 C   0  0  0  0  0  0  0  0  0  0  0  0
  151.0270  128.7356  155.1526 H   0  0  0  0  0  0  0  0  0  0  0  0
  151.4202  130.4412  155.3369 H   0  0  0  0  0  0  0  0  0  0  0  0
  151.5586  129.6607  153.7598 H   0  0  0  0  0  0  0  0  0  0  0  0
  149.0747  129.3364  153.6879 H   0  0  0  0  0  0  0  0  0  0  0  0
  148.9423  129.9570  155.3098 H   0  0  0  0  0  0  0  0  0  0  0  0
  147.3937  131.0539  153.0115 H   0  0  0  0  0  0  0  0  0  0  0  0
  147.3555  131.6267  154.6644 H   0  0  0  0  0  0  0  0  0  0  0  0
  148.0573  133.2880  152.1828 H   0  0  0  0  0  0  0  0  0  0  0  0
  146.5999  133.4187  153.1513 H   0  0  0  0  0  0  0  0  0  0  0  0
  150.1880  133.9421  153.2201 H   0  0  0  0  0  0  0  0  0  0  0  0
  149.9065  134.7509  156.1593 H   0  0  0  0  0  0  0  0  0  0  0  0
  151.3795  134.7875  155.2040 H   0  0  0  0  0  0  0  0  0  0  0  0
  149.7393  136.2307  153.7113 H   0  0  0  0  0  0  0  0  0  0  0  0
  151.9631  136.7159  155.2765 H   0  0  0  0  0  0  0  0  0  0  0  0
  151.3653  137.6022  153.8857 H   0  0  0  0  0  0  0  0  0  0  0  0
  149.8032  138.8983  155.3757 H   0  0  0  0  0  0  0  0  0  0  0  0
  150.2682  138.6097  157.6725 H   0  0  0  0  0  0  0  0  0  0  0  0
  152.4412  139.1318  156.8235 H   0  0  0  0  0  0  0  0  0  0  0  0
  152.4409  139.5191  155.1254 H   0  0  0  0  0  0  0  0  0  0  0  0
  149.9425  141.3424  154.7240 H   0  0  0  0  0  0  0  0  0  0  0  0
  150.6202  144.4773  158.6270 H   0  0  0  0  0  0  0  0  0  0  0  0
  151.8951  143.6456  161.7745 H   0  0  0  0  0  0  0  0  0  0  0  0
  151.5750  145.0145  160.7136 H   0  0  0  0  0  0  0  0  0  0  0  0
  153.2270  144.4349  160.9156 H   0  0  0  0  0  0  0  0  0  0  0  0
  154.0829  140.5559  160.6107 H   0  0  0  0  0  0  0  0  0  0  0  0
  153.0645  141.4606  161.7276 H   0  0  0  0  0  0  0  0  0  0  0  0
  154.4135  142.2604  160.9061 H   0  0  0  0  0  0  0  0  0  0  0  0
  153.0510  140.0698  158.5630 H   0  0  0  0  0  0  0  0  0  0  0  0
  149.4925  132.3386  155.7336 H   0  0  0  0  0  0  0  0  0  0  0  0
  150.9745  132.2072  154.8147 H   0  0  0  0  0  0  0  0  0  0  0  0
  149.1840  136.5978  155.2116 H   0  0  0  0  0  0  0  0  0  0  0  0
  149.6260  143.4677  156.1290 H   0  0  0  0  0  0  0  0  0  0  0  0
  1  2  1  0  0  0  0
  1 26  1  0  0  0  0
  1 27  1  0  0  0  0
  1 28  1  0  0  0  0
  2  3  1  0  0  0  0
  2 29  1  0  0  0  0
  2 30  1  0  0  0  0
  3 25  1  0  0  0  0
  3  4  1  0  0  0  0
  4  5  1  0  0  0  0
  4 31  1  0  0  0  0
  4 32  1  0  0  0  0
  5  6  1  0  0  0  0
  5 33  1  0  0  0  0
  5 34  1  0  0  0  0
  6  7  1  0  0  0  0
  7  8  1  0  0  0  0
  7 25  1  0  0  0  0
  7 35  1  0  0  0  0
  8  9  1  0  0  0  0
  8 36  1  0  0  0  0
  8 37  1  0  0  0  0
  9 10  1  0  0  0  0
  9 38  1  0  0  0  0
  9 56  1  0  0  0  0
 10 11  1  0  0  0  0
 10 39  1  0  0  0  0
 10 40  1  0  0  0  0
 11 12  1  0  0  0  0
 11 13  1  0  0  0  0
 11 41  1  0  0  0  0
 12 42  1  0  0  0  0
 13 14  1  0  0  0  0
 13 43  1  0  0  0  0
 13 44  1  0  0  0  0
 14 24  1  0  0  0  0
 14 15  1  0  0  0  0
 15 16  2  0  0  0  0
 15 45  1  0  0  0  0
 16 17  1  0  0  0  0
 16 57  1  0  0  0  0
 17 24  2  0  0  0  0
 17 18  1  0  0  0  0
 18 19  2  0  0  0  0
 18 46  1  0  0  0  0
 19 20  1  0  0  0  0
 19 21  1  0  0  0  0
 20 47  1  0  0  0  0
 20 48  1  0  0  0  0
 20 49  1  0  0  0  0
 21 22  1  0  0  0  0
 21 23  2  0  0  0  0
 22 50  1  0  0  0  0
 22 51  1  0  0  0  0
 22 52  1  0  0  0  0
 23 24  1  0  0  0  0
 23 53  1  0  0  0  0
 25 54  1  0  0  0  0
 25 55  1  0  0  0  0
M  CHG  1   9   1
M  CHG  1  16   1
M  END
> <s_m_source_file>
AV-unprocessed.smi

> <i_m_source_file_index>
1047

> <i_lp_mmshare_version>
43012

> <i_f3d_flags>
0

> <s_epik_input>
W0NIM11bQ0gyXU4xW0NIMl1bQ0gyXU9bQ0BIXShbQ0gyXTEpW0NIMl1bTkhdW0NIMl1bQ0BIXShbT0hdKVtDSDJdbihbY0hdbjIpYyhjMjMpW2NIXWMoW0NIM10pYyhbY0hdMylbQ0gzXQ==

> <s_epik_cmdline>
J2VwaWtfcHl0aG9uJywgJy1waCcsICc3LjAnLCAnLXRuJywgJzgnLCAnLW1hJywgJzIwMCcsICctbWV0YWxfYmluZGluZycsICctaW1hZScsICc8aW5maWxlLm1hZT4nLCAnLW9tYWUnLCAnPG91dGZpbGUubWFlPic=

> <r_epik_Ionization_Penalty>
1.75732

> <r_epik_Ionization_Penalty_Charging>
1.18089

> <r_epik_Ionization_Penalty_Neutral>
0.576429

> <r_epik_State_Penalty>
1.69377

> <r_epik_Charging_Adjusted_Penalty>
2.87466

> <i_epik_Tot_Q>
2

> <i_epik_Tot_abs_Q>
2

> <r_epik_Metal_State_Penalty>
5.70174

> <b_epik_Metal_Only>
0

> <s_lp_Force_Field>
OPLS_2005

> <r_lp_Energy>
42.3107

> <b_lp_Chiralities_Consistent>
1

> <s_lp_Variant>
AV-unprocessed.smi:1047-31

> <Gold.Version>
5.8.1

> <Gold.Id.Protein>
6NUR|6NUR_protein|mol2

> <Gold.PLP.Fitness>
62.1531

> <Gold.PLP.PLP>
-51.8267

> <Gold.PLP.part.hbond>
-2.0000

> <Gold.PLP.part.metal>
0.0000

> <Gold.PLP.part.buried>
-7.3352

> <Gold.PLP.part.nonpolar>
-42.8608

> <Gold.PLP.part.repulsive>
0.4677

> <Gold.PLP.ligand.clash>
0.0000

> <Gold.PLP.ligand.torsion>
0.9600

> <Gold.PLP.Chemscore.Hbond>
4.0000

> <Gold.PLP.Chemscore.CHOScore>
0.0000

> <Gold.PLP.Chemscore.Metal>
0.0000

> <Gold.Chemscore.Hbonds>
donor molecule, donor type, donor heavy atom, donor atom, acceptor molecule, acceptor atom, score
      L1  H     9    38       P1  7948  2.00
      L1  H    16    57       P1  8028  1.98

> <Gold.PLP.Chemscore.Internal.Correction>
0.2465

> <Gold.Rescore>
     Score         DG    S(hbond)    S(metal)    S(lipo)     H(rot)  DE(clash)    DE(int)     intcor
     18.53     -19.54       1.63        0.00     132.61       2.69       0.08       0.93       ----

> <Gold.Chemscore.Fitness>
18.5282

> <Gold.Chemscore.DG>
-19.5390

> <Gold.Chemscore.ZeroCoef>
-5.4800

> <Gold.Chemscore.Hbond>
1.6269

> <Gold.Chemscore.Metal>
0.0000

> <Gold.Chemscore.Lipo>
132.6137

> <Gold.Chemscore.Internal_Hbond>
0.0000

> <Gold.Chemscore.DEClash>
0.0777

> <Gold.Chemscore.DEInternal>
0.9330

> <Gold.Chemscore.Rot>
2.6917

> <Gold.Chemscore.Internal.Correction>
   9.000000E+99

> <Gold.Chemscore.Hbonds>
donor molecule, donor type, donor heavy atom, donor atom, acceptor molecule, acceptor atom, score
      L1  H     9    38       P1  7948  0.34
      L1  H    16    57       P1  8028  0.92

> <Gold.Chemscore.Hbond.Weighted>
-5.4339

> <Gold.Chemscore.Metal.Weighted>
-0.0000

> <Gold.Chemscore.Lipo.Weighted>
-15.5158

> <Gold.Chemscore.Internal_Hbond.Weighted>
0.0000

> <Gold.Chemscore.DEClash.Weighted>
0.0777

> <Gold.Chemscore.DEInternal.Weighted>
0.9330

> <Gold.Chemscore.Rot.Weighted>
6.8907

> <Gold.Chemscore.Internal.Correction.Weighted>
   9.000000E+99

> <Gold.Protein.RotatedTorsions>
[ 6907 6896 6895 6894 ] final  -24.30 input  -60.11 | X-H torsion
[ 7974 7965 7964 7962 ] final   66.73 input  175.53 | X-H torsion
[ 8008 7997 7996 7995 ] final   12.71 input   59.86 | X-H torsion
[ 10167 10162 10161 10158 ] final    8.42 input  -65.29 | X-H torsion
[ 10718 10713 10712 10709 ] final   63.77 input   66.30 | X-H torsion
[ 10763 10752 10751 10750 ] final -178.39 input  -60.55 | X-H torsion
[ 11005 11000 10999 10996 ] final  127.15 input  -57.11 | X-H torsion

> <Gold.Protein.ActiveResidues>
 VAL166  LYS551  ARG553  GLY616  TRP617  ASP618  TYR619  PRO620  LYS621  CYS622 
 ASP623  PHE694  ASN695  SER759  ASP760  ASP761  ALA762  ILE779  LEU786  VAL792 
 PHE793  MET794  SER795  GLU796  ALA797  LYS798  CYS799  TRP800  GLU811  SER814 

> <Gold.Protein.RotatedAtoms>
  151.1915  135.0404  159.8834 H   0  0  0  0  0  0  0  0  0  0  0  0  # atno 6907 bound_to 6896
  152.5439  134.0951  159.8304 H   0  0  0  0  0  0  0  0  0  0  0  0  # atno 6908 bound_to 6896
  151.1080  133.5146  159.2639 H   0  0  0  0  0  0  0  0  0  0  0  0  # atno 6909 bound_to 6896
  145.8231  139.3096  143.1032 H   0  0  0  0  0  0  0  0  0  0  0  0  # atno 7974 bound_to 7965
  154.8244  140.2889  155.5764 H   0  0  0  0  0  0  0  0  0  0  0  0  # atno 8008 bound_to 7997
  156.3000  140.2544  156.3088 H   0  0  0  0  0  0  0  0  0  0  0  0  # atno 8009 bound_to 7997
  154.9302  140.0383  157.2033 H   0  0  0  0  0  0  0  0  0  0  0  0  # atno 8010 bound_to 7997
  140.6315  143.7983  150.7302 H   0  0  0  0  0  0  0  0  0  0  0  0  # atno 10167 bound_to 10162
  157.5994  130.9124  149.9759 H   0  0  0  0  0  0  0  0  0  0  0  0  # atno 10718 bound_to 10713
  154.5483  135.2811  155.1033 H   0  0  0  0  0  0  0  0  0  0  0  0  # atno 10763 bound_to 10752
  154.2488  135.6343  153.5237 H   0  0  0  0  0  0  0  0  0  0  0  0  # atno 10764 bound_to 10752
  152.9996  135.5578  154.6041 H   0  0  0  0  0  0  0  0  0  0  0  0  # atno 10765 bound_to 10752
  139.9493  134.9625  156.8813 H   0  0  0  0  0  0  0  0  0  0  0  0  # atno 11005 bound_to 11000
  145.9654  140.8803  143.0190 LP  0  0  0  0  0  0  0  0  0  0  0  0  # atno 17320 bound_to 7965
  144.6746  140.1870  143.7400 LP  0  0  0  0  0  0  0  0  0  0  0  0  # atno 17321 bound_to 7965
  140.1595  143.4288  152.2076 LP  0  0  0  0  0  0  0  0  0  0  0  0  # atno 17342 bound_to 10162
  139.5529  144.7351  151.4382 LP  0  0  0  0  0  0  0  0  0  0  0  0  # atno 17343 bound_to 10162
  156.1064  130.3652  150.0126 LP  0  0  0  0  0  0  0  0  0  0  0  0  # atno 17370 bound_to 10713
  156.8232  130.9366  151.3640 LP  0  0  0  0  0  0  0  0  0  0  0  0  # atno 17371 bound_to 10713
  140.5758  134.0399  155.7446 LP  0  0  0  0  0  0  0  0  0  0  0  0  # atno 17394 bound_to 11000
  141.1151  133.9553  157.2837 LP  0  0  0  0  0  0  0  0  0  0  0  0  # atno 17395 bound_to 11000

$$$$
