AV-unprocessed.smi:2471|AV-procd|sdf|9737|dock5
  -GOLD-   2272013373D 1   1.00000     0.00000
 Structure written by MMmdl.
 40 41  0  0  0  0  0  0  0  0  1 V2000
  145.5961  132.1576  149.5782 C   0  0  0  0  0  0  0  0  0  0  0  0
  145.0966  133.1860  150.5709 C   0  0  0  0  0  0  0  0  0  0  0  0
  143.7775  133.1375  151.0633 C   0  0  0  0  0  0  0  0  0  0  0  0
  143.3787  134.1194  151.9876 C   0  0  0  0  0  0  0  0  0  0  0  0
  144.3081  135.1030  152.3778 C   0  0  0  0  0  0  0  0  0  0  0  0
  145.6119  135.0826  151.8335 C   0  0  0  0  0  0  0  0  0  0  0  0
  146.4700  136.1185  152.2889 N   0  0  0  0  0  0  0  0  0  0  0  0
  146.1322  137.3295  152.7661 C   0  0  0  0  0  0  0  0  0  0  0  0
  144.9821  137.7493  152.8980 O   0  0  0  0  0  0  0  0  0  0  0  0
  147.2205  138.0426  153.0903 N   0  0  0  0  0  0  0  0  0  0  0  0
  147.2048  139.3941  153.6422 C   0  0  0  0  0  0  0  0  0  0  0  0
  148.6222  139.9404  153.9412 C   0  0  2  0  0  0  0  0  0  0  0  0
  149.5800  138.8150  154.3984 C   0  0  0  0  0  0  0  0  0  0  0  0
  150.9834  139.3471  154.7264 C   0  0  0  0  0  0  0  0  0  0  0  0
  150.9213  140.4536  155.7876 C   0  0  0  0  0  0  0  0  0  0  0  0
  149.9966  141.5913  155.3338 C   0  0  0  0  0  0  0  0  0  0  0  0
  148.5862  141.0703  155.0000 C   0  0  1  0  0  0  0  0  0  0  0  0
  147.8210  142.1622  154.5300 O   0  0  0  0  0  0  0  0  0  0  0  0
  145.9877  134.1295  150.9444 N   0  0  0  0  0  0  0  0  0  0  0  0
  144.7865  131.5125  149.2356 H   0  0  0  0  0  0  0  0  0  0  0  0
  146.3614  131.5313  150.0372 H   0  0  0  0  0  0  0  0  0  0  0  0
  146.0305  132.6487  148.7070 H   0  0  0  0  0  0  0  0  0  0  0  0
  143.0885  132.3692  150.7443 H   0  0  0  0  0  0  0  0  0  0  0  0
  142.3772  134.1190  152.3915 H   0  0  0  0  0  0  0  0  0  0  0  0
  144.0174  135.8644  153.0871 H   0  0  0  0  0  0  0  0  0  0  0  0
  147.4569  135.9118  152.2494 H   0  0  0  0  0  0  0  0  0  0  0  0
  148.1266  137.6209  152.9476 H   0  0  0  0  0  0  0  0  0  0  0  0
  146.6735  140.0503  152.9510 H   0  0  0  0  0  0  0  0  0  0  0  0
  146.6135  139.3768  154.5581 H   0  0  0  0  0  0  0  0  0  0  0  0
  149.0265  140.3624  153.0196 H   0  0  0  0  0  0  0  0  0  0  0  0
  149.1681  138.3177  155.2776 H   0  0  0  0  0  0  0  0  0  0  0  0
  149.6672  138.0509  153.6256 H   0  0  0  0  0  0  0  0  0  0  0  0
  151.6171  138.5317  155.0762 H   0  0  0  0  0  0  0  0  0  0  0  0
  151.4492  139.7338  153.8191 H   0  0  0  0  0  0  0  0  0  0  0  0
  150.5601  140.0404  156.7302 H   0  0  0  0  0  0  0  0  0  0  0  0
  151.9221  140.8407  155.9815 H   0  0  0  0  0  0  0  0  0  0  0  0
  149.9401  142.3511  156.1142 H   0  0  0  0  0  0  0  0  0  0  0  0
  150.4293  142.0785  154.4585 H   0  0  0  0  0  0  0  0  0  0  0  0
  148.1175  140.6993  155.9125 H   0  0  0  0  0  0  0  0  0  0  0  0
  148.1988  142.9607  154.8662 H   0  0  0  0  0  0  0  0  0  0  0  0
  1  2  1  0  0  0  0
  1 20  1  0  0  0  0
  1 21  1  0  0  0  0
  1 22  1  0  0  0  0
  2 19  1  0  0  0  0
  2  3  2  0  0  0  0
  3  4  1  0  0  0  0
  3 23  1  0  0  0  0
  4  5  2  0  0  0  0
  4 24  1  0  0  0  0
  5  6  1  0  0  0  0
  5 25  1  0  0  0  0
  6  7  1  0  0  0  0
  6 19  2  0  0  0  0
  7  8  1  0  0  0  0
  7 26  1  0  0  0  0
  8  9  2  0  0  0  0
  8 10  1  0  0  0  0
 10 11  1  0  0  0  0
 10 27  1  0  0  0  0
 11 12  1  0  0  0  0
 11 28  1  0  0  0  0
 11 29  1  0  0  0  0
 12 17  1  0  0  0  0
 12 13  1  0  0  0  0
 12 30  1  0  0  0  0
 13 14  1  0  0  0  0
 13 31  1  0  0  0  0
 13 32  1  0  0  0  0
 14 15  1  0  0  0  0
 14 33  1  0  0  0  0
 14 34  1  0  0  0  0
 15 16  1  0  0  0  0
 15 35  1  0  0  0  0
 15 36  1  0  0  0  0
 16 17  1  0  0  0  0
 16 37  1  0  0  0  0
 16 38  1  0  0  0  0
 17 18  1  0  0  0  0
 17 39  1  0  0  0  0
 18 40  1  0  0  0  0
M  END
> <s_m_source_file>
AV-unprocessed.smi

> <i_m_source_file_index>
2471

> <i_lp_mmshare_version>
43012

> <i_f3d_flags>
0

> <s_epik_input>
W0NIM11jMVtjSF1bY0hdW2NIXWMobjEpW05IXUMoPU8pW05IXVtDSDJdW0NAQEhdMltDSDJdW0NIMl1bQ0gyXVtDSDJdW0NASF0yW09IXQ==

> <s_epik_cmdline>
J2VwaWtfcHl0aG9uJywgJy1waCcsICc3LjAnLCAnLXRuJywgJzgnLCAnLW1hJywgJzIwMCcsICctbWV0YWxfYmluZGluZycsICctaW1hZScsICc8aW5maWxlLm1hZT4nLCAnLW9tYWUnLCAnPG91dGZpbGUubWFlPic=

> <r_lp_tautomer_probability>
1

> <r_epik_Ionization_Penalty>
8.52237e-05

> <r_epik_Ionization_Penalty_Charging>
0

> <r_epik_Ionization_Penalty_Neutral>
8.52237e-05

> <r_epik_State_Penalty>
-0

> <r_epik_Charging_Adjusted_Penalty>
0

> <i_epik_Tot_Q>
0

> <i_epik_Tot_abs_Q>
0

> <r_epik_Metal_State_Penalty>
-0

> <b_epik_Metal_Only>
0

> <s_lp_Force_Field>
OPLS_2005

> <r_lp_Energy>
13.6744

> <b_lp_Chiralities_Consistent>
1

> <s_lp_Variant>
AV-unprocessed.smi:2471-1

> <Gold.Version>
5.8.1

> <Gold.Id.Protein>
6NUR|6NUR_protein|mol2

> <Gold.PLP.Fitness>
42.0192

> <Gold.PLP.PLP>
-34.4186

> <Gold.PLP.part.hbond>
-2.9147

> <Gold.PLP.part.metal>
0.0000

> <Gold.PLP.part.buried>
-2.5639

> <Gold.PLP.part.nonpolar>
-29.7957

> <Gold.PLP.part.repulsive>
1.0378

> <Gold.PLP.ligand.clash>
0.0000

> <Gold.PLP.ligand.torsion>
0.4024

> <Gold.PLP.Chemscore.Hbond>
2.8000

> <Gold.PLP.Chemscore.CHOScore>
0.0000

> <Gold.PLP.Chemscore.Metal>
0.0000

> <Gold.Chemscore.Hbonds>
donor molecule, donor type, donor heavy atom, donor atom, acceptor molecule, acceptor atom, score
      L1  H     7    26       P1  7948  1.00
      L1  H    10    27       P1  7948  0.80
      L1  H    18    40       P1  8028  1.00

> <Gold.PLP.Chemscore.Internal.Correction>
0.0053

> <Gold.Rescore>
     Score         DG    S(hbond)    S(metal)    S(lipo)     H(rot)  DE(clash)    DE(int)     intcor
     17.90     -19.74       2.78        0.00      80.31       1.73       0.02       1.83       ----

> <Gold.Chemscore.Fitness>
17.8956

> <Gold.Chemscore.DG>
-19.7363

> <Gold.Chemscore.ZeroCoef>
-5.4800

> <Gold.Chemscore.Hbond>
2.7842

> <Gold.Chemscore.Metal>
0.0000

> <Gold.Chemscore.Lipo>
80.3058

> <Gold.Chemscore.Internal_Hbond>
0.0000

> <Gold.Chemscore.DEClash>
0.0156

> <Gold.Chemscore.DEInternal>
1.8252

> <Gold.Chemscore.Rot>
1.7339

> <Gold.Chemscore.Internal.Correction>
   9.000000E+99

> <Gold.Chemscore.Hbonds>
donor molecule, donor type, donor heavy atom, donor atom, acceptor molecule, acceptor atom, score
      L1  H     7    26       P1  7948  0.94
      L1  H    10    27       P1  7948  0.79
      L1  H    18    40       P1  8028  0.93

> <Gold.Chemscore.Hbond.Weighted>
-9.2992

> <Gold.Chemscore.Metal.Weighted>
-0.0000

> <Gold.Chemscore.Lipo.Weighted>
-9.3958

> <Gold.Chemscore.Internal_Hbond.Weighted>
0.0000

> <Gold.Chemscore.DEClash.Weighted>
0.0156

> <Gold.Chemscore.DEInternal.Weighted>
1.8252

> <Gold.Chemscore.Rot.Weighted>
4.4387

> <Gold.Chemscore.Internal.Correction.Weighted>
   9.000000E+99

> <Gold.Protein.RotatedTorsions>
[ 6907 6896 6895 6894 ] final  -41.34 input  -60.11 | X-H torsion
[ 7974 7965 7964 7962 ] final  -92.23 input  175.53 | X-H torsion
[ 8008 7997 7996 7995 ] final -136.60 input   59.86 | X-H torsion
[ 10167 10162 10161 10158 ] final -117.01 input  -65.29 | X-H torsion
[ 10718 10713 10712 10709 ] final  129.66 input   66.30 | X-H torsion
[ 10763 10752 10751 10750 ] final -139.52 input  -60.55 | X-H torsion
[ 11005 11000 10999 10996 ] final -154.52 input  -57.11 | X-H torsion

> <Gold.Protein.ActiveResidues>
 VAL166  LYS551  ARG553  GLY616  TRP617  ASP618  TYR619  PRO620  LYS621  CYS622 
 ASP623  PHE694  ASN695  SER759  ASP760  ASP761  ALA762  ILE779  LEU786  VAL792 
 PHE793  MET794  SER795  GLU796  ALA797  LYS798  CYS799  TRP800  GLU811  SER814 

> <Gold.Protein.RotatedAtoms>
  150.9679  134.9056  159.7769 H   0  0  0  0  0  0  0  0  0  0  0  0  # atno 6907 bound_to 6896
  152.5180  134.3582  159.9285 H   0  0  0  0  0  0  0  0  0  0  0  0  # atno 6908 bound_to 6896
  151.3592  133.3855  159.2722 H   0  0  0  0  0  0  0  0  0  0  0  0  # atno 6909 bound_to 6896
  145.4025  140.9538  143.2279 H   0  0  0  0  0  0  0  0  0  0  0  0  # atno 7974 bound_to 7965
  155.3978  140.0504  157.3038 H   0  0  0  0  0  0  0  0  0  0  0  0  # atno 8008 bound_to 7997
  154.5005  140.2155  155.9318 H   0  0  0  0  0  0  0  0  0  0  0  0  # atno 8009 bound_to 7997
  156.1461  140.3145  155.8577 H   0  0  0  0  0  0  0  0  0  0  0  0  # atno 8010 bound_to 7997
  140.0730  143.4859  152.1969 H   0  0  0  0  0  0  0  0  0  0  0  0  # atno 10167 bound_to 10162
  157.5134  131.1097  150.9260 H   0  0  0  0  0  0  0  0  0  0  0  0  # atno 10718 bound_to 10713
  154.8607  135.3580  154.5559 H   0  0  0  0  0  0  0  0  0  0  0  0  # atno 10763 bound_to 10752
  153.6176  135.7007  153.5327 H   0  0  0  0  0  0  0  0  0  0  0  0  # atno 10764 bound_to 10752
  153.3156  135.4166  155.1333 H   0  0  0  0  0  0  0  0  0  0  0  0  # atno 10765 bound_to 10752
  140.6965  134.3984  157.5214 H   0  0  0  0  0  0  0  0  0  0  0  0  # atno 11005 bound_to 11000
  144.8364  139.5543  143.6920 LP  0  0  0  0  0  0  0  0  0  0  0  0  # atno 17320 bound_to 7965
  146.2745  139.6717  142.9273 LP  0  0  0  0  0  0  0  0  0  0  0  0  # atno 17321 bound_to 7965
  139.5825  144.7516  151.3605 LP  0  0  0  0  0  0  0  0  0  0  0  0  # atno 17342 bound_to 10162
  140.7116  143.7375  150.7577 LP  0  0  0  0  0  0  0  0  0  0  0  0  # atno 17343 bound_to 10162
  156.9893  130.5557  149.5302 LP  0  0  0  0  0  0  0  0  0  0  0  0  # atno 17370 bound_to 10713
  156.0304  130.5395  150.8518 LP  0  0  0  0  0  0  0  0  0  0  0  0  # atno 17371 bound_to 10713
  139.8909  134.8794  156.2348 LP  0  0  0  0  0  0  0  0  0  0  0  0  # atno 17394 bound_to 11000
  141.0199  133.7047  156.1250 LP  0  0  0  0  0  0  0  0  0  0  0  0  # atno 17395 bound_to 11000

$$$$
