AV-unprocessed.smi:1720|AV-procd|sdf|6933|dock6
  -GOLD-   22720 8143D 1   1.00000     0.00000
 Structure written by MMmdl.
 32 33  0  0  0  0  0  0  0  0  1 V2000
  147.0572  128.5786  154.1245 C   0  0  0  0  0  0  0  0  0  0  0  0
  147.8663  128.5037  152.8214 C   0  0  2  0  0  0  0  0  0  0  0  0
  147.4974  129.6364  151.9735 N   0  0  0  0  0  0  0  0  0  0  0  0
  146.2478  130.0241  151.6794 C   0  0  0  0  0  0  0  0  0  0  0  0
  145.2386  129.4633  152.1064 O   0  0  0  0  0  0  0  0  0  0  0  0
  146.2499  131.0966  150.8712 N   0  0  0  0  0  0  0  0  0  0  0  0
  145.1246  131.7857  150.3525 C   0  0  0  0  0  0  0  0  0  0  0  0
  144.9496  132.1371  148.9864 C   0  0  0  0  0  0  0  0  0  0  0  0
  143.8042  132.7752  148.7939 N   0  0  0  0  0  0  0  0  0  0  0  0
  143.2452  132.8329  150.0238 N   0  0  0  0  0  0  0  0  0  0  0  0
  144.0128  132.2424  151.0033 C   0  0  0  0  0  0  0  0  0  0  0  0
  147.6350  127.1726  152.0764 C   0  0  1  0  0  0  0  0  0  0  0  0
  148.5117  126.9616  150.8393 C   0  0  0  0  0  0  0  0  0  0  0  0
  148.5224  125.4552  150.7243 C   0  0  0  0  0  0  0  0  0  0  0  0
  148.5946  125.0365  152.1890 C   0  0  0  0  0  0  0  0  0  0  0  0
  147.9384  126.0662  152.9242 O   0  0  0  0  0  0  0  0  0  0  0  0
  142.3496  133.2743  150.1774 H   0  0  0  0  0  0  0  0  0  0  0  0
  147.3371  127.7768  154.8083 H   0  0  0  0  0  0  0  0  0  0  0  0
  145.9865  128.4948  153.9343 H   0  0  0  0  0  0  0  0  0  0  0  0
  147.2316  129.5232  154.6410 H   0  0  0  0  0  0  0  0  0  0  0  0
  148.9226  128.5682  153.0890 H   0  0  0  0  0  0  0  0  0  0  0  0
  148.2599  130.1646  151.5751 H   0  0  0  0  0  0  0  0  0  0  0  0
  147.1515  131.4613  150.6010 H   0  0  0  0  0  0  0  0  0  0  0  0
  145.6026  131.9549  148.1455 H   0  0  0  0  0  0  0  0  0  0  0  0
  143.7027  132.2053  152.0370 H   0  0  0  0  0  0  0  0  0  0  0  0
  146.5871  127.0842  151.7836 H   0  0  0  0  0  0  0  0  0  0  0  0
  148.1204  127.4554  149.9494 H   0  0  0  0  0  0  0  0  0  0  0  0
  149.5242  127.3274  151.0167 H   0  0  0  0  0  0  0  0  0  0  0  0
  147.5900  125.1072  150.2772 H   0  0  0  0  0  0  0  0  0  0  0  0
  149.3527  125.0733  150.1295 H   0  0  0  0  0  0  0  0  0  0  0  0
  148.1351  124.0642  152.3667 H   0  0  0  0  0  0  0  0  0  0  0  0
  149.6326  124.9855  152.5196 H   0  0  0  0  0  0  0  0  0  0  0  0
  1  2  1  0  0  0  0
  1 18  1  0  0  0  0
  1 19  1  0  0  0  0
  1 20  1  0  0  0  0
  2  3  1  0  0  0  0
  2 12  1  0  0  0  0
  2 21  1  0  0  0  0
  3  4  1  0  0  0  0
  3 22  1  0  0  0  0
  4  5  2  0  0  0  0
  4  6  1  0  0  0  0
  6  7  1  0  0  0  0
  6 23  1  0  0  0  0
  7 11  2  0  0  0  0
  7  8  1  0  0  0  0
  8  9  2  0  0  0  0
  8 24  1  0  0  0  0
  9 10  1  0  0  0  0
 10 17  1  0  0  0  0
 10 11  1  0  0  0  0
 11 25  1  0  0  0  0
 12 16  1  0  0  0  0
 12 13  1  0  0  0  0
 12 26  1  0  0  0  0
 13 14  1  0  0  0  0
 13 27  1  0  0  0  0
 13 28  1  0  0  0  0
 14 15  1  0  0  0  0
 14 29  1  0  0  0  0
 14 30  1  0  0  0  0
 15 16  1  0  0  0  0
 15 31  1  0  0  0  0
 15 32  1  0  0  0  0
M  END
> <s_m_source_file>
AV-unprocessed.smi

> <i_m_source_file_index>
1720

> <i_lp_mmshare_version>
43012

> <i_f3d_flags>
0

> <s_epik_input>
TzFbQ0gyXVtDSDJdW0NIMl1bQ0BIXTFbQ0BIXShbQ0gzXSlbTkhdQyg9TylbTkhdYzJbY0hdbltuSF1bY0hdMg==

> <s_epik_cmdline>
J2VwaWtfcHl0aG9uJywgJy1waCcsICc3LjAnLCAnLXRuJywgJzgnLCAnLW1hJywgJzIwMCcsICctbWV0YWxfYmluZGluZycsICctaW1hZScsICc8aW5maWxlLm1hZT4nLCAnLW9tYWUnLCAnPG91dGZpbGUubWFlPic=

> <r_lp_tautomer_probability>
1

> <r_epik_Ionization_Penalty>
4.95841e-05

> <r_epik_Ionization_Penalty_Charging>
0

> <r_epik_Ionization_Penalty_Neutral>
4.95841e-05

> <r_epik_State_Penalty>
-0

> <r_epik_Charging_Adjusted_Penalty>
0

> <i_epik_Tot_Q>
0

> <i_epik_Tot_abs_Q>
0

> <r_epik_Metal_State_Penalty>
-0

> <b_epik_Metal_Only>
0

> <s_lp_Force_Field>
OPLS_2005

> <r_lp_Energy>
20.0516

> <b_lp_Chiralities_Consistent>
1

> <s_lp_Variant>
AV-unprocessed.smi:1720-3

> <Gold.Version>
5.8.1

> <Gold.Id.Protein>
6NUR|6NUR_protein|mol2

> <Gold.PLP.Fitness>
39.8205

> <Gold.PLP.PLP>
-33.4331

> <Gold.PLP.part.hbond>
-3.3992

> <Gold.PLP.part.metal>
0.0000

> <Gold.PLP.part.buried>
-6.0149

> <Gold.PLP.part.nonpolar>
-24.4764

> <Gold.PLP.part.repulsive>
0.6105

> <Gold.PLP.ligand.clash>
0.0000

> <Gold.PLP.ligand.torsion>
0.5913

> <Gold.PLP.Chemscore.Hbond>
2.5120

> <Gold.PLP.Chemscore.CHOScore>
0.0082

> <Gold.PLP.Chemscore.Metal>
0.0000

> <Gold.Chemscore.Hbonds>
donor molecule, donor type, donor heavy atom, donor atom, acceptor molecule, acceptor atom, score
      L1  H     3    22       P1 10747  1.00
      L1  H     6    23       P1 10747  0.80
      L1  H    10    17       P1 10186  0.98

> <Gold.PLP.Chemscore.Internal.Correction>
0.0095

> <Gold.Rescore>
     Score         DG    S(hbond)    S(metal)    S(lipo)     H(rot)  DE(clash)    DE(int)     intcor
     17.26     -19.41       2.58        0.00      73.96       1.31       0.21       1.94       ----

> <Gold.Chemscore.Fitness>
17.2634

> <Gold.Chemscore.DG>
-19.4149

> <Gold.Chemscore.ZeroCoef>
-5.4800

> <Gold.Chemscore.Hbond>
2.5837

> <Gold.Chemscore.Metal>
0.0000

> <Gold.Chemscore.Lipo>
73.9636

> <Gold.Chemscore.Internal_Hbond>
0.0000

> <Gold.Chemscore.DEClash>
0.2136

> <Gold.Chemscore.DEInternal>
1.9379

> <Gold.Chemscore.Rot>
1.3079

> <Gold.Chemscore.Internal.Correction>
   9.000000E+99

> <Gold.Chemscore.Hbonds>
donor molecule, donor type, donor heavy atom, donor atom, acceptor molecule, acceptor atom, score
      L1  H     3    22       P1 10747  0.87
      L1  H     6    23       P1 10747  0.79
      L1  H    10    17       P1 10186  0.93

> <Gold.Chemscore.Hbond.Weighted>
-8.6294

> <Gold.Chemscore.Metal.Weighted>
-0.0000

> <Gold.Chemscore.Lipo.Weighted>
-8.6537

> <Gold.Chemscore.Internal_Hbond.Weighted>
0.0000

> <Gold.Chemscore.DEClash.Weighted>
0.2136

> <Gold.Chemscore.DEInternal.Weighted>
1.9379

> <Gold.Chemscore.Rot.Weighted>
3.3483

> <Gold.Chemscore.Internal.Correction.Weighted>
   9.000000E+99

> <Gold.Protein.RotatedTorsions>
[ 6907 6896 6895 6894 ] final  -52.85 input  -60.11 | X-H torsion
[ 7974 7965 7964 7962 ] final -156.21 input  175.53 | X-H torsion
[ 8008 7997 7996 7995 ] final -144.88 input   59.86 | X-H torsion
[ 10167 10162 10161 10158 ] final  -16.35 input  -65.29 | X-H torsion
[ 10718 10713 10712 10709 ] final   58.51 input   66.30 | X-H torsion
[ 10763 10752 10751 10750 ] final  161.86 input  -60.55 | X-H torsion
[ 11005 11000 10999 10996 ] final  130.96 input  -57.11 | X-H torsion

> <Gold.Protein.ActiveResidues>
 VAL166  LYS551  ARG553  GLY616  TRP617  ASP618  TYR619  PRO620  LYS621  CYS622 
 ASP623  PHE694  ASN695  SER759  ASP760  ASP761  ALA762  ILE779  LEU786  VAL792 
 PHE793  MET794  SER795  GLU796  ALA797  LYS798  CYS799  TRP800  GLU811  SER814 

> <Gold.Protein.RotatedAtoms>
  150.8480  134.7795  159.6985 H   0  0  0  0  0  0  0  0  0  0  0  0  # atno 6907 bound_to 6896
  152.4552  134.5304  159.9819 H   0  0  0  0  0  0  0  0  0  0  0  0  # atno 6908 bound_to 6896
  151.5431  133.3391  159.2975 H   0  0  0  0  0  0  0  0  0  0  0  0  # atno 6909 bound_to 6896
  144.7603  140.4141  143.5981 H   0  0  0  0  0  0  0  0  0  0  0  0  # atno 7974 bound_to 7965
  155.5342  140.0602  157.2883 H   0  0  0  0  0  0  0  0  0  0  0  0  # atno 8008 bound_to 7997
  154.4474  140.1930  156.0569 H   0  0  0  0  0  0  0  0  0  0  0  0  # atno 8009 bound_to 7997
  156.0631  140.3270  155.7489 H   0  0  0  0  0  0  0  0  0  0  0  0  # atno 8010 bound_to 7997
  140.7232  143.5125  150.9732 H   0  0  0  0  0  0  0  0  0  0  0  0  # atno 10167 bound_to 10162
  157.5602  130.8830  149.9099 H   0  0  0  0  0  0  0  0  0  0  0  0  # atno 10718 bound_to 10713
  154.2695  135.2766  155.2744 H   0  0  0  0  0  0  0  0  0  0  0  0  # atno 10763 bound_to 10752
  154.5314  135.5728  153.6765 H   0  0  0  0  0  0  0  0  0  0  0  0  # atno 10764 bound_to 10752
  152.9947  135.6228  154.2849 H   0  0  0  0  0  0  0  0  0  0  0  0  # atno 10765 bound_to 10752
  139.9702  134.9579  156.9370 H   0  0  0  0  0  0  0  0  0  0  0  0  # atno 11005 bound_to 11000
  145.6640  139.1586  143.2792 LP  0  0  0  0  0  0  0  0  0  0  0  0  # atno 17320 bound_to 7965
  146.1660  140.6718  142.9255 LP  0  0  0  0  0  0  0  0  0  0  0  0  # atno 17321 bound_to 7965
  139.8839  143.7037  152.3153 LP  0  0  0  0  0  0  0  0  0  0  0  0  # atno 17342 bound_to 10162
  139.7329  144.7578  151.0773 LP  0  0  0  0  0  0  0  0  0  0  0  0  # atno 17343 bound_to 10162
  156.0656  130.3693  150.0886 LP  0  0  0  0  0  0  0  0  0  0  0  0  # atno 17370 bound_to 10713
  156.9051  130.9633  151.3571 LP  0  0  0  0  0  0  0  0  0  0  0  0  # atno 17371 bound_to 10713
  140.5309  134.0814  155.7315 LP  0  0  0  0  0  0  0  0  0  0  0  0  # atno 17394 bound_to 11000
  141.1382  133.9184  157.2386 LP  0  0  0  0  0  0  0  0  0  0  0  0  # atno 17395 bound_to 11000

$$$$
