AV-unprocessed.smi:2358|AV-procd|sdf|9405|dock8
  -GOLD-   2272013 43D 1   1.00000     0.00000
 Structure written by MMmdl.
 46 48  0  0  0  0  0  0  0  0  2 V2000
  151.2733  145.1366  158.9485 C   0  0  0  0  0  0  0  0  0  0  0  0
  151.8278  144.0449  159.8405 C   0  0  0  0  0  0  0  0  0  0  0  0
  152.0920  144.3028  161.2003 C   0  0  0  0  0  0  0  0  0  0  0  0
  152.6027  143.2828  162.0261 C   0  0  0  0  0  0  0  0  0  0  0  0
  152.8848  143.5669  163.4869 C   0  0  0  0  0  0  0  0  0  0  0  0
  152.8488  142.0036  161.4869 C   0  0  0  0  0  0  0  0  0  0  0  0
  152.5905  141.7288  160.1283 C   0  0  0  0  0  0  0  0  0  0  0  0
  152.8599  140.4508  159.6876 O   0  0  0  0  0  0  0  0  0  0  0  0
  152.5145  140.1115  158.3512 C   0  0  0  0  0  0  0  0  0  0  0  0
  152.6366  138.5885  158.1772 C   0  0  2  0  0  0  0  0  0  0  0  0
  154.0153  138.2862  158.0789 O   0  0  0  0  0  0  0  0  0  0  0  0
  151.9529  138.1002  156.8808 C   0  0  0  0  0  0  0  0  0  0  0  0
  150.4896  138.1167  156.9945 N   0  0  0  0  0  0  0  0  0  0  0  0
  149.8555  138.7983  155.9712 N   0  0  0  0  0  0  0  0  0  0  0  0
  148.5645  138.8794  155.9274 C   0  0  0  0  0  0  0  0  0  0  0  0
  147.8494  139.5704  154.8677 N   0  0  0  0  0  0  0  0  0  0  0  0
  148.3279  140.2729  153.7876 C   0  0  0  0  0  0  0  0  0  0  0  0
  147.2261  140.7246  153.1067 C   0  0  0  0  0  0  0  0  0  0  0  0
  146.1284  140.2808  153.7964 N   0  3  0  0  0  0  0  0  0  0  0  0
  146.5066  139.5776  154.8693 C   0  0  0  0  0  0  0  0  0  0  0  0
  147.7648  138.2578  156.9716 C   0  0  0  0  0  0  0  0  0  0  0  0
  148.3931  137.5924  157.9649 C   0  0  0  0  0  0  0  0  0  0  0  0
  149.8496  137.4809  158.0200 C   0  0  0  0  0  0  0  0  0  0  0  0
  150.4457  136.8670  158.9042 O   0  0  0  0  0  0  0  0  0  0  0  0
  152.0758  142.7637  159.3071 C   0  0  0  0  0  0  0  0  0  0  0  0
  151.2988  146.1072  159.4449 H   0  0  0  0  0  0  0  0  0  0  0  0
  150.2394  144.9152  158.6830 H   0  0  0  0  0  0  0  0  0  0  0  0
  151.8558  145.2100  158.0298 H   0  0  0  0  0  0  0  0  0  0  0  0
  151.9029  145.2833  161.6128 H   0  0  0  0  0  0  0  0  0  0  0  0
  153.1705  142.6604  164.0216 H   0  0  0  0  0  0  0  0  0  0  0  0
  151.9997  143.9810  163.9702 H   0  0  0  0  0  0  0  0  0  0  0  0
  153.6969  144.2884  163.5802 H   0  0  0  0  0  0  0  0  0  0  0  0
  153.2406  141.2200  162.1191 H   0  0  0  0  0  0  0  0  0  0  0  0
  151.4793  140.4126  158.1811 H   0  0  0  0  0  0  0  0  0  0  0  0
  153.1388  140.6385  157.6270 H   0  0  0  0  0  0  0  0  0  0  0  0
  152.2057  138.0885  159.0459 H   0  0  0  0  0  0  0  0  0  0  0  0
  154.2681  137.7892  158.8418 H   0  0  0  0  0  0  0  0  0  0  0  0
  152.2433  138.7373  156.0434 H   0  0  0  0  0  0  0  0  0  0  0  0
  152.3119  137.1057  156.6079 H   0  0  0  0  0  0  0  0  0  0  0  0
  149.3781  140.4054  153.5750 H   0  0  0  0  0  0  0  0  0  0  0  0
  147.1438  141.3146  152.2053 H   0  0  0  0  0  0  0  0  0  0  0  0
  145.8477  139.1169  155.5847 H   0  0  0  0  0  0  0  0  0  0  0  0
  146.6878  138.3145  156.9677 H   0  0  0  0  0  0  0  0  0  0  0  0
  147.8042  137.1265  158.7413 H   0  0  0  0  0  0  0  0  0  0  0  0
  151.8612  142.5972  158.2624 H   0  0  0  0  0  0  0  0  0  0  0  0
  145.1668  140.4589  153.5342 H   0  0  0  0  0  0  0  0  0  0  0  0
  1  2  1  0  0  0  0
  1 26  1  0  0  0  0
  1 27  1  0  0  0  0
  1 28  1  0  0  0  0
  2 25  1  0  0  0  0
  2  3  2  0  0  0  0
  3  4  1  0  0  0  0
  3 29  1  0  0  0  0
  4  5  1  0  0  0  0
  4  6  2  0  0  0  0
  5 30  1  0  0  0  0
  5 31  1  0  0  0  0
  5 32  1  0  0  0  0
  6  7  1  0  0  0  0
  6 33  1  0  0  0  0
  7  8  1  0  0  0  0
  7 25  2  0  0  0  0
  8  9  1  0  0  0  0
  9 10  1  0  0  0  0
  9 34  1  0  0  0  0
  9 35  1  0  0  0  0
 10 11  1  0  0  0  0
 10 12  1  0  0  0  0
 10 36  1  0  0  0  0
 11 37  1  0  0  0  0
 12 13  1  0  0  0  0
 12 38  1  0  0  0  0
 12 39  1  0  0  0  0
 13 23  1  0  0  0  0
 13 14  1  0  0  0  0
 14 15  2  0  0  0  0
 15 16  1  0  0  0  0
 15 21  1  0  0  0  0
 16 20  1  0  0  0  0
 16 17  1  0  0  0  0
 17 18  2  0  0  0  0
 17 40  1  0  0  0  0
 18 19  1  0  0  0  0
 18 41  1  0  0  0  0
 19 20  2  0  0  0  0
 19 46  1  0  0  0  0
 20 42  1  0  0  0  0
 21 22  2  0  0  0  0
 21 43  1  0  0  0  0
 22 23  1  0  0  0  0
 22 44  1  0  0  0  0
 23 24  2  0  0  0  0
 25 45  1  0  0  0  0
M  CHG  1  19   1
M  END
> <s_m_source_file>
AV-unprocessed.smi

> <i_m_source_file_index>
2358

> <i_lp_mmshare_version>
43012

> <i_f3d_flags>
0

> <s_epik_input>
W0NIM11jMVtjSF1jKFtDSDNdKVtjSF1jKFtjSF0xKU9bQ0gyXVtDQEhdKFtPSF0pW0NIMl1uMm5jKFtjSF1bY0hdYzI9TyktbjNbY0hdW2NIXW5bY0hdMw==

> <s_epik_cmdline>
J2VwaWtfcHl0aG9uJywgJy1waCcsICc3LjAnLCAnLXRuJywgJzgnLCAnLW1hJywgJzIwMCcsICctbWV0YWxfYmluZGluZycsICctaW1hZScsICc8aW5maWxlLm1hZT4nLCAnLW9tYWUnLCAnPG91dGZpbGUubWFlPic=

> <r_lp_tautomer_probability>
1

> <r_epik_Ionization_Penalty>
1.66053

> <r_epik_Ionization_Penalty_Charging>
2.42216e-09

> <r_epik_Ionization_Penalty_Neutral>
1.66053

> <r_epik_State_Penalty>
1.76336

> <r_epik_Charging_Adjusted_Penalty>
1.76336

> <i_epik_Tot_Q>
1

> <i_epik_Tot_abs_Q>
1

> <r_epik_Metal_State_Penalty>
1.79856

> <b_epik_Metal_Only>
0

> <s_lp_Force_Field>
OPLS_2005

> <r_lp_Energy>
37.8442

> <b_lp_Chiralities_Consistent>
1

> <s_lp_Variant>
AV-unprocessed.smi:2358-3

> <Gold.Version>
5.8.1

> <Gold.Id.Protein>
6NUR|6NUR_protein|mol2

> <Gold.PLP.Fitness>
56.8266

> <Gold.PLP.PLP>
-43.6195

> <Gold.PLP.part.hbond>
-3.0000

> <Gold.PLP.part.metal>
0.0000

> <Gold.PLP.part.buried>
-4.5473

> <Gold.PLP.part.nonpolar>
-35.4092

> <Gold.PLP.part.repulsive>
0.0000

> <Gold.PLP.ligand.clash>
0.0000

> <Gold.PLP.ligand.torsion>
0.2973

> <Gold.PLP.Chemscore.Hbond>
3.9833

> <Gold.PLP.Chemscore.CHOScore>
0.6008

> <Gold.PLP.Chemscore.Metal>
0.0000

> <Gold.Chemscore.Hbonds>
donor molecule, donor type, donor heavy atom, donor atom, acceptor molecule, acceptor atom, score
      L1  H    19    46       P1 10175  2.00
      P1  H  6896  6907       L1    24  0.71
      P1  H  7997  8010       L1    11  0.86
      L1  C    17    40       P1  7957  0.51

> <Gold.PLP.Chemscore.Internal.Correction>
0.0497

> <Gold.Rescore>
     Score         DG    S(hbond)    S(metal)    S(lipo)     H(rot)  DE(clash)    DE(int)     intcor
     19.57     -21.40       2.52        0.00     122.26       2.65       0.30       1.52       ----

> <Gold.Chemscore.Fitness>
19.5747

> <Gold.Chemscore.DG>
-21.4016

> <Gold.Chemscore.ZeroCoef>
-5.4800

> <Gold.Chemscore.Hbond>
2.5183

> <Gold.Chemscore.Metal>
0.0000

> <Gold.Chemscore.Lipo>
122.2572

> <Gold.Chemscore.Internal_Hbond>
0.0000

> <Gold.Chemscore.DEClash>
0.3024

> <Gold.Chemscore.DEInternal>
1.5245

> <Gold.Chemscore.Rot>
2.6537

> <Gold.Chemscore.Internal.Correction>
   9.000000E+99

> <Gold.Chemscore.Hbonds>
donor molecule, donor type, donor heavy atom, donor atom, acceptor molecule, acceptor atom, score
      L1  H    19    46       P1 10175  0.98
      P1  H  6896  6907       L1    24  0.70
      P1  H  7997  8010       L1    11  0.21

> <Gold.Chemscore.Hbond.Weighted>
-8.4110

> <Gold.Chemscore.Metal.Weighted>
-0.0000

> <Gold.Chemscore.Lipo.Weighted>
-14.3041

> <Gold.Chemscore.Internal_Hbond.Weighted>
0.0000

> <Gold.Chemscore.DEClash.Weighted>
0.3024

> <Gold.Chemscore.DEInternal.Weighted>
1.5245

> <Gold.Chemscore.Rot.Weighted>
6.7935

> <Gold.Chemscore.Internal.Correction.Weighted>
   9.000000E+99

> <Gold.Protein.RotatedTorsions>
[ 6907 6896 6895 6894 ] final  -20.68 input  -60.11 | X-H torsion
[ 7974 7965 7964 7962 ] final   38.80 input  175.53 | X-H torsion
[ 8008 7997 7996 7995 ] final   27.33 input   59.86 | X-H torsion
[ 10167 10162 10161 10158 ] final  163.97 input  -65.29 | X-H torsion
[ 10718 10713 10712 10709 ] final  -33.17 input   66.30 | X-H torsion
[ 10763 10752 10751 10750 ] final  -76.13 input  -60.55 | X-H torsion
[ 11005 11000 10999 10996 ] final -162.33 input  -57.11 | X-H torsion

> <Gold.Protein.ActiveResidues>
 VAL166  LYS551  ARG553  GLY616  TRP617  ASP618  TYR619  PRO620  LYS621  CYS622 
 ASP623  PHE694  ASN695  SER759  ASP760  ASP761  ALA762  ILE779  LEU786  VAL792 
 PHE793  MET794  SER795  GLU796  ALA797  LYS798  CYS799  TRP800  GLU811  SER814 

> <Gold.Protein.RotatedAtoms>
  151.2445  135.0600  159.9037 H   0  0  0  0  0  0  0  0  0  0  0  0  # atno 6907 bound_to 6896
  152.5388  134.0398  159.8073 H   0  0  0  0  0  0  0  0  0  0  0  0  # atno 6908 bound_to 6896
  151.0597  133.5505  159.2666 H   0  0  0  0  0  0  0  0  0  0  0  0  # atno 6909 bound_to 6896
  146.1033  139.5728  142.9400 H   0  0  0  0  0  0  0  0  0  0  0  0  # atno 7974 bound_to 7965
  155.0413  140.3169  155.4723 H   0  0  0  0  0  0  0  0  0  0  0  0  # atno 8008 bound_to 7997
  156.2854  140.2162  156.5480 H   0  0  0  0  0  0  0  0  0  0  0  0  # atno 8009 bound_to 7997
  154.7287  140.0483  157.0695 H   0  0  0  0  0  0  0  0  0  0  0  0  # atno 8010 bound_to 7997
  139.4881  144.4283  151.9102 H   0  0  0  0  0  0  0  0  0  0  0  0  # atno 10167 bound_to 10162
  156.3659  130.4331  149.7585 H   0  0  0  0  0  0  0  0  0  0  0  0  # atno 10718 bound_to 10713
  154.4958  135.5808  153.6493 H   0  0  0  0  0  0  0  0  0  0  0  0  # atno 10763 bound_to 10752
  152.9870  135.6124  154.3066 H   0  0  0  0  0  0  0  0  0  0  0  0  # atno 10764 bound_to 10752
  154.2969  135.2847  155.2608 H   0  0  0  0  0  0  0  0  0  0  0  0  # atno 10765 bound_to 10752
  140.6105  134.4854  157.5215 H   0  0  0  0  0  0  0  0  0  0  0  0  # atno 11005 bound_to 11000
  145.5810  141.0382  143.2122 LP  0  0  0  0  0  0  0  0  0  0  0  0  # atno 17320 bound_to 7965
  144.7451  139.7343  143.7295 LP  0  0  0  0  0  0  0  0  0  0  0  0  # atno 17321 bound_to 7965
  140.3730  144.2832  150.5917 LP  0  0  0  0  0  0  0  0  0  0  0  0  # atno 17342 bound_to 10162
  140.5302  143.2245  151.8251 LP  0  0  0  0  0  0  0  0  0  0  0  0  # atno 17343 bound_to 10162
  156.4731  130.8006  151.3023 LP  0  0  0  0  0  0  0  0  0  0  0  0  # atno 17370 bound_to 10713
  157.7479  131.0029  150.3019 LP  0  0  0  0  0  0  0  0  0  0  0  0  # atno 17371 bound_to 10713
  139.9194  134.8179  156.1259 LP  0  0  0  0  0  0  0  0  0  0  0  0  # atno 17394 bound_to 11000
  141.0811  133.6754  156.2339 LP  0  0  0  0  0  0  0  0  0  0  0  0  # atno 17395 bound_to 11000

$$$$
