AV-unprocessed.smi:2243|AV-procd|sdf|9071|dock2
  -GOLD-   2272012273D 1   1.00000     0.00000
 Structure written by MMmdl.
 33 34  0  0  0  0  0  0  0  0  2 V2000
  149.5909  140.8028  156.8646 C   0  0  0  0  0  0  0  0  0  0  0  0
  149.7487  142.2615  157.3273 C   0  0  1  0  0  0  0  0  0  0  0  0
  148.8010  142.4877  158.4208 N   0  0  0  0  0  0  0  0  0  0  0  0
  147.4794  142.2532  158.4059 C   0  0  0  0  0  0  0  0  0  0  0  0
  146.9388  141.8167  157.3872 O   0  0  0  0  0  0  0  0  0  0  0  0
  146.8642  142.5476  159.5734 N   0  5  0  0  0  0  0  0  0  0  0  0
  147.0567  143.7468  160.1463 C   0  0  0  0  0  0  0  0  0  0  0  0
  146.2353  144.7961  160.0811 N   0  0  0  0  0  0  0  0  0  0  0  0
  146.8426  145.7992  160.8206 C   0  0  0  0  0  0  0  0  0  0  0  0
  148.0179  145.3034  161.3151 C   0  0  0  0  0  0  0  0  0  0  0  0
  148.1619  144.0084  160.9004 O   0  0  0  0  0  0  0  0  0  0  0  0
  151.1956  142.6100  157.7711 C   0  0  0  0  0  0  0  0  0  0  0  0
  151.6290  141.8547  159.0458 C   0  0  0  0  0  0  0  0  0  0  0  0
  153.0373  142.2754  159.4945 C   0  0  0  0  0  0  0  0  0  0  0  0
  153.0808  143.6806  159.7104 O   0  0  0  0  0  0  0  0  0  0  0  0
  152.8116  144.4233  158.5281 C   0  0  0  0  0  0  0  0  0  0  0  0
  151.3914  144.1192  158.0232 C   0  0  0  0  0  0  0  0  0  0  0  0
  150.1630  140.6000  155.9599 H   0  0  0  0  0  0  0  0  0  0  0  0
  148.5486  140.5780  156.6354 H   0  0  0  0  0  0  0  0  0  0  0  0
  149.9186  140.1038  157.6348 H   0  0  0  0  0  0  0  0  0  0  0  0
  149.4911  142.8964  156.4780 H   0  0  0  0  0  0  0  0  0  0  0  0
  149.1877  142.8482  159.2807 H   0  0  0  0  0  0  0  0  0  0  0  0
  146.3950  146.7752  160.9358 H   0  0  0  0  0  0  0  0  0  0  0  0
  148.8060  145.7081  161.9318 H   0  0  0  0  0  0  0  0  0  0  0  0
  151.8728  142.3160  156.9674 H   0  0  0  0  0  0  0  0  0  0  0  0
  150.9188  142.0506  159.8503 H   0  0  0  0  0  0  0  0  0  0  0  0
  151.6215  140.7774  158.8804 H   0  0  0  0  0  0  0  0  0  0  0  0
  153.3004  141.7692  160.4234 H   0  0  0  0  0  0  0  0  0  0  0  0
  153.7839  141.9862  158.7533 H   0  0  0  0  0  0  0  0  0  0  0  0
  152.9086  145.4856  158.7523 H   0  0  0  0  0  0  0  0  0  0  0  0
  153.5539  144.1919  157.7626 H   0  0  0  0  0  0  0  0  0  0  0  0
  151.2166  144.6899  157.1118 H   0  0  0  0  0  0  0  0  0  0  0  0
  150.6639  144.4691  158.7567 H   0  0  0  0  0  0  0  0  0  0  0  0
  1  2  1  0  0  0  0
  1 18  1  0  0  0  0
  1 19  1  0  0  0  0
  1 20  1  0  0  0  0
  2  3  1  0  0  0  0
  2 12  1  0  0  0  0
  2 21  1  0  0  0  0
  3 22  1  0  0  0  0
  3  4  1  0  0  0  0
  4  6  1  0  0  0  0
  4  5  2  0  0  0  0
  6  7  1  0  0  0  0
  7 11  1  0  0  0  0
  7  8  2  0  0  0  0
  8  9  1  0  0  0  0
  9 23  1  0  0  0  0
  9 10  2  0  0  0  0
 10 24  1  0  0  0  0
 10 11  1  0  0  0  0
 12 17  1  0  0  0  0
 12 13  1  0  0  0  0
 12 25  1  0  0  0  0
 13 14  1  0  0  0  0
 13 26  1  0  0  0  0
 13 27  1  0  0  0  0
 14 15  1  0  0  0  0
 14 28  1  0  0  0  0
 14 29  1  0  0  0  0
 15 16  1  0  0  0  0
 16 17  1  0  0  0  0
 16 30  1  0  0  0  0
 16 31  1  0  0  0  0
 17 32  1  0  0  0  0
 17 33  1  0  0  0  0
M  CHG  1   6  -1
M  END
> <s_m_source_file>
AV-unprocessed.smi

> <i_m_source_file_index>
2243

> <i_lp_mmshare_version>
43012

> <i_f3d_flags>
0

> <s_epik_input>
W0NIMl0xW0NIMl1PW0NIMl1bQ0gyXVtDSF0xW0NASF0oW0NIM10pW05IXUMoPU8pW05IXWMybltjSF1bY0hdbzI=

> <s_epik_cmdline>
J2VwaWtfcHl0aG9uJywgJy1waCcsICc3LjAnLCAnLXRuJywgJzgnLCAnLW1hJywgJzIwMCcsICctbWV0YWxfYmluZGluZycsICctaW1hZScsICc8aW5maWxlLm1hZT4nLCAnLW9tYWUnLCAnPG91dGZpbGUubWFlPic=

> <r_lp_tautomer_probability>
0.107061

> <r_epik_Ionization_Penalty>
11.1403

> <r_epik_Ionization_Penalty_Charging>
7.81312

> <r_epik_Ionization_Penalty_Neutral>
3.32719

> <r_epik_State_Penalty>
5.94317

> <r_epik_Charging_Adjusted_Penalty>
13.7563

> <i_epik_Tot_Q>
-1

> <i_epik_Tot_abs_Q>
1

> <r_epik_Metal_State_Penalty>
1.86619

> <b_epik_Metal_Only>
1

> <s_lp_Force_Field>
OPLS_2005

> <r_lp_Energy>
6.4903

> <b_lp_Chiralities_Consistent>
1

> <s_lp_Variant>
AV-unprocessed.smi:2243-10

> <Gold.Version>
5.8.1

> <Gold.Id.Protein>
6NUR|6NUR_protein|mol2

> <Gold.PLP.Fitness>
37.2420

> <Gold.PLP.PLP>
-31.2255

> <Gold.PLP.part.hbond>
-2.2433

> <Gold.PLP.part.metal>
0.0000

> <Gold.PLP.part.buried>
-5.1669

> <Gold.PLP.part.nonpolar>
-25.5092

> <Gold.PLP.part.repulsive>
0.5585

> <Gold.PLP.ligand.clash>
0.0000

> <Gold.PLP.ligand.torsion>
1.2619

> <Gold.PLP.Chemscore.Hbond>
2.8398

> <Gold.PLP.Chemscore.CHOScore>
0.0000

> <Gold.PLP.Chemscore.Metal>
0.0000

> <Gold.Chemscore.Hbonds>
donor molecule, donor type, donor heavy atom, donor atom, acceptor molecule, acceptor atom, score
      P1  H  6933  6944       L1    11  0.95
      P1  H  6934  6946       L1     6  1.84

> <Gold.PLP.Chemscore.Internal.Correction>
0.0210

> <Gold.Rescore>
     Score         DG    S(hbond)    S(metal)    S(lipo)     H(rot)  DE(clash)    DE(int)     intcor
     13.01     -15.58       1.41        0.00      74.68       1.31       0.01       2.57       ----

> <Gold.Chemscore.Fitness>
13.0081

> <Gold.Chemscore.DG>
-15.5815

> <Gold.Chemscore.ZeroCoef>
-5.4800

> <Gold.Chemscore.Hbond>
1.4098

> <Gold.Chemscore.Metal>
0.0000

> <Gold.Chemscore.Lipo>
74.6769

> <Gold.Chemscore.Internal_Hbond>
0.0000

> <Gold.Chemscore.DEClash>
0.0073

> <Gold.Chemscore.DEInternal>
2.5661

> <Gold.Chemscore.Rot>
1.3063

> <Gold.Chemscore.Internal.Correction>
   9.000000E+99

> <Gold.Chemscore.Hbonds>
donor molecule, donor type, donor heavy atom, donor atom, acceptor molecule, acceptor atom, score
      P1  H  6933  6944       L1    11  0.21
      P1  H  6934  6946       L1     6  0.49

> <Gold.Chemscore.Hbond.Weighted>
-4.7086

> <Gold.Chemscore.Metal.Weighted>
-0.0000

> <Gold.Chemscore.Lipo.Weighted>
-8.7372

> <Gold.Chemscore.Internal_Hbond.Weighted>
0.0000

> <Gold.Chemscore.DEClash.Weighted>
0.0073

> <Gold.Chemscore.DEInternal.Weighted>
2.5661

> <Gold.Chemscore.Rot.Weighted>
3.3443

> <Gold.Chemscore.Internal.Correction.Weighted>
   9.000000E+99

> <Gold.Protein.RotatedTorsions>
[ 6907 6896 6895 6894 ] final  140.51 input  -60.11 | X-H torsion
[ 7974 7965 7964 7962 ] final  -23.44 input  175.53 | X-H torsion
[ 8008 7997 7996 7995 ] final  -18.66 input   59.86 | X-H torsion
[ 10167 10162 10161 10158 ] final  -94.51 input  -65.29 | X-H torsion
[ 10718 10713 10712 10709 ] final   60.29 input   66.30 | X-H torsion
[ 10763 10752 10751 10750 ] final -103.08 input  -60.55 | X-H torsion
[ 11005 11000 10999 10996 ] final  -22.90 input  -57.11 | X-H torsion

> <Gold.Protein.ActiveResidues>
 VAL166  LYS551  ARG553  GLY616  TRP617  ASP618  TYR619  PRO620  LYS621  CYS622 
 ASP623  PHE694  ASN695  SER759  ASP760  ASP761  ALA762  ILE779  LEU786  VAL792 
 PHE793  MET794  SER795  GLU796  ALA797  LYS798  CYS799  TRP800  GLU811  SER814 

> <Gold.Protein.RotatedAtoms>
  152.2422  133.5144  159.5276 H   0  0  0  0  0  0  0  0  0  0  0  0  # atno 6907 bound_to 6896
  150.7068  134.1074  159.3996 H   0  0  0  0  0  0  0  0  0  0  0  0  # atno 6908 bound_to 6896
  151.8995  135.0384  160.0556 H   0  0  0  0  0  0  0  0  0  0  0  0  # atno 6909 bound_to 6896
  146.1616  140.4616  142.8569 H   0  0  0  0  0  0  0  0  0  0  0  0  # atno 7974 bound_to 7965
  154.4891  140.2110  155.9589 H   0  0  0  0  0  0  0  0  0  0  0  0  # atno 8008 bound_to 7997
  156.1279  140.3202  155.8273 H   0  0  0  0  0  0  0  0  0  0  0  0  # atno 8009 bound_to 7997
  155.4350  140.0506  157.3006 H   0  0  0  0  0  0  0  0  0  0  0  0  # atno 8010 bound_to 7997
  140.3137  143.3090  152.0121 H   0  0  0  0  0  0  0  0  0  0  0  0  # atno 10167 bound_to 10162
  157.5741  130.8930  149.9317 H   0  0  0  0  0  0  0  0  0  0  0  0  # atno 10718 bound_to 10713
  154.7782  135.4836  153.9788 H   0  0  0  0  0  0  0  0  0  0  0  0  # atno 10763 bound_to 10752
  153.1457  135.6781  153.8966 H   0  0  0  0  0  0  0  0  0  0  0  0  # atno 10764 bound_to 10752
  153.8626  135.3153  155.3417 H   0  0  0  0  0  0  0  0  0  0  0  0  # atno 10765 bound_to 10752
  140.8701  133.7726  156.0176 H   0  0  0  0  0  0  0  0  0  0  0  0  # atno 11005 bound_to 11000
  144.8035  140.6256  143.6462 LP  0  0  0  0  0  0  0  0  0  0  0  0  # atno 17320 bound_to 7965
  145.4574  139.1516  143.3885 LP  0  0  0  0  0  0  0  0  0  0  0  0  # atno 17321 bound_to 7965
  139.4888  144.6365  151.6965 LP  0  0  0  0  0  0  0  0  0  0  0  0  # atno 17342 bound_to 10162
  140.5546  144.0370  150.6142 LP  0  0  0  0  0  0  0  0  0  0  0  0  # atno 17343 bound_to 10162
  156.0786  130.3676  150.0626 LP  0  0  0  0  0  0  0  0  0  0  0  0  # atno 17370 bound_to 10713
  156.8775  130.9545  151.3603 LP  0  0  0  0  0  0  0  0  0  0  0  0  # atno 17371 bound_to 10713
  140.8583  134.2871  157.5246 LP  0  0  0  0  0  0  0  0  0  0  0  0  # atno 17394 bound_to 11000
  139.8711  134.9504  156.4056 LP  0  0  0  0  0  0  0  0  0  0  0  0  # atno 17395 bound_to 11000

$$$$
