AV-unprocessed.smi:236|AV-procd|sdf|1810|dock8
  -GOLD-   2262020393D 1   1.00000     0.00000
 Structure written by MMmdl.
 58 62  0  0  0  0  0  0  0  0  1 V2000
  150.8034  144.9247  158.8512 C   0  0  0  0  0  0  0  0  0  0  0  0
  151.5778  143.8758  158.0369 C   0  0  1  0  0  0  0  0  0  0  0  0
  152.8029  143.5911  158.7054 O   0  0  0  0  0  0  0  0  0  0  0  0
  153.1798  142.2594  158.4052 C   0  0  0  0  0  0  0  0  0  0  0  0
  151.8513  141.5255  158.4844 C   0  0  0  0  0  0  0  0  0  0  0  0
  150.8798  142.5036  157.8210 C   0  0  1  0  0  0  0  0  0  0  0  0
  149.6330  142.4136  158.4908 O   0  0  0  0  0  0  0  0  0  0  0  0
  150.6475  142.2299  156.3115 C   0  0  0  0  0  0  0  0  0  0  0  0
  150.3667  140.8383  155.9899 N   0  0  0  0  0  0  0  0  0  0  0  0
  149.2780  140.0990  156.3956 C   0  0  0  0  0  0  0  0  0  0  0  0
  149.2540  138.8645  155.9726 N   0  0  0  0  0  0  0  0  0  0  0  0
  150.4038  138.7484  155.2007 C   0  0  0  0  0  0  0  0  0  0  0  0
  150.9986  137.6951  154.4496 C   0  0  0  0  0  0  0  0  0  0  0  0
  150.4976  136.4475  154.3367 N   0  0  0  0  0  0  0  0  0  0  0  0
  151.4203  135.4125  154.7824 C   0  0  0  0  0  0  0  0  0  0  0  0
  150.8388  134.0255  154.4661 C   0  0  0  0  0  0  0  0  0  0  0  0
  149.5460  133.9096  155.0530 O   0  0  0  0  0  0  0  0  0  0  0  0
  148.6249  134.8702  154.5385 C   0  0  1  0  0  0  0  0  0  0  0  0
  147.2546  134.6076  155.1757 C   0  0  0  0  0  0  0  0  0  0  0  0
  146.2616  135.2954  154.4332 O   0  0  0  0  0  0  0  0  0  0  0  0
  145.0859  134.5266  154.2493 C   0  0  0  0  0  0  0  0  0  0  0  0
  144.3642  135.0181  153.0126 C   0  0  0  0  0  0  0  0  0  0  0  0
  144.2020  134.1228  151.8048 C   0  0  0  0  0  0  0  0  0  0  0  0
  145.1348  135.3051  151.7439 C   0  0  0  0  0  0  0  0  0  0  0  0
  149.1534  136.2784  154.8744 C   0  0  0  0  0  0  0  0  0  0  0  0
  152.1659  137.9495  153.8095 N   0  0  0  0  0  0  0  0  0  0  0  0
  152.7197  139.1634  153.8880 C   0  0  0  0  0  0  0  0  0  0  0  0
  152.2825  140.2401  154.5451 N   0  0  0  0  0  0  0  0  0  0  0  0
  151.1117  139.9830  155.1966 C   0  0  0  0  0  0  0  0  0  0  0  0
  149.8605  145.1814  158.3680 H   0  0  0  0  0  0  0  0  0  0  0  0
  151.3835  145.8424  158.9507 H   0  0  0  0  0  0  0  0  0  0  0  0
  150.5829  144.5650  159.8567 H   0  0  0  0  0  0  0  0  0  0  0  0
  151.8379  144.3130  157.0717 H   0  0  0  0  0  0  0  0  0  0  0  0
  153.6020  142.2069  157.4002 H   0  0  0  0  0  0  0  0  0  0  0  0
  153.9159  141.8793  159.1137 H   0  0  0  0  0  0  0  0  0  0  0  0
  151.8860  140.5367  158.0305 H   0  0  0  0  0  0  0  0  0  0  0  0
  151.5970  141.3875  159.5368 H   0  0  0  0  0  0  0  0  0  0  0  0
  149.7809  142.0479  159.3493 H   0  0  0  0  0  0  0  0  0  0  0  0
  149.8154  142.8341  155.9475 H   0  0  0  0  0  0  0  0  0  0  0  0
  151.5199  142.5406  155.7353 H   0  0  0  0  0  0  0  0  0  0  0  0
  148.4994  140.5055  157.0248 H   0  0  0  0  0  0  0  0  0  0  0  0
  152.3858  135.5349  154.2901 H   0  0  0  0  0  0  0  0  0  0  0  0
  151.5895  135.5067  155.8557 H   0  0  0  0  0  0  0  0  0  0  0  0
  150.7771  133.8647  153.3887 H   0  0  0  0  0  0  0  0  0  0  0  0
  151.4848  133.2454  154.8687 H   0  0  0  0  0  0  0  0  0  0  0  0
  148.5429  134.7621  153.4552 H   0  0  0  0  0  0  0  0  0  0  0  0
  147.0478  133.5366  155.2079 H   0  0  0  0  0  0  0  0  0  0  0  0
  147.2460  134.9755  156.2030 H   0  0  0  0  0  0  0  0  0  0  0  0
  145.3401  133.4741  154.1160 H   0  0  0  0  0  0  0  0  0  0  0  0
  144.4307  134.6076  155.1182 H   0  0  0  0  0  0  0  0  0  0  0  0
  143.5415  135.6984  153.2246 H   0  0  0  0  0  0  0  0  0  0  0  0
  144.6493  133.1314  151.8433 H   0  0  0  0  0  0  0  0  0  0  0  0
  143.2663  134.1905  151.2535 H   0  0  0  0  0  0  0  0  0  0  0  0
  144.8224  136.1612  151.1496 H   0  0  0  0  0  0  0  0  0  0  0  0
  146.2040  135.1012  151.7415 H   0  0  0  0  0  0  0  0  0  0  0  0
  149.1621  136.4178  155.9558 H   0  0  0  0  0  0  0  0  0  0  0  0
  148.4921  137.0379  154.4554 H   0  0  0  0  0  0  0  0  0  0  0  0
  153.6467  139.2896  153.3482 H   0  0  0  0  0  0  0  0  0  0  0  0
  1  2  1  0  0  0  0
  1 30  1  0  0  0  0
  1 31  1  0  0  0  0
  1 32  1  0  0  0  0
  2  6  1  0  0  0  0
  2  3  1  0  0  0  0
  2 33  1  0  0  0  0
  3  4  1  0  0  0  0
  4  5  1  0  0  0  0
  4 34  1  0  0  0  0
  4 35  1  0  0  0  0
  5  6  1  0  0  0  0
  5 36  1  0  0  0  0
  5 37  1  0  0  0  0
  6  7  1  0  0  0  0
  6  8  1  0  0  0  0
  7 38  1  0  0  0  0
  8  9  1  0  0  0  0
  8 39  1  0  0  0  0
  8 40  1  0  0  0  0
  9 29  1  0  0  0  0
  9 10  1  0  0  0  0
 10 11  2  0  0  0  0
 10 41  1  0  0  0  0
 11 12  1  0  0  0  0
 12 29  2  0  0  0  0
 12 13  1  0  0  0  0
 13 14  1  0  0  0  0
 13 26  2  0  0  0  0
 14 25  1  0  0  0  0
 14 15  1  0  0  0  0
 15 16  1  0  0  0  0
 15 42  1  0  0  0  0
 15 43  1  0  0  0  0
 16 17  1  0  0  0  0
 16 44  1  0  0  0  0
 16 45  1  0  0  0  0
 17 18  1  0  0  0  0
 18 19  1  0  0  0  0
 18 25  1  0  0  0  0
 18 46  1  0  0  0  0
 19 20  1  0  0  0  0
 19 47  1  0  0  0  0
 19 48  1  0  0  0  0
 20 21  1  0  0  0  0
 21 22  1  0  0  0  0
 21 49  1  0  0  0  0
 21 50  1  0  0  0  0
 22 24  1  0  0  0  0
 22 23  1  0  0  0  0
 22 51  1  0  0  0  0
 23 24  1  0  0  0  0
 23 52  1  0  0  0  0
 23 53  1  0  0  0  0
 24 54  1  0  0  0  0
 24 55  1  0  0  0  0
 25 56  1  0  0  0  0
 25 57  1  0  0  0  0
 26 27  1  0  0  0  0
 27 28  2  0  0  0  0
 27 58  1  0  0  0  0
 28 29  1  0  0  0  0
M  END
> <s_m_source_file>
AV-unprocessed.smi

> <i_m_source_file_index>
236

> <i_lp_mmshare_version>
43012

> <i_f3d_flags>
0

> <s_epik_input>
W0NIMl0xW0NIMl1PW0NAQEhdKFtDSDNdKVtDQEBdMShbT0hdKVtDSDJdbihbY0hdbjIpYyhjMjMpbltjSF1uYzNONFtDSDJdW0NIMl1PW0NASF0oW0NIMl00KVtDSDJdT1tDSDJdW0NIXTVbQ0gyXVtDSDJdNQ==

> <s_epik_cmdline>
J2VwaWtfcHl0aG9uJywgJy1waCcsICc3LjAnLCAnLXRuJywgJzgnLCAnLW1hJywgJzIwMCcsICctbWV0YWxfYmluZGluZycsICctaW1hZScsICc8aW5maWxlLm1hZT4nLCAnLW9tYWUnLCAnPG91dGZpbGUubWFlPic=

> <r_lp_tautomer_probability>
1

> <r_epik_Ionization_Penalty>
7.21838e-05

> <r_epik_Ionization_Penalty_Charging>
0

> <r_epik_Ionization_Penalty_Neutral>
7.21838e-05

> <r_epik_State_Penalty>
-0

> <r_epik_Charging_Adjusted_Penalty>
0

> <i_epik_Tot_Q>
0

> <i_epik_Tot_abs_Q>
0

> <r_epik_Metal_State_Penalty>
-0

> <b_epik_Metal_Only>
0

> <s_lp_Force_Field>
OPLS_2005

> <r_lp_Energy>
50.1764

> <b_lp_Chiralities_Consistent>
1

> <s_lp_Variant>
AV-unprocessed.smi:236-2

> <Gold.Version>
5.8.1

> <Gold.Id.Protein>
6NUR|6NUR_protein|mol2

> <Gold.PLP.Fitness>
49.4381

> <Gold.PLP.PLP>
-45.8077

> <Gold.PLP.part.hbond>
-2.6743

> <Gold.PLP.part.metal>
0.0000

> <Gold.PLP.part.buried>
-7.7516

> <Gold.PLP.part.nonpolar>
-37.3599

> <Gold.PLP.part.repulsive>
0.3770

> <Gold.PLP.ligand.clash>
0.0000

> <Gold.PLP.ligand.torsion>
1.2140

> <Gold.PLP.Chemscore.Hbond>
1.7680

> <Gold.PLP.Chemscore.CHOScore>
0.0000

> <Gold.PLP.Chemscore.Metal>
0.0000

> <Gold.Chemscore.Hbonds>
donor molecule, donor type, donor heavy atom, donor atom, acceptor molecule, acceptor atom, score
      P1  H  7989  7998       L1    28  0.21

> <Gold.PLP.Chemscore.Internal.Correction>
0.7543

> <Gold.Rescore>
     Score         DG    S(hbond)    S(metal)    S(lipo)     H(rot)  DE(clash)    DE(int)     intcor
     10.68     -13.83       1.32        0.00      96.41       2.87       0.14       3.02       ----

> <Gold.Chemscore.Fitness>
10.6752

> <Gold.Chemscore.DG>
-13.8330

> <Gold.Chemscore.ZeroCoef>
-5.4800

> <Gold.Chemscore.Hbond>
1.3200

> <Gold.Chemscore.Metal>
0.0000

> <Gold.Chemscore.Lipo>
96.4106

> <Gold.Chemscore.Internal_Hbond>
0.0000

> <Gold.Chemscore.DEClash>
0.1393

> <Gold.Chemscore.DEInternal>
3.0185

> <Gold.Chemscore.Rot>
2.8655

> <Gold.Chemscore.Internal.Correction>
   9.000000E+99

> <Gold.Chemscore.Hbonds>
donor molecule, donor type, donor heavy atom, donor atom, acceptor molecule, acceptor atom, score
      P1  H  7989  7998       L1    28  0.01

> <Gold.Chemscore.Hbond.Weighted>
-4.4087

> <Gold.Chemscore.Metal.Weighted>
-0.0000

> <Gold.Chemscore.Lipo.Weighted>
-11.2800

> <Gold.Chemscore.Internal_Hbond.Weighted>
0.0000

> <Gold.Chemscore.DEClash.Weighted>
0.1393

> <Gold.Chemscore.DEInternal.Weighted>
3.0185

> <Gold.Chemscore.Rot.Weighted>
7.3358

> <Gold.Chemscore.Internal.Correction.Weighted>
   9.000000E+99

> <Gold.Protein.RotatedTorsions>
[ 6907 6896 6895 6894 ] final  155.77 input  -60.11 | X-H torsion
[ 7974 7965 7964 7962 ] final  109.06 input  175.53 | X-H torsion
[ 8008 7997 7996 7995 ] final  -43.87 input   59.86 | X-H torsion
[ 10167 10162 10161 10158 ] final   38.56 input  -65.29 | X-H torsion
[ 10718 10713 10712 10709 ] final  175.03 input   66.30 | X-H torsion
[ 10763 10752 10751 10750 ] final  -65.69 input  -60.55 | X-H torsion
[ 11005 11000 10999 10996 ] final   10.82 input  -57.11 | X-H torsion

> <Gold.Protein.ActiveResidues>
 VAL166  LYS551  ARG553  GLY616  TRP617  ASP618  TYR619  PRO620  LYS621  CYS622 
 ASP623  PHE694  ASN695  SER759  ASP760  ASP761  ALA762  ILE779  LEU786  VAL792 
 PHE793  MET794  SER795  GLU796  ALA797  LYS798  CYS799  TRP800  GLU811  SER814 

> <Gold.Protein.RotatedAtoms>
  152.0394  133.3971  159.4330 H   0  0  0  0  0  0  0  0  0  0  0  0  # atno 6907 bound_to 6896
  150.6876  134.3432  159.4886 H   0  0  0  0  0  0  0  0  0  0  0  0  # atno 6908 bound_to 6896
  152.1228  134.9192  160.0613 H   0  0  0  0  0  0  0  0  0  0  0  0  # atno 6909 bound_to 6896
  145.2727  139.2661  143.3958 H   0  0  0  0  0  0  0  0  0  0  0  0  # atno 7974 bound_to 7965
  154.3997  140.1436  156.3590 H   0  0  0  0  0  0  0  0  0  0  0  0  # atno 8008 bound_to 7997
  155.8198  140.3470  155.5486 H   0  0  0  0  0  0  0  0  0  0  0  0  # atno 8009 bound_to 7997
  155.8300  140.0910  157.1789 H   0  0  0  0  0  0  0  0  0  0  0  0  # atno 8010 bound_to 7997
  140.3924  144.1834  150.6131 H   0  0  0  0  0  0  0  0  0  0  0  0  # atno 10167 bound_to 10162
  156.9408  131.0001  151.2969 H   0  0  0  0  0  0  0  0  0  0  0  0  # atno 10718 bound_to 10713
  154.3488  135.6141  153.5632 H   0  0  0  0  0  0  0  0  0  0  0  0  # atno 10763 bound_to 10752
  152.9799  135.5787  154.4768 H   0  0  0  0  0  0  0  0  0  0  0  0  # atno 10764 bound_to 10752
  154.4485  135.2852  155.1775 H   0  0  0  0  0  0  0  0  0  0  0  0  # atno 10765 bound_to 10752
  140.5102  134.0660  155.7816 H   0  0  0  0  0  0  0  0  0  0  0  0  # atno 11005 bound_to 11000
  146.3241  140.3173  142.8631 LP  0  0  0  0  0  0  0  0  0  0  0  0  # atno 17320 bound_to 7965
  144.9321  140.7987  143.5682 LP  0  0  0  0  0  0  0  0  0  0  0  0  # atno 17321 bound_to 7965
  140.4826  143.2374  151.8934 LP  0  0  0  0  0  0  0  0  0  0  0  0  # atno 17342 bound_to 10162
  139.4788  144.5253  151.8743 LP  0  0  0  0  0  0  0  0  0  0  0  0  # atno 17343 bound_to 10162
  157.5786  130.8360  149.8490 LP  0  0  0  0  0  0  0  0  0  0  0  0  # atno 17370 bound_to 10713
  156.0405  130.3740  150.1448 LP  0  0  0  0  0  0  0  0  0  0  0  0  # atno 17371 bound_to 10713
  141.1390  133.9172  157.2370 LP  0  0  0  0  0  0  0  0  0  0  0  0  # atno 17394 bound_to 11000
  139.9663  135.0141  156.9396 LP  0  0  0  0  0  0  0  0  0  0  0  0  # atno 17395 bound_to 11000

$$$$
