AV-unprocessed.smi:1484|AV-procd|sdf|5996|dock1
  -GOLD-   22720 6 93D 1   1.00000     0.00000
 Structure written by MMmdl.
 37 38  0  0  0  0  0  0  0  0  2 V2000
  153.1835  142.6040  162.4448 C   0  0  0  0  0  0  0  0  0  0  0  0
  152.4723  142.9394  161.1264 C   0  0  1  0  0  0  0  0  0  0  0  0
  151.8671  144.3562  161.1573 C   0  0  0  0  0  0  0  0  0  0  0  0
  151.1630  144.7019  159.8354 C   0  0  0  0  0  0  0  0  0  0  0  0
  152.1132  144.5381  158.6355 C   0  0  0  0  0  0  0  0  0  0  0  0
  152.7342  143.1291  158.5802 C   0  0  2  0  0  0  0  0  0  0  0  0
  151.7019  142.1513  158.2552 N   0  0  0  0  0  0  0  0  0  0  0  0
  151.8576  140.8223  158.1437 C   0  0  0  0  0  0  0  0  0  0  0  0
  152.9446  140.2610  158.2789 O   0  0  0  0  0  0  0  0  0  0  0  0
  150.6028  139.9836  157.8398 C   0  0  0  0  0  0  0  0  0  0  0  0
  150.6473  139.2696  156.5521 N   0  0  0  0  0  0  0  0  0  0  0  0
  150.8294  137.8260  156.6834 N   0  5  0  0  0  0  0  0  0  0  0  0
  150.7605  137.0459  155.5724 C   0  0  0  0  0  0  0  0  0  0  0  0
  150.8539  135.8214  155.6108 O   0  0  0  0  0  0  0  0  0  0  0  0
  150.5731  137.7005  154.2883 C   0  0  0  0  0  0  0  0  0  0  0  0
  150.4465  139.0387  154.1924 C   0  0  0  0  0  0  0  0  0  0  0  0
  150.4711  139.9100  155.3611 C   0  0  0  0  0  0  0  0  0  0  0  0
  150.3215  141.1294  155.2834 O   0  0  0  0  0  0  0  0  0  0  0  0
  153.4211  142.7827  159.9187 C   0  0  0  0  0  0  0  0  0  0  0  0
  154.0174  143.2817  162.6297 H   0  0  0  0  0  0  0  0  0  0  0  0
  153.5767  141.5873  162.4297 H   0  0  0  0  0  0  0  0  0  0  0  0
  152.4986  142.6789  163.2900 H   0  0  0  0  0  0  0  0  0  0  0  0
  151.6533  142.2273  161.0117 H   0  0  0  0  0  0  0  0  0  0  0  0
  151.1570  144.4400  161.9806 H   0  0  0  0  0  0  0  0  0  0  0  0
  152.6524  145.0882  161.3509 H   0  0  0  0  0  0  0  0  0  0  0  0
  150.2896  144.0601  159.7080 H   0  0  0  0  0  0  0  0  0  0  0  0
  150.7869  145.7245  159.8729 H   0  0  0  0  0  0  0  0  0  0  0  0
  151.5822  144.7527  157.7071 H   0  0  0  0  0  0  0  0  0  0  0  0
  152.9103  145.2787  158.7076 H   0  0  0  0  0  0  0  0  0  0  0  0
  153.4815  143.1171  157.7849 H   0  0  0  0  0  0  0  0  0  0  0  0
  150.7641  142.5097  158.1401 H   0  0  0  0  0  0  0  0  0  0  0  0
  150.4424  139.2822  158.6603 H   0  0  0  0  0  0  0  0  0  0  0  0
  149.7395  140.6510  157.8599 H   0  0  0  0  0  0  0  0  0  0  0  0
  150.5402  137.1009  153.3905 H   0  0  0  0  0  0  0  0  0  0  0  0
  150.3126  139.4825  153.2171 H   0  0  0  0  0  0  0  0  0  0  0  0
  154.2840  143.4364  160.0524 H   0  0  0  0  0  0  0  0  0  0  0  0
  153.8171  141.7669  159.8837 H   0  0  0  0  0  0  0  0  0  0  0  0
  1  2  1  0  0  0  0
  1 20  1  0  0  0  0
  1 21  1  0  0  0  0
  1 22  1  0  0  0  0
  2 19  1  0  0  0  0
  2  3  1  0  0  0  0
  2 23  1  0  0  0  0
  3  4  1  0  0  0  0
  3 24  1  0  0  0  0
  3 25  1  0  0  0  0
  4  5  1  0  0  0  0
  4 26  1  0  0  0  0
  4 27  1  0  0  0  0
  5  6  1  0  0  0  0
  5 28  1  0  0  0  0
  5 29  1  0  0  0  0
  6  7  1  0  0  0  0
  6 19  1  0  0  0  0
  6 30  1  0  0  0  0
  7  8  1  0  0  0  0
  7 31  1  0  0  0  0
  8  9  2  0  0  0  0
  8 10  1  0  0  0  0
 10 32  1  0  0  0  0
 10 33  1  0  0  0  0
 10 11  1  0  0  0  0
 11 12  1  0  0  0  0
 11 17  1  0  0  0  0
 12 13  1  0  0  0  0
 13 14  2  0  0  0  0
 13 15  1  0  0  0  0
 15 34  1  0  0  0  0
 15 16  2  0  0  0  0
 16 35  1  0  0  0  0
 16 17  1  0  0  0  0
 17 18  2  0  0  0  0
 19 36  1  0  0  0  0
 19 37  1  0  0  0  0
M  CHG  1  12  -1
M  END
> <s_m_source_file>
AV-unprocessed.smi

> <i_m_source_file_index>
1484

> <i_lp_mmshare_version>
43012

> <i_f3d_flags>
0

> <s_epik_input>
W0NIM11bQ0BASF0xW0NIMl1bQ0gyXVtDSDJdW0NASF0oW0NIMl0xKVtOSF1DKD1PKVtDSDJdbjJbbkhdYyg9TylbY0hdW2NIXWMyPU8=

> <s_epik_cmdline>
J2VwaWtfcHl0aG9uJywgJy1waCcsICc3LjAnLCAnLXRuJywgJzgnLCAnLW1hJywgJzIwMCcsICctbWV0YWxfYmluZGluZycsICctaW1hZScsICc8aW5maWxlLm1hZT4nLCAnLW9tYWUnLCAnPG91dGZpbGUubWFlPic=

> <r_lp_tautomer_probability>
1

> <r_epik_Ionization_Penalty>
0.101352

> <r_epik_Ionization_Penalty_Charging>
0.101352

> <r_epik_Ionization_Penalty_Neutral>
1.90469e-08

> <r_epik_State_Penalty>
0.0358555

> <r_epik_Charging_Adjusted_Penalty>
0.137208

> <i_epik_Tot_Q>
-1

> <i_epik_Tot_abs_Q>
1

> <r_epik_Metal_State_Penalty>
0.0358555

> <b_epik_Metal_Only>
0

> <s_lp_Force_Field>
OPLS_2005

> <r_lp_Energy>
21.3013

> <b_lp_Chiralities_Consistent>
1

> <s_lp_Variant>
AV-unprocessed.smi:1484-4

> <Gold.Version>
5.8.1

> <Gold.Id.Protein>
6NUR|6NUR_protein|mol2

> <Gold.PLP.Fitness>
50.4175

> <Gold.PLP.PLP>
-43.5303

> <Gold.PLP.part.hbond>
-3.0000

> <Gold.PLP.part.metal>
0.0000

> <Gold.PLP.part.buried>
-4.0817

> <Gold.PLP.part.nonpolar>
-35.9826

> <Gold.PLP.part.repulsive>
0.1855

> <Gold.PLP.ligand.clash>
0.0000

> <Gold.PLP.ligand.torsion>
0.1845

> <Gold.PLP.Chemscore.Hbond>
2.4144

> <Gold.PLP.Chemscore.CHOScore>
0.0000

> <Gold.PLP.Chemscore.Metal>
0.0000

> <Gold.Chemscore.Hbonds>
donor molecule, donor type, donor heavy atom, donor atom, acceptor molecule, acceptor atom, score
      P1  H  7989  7998       L1    18  0.05
      P1  H  7997  8010       L1     9  0.81
      P1  H 10752 10765       L1    14  0.01

> <Gold.PLP.Chemscore.Internal.Correction>
0.0130

> <Gold.Rescore>
     Score         DG    S(hbond)    S(metal)    S(lipo)     H(rot)  DE(clash)    DE(int)     intcor
     19.37     -19.84       1.79        0.00     107.95       1.65       0.02       0.45       ----

> <Gold.Chemscore.Fitness>
19.3713

> <Gold.Chemscore.DG>
-19.8391

> <Gold.Chemscore.ZeroCoef>
-5.4800

> <Gold.Chemscore.Hbond>
1.7860

> <Gold.Chemscore.Metal>
0.0000

> <Gold.Chemscore.Lipo>
107.9515

> <Gold.Chemscore.Internal_Hbond>
0.0000

> <Gold.Chemscore.DEClash>
0.0217

> <Gold.Chemscore.DEInternal>
0.4461

> <Gold.Chemscore.Rot>
1.6549

> <Gold.Chemscore.Internal.Correction>
   9.000000E+99

> <Gold.Chemscore.Hbonds>
donor molecule, donor type, donor heavy atom, donor atom, acceptor molecule, acceptor atom, score
      P1  H  7997  8010       L1     9  0.77
      P1  H 10752 10765       L1    14  0.03

> <Gold.Chemscore.Hbond.Weighted>
-5.9653

> <Gold.Chemscore.Metal.Weighted>
-0.0000

> <Gold.Chemscore.Lipo.Weighted>
-12.6303

> <Gold.Chemscore.Internal_Hbond.Weighted>
0.0000

> <Gold.Chemscore.DEClash.Weighted>
0.0217

> <Gold.Chemscore.DEInternal.Weighted>
0.4461

> <Gold.Chemscore.Rot.Weighted>
4.2364

> <Gold.Chemscore.Internal.Correction.Weighted>
   9.000000E+99

> <Gold.Protein.RotatedTorsions>
[ 6907 6896 6895 6894 ] final   89.12 input  -60.11 | X-H torsion
[ 7974 7965 7964 7962 ] final   34.93 input  175.53 | X-H torsion
[ 8008 7997 7996 7995 ] final   32.44 input   59.86 | X-H torsion
[ 10167 10162 10161 10158 ] final -100.62 input  -65.29 | X-H torsion
[ 10718 10713 10712 10709 ] final   12.38 input   66.30 | X-H torsion
[ 10763 10752 10751 10750 ] final -143.88 input  -60.55 | X-H torsion
[ 11005 11000 10999 10996 ] final  -26.83 input  -57.11 | X-H torsion

> <Gold.Protein.ActiveResidues>
 VAL166  LYS551  ARG553  GLY616  TRP617  ASP618  TYR619  PRO620  LYS621  CYS622 
 ASP623  PHE694  ASN695  SER759  ASP760  ASP761  ALA762  ILE779  LEU786  VAL792 
 PHE793  MET794  SER795  GLU796  ALA797  LYS798  CYS799  TRP800  GLU811  SER814 

> <Gold.Protein.RotatedAtoms>
  152.5433  134.2015  159.8713 H   0  0  0  0  0  0  0  0  0  0  0  0  # atno 6907 bound_to 6896
  151.2003  133.4608  159.2603 H   0  0  0  0  0  0  0  0  0  0  0  0  # atno 6908 bound_to 6896
  151.0995  134.9976  159.8497 H   0  0  0  0  0  0  0  0  0  0  0  0  # atno 6909 bound_to 6896
  146.1318  139.6206  142.9221 H   0  0  0  0  0  0  0  0  0  0  0  0  # atno 7974 bound_to 7965
  155.1225  140.3249  155.4494 H   0  0  0  0  0  0  0  0  0  0  0  0  # atno 8008 bound_to 7997
  156.2659  140.2025  156.6295 H   0  0  0  0  0  0  0  0  0  0  0  0  # atno 8009 bound_to 7997
  154.6673  140.0540  157.0114 H   0  0  0  0  0  0  0  0  0  0  0  0  # atno 8010 bound_to 7997
  140.2500  143.3479  152.0723 H   0  0  0  0  0  0  0  0  0  0  0  0  # atno 10167 bound_to 10162
  157.0092  130.6110  149.5706 H   0  0  0  0  0  0  0  0  0  0  0  0  # atno 10718 bound_to 10713
  154.8452  135.3456  154.6257 H   0  0  0  0  0  0  0  0  0  0  0  0  # atno 10763 bound_to 10752
  153.6866  135.6977  153.5106 H   0  0  0  0  0  0  0  0  0  0  0  0  # atno 10764 bound_to 10752
  153.2627  135.4318  155.0865 H   0  0  0  0  0  0  0  0  0  0  0  0  # atno 10765 bound_to 10752
  140.9065  133.7489  156.0613 H   0  0  0  0  0  0  0  0  0  0  0  0  # atno 11005 bound_to 11000
  145.5243  141.0430  143.2418 LP  0  0  0  0  0  0  0  0  0  0  0  0  # atno 17320 bound_to 7965
  144.7699  139.6759  143.7199 LP  0  0  0  0  0  0  0  0  0  0  0  0  # atno 17321 bound_to 7965
  139.5049  144.6785  151.6069 LP  0  0  0  0  0  0  0  0  0  0  0  0  # atno 17342 bound_to 10162
  140.6048  143.9545  150.6411 LP  0  0  0  0  0  0  0  0  0  0  0  0  # atno 17343 bound_to 10162
  156.0142  130.5235  150.8084 LP  0  0  0  0  0  0  0  0  0  0  0  0  # atno 17370 bound_to 10713
  157.5333  131.0937  150.9926 LP  0  0  0  0  0  0  0  0  0  0  0  0  # atno 17371 bound_to 10713
  140.8164  134.3339  157.5395 LP  0  0  0  0  0  0  0  0  0  0  0  0  # atno 17394 bound_to 11000
  139.8750  134.9284  156.3450 LP  0  0  0  0  0  0  0  0  0  0  0  0  # atno 17395 bound_to 11000

$$$$
