AV-unprocessed.smi:281|AV-procd|sdf|2110|dock9
  -GOLD-   2262021403D 1   1.00000     0.00000
 Structure written by MMmdl.
 55 59  0  0  0  0  0  0  0  0  1 V2000
  148.3783  137.3739  159.0330 C   0  0  0  0  0  0  0  0  0  0  0  0
  148.6136  137.7036  157.5556 C   0  0  1  0  0  0  0  0  0  0  0  0
  147.3787  137.4041  156.6942 C   0  0  0  0  0  0  0  0  0  0  0  0
  147.6216  137.8132  155.3148 N   0  0  0  0  0  0  0  0  0  0  0  0
  146.7374  137.3985  154.3699 C   0  0  0  0  0  0  0  0  0  0  0  0
  146.1931  138.2996  153.5077 N   0  0  0  0  0  0  0  0  0  0  0  0
  145.3303  137.9032  152.5678 C   0  0  0  0  0  0  0  0  0  0  0  0
  144.8763  136.6746  152.3176 N   0  0  0  0  0  0  0  0  0  0  0  0
  145.4079  135.7656  153.1838 C   0  0  0  0  0  0  0  0  0  0  0  0
  146.3386  136.0384  154.2267 C   0  0  0  0  0  0  0  0  0  0  0  0
  146.6472  134.8617  154.8988 N   0  0  0  0  0  0  0  0  0  0  0  0
  145.9491  133.9470  154.2843 C   0  0  0  0  0  0  0  0  0  0  0  0
  145.1670  134.4037  153.2482 N   0  0  0  0  0  0  0  0  0  0  0  0
  144.2888  133.6123  152.3997 C   0  0  0  0  0  0  0  0  0  0  0  0
  144.8027  133.4549  150.9489 C   0  0  1  0  0  0  0  0  0  0  0  0
  145.0195  134.7391  150.3898 O   0  0  0  0  0  0  0  0  0  0  0  0
  146.1060  132.6704  150.8677 C   0  0  0  0  0  0  0  0  0  0  0  0
  146.0284  132.0319  149.4878 C   0  0  0  0  0  0  0  0  0  0  0  0
  144.6637  131.6622  149.3879 O   0  0  0  0  0  0  0  0  0  0  0  0
  143.8661  132.6650  150.0109 C   0  0  0  0  0  0  0  0  0  0  0  0
  148.0243  139.2117  155.1992 C   0  0  0  0  0  0  0  0  0  0  0  0
  149.2164  139.5513  156.1324 C   0  0  2  0  0  0  0  0  0  0  0  0
  149.3943  141.0632  156.2356 C   0  0  0  0  0  0  0  0  0  0  0  0
  150.8828  141.2287  156.4894 C   0  0  0  0  0  0  0  0  0  0  0  0
  151.4345  140.2610  155.6182 O   0  0  0  0  0  0  0  0  0  0  0  0
  150.6408  139.0823  155.7036 C   0  0  2  0  0  0  0  0  0  0  0  0
  150.7620  138.3242  154.3744 C   0  0  0  0  0  0  0  0  0  0  0  0
  148.9263  139.0927  157.4574 O   0  0  0  0  0  0  0  0  0  0  0  0
  148.1412  136.3183  159.1670 H   0  0  0  0  0  0  0  0  0  0  0  0
  147.5526  137.9575  159.4409 H   0  0  0  0  0  0  0  0  0  0  0  0
  149.2663  137.5926  159.6266 H   0  0  0  0  0  0  0  0  0  0  0  0
  149.4522  137.1037  157.2013 H   0  0  0  0  0  0  0  0  0  0  0  0
  147.1553  136.3369  156.7340 H   0  0  0  0  0  0  0  0  0  0  0  0
  146.5097  137.9361  157.0849 H   0  0  0  0  0  0  0  0  0  0  0  0
  144.9483  138.6822  151.9246 H   0  0  0  0  0  0  0  0  0  0  0  0
  145.9851  132.9078  154.5769 H   0  0  0  0  0  0  0  0  0  0  0  0
  144.1602  132.6319  152.8605 H   0  0  0  0  0  0  0  0  0  0  0  0
  143.3037  134.0806  152.4009 H   0  0  0  0  0  0  0  0  0  0  0  0
  145.1565  134.6427  149.4597 H   0  0  0  0  0  0  0  0  0  0  0  0
  146.9977  133.2828  151.0089 H   0  0  0  0  0  0  0  0  0  0  0  0
  146.1213  131.8829  151.6229 H   0  0  0  0  0  0  0  0  0  0  0  0
  146.2718  132.7541  148.7069 H   0  0  0  0  0  0  0  0  0  0  0  0
  146.6884  131.1709  149.3811 H   0  0  0  0  0  0  0  0  0  0  0  0
  143.0641  132.1647  150.5524 H   0  0  0  0  0  0  0  0  0  0  0  0
  143.4028  133.3015  149.2554 H   0  0  0  0  0  0  0  0  0  0  0  0
  148.2606  139.4838  154.1718 H   0  0  0  0  0  0  0  0  0  0  0  0
  147.1646  139.8223  155.4802 H   0  0  0  0  0  0  0  0  0  0  0  0
  149.1442  141.5405  155.2869 H   0  0  0  0  0  0  0  0  0  0  0  0
  148.7764  141.5199  157.0094 H   0  0  0  0  0  0  0  0  0  0  0  0
  151.2434  142.2317  156.2606 H   0  0  0  0  0  0  0  0  0  0  0  0
  151.1377  140.9909  157.5235 H   0  0  0  0  0  0  0  0  0  0  0  0
  151.0838  138.4741  156.4927 H   0  0  0  0  0  0  0  0  0  0  0  0
  150.1929  137.3949  154.3910 H   0  0  0  0  0  0  0  0  0  0  0  0
  151.8015  138.0634  154.1751 H   0  0  0  0  0  0  0  0  0  0  0  0
  150.4127  138.9283  153.5374 H   0  0  0  0  0  0  0  0  0  0  0  0
  1  2  1  0  0  0  0
  1 29  1  0  0  0  0
  1 30  1  0  0  0  0
  1 31  1  0  0  0  0
  2 28  1  0  0  0  0
  2  3  1  0  0  0  0
  2 32  1  0  0  0  0
  3  4  1  0  0  0  0
  3 33  1  0  0  0  0
  3 34  1  0  0  0  0
  4  5  1  0  0  0  0
  4 21  1  0  0  0  0
  5 10  1  0  0  0  0
  5  6  2  0  0  0  0
  6  7  1  0  0  0  0
  7  8  2  0  0  0  0
  7 35  1  0  0  0  0
  8  9  1  0  0  0  0
  9 13  1  0  0  0  0
  9 10  2  0  0  0  0
 10 11  1  0  0  0  0
 11 12  2  0  0  0  0
 12 13  1  0  0  0  0
 12 36  1  0  0  0  0
 13 14  1  0  0  0  0
 14 15  1  0  0  0  0
 14 37  1  0  0  0  0
 14 38  1  0  0  0  0
 15 20  1  0  0  0  0
 15 16  1  0  0  0  0
 15 17  1  0  0  0  0
 16 39  1  0  0  0  0
 17 18  1  0  0  0  0
 17 40  1  0  0  0  0
 17 41  1  0  0  0  0
 18 19  1  0  0  0  0
 18 42  1  0  0  0  0
 18 43  1  0  0  0  0
 19 20  1  0  0  0  0
 20 44  1  0  0  0  0
 20 45  1  0  0  0  0
 21 22  1  0  0  0  0
 21 46  1  0  0  0  0
 21 47  1  0  0  0  0
 22 26  1  0  0  0  0
 22 23  1  0  0  0  0
 22 28  1  0  0  0  0
 23 24  1  0  0  0  0
 23 48  1  0  0  0  0
 23 49  1  0  0  0  0
 24 25  1  0  0  0  0
 24 50  1  0  0  0  0
 24 51  1  0  0  0  0
 25 26  1  0  0  0  0
 26 27  1  0  0  0  0
 26 52  1  0  0  0  0
 27 53  1  0  0  0  0
 27 54  1  0  0  0  0
 27 55  1  0  0  0  0
M  END
> <s_m_source_file>
AV-unprocessed.smi

> <i_m_source_file_index>
281

> <i_lp_mmshare_version>
43012

> <i_f3d_flags>
0

> <s_epik_input>
W0NIM11bQ0BASF0xT1tDSDJdW0NIMl1bQ0BAXTEyW0NIMl1OKFtDSDJdW0NASF0oTzIpW0NIM10pYyhuW2NIXW4zKWMoYzM0KW5bY0hdbjRbQ0gyXVtDQEBdNShbT0hdKVtDSDJdW0NIMl1PW0NIMl01

> <s_epik_cmdline>
J2VwaWtfcHl0aG9uJywgJy1waCcsICc3LjAnLCAnLXRuJywgJzgnLCAnLW1hJywgJzIwMCcsICctbWV0YWxfYmluZGluZycsICctaW1hZScsICc8aW5maWxlLm1hZT4nLCAnLW9tYWUnLCAnPG91dGZpbGUubWFlPic=

> <r_lp_tautomer_probability>
1

> <r_epik_Ionization_Penalty>
0.00571331

> <r_epik_Ionization_Penalty_Charging>
0

> <r_epik_Ionization_Penalty_Neutral>
0.00571331

> <r_epik_State_Penalty>
0.00399586

> <r_epik_Charging_Adjusted_Penalty>
0.00399586

> <i_epik_Tot_Q>
0

> <i_epik_Tot_abs_Q>
0

> <r_epik_Metal_State_Penalty>
-0

> <b_epik_Metal_Only>
0

> <s_lp_Force_Field>
OPLS_2005

> <r_lp_Energy>
52.955

> <b_lp_Chiralities_Consistent>
1

> <s_lp_Variant>
AV-unprocessed.smi:281-10

> <Gold.Version>
5.8.1

> <Gold.Id.Protein>
6NUR|6NUR_protein|mol2

> <Gold.PLP.Fitness>
43.8787

> <Gold.PLP.PLP>
-31.3395

> <Gold.PLP.part.hbond>
-3.0000

> <Gold.PLP.part.metal>
0.0000

> <Gold.PLP.part.buried>
-4.5651

> <Gold.PLP.part.nonpolar>
-24.8032

> <Gold.PLP.part.repulsive>
0.7093

> <Gold.PLP.ligand.clash>
0.0000

> <Gold.PLP.ligand.torsion>
0.2412

> <Gold.PLP.Chemscore.Hbond>
2.2540

> <Gold.PLP.Chemscore.CHOScore>
2.0000

> <Gold.PLP.Chemscore.Metal>
0.0000

> <Gold.Chemscore.Hbonds>
donor molecule, donor type, donor heavy atom, donor atom, acceptor molecule, acceptor atom, score
      L1  H    16    39       P1  7921  0.88
      P1  H  7989  7998       L1    25  0.51
      P1  H 10785 10796       L1    19  0.23
      L1  C     7    35       P1 10171  1.00
      L1  C     7    35       P1 10175  0.99

> <Gold.PLP.Chemscore.Internal.Correction>
0.2596

> <Gold.Rescore>
     Score         DG    S(hbond)    S(metal)    S(lipo)     H(rot)  DE(clash)    DE(int)     intcor
     14.47     -15.36       1.70        0.00      81.72       2.09       0.34       0.54       ----

> <Gold.Chemscore.Fitness>
14.4728

> <Gold.Chemscore.DG>
-15.3587

> <Gold.Chemscore.ZeroCoef>
-5.4800

> <Gold.Chemscore.Hbond>
1.6992

> <Gold.Chemscore.Metal>
0.0000

> <Gold.Chemscore.Lipo>
81.7155

> <Gold.Chemscore.Internal_Hbond>
0.0000

> <Gold.Chemscore.DEClash>
0.3445

> <Gold.Chemscore.DEInternal>
0.5413

> <Gold.Chemscore.Rot>
2.0927

> <Gold.Chemscore.Internal.Correction>
   9.000000E+99

> <Gold.Chemscore.Hbonds>
donor molecule, donor type, donor heavy atom, donor atom, acceptor molecule, acceptor atom, score
      L1  H    16    39       P1  7921  0.85
      P1  H  7989  7998       L1    25  0.35
      P1  H 10785 10796       L1    19  0.11

> <Gold.Chemscore.Hbond.Weighted>
-5.6753

> <Gold.Chemscore.Metal.Weighted>
-0.0000

> <Gold.Chemscore.Lipo.Weighted>
-9.5607

> <Gold.Chemscore.Internal_Hbond.Weighted>
0.0000

> <Gold.Chemscore.DEClash.Weighted>
0.3445

> <Gold.Chemscore.DEInternal.Weighted>
0.5413

> <Gold.Chemscore.Rot.Weighted>
5.3573

> <Gold.Chemscore.Internal.Correction.Weighted>
   9.000000E+99

> <Gold.Protein.RotatedTorsions>
[ 6907 6896 6895 6894 ] final  132.82 input  -60.11 | X-H torsion
[ 7974 7965 7964 7962 ] final   78.67 input  175.53 | X-H torsion
[ 8008 7997 7996 7995 ] final   22.43 input   59.86 | X-H torsion
[ 10167 10162 10161 10158 ] final  100.50 input  -65.29 | X-H torsion
[ 10718 10713 10712 10709 ] final -122.42 input   66.30 | X-H torsion
[ 10763 10752 10751 10750 ] final  -83.54 input  -60.55 | X-H torsion
[ 11005 11000 10999 10996 ] final  -49.45 input  -57.11 | X-H torsion

> <Gold.Protein.ActiveResidues>
 VAL166  LYS551  ARG553  GLY616  TRP617  ASP618  TYR619  PRO620  LYS621  CYS622 
 ASP623  PHE694  ASN695  SER759  ASP760  ASP761  ALA762  ILE779  LEU786  VAL792 
 PHE793  MET794  SER795  GLU796  ALA797  LYS798  CYS799  TRP800  GLU811  SER814 

> <Gold.Protein.RotatedAtoms>
  152.3284  133.5931  159.5792 H   0  0  0  0  0  0  0  0  0  0  0  0  # atno 6907 bound_to 6896
  150.7409  133.9905  159.3614 H   0  0  0  0  0  0  0  0  0  0  0  0  # atno 6908 bound_to 6896
  151.7782  135.0769  160.0421 H   0  0  0  0  0  0  0  0  0  0  0  0  # atno 6909 bound_to 6896
  145.6741  139.2505  143.1851 H   0  0  0  0  0  0  0  0  0  0  0  0  # atno 7974 bound_to 7965
  154.9656  140.3083  155.5011 H   0  0  0  0  0  0  0  0  0  0  0  0  # atno 8008 bound_to 7997
  156.2972  140.2293  156.4683 H   0  0  0  0  0  0  0  0  0  0  0  0  # atno 8009 bound_to 7997
  154.7924  140.0439  157.1199 H   0  0  0  0  0  0  0  0  0  0  0  0  # atno 8010 bound_to 7997
  139.7521  144.6980  151.0416 H   0  0  0  0  0  0  0  0  0  0  0  0  # atno 10167 bound_to 10162
  156.1417  130.6470  150.9781 H   0  0  0  0  0  0  0  0  0  0  0  0  # atno 10718 bound_to 10713
  154.5889  135.5552  153.7259 H   0  0  0  0  0  0  0  0  0  0  0  0  # atno 10763 bound_to 10752
  153.0109  135.6338  154.1877 H   0  0  0  0  0  0  0  0  0  0  0  0  # atno 10764 bound_to 10752
  154.1817  135.2887  155.3030 H   0  0  0  0  0  0  0  0  0  0  0  0  # atno 10765 bound_to 10752
  141.0760  133.6666  156.3588 H   0  0  0  0  0  0  0  0  0  0  0  0  # atno 11005 bound_to 11000
  146.1020  140.7532  142.9544 LP  0  0  0  0  0  0  0  0  0  0  0  0  # atno 17320 bound_to 7965
  144.7047  140.3802  143.7128 LP  0  0  0  0  0  0  0  0  0  0  0  0  # atno 17321 bound_to 7965
  140.7799  143.4796  151.0036 LP  0  0  0  0  0  0  0  0  0  0  0  0  # atno 17342 bound_to 10162
  139.8484  143.7471  152.3179 LP  0  0  0  0  0  0  0  0  0  0  0  0  # atno 17343 bound_to 10162
  157.6581  131.0886  150.7901 LP  0  0  0  0  0  0  0  0  0  0  0  0  # atno 17370 bound_to 10713
  156.7975  130.4910  149.5375 LP  0  0  0  0  0  0  0  0  0  0  0  0  # atno 17371 bound_to 10713
  140.5572  134.5970  157.5424 LP  0  0  0  0  0  0  0  0  0  0  0  0  # atno 17394 bound_to 11000
  139.9572  134.7514  156.0315 LP  0  0  0  0  0  0  0  0  0  0  0  0  # atno 17395 bound_to 11000

$$$$
