AV-unprocessed.smi:102|AV-procd|sdf|952|dock1
  -GOLD-   2262017483D 1   1.00000     0.00000
 Structure written by MMmdl.
 44 45  0  0  0  0  0  0  0  0  1 V2000
  146.6803  137.3569  161.5714 C   0  0  0  0  0  0  0  0  0  0  0  0
  147.2307  137.4676  160.1553 C   0  0  0  0  0  0  0  0  0  0  0  0
  146.5750  137.0895  159.1849 O   0  0  0  0  0  0  0  0  0  0  0  0
  148.4631  138.0061  160.1220 O   0  0  0  0  0  0  0  0  0  0  0  0
  149.1529  138.1707  158.8899 C   0  0  0  0  0  0  0  0  0  0  0  0
  150.6055  138.6147  159.1336 C   0  0  1  0  0  0  0  0  0  0  0  0
  151.4799  137.4973  159.2198 O   0  0  0  0  0  0  0  0  0  0  0  0
  152.7946  137.9110  158.9846 C   0  0  2  0  0  0  0  0  0  0  0  0
  153.5843  137.8938  160.2803 N   0  0  0  0  0  0  0  0  0  0  0  0
  153.0219  137.5236  161.4963 C   0  0  0  0  0  0  0  0  0  0  0  0
  153.7185  137.5190  162.6576 C   0  0  0  0  0  0  0  0  0  0  0  0
  153.1074  137.1494  163.7959 F   0  0  0  0  0  0  0  0  0  0  0  0
  155.1246  137.9109  162.6862 C   0  0  0  0  0  0  0  0  0  0  0  0
  155.8367  137.9395  163.6880 O   0  0  0  0  0  0  0  0  0  0  0  0
  155.6476  138.2736  161.4419 N   0  0  0  0  0  0  0  0  0  0  0  0
  154.9414  138.2837  160.2384 C   0  0  0  0  0  0  0  0  0  0  0  0
  155.4989  138.6322  159.1985 O   0  0  0  0  0  0  0  0  0  0  0  0
  152.7326  139.3151  158.3345 C   0  0  2  0  0  0  0  0  0  0  0  0
  153.1887  140.3401  159.2142 O   0  0  0  0  0  0  0  0  0  0  0  0
  152.9056  141.6287  158.9662 C   0  0  0  0  0  0  0  0  0  0  0  0
  153.4696  142.5577  160.0326 C   0  0  0  0  0  0  0  0  0  0  0  0
  152.2720  142.0621  158.0043 O   0  0  0  0  0  0  0  0  0  0  0  0
  151.2448  139.5001  158.0630 C   0  0  1  0  0  0  0  0  0  0  0  0
  150.9262  139.0493  156.7512 O   0  0  0  0  0  0  0  0  0  0  0  0
  151.6337  139.4833  155.6929 C   0  0  0  0  0  0  0  0  0  0  0  0
  151.0656  138.9828  154.3720 C   0  0  0  0  0  0  0  0  0  0  0  0
  152.6299  140.2048  155.7329 O   0  0  0  0  0  0  0  0  0  0  0  0
  156.6171  138.5544  161.4122 H   0  0  0  0  0  0  0  0  0  0  0  0
  145.9271  138.1258  161.7431 H   0  0  0  0  0  0  0  0  0  0  0  0
  147.4740  137.4788  162.3090 H   0  0  0  0  0  0  0  0  0  0  0  0
  146.2188  136.3808  161.7218 H   0  0  0  0  0  0  0  0  0  0  0  0
  149.1641  137.1936  158.4068 H   0  0  0  0  0  0  0  0  0  0  0  0
  148.6324  138.8400  158.2036 H   0  0  0  0  0  0  0  0  0  0  0  0
  150.6568  139.1362  160.0905 H   0  0  0  0  0  0  0  0  0  0  0  0
  153.2633  137.1619  158.3438 H   0  0  0  0  0  0  0  0  0  0  0  0
  151.9872  137.2218  161.5459 H   0  0  0  0  0  0  0  0  0  0  0  0
  153.3214  139.2997  157.4159 H   0  0  0  0  0  0  0  0  0  0  0  0
  154.5578  142.4925  160.0519 H   0  0  0  0  0  0  0  0  0  0  0  0
  153.0877  142.2825  161.0159 H   0  0  0  0  0  0  0  0  0  0  0  0
  153.1885  143.5910  159.8287 H   0  0  0  0  0  0  0  0  0  0  0  0
  150.9264  140.5367  158.1870 H   0  0  0  0  0  0  0  0  0  0  0  0
  150.0348  139.3173  154.2536 H   0  0  0  0  0  0  0  0  0  0  0  0
  151.0839  137.8933  154.3399 H   0  0  0  0  0  0  0  0  0  0  0  0
  151.6505  139.3635  153.5345 H   0  0  0  0  0  0  0  0  0  0  0  0
  1  2  1  0  0  0  0
  1 29  1  0  0  0  0
  1 30  1  0  0  0  0
  1 31  1  0  0  0  0
  2  3  2  0  0  0  0
  2  4  1  0  0  0  0
  4  5  1  0  0  0  0
  5  6  1  0  0  0  0
  5 32  1  0  0  0  0
  5 33  1  0  0  0  0
  6 23  1  0  0  0  0
  6  7  1  0  0  0  0
  6 34  1  0  0  0  0
  7  8  1  0  0  0  0
  8  9  1  0  0  0  0
  8 18  1  0  0  0  0
  8 35  1  0  0  0  0
  9 16  1  0  0  0  0
  9 10  1  0  0  0  0
 10 11  2  0  0  0  0
 10 36  1  0  0  0  0
 11 12  1  0  0  0  0
 11 13  1  0  0  0  0
 13 14  2  0  0  0  0
 13 15  1  0  0  0  0
 15 28  1  0  0  0  0
 15 16  1  0  0  0  0
 16 17  2  0  0  0  0
 18 19  1  0  0  0  0
 18 23  1  0  0  0  0
 18 37  1  0  0  0  0
 19 20  1  0  0  0  0
 20 21  1  0  0  0  0
 20 22  2  0  0  0  0
 21 38  1  0  0  0  0
 21 39  1  0  0  0  0
 21 40  1  0  0  0  0
 23 24  1  0  0  0  0
 23 41  1  0  0  0  0
 24 25  1  0  0  0  0
 25 26  1  0  0  0  0
 25 27  2  0  0  0  0
 26 42  1  0  0  0  0
 26 43  1  0  0  0  0
 26 44  1  0  0  0  0
M  END
> <s_m_source_file>
AV-unprocessed.smi

> <i_m_source_file_index>
102

> <i_lp_mmshare_version>
43012

> <i_f3d_flags>
0

> <s_epik_input>
W0NIM11DKD1PKU9bQ0gyXVtDQEBIXTFPW0NASF0oW0NAQEhdKE9DKD1PKVtDSDNdKVtDQEhdMU9DKD1PKVtDSDNdKW4yW2NIXWMoRiljKD1PKVtuSF1jMj1P

> <s_epik_cmdline>
J2VwaWtfcHl0aG9uJywgJy1waCcsICc3LjAnLCAnLXRuJywgJzgnLCAnLW1hJywgJzIwMCcsICctbWV0YWxfYmluZGluZycsICctaW1hZScsICc8aW5maWxlLm1hZT4nLCAnLW9tYWUnLCAnPG91dGZpbGUubWFlPic=

> <r_lp_tautomer_probability>
0.999537

> <r_epik_Ionization_Penalty>
0.058267

> <r_epik_Ionization_Penalty_Charging>
0.058267

> <r_epik_Ionization_Penalty_Neutral>
6.57791e-16

> <r_epik_State_Penalty>
0.0503774

> <r_epik_Charging_Adjusted_Penalty>
0.108644

> <i_epik_Tot_Q>
0

> <i_epik_Tot_abs_Q>
0

> <r_epik_Metal_State_Penalty>
2.6644

> <b_epik_Metal_Only>
0

> <s_epik_Chemistry_Notes>
This compound has an ester and may undergo hydrolysis at high or low pH. This compound contains an acetal/aminal-like group ( X-CH(R)-Y where X, Y are N, S, or O) that may be acid/base labile, releasing an aldehyde.

> <s_lp_Force_Field>
OPLS_2005

> <r_lp_Energy>
12.8015

> <b_lp_Chiralities_Consistent>
1

> <s_lp_Variant>
AV-unprocessed.smi:102-8

> <Gold.Version>
5.8.1

> <Gold.Id.Protein>
6NUR|6NUR_protein|mol2

> <Gold.PLP.Fitness>
49.2302

> <Gold.PLP.PLP>
-41.3649

> <Gold.PLP.part.hbond>
-4.0870

> <Gold.PLP.part.metal>
0.0000

> <Gold.PLP.part.buried>
-6.0681

> <Gold.PLP.part.nonpolar>
-30.5250

> <Gold.PLP.part.repulsive>
0.0201

> <Gold.PLP.ligand.clash>
0.0000

> <Gold.PLP.ligand.torsion>
0.6164

> <Gold.PLP.Chemscore.Hbond>
2.9913

> <Gold.PLP.Chemscore.CHOScore>
0.0000

> <Gold.PLP.Chemscore.Metal>
0.0000

> <Gold.Chemscore.Hbonds>
donor molecule, donor type, donor heavy atom, donor atom, acceptor molecule, acceptor atom, score
      P1  H  7997  8008       L1    27  1.00
      P1  H  7997  8010       L1    17  0.06

> <Gold.PLP.Chemscore.Internal.Correction>
0.1243

> <Gold.Rescore>
     Score         DG    S(hbond)    S(metal)    S(lipo)     H(rot)  DE(clash)    DE(int)     intcor
      3.60      -9.43       2.30        0.00      56.83       4.05       0.74       5.09       ----

> <Gold.Chemscore.Fitness>
3.5957

> <Gold.Chemscore.DG>
-9.4321

> <Gold.Chemscore.ZeroCoef>
-5.4800

> <Gold.Chemscore.Hbond>
2.2982

> <Gold.Chemscore.Metal>
0.0000

> <Gold.Chemscore.Lipo>
56.8298

> <Gold.Chemscore.Internal_Hbond>
0.0000

> <Gold.Chemscore.DEClash>
0.7439

> <Gold.Chemscore.DEInternal>
5.0925

> <Gold.Chemscore.Rot>
4.0520

> <Gold.Chemscore.Internal.Correction>
   9.000000E+99

> <Gold.Chemscore.Hbonds>
donor molecule, donor type, donor heavy atom, donor atom, acceptor molecule, acceptor atom, score
      P1  H  6896  6907       L1     7  0.02
      P1  H  7997  8008       L1    27  0.98
      P1  H  7997  8010       L1    17  0.10

> <Gold.Chemscore.Hbond.Weighted>
-7.6761

> <Gold.Chemscore.Metal.Weighted>
-0.0000

> <Gold.Chemscore.Lipo.Weighted>
-6.6491

> <Gold.Chemscore.Internal_Hbond.Weighted>
0.0000

> <Gold.Chemscore.DEClash.Weighted>
0.7439

> <Gold.Chemscore.DEInternal.Weighted>
5.0925

> <Gold.Chemscore.Rot.Weighted>
10.3732

> <Gold.Chemscore.Internal.Correction.Weighted>
   9.000000E+99

> <Gold.Protein.RotatedTorsions>
[ 6907 6896 6895 6894 ] final    6.69 input  -60.11 | X-H torsion
[ 7974 7965 7964 7962 ] final   38.83 input  175.53 | X-H torsion
[ 8008 7997 7996 7995 ] final  -39.39 input   59.86 | X-H torsion
[ 10167 10162 10161 10158 ] final   35.99 input  -65.29 | X-H torsion
[ 10718 10713 10712 10709 ] final  122.75 input   66.30 | X-H torsion
[ 10763 10752 10751 10750 ] final -161.02 input  -60.55 | X-H torsion
[ 11005 11000 10999 10996 ] final   68.77 input  -57.11 | X-H torsion

> <Gold.Protein.ActiveResidues>
 VAL166  LYS551  ARG553  GLY616  TRP617  ASP618  TYR619  PRO620  LYS621  CYS622 
 ASP623  PHE694  ASN695  SER759  ASP760  ASP761  ALA762  ILE779  LEU786  VAL792 
 PHE793  MET794  SER795  GLU796  ALA797  LYS798  CYS799  TRP800  GLU811  SER814 

> <Gold.Protein.RotatedAtoms>
  151.6778  135.0966  160.0209 H   0  0  0  0  0  0  0  0  0  0  0  0  # atno 6907 bound_to 6896
  152.3854  133.6599  159.6202 H   0  0  0  0  0  0  0  0  0  0  0  0  # atno 6908 bound_to 6896
  150.7780  133.8961  159.3369 H   0  0  0  0  0  0  0  0  0  0  0  0  # atno 6909 bound_to 6896
  146.1032  139.5725  142.9401 H   0  0  0  0  0  0  0  0  0  0  0  0  # atno 7974 bound_to 7965
  154.4023  140.1552  156.2856 H   0  0  0  0  0  0  0  0  0  0  0  0  # atno 8008 bound_to 7997
  155.8831  140.3443  155.5880 H   0  0  0  0  0  0  0  0  0  0  0  0  # atno 8009 bound_to 7997
  155.7645  140.0822  157.2129 H   0  0  0  0  0  0  0  0  0  0  0  0  # atno 8010 bound_to 7997
  140.4170  144.1513  150.6144 H   0  0  0  0  0  0  0  0  0  0  0  0  # atno 10167 bound_to 10162
  157.5718  131.1082  150.8352 H   0  0  0  0  0  0  0  0  0  0  0  0  # atno 10718 bound_to 10713
  154.7340  135.3053  154.8843 H   0  0  0  0  0  0  0  0  0  0  0  0  # atno 10763 bound_to 10752
  153.9677  135.6745  153.4750 H   0  0  0  0  0  0  0  0  0  0  0  0  # atno 10764 bound_to 10752
  153.0945  135.4942  154.8675 H   0  0  0  0  0  0  0  0  0  0  0  0  # atno 10765 bound_to 10752
  139.9692  134.6929  156.0482 H   0  0  0  0  0  0  0  0  0  0  0  0  # atno 11005 bound_to 11000
  145.5813  141.0382  143.2120 LP  0  0  0  0  0  0  0  0  0  0  0  0  # atno 17320 bound_to 7965
  144.7449  139.7347  143.7296 LP  0  0  0  0  0  0  0  0  0  0  0  0  # atno 17321 bound_to 7965
  140.4575  143.2462  151.9264 LP  0  0  0  0  0  0  0  0  0  0  0  0  # atno 17342 bound_to 10162
  139.4782  144.5500  151.8399 LP  0  0  0  0  0  0  0  0  0  0  0  0  # atno 17343 bound_to 10162
  156.8822  130.5183  149.5290 LP  0  0  0  0  0  0  0  0  0  0  0  0  # atno 17370 bound_to 10713
  156.0763  130.5785  150.9480 LP  0  0  0  0  0  0  0  0  0  0  0  0  # atno 17371 bound_to 10713
  141.1371  133.6572  156.3626 LP  0  0  0  0  0  0  0  0  0  0  0  0  # atno 17394 bound_to 11000
  140.5331  134.6194  157.5356 LP  0  0  0  0  0  0  0  0  0  0  0  0  # atno 17395 bound_to 11000

$$$$
