AV-unprocessed.smi:1244|AV-procd|sdf|5234|dock8
  -GOLD-   22720 4343D 1   1.00000     0.00000
 Structure written by MMmdl.
 56 58  0  0  0  0  0  0  0  0  3 V2000
  149.0500  141.1399  154.2334 C   0  0  0  0  0  0  0  0  0  0  0  0
  148.6238  139.6908  153.9736 C   0  0  1  0  0  0  0  0  0  0  0  0
  149.3521  138.7006  154.8999 C   0  0  0  0  0  0  0  0  0  0  0  0
  148.8537  137.3226  154.6822 N   0  3  1  0  0  0  0  0  0  0  0  0
  149.6009  136.3187  155.4807 C   0  0  0  0  0  0  0  0  0  0  0  0
  150.1112  135.1452  154.6225 C   0  0  0  0  0  0  0  0  0  0  0  0
  149.0108  134.4036  154.0176 N   0  0  0  0  0  0  0  0  0  0  0  0
  148.9391  133.0675  153.9355 C   0  0  0  0  0  0  0  0  0  0  0  0
  149.8020  132.3136  154.3846 O   0  0  0  0  0  0  0  0  0  0  0  0
  147.8251  132.6777  153.2927 N   0  0  0  0  0  0  0  0  0  0  0  0
  147.4169  131.3551  152.9556 C   0  0  0  0  0  0  0  0  0  0  0  0
  148.1075  130.2187  153.4513 C   0  0  0  0  0  0  0  0  0  0  0  0
  147.6934  128.9259  153.0798 C   0  0  0  0  0  0  0  0  0  0  0  0
  146.5909  128.7859  152.2202 C   0  0  0  0  0  0  0  0  0  0  0  0
  145.9414  129.8840  151.7826 N   0  3  0  0  0  0  0  0  0  0  0  0
  146.2813  131.1541  152.1167 C   0  0  0  0  0  0  0  0  0  0  0  0
  145.4952  132.2059  151.5924 N   0  0  0  0  0  0  0  0  0  0  0  0
  146.1245  133.3305  150.9093 C   0  0  0  0  0  0  0  0  0  0  0  0
  144.9836  134.0469  150.1914 C   0  0  0  0  0  0  0  0  0  0  0  0
  144.0696  132.8923  149.7927 C   0  0  0  0  0  0  0  0  0  0  0  0
  144.2276  131.8901  150.9414 C   0  0  0  0  0  0  0  0  0  0  0  0
  147.3845  137.2707  154.8853 C   0  0  0  0  0  0  0  0  0  0  0  0
  146.6625  138.3016  153.9953 C   0  0  2  0  0  0  0  0  0  0  0  0
  146.6180  137.9069  152.5080 C   0  0  0  0  0  0  0  0  0  0  0  0
  147.2187  139.6011  154.1942 O   0  0  0  0  0  0  0  0  0  0  0  0
  150.1196  141.2708  154.0675 H   0  0  0  0  0  0  0  0  0  0  0  0
  148.8308  141.4389  155.2589 H   0  0  0  0  0  0  0  0  0  0  0  0
  148.5253  141.8254  153.5673 H   0  0  0  0  0  0  0  0  0  0  0  0
  148.8501  139.4551  152.9335 H   0  0  0  0  0  0  0  0  0  0  0  0
  150.4243  138.7410  154.7030 H   0  0  0  0  0  0  0  0  0  0  0  0
  149.2072  138.9793  155.9452 H   0  0  0  0  0  0  0  0  0  0  0  0
  150.4608  136.8079  155.9408 H   0  0  0  0  0  0  0  0  0  0  0  0
  148.9771  135.9578  156.3000 H   0  0  0  0  0  0  0  0  0  0  0  0
  150.7397  135.5037  153.8084 H   0  0  0  0  0  0  0  0  0  0  0  0
  150.7307  134.4748  155.2207 H   0  0  0  0  0  0  0  0  0  0  0  0
  148.2601  134.9486  153.6186 H   0  0  0  0  0  0  0  0  0  0  0  0
  147.2580  133.4173  152.9049 H   0  0  0  0  0  0  0  0  0  0  0  0
  148.9496  130.3159  154.1192 H   0  0  0  0  0  0  0  0  0  0  0  0
  148.2160  128.0550  153.4484 H   0  0  0  0  0  0  0  0  0  0  0  0
  146.2048  127.8364  151.8787 H   0  0  0  0  0  0  0  0  0  0  0  0
  146.6355  133.9884  151.6131 H   0  0  0  0  0  0  0  0  0  0  0  0
  146.8520  132.9760  150.1778 H   0  0  0  0  0  0  0  0  0  0  0  0
  144.4641  134.7107  150.8841 H   0  0  0  0  0  0  0  0  0  0  0  0
  145.3214  134.6398  149.3410 H   0  0  0  0  0  0  0  0  0  0  0  0
  143.0352  133.2006  149.6383 H   0  0  0  0  0  0  0  0  0  0  0  0
  144.4286  132.4465  148.8641 H   0  0  0  0  0  0  0  0  0  0  0  0
  144.1955  130.8623  150.5771 H   0  0  0  0  0  0  0  0  0  0  0  0
  143.4211  132.0223  151.6631 H   0  0  0  0  0  0  0  0  0  0  0  0
  146.9954  136.2754  154.6736 H   0  0  0  0  0  0  0  0  0  0  0  0
  147.1639  137.4770  155.9341 H   0  0  0  0  0  0  0  0  0  0  0  0
  145.6278  138.3628  154.3337 H   0  0  0  0  0  0  0  0  0  0  0  0
  146.0705  136.9738  152.3725 H   0  0  0  0  0  0  0  0  0  0  0  0
  147.6121  137.7614  152.0861 H   0  0  0  0  0  0  0  0  0  0  0  0
  146.1127  138.6721  151.9182 H   0  0  0  0  0  0  0  0  0  0  0  0
  149.0286  137.1083  153.7106 H   0  0  0  0  0  0  0  0  0  0  0  0
  145.1381  129.7489  151.1685 H   0  0  0  0  0  0  0  0  0  0  0  0
  1  2  1  0  0  0  0
  1 26  1  0  0  0  0
  1 27  1  0  0  0  0
  1 28  1  0  0  0  0
  2 25  1  0  0  0  0
  2  3  1  0  0  0  0
  2 29  1  0  0  0  0
  3  4  1  0  0  0  0
  3 30  1  0  0  0  0
  3 31  1  0  0  0  0
  4  5  1  0  0  0  0
  4 22  1  0  0  0  0
  4 55  1  0  0  0  0
  5  6  1  0  0  0  0
  5 32  1  0  0  0  0
  5 33  1  0  0  0  0
  6  7  1  0  0  0  0
  6 34  1  0  0  0  0
  6 35  1  0  0  0  0
  7  8  1  0  0  0  0
  7 36  1  0  0  0  0
  8  9  2  0  0  0  0
  8 10  1  0  0  0  0
 10 11  1  0  0  0  0
 10 37  1  0  0  0  0
 11 16  1  0  0  0  0
 11 12  2  0  0  0  0
 12 13  1  0  0  0  0
 12 38  1  0  0  0  0
 13 14  2  0  0  0  0
 13 39  1  0  0  0  0
 14 15  1  0  0  0  0
 14 40  1  0  0  0  0
 15 16  2  0  0  0  0
 15 56  1  0  0  0  0
 16 17  1  0  0  0  0
 17 21  1  0  0  0  0
 17 18  1  0  0  0  0
 18 19  1  0  0  0  0
 18 41  1  0  0  0  0
 18 42  1  0  0  0  0
 19 20  1  0  0  0  0
 19 43  1  0  0  0  0
 19 44  1  0  0  0  0
 20 21  1  0  0  0  0
 20 45  1  0  0  0  0
 20 46  1  0  0  0  0
 21 47  1  0  0  0  0
 21 48  1  0  0  0  0
 22 23  1  0  0  0  0
 22 49  1  0  0  0  0
 22 50  1  0  0  0  0
 23 24  1  0  0  0  0
 23 25  1  0  0  0  0
 23 51  1  0  0  0  0
 24 52  1  0  0  0  0
 24 53  1  0  0  0  0
 24 54  1  0  0  0  0
M  CHG  1   4   1
M  CHG  1  15   1
M  END
> <s_m_source_file>
AV-unprocessed.smi

> <i_m_source_file_index>
1244

> <i_lp_mmshare_version>
43012

> <i_f3d_flags>
0

> <s_epik_input>
W0NIM11bQ0BASF0xW0NIMl1OKFtDSDJdW0NASF0oTzEpW0NIM10pW0NIMl1bQ0gyXVtOSF1DKD1PKVtOSF1jMltjSF1bY0hdW2NIXW5jMk4zW0NIMl1bQ0gyXVtDSDJdW0NIMl0z

> <s_epik_cmdline>
J2VwaWtfcHl0aG9uJywgJy1waCcsICc3LjAnLCAnLXRuJywgJzgnLCAnLW1hJywgJzIwMCcsICctbWV0YWxfYmluZGluZycsICctaW1hZScsICc8aW5maWxlLm1hZT4nLCAnLW9tYWUnLCAnPG91dGZpbGUubWFlPic=

> <r_lp_tautomer_probability>
0.999994

> <r_epik_Ionization_Penalty>
1.81601

> <r_epik_Ionization_Penalty_Charging>
1.81599

> <r_epik_Ionization_Penalty_Neutral>
2.01972e-05

> <r_epik_State_Penalty>
1.85672

> <r_epik_Charging_Adjusted_Penalty>
3.6727

> <i_epik_Tot_Q>
2

> <i_epik_Tot_abs_Q>
2

> <r_epik_Metal_State_Penalty>
1.93796

> <b_epik_Metal_Only>
0

> <s_lp_Force_Field>
OPLS_2005

> <r_lp_Energy>
54.6365

> <b_lp_Chiralities_Consistent>
1

> <s_lp_Variant>
AV-unprocessed.smi:1244-14

> <Gold.Version>
5.8.1

> <Gold.Id.Protein>
6NUR|6NUR_protein|mol2

> <Gold.PLP.Fitness>
41.1055

> <Gold.PLP.PLP>
-36.6837

> <Gold.PLP.part.hbond>
-2.0000

> <Gold.PLP.part.metal>
0.0000

> <Gold.PLP.part.buried>
-2.7931

> <Gold.PLP.part.nonpolar>
-32.6225

> <Gold.PLP.part.repulsive>
0.3409

> <Gold.PLP.ligand.clash>
0.0074

> <Gold.PLP.ligand.torsion>
1.0123

> <Gold.PLP.Chemscore.Hbond>
2.0094

> <Gold.PLP.Chemscore.CHOScore>
0.0000

> <Gold.PLP.Chemscore.Metal>
0.0000

> <Gold.Chemscore.Hbonds>
donor molecule, donor type, donor heavy atom, donor atom, acceptor molecule, acceptor atom, score
      L1  H     4    55       P1  7948  1.98
      L1  H     7    36       P1  7948  0.09

> <Gold.PLP.Chemscore.Internal.Correction>
0.4258

> <Gold.Rescore>
     Score         DG    S(hbond)    S(metal)    S(lipo)     H(rot)  DE(clash)    DE(int)     intcor
     12.34     -16.10       1.04        0.00      96.73       1.63       1.59       2.18       ----

> <Gold.Chemscore.Fitness>
12.3380

> <Gold.Chemscore.DG>
-16.1045

> <Gold.Chemscore.ZeroCoef>
-5.4800

> <Gold.Chemscore.Hbond>
1.0413

> <Gold.Chemscore.Metal>
0.0000

> <Gold.Chemscore.Lipo>
96.7292

> <Gold.Chemscore.Internal_Hbond>
0.0000

> <Gold.Chemscore.DEClash>
1.5908

> <Gold.Chemscore.DEInternal>
2.1757

> <Gold.Chemscore.Rot>
1.6293

> <Gold.Chemscore.Internal.Correction>
   9.000000E+99

> <Gold.Chemscore.Hbonds>
donor molecule, donor type, donor heavy atom, donor atom, acceptor molecule, acceptor atom, score
      L1  H     4    55       P1  7948  0.92
      L1  H     7    36       P1  7948  0.09

> <Gold.Chemscore.Hbond.Weighted>
-3.4781

> <Gold.Chemscore.Metal.Weighted>
-0.0000

> <Gold.Chemscore.Lipo.Weighted>
-11.3173

> <Gold.Chemscore.Internal_Hbond.Weighted>
0.0000

> <Gold.Chemscore.DEClash.Weighted>
1.5908

> <Gold.Chemscore.DEInternal.Weighted>
2.1757

> <Gold.Chemscore.Rot.Weighted>
4.1709

> <Gold.Chemscore.Internal.Correction.Weighted>
   9.000000E+99

> <Gold.Protein.RotatedTorsions>
[ 6907 6896 6895 6894 ] final   32.58 input  -60.11 | X-H torsion
[ 7974 7965 7964 7962 ] final -127.21 input  175.53 | X-H torsion
[ 8008 7997 7996 7995 ] final   96.86 input   59.86 | X-H torsion
[ 10167 10162 10161 10158 ] final  -95.81 input  -65.29 | X-H torsion
[ 10718 10713 10712 10709 ] final -148.96 input   66.30 | X-H torsion
[ 10763 10752 10751 10750 ] final  167.32 input  -60.55 | X-H torsion
[ 11005 11000 10999 10996 ] final    8.10 input  -57.11 | X-H torsion

> <Gold.Protein.ActiveResidues>
 VAL166  LYS551  ARG553  GLY616  TRP617  ASP618  TYR619  PRO620  LYS621  CYS622 
 ASP623  PHE694  ASN695  SER759  ASP760  ASP761  ALA762  ILE779  LEU786  VAL792 
 PHE793  MET794  SER795  GLU796  ALA797  LYS798  CYS799  TRP800  GLU811  SER814 

> <Gold.Protein.RotatedAtoms>
  152.0764  134.9500  160.0573 H   0  0  0  0  0  0  0  0  0  0  0  0  # atno 6907 bound_to 6896
  152.0805  133.4146  159.4507 H   0  0  0  0  0  0  0  0  0  0  0  0  # atno 6908 bound_to 6896
  150.6836  134.2907  159.4709 H   0  0  0  0  0  0  0  0  0  0  0  0  # atno 6909 bound_to 6896
  144.9794  140.7625  143.4621 H   0  0  0  0  0  0  0  0  0  0  0  0  # atno 7974 bound_to 7965
  156.0840  140.3266  155.7730 H   0  0  0  0  0  0  0  0  0  0  0  0  # atno 8008 bound_to 7997
  155.5106  140.0577  157.2941 H   0  0  0  0  0  0  0  0  0  0  0  0  # atno 8009 bound_to 7997
  154.4598  140.1961  156.0292 H   0  0  0  0  0  0  0  0  0  0  0  0  # atno 8010 bound_to 7997
  140.3003  143.3166  152.0255 H   0  0  0  0  0  0  0  0  0  0  0  0  # atno 10167 bound_to 10162
  156.4270  130.8057  151.2282 H   0  0  0  0  0  0  0  0  0  0  0  0  # atno 10718 bound_to 10713
  154.3520  135.2753  155.2367 H   0  0  0  0  0  0  0  0  0  0  0  0  # atno 10763 bound_to 10752
  154.4592  135.5911  153.6247 H   0  0  0  0  0  0  0  0  0  0  0  0  # atno 10764 bound_to 10752
  152.9849  135.6061  154.3732 H   0  0  0  0  0  0  0  0  0  0  0  0  # atno 10765 bound_to 10752
  140.5408  134.0376  155.7903 H   0  0  0  0  0  0  0  0  0  0  0  0  # atno 11005 bound_to 11000
  145.2443  139.2059  143.4976 LP  0  0  0  0  0  0  0  0  0  0  0  0  # atno 17320 bound_to 7965
  146.3404  140.2344  142.8594 LP  0  0  0  0  0  0  0  0  0  0  0  0  # atno 17321 bound_to 7965
  139.4916  144.6460  151.6777 LP  0  0  0  0  0  0  0  0  0  0  0  0  # atno 17342 bound_to 10162
  140.5656  144.0195  150.6191 LP  0  0  0  0  0  0  0  0  0  0  0  0  # atno 17343 bound_to 10162
  157.7508  131.0210  150.3732 LP  0  0  0  0  0  0  0  0  0  0  0  0  # atno 17370 bound_to 10713
  156.4061  130.3925  149.6924 LP  0  0  0  0  0  0  0  0  0  0  0  0  # atno 17371 bound_to 10713
  141.1228  133.9432  157.2695 LP  0  0  0  0  0  0  0  0  0  0  0  0  # atno 17394 bound_to 11000
  139.9505  135.0176  156.8980 LP  0  0  0  0  0  0  0  0  0  0  0  0  # atno 17395 bound_to 11000

$$$$
