AV-unprocessed.smi:2568|AV-procd|sdf|10096|dock2
  -GOLD-   2272014113D 1   1.00000     0.00000
 Structure written by MMmdl.
 24 25  0  0  0  0  0  0  0  0  1 V2000
  152.2417  143.0253  160.5233 C   0  0  0  0  0  0  0  0  0  0  0  0
  151.7512  142.7845  159.1362 C   0  0  0  0  0  0  0  0  0  0  0  0
  150.8333  143.5729  158.5797 N   0  0  0  0  0  0  0  0  0  0  0  0
  150.6875  143.0141  157.3598 N   0  0  0  0  0  0  0  0  0  0  0  0
  151.5006  141.9607  157.2541 C   0  0  0  0  0  0  0  0  0  0  0  0
  151.5575  141.1255  156.0139 C   0  0  2  0  0  0  0  0  0  0  0  0
  150.1580  140.7077  155.5216 C   0  0  0  0  0  0  0  0  0  0  0  0
  150.2731  139.8271  154.3604 N   0  0  0  0  0  0  0  0  0  0  0  0
  151.1191  138.6718  154.6563 C   0  0  0  0  0  0  0  0  0  0  0  0
  152.4920  139.1324  155.1794 C   0  0  0  0  0  0  0  0  0  0  0  0
  152.3150  139.9590  156.3249 O   0  0  0  0  0  0  0  0  0  0  0  0
  152.2088  141.7556  158.3614 N   0  0  0  0  0  0  0  0  0  0  0  0
  150.0510  143.3707  156.6614 H   0  0  0  0  0  0  0  0  0  0  0  0
  151.6125  143.7520  161.0384 H   0  0  0  0  0  0  0  0  0  0  0  0
  153.2624  143.4072  160.4995 H   0  0  0  0  0  0  0  0  0  0  0  0
  152.2322  142.0966  161.0942 H   0  0  0  0  0  0  0  0  0  0  0  0
  152.0735  141.6951  155.2383 H   0  0  0  0  0  0  0  0  0  0  0  0
  149.6231  140.1943  156.3217 H   0  0  0  0  0  0  0  0  0  0  0  0
  149.5702  141.5896  155.2658 H   0  0  0  0  0  0  0  0  0  0  0  0
  149.3502  139.5097  154.0814 H   0  0  0  0  0  0  0  0  0  0  0  0
  150.6369  138.0405  155.4035 H   0  0  0  0  0  0  0  0  0  0  0  0
  151.2434  138.0601  153.7624 H   0  0  0  0  0  0  0  0  0  0  0  0
  153.0953  138.2685  155.4583 H   0  0  0  0  0  0  0  0  0  0  0  0
  153.0448  139.6703  154.4073 H   0  0  0  0  0  0  0  0  0  0  0  0
  1  2  1  0  0  0  0
  1 14  1  0  0  0  0
  1 15  1  0  0  0  0
  1 16  1  0  0  0  0
  2 12  1  0  0  0  0
  2  3  2  0  0  0  0
  3  4  1  0  0  0  0
  4 13  1  0  0  0  0
  4  5  1  0  0  0  0
  5  6  1  0  0  0  0
  5 12  2  0  0  0  0
  6 11  1  0  0  0  0
  6  7  1  0  0  0  0
  6 17  1  0  0  0  0
  7  8  1  0  0  0  0
  7 18  1  0  0  0  0
  7 19  1  0  0  0  0
  8  9  1  0  0  0  0
  8 20  1  0  0  0  0
  9 10  1  0  0  0  0
  9 21  1  0  0  0  0
  9 22  1  0  0  0  0
 10 11  1  0  0  0  0
 10 23  1  0  0  0  0
 10 24  1  0  0  0  0
M  END
> <s_m_source_file>
AV-unprocessed.smi

> <i_m_source_file_index>
2568

> <i_lp_mmshare_version>
43012

> <i_f3d_flags>
0

> <s_epik_input>
W0NIM11jMW5bbkhdYyhuMSlbQ0BASF0yW0NIMl1bTkhdW0NIMl1bQ0gyXU8y

> <s_epik_cmdline>
J2VwaWtfcHl0aG9uJywgJy1waCcsICc3LjAnLCAnLXRuJywgJzgnLCAnLW1hJywgJzIwMCcsICctbWV0YWxfYmluZGluZycsICctaW1hZScsICc8aW5maWxlLm1hZT4nLCAnLW9tYWUnLCAnPG91dGZpbGUubWFlPic=

> <r_lp_tautomer_probability>
0.948284

> <r_epik_Ionization_Penalty>
0.982563

> <r_epik_Ionization_Penalty_Charging>
0

> <r_epik_Ionization_Penalty_Neutral>
0.982563

> <r_epik_State_Penalty>
2.21233

> <r_epik_Charging_Adjusted_Penalty>
2.21233

> <i_epik_Tot_Q>
0

> <i_epik_Tot_abs_Q>
0

> <r_epik_Metal_State_Penalty>
2.51138

> <b_epik_Metal_Only>
0

> <s_lp_Force_Field>
OPLS_2005

> <r_lp_Energy>
12.795

> <b_lp_Chiralities_Consistent>
1

> <s_lp_Variant>
AV-unprocessed.smi:2568-9

> <Gold.Version>
5.8.1

> <Gold.Id.Protein>
6NUR|6NUR_protein|mol2

> <Gold.PLP.Fitness>
27.8985

> <Gold.PLP.PLP>
-21.7124

> <Gold.PLP.part.hbond>
-3.2779

> <Gold.PLP.part.metal>
0.0000

> <Gold.PLP.part.buried>
-4.0826

> <Gold.PLP.part.nonpolar>
-14.1460

> <Gold.PLP.part.repulsive>
0.1266

> <Gold.PLP.ligand.clash>
0.0000

> <Gold.PLP.ligand.torsion>
0.2094

> <Gold.PLP.Chemscore.Hbond>
2.2013

> <Gold.PLP.Chemscore.CHOScore>
0.0000

> <Gold.PLP.Chemscore.Metal>
0.0000

> <Gold.Chemscore.Hbonds>
donor molecule, donor type, donor heavy atom, donor atom, acceptor molecule, acceptor atom, score
      L1  H     4    13       P1  8028  0.98
      P1  H  7989  7998       L1     8  0.64
      P1  H  7997  8008       L1    11  0.48

> <Gold.PLP.Chemscore.Internal.Correction>
0.0009

> <Gold.Rescore>
     Score         DG    S(hbond)    S(metal)    S(lipo)     H(rot)  DE(clash)    DE(int)     intcor
     11.05     -11.19       1.04        0.00      40.99       1.00       0.07       0.07       ----

> <Gold.Chemscore.Fitness>
11.0520

> <Gold.Chemscore.DG>
-11.1909

> <Gold.Chemscore.ZeroCoef>
-5.4800

> <Gold.Chemscore.Hbond>
1.0404

> <Gold.Chemscore.Metal>
0.0000

> <Gold.Chemscore.Lipo>
40.9924

> <Gold.Chemscore.Internal_Hbond>
0.0000

> <Gold.Chemscore.DEClash>
0.0664

> <Gold.Chemscore.DEInternal>
0.0726

> <Gold.Chemscore.Rot>
1.0000

> <Gold.Chemscore.Internal.Correction>
   9.000000E+99

> <Gold.Chemscore.Hbonds>
donor molecule, donor type, donor heavy atom, donor atom, acceptor molecule, acceptor atom, score
      L1  H     4    13       P1  8028  0.92
      P1  H  7989  7998       L1     8  0.01
      P1  H  7997  8008       L1    11  0.03

> <Gold.Chemscore.Hbond.Weighted>
-3.4748

> <Gold.Chemscore.Metal.Weighted>
-0.0000

> <Gold.Chemscore.Lipo.Weighted>
-4.7961

> <Gold.Chemscore.Internal_Hbond.Weighted>
0.0000

> <Gold.Chemscore.DEClash.Weighted>
0.0664

> <Gold.Chemscore.DEInternal.Weighted>
0.0726

> <Gold.Chemscore.Rot.Weighted>
2.5600

> <Gold.Chemscore.Internal.Correction.Weighted>
   9.000000E+99

> <Gold.Protein.RotatedTorsions>
[ 6907 6896 6895 6894 ] final   23.20 input  -60.11 | X-H torsion
[ 7974 7965 7964 7962 ] final  -92.71 input  175.53 | X-H torsion
[ 8008 7997 7996 7995 ] final  -62.79 input   59.86 | X-H torsion
[ 10167 10162 10161 10158 ] final  -58.96 input  -65.29 | X-H torsion
[ 10718 10713 10712 10709 ] final  174.06 input   66.30 | X-H torsion
[ 10763 10752 10751 10750 ] final  165.54 input  -60.55 | X-H torsion
[ 11005 11000 10999 10996 ] final -173.33 input  -57.11 | X-H torsion

> <Gold.Protein.ActiveResidues>
 VAL166  LYS551  ARG553  GLY616  TRP617  ASP618  TYR619  PRO620  LYS621  CYS622 
 ASP623  PHE694  ASN695  SER759  ASP760  ASP761  ALA762  ILE779  LEU786  VAL792 
 PHE793  MET794  SER795  GLU796  ALA797  LYS798  CYS799  TRP800  GLU811  SER814 

> <Gold.Protein.RotatedAtoms>
  151.9388  135.0223  160.0534 H   0  0  0  0  0  0  0  0  0  0  0  0  # atno 6907 bound_to 6896
  152.2055  133.4867  159.5090 H   0  0  0  0  0  0  0  0  0  0  0  0  # atno 6908 bound_to 6896
  150.6964  134.1452  159.4162 H   0  0  0  0  0  0  0  0  0  0  0  0  # atno 6909 bound_to 6896
  145.3962  140.9533  143.2313 H   0  0  0  0  0  0  0  0  0  0  0  0  # atno 7974 bound_to 7965
  154.4519  140.0988  156.6643 H   0  0  0  0  0  0  0  0  0  0  0  0  # atno 8008 bound_to 7997
  155.5259  140.3480  155.4398 H   0  0  0  0  0  0  0  0  0  0  0  0  # atno 8009 bound_to 7997
  156.0698  140.1346  156.9831 H   0  0  0  0  0  0  0  0  0  0  0  0  # atno 8010 bound_to 7997
  140.6165  143.2404  151.5585 H   0  0  0  0  0  0  0  0  0  0  0  0  # atno 10167 bound_to 10162
  156.9552  131.0043  151.2940 H   0  0  0  0  0  0  0  0  0  0  0  0  # atno 10718 bound_to 10713
  154.3255  135.2755  155.2498 H   0  0  0  0  0  0  0  0  0  0  0  0  # atno 10763 bound_to 10752
  154.4833  135.5853  153.6408 H   0  0  0  0  0  0  0  0  0  0  0  0  # atno 10764 bound_to 10752
  152.9872  135.6116  154.3443 H   0  0  0  0  0  0  0  0  0  0  0  0  # atno 10765 bound_to 10752
  140.4869  134.6022  157.4940 H   0  0  0  0  0  0  0  0  0  0  0  0  # atno 11005 bound_to 11000
  144.8406  139.5479  143.6902 LP  0  0  0  0  0  0  0  0  0  0  0  0  # atno 17320 bound_to 7965
  146.2774  139.6788  142.9253 LP  0  0  0  0  0  0  0  0  0  0  0  0  # atno 17321 bound_to 7965
  139.5403  144.2667  152.1336 LP  0  0  0  0  0  0  0  0  0  0  0  0  # atno 17342 bound_to 10162
  140.1877  144.4782  150.6495 LP  0  0  0  0  0  0  0  0  0  0  0  0  # atno 17343 bound_to 10162
  157.5695  130.8300  149.8372 LP  0  0  0  0  0  0  0  0  0  0  0  0  # atno 17370 bound_to 10713
  156.0345  130.3755  150.1596 LP  0  0  0  0  0  0  0  0  0  0  0  0  # atno 17371 bound_to 10713
  139.9792  134.7164  155.9891 LP  0  0  0  0  0  0  0  0  0  0  0  0  # atno 17394 bound_to 11000
  141.1503  133.6549  156.3994 LP  0  0  0  0  0  0  0  0  0  0  0  0  # atno 17395 bound_to 11000

$$$$
