AV-unprocessed.smi:1410|AV-procd|sdf|5736|dock6
  -GOLD-   22720 5373D 1   1.00000     0.00000
 Structure written by MMmdl.
 39 40  0  0  0  0  0  0  0  0  3 V2000
  149.8283  140.1058  153.7298 N   0  5  0  0  0  0  0  0  0  0  0  0
  149.7779  138.9613  154.4377 C   0  0  0  0  0  0  0  0  0  0  0  0
  150.7112  138.2291  154.7592 O   0  0  0  0  0  0  0  0  0  0  0  0
  148.3477  138.5817  154.8343 C   0  0  0  0  0  0  0  0  0  0  0  0
  147.6563  137.9146  153.7023 N   0  3  2  0  0  0  0  0  0  0  0  0
  147.1762  138.8681  152.6651 C   0  0  0  0  0  0  0  0  0  0  0  0
  146.5756  138.1240  151.4599 C   0  0  0  0  0  0  0  0  0  0  0  0
  145.4414  137.1692  151.8800 C   0  0  2  0  0  0  0  0  0  0  0  0
  144.2547  137.9000  152.3239 N   0  0  0  0  0  0  0  0  0  0  0  0
  143.1103  137.3404  152.7429 C   0  0  0  0  0  0  0  0  0  0  0  0
  142.9372  136.1239  152.8102 O   0  0  0  0  0  0  0  0  0  0  0  0
  142.1966  138.2782  153.0483 N   0  0  0  0  0  0  0  0  0  0  0  0
  140.8587  138.1052  153.4960 C   0  0  0  0  0  0  0  0  0  0  0  0
  140.4450  136.7998  153.8333 C   0  0  0  0  0  0  0  0  0  0  0  0
  139.1197  136.5981  154.2677 C   0  0  0  0  0  0  0  0  0  0  0  0
  138.2137  137.5928  154.3711 N   0  0  0  0  0  0  0  0  0  0  0  0
  138.6070  138.8393  154.0341 C   0  0  0  0  0  0  0  0  0  0  0  0
  139.9076  139.1498  153.5887 C   0  0  0  0  0  0  0  0  0  0  0  0
  145.9450  136.2341  152.9925 C   0  0  0  0  0  0  0  0  0  0  0  0
  146.5698  137.0136  154.1649 C   0  0  0  0  0  0  0  0  0  0  0  0
  149.4398  140.1141  152.7790 H   0  0  0  0  0  0  0  0  0  0  0  0
  148.4279  137.8945  155.6777 H   0  0  0  0  0  0  0  0  0  0  0  0
  147.7666  139.4365  155.1879 H   0  0  0  0  0  0  0  0  0  0  0  0
  146.4373  139.5422  153.1009 H   0  0  0  0  0  0  0  0  0  0  0  0
  147.9989  139.4920  152.3156 H   0  0  0  0  0  0  0  0  0  0  0  0
  146.2219  138.8400  150.7173 H   0  0  0  0  0  0  0  0  0  0  0  0
  147.3629  137.5498  150.9697 H   0  0  0  0  0  0  0  0  0  0  0  0
  145.1595  136.5555  151.0224 H   0  0  0  0  0  0  0  0  0  0  0  0
  144.3071  138.9078  152.3020 H   0  0  0  0  0  0  0  0  0  0  0  0
  142.4698  139.2340  152.8742 H   0  0  0  0  0  0  0  0  0  0  0  0
  141.1282  135.9656  153.7685 H   0  0  0  0  0  0  0  0  0  0  0  0
  138.7783  135.6097  154.5380 H   0  0  0  0  0  0  0  0  0  0  0  0
  137.8599  139.6149  154.1166 H   0  0  0  0  0  0  0  0  0  0  0  0
  140.1398  140.1686  153.3209 H   0  0  0  0  0  0  0  0  0  0  0  0
  145.1323  135.6020  153.3528 H   0  0  0  0  0  0  0  0  0  0  0  0
  146.6932  135.5571  152.5781 H   0  0  0  0  0  0  0  0  0  0  0  0
  146.9676  136.3032  154.8906 H   0  0  0  0  0  0  0  0  0  0  0  0
  145.8081  137.5991  154.6820 H   0  0  0  0  0  0  0  0  0  0  0  0
  148.3499  137.3264  153.2628 H   0  0  0  0  0  0  0  0  0  0  0  0
  1  2  1  0  0  0  0
  1 21  1  0  0  0  0
  2  3  2  0  0  0  0
  2  4  1  0  0  0  0
  4  5  1  0  0  0  0
  4 22  1  0  0  0  0
  4 23  1  0  0  0  0
  5 20  1  0  0  0  0
  5  6  1  0  0  0  0
  5 39  1  0  0  0  0
  6  7  1  0  0  0  0
  6 24  1  0  0  0  0
  6 25  1  0  0  0  0
  7  8  1  0  0  0  0
  7 26  1  0  0  0  0
  7 27  1  0  0  0  0
  8  9  1  0  0  0  0
  8 19  1  0  0  0  0
  8 28  1  0  0  0  0
  9 10  1  0  0  0  0
  9 29  1  0  0  0  0
 10 11  2  0  0  0  0
 10 12  1  0  0  0  0
 12 13  1  0  0  0  0
 12 30  1  0  0  0  0
 13 18  1  0  0  0  0
 13 14  2  0  0  0  0
 14 15  1  0  0  0  0
 14 31  1  0  0  0  0
 15 16  2  0  0  0  0
 15 32  1  0  0  0  0
 16 17  1  0  0  0  0
 17 18  2  0  0  0  0
 17 33  1  0  0  0  0
 18 34  1  0  0  0  0
 19 20  1  0  0  0  0
 19 35  1  0  0  0  0
 19 36  1  0  0  0  0
 20 37  1  0  0  0  0
 20 38  1  0  0  0  0
M  CHG  1   1  -1
M  CHG  1   5   1
M  END
> <s_m_source_file>
AV-unprocessed.smi

> <i_m_source_file_index>
1410

> <i_lp_mmshare_version>
43012

> <i_f3d_flags>
0

> <s_epik_input>
W05IMl1DKD1PKVtDSDJdTjFbQ0gyXVtDSDJdW0NIXShbQ0gyXVtDSDJdMSlbTkhdQyg9TylbTkhdYzJbY0hdW2NIXW5bY0hdW2NIXTI=

> <s_epik_cmdline>
J2VwaWtfcHl0aG9uJywgJy1waCcsICc3LjAnLCAnLXRuJywgJzgnLCAnLW1hJywgJzIwMCcsICctbWV0YWxfYmluZGluZycsICctaW1hZScsICc8aW5maWxlLm1hZT4nLCAnLW9tYWUnLCAnPG91dGZpbGUubWFlPic=

> <r_epik_Ionization_Penalty>
5.8279

> <r_epik_Ionization_Penalty_Charging>
5.7288

> <r_epik_Ionization_Penalty_Neutral>
0.0990993

> <r_epik_State_Penalty>
6.63321

> <r_epik_Charging_Adjusted_Penalty>
12.362

> <i_epik_Tot_Q>
0

> <i_epik_Tot_abs_Q>
2

> <r_epik_Metal_State_Penalty>
2.69435

> <b_epik_Metal_Only>
1

> <s_lp_Force_Field>
OPLS_2005

> <r_lp_Energy>
12.1382

> <b_lp_Chiralities_Consistent>
1

> <s_lp_Variant>
AV-unprocessed.smi:1410-8

> <Gold.Version>
5.8.1

> <Gold.Id.Protein>
6NUR|6NUR_protein|mol2

> <Gold.PLP.Fitness>
47.3124

> <Gold.PLP.PLP>
-31.1817

> <Gold.PLP.part.hbond>
-6.0000

> <Gold.PLP.part.metal>
0.0000

> <Gold.PLP.part.buried>
2.5173

> <Gold.PLP.part.nonpolar>
-27.6237

> <Gold.PLP.part.repulsive>
0.4593

> <Gold.PLP.ligand.clash>
0.0000

> <Gold.PLP.ligand.torsion>
0.5527

> <Gold.PLP.Chemscore.Hbond>
5.7360

> <Gold.PLP.Chemscore.CHOScore>
0.0000

> <Gold.PLP.Chemscore.Metal>
0.0000

> <Gold.Chemscore.Hbonds>
donor molecule, donor type, donor heavy atom, donor atom, acceptor molecule, acceptor atom, score
      L1  H     1    21       P1  7957  1.00
      L1  H     5    39       P1  7948  2.00
      L1  H     9    29       P1 10175  1.00
      L1  H    12    30       P1 10175  1.00
      P1  H  7989  7998       L1     1  0.72

> <Gold.PLP.Chemscore.Internal.Correction>
0.0281

> <Gold.Rescore>
     Score         DG    S(hbond)    S(metal)    S(lipo)     H(rot)  DE(clash)    DE(int)     intcor
     18.14     -22.17       4.18        0.00      65.76       1.94       1.14       2.89       ----

> <Gold.Chemscore.Fitness>
18.1354

> <Gold.Chemscore.DG>
-22.1660

> <Gold.Chemscore.ZeroCoef>
-5.4800

> <Gold.Chemscore.Hbond>
4.1761

> <Gold.Chemscore.Metal>
0.0000

> <Gold.Chemscore.Lipo>
65.7624

> <Gold.Chemscore.Internal_Hbond>
0.0000

> <Gold.Chemscore.DEClash>
1.1371

> <Gold.Chemscore.DEInternal>
2.8935

> <Gold.Chemscore.Rot>
1.9361

> <Gold.Chemscore.Internal.Correction>
   9.000000E+99

> <Gold.Chemscore.Hbonds>
donor molecule, donor type, donor heavy atom, donor atom, acceptor molecule, acceptor atom, score
      L1  H     1    21       P1  7957  0.95
      L1  H     5    39       P1  7948  0.97
      L1  H     9    29       P1 10175  0.97
      L1  H    12    30       P1 10175  0.97
      P1  H  7989  7998       L1     1  0.23

> <Gold.Chemscore.Hbond.Weighted>
-13.9481

> <Gold.Chemscore.Metal.Weighted>
-0.0000

> <Gold.Chemscore.Lipo.Weighted>
-7.6942

> <Gold.Chemscore.Internal_Hbond.Weighted>
0.0000

> <Gold.Chemscore.DEClash.Weighted>
1.1371

> <Gold.Chemscore.DEInternal.Weighted>
2.8935

> <Gold.Chemscore.Rot.Weighted>
4.9563

> <Gold.Chemscore.Internal.Correction.Weighted>
   9.000000E+99

> <Gold.Protein.RotatedTorsions>
[ 6907 6896 6895 6894 ] final -159.56 input  -60.11 | X-H torsion
[ 7974 7965 7964 7962 ] final  138.77 input  175.53 | X-H torsion
[ 8008 7997 7996 7995 ] final -139.90 input   59.86 | X-H torsion
[ 10167 10162 10161 10158 ] final  -60.06 input  -65.29 | X-H torsion
[ 10718 10713 10712 10709 ] final   -3.48 input   66.30 | X-H torsion
[ 10763 10752 10751 10750 ] final   53.39 input  -60.55 | X-H torsion
[ 11005 11000 10999 10996 ] final  142.06 input  -57.11 | X-H torsion

> <Gold.Protein.ActiveResidues>
 VAL166  LYS551  ARG553  GLY616  TRP617  ASP618  TYR619  PRO620  LYS621  CYS622 
 ASP623  PHE694  ASN695  SER759  ASP760  ASP761  ALA762  ILE779  LEU786  VAL792 
 PHE793  MET794  SER795  GLU796  ALA797  LYS798  CYS799  TRP800  GLU811  SER814 

> <Gold.Protein.RotatedAtoms>
  151.3355  133.3983  159.2666 H   0  0  0  0  0  0  0  0  0  0  0  0  # atno 6907 bound_to 6896
  150.9921  134.9254  159.7916 H   0  0  0  0  0  0  0  0  0  0  0  0  # atno 6908 bound_to 6896
  152.5250  134.3320  159.9238 H   0  0  0  0  0  0  0  0  0  0  0  0  # atno 6909 bound_to 6896
  144.9341  139.5011  143.5604 H   0  0  0  0  0  0  0  0  0  0  0  0  # atno 7974 bound_to 7965
  155.4524  140.0539  157.3000 H   0  0  0  0  0  0  0  0  0  0  0  0  # atno 8008 bound_to 7997
  154.4771  140.2066  155.9807 H   0  0  0  0  0  0  0  0  0  0  0  0  # atno 8009 bound_to 7997
  156.1149  140.3198  155.8130 H   0  0  0  0  0  0  0  0  0  0  0  0  # atno 8010 bound_to 7997
  140.6096  143.2383  151.5741 H   0  0  0  0  0  0  0  0  0  0  0  0  # atno 10167 bound_to 10162
  156.7754  130.5313  149.5760 H   0  0  0  0  0  0  0  0  0  0  0  0  # atno 10718 bound_to 10713
  152.9795  135.5780  154.4734 H   0  0  0  0  0  0  0  0  0  0  0  0  # atno 10763 bound_to 10752
  154.4294  135.2773  155.1925 H   0  0  0  0  0  0  0  0  0  0  0  0  # atno 10764 bound_to 10752
  154.3640  135.6182  153.5759 H   0  0  0  0  0  0  0  0  0  0  0  0  # atno 10765 bound_to 10752
  140.0448  134.9286  157.0910 H   0  0  0  0  0  0  0  0  0  0  0  0  # atno 11005 bound_to 11000
  146.3259  139.8312  142.8908 LP  0  0  0  0  0  0  0  0  0  0  0  0  # atno 17320 bound_to 7965
  145.3095  141.0216  143.3562 LP  0  0  0  0  0  0  0  0  0  0  0  0  # atno 17321 bound_to 7965
  139.5351  144.2805  152.1233 LP  0  0  0  0  0  0  0  0  0  0  0  0  # atno 17342 bound_to 10162
  140.2001  144.4666  150.6435 LP  0  0  0  0  0  0  0  0  0  0  0  0  # atno 17343 bound_to 10162
  156.1252  130.6138  151.0252 LP  0  0  0  0  0  0  0  0  0  0  0  0  # atno 17370 bound_to 10713
  157.6671  131.0869  150.7701 LP  0  0  0  0  0  0  0  0  0  0  0  0  # atno 17371 bound_to 10713
  140.4010  134.2082  155.7163 LP  0  0  0  0  0  0  0  0  0  0  0  0  # atno 17394 bound_to 11000
  141.1901  133.8223  157.0929 LP  0  0  0  0  0  0  0  0  0  0  0  0  # atno 17395 bound_to 11000

$$$$
