AV-unprocessed.smi:1445|AV-procd|sdf|5888|dock2
  -GOLD-   22720 5573D 1   1.00000     0.00000
 Structure written by MMmdl.
 46 47  0  0  0  0  0  0  0  0  2 V2000
  151.8611  137.9131  154.3062 C   0  0  0  0  0  0  0  0  0  0  0  0
  150.5002  138.1194  153.9440 O   0  0  0  0  0  0  0  0  0  0  0  0
  149.8777  139.2837  154.3529 C   0  0  0  0  0  0  0  0  0  0  0  0
  150.6199  140.2232  154.9909 N   0  0  0  0  0  0  0  0  0  0  0  0
  150.0135  141.3608  155.3879 C   0  0  0  0  0  0  0  0  0  0  0  0
  148.6491  141.6241  155.1673 C   0  0  0  0  0  0  0  0  0  0  0  0
  147.8772  140.6514  154.5057 C   0  0  0  0  0  0  0  0  0  0  0  0
  148.4961  139.4454  154.0965 C   0  0  0  0  0  0  0  0  0  0  0  0
  147.8137  138.4070  153.4055 N   0  0  0  0  0  0  0  0  0  0  0  0
  146.4919  138.1759  153.3411 C   0  0  0  0  0  0  0  0  0  0  0  0
  145.6219  138.8493  153.8932 O   0  0  0  0  0  0  0  0  0  0  0  0
  146.2250  137.0858  152.6082 N   0  0  0  0  0  0  0  0  0  0  0  0
  144.8900  136.5548  152.3587 C   0  0  0  0  0  0  0  0  0  0  0  0
  144.6609  135.2288  153.1095 C   0  0  0  0  0  0  0  0  0  0  0  0
  144.9929  134.0424  152.2808 N   0  3  2  0  0  0  0  0  0  0  0  0
  146.4589  133.8771  152.1023 C   0  0  0  0  0  0  0  0  0  0  0  0
  146.7836  132.5698  151.3628 C   0  0  0  0  0  0  0  0  0  0  0  0
  146.0633  132.5115  150.0103 C   0  0  0  0  0  0  0  0  0  0  0  0
  144.5509  132.7119  150.2038 C   0  0  2  0  0  0  0  0  0  0  0  0
  143.8060  132.6869  148.8616 C   0  0  0  0  0  0  0  0  0  0  0  0
  144.2784  134.0191  150.9755 C   0  0  0  0  0  0  0  0  0  0  0  0
  152.1988  136.9563  153.9082 H   0  0  0  0  0  0  0  0  0  0  0  0
  151.9845  137.8823  155.3897 H   0  0  0  0  0  0  0  0  0  0  0  0
  152.5071  138.6892  153.8932 H   0  0  0  0  0  0  0  0  0  0  0  0
  150.6362  142.0857  155.8910 H   0  0  0  0  0  0  0  0  0  0  0  0
  148.2060  142.5536  155.4931 H   0  0  0  0  0  0  0  0  0  0  0  0
  146.8349  140.8542  154.3132 H   0  0  0  0  0  0  0  0  0  0  0  0
  148.4091  137.7151  152.9739 H   0  0  0  0  0  0  0  0  0  0  0  0
  147.0007  136.5899  152.1931 H   0  0  0  0  0  0  0  0  0  0  0  0
  144.1367  137.2914  152.6439 H   0  0  0  0  0  0  0  0  0  0  0  0
  144.7963  136.4155  151.2826 H   0  0  0  0  0  0  0  0  0  0  0  0
  145.2329  135.2044  154.0384 H   0  0  0  0  0  0  0  0  0  0  0  0
  143.6094  135.1755  153.3959 H   0  0  0  0  0  0  0  0  0  0  0  0
  146.8583  134.7311  151.5526 H   0  0  0  0  0  0  0  0  0  0  0  0
  146.9523  133.8667  153.0751 H   0  0  0  0  0  0  0  0  0  0  0  0
  147.8605  132.4825  151.2154 H   0  0  0  0  0  0  0  0  0  0  0  0
  146.4851  131.7177  151.9751 H   0  0  0  0  0  0  0  0  0  0  0  0
  146.4607  133.2830  149.3489 H   0  0  0  0  0  0  0  0  0  0  0  0
  146.2600  131.5542  149.5263 H   0  0  0  0  0  0  0  0  0  0  0  0
  144.1741  131.8815  150.8032 H   0  0  0  0  0  0  0  0  0  0  0  0
  144.1297  133.5014  148.2126 H   0  0  0  0  0  0  0  0  0  0  0  0
  142.7298  132.7850  149.0076 H   0  0  0  0  0  0  0  0  0  0  0  0
  143.9817  131.7498  148.3321 H   0  0  0  0  0  0  0  0  0  0  0  0
  143.2052  134.1152  151.1348 H   0  0  0  0  0  0  0  0  0  0  0  0
  144.5853  134.8806  150.3797 H   0  0  0  0  0  0  0  0  0  0  0  0
  144.6823  133.2354  152.8031 H   0  0  0  0  0  0  0  0  0  0  0  0
  1  2  1  0  0  0  0
  1 22  1  0  0  0  0
  1 23  1  0  0  0  0
  1 24  1  0  0  0  0
  2  3  1  0  0  0  0
  3  8  1  0  0  0  0
  3  4  2  0  0  0  0
  4  5  1  0  0  0  0
  5  6  2  0  0  0  0
  5 25  1  0  0  0  0
  6  7  1  0  0  0  0
  6 26  1  0  0  0  0
  7  8  2  0  0  0  0
  7 27  1  0  0  0  0
  8  9  1  0  0  0  0
  9 10  1  0  0  0  0
  9 28  1  0  0  0  0
 10 11  2  0  0  0  0
 10 12  1  0  0  0  0
 12 13  1  0  0  0  0
 12 29  1  0  0  0  0
 13 14  1  0  0  0  0
 13 30  1  0  0  0  0
 13 31  1  0  0  0  0
 14 15  1  0  0  0  0
 14 32  1  0  0  0  0
 14 33  1  0  0  0  0
 15 21  1  0  0  0  0
 15 16  1  0  0  0  0
 15 46  1  0  0  0  0
 16 17  1  0  0  0  0
 16 34  1  0  0  0  0
 16 35  1  0  0  0  0
 17 18  1  0  0  0  0
 17 36  1  0  0  0  0
 17 37  1  0  0  0  0
 18 19  1  0  0  0  0
 18 38  1  0  0  0  0
 18 39  1  0  0  0  0
 19 20  1  0  0  0  0
 19 21  1  0  0  0  0
 19 40  1  0  0  0  0
 20 41  1  0  0  0  0
 20 42  1  0  0  0  0
 20 43  1  0  0  0  0
 21 44  1  0  0  0  0
 21 45  1  0  0  0  0
M  CHG  1  15   1
M  END
> <s_m_source_file>
AV-unprocessed.smi

> <i_m_source_file_index>
1445

> <i_lp_mmshare_version>
43012

> <i_f3d_flags>
0

> <s_epik_input>
W0NIM11PYzFuW2NIXVtjSF1bY0hdYzFbTkhdQyg9TylbTkhdW0NIMl1bQ0gyXU4yW0NIMl1bQ0gyXVtDSDJdW0NAQEhdKFtDSDNdKVtDSDJdMg==

> <s_epik_cmdline>
J2VwaWtfcHl0aG9uJywgJy1waCcsICc3LjAnLCAnLXRuJywgJzgnLCAnLW1hJywgJzIwMCcsICctbWV0YWxfYmluZGluZycsICctaW1hZScsICc8aW5maWxlLm1hZT4nLCAnLW9tYWUnLCAnPG91dGZpbGUubWFlPic=

> <r_lp_tautomer_probability>
1

> <r_epik_Ionization_Penalty>
0.00179544

> <r_epik_Ionization_Penalty_Charging>
0.00171832

> <r_epik_Ionization_Penalty_Neutral>
7.71118e-05

> <r_epik_State_Penalty>
0.0011618

> <r_epik_Charging_Adjusted_Penalty>
0.00288012

> <i_epik_Tot_Q>
1

> <i_epik_Tot_abs_Q>
1

> <r_epik_Metal_State_Penalty>
-0

> <b_epik_Metal_Only>
0

> <s_lp_Force_Field>
OPLS_2005

> <r_lp_Energy>
18.8635

> <b_lp_Chiralities_Consistent>
1

> <s_lp_Variant>
AV-unprocessed.smi:1445-4

> <Gold.Version>
5.8.1

> <Gold.Id.Protein>
6NUR|6NUR_protein|mol2

> <Gold.PLP.Fitness>
43.5441

> <Gold.PLP.PLP>
-35.2986

> <Gold.PLP.part.hbond>
-3.1414

> <Gold.PLP.part.metal>
0.0000

> <Gold.PLP.part.buried>
-4.0794

> <Gold.PLP.part.nonpolar>
-31.1739

> <Gold.PLP.part.repulsive>
2.0993

> <Gold.PLP.ligand.clash>
0.0000

> <Gold.PLP.ligand.torsion>
0.4230

> <Gold.PLP.Chemscore.Hbond>
3.0000

> <Gold.PLP.Chemscore.CHOScore>
0.0000

> <Gold.PLP.Chemscore.Metal>
0.0000

> <Gold.Chemscore.Hbonds>
donor molecule, donor type, donor heavy atom, donor atom, acceptor molecule, acceptor atom, score
      L1  H     9    28       P1  7948  1.00
      L1  H    12    29       P1  7948  1.00
      P1  H  7989  7998       L1     4  0.95

> <Gold.PLP.Chemscore.Internal.Correction>
0.0916

> <Gold.Rescore>
     Score         DG    S(hbond)    S(metal)    S(lipo)     H(rot)  DE(clash)    DE(int)     intcor
     16.69     -18.63       1.99        0.00      92.96       1.71       0.30       1.64       ----

> <Gold.Chemscore.Fitness>
16.6853

> <Gold.Chemscore.DG>
-18.6255

> <Gold.Chemscore.ZeroCoef>
-5.4800

> <Gold.Chemscore.Hbond>
1.9907

> <Gold.Chemscore.Metal>
0.0000

> <Gold.Chemscore.Lipo>
92.9563

> <Gold.Chemscore.Internal_Hbond>
0.0000

> <Gold.Chemscore.DEClash>
0.2975

> <Gold.Chemscore.DEInternal>
1.6427

> <Gold.Chemscore.Rot>
1.7107

> <Gold.Chemscore.Internal.Correction>
   9.000000E+99

> <Gold.Chemscore.Hbonds>
donor molecule, donor type, donor heavy atom, donor atom, acceptor molecule, acceptor atom, score
      L1  H     9    28       P1  7948  0.99
      L1  H    12    29       P1  7948  0.95
      P1  H  7989  7998       L1     4  0.05

> <Gold.Chemscore.Hbond.Weighted>
-6.6490

> <Gold.Chemscore.Metal.Weighted>
-0.0000

> <Gold.Chemscore.Lipo.Weighted>
-10.8759

> <Gold.Chemscore.Internal_Hbond.Weighted>
0.0000

> <Gold.Chemscore.DEClash.Weighted>
0.2975

> <Gold.Chemscore.DEInternal.Weighted>
1.6427

> <Gold.Chemscore.Rot.Weighted>
4.3794

> <Gold.Chemscore.Internal.Correction.Weighted>
   9.000000E+99

> <Gold.Protein.RotatedTorsions>
[ 6907 6896 6895 6894 ] final   -4.54 input  -60.11 | X-H torsion
[ 7974 7965 7964 7962 ] final   57.65 input  175.53 | X-H torsion
[ 8008 7997 7996 7995 ] final  -59.97 input   59.86 | X-H torsion
[ 10167 10162 10161 10158 ] final -135.73 input  -65.29 | X-H torsion
[ 10718 10713 10712 10709 ] final   82.48 input   66.30 | X-H torsion
[ 10763 10752 10751 10750 ] final   17.67 input  -60.55 | X-H torsion
[ 11005 11000 10999 10996 ] final  161.42 input  -57.11 | X-H torsion

> <Gold.Protein.ActiveResidues>
 VAL166  LYS551  ARG553  GLY616  TRP617  ASP618  TYR619  PRO620  LYS621  CYS622 
 ASP623  PHE694  ASN695  SER759  ASP760  ASP761  ALA762  ILE779  LEU786  VAL792 
 PHE793  MET794  SER795  GLU796  ALA797  LYS798  CYS799  TRP800  GLU811  SER814 

> <Gold.Protein.RotatedAtoms>
  151.4960  135.1059  159.9815 H   0  0  0  0  0  0  0  0  0  0  0  0  # atno 6907 bound_to 6896
  152.4721  133.8050  159.6984 H   0  0  0  0  0  0  0  0  0  0  0  0  # atno 6908 bound_to 6896
  150.8737  133.7406  159.2979 H   0  0  0  0  0  0  0  0  0  0  0  0  # atno 6909 bound_to 6896
  145.9267  139.3774  143.0446 H   0  0  0  0  0  0  0  0  0  0  0  0  # atno 7974 bound_to 7965
  154.4377  140.1050  156.6200 H   0  0  0  0  0  0  0  0  0  0  0  0  # atno 8008 bound_to 7997
  155.5718  140.3489  155.4498 H   0  0  0  0  0  0  0  0  0  0  0  0  # atno 8009 bound_to 7997
  156.0384  140.1276  157.0172 H   0  0  0  0  0  0  0  0  0  0  0  0  # atno 8010 bound_to 7997
  139.8749  143.6911  152.2635 H   0  0  0  0  0  0  0  0  0  0  0  0  # atno 10167 bound_to 10162
  157.6858  131.0049  150.2381 H   0  0  0  0  0  0  0  0  0  0  0  0  # atno 10718 bound_to 10713
  153.1318  135.6742  153.9166 H   0  0  0  0  0  0  0  0  0  0  0  0  # atno 10763 bound_to 10752
  153.8650  135.3076  155.3441 H   0  0  0  0  0  0  0  0  0  0  0  0  # atno 10764 bound_to 10752
  154.7714  135.4937  153.9737 H   0  0  0  0  0  0  0  0  0  0  0  0  # atno 10765 bound_to 10752
  140.2156  134.8235  157.3167 H   0  0  0  0  0  0  0  0  0  0  0  0  # atno 11005 bound_to 11000
  145.8479  140.9545  143.0765 LP  0  0  0  0  0  0  0  0  0  0  0  0  # atno 17320 bound_to 7965
  144.6759  140.0369  143.7481 LP  0  0  0  0  0  0  0  0  0  0  0  0  # atno 17321 bound_to 7965
  139.7249  144.7595  151.0895 LP  0  0  0  0  0  0  0  0  0  0  0  0  # atno 17342 bound_to 10162
  140.7754  143.5160  150.9594 LP  0  0  0  0  0  0  0  0  0  0  0  0  # atno 17343 bound_to 10162
  156.3001  130.3757  149.7759 LP  0  0  0  0  0  0  0  0  0  0  0  0  # atno 17370 bound_to 10713
  156.5392  130.8292  151.3263 LP  0  0  0  0  0  0  0  0  0  0  0  0  # atno 17371 bound_to 10713
  140.1904  134.4379  155.7719 LP  0  0  0  0  0  0  0  0  0  0  0  0  # atno 17394 bound_to 11000
  141.2225  133.7024  156.8018 LP  0  0  0  0  0  0  0  0  0  0  0  0  # atno 17395 bound_to 11000

$$$$
