AV-unprocessed.smi:2886|AV-procd|sdf|11097|dock1
  -GOLD-   2272015563D 1   1.00000     0.00000
 Structure written by MMmdl.
 27 29  0  0  0  0  0  0  0  0  2 V2000
  152.7703  136.8405  159.9397 O   0  0  0  0  0  0  0  0  0  0  0  0
  153.1678  137.9610  160.2549 C   0  0  0  0  0  0  0  0  0  0  0  0
  154.0576  138.1575  161.2746 N   0  5  0  0  0  0  0  0  0  0  0  0
  154.5042  139.4936  161.6011 N   0  0  0  0  0  0  0  0  0  0  0  0
  154.0736  140.5058  160.9577 C   0  0  0  0  0  0  0  0  0  0  0  0
  153.0953  140.3853  159.8488 C   0  0  0  0  0  0  0  0  0  0  0  0
  152.6264  141.4883  159.1465 N   0  0  0  0  0  0  0  0  0  0  0  0
  152.9639  142.8934  159.3284 C   0  0  2  0  0  0  0  0  0  0  0  0
  152.4454  143.4689  160.6472 C   0  0  0  0  0  0  0  0  0  0  0  0
  151.6573  144.6939  160.1612 C   0  0  2  0  0  0  0  0  0  0  0  0
  150.3244  144.2873  159.5201 C   0  0  0  0  0  0  0  0  0  0  0  0
  150.7880  143.6816  158.1966 C   0  0  0  0  0  0  0  0  0  0  0  0
  152.3156  143.8311  158.2954 C   0  0  1  0  0  0  0  0  0  0  0  0
  152.3976  145.0554  159.0061 O   0  0  0  0  0  0  0  0  0  0  0  0
  152.6782  139.1356  159.5229 C   0  0  0  0  0  0  0  0  0  0  0  0
  151.5466  138.8907  158.2324 Cl  0  0  0  0  0  0  0  0  0  0  0  0
  154.4167  141.5150  161.1964 H   0  0  0  0  0  0  0  0  0  0  0  0
  151.8576  141.3188  158.5140 H   0  0  0  0  0  0  0  0  0  0  0  0
  154.0456  143.0249  159.3074 H   0  0  0  0  0  0  0  0  0  0  0  0
  151.8187  142.7776  161.2127 H   0  0  0  0  0  0  0  0  0  0  0  0
  153.2793  143.7674  161.2834 H   0  0  0  0  0  0  0  0  0  0  0  0
  151.5664  145.4857  160.9051 H   0  0  0  0  0  0  0  0  0  0  0  0
  149.7639  143.5830  160.1357 H   0  0  0  0  0  0  0  0  0  0  0  0
  149.6963  145.1607  159.3409 H   0  0  0  0  0  0  0  0  0  0  0  0
  150.4669  142.6480  158.0646 H   0  0  0  0  0  0  0  0  0  0  0  0
  150.4004  144.2623  157.3589 H   0  0  0  0  0  0  0  0  0  0  0  0
  152.8220  143.8384  157.3298 H   0  0  0  0  0  0  0  0  0  0  0  0
  1  2  2  0  0  0  0
  2 15  1  0  0  0  0
  2  3  1  0  0  0  0
  3  4  1  0  0  0  0
  4  5  2  0  0  0  0
  5  6  1  0  0  0  0
  5 17  1  0  0  0  0
  6  7  1  0  0  0  0
  6 15  2  0  0  0  0
  7  8  1  0  0  0  0
  7 18  1  0  0  0  0
  8 13  1  0  0  0  0
  8  9  1  0  0  0  0
  8 19  1  0  0  0  0
  9 10  1  0  0  0  0
  9 20  1  0  0  0  0
  9 21  1  0  0  0  0
 10 14  1  0  0  0  0
 10 11  1  0  0  0  0
 10 22  1  0  0  0  0
 11 12  1  0  0  0  0
 11 23  1  0  0  0  0
 11 24  1  0  0  0  0
 12 13  1  0  0  0  0
 12 25  1  0  0  0  0
 12 26  1  0  0  0  0
 13 14  1  0  0  0  0
 13 27  1  0  0  0  0
 15 16  1  0  0  0  0
M  CHG  1   3  -1
M  END
> <s_m_source_file>
AV-unprocessed.smi

> <i_m_source_file_index>
2886

> <i_lp_mmshare_version>
43012

> <i_f3d_flags>
0

> <s_epik_input>
Tz1jMVtuSF1uW2NIXWMoYzFDbClbTkhdW0NASF0oW0NIMl1bQ0BASF0yMylbQ0BASF0oTzMpW0NIMl1bQ0gyXTI=

> <s_epik_cmdline>
J2VwaWtfcHl0aG9uJywgJy1waCcsICc3LjAnLCAnLXRuJywgJzgnLCAnLW1hJywgJzIwMCcsICctbWV0YWxfYmluZGluZycsICctaW1hZScsICc8aW5maWxlLm1hZT4nLCAnLW9tYWUnLCAnPG91dGZpbGUubWFlPic=

> <r_lp_tautomer_probability>
0.986175

> <r_epik_Ionization_Penalty>
3.84253

> <r_epik_Ionization_Penalty_Charging>
0.0129711

> <r_epik_Ionization_Penalty_Neutral>
3.82956

> <r_epik_State_Penalty>
3.8249

> <r_epik_Charging_Adjusted_Penalty>
3.83787

> <i_epik_Tot_Q>
-1

> <i_epik_Tot_abs_Q>
1

> <r_epik_Metal_State_Penalty>
0.57612

> <b_epik_Metal_Only>
1

> <s_lp_Force_Field>
OPLS_2005

> <r_lp_Energy>
60.9826

> <b_lp_Chiralities_Consistent>
1

> <s_lp_Variant>
AV-unprocessed.smi:2886-11

> <Gold.Version>
5.8.1

> <Gold.Id.Protein>
6NUR|6NUR_protein|mol2

> <Gold.PLP.Fitness>
35.2806

> <Gold.PLP.PLP>
-32.3501

> <Gold.PLP.part.hbond>
-1.0000

> <Gold.PLP.part.metal>
0.0000

> <Gold.PLP.part.buried>
-6.1779

> <Gold.PLP.part.nonpolar>
-26.0260

> <Gold.PLP.part.repulsive>
0.1192

> <Gold.PLP.ligand.clash>
0.0000

> <Gold.PLP.ligand.torsion>
0.0394

> <Gold.PLP.Chemscore.Hbond>
1.0000

> <Gold.PLP.Chemscore.CHOScore>
0.0000

> <Gold.PLP.Chemscore.Metal>
0.0000

> <Gold.Chemscore.Hbonds>
donor molecule, donor type, donor heavy atom, donor atom, acceptor molecule, acceptor atom, score
      P1  H  6896  6907       L1     1  1.00

> <Gold.PLP.Chemscore.Internal.Correction>
0.0091

> <Gold.Rescore>
     Score         DG    S(hbond)    S(metal)    S(lipo)     H(rot)  DE(clash)    DE(int)     intcor
     17.17     -17.20       0.99        0.00      93.81       1.00       0.01       0.02       ----

> <Gold.Chemscore.Fitness>
17.1694

> <Gold.Chemscore.DG>
-17.2000

> <Gold.Chemscore.ZeroCoef>
-5.4800

> <Gold.Chemscore.Hbond>
0.9893

> <Gold.Chemscore.Metal>
0.0000

> <Gold.Chemscore.Lipo>
93.8092

> <Gold.Chemscore.Internal_Hbond>
0.0000

> <Gold.Chemscore.DEClash>
0.0126

> <Gold.Chemscore.DEInternal>
0.0180

> <Gold.Chemscore.Rot>
1.0000

> <Gold.Chemscore.Internal.Correction>
   9.000000E+99

> <Gold.Chemscore.Hbonds>
donor molecule, donor type, donor heavy atom, donor atom, acceptor molecule, acceptor atom, score
      P1  H  6896  6907       L1     1  0.99

> <Gold.Chemscore.Hbond.Weighted>
-3.3044

> <Gold.Chemscore.Metal.Weighted>
-0.0000

> <Gold.Chemscore.Lipo.Weighted>
-10.9757

> <Gold.Chemscore.Internal_Hbond.Weighted>
0.0000

> <Gold.Chemscore.DEClash.Weighted>
0.0126

> <Gold.Chemscore.DEInternal.Weighted>
0.0180

> <Gold.Chemscore.Rot.Weighted>
2.5600

> <Gold.Chemscore.Internal.Correction.Weighted>
   9.000000E+99

> <Gold.Protein.RotatedTorsions>
[ 6907 6896 6895 6894 ] final   26.17 input  -60.11 | X-H torsion
[ 7974 7965 7964 7962 ] final   45.36 input  175.53 | X-H torsion
[ 8008 7997 7996 7995 ] final  125.58 input   59.86 | X-H torsion
[ 10167 10162 10161 10158 ] final   78.41 input  -65.29 | X-H torsion
[ 10718 10713 10712 10709 ] final   57.35 input   66.30 | X-H torsion
[ 10763 10752 10751 10750 ] final  -87.84 input  -60.55 | X-H torsion
[ 11005 11000 10999 10996 ] final   30.22 input  -57.11 | X-H torsion

> <Gold.Protein.ActiveResidues>
 VAL166  LYS551  ARG553  GLY616  TRP617  ASP618  TYR619  PRO620  LYS621  CYS622 
 ASP623  PHE694  ASN695  SER759  ASP760  ASP761  ALA762  ILE779  LEU786  VAL792 
 PHE793  MET794  SER795  GLU796  ALA797  LYS798  CYS799  TRP800  GLU811  SER814 

> <Gold.Protein.RotatedAtoms>
  151.9834  135.0017  160.0558 H   0  0  0  0  0  0  0  0  0  0  0  0  # atno 6907 bound_to 6896
  152.1675  133.4617  159.4900 H   0  0  0  0  0  0  0  0  0  0  0  0  # atno 6908 bound_to 6896
  150.6896  134.1912  159.4329 H   0  0  0  0  0  0  0  0  0  0  0  0  # atno 6909 bound_to 6896
  146.0487  139.4973  142.9732 H   0  0  0  0  0  0  0  0  0  0  0  0  # atno 7974 bound_to 7965
  156.2838  140.2713  156.1973 H   0  0  0  0  0  0  0  0  0  0  0  0  # atno 8008 bound_to 7997
  155.0397  140.0386  157.2523 H   0  0  0  0  0  0  0  0  0  0  0  0  # atno 8009 bound_to 7997
  154.7284  140.2702  155.6483 H   0  0  0  0  0  0  0  0  0  0  0  0  # atno 8010 bound_to 7997
  139.9713  144.5892  150.7983 H   0  0  0  0  0  0  0  0  0  0  0  0  # atno 10167 bound_to 10162
  157.5508  130.8764  149.8960 H   0  0  0  0  0  0  0  0  0  0  0  0  # atno 10718 bound_to 10713
  154.6380  135.5399  153.7756 H   0  0  0  0  0  0  0  0  0  0  0  0  # atno 10763 bound_to 10752
  153.0318  135.6452  154.1203 H   0  0  0  0  0  0  0  0  0  0  0  0  # atno 10764 bound_to 10752
  154.1129  135.2925  155.3206 H   0  0  0  0  0  0  0  0  0  0  0  0  # atno 10765 bound_to 10752
  140.2967  134.2803  155.7763 H   0  0  0  0  0  0  0  0  0  0  0  0  # atno 11005 bound_to 11000
  145.6761  141.0203  143.1631 LP  0  0  0  0  0  0  0  0  0  0  0  0  # atno 17320 bound_to 7965
  144.7111  139.8367  143.7414 LP  0  0  0  0  0  0  0  0  0  0  0  0  # atno 17321 bound_to 7965
  140.7521  143.2984  151.3144 LP  0  0  0  0  0  0  0  0  0  0  0  0  # atno 17342 bound_to 10162
  139.6479  144.0417  152.2604 LP  0  0  0  0  0  0  0  0  0  0  0  0  # atno 17343 bound_to 10162
  156.0575  130.3706  150.1058 LP  0  0  0  0  0  0  0  0  0  0  0  0  # atno 17370 bound_to 10713
  156.9231  130.9689  151.3545 LP  0  0  0  0  0  0  0  0  0  0  0  0  # atno 17371 bound_to 10713
  141.2136  133.7620  156.9706 LP  0  0  0  0  0  0  0  0  0  0  0  0  # atno 17394 bound_to 11000
  140.1146  134.9455  157.2115 LP  0  0  0  0  0  0  0  0  0  0  0  0  # atno 17395 bound_to 11000

$$$$
