AV-unprocessed.smi:2757|AV-procd|sdf|10621|dock2
  -GOLD-   2272015 63D 1   1.00000     0.00000
 Structure written by MMmdl.
 32 33  0  0  0  0  0  0  0  0  2 V2000
  150.4419  136.1799  155.2327 C   0  0  0  0  0  0  0  0  0  0  0  0
  149.3200  135.5541  154.5503 N   0  0  0  0  0  0  0  0  0  0  0  0
  148.2191  135.0991  155.1668 C   0  0  0  0  0  0  0  0  0  0  0  0
  148.0432  135.1604  156.3841 O   0  0  0  0  0  0  0  0  0  0  0  0
  147.1790  134.5109  154.2591 C   0  0  0  0  0  0  0  0  0  0  0  0
  146.0421  133.8361  154.7927 C   0  0  0  0  0  0  0  0  0  0  0  0
  145.3372  133.4538  153.6879 C   0  0  0  0  0  0  0  0  0  0  0  0
  146.0363  133.8872  152.5809 N   0  0  0  0  0  0  0  0  0  0  0  0
  145.6911  133.7184  151.1773 C   0  0  1  0  0  0  0  0  0  0  0  0
  145.7747  132.2406  150.7433 C   0  0  0  0  0  0  0  0  0  0  0  0
  145.3865  132.0967  149.2640 C   0  0  0  0  0  0  0  0  0  0  0  0
  144.0022  132.7116  148.9966 C   0  0  0  0  0  0  0  0  0  0  0  0
  143.9625  134.1247  149.4332 N   0  3  0  0  0  0  0  0  0  0  0  0
  144.2945  134.2968  150.8648 C   0  0  0  0  0  0  0  0  0  0  0  0
  147.1716  134.5317  152.9324 N   0  0  0  0  0  0  0  0  0  0  0  0
  151.2224  136.4292  154.5138 H   0  0  0  0  0  0  0  0  0  0  0  0
  150.8676  135.5085  155.9796 H   0  0  0  0  0  0  0  0  0  0  0  0
  150.1287  137.0994  155.7286 H   0  0  0  0  0  0  0  0  0  0  0  0
  149.3756  135.4662  153.5460 H   0  0  0  0  0  0  0  0  0  0  0  0
  145.7813  133.6614  155.8264 H   0  0  0  0  0  0  0  0  0  0  0  0
  144.4049  132.9154  153.6003 H   0  0  0  0  0  0  0  0  0  0  0  0
  146.4262  134.2805  150.5986 H   0  0  0  0  0  0  0  0  0  0  0  0
  146.7823  131.8557  150.9037 H   0  0  0  0  0  0  0  0  0  0  0  0
  145.1068  131.6285  151.3509 H   0  0  0  0  0  0  0  0  0  0  0  0
  146.1342  132.5877  148.6396 H   0  0  0  0  0  0  0  0  0  0  0  0
  145.3886  131.0440  148.9792 H   0  0  0  0  0  0  0  0  0  0  0  0
  143.7638  132.6598  147.9340 H   0  0  0  0  0  0  0  0  0  0  0  0
  143.2296  132.1515  149.5251 H   0  0  0  0  0  0  0  0  0  0  0  0
  144.6276  134.6499  148.8836 H   0  0  0  0  0  0  0  0  0  0  0  0
  143.5266  133.8065  151.4652 H   0  0  0  0  0  0  0  0  0  0  0  0
  144.2594  135.3588  151.1094 H   0  0  0  0  0  0  0  0  0  0  0  0
  143.0375  134.4937  149.2649 H   0  0  0  0  0  0  0  0  0  0  0  0
  1  2  1  0  0  0  0
  1 16  1  0  0  0  0
  1 17  1  0  0  0  0
  1 18  1  0  0  0  0
  2  3  1  0  0  0  0
  2 19  1  0  0  0  0
  3  4  2  0  0  0  0
  3  5  1  0  0  0  0
  5 15  2  0  0  0  0
  5  6  1  0  0  0  0
  6  7  2  0  0  0  0
  6 20  1  0  0  0  0
  7  8  1  0  0  0  0
  7 21  1  0  0  0  0
  8  9  1  0  0  0  0
  8 15  1  0  0  0  0
  9 14  1  0  0  0  0
  9 10  1  0  0  0  0
  9 22  1  0  0  0  0
 10 11  1  0  0  0  0
 10 23  1  0  0  0  0
 10 24  1  0  0  0  0
 11 12  1  0  0  0  0
 11 25  1  0  0  0  0
 11 26  1  0  0  0  0
 12 13  1  0  0  0  0
 12 27  1  0  0  0  0
 12 28  1  0  0  0  0
 13 14  1  0  0  0  0
 13 29  1  0  0  0  0
 13 32  1  0  0  0  0
 14 30  1  0  0  0  0
 14 31  1  0  0  0  0
M  CHG  1  13   1
M  END
> <s_m_source_file>
AV-unprocessed.smi

> <i_m_source_file_index>
2757

> <i_lp_mmshare_version>
43012

> <i_f3d_flags>
0

> <s_epik_input>
W0NIM11bTkhdQyg9TyljMVtjSF1bY0hdbihuMSlbQ0BASF0yW0NIMl1bQ0gyXVtDSDJdW05IXVtDSDJdMg==

> <s_epik_cmdline>
J2VwaWtfcHl0aG9uJywgJy1waCcsICc3LjAnLCAnLXRuJywgJzgnLCAnLW1hJywgJzIwMCcsICctbWV0YWxfYmluZGluZycsICctaW1hZScsICc8aW5maWxlLm1hZT4nLCAnLW9tYWUnLCAnPG91dGZpbGUubWFlPic=

> <r_lp_tautomer_probability>
1

> <r_epik_Ionization_Penalty>
0.000652722

> <r_epik_Ionization_Penalty_Charging>
0.000651447

> <r_epik_Ionization_Penalty_Neutral>
1.27533e-06

> <r_epik_State_Penalty>
0.000412577

> <r_epik_Charging_Adjusted_Penalty>
0.00106402

> <i_epik_Tot_Q>
1

> <i_epik_Tot_abs_Q>
1

> <r_epik_Metal_State_Penalty>
-0

> <b_epik_Metal_Only>
0

> <s_lp_Force_Field>
OPLS_2005

> <r_lp_Energy>
20.0976

> <b_lp_Chiralities_Consistent>
1

> <s_lp_Variant>
AV-unprocessed.smi:2757-2

> <Gold.Version>
5.8.1

> <Gold.Id.Protein>
6NUR|6NUR_protein|mol2

> <Gold.PLP.Fitness>
35.9349

> <Gold.PLP.PLP>
-21.1599

> <Gold.PLP.part.hbond>
-3.0000

> <Gold.PLP.part.metal>
0.0000

> <Gold.PLP.part.buried>
-4.3013

> <Gold.PLP.part.nonpolar>
-16.9318

> <Gold.PLP.part.repulsive>
3.2226

> <Gold.PLP.ligand.clash>
0.0000

> <Gold.PLP.ligand.torsion>
0.1099

> <Gold.PLP.Chemscore.Hbond>
3.9920

> <Gold.PLP.Chemscore.CHOScore>
1.0000

> <Gold.PLP.Chemscore.Metal>
0.0000

> <Gold.Chemscore.Hbonds>
donor molecule, donor type, donor heavy atom, donor atom, acceptor molecule, acceptor atom, score
      L1  H     2    19       P1  7948  0.96
      L1  H    13    29       P1  7921  1.00
      L1  H    13    32       P1 10186  1.95
      L1  C     7    21       P1 10957  1.00

> <Gold.PLP.Chemscore.Internal.Correction>
0.0189

> <Gold.Rescore>
     Score         DG    S(hbond)    S(metal)    S(lipo)     H(rot)  DE(clash)    DE(int)     intcor
     17.89     -19.24       2.88        0.00      57.21       1.00       1.35       0.01       ----

> <Gold.Chemscore.Fitness>
17.8851

> <Gold.Chemscore.DG>
-19.2418

> <Gold.Chemscore.ZeroCoef>
-5.4800

> <Gold.Chemscore.Hbond>
2.8826

> <Gold.Chemscore.Metal>
0.0000

> <Gold.Chemscore.Lipo>
57.2123

> <Gold.Chemscore.Internal_Hbond>
0.0000

> <Gold.Chemscore.DEClash>
1.3472

> <Gold.Chemscore.DEInternal>
0.0094

> <Gold.Chemscore.Rot>
1.0000

> <Gold.Chemscore.Internal.Correction>
   9.000000E+99

> <Gold.Chemscore.Hbonds>
donor molecule, donor type, donor heavy atom, donor atom, acceptor molecule, acceptor atom, score
      L1  H     2    19       P1  7948  0.24
      L1  H    13    29       P1  7921  0.96
      L1  H    13    32       P1 10186  0.87

> <Gold.Chemscore.Hbond.Weighted>
-9.6279

> <Gold.Chemscore.Metal.Weighted>
-0.0000

> <Gold.Chemscore.Lipo.Weighted>
-6.6938

> <Gold.Chemscore.Internal_Hbond.Weighted>
0.0000

> <Gold.Chemscore.DEClash.Weighted>
1.3472

> <Gold.Chemscore.DEInternal.Weighted>
0.0094

> <Gold.Chemscore.Rot.Weighted>
2.5600

> <Gold.Chemscore.Internal.Correction.Weighted>
   9.000000E+99

> <Gold.Protein.RotatedTorsions>
[ 6907 6896 6895 6894 ] final  106.23 input  -60.11 | X-H torsion
[ 7974 7965 7964 7962 ] final   66.16 input  175.53 | X-H torsion
[ 8008 7997 7996 7995 ] final -172.59 input   59.86 | X-H torsion
[ 10167 10162 10161 10158 ] final  -20.13 input  -65.29 | X-H torsion
[ 10718 10713 10712 10709 ] final -165.94 input   66.30 | X-H torsion
[ 10763 10752 10751 10750 ] final  -18.87 input  -60.55 | X-H torsion
[ 11005 11000 10999 10996 ] final -162.76 input  -57.11 | X-H torsion

> <Gold.Protein.ActiveResidues>
 VAL166  LYS551  ARG553  GLY616  TRP617  ASP618  TYR619  PRO620  LYS621  CYS622 
 ASP623  PHE694  ASN695  SER759  ASP760  ASP761  ALA762  ILE779  LEU786  VAL792 
 PHE793  MET794  SER795  GLU796  ALA797  LYS798  CYS799  TRP800  GLU811  SER814 

> <Gold.Protein.RotatedAtoms>
  152.5201  133.9412  159.7626 H   0  0  0  0  0  0  0  0  0  0  0  0  # atno 6907 bound_to 6896
  150.9742  133.6304  159.2740 H   0  0  0  0  0  0  0  0  0  0  0  0  # atno 6908 bound_to 6896
  151.3505  135.0889  159.9454 H   0  0  0  0  0  0  0  0  0  0  0  0  # atno 6909 bound_to 6896
  145.8299  139.3133  143.0993 H   0  0  0  0  0  0  0  0  0  0  0  0  # atno 7974 bound_to 7965
  155.9466  140.1118  157.1012 H   0  0  0  0  0  0  0  0  0  0  0  0  # atno 8008 bound_to 7997
  154.4100  140.1208  156.5063 H   0  0  0  0  0  0  0  0  0  0  0  0  # atno 8009 bound_to 7997
  155.6895  140.3472  155.4890 H   0  0  0  0  0  0  0  0  0  0  0  0  # atno 8010 bound_to 7997
  140.7274  143.4752  151.0192 H   0  0  0  0  0  0  0  0  0  0  0  0  # atno 10167 bound_to 10162
  156.6607  130.9044  151.3028 H   0  0  0  0  0  0  0  0  0  0  0  0  # atno 10718 bound_to 10713
  153.5961  135.7001  153.5403 H   0  0  0  0  0  0  0  0  0  0  0  0  # atno 10763 bound_to 10752
  153.3137  135.4094  155.1357 H   0  0  0  0  0  0  0  0  0  0  0  0  # atno 10764 bound_to 10752
  154.8591  135.3678  154.5494 H   0  0  0  0  0  0  0  0  0  0  0  0  # atno 10765 bound_to 10752
  140.6057  134.4901  157.5210 H   0  0  0  0  0  0  0  0  0  0  0  0  # atno 11005 bound_to 11000
  145.9582  140.8856  143.0224 LP  0  0  0  0  0  0  0  0  0  0  0  0  # atno 17320 bound_to 7965
  144.6740  140.1775  143.7409 LP  0  0  0  0  0  0  0  0  0  0  0  0  # atno 17321 bound_to 7965
  139.8447  143.7517  152.3179 LP  0  0  0  0  0  0  0  0  0  0  0  0  # atno 17342 bound_to 10162
  139.7678  144.7486  151.0268 LP  0  0  0  0  0  0  0  0  0  0  0  0  # atno 17343 bound_to 10162
  157.7110  130.9441  150.1091 LP  0  0  0  0  0  0  0  0  0  0  0  0  # atno 17370 bound_to 10713
  156.2013  130.3660  149.8784 LP  0  0  0  0  0  0  0  0  0  0  0  0  # atno 17371 bound_to 10713
  139.9213  134.8142  156.1202 LP  0  0  0  0  0  0  0  0  0  0  0  0  # atno 17394 bound_to 11000
  141.0842  133.6741  156.2401 LP  0  0  0  0  0  0  0  0  0  0  0  0  # atno 17395 bound_to 11000

$$$$
