AV-unprocessed.smi:2017|AV-procd|sdf|8167|dock9
  -GOLD-   2272010413D 1   1.00000     0.00000
 Structure written by MMmdl.
 45 46  0  0  0  0  0  0  0  0  1 V2000
  151.4266  140.0253  155.0268 O   0  0  0  0  0  0  0  0  0  0  0  0
  150.5919  140.4259  155.8397 C   0  0  0  0  0  0  0  0  0  0  0  0
  149.3398  141.1880  155.3809 C   0  0  0  0  0  0  0  0  0  0  0  0
  148.4137  140.3662  154.5873 N   0  0  0  0  0  0  0  0  0  0  0  0
  148.6725  139.0174  154.3885 C   0  0  0  0  0  0  0  0  0  0  0  0
  147.8593  138.1982  153.6805 C   0  0  0  0  0  0  0  0  0  0  0  0
  146.6354  138.7142  153.0770 C   0  0  0  0  0  0  0  0  0  0  0  0
  145.8362  138.0529  152.4180 O   0  0  0  0  0  0  0  0  0  0  0  0
  146.4087  140.0747  153.3014 N   0  0  0  0  0  0  0  0  0  0  0  0
  147.2416  140.9240  154.0315 C   0  0  0  0  0  0  0  0  0  0  0  0
  146.9441  142.1095  154.1737 O   0  0  0  0  0  0  0  0  0  0  0  0
  150.7137  140.2445  157.1634 N   0  0  0  0  0  0  0  0  0  0  0  0
  151.8217  139.5590  157.8180 C   0  0  0  0  0  0  0  0  0  0  0  0
  151.8550  139.8442  159.3297 C   0  0  0  0  0  0  0  0  0  0  0  0
  153.2566  140.2140  159.8288 C   0  0  0  0  0  0  0  0  0  0  0  0
  153.6297  141.4693  159.2787 O   0  0  0  0  0  0  0  0  0  0  0  0
  152.6861  142.5093  159.4962 C   0  0  0  0  0  0  0  0  0  0  0  0
  152.9862  143.7130  158.5785 C   0  0  0  0  0  0  0  0  0  0  0  0
  152.0605  144.9000  158.8913 C   0  0  0  0  0  0  0  0  0  0  0  0
  152.1473  145.3017  160.3724 C   0  0  0  0  0  0  0  0  0  0  0  0
  151.8535  144.1050  161.2909 C   0  0  0  0  0  0  0  0  0  0  0  0
  152.7828  142.9217  160.9756 C   0  0  0  0  0  0  0  0  0  0  0  0
  145.5713  140.4760  152.9049 H   0  0  0  0  0  0  0  0  0  0  0  0
  148.8302  141.6005  156.2540 H   0  0  0  0  0  0  0  0  0  0  0  0
  149.6602  142.0545  154.8003 H   0  0  0  0  0  0  0  0  0  0  0  0
  149.5661  138.5909  154.8215 H   0  0  0  0  0  0  0  0  0  0  0  0
  148.1151  137.1552  153.5610 H   0  0  0  0  0  0  0  0  0  0  0  0
  149.9846  140.6061  157.7611 H   0  0  0  0  0  0  0  0  0  0  0  0
  151.7036  138.4894  157.6431 H   0  0  0  0  0  0  0  0  0  0  0  0
  152.7661  139.8462  157.3528 H   0  0  0  0  0  0  0  0  0  0  0  0
  151.1747  140.6649  159.5596 H   0  0  0  0  0  0  0  0  0  0  0  0
  151.4885  138.9780  159.8818 H   0  0  0  0  0  0  0  0  0  0  0  0
  153.2671  140.2382  160.9185 H   0  0  0  0  0  0  0  0  0  0  0  0
  153.9719  139.4532  159.5134 H   0  0  0  0  0  0  0  0  0  0  0  0
  151.6748  142.1432  159.3089 H   0  0  0  0  0  0  0  0  0  0  0  0
  154.0253  144.0195  158.7066 H   0  0  0  0  0  0  0  0  0  0  0  0
  152.8746  143.4371  157.5303 H   0  0  0  0  0  0  0  0  0  0  0  0
  152.3208  145.7501  158.2602 H   0  0  0  0  0  0  0  0  0  0  0  0
  151.0319  144.6347  158.6442 H   0  0  0  0  0  0  0  0  0  0  0  0
  153.1434  145.6905  160.5871 H   0  0  0  0  0  0  0  0  0  0  0  0
  151.4475  146.1115  160.5802 H   0  0  0  0  0  0  0  0  0  0  0  0
  151.9682  144.4003  162.3342 H   0  0  0  0  0  0  0  0  0  0  0  0
  150.8144  143.7965  161.1687 H   0  0  0  0  0  0  0  0  0  0  0  0
  152.5312  142.0744  161.6143 H   0  0  0  0  0  0  0  0  0  0  0  0
  153.8116  143.1940  161.2151 H   0  0  0  0  0  0  0  0  0  0  0  0
  1  2  2  0  0  0  0
  2  3  1  0  0  0  0
  2 12  1  0  0  0  0
  3  4  1  0  0  0  0
  3 24  1  0  0  0  0
  3 25  1  0  0  0  0
  4 10  1  0  0  0  0
  4  5  1  0  0  0  0
  5  6  2  0  0  0  0
  5 26  1  0  0  0  0
  6  7  1  0  0  0  0
  6 27  1  0  0  0  0
  7  8  2  0  0  0  0
  7  9  1  0  0  0  0
  9 23  1  0  0  0  0
  9 10  1  0  0  0  0
 10 11  2  0  0  0  0
 12 13  1  0  0  0  0
 12 28  1  0  0  0  0
 13 14  1  0  0  0  0
 13 29  1  0  0  0  0
 13 30  1  0  0  0  0
 14 15  1  0  0  0  0
 14 31  1  0  0  0  0
 14 32  1  0  0  0  0
 15 16  1  0  0  0  0
 15 33  1  0  0  0  0
 15 34  1  0  0  0  0
 16 17  1  0  0  0  0
 17 22  1  0  0  0  0
 17 18  1  0  0  0  0
 17 35  1  0  0  0  0
 18 19  1  0  0  0  0
 18 36  1  0  0  0  0
 18 37  1  0  0  0  0
 19 20  1  0  0  0  0
 19 38  1  0  0  0  0
 19 39  1  0  0  0  0
 20 21  1  0  0  0  0
 20 40  1  0  0  0  0
 20 41  1  0  0  0  0
 21 22  1  0  0  0  0
 21 42  1  0  0  0  0
 21 43  1  0  0  0  0
 22 44  1  0  0  0  0
 22 45  1  0  0  0  0
M  END
> <s_m_source_file>
AV-unprocessed.smi

> <i_m_source_file_index>
2017

> <i_lp_mmshare_version>
43012

> <i_f3d_flags>
0

> <s_epik_input>
Tz1jMVtuSF1jKD1PKVtjSF1bY0hdbjFbQ0gyXUMoPU8pW05IXVtDSDJdW0NIMl1bQ0gyXU9bQ0hdMltDSDJdW0NIMl1bQ0gyXVtDSDJdW0NIMl0y

> <s_epik_cmdline>
J2VwaWtfcHl0aG9uJywgJy1waCcsICc3LjAnLCAnLXRuJywgJzgnLCAnLW1hJywgJzIwMCcsICctbWV0YWxfYmluZGluZycsICctaW1hZScsICc8aW5maWxlLm1hZT4nLCAnLW9tYWUnLCAnPG91dGZpbGUubWFlPic=

> <r_lp_tautomer_probability>
0.999537

> <r_epik_Ionization_Penalty>
0.003299

> <r_epik_Ionization_Penalty_Charging>
0.00329898

> <r_epik_Ionization_Penalty_Neutral>
1.92812e-08

> <r_epik_State_Penalty>
0.00233129

> <r_epik_Charging_Adjusted_Penalty>
0.00563027

> <i_epik_Tot_Q>
0

> <i_epik_Tot_abs_Q>
0

> <r_epik_Metal_State_Penalty>
0.365405

> <b_epik_Metal_Only>
0

> <s_lp_Force_Field>
OPLS_2005

> <r_lp_Energy>
10.1374

> <b_lp_Chiralities_Consistent>
1

> <s_lp_Variant>
AV-unprocessed.smi:2017-1

> <Gold.Version>
5.8.1

> <Gold.Id.Protein>
6NUR|6NUR_protein|mol2

> <Gold.PLP.Fitness>
50.7230

> <Gold.PLP.PLP>
-45.8633

> <Gold.PLP.part.hbond>
-1.9025

> <Gold.PLP.part.metal>
0.0000

> <Gold.PLP.part.buried>
-2.6571

> <Gold.PLP.part.nonpolar>
-43.0447

> <Gold.PLP.part.repulsive>
0.5953

> <Gold.PLP.ligand.clash>
0.0000

> <Gold.PLP.ligand.torsion>
0.5966

> <Gold.PLP.Chemscore.Hbond>
1.9760

> <Gold.PLP.Chemscore.CHOScore>
0.0000

> <Gold.PLP.Chemscore.Metal>
0.0000

> <Gold.Chemscore.Hbonds>
donor molecule, donor type, donor heavy atom, donor atom, acceptor molecule, acceptor atom, score
      L1  H     9    23       P1 10175  1.00
      P1  H  7989  7998       L1     1  1.00

> <Gold.PLP.Chemscore.Internal.Correction>
0.1249

> <Gold.Rescore>
     Score         DG    S(hbond)    S(metal)    S(lipo)     H(rot)  DE(clash)    DE(int)     intcor
     15.88     -16.81       1.98        0.00     100.15       2.74       0.05       0.88       ----

> <Gold.Chemscore.Fitness>
15.8812

> <Gold.Chemscore.DG>
-16.8144

> <Gold.Chemscore.ZeroCoef>
-5.4800

> <Gold.Chemscore.Hbond>
1.9840

> <Gold.Chemscore.Metal>
0.0000

> <Gold.Chemscore.Lipo>
100.1521

> <Gold.Chemscore.Internal_Hbond>
0.0000

> <Gold.Chemscore.DEClash>
0.0536

> <Gold.Chemscore.DEInternal>
0.8796

> <Gold.Chemscore.Rot>
2.7382

> <Gold.Chemscore.Internal.Correction>
   9.000000E+99

> <Gold.Chemscore.Hbonds>
donor molecule, donor type, donor heavy atom, donor atom, acceptor molecule, acceptor atom, score
      L1  H     9    23       P1 10175  0.80
      P1  H  7989  7998       L1     1  0.97

> <Gold.Chemscore.Hbond.Weighted>
-6.6264

> <Gold.Chemscore.Metal.Weighted>
-0.0000

> <Gold.Chemscore.Lipo.Weighted>
-11.7178

> <Gold.Chemscore.Internal_Hbond.Weighted>
0.0000

> <Gold.Chemscore.DEClash.Weighted>
0.0536

> <Gold.Chemscore.DEInternal.Weighted>
0.8796

> <Gold.Chemscore.Rot.Weighted>
7.0098

> <Gold.Chemscore.Internal.Correction.Weighted>
   9.000000E+99

> <Gold.Protein.RotatedTorsions>
[ 6907 6896 6895 6894 ] final  -57.36 input  -60.11 | X-H torsion
[ 7974 7965 7964 7962 ] final   27.88 input  175.53 | X-H torsion
[ 8008 7997 7996 7995 ] final  165.04 input   59.86 | X-H torsion
[ 10167 10162 10161 10158 ] final   40.85 input  -65.29 | X-H torsion
[ 10718 10713 10712 10709 ] final -153.10 input   66.30 | X-H torsion
[ 10763 10752 10751 10750 ] final  118.22 input  -60.55 | X-H torsion
[ 11005 11000 10999 10996 ] final  -36.72 input  -57.11 | X-H torsion

> <Gold.Protein.ActiveResidues>
 VAL166  LYS551  ARG553  GLY616  TRP617  ASP618  TYR619  PRO620  LYS621  CYS622 
 ASP623  PHE694  ASN695  SER759  ASP760  ASP761  ALA762  ILE779  LEU786  VAL792 
 PHE793  MET794  SER795  GLU796  ALA797  LYS798  CYS799  TRP800  GLU811  SER814 

> <Gold.Protein.RotatedAtoms>
  150.8093  134.7237  159.6672 H   0  0  0  0  0  0  0  0  0  0  0  0  # atno 6907 bound_to 6896
  152.4212  134.5947  159.9993 H   0  0  0  0  0  0  0  0  0  0  0  0  # atno 6908 bound_to 6896
  151.6162  133.3306  159.3114 H   0  0  0  0  0  0  0  0  0  0  0  0  # atno 6909 bound_to 6896
  146.1760  139.7131  142.8934 H   0  0  0  0  0  0  0  0  0  0  0  0  # atno 7974 bound_to 7965
  156.1833  140.1681  156.8234 H   0  0  0  0  0  0  0  0  0  0  0  0  # atno 8008 bound_to 7997
  154.5384  140.0742  156.8501 H   0  0  0  0  0  0  0  0  0  0  0  0  # atno 8009 bound_to 7997
  155.3263  140.3376  155.4242 H   0  0  0  0  0  0  0  0  0  0  0  0  # atno 8010 bound_to 7997
  140.3701  144.2116  150.6133 H   0  0  0  0  0  0  0  0  0  0  0  0  # atno 10167 bound_to 10162
  156.4813  130.8304  151.2531 H   0  0  0  0  0  0  0  0  0  0  0  0  # atno 10718 bound_to 10713
  153.5643  135.3514  155.2812 H   0  0  0  0  0  0  0  0  0  0  0  0  # atno 10763 bound_to 10752
  154.8691  135.4144  154.2796 H   0  0  0  0  0  0  0  0  0  0  0  0  # atno 10764 bound_to 10752
  153.3548  135.7057  153.6829 H   0  0  0  0  0  0  0  0  0  0  0  0  # atno 10765 bound_to 10752
  140.9897  133.7012  156.1827 H   0  0  0  0  0  0  0  0  0  0  0  0  # atno 11005 bound_to 11000
  145.4211  141.0406  143.2963 LP  0  0  0  0  0  0  0  0  0  0  0  0  # atno 17320 bound_to 7965
  144.8236  139.5748  143.6975 LP  0  0  0  0  0  0  0  0  0  0  0  0  # atno 17321 bound_to 7965
  140.5042  143.2309  151.8633 LP  0  0  0  0  0  0  0  0  0  0  0  0  # atno 17342 bound_to 10162
  139.4804  144.5025  151.9042 LP  0  0  0  0  0  0  0  0  0  0  0  0  # atno 17343 bound_to 10162
  157.7483  131.0044  150.3074 LP  0  0  0  0  0  0  0  0  0  0  0  0  # atno 17370 bound_to 10713
  156.3518  130.3832  149.7322 LP  0  0  0  0  0  0  0  0  0  0  0  0  # atno 17371 bound_to 10713
  140.7060  134.4513  157.5584 LP  0  0  0  0  0  0  0  0  0  0  0  0  # atno 17394 bound_to 11000
  139.8986  134.8609  156.1993 LP  0  0  0  0  0  0  0  0  0  0  0  0  # atno 17395 bound_to 11000

$$$$
