AV-unprocessed.smi:109|AV-procd|sdf|1056|dock6
  -GOLD-   2262018123D 1   1.00000     0.00000
 Structure written by MMmdl.
 58 61  0  0  0  0  0  0  0  0  1 V2000
  147.3623  136.2957  156.2317 O   0  0  0  0  0  0  0  0  0  0  0  0
  146.5433  137.2719  156.8383 C   0  0  0  0  0  0  0  0  0  0  0  0
  145.2920  137.5111  155.9783 C   0  0  0  0  0  0  0  0  0  0  0  0
  145.6214  138.0813  154.5807 C   0  0  1  0  0  0  0  0  0  0  0  0
  144.3950  138.2024  153.7928 N   0  0  0  0  0  0  0  0  0  0  0  0
  143.6778  137.1163  153.4289 C   0  0  0  0  0  0  0  0  0  0  0  0
  142.3391  137.0451  153.6511 N   0  0  0  0  0  0  0  0  0  0  0  0
  141.6552  135.9594  153.2772 C   0  0  0  0  0  0  0  0  0  0  0  0
  142.1053  134.8543  152.6780 N   0  0  0  0  0  0  0  0  0  0  0  0
  143.4495  134.9232  152.4526 C   0  0  0  0  0  0  0  0  0  0  0  0
  144.2999  136.0103  152.7954 C   0  0  0  0  0  0  0  0  0  0  0  0
  145.6048  135.7242  152.4161 N   0  0  0  0  0  0  0  0  0  0  0  0
  145.5233  134.5367  151.8783 C   0  0  0  0  0  0  0  0  0  0  0  0
  144.2600  133.9837  151.8536 N   0  0  0  0  0  0  0  0  0  0  0  0
  143.8139  132.6580  151.3158 C   0  0  2  0  0  0  0  0  0  0  0  0
  144.5492  131.6685  151.9742 O   0  0  0  0  0  0  0  0  0  0  0  0
  145.3549  130.9342  151.0537 C   0  0  2  0  0  0  0  0  0  0  0  0
  146.6762  130.4949  151.7091 C   0  0  0  0  0  0  0  0  0  0  0  0
  147.4964  131.6162  151.9597 O   0  0  0  0  0  0  0  0  0  0  0  0
  145.4528  131.8043  149.7906 C   0  0  2  0  0  0  0  0  0  0  0  0
  146.5521  132.6978  149.8461 O   0  0  0  0  0  0  0  0  0  0  0  0
  144.1075  132.5182  149.8100 C   0  0  2  0  0  0  0  0  0  0  0  0
  144.0972  133.7246  149.0664 O   0  0  0  0  0  0  0  0  0  0  0  0
  146.3895  139.4316  154.6127 C   0  0  0  0  0  0  0  0  0  0  0  0
  145.5591  140.5796  155.2263 C   0  0  0  0  0  0  0  0  0  0  0  0
  146.3844  141.8721  155.3373 C   0  0  0  0  0  0  0  0  0  0  0  0
  146.9569  142.2859  153.9726 C   0  0  0  0  0  0  0  0  0  0  0  0
  147.7838  141.1499  153.3505 C   0  0  0  0  0  0  0  0  0  0  0  0
  146.9601  139.8565  153.2403 C   0  0  0  0  0  0  0  0  0  0  0  0
  142.7538  132.6001  151.5651 H   0  0  0  0  0  0  0  0  0  0  0  0
  144.7764  130.0433  150.8021 H   0  0  0  0  0  0  0  0  0  0  0  0
  145.5671  131.1932  148.8946 H   0  0  0  0  0  0  0  0  0  0  0  0
  143.3502  131.8502  149.3975 H   0  0  0  0  0  0  0  0  0  0  0  0
  147.1385  135.4506  156.5909 H   0  0  0  0  0  0  0  0  0  0  0  0
  146.2651  136.9310  157.8360 H   0  0  0  0  0  0  0  0  0  0  0  0
  147.1195  138.1900  156.9552 H   0  0  0  0  0  0  0  0  0  0  0  0
  144.7346  136.5785  155.8822 H   0  0  0  0  0  0  0  0  0  0  0  0
  144.6419  138.1998  156.5163 H   0  0  0  0  0  0  0  0  0  0  0  0
  146.2678  137.3488  154.0960 H   0  0  0  0  0  0  0  0  0  0  0  0
  144.1931  139.1279  153.4425 H   0  0  0  0  0  0  0  0  0  0  0  0
  140.5960  135.9791  153.4866 H   0  0  0  0  0  0  0  0  0  0  0  0
  146.3915  134.0320  151.4819 H   0  0  0  0  0  0  0  0  0  0  0  0
  146.5050  129.9483  152.6366 H   0  0  0  0  0  0  0  0  0  0  0  0
  147.2141  129.8215  151.0415 H   0  0  0  0  0  0  0  0  0  0  0  0
  148.1954  131.6244  151.3238 H   0  0  0  0  0  0  0  0  0  0  0  0
  147.3454  132.1909  149.9295 H   0  0  0  0  0  0  0  0  0  0  0  0
  144.9319  133.8175  148.6341 H   0  0  0  0  0  0  0  0  0  0  0  0
  147.2426  139.2958  155.2792 H   0  0  0  0  0  0  0  0  0  0  0  0
  144.6745  140.7789  154.6225 H   0  0  0  0  0  0  0  0  0  0  0  0
  145.2005  140.2921  156.2153 H   0  0  0  0  0  0  0  0  0  0  0  0
  145.7653  142.6745  155.7393 H   0  0  0  0  0  0  0  0  0  0  0  0
  147.1997  141.7258  156.0469 H   0  0  0  0  0  0  0  0  0  0  0  0
  146.1409  142.5543  153.3005 H   0  0  0  0  0  0  0  0  0  0  0  0
  147.5736  143.1784  154.0825 H   0  0  0  0  0  0  0  0  0  0  0  0
  148.1406  141.4474  152.3641 H   0  0  0  0  0  0  0  0  0  0  0  0
  148.6709  140.9675  153.9581 H   0  0  0  0  0  0  0  0  0  0  0  0
  147.5865  139.0643  152.8292 H   0  0  0  0  0  0  0  0  0  0  0  0
  146.1505  140.0131  152.5271 H   0  0  0  0  0  0  0  0  0  0  0  0
  1  2  1  0  0  0  0
  1 34  1  0  0  0  0
  2  3  1  0  0  0  0
  2 35  1  0  0  0  0
  2 36  1  0  0  0  0
  3  4  1  0  0  0  0
  3 37  1  0  0  0  0
  3 38  1  0  0  0  0
  4  5  1  0  0  0  0
  4 24  1  0  0  0  0
  4 39  1  0  0  0  0
  5  6  1  0  0  0  0
  5 40  1  0  0  0  0
  6 11  1  0  0  0  0
  6  7  2  0  0  0  0
  7  8  1  0  0  0  0
  8  9  2  0  0  0  0
  8 41  1  0  0  0  0
  9 10  1  0  0  0  0
 10 14  1  0  0  0  0
 10 11  2  0  0  0  0
 11 12  1  0  0  0  0
 12 13  2  0  0  0  0
 13 14  1  0  0  0  0
 13 42  1  0  0  0  0
 14 15  1  0  0  0  0
 15 30  1  0  0  0  0
 15 22  1  0  0  0  0
 15 16  1  0  0  0  0
 16 17  1  0  0  0  0
 17 31  1  0  0  0  0
 17 18  1  0  0  0  0
 17 20  1  0  0  0  0
 18 19  1  0  0  0  0
 18 43  1  0  0  0  0
 18 44  1  0  0  0  0
 19 45  1  0  0  0  0
 20 32  1  0  0  0  0
 20 21  1  0  0  0  0
 20 22  1  0  0  0  0
 21 46  1  0  0  0  0
 22 33  1  0  0  0  0
 22 23  1  0  0  0  0
 23 47  1  0  0  0  0
 24 29  1  0  0  0  0
 24 25  1  0  0  0  0
 24 48  1  0  0  0  0
 25 26  1  0  0  0  0
 25 49  1  0  0  0  0
 25 50  1  0  0  0  0
 26 27  1  0  0  0  0
 26 51  1  0  0  0  0
 26 52  1  0  0  0  0
 27 28  1  0  0  0  0
 27 53  1  0  0  0  0
 27 54  1  0  0  0  0
 28 29  1  0  0  0  0
 28 55  1  0  0  0  0
 28 56  1  0  0  0  0
 29 57  1  0  0  0  0
 29 58  1  0  0  0  0
M  END
> <s_m_source_file>
AV-unprocessed.smi

> <i_m_source_file_index>
109

> <i_lp_mmshare_version>
43012

> <i_f3d_flags>
0

> <s_epik_input>
W0NIMl0xW0NIMl1bQ0gyXVtDSDJdW0NIMl1bQ0hdMVtDQEhdKFtDSDJdW0NIMl1bT0hdKVtOSF1jKG5bY0hdbjIpYyhjMjMpbltjSF1uM1tDQEBIXTRPW0NASF0oW0NIMl1bT0hdKVtDQEBIXShbT0hdKVtDQEhdNFtPSF0=

> <s_epik_cmdline>
J2VwaWtfcHl0aG9uJywgJy1waCcsICc3LjAnLCAnLXRuJywgJzgnLCAnLW1hJywgJzIwMCcsICctbWV0YWxfYmluZGluZycsICctaW1hZScsICc8aW5maWxlLm1hZT4nLCAnLW9tYWUnLCAnPG91dGZpbGUubWFlPic=

> <r_lp_tautomer_probability>
1

> <r_epik_Ionization_Penalty>
0.000793976

> <r_epik_Ionization_Penalty_Charging>
0

> <r_epik_Ionization_Penalty_Neutral>
0.000793976

> <r_epik_State_Penalty>
-0

> <r_epik_Charging_Adjusted_Penalty>
0

> <i_epik_Tot_Q>
0

> <i_epik_Tot_abs_Q>
0

> <r_epik_Metal_State_Penalty>
-0

> <b_epik_Metal_Only>
0

> <s_epik_Chemistry_Notes>
This compound contains an acetal/aminal-like group ( X-CH(R)-Y where X, Y are N, S, or O) that may be acid/base labile, releasing an aldehyde.

> <s_lp_Force_Field>
OPLS_2005

> <r_lp_Energy>
58.3807

> <b_lp_Chiralities_Consistent>
1

> <s_lp_Variant>
AV-unprocessed.smi:109-26

> <Gold.Version>
5.8.1

> <Gold.Id.Protein>
6NUR|6NUR_protein|mol2

> <Gold.PLP.Fitness>
47.0819

> <Gold.PLP.PLP>
-38.3125

> <Gold.PLP.part.hbond>
-4.8853

> <Gold.PLP.part.metal>
0.0000

> <Gold.PLP.part.buried>
-3.8671

> <Gold.PLP.part.nonpolar>
-30.4028

> <Gold.PLP.part.repulsive>
0.6568

> <Gold.PLP.ligand.clash>
2.3918

> <Gold.PLP.ligand.torsion>
0.6143

> <Gold.PLP.Chemscore.Hbond>
3.8780

> <Gold.PLP.Chemscore.CHOScore>
0.0000

> <Gold.PLP.Chemscore.Metal>
0.0000

> <Gold.Chemscore.Hbonds>
donor molecule, donor type, donor heavy atom, donor atom, acceptor molecule, acceptor atom, score
      L1  H     5    40       P1 10175  1.00
      L1  H    19    45       P1 10747  0.92
      L1  H    21    46       P1 10747  0.78
      L1  H    23    47       P1  7921  1.00

> <Gold.PLP.Chemscore.Internal.Correction>
0.7558

> <Gold.Rescore>
     Score         DG    S(hbond)    S(metal)    S(lipo)     H(rot)  DE(clash)    DE(int)     intcor
     10.40     -12.44       3.69        0.00      73.74       5.47       0.21       1.83       ----

> <Gold.Chemscore.Fitness>
10.3972

> <Gold.Chemscore.DG>
-12.4380

> <Gold.Chemscore.ZeroCoef>
-5.4800

> <Gold.Chemscore.Hbond>
3.6900

> <Gold.Chemscore.Metal>
0.0000

> <Gold.Chemscore.Lipo>
73.7353

> <Gold.Chemscore.Internal_Hbond>
0.0000

> <Gold.Chemscore.DEClash>
0.2120

> <Gold.Chemscore.DEInternal>
1.8289

> <Gold.Chemscore.Rot>
5.4662

> <Gold.Chemscore.Internal.Correction>
   9.000000E+99

> <Gold.Chemscore.Hbonds>
donor molecule, donor type, donor heavy atom, donor atom, acceptor molecule, acceptor atom, score
      L1  H     5    40       P1 10175  1.00
      L1  H    19    45       P1 10747  0.84
      L1  H    21    46       P1 10747  0.77
      L1  H    23    47       P1  7921  0.92

> <Gold.Chemscore.Hbond.Weighted>
-12.3245

> <Gold.Chemscore.Metal.Weighted>
-0.0000

> <Gold.Chemscore.Lipo.Weighted>
-8.6270

> <Gold.Chemscore.Internal_Hbond.Weighted>
0.0000

> <Gold.Chemscore.DEClash.Weighted>
0.2120

> <Gold.Chemscore.DEInternal.Weighted>
1.8289

> <Gold.Chemscore.Rot.Weighted>
13.9935

> <Gold.Chemscore.Internal.Correction.Weighted>
   9.000000E+99

> <Gold.Protein.RotatedTorsions>
[ 6907 6896 6895 6894 ] final -129.62 input  -60.11 | X-H torsion
[ 7974 7965 7964 7962 ] final  158.44 input  175.53 | X-H torsion
[ 8008 7997 7996 7995 ] final   91.18 input   59.86 | X-H torsion
[ 10167 10162 10161 10158 ] final -133.37 input  -65.29 | X-H torsion
[ 10718 10713 10712 10709 ] final    4.02 input   66.30 | X-H torsion
[ 10763 10752 10751 10750 ] final  -96.84 input  -60.55 | X-H torsion
[ 11005 11000 10999 10996 ] final   30.50 input  -57.11 | X-H torsion

> <Gold.Protein.ActiveResidues>
 VAL166  LYS551  ARG553  GLY616  TRP617  ASP618  TYR619  PRO620  LYS621  CYS622 
 ASP623  PHE694  ASN695  SER759  ASP760  ASP761  ALA762  ILE779  LEU786  VAL792 
 PHE793  MET794  SER795  GLU796  ALA797  LYS798  CYS799  TRP800  GLU811  SER814 

> <Gold.Protein.RotatedAtoms>
  150.9307  133.6770  159.2811 H   0  0  0  0  0  0  0  0  0  0  0  0  # atno 6907 bound_to 6896
  151.4193  135.0994  159.9619 H   0  0  0  0  0  0  0  0  0  0  0  0  # atno 6908 bound_to 6896
  152.5024  133.8762  159.7378 H   0  0  0  0  0  0  0  0  0  0  0  0  # atno 6909 bound_to 6896
  144.7846  139.7478  143.6246 H   0  0  0  0  0  0  0  0  0  0  0  0  # atno 7974 bound_to 7965
  156.0207  140.3341  155.7035 H   0  0  0  0  0  0  0  0  0  0  0  0  # atno 8008 bound_to 7997
  155.6027  140.0657  157.2746 H   0  0  0  0  0  0  0  0  0  0  0  0  # atno 8009 bound_to 7997
  154.4315  140.1807  156.1177 H   0  0  0  0  0  0  0  0  0  0  0  0  # atno 8010 bound_to 7997
  139.8990  143.6631  152.2598 H   0  0  0  0  0  0  0  0  0  0  0  0  # atno 10167 bound_to 10162
  156.8864  130.5672  149.5651 H   0  0  0  0  0  0  0  0  0  0  0  0  # atno 10718 bound_to 10713
  154.7275  135.5069  153.8910 H   0  0  0  0  0  0  0  0  0  0  0  0  # atno 10763 bound_to 10752
  153.0918  135.6661  153.9847 H   0  0  0  0  0  0  0  0  0  0  0  0  # atno 10764 bound_to 10752
  153.9656  135.3043  155.3410 H   0  0  0  0  0  0  0  0  0  0  0  0  # atno 10765 bound_to 10752
  140.2937  134.2835  155.7770 H   0  0  0  0  0  0  0  0  0  0  0  0  # atno 11005 bound_to 11000
  146.2071  139.5402  142.9705 LP  0  0  0  0  0  0  0  0  0  0  0  0  # atno 17320 bound_to 7965
  145.5957  141.0363  143.2045 LP  0  0  0  0  0  0  0  0  0  0  0  0  # atno 17321 bound_to 7965
  139.7042  144.7630  151.1221 LP  0  0  0  0  0  0  0  0  0  0  0  0  # atno 17342 bound_to 10162
  140.7711  143.5417  150.9305 LP  0  0  0  0  0  0  0  0  0  0  0  0  # atno 17343 bound_to 10162
  156.0651  130.5696  150.9272 LP  0  0  0  0  0  0  0  0  0  0  0  0  # atno 17370 bound_to 10713
  157.6110  131.0936  150.8795 LP  0  0  0  0  0  0  0  0  0  0  0  0  # atno 17371 bound_to 10713
  141.2141  133.7601  156.9663 LP  0  0  0  0  0  0  0  0  0  0  0  0  # atno 17394 bound_to 11000
  140.1172  134.9440  157.2151 LP  0  0  0  0  0  0  0  0  0  0  0  0  # atno 17395 bound_to 11000

$$$$
