AV-unprocessed.smi:197|AV-procd|sdf|1550|dock9
  -GOLD-   2262019413D 1   1.00000     0.00000
 Structure written by MMmdl.
 54 57  0  0  0  0  0  0  0  0  1 V2000
  145.1234  137.2690  160.4389 C   0  0  0  0  0  0  0  0  0  0  0  0
  146.3293  137.7885  159.8982 O   0  0  0  0  0  0  0  0  0  0  0  0
  146.4786  137.5967  158.4965 C   0  0  0  0  0  0  0  0  0  0  0  0
  147.9560  137.4742  158.0788 C   0  0  0  0  0  0  0  0  0  0  0  0
  148.2107  136.4116  156.9763 C   0  0  2  0  0  0  0  0  0  0  0  0
  147.8303  134.9967  157.4710 C   0  0  0  0  0  0  0  0  0  0  0  0
  148.0862  134.0295  156.4586 O   0  0  0  0  0  0  0  0  0  0  0  0
  149.4631  133.9794  156.1096 C   0  0  0  0  0  0  0  0  0  0  0  0
  149.8852  135.3428  155.5465 C   0  0  0  0  0  0  0  0  0  0  0  0
  149.6052  136.3977  156.5139 N   0  0  0  0  0  0  0  0  0  0  0  0
  150.0971  137.5824  156.0863 C   0  0  0  0  0  0  0  0  0  0  0  0
  150.3350  137.7068  154.7577 N   0  0  0  0  0  0  0  0  0  0  0  0
  150.8652  138.8359  154.2778 C   0  0  0  0  0  0  0  0  0  0  0  0
  151.2290  139.9358  154.9408 N   0  0  0  0  0  0  0  0  0  0  0  0
  150.9794  139.8165  156.2766 C   0  0  0  0  0  0  0  0  0  0  0  0
  150.4064  138.6888  156.9281 C   0  0  0  0  0  0  0  0  0  0  0  0
  150.2881  138.9385  158.2901 N   0  0  0  0  0  0  0  0  0  0  0  0
  150.7800  140.1373  158.4382 C   0  0  0  0  0  0  0  0  0  0  0  0
  151.2347  140.7318  157.2828 N   0  0  0  0  0  0  0  0  0  0  0  0
  151.8475  142.0455  157.1603 C   0  0  0  0  0  0  0  0  0  0  0  0
  151.0126  143.1753  157.8200 C   0  0  2  0  0  0  0  0  0  0  0  0
  149.6597  143.0069  157.4302 O   0  0  0  0  0  0  0  0  0  0  0  0
  151.4444  144.5786  157.4003 C   0  0  0  0  0  0  0  0  0  0  0  0
  151.0726  145.4277  158.6058 C   0  0  0  0  0  0  0  0  0  0  0  0
  151.4233  144.5855  159.6891 O   0  0  0  0  0  0  0  0  0  0  0  0
  151.0515  143.2464  159.3730 C   0  0  2  0  0  0  0  0  0  0  0  0
  152.0387  142.3088  160.0856 C   0  0  0  0  0  0  0  0  0  0  0  0
  145.0745  137.5030  161.5023 H   0  0  0  0  0  0  0  0  0  0  0  0
  145.0620  136.1857  160.3414 H   0  0  0  0  0  0  0  0  0  0  0  0
  144.2508  137.7128  159.9584 H   0  0  0  0  0  0  0  0  0  0  0  0
  145.9181  136.7176  158.1755 H   0  0  0  0  0  0  0  0  0  0  0  0
  146.0186  138.4444  157.9903 H   0  0  0  0  0  0  0  0  0  0  0  0
  148.2922  138.4612  157.7658 H   0  0  0  0  0  0  0  0  0  0  0  0
  148.5612  137.2372  158.9544 H   0  0  0  0  0  0  0  0  0  0  0  0
  147.5784  136.6393  156.1185 H   0  0  0  0  0  0  0  0  0  0  0  0
  148.3808  134.7370  158.3769 H   0  0  0  0  0  0  0  0  0  0  0  0
  146.7707  134.9459  157.7188 H   0  0  0  0  0  0  0  0  0  0  0  0
  150.0651  133.7113  156.9795 H   0  0  0  0  0  0  0  0  0  0  0  0
  149.6135  133.2001  155.3625 H   0  0  0  0  0  0  0  0  0  0  0  0
  150.9492  135.3288  155.3058 H   0  0  0  0  0  0  0  0  0  0  0  0
  149.3470  135.5410  154.6184 H   0  0  0  0  0  0  0  0  0  0  0  0
  151.0285  138.8584  153.2105 H   0  0  0  0  0  0  0  0  0  0  0  0
  150.8349  140.6189  159.4037 H   0  0  0  0  0  0  0  0  0  0  0  0
  152.8435  141.9996  157.6025 H   0  0  0  0  0  0  0  0  0  0  0  0
  151.9887  142.2437  156.0976 H   0  0  0  0  0  0  0  0  0  0  0  0
  149.4986  143.5410  156.6673 H   0  0  0  0  0  0  0  0  0  0  0  0
  152.5266  144.6148  157.2690 H   0  0  0  0  0  0  0  0  0  0  0  0
  150.9856  144.9243  156.4730 H   0  0  0  0  0  0  0  0  0  0  0  0
  151.6119  146.3744  158.6398 H   0  0  0  0  0  0  0  0  0  0  0  0
  150.0017  145.6356  158.6282 H   0  0  0  0  0  0  0  0  0  0  0  0
  150.0560  143.0749  159.7867 H   0  0  0  0  0  0  0  0  0  0  0  0
  151.7960  141.2618  159.9034 H   0  0  0  0  0  0  0  0  0  0  0  0
  152.0067  142.4666  161.1638 H   0  0  0  0  0  0  0  0  0  0  0  0
  153.0646  142.4846  159.7616 H   0  0  0  0  0  0  0  0  0  0  0  0
  1  2  1  0  0  0  0
  1 28  1  0  0  0  0
  1 29  1  0  0  0  0
  1 30  1  0  0  0  0
  2  3  1  0  0  0  0
  3  4  1  0  0  0  0
  3 31  1  0  0  0  0
  3 32  1  0  0  0  0
  4  5  1  0  0  0  0
  4 33  1  0  0  0  0
  4 34  1  0  0  0  0
  5 10  1  0  0  0  0
  5  6  1  0  0  0  0
  5 35  1  0  0  0  0
  6  7  1  0  0  0  0
  6 36  1  0  0  0  0
  6 37  1  0  0  0  0
  7  8  1  0  0  0  0
  8  9  1  0  0  0  0
  8 38  1  0  0  0  0
  8 39  1  0  0  0  0
  9 10  1  0  0  0  0
  9 40  1  0  0  0  0
  9 41  1  0  0  0  0
 10 11  1  0  0  0  0
 11 16  1  0  0  0  0
 11 12  2  0  0  0  0
 12 13  1  0  0  0  0
 13 14  2  0  0  0  0
 13 42  1  0  0  0  0
 14 15  1  0  0  0  0
 15 19  1  0  0  0  0
 15 16  2  0  0  0  0
 16 17  1  0  0  0  0
 17 18  2  0  0  0  0
 18 19  1  0  0  0  0
 18 43  1  0  0  0  0
 19 20  1  0  0  0  0
 20 21  1  0  0  0  0
 20 44  1  0  0  0  0
 20 45  1  0  0  0  0
 21 26  1  0  0  0  0
 21 22  1  0  0  0  0
 21 23  1  0  0  0  0
 22 46  1  0  0  0  0
 23 24  1  0  0  0  0
 23 47  1  0  0  0  0
 23 48  1  0  0  0  0
 24 25  1  0  0  0  0
 24 49  1  0  0  0  0
 24 50  1  0  0  0  0
 25 26  1  0  0  0  0
 26 27  1  0  0  0  0
 26 51  1  0  0  0  0
 27 52  1  0  0  0  0
 27 53  1  0  0  0  0
 27 54  1  0  0  0  0
M  END
> <s_m_source_file>
AV-unprocessed.smi

> <i_m_source_file_index>
197

> <i_lp_mmshare_version>
43012

> <i_f3d_flags>
0

> <s_epik_input>
W0NIM11PW0NIMl1bQ0gyXVtDQEBIXTFbQ0gyXU9bQ0gyXVtDSDJdTjFjKG5bY0hdbjIpYyhjMjMpbltjSF1uM1tDSDJdW0NAQF00KFtPSF0pW0NIMl1bQ0gyXU9bQ0BIXTRbQ0gzXQ==

> <s_epik_cmdline>
J2VwaWtfcHl0aG9uJywgJy1waCcsICc3LjAnLCAnLXRuJywgJzgnLCAnLW1hJywgJzIwMCcsICctbWV0YWxfYmluZGluZycsICctaW1hZScsICc8aW5maWxlLm1hZT4nLCAnLW9tYWUnLCAnPG91dGZpbGUubWFlPic=

> <r_lp_tautomer_probability>
1

> <r_epik_Ionization_Penalty>
0.000106218

> <r_epik_Ionization_Penalty_Charging>
0

> <r_epik_Ionization_Penalty_Neutral>
0.000106218

> <r_epik_State_Penalty>
-0

> <r_epik_Charging_Adjusted_Penalty>
0

> <i_epik_Tot_Q>
0

> <i_epik_Tot_abs_Q>
0

> <r_epik_Metal_State_Penalty>
-0

> <b_epik_Metal_Only>
0

> <s_lp_Force_Field>
OPLS_2005

> <r_lp_Energy>
42.452

> <b_lp_Chiralities_Consistent>
1

> <s_lp_Variant>
AV-unprocessed.smi:197-7

> <Gold.Version>
5.8.1

> <Gold.Id.Protein>
6NUR|6NUR_protein|mol2

> <Gold.PLP.Fitness>
46.3430

> <Gold.PLP.PLP>
-36.3525

> <Gold.PLP.part.hbond>
-3.8147

> <Gold.PLP.part.metal>
0.0000

> <Gold.PLP.part.buried>
-6.6930

> <Gold.PLP.part.nonpolar>
-25.3473

> <Gold.PLP.part.repulsive>
0.2648

> <Gold.PLP.ligand.clash>
1.0886

> <Gold.PLP.ligand.torsion>
1.1002

> <Gold.PLP.Chemscore.Hbond>
3.3447

> <Gold.PLP.Chemscore.CHOScore>
1.0000

> <Gold.PLP.Chemscore.Metal>
0.0000

> <Gold.Chemscore.Hbonds>
donor molecule, donor type, donor heavy atom, donor atom, acceptor molecule, acceptor atom, score
      L1  H    22    46       P1  8028  1.00
      P1  H  6934  6947       L1     2  1.00
      P1  H  7989  7998       L1    14  0.75
      L1  C    13    42       P1  7957  0.49

> <Gold.PLP.Chemscore.Internal.Correction>
0.2455

> <Gold.Rescore>
     Score         DG    S(hbond)    S(metal)    S(lipo)     H(rot)  DE(clash)    DE(int)     intcor
      9.58     -14.01       1.77        0.00      84.51       2.84       2.30       2.13       ----

> <Gold.Chemscore.Fitness>
9.5773

> <Gold.Chemscore.DG>
-14.0120

> <Gold.Chemscore.ZeroCoef>
-5.4800

> <Gold.Chemscore.Hbond>
1.7675

> <Gold.Chemscore.Metal>
0.0000

> <Gold.Chemscore.Lipo>
84.5135

> <Gold.Chemscore.Internal_Hbond>
0.0000

> <Gold.Chemscore.DEClash>
2.3001

> <Gold.Chemscore.DEInternal>
2.1347

> <Gold.Chemscore.Rot>
2.8358

> <Gold.Chemscore.Internal.Correction>
   9.000000E+99

> <Gold.Chemscore.Hbonds>
donor molecule, donor type, donor heavy atom, donor atom, acceptor molecule, acceptor atom, score
      L1  H    22    46       P1  8028  0.99
      P1  H  6934  6947       L1     2  0.88
      P1  H  7989  7998       L1    14  0.09

> <Gold.Chemscore.Hbond.Weighted>
-5.9035

> <Gold.Chemscore.Metal.Weighted>
-0.0000

> <Gold.Chemscore.Lipo.Weighted>
-9.8881

> <Gold.Chemscore.Internal_Hbond.Weighted>
0.0000

> <Gold.Chemscore.DEClash.Weighted>
2.3001

> <Gold.Chemscore.DEInternal.Weighted>
2.1347

> <Gold.Chemscore.Rot.Weighted>
7.2596

> <Gold.Chemscore.Internal.Correction.Weighted>
   9.000000E+99

> <Gold.Protein.RotatedTorsions>
[ 6907 6896 6895 6894 ] final -166.90 input  -60.11 | X-H torsion
[ 7974 7965 7964 7962 ] final  -23.71 input  175.53 | X-H torsion
[ 8008 7997 7996 7995 ] final  -24.40 input   59.86 | X-H torsion
[ 10167 10162 10161 10158 ] final  -53.62 input  -65.29 | X-H torsion
[ 10718 10713 10712 10709 ] final  114.62 input   66.30 | X-H torsion
[ 10763 10752 10751 10750 ] final   53.14 input  -60.55 | X-H torsion
[ 11005 11000 10999 10996 ] final -169.84 input  -57.11 | X-H torsion

> <Gold.Protein.ActiveResidues>
 VAL166  LYS551  ARG553  GLY616  TRP617  ASP618  TYR619  PRO620  LYS621  CYS622 
 ASP623  PHE694  ASN695  SER759  ASP760  ASP761  ALA762  ILE779  LEU786  VAL792 
 PHE793  MET794  SER795  GLU796  ALA797  LYS798  CYS799  TRP800  GLU811  SER814 

> <Gold.Protein.RotatedAtoms>
  151.4510  133.3617  159.2795 H   0  0  0  0  0  0  0  0  0  0  0  0  # atno 6907 bound_to 6896
  150.9091  134.8509  159.7423 H   0  0  0  0  0  0  0  0  0  0  0  0  # atno 6908 bound_to 6896
  152.4922  134.4438  159.9604 H   0  0  0  0  0  0  0  0  0  0  0  0  # atno 6909 bound_to 6896
  146.1600  140.4652  142.8575 H   0  0  0  0  0  0  0  0  0  0  0  0  # atno 7974 bound_to 7965
  154.4531  140.1954  156.0459 H   0  0  0  0  0  0  0  0  0  0  0  0  # atno 8008 bound_to 7997
  156.0690  140.3287  155.7525 H   0  0  0  0  0  0  0  0  0  0  0  0  # atno 8009 bound_to 7997
  155.5293  140.0576  157.2883 H   0  0  0  0  0  0  0  0  0  0  0  0  # atno 8010 bound_to 7997
  140.6475  143.2544  151.4818 H   0  0  0  0  0  0  0  0  0  0  0  0  # atno 10167 bound_to 10162
  157.6270  131.1001  150.7212 H   0  0  0  0  0  0  0  0  0  0  0  0  # atno 10718 bound_to 10713
  152.9793  135.5789  154.4693 H   0  0  0  0  0  0  0  0  0  0  0  0  # atno 10763 bound_to 10752
  154.4258  135.2772  155.1947 H   0  0  0  0  0  0  0  0  0  0  0  0  # atno 10764 bound_to 10752
  154.3677  135.6175  153.5777 H   0  0  0  0  0  0  0  0  0  0  0  0  # atno 10765 bound_to 10752
  140.5262  134.5660  157.5062 H   0  0  0  0  0  0  0  0  0  0  0  0  # atno 11005 bound_to 11000
  144.8014  140.6219  143.6476 LP  0  0  0  0  0  0  0  0  0  0  0  0  # atno 17320 bound_to 7965
  145.4613  139.1512  143.3865 LP  0  0  0  0  0  0  0  0  0  0  0  0  # atno 17321 bound_to 7965
  139.5687  144.1981  152.1804 LP  0  0  0  0  0  0  0  0  0  0  0  0  # atno 17342 bound_to 10162
  140.1270  144.5322  150.6826 LP  0  0  0  0  0  0  0  0  0  0  0  0  # atno 17343 bound_to 10162
  156.7558  130.4783  149.5447 LP  0  0  0  0  0  0  0  0  0  0  0  0  # atno 17370 bound_to 10713
  156.1449  130.6270  151.0518 LP  0  0  0  0  0  0  0  0  0  0  0  0  # atno 17371 bound_to 10713
  139.9579  134.7504  156.0302 LP  0  0  0  0  0  0  0  0  0  0  0  0  # atno 17394 bound_to 11000
  141.1307  133.6587  156.3456 LP  0  0  0  0  0  0  0  0  0  0  0  0  # atno 17395 bound_to 11000

$$$$
