AV-unprocessed.smi:3057|AV-procd|sdf|11665|dock1
  -GOLD-   2272017 73D 1   1.00000     0.00000
 Structure written by MMmdl.
 41 43  0  0  0  0  0  0  0  0  2 V2000
  144.7163  140.2398  161.5342 C   0  0  0  0  0  0  0  0  0  0  0  0
  144.8743  141.7720  161.4928 C   0  0  1  0  0  0  0  0  0  0  0  0
  144.8604  142.3784  162.9078 C   0  0  0  0  0  0  0  0  0  0  0  0
  146.3435  142.5074  163.2860 C   0  0  0  0  0  0  0  0  0  0  0  0
  147.0248  142.5483  161.9277 C   0  0  0  0  0  0  0  0  0  0  0  0
  148.1742  142.9524  161.7584 O   0  0  0  0  0  0  0  0  0  0  0  0
  146.1734  142.1530  160.9726 N   0  0  0  0  0  0  0  0  0  0  0  0
  146.2991  142.3857  159.5316 C   0  0  1  0  0  0  0  0  0  0  0  0
  147.1989  141.3178  158.8868 C   0  0  0  0  0  0  0  0  0  0  0  0
  146.9294  140.1198  158.9843 O   0  0  0  0  0  0  0  0  0  0  0  0
  148.2685  141.7753  158.2200 N   0  0  0  0  0  0  0  0  0  0  0  0
  149.2531  140.9350  157.5515 C   0  0  0  0  0  0  0  0  0  0  0  0
  150.2234  141.7940  156.7290 C   0  0  0  0  0  0  0  0  0  0  0  0
  151.0259  142.7458  157.5949 C   0  0  0  0  0  0  0  0  0  0  0  0
  152.0192  142.2935  158.4909 C   0  0  0  0  0  0  0  0  0  0  0  0
  152.7269  143.2354  159.2670 C   0  0  0  0  0  0  0  0  0  0  0  0
  152.4265  144.6068  159.1320 C   0  0  0  0  0  0  0  0  0  0  0  0
  151.4239  145.0026  158.2232 C   0  0  0  0  0  0  0  0  0  0  0  0
  150.7689  144.0705  157.4970 N   0  3  0  0  0  0  0  0  0  0  0  0
  144.8672  142.2985  158.9470 C   0  0  0  0  0  0  0  0  0  0  0  0
  143.7179  142.5211  160.3336 S   0  0  0  0  0  0  0  0  0  0  0  0
  145.4895  139.7749  162.1465 H   0  0  0  0  0  0  0  0  0  0  0  0
  144.7757  139.7990  160.5392 H   0  0  0  0  0  0  0  0  0  0  0  0
  143.7500  139.9597  161.9547 H   0  0  0  0  0  0  0  0  0  0  0  0
  144.4017  143.3684  162.8973 H   0  0  0  0  0  0  0  0  0  0  0  0
  144.3031  141.7706  163.6216 H   0  0  0  0  0  0  0  0  0  0  0  0
  146.5460  143.4039  163.8726 H   0  0  0  0  0  0  0  0  0  0  0  0
  146.6929  141.6347  163.8386 H   0  0  0  0  0  0  0  0  0  0  0  0
  146.7059  143.3856  159.3682 H   0  0  0  0  0  0  0  0  0  0  0  0
  148.4146  142.7739  158.1836 H   0  0  0  0  0  0  0  0  0  0  0  0
  149.8121  140.3523  158.2859 H   0  0  0  0  0  0  0  0  0  0  0  0
  148.7330  140.2259  156.9063 H   0  0  0  0  0  0  0  0  0  0  0  0
  150.9082  141.1547  156.1701 H   0  0  0  0  0  0  0  0  0  0  0  0
  149.6718  142.3757  155.9887 H   0  0  0  0  0  0  0  0  0  0  0  0
  152.2384  141.2396  158.5840 H   0  0  0  0  0  0  0  0  0  0  0  0
  153.4908  142.9097  159.9577 H   0  0  0  0  0  0  0  0  0  0  0  0
  152.9567  145.3439  159.7173 H   0  0  0  0  0  0  0  0  0  0  0  0
  151.1285  146.0283  158.0562 H   0  0  0  0  0  0  0  0  0  0  0  0
  144.6918  143.0498  158.1768 H   0  0  0  0  0  0  0  0  0  0  0  0
  144.6620  141.3216  158.5062 H   0  0  0  0  0  0  0  0  0  0  0  0
  150.0471  144.3796  156.8452 H   0  0  0  0  0  0  0  0  0  0  0  0
  1  2  1  0  0  0  0
  1 22  1  0  0  0  0
  1 23  1  0  0  0  0
  1 24  1  0  0  0  0
  2  7  1  0  0  0  0
  2 21  1  0  0  0  0
  2  3  1  0  0  0  0
  3  4  1  0  0  0  0
  3 25  1  0  0  0  0
  3 26  1  0  0  0  0
  4  5  1  0  0  0  0
  4 27  1  0  0  0  0
  4 28  1  0  0  0  0
  5  6  2  0  0  0  0
  5  7  1  0  0  0  0
  7  8  1  0  0  0  0
  8  9  1  0  0  0  0
  8 20  1  0  0  0  0
  8 29  1  0  0  0  0
  9 10  2  0  0  0  0
  9 11  1  0  0  0  0
 11 12  1  0  0  0  0
 11 30  1  0  0  0  0
 12 13  1  0  0  0  0
 12 31  1  0  0  0  0
 12 32  1  0  0  0  0
 13 14  1  0  0  0  0
 13 33  1  0  0  0  0
 13 34  1  0  0  0  0
 14 19  1  0  0  0  0
 14 15  2  0  0  0  0
 15 16  1  0  0  0  0
 15 35  1  0  0  0  0
 16 17  2  0  0  0  0
 16 36  1  0  0  0  0
 17 18  1  0  0  0  0
 17 37  1  0  0  0  0
 18 19  2  0  0  0  0
 18 38  1  0  0  0  0
 19 41  1  0  0  0  0
 20 21  1  0  0  0  0
 20 39  1  0  0  0  0
 20 40  1  0  0  0  0
M  CHG  1  19   1
M  END
> <s_m_source_file>
AV-unprocessed.smi

> <i_m_source_file_index>
3057

> <i_lp_mmshare_version>
43012

> <i_f3d_flags>
0

> <s_epik_input>
W0NIMl0xW0NIMl1DKD1PKU4oW0NAQF0xMltDSDNdKVtDQEhdKFtDSDJdUzIpQyg9TylbTkhdW0NIMl1bQ0gyXWMzW2NIXVtjSF1bY0hdW2NIXW4z

> <s_epik_cmdline>
J2VwaWtfcHl0aG9uJywgJy1waCcsICc3LjAnLCAnLXRuJywgJzgnLCAnLW1hJywgJzIwMCcsICctbWV0YWxfYmluZGluZycsICctaW1hZScsICc8aW5maWxlLm1hZT4nLCAnLW9tYWUnLCAnPG91dGZpbGUubWFlPic=

> <r_epik_Ionization_Penalty>
1.8888

> <r_epik_Ionization_Penalty_Charging>
1.8888

> <r_epik_Ionization_Penalty_Neutral>
1.66252e-07

> <r_epik_State_Penalty>
2.00916

> <r_epik_Charging_Adjusted_Penalty>
3.89796

> <i_epik_Tot_Q>
1

> <i_epik_Tot_abs_Q>
1

> <r_epik_Metal_State_Penalty>
2.03343

> <b_epik_Metal_Only>
0

> <s_lp_Force_Field>
OPLS_2005

> <r_lp_Energy>
32.3191

> <b_lp_Chiralities_Consistent>
1

> <s_lp_Variant>
AV-unprocessed.smi:3057-5

> <Gold.Version>
5.8.1

> <Gold.Id.Protein>
6NUR|6NUR_protein|mol2

> <Gold.PLP.Fitness>
47.1063

> <Gold.PLP.PLP>
-38.2019

> <Gold.PLP.part.hbond>
-3.0000

> <Gold.PLP.part.metal>
0.0000

> <Gold.PLP.part.buried>
-7.8535

> <Gold.PLP.part.nonpolar>
-28.1604

> <Gold.PLP.part.repulsive>
0.2085

> <Gold.PLP.ligand.clash>
0.0000

> <Gold.PLP.ligand.torsion>
0.1217

> <Gold.PLP.Chemscore.Hbond>
3.0338

> <Gold.PLP.Chemscore.CHOScore>
0.0000

> <Gold.PLP.Chemscore.Metal>
0.0000

> <Gold.Chemscore.Hbonds>
donor molecule, donor type, donor heavy atom, donor atom, acceptor molecule, acceptor atom, score
      L1  H    19    41       P1  8028  2.00

> <Gold.PLP.Chemscore.Internal.Correction>
0.0464

> <Gold.Rescore>
     Score         DG    S(hbond)    S(metal)    S(lipo)     H(rot)  DE(clash)    DE(int)     intcor
     18.27     -18.66       1.99        0.00      91.51       1.62       0.01       0.39       ----

> <Gold.Chemscore.Fitness>
18.2676

> <Gold.Chemscore.DG>
-18.6616

> <Gold.Chemscore.ZeroCoef>
-5.4800

> <Gold.Chemscore.Hbond>
1.9853

> <Gold.Chemscore.Metal>
0.0000

> <Gold.Chemscore.Lipo>
91.5092

> <Gold.Chemscore.Internal_Hbond>
0.0000

> <Gold.Chemscore.DEClash>
0.0058

> <Gold.Chemscore.DEInternal>
0.3883

> <Gold.Chemscore.Rot>
1.6234

> <Gold.Chemscore.Internal.Correction>
   9.000000E+99

> <Gold.Chemscore.Hbonds>
donor molecule, donor type, donor heavy atom, donor atom, acceptor molecule, acceptor atom, score
      L1  H    19    41       P1  8028  0.85

> <Gold.Chemscore.Hbond.Weighted>
-6.6308

> <Gold.Chemscore.Metal.Weighted>
-0.0000

> <Gold.Chemscore.Lipo.Weighted>
-10.7066

> <Gold.Chemscore.Internal_Hbond.Weighted>
0.0000

> <Gold.Chemscore.DEClash.Weighted>
0.0058

> <Gold.Chemscore.DEInternal.Weighted>
0.3883

> <Gold.Chemscore.Rot.Weighted>
4.1558

> <Gold.Chemscore.Internal.Correction.Weighted>
   9.000000E+99

> <Gold.Protein.RotatedTorsions>
[ 6907 6896 6895 6894 ] final -147.05 input  -60.11 | X-H torsion
[ 7974 7965 7964 7962 ] final  -90.42 input  175.53 | X-H torsion
[ 8008 7997 7996 7995 ] final    8.17 input   59.86 | X-H torsion
[ 10167 10162 10161 10158 ] final   90.93 input  -65.29 | X-H torsion
[ 10718 10713 10712 10709 ] final  -49.03 input   66.30 | X-H torsion
[ 10763 10752 10751 10750 ] final  -99.80 input  -60.55 | X-H torsion
[ 11005 11000 10999 10996 ] final    6.50 input  -57.11 | X-H torsion

> <Gold.Protein.ActiveResidues>
 VAL166  LYS551  ARG553  GLY616  TRP617  ASP618  TYR619  PRO620  LYS621  CYS622 
 ASP623  PHE694  ASN695  SER759  ASP760  ASP761  ALA762  ILE779  LEU786  VAL792 
 PHE793  MET794  SER795  GLU796  ALA797  LYS798  CYS799  TRP800  GLU811  SER814 

> <Gold.Protein.RotatedAtoms>
  151.1502  133.4913  159.2595 H   0  0  0  0  0  0  0  0  0  0  0  0  # atno 6907 bound_to 6896
  151.1562  135.0251  159.8700 H   0  0  0  0  0  0  0  0  0  0  0  0  # atno 6908 bound_to 6896
  152.5463  134.1381  159.8520 H   0  0  0  0  0  0  0  0  0  0  0  0  # atno 6909 bound_to 6896
  145.4267  140.9554  143.2151 H   0  0  0  0  0  0  0  0  0  0  0  0  # atno 7974 bound_to 7965
  154.7633  140.2788  155.6196 H   0  0  0  0  0  0  0  0  0  0  0  0  # atno 8008 bound_to 7997
  156.2920  140.2655  156.2344 H   0  0  0  0  0  0  0  0  0  0  0  0  # atno 8009 bound_to 7997
  154.9990  140.0373  157.2342 H   0  0  0  0  0  0  0  0  0  0  0  0  # atno 8010 bound_to 7997
  139.8424  144.6634  150.9267 H   0  0  0  0  0  0  0  0  0  0  0  0  # atno 10167 bound_to 10162
  156.1932  130.4153  149.9343 H   0  0  0  0  0  0  0  0  0  0  0  0  # atno 10718 bound_to 10713
  154.7528  135.4958  153.9320 H   0  0  0  0  0  0  0  0  0  0  0  0  # atno 10763 bound_to 10752
  153.1162  135.6721  153.9422 H   0  0  0  0  0  0  0  0  0  0  0  0  # atno 10764 bound_to 10752
  153.9167  135.3093  155.3427 H   0  0  0  0  0  0  0  0  0  0  0  0  # atno 10765 bound_to 10752
  140.5587  134.0213  155.7963 H   0  0  0  0  0  0  0  0  0  0  0  0  # atno 11005 bound_to 11000
  144.8210  139.5792  143.6987 LP  0  0  0  0  0  0  0  0  0  0  0  0  # atno 17320 bound_to 7965
  146.2629  139.6451  142.9350 LP  0  0  0  0  0  0  0  0  0  0  0  0  # atno 17321 bound_to 7965
  140.7796  143.3901  151.1326 LP  0  0  0  0  0  0  0  0  0  0  0  0  # atno 17342 bound_to 10162
  139.7546  143.8727  152.3085 LP  0  0  0  0  0  0  0  0  0  0  0  0  # atno 17343 bound_to 10162
  156.7076  130.8957  151.3606 LP  0  0  0  0  0  0  0  0  0  0  0  0  # atno 17370 bound_to 10713
  157.6941  130.9264  150.0596 LP  0  0  0  0  0  0  0  0  0  0  0  0  # atno 17371 bound_to 10713
  141.1127  133.9590  157.2879 LP  0  0  0  0  0  0  0  0  0  0  0  0  # atno 17394 bound_to 11000
  139.9418  135.0190  156.8732 LP  0  0  0  0  0  0  0  0  0  0  0  0  # atno 17395 bound_to 11000

$$$$
