AV-unprocessed.smi:1444|AV-procd|sdf|5883|dock9
  -GOLD-   22720 5563D 1   1.00000     0.00000
 Structure written by MMmdl.
 44 45  0  0  0  0  0  0  0  0  2 V2000
  153.5446  141.3836  161.2204 C   0  0  0  0  0  0  0  0  0  0  0  0
  152.9682  141.0750  159.9559 O   0  0  0  0  0  0  0  0  0  0  0  0
  152.3920  142.0968  159.2251 C   0  0  0  0  0  0  0  0  0  0  0  0
  152.5314  143.3684  159.6763 N   0  0  0  0  0  0  0  0  0  0  0  0
  151.9711  144.3677  158.9654 C   0  0  0  0  0  0  0  0  0  0  0  0
  151.2513  144.1552  157.7759 C   0  0  0  0  0  0  0  0  0  0  0  0
  151.1046  142.8374  157.3054 C   0  0  0  0  0  0  0  0  0  0  0  0
  151.6847  141.7748  158.0421 C   0  0  0  0  0  0  0  0  0  0  0  0
  151.6089  140.4003  157.6762 N   0  0  0  0  0  0  0  0  0  0  0  0
  151.2401  139.8344  156.5146 C   0  0  0  0  0  0  0  0  0  0  0  0
  150.8971  140.4344  155.4970 O   0  0  0  0  0  0  0  0  0  0  0  0
  151.3047  138.4971  156.5937 N   0  0  0  0  0  0  0  0  0  0  0  0
  150.9445  137.5504  155.5373 C   0  0  2  0  0  0  0  0  0  0  0  0
  151.4689  138.0799  154.1957 C   0  0  0  0  0  0  0  0  0  0  0  0
  149.4173  137.3150  155.4870 C   0  0  0  0  0  0  0  0  0  0  0  0
  149.0415  136.0831  154.7480 N   0  3  0  0  0  0  0  0  0  0  0  0
  149.9237  134.9323  155.0512 C   0  0  0  0  0  0  0  0  0  0  0  0
  149.5249  133.7169  154.1966 C   0  0  0  0  0  0  0  0  0  0  0  0
  148.1583  133.3973  154.4281 O   0  0  0  0  0  0  0  0  0  0  0  0
  147.2919  134.4661  154.0662 C   0  0  0  0  0  0  0  0  0  0  0  0
  147.6178  135.7034  154.9185 C   0  0  0  0  0  0  0  0  0  0  0  0
  153.9501  140.4736  161.6622 H   0  0  0  0  0  0  0  0  0  0  0  0
  152.8009  141.7836  161.9114 H   0  0  0  0  0  0  0  0  0  0  0  0
  154.3645  142.0967  161.1228 H   0  0  0  0  0  0  0  0  0  0  0  0
  152.1011  145.3661  159.3560 H   0  0  0  0  0  0  0  0  0  0  0  0
  150.8204  144.9855  157.2365 H   0  0  0  0  0  0  0  0  0  0  0  0
  150.5525  142.6823  156.3932 H   0  0  0  0  0  0  0  0  0  0  0  0
  151.8581  139.7575  158.4141 H   0  0  0  0  0  0  0  0  0  0  0  0
  151.6012  138.0960  157.4716 H   0  0  0  0  0  0  0  0  0  0  0  0
  151.4514  136.6016  155.7194 H   0  0  0  0  0  0  0  0  0  0  0  0
  151.2520  137.3814  153.3871 H   0  0  0  0  0  0  0  0  0  0  0  0
  152.5498  138.2225  154.2244 H   0  0  0  0  0  0  0  0  0  0  0  0
  151.0134  139.0371  153.9390 H   0  0  0  0  0  0  0  0  0  0  0  0
  149.0528  137.2421  156.5130 H   0  0  0  0  0  0  0  0  0  0  0  0
  148.9077  138.1732  155.0461 H   0  0  0  0  0  0  0  0  0  0  0  0
  150.9625  135.1960  154.8488 H   0  0  0  0  0  0  0  0  0  0  0  0
  149.8542  134.6854  156.1119 H   0  0  0  0  0  0  0  0  0  0  0  0
  149.6899  133.9152  153.1362 H   0  0  0  0  0  0  0  0  0  0  0  0
  150.1390  132.8551  154.4590 H   0  0  0  0  0  0  0  0  0  0  0  0
  147.3913  134.6888  153.0025 H   0  0  0  0  0  0  0  0  0  0  0  0
  146.2598  134.1569  154.2324 H   0  0  0  0  0  0  0  0  0  0  0  0
  147.4154  135.4953  155.9702 H   0  0  0  0  0  0  0  0  0  0  0  0
  146.9662  136.5259  154.6251 H   0  0  0  0  0  0  0  0  0  0  0  0
  149.1738  136.2886  153.7676 H   0  0  0  0  0  0  0  0  0  0  0  0
  1  2  1  0  0  0  0
  1 22  1  0  0  0  0
  1 23  1  0  0  0  0
  1 24  1  0  0  0  0
  2  3  1  0  0  0  0
  3  8  1  0  0  0  0
  3  4  2  0  0  0  0
  4  5  1  0  0  0  0
  5  6  2  0  0  0  0
  5 25  1  0  0  0  0
  6  7  1  0  0  0  0
  6 26  1  0  0  0  0
  7  8  2  0  0  0  0
  7 27  1  0  0  0  0
  8  9  1  0  0  0  0
  9 10  1  0  0  0  0
  9 28  1  0  0  0  0
 10 11  2  0  0  0  0
 10 12  1  0  0  0  0
 12 13  1  0  0  0  0
 12 29  1  0  0  0  0
 13 14  1  0  0  0  0
 13 15  1  0  0  0  0
 13 30  1  0  0  0  0
 14 31  1  0  0  0  0
 14 32  1  0  0  0  0
 14 33  1  0  0  0  0
 15 16  1  0  0  0  0
 15 34  1  0  0  0  0
 15 35  1  0  0  0  0
 16 21  1  0  0  0  0
 16 17  1  0  0  0  0
 16 44  1  0  0  0  0
 17 18  1  0  0  0  0
 17 36  1  0  0  0  0
 17 37  1  0  0  0  0
 18 19  1  0  0  0  0
 18 38  1  0  0  0  0
 18 39  1  0  0  0  0
 19 20  1  0  0  0  0
 20 21  1  0  0  0  0
 20 40  1  0  0  0  0
 20 41  1  0  0  0  0
 21 42  1  0  0  0  0
 21 43  1  0  0  0  0
M  CHG  1  16   1
M  END
> <s_m_source_file>
AV-unprocessed.smi

> <i_m_source_file_index>
1444

> <i_lp_mmshare_version>
43012

> <i_f3d_flags>
0

> <s_epik_input>
W0NIM11PYzFuW2NIXVtjSF1bY0hdYzFbTkhdQyg9TylbTkhdW0NASF0oW0NIM10pW0NIMl1OMltDSDJdW0NIMl1PW0NIMl1bQ0gyXTI=

> <s_epik_cmdline>
J2VwaWtfcHl0aG9uJywgJy1waCcsICc3LjAnLCAnLXRuJywgJzgnLCAnLW1hJywgJzIwMCcsICctbWV0YWxfYmluZGluZycsICctaW1hZScsICc8aW5maWxlLm1hZT4nLCAnLW9tYWUnLCAnPG91dGZpbGUubWFlPic=

> <r_lp_tautomer_probability>
1

> <r_epik_Ionization_Penalty>
0.602604

> <r_epik_Ionization_Penalty_Charging>
0.602531

> <r_epik_Ionization_Penalty_Neutral>
7.37688e-05

> <r_epik_State_Penalty>
0.617039

> <r_epik_Charging_Adjusted_Penalty>
1.21957

> <i_epik_Tot_Q>
1

> <i_epik_Tot_abs_Q>
1

> <r_epik_Metal_State_Penalty>
0.617045

> <b_epik_Metal_Only>
0

> <s_lp_Force_Field>
OPLS_2005

> <r_lp_Energy>
24.7121

> <b_lp_Chiralities_Consistent>
1

> <s_lp_Variant>
AV-unprocessed.smi:1444-3

> <Gold.Version>
5.8.1

> <Gold.Id.Protein>
6NUR|6NUR_protein|mol2

> <Gold.PLP.Fitness>
44.2684

> <Gold.PLP.PLP>
-36.5945

> <Gold.PLP.part.hbond>
-2.0000

> <Gold.PLP.part.metal>
0.0000

> <Gold.PLP.part.buried>
-6.3441

> <Gold.PLP.part.nonpolar>
-28.2529

> <Gold.PLP.part.repulsive>
0.2444

> <Gold.PLP.ligand.clash>
0.0000

> <Gold.PLP.ligand.torsion>
0.6229

> <Gold.PLP.Chemscore.Hbond>
2.9600

> <Gold.PLP.Chemscore.CHOScore>
0.0000

> <Gold.PLP.Chemscore.Metal>
0.0000

> <Gold.Chemscore.Hbonds>
donor molecule, donor type, donor heavy atom, donor atom, acceptor molecule, acceptor atom, score
      L1  H    16    44       P1  7948  2.00
      P1  H  7989  7998       L1    11  0.63

> <Gold.PLP.Chemscore.Internal.Correction>
0.0398

> <Gold.Rescore>
     Score         DG    S(hbond)    S(metal)    S(lipo)     H(rot)  DE(clash)    DE(int)     intcor
     13.91     -17.01       1.80        0.00      86.25       1.78       0.18       2.92       ----

> <Gold.Chemscore.Fitness>
13.9130

> <Gold.Chemscore.DG>
-17.0130

> <Gold.Chemscore.ZeroCoef>
-5.4800

> <Gold.Chemscore.Hbond>
1.7961

> <Gold.Chemscore.Metal>
0.0000

> <Gold.Chemscore.Lipo>
86.2479

> <Gold.Chemscore.Internal_Hbond>
0.0000

> <Gold.Chemscore.DEClash>
0.1801

> <Gold.Chemscore.DEInternal>
2.9198

> <Gold.Chemscore.Rot>
1.7801

> <Gold.Chemscore.Internal.Correction>
   9.000000E+99

> <Gold.Chemscore.Hbonds>
donor molecule, donor type, donor heavy atom, donor atom, acceptor molecule, acceptor atom, score
      L1  H    16    44       P1  7948  0.94
      P1  H  7989  7998       L1    11  0.60

> <Gold.Chemscore.Hbond.Weighted>
-5.9990

> <Gold.Chemscore.Metal.Weighted>
-0.0000

> <Gold.Chemscore.Lipo.Weighted>
-10.0910

> <Gold.Chemscore.Internal_Hbond.Weighted>
0.0000

> <Gold.Chemscore.DEClash.Weighted>
0.1801

> <Gold.Chemscore.DEInternal.Weighted>
2.9198

> <Gold.Chemscore.Rot.Weighted>
4.5570

> <Gold.Chemscore.Internal.Correction.Weighted>
   9.000000E+99

> <Gold.Protein.RotatedTorsions>
[ 6907 6896 6895 6894 ] final -109.81 input  -60.11 | X-H torsion
[ 7974 7965 7964 7962 ] final  -76.33 input  175.53 | X-H torsion
[ 8008 7997 7996 7995 ] final  140.82 input   59.86 | X-H torsion
[ 10167 10162 10161 10158 ] final   74.39 input  -65.29 | X-H torsion
[ 10718 10713 10712 10709 ] final -172.28 input   66.30 | X-H torsion
[ 10763 10752 10751 10750 ] final -139.46 input  -60.55 | X-H torsion
[ 11005 11000 10999 10996 ] final -175.34 input  -57.11 | X-H torsion

> <Gold.Protein.ActiveResidues>
 VAL166  LYS551  ARG553  GLY616  TRP617  ASP618  TYR619  PRO620  LYS621  CYS622 
 ASP623  PHE694  ASN695  SER759  ASP760  ASP761  ALA762  ILE779  LEU786  VAL792 
 PHE793  MET794  SER795  GLU796  ALA797  LYS798  CYS799  TRP800  GLU811  SER814 

> <Gold.Protein.RotatedAtoms>
  150.7585  133.9474  159.3474 H   0  0  0  0  0  0  0  0  0  0  0  0  # atno 6907 bound_to 6896
  151.7388  135.0857  160.0321 H   0  0  0  0  0  0  0  0  0  0  0  0  # atno 6908 bound_to 6896
  152.3542  133.6179  159.6003 H   0  0  0  0  0  0  0  0  0  0  0  0  # atno 6909 bound_to 6896
  145.6143  140.9379  143.1173 H   0  0  0  0  0  0  0  0  0  0  0  0  # atno 7974 bound_to 7965
  156.2974  140.2331  156.4464 H   0  0  0  0  0  0  0  0  0  0  0  0  # atno 8008 bound_to 7997
  154.8141  140.0441  157.1384 H   0  0  0  0  0  0  0  0  0  0  0  0  # atno 8009 bound_to 7997
  154.9390  140.3027  155.5133 H   0  0  0  0  0  0  0  0  0  0  0  0  # atno 8010 bound_to 7997
  140.0142  144.5590  150.7634 H   0  0  0  0  0  0  0  0  0  0  0  0  # atno 10167 bound_to 10162
  156.7532  130.9386  151.3115 H   0  0  0  0  0  0  0  0  0  0  0  0  # atno 10718 bound_to 10713
  154.8608  135.3582  154.5549 H   0  0  0  0  0  0  0  0  0  0  0  0  # atno 10763 bound_to 10752
  153.6166  135.7007  153.5331 H   0  0  0  0  0  0  0  0  0  0  0  0  # atno 10764 bound_to 10752
  153.3164  135.4164  155.1340 H   0  0  0  0  0  0  0  0  0  0  0  0  # atno 10765 bound_to 10752
  140.4643  134.6225  157.4856 H   0  0  0  0  0  0  0  0  0  0  0  0  # atno 11005 bound_to 11000
  144.7257  139.7884  143.7366 LP  0  0  0  0  0  0  0  0  0  0  0  0  # atno 17320 bound_to 7965
  146.1480  139.4555  143.0066 LP  0  0  0  0  0  0  0  0  0  0  0  0  # atno 17321 bound_to 7965
  140.7369  143.2759  151.3745 LP  0  0  0  0  0  0  0  0  0  0  0  0  # atno 17342 bound_to 10162
  139.6184  144.0956  152.2368 LP  0  0  0  0  0  0  0  0  0  0  0  0  # atno 17343 bound_to 10162
  157.6768  130.9102  150.0169 LP  0  0  0  0  0  0  0  0  0  0  0  0  # atno 17370 bound_to 10713
  156.1387  130.3642  149.9616 LP  0  0  0  0  0  0  0  0  0  0  0  0  # atno 17371 bound_to 10713
  139.9925  134.6963  155.9665 LP  0  0  0  0  0  0  0  0  0  0  0  0  # atno 17394 bound_to 11000
  141.1606  133.6539  156.4307 LP  0  0  0  0  0  0  0  0  0  0  0  0  # atno 17395 bound_to 11000

$$$$
