AV-unprocessed.smi:72|AV-procd|sdf|685|dock4
  -GOLD-   2262016593D 1   1.00000     0.00000
 Structure written by MMmdl.
 29 30  0  0  0  0  0  0  0  0  1 V2000
  146.1419  139.1166  151.6043 N   0  0  0  0  0  0  0  0  0  0  0  0
  145.7947  137.8855  151.4863 C   0  0  0  0  0  0  0  0  0  0  0  0
  146.4761  136.9178  150.7337 N   0  0  0  0  0  0  0  0  0  0  0  0
  145.9959  135.7132  150.6878 C   0  0  0  0  0  0  0  0  0  0  0  0
  144.7620  135.3399  151.3694 N   0  0  0  0  0  0  0  0  0  0  0  0
  144.1990  133.9274  151.3377 C   0  0  2  0  0  0  0  0  0  0  0  0
  144.8317  133.1284  152.2926 O   0  0  0  0  0  0  0  0  0  0  0  0
  145.9105  132.4258  151.6882 C   0  0  1  0  0  0  0  0  0  0  0  0
  146.2982  131.2174  152.5530 C   0  0  0  0  0  0  0  0  0  0  0  0
  146.8686  130.2105  151.7448 O   0  0  0  0  0  0  0  0  0  0  0  0
  145.3199  132.0470  150.3293 C   0  0  2  0  0  0  0  0  0  0  0  0
  146.3500  131.8731  149.3769 O   0  0  0  0  0  0  0  0  0  0  0  0
  144.4523  133.2519  149.9706 C   0  0  1  0  0  0  0  0  0  0  0  0
  143.2466  132.8249  149.3707 O   0  0  0  0  0  0  0  0  0  0  0  0
  144.0986  136.2949  152.1805 C   0  0  0  0  0  0  0  0  0  0  0  0
  143.0919  136.0188  152.8331 O   0  0  0  0  0  0  0  0  0  0  0  0
  144.6378  137.5326  152.1910 N   0  0  0  0  0  0  0  0  0  0  0  0
  143.1450  134.0451  151.5963 H   0  0  0  0  0  0  0  0  0  0  0  0
  146.7610  133.0958  151.5472 H   0  0  0  0  0  0  0  0  0  0  0  0
  144.7196  131.1398  150.4175 H   0  0  0  0  0  0  0  0  0  0  0  0
  144.9801  133.9353  149.3032 H   0  0  0  0  0  0  0  0  0  0  0  0
  145.4901  139.6044  152.2023 H   0  0  0  0  0  0  0  0  0  0  0  0
  146.4929  134.9143  150.1378 H   0  0  0  0  0  0  0  0  0  0  0  0
  146.9862  131.5019  153.3497 H   0  0  0  0  0  0  0  0  0  0  0  0
  145.4113  130.7941  153.0252 H   0  0  0  0  0  0  0  0  0  0  0  0
  147.4795  130.6148  151.1478 H   0  0  0  0  0  0  0  0  0  0  0  0
  147.1295  131.5898  149.8304 H   0  0  0  0  0  0  0  0  0  0  0  0
  142.5580  133.4169  149.6337 H   0  0  0  0  0  0  0  0  0  0  0  0
  144.1793  138.2395  152.7472 H   0  0  0  0  0  0  0  0  0  0  0  0
  1  2  2  0  0  0  0
  1 22  1  0  0  0  0
  2 17  1  0  0  0  0
  2  3  1  0  0  0  0
  3  4  2  0  0  0  0
  4  5  1  0  0  0  0
  4 23  1  0  0  0  0
  5  6  1  0  0  0  0
  5 15  1  0  0  0  0
  6 18  1  0  0  0  0
  6 13  1  0  0  0  0
  6  7  1  0  0  0  0
  7  8  1  0  0  0  0
  8 19  1  0  0  0  0
  8  9  1  0  0  0  0
  8 11  1  0  0  0  0
  9 10  1  0  0  0  0
  9 24  1  0  0  0  0
  9 25  1  0  0  0  0
 10 26  1  0  0  0  0
 11 20  1  0  0  0  0
 11 12  1  0  0  0  0
 11 13  1  0  0  0  0
 12 27  1  0  0  0  0
 13 21  1  0  0  0  0
 13 14  1  0  0  0  0
 14 28  1  0  0  0  0
 15 16  2  0  0  0  0
 15 17  1  0  0  0  0
 17 29  1  0  0  0  0
M  END
> <s_m_source_file>
AV-unprocessed.smi

> <i_m_source_file_index>
72

> <i_lp_mmshare_version>
43012

> <i_f3d_flags>
0

> <s_epik_input>
W05IMl1jMW5bY0hdbihjKD1PKW4xKVtDQEBIXTJPW0NASF0oW0NIMl1bT0hdKVtDQEBIXShbT0hdKVtDQEhdMltPSF0=

> <s_epik_cmdline>
J2VwaWtfcHl0aG9uJywgJy1waCcsICc3LjAnLCAnLXRuJywgJzgnLCAnLW1hJywgJzIwMCcsICctbWV0YWxfYmluZGluZycsICctaW1hZScsICc8aW5maWxlLm1hZT4nLCAnLW9tYWUnLCAnPG91dGZpbGUubWFlPic=

> <r_lp_tautomer_probability>
7.17554e-07

> <r_epik_Ionization_Penalty>
0.0066451

> <r_epik_Ionization_Penalty_Charging>
0.00663793

> <r_epik_Ionization_Penalty_Neutral>
7.17052e-06

> <r_epik_State_Penalty>
0.419231

> <r_epik_Charging_Adjusted_Penalty>
0.425868

> <i_epik_Tot_Q>
0

> <i_epik_Tot_abs_Q>
0

> <r_epik_Metal_State_Penalty>
1.44144

> <b_epik_Metal_Only>
0

> <s_epik_Chemistry_Notes>
This compound contains an acetal/aminal-like group ( X-CH(R)-Y where X, Y are N, S, or O) that may be acid/base labile, releasing an aldehyde.

> <s_lp_Force_Field>
OPLS_2005

> <r_lp_Energy>
35.407

> <b_lp_Chiralities_Consistent>
1

> <s_lp_Variant>
AV-unprocessed.smi:72-23

> <Gold.Version>
5.8.1

> <Gold.Id.Protein>
6NUR|6NUR_protein|mol2

> <Gold.PLP.Fitness>
41.8571

> <Gold.PLP.PLP>
-27.1601

> <Gold.PLP.part.hbond>
-7.6243

> <Gold.PLP.part.metal>
0.0000

> <Gold.PLP.part.buried>
-2.3489

> <Gold.PLP.part.nonpolar>
-18.9084

> <Gold.PLP.part.repulsive>
2.3401

> <Gold.PLP.ligand.clash>
0.0000

> <Gold.PLP.ligand.torsion>
0.9623

> <Gold.PLP.Chemscore.Hbond>
4.7408

> <Gold.PLP.Chemscore.CHOScore>
0.7870

> <Gold.PLP.Chemscore.Metal>
0.0000

> <Gold.Chemscore.Hbonds>
donor molecule, donor type, donor heavy atom, donor atom, acceptor molecule, acceptor atom, score
      L1  H     1    22       P1 10175  0.98
      L1  H    10    26       P1 10747  1.00
      L1  H    12    27       P1 10747  1.00
      L1  H    14    28       P1 10186  1.00
      L1  H    17    29       P1 10175  0.26
      P1  H  7954  7966       L1     3  0.78
      L1  C     4    23       P1  7921  0.74

> <Gold.PLP.Chemscore.Internal.Correction>
0.0382

> <Gold.Rescore>
     Score         DG    S(hbond)    S(metal)    S(lipo)     H(rot)  DE(clash)    DE(int)     intcor
     12.35     -16.33       5.31        0.00      30.01       4.06       3.06       0.91       ----

> <Gold.Chemscore.Fitness>
12.3491

> <Gold.Chemscore.DG>
-16.3265

> <Gold.Chemscore.ZeroCoef>
-5.4800

> <Gold.Chemscore.Hbond>
5.3081

> <Gold.Chemscore.Metal>
0.0000

> <Gold.Chemscore.Lipo>
30.0083

> <Gold.Chemscore.Internal_Hbond>
0.0000

> <Gold.Chemscore.DEClash>
3.0645

> <Gold.Chemscore.DEInternal>
0.9130

> <Gold.Chemscore.Rot>
4.0600

> <Gold.Chemscore.Internal.Correction>
   9.000000E+99

> <Gold.Chemscore.Hbonds>
donor molecule, donor type, donor heavy atom, donor atom, acceptor molecule, acceptor atom, score
      L1  H     1    22       P1 10175  0.86
      L1  H    10    26       P1 10747  0.99
      L1  H    12    27       P1 10747  0.94
      L1  H    14    28       P1 10186  0.99
      L1  H    17    29       P1 10175  0.26
      P1  H  7954  7966       L1     3  0.48

> <Gold.Chemscore.Hbond.Weighted>
-17.7292

> <Gold.Chemscore.Metal.Weighted>
-0.0000

> <Gold.Chemscore.Lipo.Weighted>
-3.5110

> <Gold.Chemscore.Internal_Hbond.Weighted>
0.0000

> <Gold.Chemscore.DEClash.Weighted>
3.0645

> <Gold.Chemscore.DEInternal.Weighted>
0.9130

> <Gold.Chemscore.Rot.Weighted>
10.3936

> <Gold.Chemscore.Internal.Correction.Weighted>
   9.000000E+99

> <Gold.Protein.RotatedTorsions>
[ 6907 6896 6895 6894 ] final -139.88 input  -60.11 | X-H torsion
[ 7974 7965 7964 7962 ] final -124.10 input  175.53 | X-H torsion
[ 8008 7997 7996 7995 ] final  174.62 input   59.86 | X-H torsion
[ 10167 10162 10161 10158 ] final   87.37 input  -65.29 | X-H torsion
[ 10718 10713 10712 10709 ] final  141.89 input   66.30 | X-H torsion
[ 10763 10752 10751 10750 ] final   17.62 input  -60.55 | X-H torsion
[ 11005 11000 10999 10996 ] final  173.42 input  -57.11 | X-H torsion

> <Gold.Protein.ActiveResidues>
 VAL166  LYS551  ARG553  GLY616  TRP617  ASP618  TYR619  PRO620  LYS621  CYS622 
 ASP623  PHE694  ASN695  SER759  ASP760  ASP761  ALA762  ILE779  LEU786  VAL792 
 PHE793  MET794  SER795  GLU796  ALA797  LYS798  CYS799  TRP800  GLU811  SER814 

> <Gold.Protein.RotatedAtoms>
  151.0534  133.5604  159.2640 H   0  0  0  0  0  0  0  0  0  0  0  0  # atno 6907 bound_to 6896
  151.2607  135.0652  159.9107 H   0  0  0  0  0  0  0  0  0  0  0  0  # atno 6908 bound_to 6896
  152.5386  134.0280  159.8066 H   0  0  0  0  0  0  0  0  0  0  0  0  # atno 6909 bound_to 6896
  145.0117  140.7911  143.4435 H   0  0  0  0  0  0  0  0  0  0  0  0  # atno 7974 bound_to 7965
  156.0955  140.1430  156.9536 H   0  0  0  0  0  0  0  0  0  0  0  0  # atno 8008 bound_to 7997
  154.4668  140.0923  156.7089 H   0  0  0  0  0  0  0  0  0  0  0  0  # atno 8009 bound_to 7997
  155.4848  140.3446  155.4347 H   0  0  0  0  0  0  0  0  0  0  0  0  # atno 8010 bound_to 7997
  139.8781  144.6455  150.8874 H   0  0  0  0  0  0  0  0  0  0  0  0  # atno 10167 bound_to 10162
  157.3868  131.0999  151.0685 H   0  0  0  0  0  0  0  0  0  0  0  0  # atno 10718 bound_to 10713
  153.1322  135.6742  153.9159 H   0  0  0  0  0  0  0  0  0  0  0  0  # atno 10763 bound_to 10752
  153.8642  135.3077  155.3440 H   0  0  0  0  0  0  0  0  0  0  0  0  # atno 10764 bound_to 10752
  154.7717  135.4935  153.9745 H   0  0  0  0  0  0  0  0  0  0  0  0  # atno 10765 bound_to 10752
  140.3403  134.7282  157.4197 H   0  0  0  0  0  0  0  0  0  0  0  0  # atno 11005 bound_to 11000
  145.2015  139.2250  143.5190 LP  0  0  0  0  0  0  0  0  0  0  0  0  # atno 17320 bound_to 7965
  146.3471  140.1833  142.8589 LP  0  0  0  0  0  0  0  0  0  0  0  0  # atno 17321 bound_to 7965
  140.7749  143.3608  151.1831 LP  0  0  0  0  0  0  0  0  0  0  0  0  # atno 17342 bound_to 10162
  139.7221  143.9206  152.2989 LP  0  0  0  0  0  0  0  0  0  0  0  0  # atno 17343 bound_to 10162
  157.1734  130.6277  149.5648 LP  0  0  0  0  0  0  0  0  0  0  0  0  # atno 17370 bound_to 10713
  155.9788  130.4778  150.6681 LP  0  0  0  0  0  0  0  0  0  0  0  0  # atno 17371 bound_to 10713
  140.0786  134.5762  155.8564 LP  0  0  0  0  0  0  0  0  0  0  0  0  # atno 17394 bound_to 11000
  141.2040  133.6636  156.6096 LP  0  0  0  0  0  0  0  0  0  0  0  0  # atno 17395 bound_to 11000

$$$$
