AV-unprocessed.smi:3337|AV-procd|sdf|12868|dock5
  -GOLD-   2272019263D 1   1.00000     0.00000
 Structure written by MMmdl.
 46 47  0  0  0  0  0  0  0  0  2 V2000
  146.0745  136.9886  151.7445 C   0  0  0  0  0  0  0  0  0  0  0  0
  145.3490  135.8336  152.4573 C   0  0  1  0  0  0  0  0  0  0  0  0
  145.0505  134.6457  151.5245 C   0  0  0  0  0  0  0  0  0  0  0  0
  146.3217  133.8382  151.2060 C   0  0  2  0  0  0  0  0  0  0  0  0
  146.0032  132.6185  150.3297 C   0  0  0  0  0  0  0  0  0  0  0  0
  147.0336  133.4259  152.5090 C   0  0  0  0  0  0  0  0  0  0  0  0
  147.3396  134.6066  153.3581 N   0  3  2  0  0  0  0  0  0  0  0  0
  148.1707  134.2506  154.5360 C   0  0  0  0  0  0  0  0  0  0  0  0
  148.2650  135.3988  155.5592 C   0  0  0  0  0  0  0  0  0  0  0  0
  147.7162  135.0099  156.8525 N   0  0  0  0  0  0  0  0  0  0  0  0
  148.4218  134.9144  157.9914 C   0  0  0  0  0  0  0  0  0  0  0  0
  149.6366  135.1125  158.0386 O   0  0  0  0  0  0  0  0  0  0  0  0
  147.6349  134.5286  159.2577 C   0  0  1  0  0  0  0  0  0  0  0  0
  148.0369  133.1515  159.8232 C   0  0  0  0  0  0  0  0  0  0  0  0
  147.7362  135.5695  160.2744 N   0  0  0  0  0  0  0  0  0  0  0  0
  147.6788  136.8976  160.1541 C   0  0  0  0  0  0  0  0  0  0  0  0
  147.8369  137.5492  161.2976 N   0  0  0  0  0  0  0  0  0  0  0  0
  147.9986  136.4893  162.1440 C   0  0  0  0  0  0  0  0  0  0  0  0
  147.9518  135.2813  161.5825 N   0  0  0  0  0  0  0  0  0  0  0  0
  146.1048  135.3567  153.7130 C   0  0  0  0  0  0  0  0  0  0  0  0
  147.0663  136.6978  151.3987 H   0  0  0  0  0  0  0  0  0  0  0  0
  146.1975  137.8426  152.4114 H   0  0  0  0  0  0  0  0  0  0  0  0
  145.5084  137.3310  150.8777 H   0  0  0  0  0  0  0  0  0  0  0  0
  144.3894  136.2337  152.7871 H   0  0  0  0  0  0  0  0  0  0  0  0
  144.3216  133.9918  152.0057 H   0  0  0  0  0  0  0  0  0  0  0  0
  144.5816  134.9972  150.6045 H   0  0  0  0  0  0  0  0  0  0  0  0
  147.0006  134.4737  150.6364 H   0  0  0  0  0  0  0  0  0  0  0  0
  145.3279  131.9291  150.8375 H   0  0  0  0  0  0  0  0  0  0  0  0
  146.9100  132.0692  150.0751 H   0  0  0  0  0  0  0  0  0  0  0  0
  145.5294  132.9199  149.3951 H   0  0  0  0  0  0  0  0  0  0  0  0
  146.4196  132.7220  153.0735 H   0  0  0  0  0  0  0  0  0  0  0  0
  147.9601  132.9073  152.2588 H   0  0  0  0  0  0  0  0  0  0  0  0
  147.7818  133.3446  155.0037 H   0  0  0  0  0  0  0  0  0  0  0  0
  149.1799  134.0126  154.1964 H   0  0  0  0  0  0  0  0  0  0  0  0
  149.3005  135.7247  155.6746 H   0  0  0  0  0  0  0  0  0  0  0  0
  147.7030  136.2692  155.2235 H   0  0  0  0  0  0  0  0  0  0  0  0
  146.7235  134.8285  156.8932 H   0  0  0  0  0  0  0  0  0  0  0  0
  146.5855  134.4664  158.9652 H   0  0  0  0  0  0  0  0  0  0  0  0
  147.8956  132.3623  159.0840 H   0  0  0  0  0  0  0  0  0  0  0  0
  147.4282  132.8957  160.6912 H   0  0  0  0  0  0  0  0  0  0  0  0
  149.0815  133.1300  160.1364 H   0  0  0  0  0  0  0  0  0  0  0  0
  147.5211  137.3989  159.2102 H   0  0  0  0  0  0  0  0  0  0  0  0
  148.1610  136.6118  163.2046 H   0  0  0  0  0  0  0  0  0  0  0  0
  146.3393  136.2191  154.3354 H   0  0  0  0  0  0  0  0  0  0  0  0
  145.4575  134.7130  154.3110 H   0  0  0  0  0  0  0  0  0  0  0  0
  147.9040  135.2208  152.7885 H   0  0  0  0  0  0  0  0  0  0  0  0
  1  2  1  0  0  0  0
  1 21  1  0  0  0  0
  1 22  1  0  0  0  0
  1 23  1  0  0  0  0
  2 20  1  0  0  0  0
  2  3  1  0  0  0  0
  2 24  1  0  0  0  0
  3  4  1  0  0  0  0
  3 25  1  0  0  0  0
  3 26  1  0  0  0  0
  4  5  1  0  0  0  0
  4  6  1  0  0  0  0
  4 27  1  0  0  0  0
  5 28  1  0  0  0  0
  5 29  1  0  0  0  0
  5 30  1  0  0  0  0
  6  7  1  0  0  0  0
  6 31  1  0  0  0  0
  6 32  1  0  0  0  0
  7  8  1  0  0  0  0
  7 20  1  0  0  0  0
  7 46  1  0  0  0  0
  8  9  1  0  0  0  0
  8 33  1  0  0  0  0
  8 34  1  0  0  0  0
  9 10  1  0  0  0  0
  9 35  1  0  0  0  0
  9 36  1  0  0  0  0
 10 11  1  0  0  0  0
 10 37  1  0  0  0  0
 11 12  2  0  0  0  0
 11 13  1  0  0  0  0
 13 14  1  0  0  0  0
 13 15  1  0  0  0  0
 13 38  1  0  0  0  0
 14 39  1  0  0  0  0
 14 40  1  0  0  0  0
 14 41  1  0  0  0  0
 15 19  1  0  0  0  0
 15 16  1  0  0  0  0
 16 17  2  0  0  0  0
 16 42  1  0  0  0  0
 17 18  1  0  0  0  0
 18 19  2  0  0  0  0
 18 43  1  0  0  0  0
 20 44  1  0  0  0  0
 20 45  1  0  0  0  0
M  CHG  1   7   1
M  END
> <s_m_source_file>
AV-unprocessed.smi

> <i_m_source_file_index>
3337

> <i_lp_mmshare_version>
43012

> <i_f3d_flags>
0

> <s_epik_input>
W0NIM11bQ0BASF0xW0NIMl1bQ0BASF0oW0NIM10pW0NIMl1OKFtDSDJdMSlbQ0gyXVtDSDJdW05IXUMoPU8pW0NASF0oW0NIM10pbjJbY0hdbltjSF1uMg==

> <s_epik_cmdline>
J2VwaWtfcHl0aG9uJywgJy1waCcsICc3LjAnLCAnLXRuJywgJzgnLCAnLW1hJywgJzIwMCcsICctbWV0YWxfYmluZGluZycsICctaW1hZScsICc8aW5maWxlLm1hZT4nLCAnLW9tYWUnLCAnPG91dGZpbGUubWFlPic=

> <r_lp_tautomer_probability>
1

> <r_epik_Ionization_Penalty>
0.00175613

> <r_epik_Ionization_Penalty_Charging>
0.00174812

> <r_epik_Ionization_Penalty_Neutral>
8.01354e-06

> <r_epik_State_Penalty>
0.00118332

> <r_epik_Charging_Adjusted_Penalty>
0.00293143

> <i_epik_Tot_Q>
1

> <i_epik_Tot_abs_Q>
1

> <r_epik_Metal_State_Penalty>
-0

> <b_epik_Metal_Only>
0

> <s_lp_Force_Field>
OPLS_2005

> <r_lp_Energy>
24.7561

> <b_lp_Chiralities_Consistent>
1

> <s_lp_Variant>
AV-unprocessed.smi:3337-8

> <Gold.Version>
5.8.1

> <Gold.Id.Protein>
6NUR|6NUR_protein|mol2

> <Gold.PLP.Fitness>
41.6552

> <Gold.PLP.PLP>
-28.7397

> <Gold.PLP.part.hbond>
-4.0000

> <Gold.PLP.part.metal>
0.0000

> <Gold.PLP.part.buried>
-3.3444

> <Gold.PLP.part.nonpolar>
-21.2177

> <Gold.PLP.part.repulsive>
0.0000

> <Gold.PLP.ligand.clash>
0.0000

> <Gold.PLP.ligand.torsion>
0.8658

> <Gold.PLP.Chemscore.Hbond>
4.8400

> <Gold.PLP.Chemscore.CHOScore>
0.0000

> <Gold.PLP.Chemscore.Metal>
0.0000

> <Gold.Chemscore.Hbonds>
donor molecule, donor type, donor heavy atom, donor atom, acceptor molecule, acceptor atom, score
      L1  H     7    46       P1  7948  2.00
      P1  H  6896  6908       L1    12  0.96
      P1  H  6931  6943       L1    17  0.46
      P1  H  6934  6947       L1    17  0.67

> <Gold.PLP.Chemscore.Internal.Correction>
0.1270

> <Gold.Rescore>
     Score         DG    S(hbond)    S(metal)    S(lipo)     H(rot)  DE(clash)    DE(int)     intcor
     13.48     -14.49       2.99        0.00      46.73       2.51       0.03       0.98       ----

> <Gold.Chemscore.Fitness>
13.4751

> <Gold.Chemscore.DG>
-14.4886

> <Gold.Chemscore.ZeroCoef>
-5.4800

> <Gold.Chemscore.Hbond>
2.9862

> <Gold.Chemscore.Metal>
0.0000

> <Gold.Chemscore.Lipo>
46.7339

> <Gold.Chemscore.Internal_Hbond>
0.0000

> <Gold.Chemscore.DEClash>
0.0310

> <Gold.Chemscore.DEInternal>
0.9825

> <Gold.Chemscore.Rot>
2.5129

> <Gold.Chemscore.Internal.Correction>
   9.000000E+99

> <Gold.Chemscore.Hbonds>
donor molecule, donor type, donor heavy atom, donor atom, acceptor molecule, acceptor atom, score
      L1  H     7    46       P1  7948  1.00
      P1  H  6896  6908       L1    12  0.88
      P1  H  6931  6943       L1    17  0.03
      P1  H  6934  6947       L1    17  0.24

> <Gold.Chemscore.Hbond.Weighted>
-9.9738

> <Gold.Chemscore.Metal.Weighted>
-0.0000

> <Gold.Chemscore.Lipo.Weighted>
-5.4679

> <Gold.Chemscore.Internal_Hbond.Weighted>
0.0000

> <Gold.Chemscore.DEClash.Weighted>
0.0310

> <Gold.Chemscore.DEInternal.Weighted>
0.9825

> <Gold.Chemscore.Rot.Weighted>
6.4331

> <Gold.Chemscore.Internal.Correction.Weighted>
   9.000000E+99

> <Gold.Protein.RotatedTorsions>
[ 6907 6896 6895 6894 ] final  143.02 input  -60.11 | X-H torsion
[ 7974 7965 7964 7962 ] final  -55.57 input  175.53 | X-H torsion
[ 8008 7997 7996 7995 ] final  128.24 input   59.86 | X-H torsion
[ 10167 10162 10161 10158 ] final  -30.78 input  -65.29 | X-H torsion
[ 10718 10713 10712 10709 ] final  111.81 input   66.30 | X-H torsion
[ 10763 10752 10751 10750 ] final  107.87 input  -60.55 | X-H torsion
[ 11005 11000 10999 10996 ] final  109.03 input  -57.11 | X-H torsion

> <Gold.Protein.ActiveResidues>
 VAL166  LYS551  ARG553  GLY616  TRP617  ASP618  TYR619  PRO620  LYS621  CYS622 
 ASP623  PHE694  ASN695  SER759  ASP760  ASP761  ALA762  ILE779  LEU786  VAL792 
 PHE793  MET794  SER795  GLU796  ALA797  LYS798  CYS799  TRP800  GLU811  SER814 

> <Gold.Protein.RotatedAtoms>
  152.2115  133.4914  159.5112 H   0  0  0  0  0  0  0  0  0  0  0  0  # atno 6907 bound_to 6896
  150.6991  134.1461  159.4132 H   0  0  0  0  0  0  0  0  0  0  0  0  # atno 6908 bound_to 6896
  151.9380  135.0226  160.0584 H   0  0  0  0  0  0  0  0  0  0  0  0  # atno 6909 bound_to 6896
  145.8727  140.8204  142.9880 H   0  0  0  0  0  0  0  0  0  0  0  0  # atno 7974 bound_to 7965
  156.2910  140.2649  156.2403 H   0  0  0  0  0  0  0  0  0  0  0  0  # atno 8008 bound_to 7997
  154.9984  140.0388  157.2368 H   0  0  0  0  0  0  0  0  0  0  0  0  # atno 8009 bound_to 7997
  154.7623  140.2763  155.6209 H   0  0  0  0  0  0  0  0  0  0  0  0  # atno 8010 bound_to 7997
  140.7245  143.3822  151.1581 H   0  0  0  0  0  0  0  0  0  0  0  0  # atno 10167 bound_to 10162
  157.6426  131.0957  150.6803 H   0  0  0  0  0  0  0  0  0  0  0  0  # atno 10718 bound_to 10713
  153.4127  135.3830  155.2061 H   0  0  0  0  0  0  0  0  0  0  0  0  # atno 10763 bound_to 10752
  154.8739  135.3798  154.4481 H   0  0  0  0  0  0  0  0  0  0  0  0  # atno 10764 bound_to 10752
  153.4991  135.7088  153.5904 H   0  0  0  0  0  0  0  0  0  0  0  0  # atno 10765 bound_to 10752
  139.8854  134.9447  156.6064 H   0  0  0  0  0  0  0  0  0  0  0  0  # atno 11005 bound_to 11000
  144.6726  140.1264  143.7446 LP  0  0  0  0  0  0  0  0  0  0  0  0  # atno 17320 bound_to 7965
  145.9117  139.2491  143.1433 LP  0  0  0  0  0  0  0  0  0  0  0  0  # atno 17321 bound_to 7965
  139.7412  143.8921  152.3050 LP  0  0  0  0  0  0  0  0  0  0  0  0  # atno 17342 bound_to 10162
  139.8743  144.7052  150.8951 LP  0  0  0  0  0  0  0  0  0  0  0  0  # atno 17343 bound_to 10162
  156.7124  130.4656  149.5544 LP  0  0  0  0  0  0  0  0  0  0  0  0  # atno 17370 bound_to 10713
  156.1721  130.6443  151.0849 LP  0  0  0  0  0  0  0  0  0  0  0  0  # atno 17371 bound_to 10713
  140.7845  133.8633  155.8595 LP  0  0  0  0  0  0  0  0  0  0  0  0  # atno 17394 bound_to 11000
  140.9731  134.1504  157.4559 LP  0  0  0  0  0  0  0  0  0  0  0  0  # atno 17395 bound_to 11000

$$$$
