AV-unprocessed.smi:2539|AV-procd|sdf|9986|dock8
  -GOLD-   2272014 33D 1   1.00000     0.00000
 Structure written by MMmdl.
 41 42  0  0  0  0  0  0  0  0  2 V2000
  146.5731  139.5634  154.6339 O   0  0  0  0  0  0  0  0  0  0  0  0
  147.5276  138.9109  154.2086 C   0  0  0  0  0  0  0  0  0  0  0  0
  147.3935  137.6445  153.7760 N   0  0  0  0  0  0  0  0  0  0  0  0
  146.1379  136.9055  153.6691 C   0  0  0  0  0  0  0  0  0  0  0  0
  145.5082  137.0268  152.2671 C   0  0  0  0  0  0  0  0  0  0  0  0
  145.2656  135.6886  151.5900 C   0  0  0  0  0  0  0  0  0  0  0  0
  146.3191  134.7620  151.4228 C   0  0  0  0  0  0  0  0  0  0  0  0
  146.0694  133.5437  150.7580 C   0  0  0  0  0  0  0  0  0  0  0  0
  144.7717  133.2780  150.2760 C   0  0  0  0  0  0  0  0  0  0  0  0
  143.7880  134.1858  150.4584 N   0  3  0  0  0  0  0  0  0  0  0  0
  143.9858  135.3630  151.0907 C   0  0  0  0  0  0  0  0  0  0  0  0
  148.7877  139.4070  154.1268 N   0  0  0  0  0  0  0  0  0  0  0  0
  149.2025  140.7804  154.4518 C   0  0  0  0  0  0  0  0  0  0  0  0
  149.8471  140.7786  155.8514 C   0  0  0  0  0  0  0  0  0  0  0  0
  151.0282  139.7773  155.9546 C   0  0  0  0  0  0  0  0  0  0  0  0
  152.0996  140.2987  155.1884 O   0  0  0  0  0  0  0  0  0  0  0  0
  151.5326  139.6408  157.4110 C   0  0  0  0  0  0  0  0  0  0  0  0
  151.8721  140.8377  157.8913 F   0  0  0  0  0  0  0  0  0  0  0  0
  150.5810  139.1333  158.1952 F   0  0  0  0  0  0  0  0  0  0  0  0
  152.6077  138.8532  157.4629 F   0  0  0  0  0  0  0  0  0  0  0  0
  150.6474  138.3999  155.3501 C   0  0  0  0  0  0  0  0  0  0  0  0
  149.9554  138.5323  153.9790 C   0  0  0  0  0  0  0  0  0  0  0  0
  148.2262  137.1691  153.4596 H   0  0  0  0  0  0  0  0  0  0  0  0
  146.3426  135.8570  153.8865 H   0  0  0  0  0  0  0  0  0  0  0  0
  145.4304  137.2384  154.4303 H   0  0  0  0  0  0  0  0  0  0  0  0
  144.5637  137.5682  152.3370 H   0  0  0  0  0  0  0  0  0  0  0  0
  146.1540  137.6292  151.6274 H   0  0  0  0  0  0  0  0  0  0  0  0
  147.3108  134.9846  151.7884 H   0  0  0  0  0  0  0  0  0  0  0  0
  146.8627  132.8243  150.6169 H   0  0  0  0  0  0  0  0  0  0  0  0
  144.4929  132.3741  149.7541 H   0  0  0  0  0  0  0  0  0  0  0  0
  143.1241  136.0104  151.1645 H   0  0  0  0  0  0  0  0  0  0  0  0
  149.9212  141.1256  153.7073 H   0  0  0  0  0  0  0  0  0  0  0  0
  148.3901  141.5063  154.4167 H   0  0  0  0  0  0  0  0  0  0  0  0
  150.1771  141.7855  156.1087 H   0  0  0  0  0  0  0  0  0  0  0  0
  149.0823  140.5161  156.5830 H   0  0  0  0  0  0  0  0  0  0  0  0
  152.9039  140.1655  155.6667 H   0  0  0  0  0  0  0  0  0  0  0  0
  151.5311  137.7671  155.2592 H   0  0  0  0  0  0  0  0  0  0  0  0
  149.9718  137.8785  156.0293 H   0  0  0  0  0  0  0  0  0  0  0  0
  149.6948  137.5456  153.5936 H   0  0  0  0  0  0  0  0  0  0  0  0
  150.6422  138.9584  153.2465 H   0  0  0  0  0  0  0  0  0  0  0  0
  142.8561  133.9752  150.1000 H   0  0  0  0  0  0  0  0  0  0  0  0
  1  2  2  0  0  0  0
  2  3  1  0  0  0  0
  2 12  1  0  0  0  0
  3  4  1  0  0  0  0
  3 23  1  0  0  0  0
  4  5  1  0  0  0  0
  4 24  1  0  0  0  0
  4 25  1  0  0  0  0
  5  6  1  0  0  0  0
  5 26  1  0  0  0  0
  5 27  1  0  0  0  0
  6 11  1  0  0  0  0
  6  7  2  0  0  0  0
  7  8  1  0  0  0  0
  7 28  1  0  0  0  0
  8  9  2  0  0  0  0
  8 29  1  0  0  0  0
  9 10  1  0  0  0  0
  9 30  1  0  0  0  0
 10 11  2  0  0  0  0
 10 41  1  0  0  0  0
 11 31  1  0  0  0  0
 12 22  1  0  0  0  0
 12 13  1  0  0  0  0
 13 14  1  0  0  0  0
 13 32  1  0  0  0  0
 13 33  1  0  0  0  0
 14 15  1  0  0  0  0
 14 34  1  0  0  0  0
 14 35  1  0  0  0  0
 15 16  1  0  0  0  0
 15 17  1  0  0  0  0
 15 21  1  0  0  0  0
 16 36  1  0  0  0  0
 17 18  1  0  0  0  0
 17 19  1  0  0  0  0
 17 20  1  0  0  0  0
 21 22  1  0  0  0  0
 21 37  1  0  0  0  0
 21 38  1  0  0  0  0
 22 39  1  0  0  0  0
 22 40  1  0  0  0  0
M  CHG  1  10   1
M  END
> <s_m_source_file>
AV-unprocessed.smi

> <i_m_source_file_index>
2539

> <i_lp_mmshare_version>
43012

> <i_f3d_flags>
0

> <s_epik_input>
RkMoRikoRilDMShbT0hdKVtDSDJdW0NIMl1OKFtDSDJdW0NIMl0xKUMoPU8pW05IXVtDSDJdW0NIMl1jMltjSF1bY0hdW2NIXW5bY0hdMg==

> <s_epik_cmdline>
J2VwaWtfcHl0aG9uJywgJy1waCcsICc3LjAnLCAnLXRuJywgJzgnLCAnLW1hJywgJzIwMCcsICctbWV0YWxfYmluZGluZycsICctaW1hZScsICc8aW5maWxlLm1hZT4nLCAnLW9tYWUnLCAnPG91dGZpbGUubWFlPic=

> <r_epik_Ionization_Penalty>
2.21039

> <r_epik_Ionization_Penalty_Charging>
2.21033

> <r_epik_Ionization_Penalty_Neutral>
5.75735e-05

> <r_epik_State_Penalty>
2.3545

> <r_epik_Charging_Adjusted_Penalty>
4.56483

> <i_epik_Tot_Q>
1

> <i_epik_Tot_abs_Q>
1

> <r_epik_Metal_State_Penalty>
2.36861

> <b_epik_Metal_Only>
0

> <s_lp_Force_Field>
OPLS_2005

> <r_lp_Energy>
41.3462

> <b_lp_Chiralities_Consistent>
1

> <s_lp_Variant>
AV-unprocessed.smi:2539-2

> <Gold.Version>
5.8.1

> <Gold.Id.Protein>
6NUR|6NUR_protein|mol2

> <Gold.PLP.Fitness>
42.3150

> <Gold.PLP.PLP>
-34.2344

> <Gold.PLP.part.hbond>
-3.0000

> <Gold.PLP.part.metal>
0.0000

> <Gold.PLP.part.buried>
-2.6683

> <Gold.PLP.part.nonpolar>
-29.5586

> <Gold.PLP.part.repulsive>
0.1084

> <Gold.PLP.ligand.clash>
1.1225

> <Gold.PLP.ligand.torsion>
0.6756

> <Gold.PLP.Chemscore.Hbond>
3.4880

> <Gold.PLP.Chemscore.CHOScore>
0.0000

> <Gold.PLP.Chemscore.Metal>
0.0000

> <Gold.Chemscore.Hbonds>
donor molecule, donor type, donor heavy atom, donor atom, acceptor molecule, acceptor atom, score
      L1  H     3    23       P1  7948  0.82
      L1  H    10    41       P1 10186  2.00
      P1  H  7989  7998       L1    16  0.69

> <Gold.PLP.Chemscore.Internal.Correction>
0.0903

> <Gold.Rescore>
     Score         DG    S(hbond)    S(metal)    S(lipo)     H(rot)  DE(clash)    DE(int)     intcor
     17.16     -17.84       2.61        0.00      76.09       2.06       0.02       0.66       ----

> <Gold.Chemscore.Fitness>
17.1649

> <Gold.Chemscore.DG>
-17.8411

> <Gold.Chemscore.ZeroCoef>
-5.4800

> <Gold.Chemscore.Hbond>
2.6122

> <Gold.Chemscore.Metal>
0.0000

> <Gold.Chemscore.Lipo>
76.0903

> <Gold.Chemscore.Internal_Hbond>
0.0000

> <Gold.Chemscore.DEClash>
0.0207

> <Gold.Chemscore.DEInternal>
0.6555

> <Gold.Chemscore.Rot>
2.0572

> <Gold.Chemscore.Internal.Correction>
   9.000000E+99

> <Gold.Chemscore.Hbonds>
donor molecule, donor type, donor heavy atom, donor atom, acceptor molecule, acceptor atom, score
      L1  H     3    23       P1  7948  0.79
      L1  H    10    41       P1 10186  0.95
      P1  H  7989  7998       L1    16  0.63

> <Gold.Chemscore.Hbond.Weighted>
-8.7249

> <Gold.Chemscore.Metal.Weighted>
-0.0000

> <Gold.Chemscore.Lipo.Weighted>
-8.9026

> <Gold.Chemscore.Internal_Hbond.Weighted>
0.0000

> <Gold.Chemscore.DEClash.Weighted>
0.0207

> <Gold.Chemscore.DEInternal.Weighted>
0.6555

> <Gold.Chemscore.Rot.Weighted>
5.2663

> <Gold.Chemscore.Internal.Correction.Weighted>
   9.000000E+99

> <Gold.Protein.RotatedTorsions>
[ 6907 6896 6895 6894 ] final  -46.55 input  -60.11 | X-H torsion
[ 7974 7965 7964 7962 ] final   53.10 input  175.53 | X-H torsion
[ 8008 7997 7996 7995 ] final   16.58 input   59.86 | X-H torsion
[ 10167 10162 10161 10158 ] final -126.73 input  -65.29 | X-H torsion
[ 10718 10713 10712 10709 ] final -146.40 input   66.30 | X-H torsion
[ 10763 10752 10751 10750 ] final   19.27 input  -60.55 | X-H torsion
[ 11005 11000 10999 10996 ] final  -39.69 input  -57.11 | X-H torsion

> <Gold.Protein.ActiveResidues>
 VAL166  LYS551  ARG553  GLY616  TRP617  ASP618  TYR619  PRO620  LYS621  CYS622 
 ASP623  PHE694  ASN695  SER759  ASP760  ASP761  ALA762  ILE779  LEU786  VAL792 
 PHE793  MET794  SER795  GLU796  ALA797  LYS798  CYS799  TRP800  GLU811  SER814 

> <Gold.Protein.RotatedAtoms>
  150.9101  134.8517  159.7418 H   0  0  0  0  0  0  0  0  0  0  0  0  # atno 6907 bound_to 6896
  152.4939  134.4372  159.9541 H   0  0  0  0  0  0  0  0  0  0  0  0  # atno 6908 bound_to 6896
  151.4416  133.3602  159.2817 H   0  0  0  0  0  0  0  0  0  0  0  0  # atno 6909 bound_to 6896
  145.9746  139.4182  143.0169 H   0  0  0  0  0  0  0  0  0  0  0  0  # atno 7974 bound_to 7965
  154.8791  140.2970  155.5436 H   0  0  0  0  0  0  0  0  0  0  0  0  # atno 8008 bound_to 7997
  156.3022  140.2446  156.3724 H   0  0  0  0  0  0  0  0  0  0  0  0  # atno 8009 bound_to 7997
  154.8736  140.0400  157.1729 H   0  0  0  0  0  0  0  0  0  0  0  0  # atno 8010 bound_to 7997
  139.9684  143.5873  152.2421 H   0  0  0  0  0  0  0  0  0  0  0  0  # atno 10167 bound_to 10162
  156.3945  130.7902  151.2108 H   0  0  0  0  0  0  0  0  0  0  0  0  # atno 10718 bound_to 10713
  153.1177  135.6712  153.9390 H   0  0  0  0  0  0  0  0  0  0  0  0  # atno 10763 bound_to 10752
  153.8915  135.3046  155.3449 H   0  0  0  0  0  0  0  0  0  0  0  0  # atno 10764 bound_to 10752
  154.7591  135.4997  153.9509 H   0  0  0  0  0  0  0  0  0  0  0  0  # atno 10765 bound_to 10752
  141.0120  133.6903  156.2221 H   0  0  0  0  0  0  0  0  0  0  0  0  # atno 11005 bound_to 11000
  145.7858  140.9836  143.1075 LP  0  0  0  0  0  0  0  0  0  0  0  0  # atno 17320 bound_to 7965
  144.6845  139.9621  143.7480 LP  0  0  0  0  0  0  0  0  0  0  0  0  # atno 17321 bound_to 7965
  139.6500  144.7660  151.2167 LP  0  0  0  0  0  0  0  0  0  0  0  0  # atno 17342 bound_to 10162
  140.7530  143.6176  150.8544 LP  0  0  0  0  0  0  0  0  0  0  0  0  # atno 17343 bound_to 10162
  157.7501  131.0305  150.4142 LP  0  0  0  0  0  0  0  0  0  0  0  0  # atno 17370 bound_to 10713
  156.4409  130.3991  149.6698 LP  0  0  0  0  0  0  0  0  0  0  0  0  # atno 17371 bound_to 10713
  140.6717  134.4861  157.5587 LP  0  0  0  0  0  0  0  0  0  0  0  0  # atno 17394 bound_to 11000
  139.9095  134.8375  156.1579 LP  0  0  0  0  0  0  0  0  0  0  0  0  # atno 17395 bound_to 11000

$$$$
