AV-unprocessed.smi:3255|AV-procd|sdf|12463|dock9
  -GOLD-   2272018363D 1   1.00000     0.00000
 Structure written by MMmdl.
 38 39  0  0  0  0  0  0  0  0  1 V2000
  151.9652  137.6762  155.1149 C   0  0  0  0  0  0  0  0  0  0  0  0
  150.4401  137.8516  155.1524 C   0  0  2  0  0  0  0  0  0  0  0  0
  149.8168  136.7123  154.4801 N   0  0  0  0  0  0  0  0  0  0  0  0
  149.1901  135.6947  155.0877 C   0  0  0  0  0  0  0  0  0  0  0  0
  149.0832  135.5775  156.3085 O   0  0  0  0  0  0  0  0  0  0  0  0
  148.6689  134.8328  154.2032 N   0  0  0  0  0  0  0  0  0  0  0  0
  147.8642  133.6634  154.5459 C   0  0  0  0  0  0  0  0  0  0  0  0
  147.9236  132.5808  153.4516 C   0  0  0  0  0  0  0  0  0  0  0  0
  146.9090  132.7585  152.4287 N   0  0  0  0  0  0  0  0  0  0  0  0
  146.7151  133.8754  151.6261 C   0  0  0  0  0  0  0  0  0  0  0  0
  145.6373  133.5959  150.8167 C   0  0  0  0  0  0  0  0  0  0  0  0
  145.1617  132.3168  151.0947 N   0  0  0  0  0  0  0  0  0  0  0  0
  145.9655  131.8823  152.0568 C   0  0  0  0  0  0  0  0  0  0  0  0
  149.9972  139.1766  154.4962 C   0  0  1  0  0  0  0  0  0  0  0  0
  148.5047  139.4975  154.6219 C   0  0  0  0  0  0  0  0  0  0  0  0
  148.5000  141.0045  154.5238 C   0  0  0  0  0  0  0  0  0  0  0  0
  149.7533  141.3603  155.3146 C   0  0  0  0  0  0  0  0  0  0  0  0
  150.6621  140.2828  155.1053 O   0  0  0  0  0  0  0  0  0  0  0  0
  152.4684  138.4891  155.6390 H   0  0  0  0  0  0  0  0  0  0  0  0
  152.3392  137.6598  154.0906 H   0  0  0  0  0  0  0  0  0  0  0  0
  152.2644  136.7439  155.5947 H   0  0  0  0  0  0  0  0  0  0  0  0
  150.1384  137.8715  156.2012 H   0  0  0  0  0  0  0  0  0  0  0  0
  149.8460  136.7143  153.4710 H   0  0  0  0  0  0  0  0  0  0  0  0
  148.8127  135.0146  153.2207 H   0  0  0  0  0  0  0  0  0  0  0  0
  148.2598  133.2550  155.4758 H   0  0  0  0  0  0  0  0  0  0  0  0
  146.8304  133.9433  154.7562 H   0  0  0  0  0  0  0  0  0  0  0  0
  148.9058  132.5713  152.9774 H   0  0  0  0  0  0  0  0  0  0  0  0
  147.7825  131.5959  153.8981 H   0  0  0  0  0  0  0  0  0  0  0  0
  147.3362  134.7558  151.7010 H   0  0  0  0  0  0  0  0  0  0  0  0
  145.1718  134.2126  150.0620 H   0  0  0  0  0  0  0  0  0  0  0  0
  145.8611  130.9062  152.5077 H   0  0  0  0  0  0  0  0  0  0  0  0
  150.2654  139.1770  153.4384 H   0  0  0  0  0  0  0  0  0  0  0  0
  147.9016  139.0185  153.8505 H   0  0  0  0  0  0  0  0  0  0  0  0
  148.1222  139.1899  155.5964 H   0  0  0  0  0  0  0  0  0  0  0  0
  148.6076  141.3140  153.4833 H   0  0  0  0  0  0  0  0  0  0  0  0
  147.5951  141.4595  154.9274 H   0  0  0  0  0  0  0  0  0  0  0  0
  150.1846  142.3135  155.0082 H   0  0  0  0  0  0  0  0  0  0  0  0
  149.5259  141.4177  156.3797 H   0  0  0  0  0  0  0  0  0  0  0  0
  1  2  1  0  0  0  0
  1 19  1  0  0  0  0
  1 20  1  0  0  0  0
  1 21  1  0  0  0  0
  2  3  1  0  0  0  0
  2 14  1  0  0  0  0
  2 22  1  0  0  0  0
  3  4  1  0  0  0  0
  3 23  1  0  0  0  0
  4  5  2  0  0  0  0
  4  6  1  0  0  0  0
  6  7  1  0  0  0  0
  6 24  1  0  0  0  0
  7  8  1  0  0  0  0
  7 25  1  0  0  0  0
  7 26  1  0  0  0  0
  8  9  1  0  0  0  0
  8 27  1  0  0  0  0
  8 28  1  0  0  0  0
  9 13  1  0  0  0  0
  9 10  1  0  0  0  0
 10 11  2  0  0  0  0
 10 29  1  0  0  0  0
 11 12  1  0  0  0  0
 11 30  1  0  0  0  0
 12 13  2  0  0  0  0
 13 31  1  0  0  0  0
 14 18  1  0  0  0  0
 14 15  1  0  0  0  0
 14 32  1  0  0  0  0
 15 16  1  0  0  0  0
 15 33  1  0  0  0  0
 15 34  1  0  0  0  0
 16 17  1  0  0  0  0
 16 35  1  0  0  0  0
 16 36  1  0  0  0  0
 17 18  1  0  0  0  0
 17 37  1  0  0  0  0
 17 38  1  0  0  0  0
M  END
> <s_m_source_file>
AV-unprocessed.smi

> <i_m_source_file_index>
3255

> <i_lp_mmshare_version>
43012

> <i_f3d_flags>
0

> <s_epik_input>
TzFbQ0gyXVtDSDJdW0NIMl1bQ0BIXTFbQ0BIXShbQ0gzXSlbTkhdQyg9TylbTkhdW0NIMl1bQ0gyXW4yW2NIXVtjSF1uW2NIXTI=

> <s_epik_cmdline>
J2VwaWtfcHl0aG9uJywgJy1waCcsICc3LjAnLCAnLXRuJywgJzgnLCAnLW1hJywgJzIwMCcsICctbWV0YWxfYmluZGluZycsICctaW1hZScsICc8aW5maWxlLm1hZT4nLCAnLW9tYWUnLCAnPG91dGZpbGUubWFlPic=

> <r_lp_tautomer_probability>
1

> <r_epik_Ionization_Penalty>
0.620274

> <r_epik_Ionization_Penalty_Charging>
0.620225

> <r_epik_Ionization_Penalty_Neutral>
4.91362e-05

> <r_epik_State_Penalty>
0.636186

> <r_epik_Charging_Adjusted_Penalty>
1.25641

> <i_epik_Tot_Q>
0

> <i_epik_Tot_abs_Q>
0

> <r_epik_Metal_State_Penalty>
0.306491

> <b_epik_Metal_Only>
0

> <s_lp_Force_Field>
OPLS_2005

> <r_lp_Energy>
16.3443

> <b_lp_Chiralities_Consistent>
1

> <s_lp_Variant>
AV-unprocessed.smi:3255-7

> <Gold.Version>
5.8.1

> <Gold.Id.Protein>
6NUR|6NUR_protein|mol2

> <Gold.PLP.Fitness>
43.9716

> <Gold.PLP.PLP>
-30.7313

> <Gold.PLP.part.hbond>
-3.0767

> <Gold.PLP.part.metal>
0.0000

> <Gold.PLP.part.buried>
-3.2034

> <Gold.PLP.part.nonpolar>
-25.6929

> <Gold.PLP.part.repulsive>
0.2469

> <Gold.PLP.ligand.clash>
0.0000

> <Gold.PLP.ligand.torsion>
0.5271

> <Gold.PLP.Chemscore.Hbond>
2.7600

> <Gold.PLP.Chemscore.CHOScore>
1.9959

> <Gold.PLP.Chemscore.Metal>
0.0000

> <Gold.Chemscore.Hbonds>
donor molecule, donor type, donor heavy atom, donor atom, acceptor molecule, acceptor atom, score
      L1  H     3    23       P1  7948  0.96
      L1  H     6    24       P1  7948  1.00
      P1  H  7989  7998       L1    18  0.85
      L1  C    10    29       P1  7948  1.00
      L1  C    11    30       P1  7921  0.59

> <Gold.PLP.Chemscore.Internal.Correction>
0.0267

> <Gold.Rescore>
     Score         DG    S(hbond)    S(metal)    S(lipo)     H(rot)  DE(clash)    DE(int)     intcor
     13.39     -14.31       2.35        0.00      56.17       2.18       0.11       0.81       ----

> <Gold.Chemscore.Fitness>
13.3885

> <Gold.Chemscore.DG>
-14.3103

> <Gold.Chemscore.ZeroCoef>
-5.4800

> <Gold.Chemscore.Hbond>
2.3491

> <Gold.Chemscore.Metal>
0.0000

> <Gold.Chemscore.Lipo>
56.1733

> <Gold.Chemscore.Internal_Hbond>
0.0000

> <Gold.Chemscore.DEClash>
0.1129

> <Gold.Chemscore.DEInternal>
0.8089

> <Gold.Chemscore.Rot>
2.1828

> <Gold.Chemscore.Internal.Correction>
   9.000000E+99

> <Gold.Chemscore.Hbonds>
donor molecule, donor type, donor heavy atom, donor atom, acceptor molecule, acceptor atom, score
      L1  H     3    23       P1  7948  0.32
      L1  H     6    24       P1  7948  0.42
      P1  H  7989  7998       L1    18  0.05

> <Gold.Chemscore.Hbond.Weighted>
-7.8461

> <Gold.Chemscore.Metal.Weighted>
-0.0000

> <Gold.Chemscore.Lipo.Weighted>
-6.5723

> <Gold.Chemscore.Internal_Hbond.Weighted>
0.0000

> <Gold.Chemscore.DEClash.Weighted>
0.1129

> <Gold.Chemscore.DEInternal.Weighted>
0.8089

> <Gold.Chemscore.Rot.Weighted>
5.5881

> <Gold.Chemscore.Internal.Correction.Weighted>
   9.000000E+99

> <Gold.Protein.RotatedTorsions>
[ 6907 6896 6895 6894 ] final -157.07 input  -60.11 | X-H torsion
[ 7974 7965 7964 7962 ] final  -66.91 input  175.53 | X-H torsion
[ 8008 7997 7996 7995 ] final -102.69 input   59.86 | X-H torsion
[ 10167 10162 10161 10158 ] final   55.65 input  -65.29 | X-H torsion
[ 10718 10713 10712 10709 ] final  111.74 input   66.30 | X-H torsion
[ 10763 10752 10751 10750 ] final   69.92 input  -60.55 | X-H torsion
[ 11005 11000 10999 10996 ] final   62.43 input  -57.11 | X-H torsion

> <Gold.Protein.ActiveResidues>
 VAL166  LYS551  ARG553  GLY616  TRP617  ASP618  TYR619  PRO620  LYS621  CYS622 
 ASP623  PHE694  ASN695  SER759  ASP760  ASP761  ALA762  ILE779  LEU786  VAL792 
 PHE793  MET794  SER795  GLU796  ALA797  LYS798  CYS799  TRP800  GLU811  SER814 

> <Gold.Protein.RotatedAtoms>
  151.2973  133.4138  159.2636 H   0  0  0  0  0  0  0  0  0  0  0  0  # atno 6907 bound_to 6896
  151.0226  134.9481  159.8078 H   0  0  0  0  0  0  0  0  0  0  0  0  # atno 6908 bound_to 6896
  152.5327  134.2935  159.9104 H   0  0  0  0  0  0  0  0  0  0  0  0  # atno 6909 bound_to 6896
  145.7358  140.8976  143.0556 H   0  0  0  0  0  0  0  0  0  0  0  0  # atno 7974 bound_to 7965
  154.8602  140.0427  157.1660 H   0  0  0  0  0  0  0  0  0  0  0  0  # atno 8008 bound_to 7997
  154.8848  140.2978  155.5384 H   0  0  0  0  0  0  0  0  0  0  0  0  # atno 8009 bound_to 7997
  156.2998  140.2404  156.3855 H   0  0  0  0  0  0  0  0  0  0  0  0  # atno 8010 bound_to 7997
  140.2172  144.3827  150.6465 H   0  0  0  0  0  0  0  0  0  0  0  0  # atno 10167 bound_to 10162
  157.6429  131.0956  150.6793 H   0  0  0  0  0  0  0  0  0  0  0  0  # atno 10718 bound_to 10713
  153.0313  135.5193  154.7361 H   0  0  0  0  0  0  0  0  0  0  0  0  # atno 10763 bound_to 10752
  154.6375  135.2908  155.0146 H   0  0  0  0  0  0  0  0  0  0  0  0  # atno 10764 bound_to 10752
  154.1076  135.6627  153.4932 H   0  0  0  0  0  0  0  0  0  0  0  0  # atno 10765 bound_to 10752
  140.0093  134.6321  155.9806 H   0  0  0  0  0  0  0  0  0  0  0  0  # atno 11005 bound_to 11000
  144.6882  139.9393  143.7474 LP  0  0  0  0  0  0  0  0  0  0  0  0  # atno 17320 bound_to 7965
  146.0495  139.3497  143.0648 LP  0  0  0  0  0  0  0  0  0  0  0  0  # atno 17321 bound_to 7965
  140.6281  143.2184  151.6554 LP  0  0  0  0  0  0  0  0  0  0  0  0  # atno 17342 bound_to 10162
  139.5157  144.3368  152.0776 LP  0  0  0  0  0  0  0  0  0  0  0  0  # atno 17343 bound_to 10162
  156.7115  130.4653  149.5546 LP  0  0  0  0  0  0  0  0  0  0  0  0  # atno 17370 bound_to 10713
  156.1727  130.6447  151.0857 LP  0  0  0  0  0  0  0  0  0  0  0  0  # atno 17371 bound_to 10713
  141.1699  133.6537  156.4614 LP  0  0  0  0  0  0  0  0  0  0  0  0  # atno 17394 bound_to 11000
  140.4584  134.6864  157.5074 LP  0  0  0  0  0  0  0  0  0  0  0  0  # atno 17395 bound_to 11000

$$$$
