AV-unprocessed.smi:3248|AV-procd|sdf|12415|dock10
  -GOLD-   2272018293D 1   1.00000     0.00000
 Structure written by MMmdl.
 38 39  0  0  0  0  0  0  0  0  1 V2000
  146.5036  135.9951  155.9688 C   0  0  0  0  0  0  0  0  0  0  0  0
  146.4601  136.3337  154.4712 C   0  0  2  0  0  0  0  0  0  0  0  0
  146.5517  135.0658  153.6005 C   0  0  0  0  0  0  0  0  0  0  0  0
  145.6904  135.1369  152.4327 N   0  0  0  0  0  0  0  0  0  0  0  0
  145.8338  135.9247  151.3100 C   0  0  0  0  0  0  0  0  0  0  0  0
  144.7892  135.6397  150.4779 C   0  0  0  0  0  0  0  0  0  0  0  0
  144.0510  134.6517  151.1877 C   0  0  0  0  0  0  0  0  0  0  0  0
  144.5923  134.3532  152.3579 N   0  0  0  0  0  0  0  0  0  0  0  0
  147.5502  137.2479  154.1385 N   0  0  0  0  0  0  0  0  0  0  0  0
  147.8146  138.4129  154.7529 C   0  0  0  0  0  0  0  0  0  0  0  0
  147.1330  138.8368  155.6862 O   0  0  0  0  0  0  0  0  0  0  0  0
  148.8098  139.1155  154.1578 N   0  0  0  0  0  0  0  0  0  0  0  0
  150.0677  138.4646  153.7615 C   0  0  0  0  0  0  0  0  0  0  0  0
  151.0952  138.6661  154.8928 C   0  0  0  0  0  0  0  0  0  0  0  0
  151.2803  140.0584  155.1396 O   0  0  0  0  0  0  0  0  0  0  0  0
  150.0731  140.7410  155.4734 C   0  0  0  0  0  0  0  0  0  0  0  0
  149.0540  140.5609  154.3305 C   0  0  2  0  0  0  0  0  0  0  0  0
  147.7937  141.4330  154.5116 C   0  0  0  0  0  0  0  0  0  0  0  0
  145.6893  135.3237  156.2423 H   0  0  0  0  0  0  0  0  0  0  0  0
  146.4067  136.8934  156.5794 H   0  0  0  0  0  0  0  0  0  0  0  0
  147.4412  135.5080  156.2384 H   0  0  0  0  0  0  0  0  0  0  0  0
  145.5037  136.8159  154.2603 H   0  0  0  0  0  0  0  0  0  0  0  0
  147.5800  134.8916  153.2785 H   0  0  0  0  0  0  0  0  0  0  0  0
  146.2560  134.1911  154.1810 H   0  0  0  0  0  0  0  0  0  0  0  0
  146.6595  136.6119  151.1975 H   0  0  0  0  0  0  0  0  0  0  0  0
  144.5841  136.0702  149.5089 H   0  0  0  0  0  0  0  0  0  0  0  0
  143.1445  134.1460  150.8896 H   0  0  0  0  0  0  0  0  0  0  0  0
  148.1256  136.9949  153.3482 H   0  0  0  0  0  0  0  0  0  0  0  0
  149.9572  137.3988  153.5581 H   0  0  0  0  0  0  0  0  0  0  0  0
  150.4355  138.9047  152.8335 H   0  0  0  0  0  0  0  0  0  0  0  0
  150.7694  138.1681  155.8075 H   0  0  0  0  0  0  0  0  0  0  0  0
  152.0535  138.2273  154.6146 H   0  0  0  0  0  0  0  0  0  0  0  0
  149.6776  140.3664  156.4189 H   0  0  0  0  0  0  0  0  0  0  0  0
  150.3016  141.7973  155.6175 H   0  0  0  0  0  0  0  0  0  0  0  0
  149.5198  140.9174  153.4099 H   0  0  0  0  0  0  0  0  0  0  0  0
  148.0470  142.4894  154.4198 H   0  0  0  0  0  0  0  0  0  0  0  0
  147.3342  141.3063  155.4914 H   0  0  0  0  0  0  0  0  0  0  0  0
  147.0455  141.2109  153.7500 H   0  0  0  0  0  0  0  0  0  0  0  0
  1  2  1  0  0  0  0
  1 19  1  0  0  0  0
  1 20  1  0  0  0  0
  1 21  1  0  0  0  0
  2  3  1  0  0  0  0
  2  9  1  0  0  0  0
  2 22  1  0  0  0  0
  3  4  1  0  0  0  0
  3 23  1  0  0  0  0
  3 24  1  0  0  0  0
  4  8  1  0  0  0  0
  4  5  1  0  0  0  0
  5  6  2  0  0  0  0
  5 25  1  0  0  0  0
  6  7  1  0  0  0  0
  6 26  1  0  0  0  0
  7  8  2  0  0  0  0
  7 27  1  0  0  0  0
  9 10  1  0  0  0  0
  9 28  1  0  0  0  0
 10 11  2  0  0  0  0
 10 12  1  0  0  0  0
 12 17  1  0  0  0  0
 12 13  1  0  0  0  0
 13 14  1  0  0  0  0
 13 29  1  0  0  0  0
 13 30  1  0  0  0  0
 14 15  1  0  0  0  0
 14 31  1  0  0  0  0
 14 32  1  0  0  0  0
 15 16  1  0  0  0  0
 16 17  1  0  0  0  0
 16 33  1  0  0  0  0
 16 34  1  0  0  0  0
 17 18  1  0  0  0  0
 17 35  1  0  0  0  0
 18 36  1  0  0  0  0
 18 37  1  0  0  0  0
 18 38  1  0  0  0  0
M  END
> <s_m_source_file>
AV-unprocessed.smi

> <i_m_source_file_index>
3248

> <i_lp_mmshare_version>
43012

> <i_f3d_flags>
0

> <s_epik_input>
bjFbY0hdW2NIXVtjSF1uMVtDSDJdW0NAQEhdKFtDSDNdKVtOSF1DKD1PKU4yW0NIMl1bQ0gyXU9bQ0gyXVtDQEhdMltDSDNd

> <s_epik_cmdline>
J2VwaWtfcHl0aG9uJywgJy1waCcsICc3LjAnLCAnLXRuJywgJzgnLCAnLW1hJywgJzIwMCcsICctbWV0YWxfYmluZGluZycsICctaW1hZScsICc8aW5maWxlLm1hZT4nLCAnLW9tYWUnLCAnPG91dGZpbGUubWFlPic=

> <r_lp_tautomer_probability>
1

> <r_epik_Ionization_Penalty>
4.45233e-05

> <r_epik_Ionization_Penalty_Charging>
0

> <r_epik_Ionization_Penalty_Neutral>
4.45233e-05

> <r_epik_State_Penalty>
-0

> <r_epik_Charging_Adjusted_Penalty>
0

> <i_epik_Tot_Q>
0

> <i_epik_Tot_abs_Q>
0

> <r_epik_Metal_State_Penalty>
-0

> <b_epik_Metal_Only>
0

> <s_lp_Force_Field>
OPLS_2005

> <r_lp_Energy>
31.9687

> <b_lp_Chiralities_Consistent>
1

> <s_lp_Variant>
AV-unprocessed.smi:3248-3

> <Gold.Version>
5.8.1

> <Gold.Id.Protein>
6NUR|6NUR_protein|mol2

> <Gold.PLP.Fitness>
35.0634

> <Gold.PLP.PLP>
-24.9092

> <Gold.PLP.part.hbond>
-2.0000

> <Gold.PLP.part.metal>
0.0000

> <Gold.PLP.part.buried>
1.0130

> <Gold.PLP.part.nonpolar>
-24.4287

> <Gold.PLP.part.repulsive>
0.1177

> <Gold.PLP.ligand.clash>
0.0000

> <Gold.PLP.ligand.torsion>
1.0687

> <Gold.PLP.Chemscore.Hbond>
2.0000

> <Gold.PLP.Chemscore.CHOScore>
1.9453

> <Gold.PLP.Chemscore.Metal>
0.0000

> <Gold.Chemscore.Hbonds>
donor molecule, donor type, donor heavy atom, donor atom, acceptor molecule, acceptor atom, score
      L1  H     9    28       P1  7948  1.00
      P1  H  7989  7998       L1    15  0.95
      L1  C     5    25       P1  7948  0.94
      L1  C     7    27       P1 10186  1.00

> <Gold.PLP.Chemscore.Internal.Correction>
0.4558

> <Gold.Rescore>
     Score         DG    S(hbond)    S(metal)    S(lipo)     H(rot)  DE(clash)    DE(int)     intcor
      9.16     -13.08       1.36        0.00      57.27       1.42       0.58       3.34       ----

> <Gold.Chemscore.Fitness>
9.1641

> <Gold.Chemscore.DG>
-13.0815

> <Gold.Chemscore.ZeroCoef>
-5.4800

> <Gold.Chemscore.Hbond>
1.3575

> <Gold.Chemscore.Metal>
0.0000

> <Gold.Chemscore.Lipo>
57.2683

> <Gold.Chemscore.Internal_Hbond>
0.0000

> <Gold.Chemscore.DEClash>
0.5785

> <Gold.Chemscore.DEInternal>
3.3389

> <Gold.Chemscore.Rot>
1.4191

> <Gold.Chemscore.Internal.Correction>
   9.000000E+99

> <Gold.Chemscore.Hbonds>
donor molecule, donor type, donor heavy atom, donor atom, acceptor molecule, acceptor atom, score
      L1  H     9    28       P1  7948  1.00
      P1  H  7989  7998       L1    15  0.14

> <Gold.Chemscore.Hbond.Weighted>
-4.5341

> <Gold.Chemscore.Metal.Weighted>
-0.0000

> <Gold.Chemscore.Lipo.Weighted>
-6.7004

> <Gold.Chemscore.Internal_Hbond.Weighted>
0.0000

> <Gold.Chemscore.DEClash.Weighted>
0.5785

> <Gold.Chemscore.DEInternal.Weighted>
3.3389

> <Gold.Chemscore.Rot.Weighted>
3.6330

> <Gold.Chemscore.Internal.Correction.Weighted>
   9.000000E+99

> <Gold.Protein.RotatedTorsions>
[ 6907 6896 6895 6894 ] final   17.07 input  -60.11 | X-H torsion
[ 7974 7965 7964 7962 ] final  -21.54 input  175.53 | X-H torsion
[ 8008 7997 7996 7995 ] final   62.17 input   59.86 | X-H torsion
[ 10167 10162 10161 10158 ] final  138.32 input  -65.29 | X-H torsion
[ 10718 10713 10712 10709 ] final  110.32 input   66.30 | X-H torsion
[ 10763 10752 10751 10750 ] final  -58.16 input  -60.55 | X-H torsion
[ 11005 11000 10999 10996 ] final  -45.78 input  -57.11 | X-H torsion

> <Gold.Protein.ActiveResidues>
 VAL166  LYS551  ARG553  GLY616  TRP617  ASP618  TYR619  PRO620  LYS621  CYS622 
 ASP623  PHE694  ASN695  SER759  ASP760  ASP761  ALA762  ILE779  LEU786  VAL792 
 PHE793  MET794  SER795  GLU796  ALA797  LYS798  CYS799  TRP800  GLU811  SER814 

> <Gold.Protein.RotatedAtoms>
  151.8438  135.0581  160.0450 H   0  0  0  0  0  0  0  0  0  0  0  0  # atno 6907 bound_to 6896
  152.2789  133.5447  159.5493 H   0  0  0  0  0  0  0  0  0  0  0  0  # atno 6908 bound_to 6896
  150.7181  134.0509  159.3840 H   0  0  0  0  0  0  0  0  0  0  0  0  # atno 6909 bound_to 6896
  146.1727  140.4354  142.8526 H   0  0  0  0  0  0  0  0  0  0  0  0  # atno 7974 bound_to 7965
  155.6101  140.3495  155.4619 H   0  0  0  0  0  0  0  0  0  0  0  0  # atno 8008 bound_to 7997
  156.0161  140.1243  157.0429 H   0  0  0  0  0  0  0  0  0  0  0  0  # atno 8009 bound_to 7997
  154.4298  140.1072  156.5884 H   0  0  0  0  0  0  0  0  0  0  0  0  # atno 8010 bound_to 7997
  139.5115  144.6360  151.5695 H   0  0  0  0  0  0  0  0  0  0  0  0  # atno 10167 bound_to 10162
  157.6500  131.0930  150.6584 H   0  0  0  0  0  0  0  0  0  0  0  0  # atno 10718 bound_to 10713
  154.2337  135.6356  153.5184 H   0  0  0  0  0  0  0  0  0  0  0  0  # atno 10763 bound_to 10752
  152.9944  135.5525  154.5985 H   0  0  0  0  0  0  0  0  0  0  0  0  # atno 10764 bound_to 10752
  154.5474  135.2899  155.1014 H   0  0  0  0  0  0  0  0  0  0  0  0  # atno 10765 bound_to 10752
  141.0537  133.6733  156.3061 H   0  0  0  0  0  0  0  0  0  0  0  0  # atno 11005 bound_to 11000
  144.8188  140.6514  143.6366 LP  0  0  0  0  0  0  0  0  0  0  0  0  # atno 17320 bound_to 7965
  145.4296  139.1551  143.4030 LP  0  0  0  0  0  0  0  0  0  0  0  0  # atno 17321 bound_to 7965
  140.6109  143.9437  150.6453 LP  0  0  0  0  0  0  0  0  0  0  0  0  # atno 17342 bound_to 10162
  140.2680  143.3476  152.1264 LP  0  0  0  0  0  0  0  0  0  0  0  0  # atno 17343 bound_to 10162
  156.6897  130.4591  149.5603 LP  0  0  0  0  0  0  0  0  0  0  0  0  # atno 17370 bound_to 10713
  156.1871  130.6536  151.1018 LP  0  0  0  0  0  0  0  0  0  0  0  0  # atno 17371 bound_to 10713
  140.6006  134.5559  157.5517 LP  0  0  0  0  0  0  0  0  0  0  0  0  # atno 17394 bound_to 11000
  139.9372  134.7854  156.0773 LP  0  0  0  0  0  0  0  0  0  0  0  0  # atno 17395 bound_to 11000

$$$$
