AV-unprocessed.smi:1565|AV-procd|sdf|6297|dock2
  -GOLD-   22720 6493D 1   1.00000     0.00000
 Structure written by MMmdl.
 40 41  0  0  0  0  0  0  0  0  1 V2000
  149.4401  142.3576  157.6126 C   0  0  0  0  0  0  0  0  0  0  0  0
  150.9245  142.6937  157.3839 C   0  0  2  0  0  0  0  0  0  0  0  0
  151.8800  141.5538  157.7885 C   0  0  0  0  0  0  0  0  0  0  0  0
  152.0096  141.4694  159.2405 N   0  0  0  0  0  0  0  0  0  0  0  0
  152.6141  140.2924  159.7309 C   0  0  0  0  0  0  0  0  0  0  0  0
  153.6783  140.3751  160.6592 C   0  0  0  0  0  0  0  0  0  0  0  0
  154.2650  139.1888  161.1399 C   0  0  0  0  0  0  0  0  0  0  0  0
  153.7724  137.9463  160.6893 C   0  0  0  0  0  0  0  0  0  0  0  0
  154.3866  136.6615  161.1647 C   0  0  0  0  0  0  0  0  0  0  0  0
  154.3137  135.6382  160.4841 O   0  0  0  0  0  0  0  0  0  0  0  0
  155.0539  136.7332  162.3274 N   0  0  0  0  0  0  0  0  0  0  0  0
  155.7748  135.6294  162.9528 C   0  0  0  0  0  0  0  0  0  0  0  0
  154.9626  134.9785  164.0852 C   0  0  0  0  0  0  0  0  0  0  0  0
  154.2831  133.9427  163.5949 F   0  0  0  0  0  0  0  0  0  0  0  0
  155.7640  134.5398  165.0558 F   0  0  0  0  0  0  0  0  0  0  0  0
  154.0959  135.8549  164.5937 F   0  0  0  0  0  0  0  0  0  0  0  0
  152.7193  137.9638  159.7479 C   0  0  0  0  0  0  0  0  0  0  0  0
  152.1544  139.0980  159.2838 N   0  0  0  0  0  0  0  0  0  0  0  0
  152.3747  142.7403  159.8599 C   0  0  0  0  0  0  0  0  0  0  0  0
  151.3811  143.8411  159.4490 C   0  0  1  0  0  0  0  0  0  0  0  0
  151.8047  145.2174  159.9725 C   0  0  0  0  0  0  0  0  0  0  0  0
  151.3085  143.9121  158.0255 O   0  0  0  0  0  0  0  0  0  0  0  0
  149.1403  141.5040  157.0044 H   0  0  0  0  0  0  0  0  0  0  0  0
  148.8039  143.1986  157.3365 H   0  0  0  0  0  0  0  0  0  0  0  0
  149.2281  142.1034  158.6508 H   0  0  0  0  0  0  0  0  0  0  0  0
  151.0470  142.8635  156.3139 H   0  0  0  0  0  0  0  0  0  0  0  0
  151.5322  140.6182  157.3525 H   0  0  0  0  0  0  0  0  0  0  0  0
  152.8698  141.7419  157.3706 H   0  0  0  0  0  0  0  0  0  0  0  0
  154.0586  141.3286  160.9943 H   0  0  0  0  0  0  0  0  0  0  0  0
  155.0808  139.2407  161.8464 H   0  0  0  0  0  0  0  0  0  0  0  0
  155.0836  137.6228  162.8040 H   0  0  0  0  0  0  0  0  0  0  0  0
  155.9833  134.8889  162.1800 H   0  0  0  0  0  0  0  0  0  0  0  0
  156.7446  135.9653  163.3237 H   0  0  0  0  0  0  0  0  0  0  0  0
  152.3130  137.0469  159.3465 H   0  0  0  0  0  0  0  0  0  0  0  0
  152.3766  142.6441  160.9465 H   0  0  0  0  0  0  0  0  0  0  0  0
  153.3864  143.0106  159.5540 H   0  0  0  0  0  0  0  0  0  0  0  0
  150.3957  143.6148  159.8566 H   0  0  0  0  0  0  0  0  0  0  0  0
  151.8620  145.2223  161.0613 H   0  0  0  0  0  0  0  0  0  0  0  0
  151.0901  145.9845  159.6739 H   0  0  0  0  0  0  0  0  0  0  0  0
  152.7826  145.5039  159.5840 H   0  0  0  0  0  0  0  0  0  0  0  0
  1  2  1  0  0  0  0
  1 23  1  0  0  0  0
  1 24  1  0  0  0  0
  1 25  1  0  0  0  0
  2 22  1  0  0  0  0
  2  3  1  0  0  0  0
  2 26  1  0  0  0  0
  3  4  1  0  0  0  0
  3 27  1  0  0  0  0
  3 28  1  0  0  0  0
  4  5  1  0  0  0  0
  4 19  1  0  0  0  0
  5 18  1  0  0  0  0
  5  6  2  0  0  0  0
  6  7  1  0  0  0  0
  6 29  1  0  0  0  0
  7  8  2  0  0  0  0
  7 30  1  0  0  0  0
  8  9  1  0  0  0  0
  8 17  1  0  0  0  0
  9 10  2  0  0  0  0
  9 11  1  0  0  0  0
 11 12  1  0  0  0  0
 11 31  1  0  0  0  0
 12 13  1  0  0  0  0
 12 32  1  0  0  0  0
 12 33  1  0  0  0  0
 13 14  1  0  0  0  0
 13 15  1  0  0  0  0
 13 16  1  0  0  0  0
 17 18  2  0  0  0  0
 17 34  1  0  0  0  0
 19 20  1  0  0  0  0
 19 35  1  0  0  0  0
 19 36  1  0  0  0  0
 20 21  1  0  0  0  0
 20 22  1  0  0  0  0
 20 37  1  0  0  0  0
 21 38  1  0  0  0  0
 21 39  1  0  0  0  0
 21 40  1  0  0  0  0
M  END
> <s_m_source_file>
AV-unprocessed.smi

> <i_m_source_file_index>
1565

> <i_lp_mmshare_version>
43012

> <i_f3d_flags>
0

> <s_epik_input>
W0NIM11bQ0BASF0xW0NIMl1OKFtDSDJdW0NASF0oTzEpW0NIM10pYzJbY0hdW2NIXWMoW2NIXW4yKUMoPU8pW05IXVtDSDJdQyhGKShGKUY=

> <s_epik_cmdline>
J2VwaWtfcHl0aG9uJywgJy1waCcsICc3LjAnLCAnLXRuJywgJzgnLCAnLW1hJywgJzIwMCcsICctbWV0YWxfYmluZGluZycsICctaW1hZScsICc8aW5maWxlLm1hZT4nLCAnLW9tYWUnLCAnPG91dGZpbGUubWFlPic=

> <r_lp_tautomer_probability>
1

> <r_epik_Ionization_Penalty>
1.48031e-05

> <r_epik_Ionization_Penalty_Charging>
0

> <r_epik_Ionization_Penalty_Neutral>
1.48031e-05

> <r_epik_State_Penalty>
-0

> <r_epik_Charging_Adjusted_Penalty>
0

> <i_epik_Tot_Q>
0

> <i_epik_Tot_abs_Q>
0

> <r_epik_Metal_State_Penalty>
0.00620302

> <b_epik_Metal_Only>
0

> <s_lp_Force_Field>
OPLS_2005

> <r_lp_Energy>
19.6517

> <b_lp_Chiralities_Consistent>
1

> <s_lp_Variant>
AV-unprocessed.smi:1565-1

> <Gold.Version>
5.8.1

> <Gold.Id.Protein>
6NUR|6NUR_protein|mol2

> <Gold.PLP.Fitness>
38.6676

> <Gold.PLP.PLP>
-37.7204

> <Gold.PLP.part.hbond>
-0.9928

> <Gold.PLP.part.metal>
0.0000

> <Gold.PLP.part.buried>
-5.2724

> <Gold.PLP.part.nonpolar>
-31.7430

> <Gold.PLP.part.repulsive>
0.1347

> <Gold.PLP.ligand.clash>
0.0000

> <Gold.PLP.ligand.torsion>
1.1973

> <Gold.PLP.Chemscore.Hbond>
1.0000

> <Gold.PLP.Chemscore.CHOScore>
0.0000

> <Gold.PLP.Chemscore.Metal>
0.0000

> <Gold.Chemscore.Hbonds>
donor molecule, donor type, donor heavy atom, donor atom, acceptor molecule, acceptor atom, score
      P1  H  6896  6907       L1    10  0.70

> <Gold.PLP.Chemscore.Internal.Correction>
0.3417

> <Gold.Rescore>
     Score         DG    S(hbond)    S(metal)    S(lipo)     H(rot)  DE(clash)    DE(int)     intcor
     15.09     -16.18       0.99        0.00      91.64       1.31       0.07       1.02       ----

> <Gold.Chemscore.Fitness>
15.0908

> <Gold.Chemscore.DG>
-16.1801

> <Gold.Chemscore.ZeroCoef>
-5.4800

> <Gold.Chemscore.Hbond>
0.9939

> <Gold.Chemscore.Metal>
0.0000

> <Gold.Chemscore.Lipo>
91.6397

> <Gold.Chemscore.Internal_Hbond>
0.0000

> <Gold.Chemscore.DEClash>
0.0668

> <Gold.Chemscore.DEInternal>
1.0225

> <Gold.Chemscore.Rot>
1.3052

> <Gold.Chemscore.Internal.Correction>
   9.000000E+99

> <Gold.Chemscore.Hbonds>
donor molecule, donor type, donor heavy atom, donor atom, acceptor molecule, acceptor atom, score
      P1  H  6896  6907       L1    10  0.69

> <Gold.Chemscore.Hbond.Weighted>
-3.3197

> <Gold.Chemscore.Metal.Weighted>
-0.0000

> <Gold.Chemscore.Lipo.Weighted>
-10.7218

> <Gold.Chemscore.Internal_Hbond.Weighted>
0.0000

> <Gold.Chemscore.DEClash.Weighted>
0.0668

> <Gold.Chemscore.DEInternal.Weighted>
1.0225

> <Gold.Chemscore.Rot.Weighted>
3.3414

> <Gold.Chemscore.Internal.Correction.Weighted>
   9.000000E+99

> <Gold.Protein.RotatedTorsions>
[ 6907 6896 6895 6894 ] final   67.57 input  -60.11 | X-H torsion
[ 7974 7965 7964 7962 ] final   39.20 input  175.53 | X-H torsion
[ 8008 7997 7996 7995 ] final   21.60 input   59.86 | X-H torsion
[ 10167 10162 10161 10158 ] final  -50.29 input  -65.29 | X-H torsion
[ 10718 10713 10712 10709 ] final  -20.59 input   66.30 | X-H torsion
[ 10763 10752 10751 10750 ] final  -30.22 input  -60.55 | X-H torsion
[ 11005 11000 10999 10996 ] final  118.35 input  -57.11 | X-H torsion

> <Gold.Protein.ActiveResidues>
 VAL166  LYS551  ARG553  GLY616  TRP617  ASP618  TYR619  PRO620  LYS621  CYS622 
 ASP623  PHE694  ASN695  SER759  ASP760  ASP761  ALA762  ILE779  LEU786  VAL792 
 PHE793  MET794  SER795  GLU796  ALA797  LYS798  CYS799  TRP800  GLU811  SER814 

> <Gold.Protein.RotatedAtoms>
  152.4561  134.5289  159.9804 H   0  0  0  0  0  0  0  0  0  0  0  0  # atno 6907 bound_to 6896
  151.5350  133.3437  159.2933 H   0  0  0  0  0  0  0  0  0  0  0  0  # atno 6908 bound_to 6896
  150.8505  134.7859  159.7068 H   0  0  0  0  0  0  0  0  0  0  0  0  # atno 6909 bound_to 6896
  146.1003  139.5680  142.9418 H   0  0  0  0  0  0  0  0  0  0  0  0  # atno 7974 bound_to 7965
  154.9530  140.3068  155.5066 H   0  0  0  0  0  0  0  0  0  0  0  0  # atno 8008 bound_to 7997
  156.2985  140.2315  156.4547 H   0  0  0  0  0  0  0  0  0  0  0  0  # atno 8009 bound_to 7997
  154.8037  140.0432  157.1280 H   0  0  0  0  0  0  0  0  0  0  0  0  # atno 8010 bound_to 7997
  140.6645  143.2664  151.4337 H   0  0  0  0  0  0  0  0  0  0  0  0  # atno 10167 bound_to 10162
  156.5298  130.4652  149.6553 H   0  0  0  0  0  0  0  0  0  0  0  0  # atno 10718 bound_to 10713
  153.7775  135.6907  153.4894 H   0  0  0  0  0  0  0  0  0  0  0  0  # atno 10763 bound_to 10752
  153.1833  135.4498  155.0055 H   0  0  0  0  0  0  0  0  0  0  0  0  # atno 10764 bound_to 10752
  154.8094  135.3371  154.7280 H   0  0  0  0  0  0  0  0  0  0  0  0  # atno 10765 bound_to 10752
  139.9106  134.9619  156.7490 H   0  0  0  0  0  0  0  0  0  0  0  0  # atno 11005 bound_to 11000
  145.5868  141.0375  143.2092 LP  0  0  0  0  0  0  0  0  0  0  0  0  # atno 17320 bound_to 7965
  144.7427  139.7404  143.7304 LP  0  0  0  0  0  0  0  0  0  0  0  0  # atno 17321 bound_to 7965
  139.5889  144.1543  152.2063 LP  0  0  0  0  0  0  0  0  0  0  0  0  # atno 17342 bound_to 10162
  140.0891  144.5635  150.7067 LP  0  0  0  0  0  0  0  0  0  0  0  0  # atno 17343 bound_to 10162
  156.3070  130.7208  151.2093 LP  0  0  0  0  0  0  0  0  0  0  0  0  # atno 17370 bound_to 10713
  157.7423  131.0491  150.5030 LP  0  0  0  0  0  0  0  0  0  0  0  0  # atno 17371 bound_to 10713
  140.6788  133.9493  155.7898 LP  0  0  0  0  0  0  0  0  0  0  0  0  # atno 17394 bound_to 11000
  141.0525  134.0464  157.3765 LP  0  0  0  0  0  0  0  0  0  0  0  0  # atno 17395 bound_to 11000

$$$$
