AV-unprocessed.smi:634|AV-procd|sdf|3138|dock8
  -GOLD-   22720 0 63D 1   1.00000     0.00000
 Structure written by MMmdl.
 32 33  0  0  0  0  0  0  0  0  2 V2000
  145.1639  133.5284  162.3052 C   0  0  0  0  0  0  0  0  0  0  0  0
  146.2190  134.2325  161.5232 C   0  0  0  0  0  0  0  0  0  0  0  0
  146.5553  135.5503  161.3917 C   0  0  0  0  0  0  0  0  0  0  0  0
  147.6532  135.5135  160.4911 C   0  0  0  0  0  0  0  0  0  0  0  0
  148.2978  136.7124  160.0874 N   0  0  0  0  0  0  0  0  0  0  0  0
  149.2834  136.8776  159.1871 C   0  0  0  0  0  0  0  0  0  0  0  0
  149.7706  135.9013  158.6076 O   0  0  0  0  0  0  0  0  0  0  0  0
  149.6262  138.1881  159.0354 N   0  5  0  0  0  0  0  0  0  0  0  0
  150.7766  138.7432  158.2985 C   0  0  2  0  0  0  0  0  0  0  0  0
  152.0413  138.3453  159.0879 C   0  0  0  0  0  0  0  0  0  0  0  0
  150.7034  140.2907  158.1864 C   0  0  0  0  0  0  0  0  0  0  0  0
  151.7033  140.7745  157.1239 C   0  0  0  0  0  0  0  0  0  0  0  0
  151.8302  139.4195  155.8929 S   0  0  0  0  0  0  0  0  0  0  0  0
  151.0783  139.7833  154.6818 O   0  0  0  0  0  0  0  0  0  0  0  0
  153.2338  138.9865  155.8032 O   0  0  0  0  0  0  0  0  0  0  0  0
  150.8632  138.1900  156.8569 C   0  0  0  0  0  0  0  0  0  0  0  0
  147.9604  134.2821  160.1102 N   0  0  0  0  0  0  0  0  0  0  0  0
  147.0435  133.4553  160.7698 O   0  0  0  0  0  0  0  0  0  0  0  0
  144.4185  134.2325  162.6749 H   0  0  0  0  0  0  0  0  0  0  0  0
  145.5983  133.0136  163.1622 H   0  0  0  0  0  0  0  0  0  0  0  0
  144.6526  132.7891  161.6886 H   0  0  0  0  0  0  0  0  0  0  0  0
  146.0885  136.4029  161.8621 H   0  0  0  0  0  0  0  0  0  0  0  0
  147.9597  137.5577  160.5225 H   0  0  0  0  0  0  0  0  0  0  0  0
  152.9530  138.6996  158.6072 H   0  0  0  0  0  0  0  0  0  0  0  0
  152.1277  137.2618  159.1802 H   0  0  0  0  0  0  0  0  0  0  0  0
  152.0264  138.7583  160.0974 H   0  0  0  0  0  0  0  0  0  0  0  0
  149.7118  140.6021  157.8592 H   0  0  0  0  0  0  0  0  0  0  0  0
  150.8756  140.7802  159.1457 H   0  0  0  0  0  0  0  0  0  0  0  0
  151.3815  141.6940  156.6350 H   0  0  0  0  0  0  0  0  0  0  0  0
  152.6919  140.9413  157.5532 H   0  0  0  0  0  0  0  0  0  0  0  0
  151.3380  137.2106  156.7979 H   0  0  0  0  0  0  0  0  0  0  0  0
  149.8860  138.1154  156.3815 H   0  0  0  0  0  0  0  0  0  0  0  0
  1  2  1  0  0  0  0
  1 19  1  0  0  0  0
  1 20  1  0  0  0  0
  1 21  1  0  0  0  0
  2 18  1  0  0  0  0
  2  3  2  0  0  0  0
  3  4  1  0  0  0  0
  3 22  1  0  0  0  0
  4  5  1  0  0  0  0
  4 17  2  0  0  0  0
  5  6  1  0  0  0  0
  5 23  1  0  0  0  0
  6  7  2  0  0  0  0
  6  8  1  0  0  0  0
  8  9  1  0  0  0  0
  9 16  1  0  0  0  0
  9 10  1  0  0  0  0
  9 11  1  0  0  0  0
 10 24  1  0  0  0  0
 10 25  1  0  0  0  0
 10 26  1  0  0  0  0
 11 12  1  0  0  0  0
 11 27  1  0  0  0  0
 11 28  1  0  0  0  0
 12 13  1  0  0  0  0
 12 29  1  0  0  0  0
 12 30  1  0  0  0  0
 13 14  2  0  0  0  0
 13 15  2  0  0  0  0
 13 16  1  0  0  0  0
 16 31  1  0  0  0  0
 16 32  1  0  0  0  0
 17 18  1  0  0  0  0
M  CHG  1   8  -1
M  END
> <s_m_source_file>
AV-unprocessed.smi

> <i_m_source_file_index>
634

> <i_lp_mmshare_version>
43012

> <i_f3d_flags>
0

> <s_epik_input>
W0NIM11jMVtjSF1jKG5vMSlbTkhdQyg9TylbTkhdW0NAQF0yKFtDSDNdKVtDSDJdW0NIMl1TKD1PKSg9TylbQ0gyXTI=

> <s_epik_cmdline>
J2VwaWtfcHl0aG9uJywgJy1waCcsICc3LjAnLCAnLXRuJywgJzgnLCAnLW1hJywgJzIwMCcsICctbWV0YWxfYmluZGluZycsICctaW1hZScsICc8aW5maWxlLm1hZT4nLCAnLW9tYWUnLCAnPG91dGZpbGUubWFlPic=

> <r_lp_tautomer_probability>
1

> <r_epik_Ionization_Penalty>
6.62388

> <r_epik_Ionization_Penalty_Charging>
6.62387

> <r_epik_Ionization_Penalty_Neutral>
5.45748e-06

> <r_epik_State_Penalty>
6.65157

> <r_epik_Charging_Adjusted_Penalty>
13.2754

> <i_epik_Tot_Q>
-1

> <i_epik_Tot_abs_Q>
1

> <r_epik_Metal_State_Penalty>
2.59195

> <b_epik_Metal_Only>
1

> <s_lp_Force_Field>
OPLS_2005

> <r_lp_Energy>
8.10378

> <b_lp_Chiralities_Consistent>
1

> <s_lp_Variant>
AV-unprocessed.smi:634-6

> <Gold.Version>
5.8.1

> <Gold.Id.Protein>
6NUR|6NUR_protein|mol2

> <Gold.PLP.Fitness>
35.6876

> <Gold.PLP.PLP>
-26.9486

> <Gold.PLP.part.hbond>
-4.0000

> <Gold.PLP.part.metal>
0.0000

> <Gold.PLP.part.buried>
-6.1202

> <Gold.PLP.part.nonpolar>
-17.3060

> <Gold.PLP.part.repulsive>
0.2942

> <Gold.PLP.ligand.clash>
0.0000

> <Gold.PLP.ligand.torsion>
0.1320

> <Gold.PLP.Chemscore.Hbond>
3.0000

> <Gold.PLP.Chemscore.CHOScore>
0.0000

> <Gold.PLP.Chemscore.Metal>
0.0000

> <Gold.Chemscore.Hbonds>
donor molecule, donor type, donor heavy atom, donor atom, acceptor molecule, acceptor atom, score
      P1  H  6896  6908       L1     7  1.00
      P1  H  7989  7998       L1    14  1.00
      P1  H  7997  8010       L1    15  0.96

> <Gold.PLP.Chemscore.Internal.Correction>
0.0031

> <Gold.Rescore>
     Score         DG    S(hbond)    S(metal)    S(lipo)     H(rot)  DE(clash)    DE(int)     intcor
     16.28     -17.69       2.83        0.00      45.57       1.00       0.00       1.40       ----

> <Gold.Chemscore.Fitness>
16.2816

> <Gold.Chemscore.DG>
-17.6878

> <Gold.Chemscore.ZeroCoef>
-5.4800

> <Gold.Chemscore.Hbond>
2.8253

> <Gold.Chemscore.Metal>
0.0000

> <Gold.Chemscore.Lipo>
45.5675

> <Gold.Chemscore.Internal_Hbond>
0.0000

> <Gold.Chemscore.DEClash>
0.0021

> <Gold.Chemscore.DEInternal>
1.4040

> <Gold.Chemscore.Rot>
1.0000

> <Gold.Chemscore.Internal.Correction>
   9.000000E+99

> <Gold.Chemscore.Hbonds>
donor molecule, donor type, donor heavy atom, donor atom, acceptor molecule, acceptor atom, score
      P1  H  6896  6908       L1     7  0.96
      P1  H  7989  7998       L1    14  1.00
      P1  H  7997  8010       L1    15  0.88

> <Gold.Chemscore.Hbond.Weighted>
-9.4364

> <Gold.Chemscore.Metal.Weighted>
-0.0000

> <Gold.Chemscore.Lipo.Weighted>
-5.3314

> <Gold.Chemscore.Internal_Hbond.Weighted>
0.0000

> <Gold.Chemscore.DEClash.Weighted>
0.0021

> <Gold.Chemscore.DEInternal.Weighted>
1.4040

> <Gold.Chemscore.Rot.Weighted>
2.5600

> <Gold.Chemscore.Internal.Correction.Weighted>
   9.000000E+99

> <Gold.Protein.RotatedTorsions>
[ 6907 6896 6895 6894 ] final  166.43 input  -60.11 | X-H torsion
[ 7974 7965 7964 7962 ] final   60.99 input  175.53 | X-H torsion
[ 8008 7997 7996 7995 ] final  102.47 input   59.86 | X-H torsion
[ 10167 10162 10161 10158 ] final  160.28 input  -65.29 | X-H torsion
[ 10718 10713 10712 10709 ] final  154.69 input   66.30 | X-H torsion
[ 10763 10752 10751 10750 ] final   57.80 input  -60.55 | X-H torsion
[ 11005 11000 10999 10996 ] final -124.81 input  -57.11 | X-H torsion

> <Gold.Protein.ActiveResidues>
 VAL166  LYS551  ARG553  GLY616  TRP617  ASP618  TYR619  PRO620  LYS621  CYS622 
 ASP623  PHE694  ASN695  SER759  ASP760  ASP761  ALA762  ILE779  LEU786  VAL792 
 PHE793  MET794  SER795  GLU796  ALA797  LYS798  CYS799  TRP800  GLU811  SER814 

> <Gold.Protein.RotatedAtoms>
  151.8790  133.3491  159.3759 H   0  0  0  0  0  0  0  0  0  0  0  0  # atno 6907 bound_to 6896
  150.7132  134.5037  159.5583 H   0  0  0  0  0  0  0  0  0  0  0  0  # atno 6908 bound_to 6896
  152.2585  134.8059  160.0485 H   0  0  0  0  0  0  0  0  0  0  0  0  # atno 6909 bound_to 6896
  145.8898  139.3503  143.0656 H   0  0  0  0  0  0  0  0  0  0  0  0  # atno 7974 bound_to 7965
  156.1396  140.3180  155.8474 H   0  0  0  0  0  0  0  0  0  0  0  0  # atno 8008 bound_to 7997
  155.4179  140.0510  157.3044 H   0  0  0  0  0  0  0  0  0  0  0  0  # atno 8009 bound_to 7997
  154.4965  140.2113  155.9448 H   0  0  0  0  0  0  0  0  0  0  0  0  # atno 8010 bound_to 7997
  139.4838  144.4649  151.8654 H   0  0  0  0  0  0  0  0  0  0  0  0  # atno 10167 bound_to 10162
  157.2282  131.0733  151.1870 H   0  0  0  0  0  0  0  0  0  0  0  0  # atno 10718 bound_to 10713
  152.9857  135.5629  154.5450 H   0  0  0  0  0  0  0  0  0  0  0  0  # atno 10763 bound_to 10752
  154.4898  135.2792  155.1508 H   0  0  0  0  0  0  0  0  0  0  0  0  # atno 10764 bound_to 10752
  154.2982  135.6312  153.5467 H   0  0  0  0  0  0  0  0  0  0  0  0  # atno 10765 bound_to 10752
  140.9811  134.0671  157.3763 H   0  0  0  0  0  0  0  0  0  0  0  0  # atno 11005 bound_to 11000
  145.8922  140.9296  143.0546 LP  0  0  0  0  0  0  0  0  0  0  0  0  # atno 17320 bound_to 7965
  144.6730  140.0921  143.7464 LP  0  0  0  0  0  0  0  0  0  0  0  0  # atno 17321 bound_to 7965
  140.4114  144.2364  150.5889 LP  0  0  0  0  0  0  0  0  0  0  0  0  # atno 17342 bound_to 10162
  140.4962  143.2332  151.8746 LP  0  0  0  0  0  0  0  0  0  0  0  0  # atno 17343 bound_to 10162
  157.3505  130.7080  149.6438 LP  0  0  0  0  0  0  0  0  0  0  0  0  # atno 17370 bound_to 10713
  155.9677  130.4254  150.4651 LP  0  0  0  0  0  0  0  0  0  0  0  0  # atno 17371 bound_to 10713
  139.8951  135.0139  156.6983 LP  0  0  0  0  0  0  0  0  0  0  0  0  # atno 17394 bound_to 11000
  140.7184  133.9162  155.8130 LP  0  0  0  0  0  0  0  0  0  0  0  0  # atno 17395 bound_to 11000

$$$$
