AV-unprocessed.smi:3090|AV-procd|sdf|11774|dock9
  -GOLD-   2272017153D 1   1.00000     0.00000
 Structure written by MMmdl.
 22 22  0  0  0  0  0  0  0  0  2 V2000
  144.4876  136.9481  151.9721 C   0  0  0  0  0  0  0  0  0  0  0  0
  144.2527  135.5591  151.6406 N   0  0  0  0  0  0  0  0  0  0  0  0
  144.7060  134.8456  150.5524 C   0  0  0  0  0  0  0  0  0  0  0  0
  144.2285  133.5690  150.6685 C   0  0  0  0  0  0  0  0  0  0  0  0
  144.4191  132.3907  149.7501 C   0  0  2  0  0  0  0  0  0  0  0  0
  145.7901  132.1001  149.5617 O   0  0  0  0  0  0  0  0  0  0  0  0
  143.7863  132.6669  148.3750 C   0  0  0  0  0  0  0  0  0  0  0  0
  142.3213  132.5128  148.4050 N   0  3  0  0  0  0  0  0  0  0  0  0
  143.4816  133.6088  151.8810 C   0  0  0  0  0  0  0  0  0  0  0  0
  143.4979  134.7985  152.4589 N   0  0  0  0  0  0  0  0  0  0  0  0
  145.1108  137.4151  151.2089 H   0  0  0  0  0  0  0  0  0  0  0  0
  144.9951  137.0173  152.9346 H   0  0  0  0  0  0  0  0  0  0  0  0
  143.5377  137.4806  152.0279 H   0  0  0  0  0  0  0  0  0  0  0  0
  145.3243  135.3000  149.7919 H   0  0  0  0  0  0  0  0  0  0  0  0
  143.9564  131.5030  150.1834 H   0  0  0  0  0  0  0  0  0  0  0  0
  146.2501  132.9108  149.4025 H   0  0  0  0  0  0  0  0  0  0  0  0
  144.0085  133.6870  148.0595 H   0  0  0  0  0  0  0  0  0  0  0  0
  144.2008  132.0016  147.6162 H   0  0  0  0  0  0  0  0  0  0  0  0
  142.0790  131.6766  148.9170 H   0  0  0  0  0  0  0  0  0  0  0  0
  141.9696  132.4458  147.4607 H   0  0  0  0  0  0  0  0  0  0  0  0
  142.9292  132.8106  152.3549 H   0  0  0  0  0  0  0  0  0  0  0  0
  141.9131  133.3175  148.8593 H   0  0  0  0  0  0  0  0  0  0  0  0
  1  2  1  0  0  0  0
  1 11  1  0  0  0  0
  1 12  1  0  0  0  0
  1 13  1  0  0  0  0
  2 10  1  0  0  0  0
  2  3  1  0  0  0  0
  3  4  2  0  0  0  0
  3 14  1  0  0  0  0
  4  5  1  0  0  0  0
  4  9  1  0  0  0  0
  5  6  1  0  0  0  0
  5  7  1  0  0  0  0
  5 15  1  0  0  0  0
  6 16  1  0  0  0  0
  7  8  1  0  0  0  0
  7 17  1  0  0  0  0
  7 18  1  0  0  0  0
  8 19  1  0  0  0  0
  8 20  1  0  0  0  0
  8 22  1  0  0  0  0
  9 10  2  0  0  0  0
  9 21  1  0  0  0  0
M  CHG  1   8   1
M  END
> <s_m_source_file>
AV-unprocessed.smi

> <i_m_source_file_index>
3090

> <i_lp_mmshare_version>
43012

> <i_f3d_flags>
0

> <s_epik_input>
W0NIM11uMVtjSF1jKFtjSF1uMSlbQ0BIXShbT0hdKVtDSDJdW05IMl0=

> <s_epik_cmdline>
J2VwaWtfcHl0aG9uJywgJy1waCcsICc3LjAnLCAnLXRuJywgJzgnLCAnLW1hJywgJzIwMCcsICctbWV0YWxfYmluZGluZycsICctaW1hZScsICc8aW5maWxlLm1hZT4nLCAnLW9tYWUnLCAnPG91dGZpbGUubWFlPic=

> <r_lp_tautomer_probability>
1

> <r_epik_Ionization_Penalty>
0.014056

> <r_epik_Ionization_Penalty_Charging>
0.0140431

> <r_epik_Ionization_Penalty_Neutral>
1.29738e-05

> <r_epik_State_Penalty>
0.0109628

> <r_epik_Charging_Adjusted_Penalty>
0.0250059

> <i_epik_Tot_Q>
1

> <i_epik_Tot_abs_Q>
1

> <r_epik_Metal_State_Penalty>
0.0109636

> <b_epik_Metal_Only>
0

> <s_lp_Force_Field>
OPLS_2005

> <r_lp_Energy>
1.35566

> <b_lp_Chiralities_Consistent>
1

> <s_lp_Variant>
AV-unprocessed.smi:3090-1

> <Gold.Version>
5.8.1

> <Gold.Id.Protein>
6NUR|6NUR_protein|mol2

> <Gold.PLP.Fitness>
39.8399

> <Gold.PLP.PLP>
-23.6902

> <Gold.PLP.part.hbond>
-3.0358

> <Gold.PLP.part.metal>
0.0000

> <Gold.PLP.part.buried>
-3.7135

> <Gold.PLP.part.nonpolar>
-17.4439

> <Gold.PLP.part.repulsive>
0.3449

> <Gold.PLP.ligand.clash>
0.0000

> <Gold.PLP.ligand.torsion>
0.1901

> <Gold.PLP.Chemscore.Hbond>
3.9913

> <Gold.PLP.Chemscore.CHOScore>
1.5179

> <Gold.PLP.Chemscore.Metal>
0.0000

> <Gold.Chemscore.Hbonds>
donor molecule, donor type, donor heavy atom, donor atom, acceptor molecule, acceptor atom, score
      L1  H     8    19       P1 10952  1.00
      L1  H     8    20       P1 10195  0.93
      L1  H     8    22       P1 10186  2.00
      L1  C     3    14       P1  7921  1.00
      L1  C     9    21       P1 10957  0.53

> <Gold.PLP.Chemscore.Internal.Correction>
0.0024

> <Gold.Rescore>
     Score         DG    S(hbond)    S(metal)    S(lipo)     H(rot)  DE(clash)    DE(int)     intcor
     16.30     -16.52       2.94        0.00      53.23       1.96       0.03       0.20       ----

> <Gold.Chemscore.Fitness>
16.2955

> <Gold.Chemscore.DG>
-16.5231

> <Gold.Chemscore.ZeroCoef>
-5.4800

> <Gold.Chemscore.Hbond>
2.9401

> <Gold.Chemscore.Metal>
0.0000

> <Gold.Chemscore.Lipo>
53.2329

> <Gold.Chemscore.Internal_Hbond>
0.0000

> <Gold.Chemscore.DEClash>
0.0270

> <Gold.Chemscore.DEInternal>
0.2006

> <Gold.Chemscore.Rot>
1.9551

> <Gold.Chemscore.Internal.Correction>
   9.000000E+99

> <Gold.Chemscore.Hbonds>
donor molecule, donor type, donor heavy atom, donor atom, acceptor molecule, acceptor atom, score
      L1  H     8    19       P1 10952  0.96
      L1  H     8    20       P1 10195  0.85
      L1  H     8    22       P1 10186  0.97

> <Gold.Chemscore.Hbond.Weighted>
-9.8199

> <Gold.Chemscore.Metal.Weighted>
-0.0000

> <Gold.Chemscore.Lipo.Weighted>
-6.2283

> <Gold.Chemscore.Internal_Hbond.Weighted>
0.0000

> <Gold.Chemscore.DEClash.Weighted>
0.0270

> <Gold.Chemscore.DEInternal.Weighted>
0.2006

> <Gold.Chemscore.Rot.Weighted>
5.0051

> <Gold.Chemscore.Internal.Correction.Weighted>
   9.000000E+99

> <Gold.Protein.RotatedTorsions>
[ 6907 6896 6895 6894 ] final  -29.66 input  -60.11 | X-H torsion
[ 7974 7965 7964 7962 ] final    2.71 input  175.53 | X-H torsion
[ 8008 7997 7996 7995 ] final  108.51 input   59.86 | X-H torsion
[ 10167 10162 10161 10158 ] final  177.20 input  -65.29 | X-H torsion
[ 10718 10713 10712 10709 ] final -146.64 input   66.30 | X-H torsion
[ 10763 10752 10751 10750 ] final    9.91 input  -60.55 | X-H torsion
[ 11005 11000 10999 10996 ] final   40.83 input  -57.11 | X-H torsion

> <Gold.Protein.ActiveResidues>
 VAL166  LYS551  ARG553  GLY616  TRP617  ASP618  TYR619  PRO620  LYS621  CYS622 
 ASP623  PHE694  ASN695  SER759  ASP760  ASP761  ALA762  ILE779  LEU786  VAL792 
 PHE793  MET794  SER795  GLU796  ALA797  LYS798  CYS799  TRP800  GLU811  SER814 

> <Gold.Protein.RotatedAtoms>
  151.1162  135.0054  159.8516 H   0  0  0  0  0  0  0  0  0  0  0  0  # atno 6907 bound_to 6896
  152.5445  134.1777  159.8633 H   0  0  0  0  0  0  0  0  0  0  0  0  # atno 6908 bound_to 6896
  151.1831  133.4668  159.2627 H   0  0  0  0  0  0  0  0  0  0  0  0  # atno 6909 bound_to 6896
  146.2444  140.0795  142.8358 H   0  0  0  0  0  0  0  0  0  0  0  0  # atno 7974 bound_to 7965
  156.1909  140.3075  155.9330 H   0  0  0  0  0  0  0  0  0  0  0  0  # atno 8008 bound_to 7997
  155.3176  140.0454  157.3055 H   0  0  0  0  0  0  0  0  0  0  0  0  # atno 8009 bound_to 7997
  154.5451  140.2274  155.8586 H   0  0  0  0  0  0  0  0  0  0  0  0  # atno 8010 bound_to 7997
  139.5244  144.2826  152.0533 H   0  0  0  0  0  0  0  0  0  0  0  0  # atno 10167 bound_to 10162
  156.3975  130.7917  151.2124 H   0  0  0  0  0  0  0  0  0  0  0  0  # atno 10718 bound_to 10713
  153.2089  135.6866  153.8139 H   0  0  0  0  0  0  0  0  0  0  0  0  # atno 10763 bound_to 10752
  153.7379  135.3242  155.3299 H   0  0  0  0  0  0  0  0  0  0  0  0  # atno 10764 bound_to 10752
  154.8211  135.4651  154.0887 H   0  0  0  0  0  0  0  0  0  0  0  0  # atno 10765 bound_to 10752
  140.1893  134.4007  155.8156 H   0  0  0  0  0  0  0  0  0  0  0  0  # atno 11005 bound_to 11000
  145.0745  140.9179  143.4862 LP  0  0  0  0  0  0  0  0  0  0  0  0  # atno 17320 bound_to 7965
  145.0936  139.2873  143.5722 LP  0  0  0  0  0  0  0  0  0  0  0  0  # atno 17321 bound_to 7965
  140.2280  144.4397  150.6312 LP  0  0  0  0  0  0  0  0  0  0  0  0  # atno 17342 bound_to 10162
  140.6374  143.2197  151.6365 LP  0  0  0  0  0  0  0  0  0  0  0  0  # atno 17343 bound_to 10162
  157.7502  131.0297  150.4104 LP  0  0  0  0  0  0  0  0  0  0  0  0  # atno 17370 bound_to 10713
  156.4377  130.3985  149.6718 LP  0  0  0  0  0  0  0  0  0  0  0  0  # atno 17371 bound_to 10713
  141.2226  133.7038  156.8067 LP  0  0  0  0  0  0  0  0  0  0  0  0  # atno 17394 bound_to 11000
  140.2178  134.8779  157.3344 LP  0  0  0  0  0  0  0  0  0  0  0  0  # atno 17395 bound_to 11000

$$$$
