AV-unprocessed.smi:886|AV-procd|sdf|4049|dock1
  -GOLD-   22720 1533D 1   1.00000     0.00000
 Structure written by MMmdl.
 35 37  0  0  0  0  0  0  0  0  1 V2000
  154.9499  140.3169  161.2919 C   0  0  0  0  0  0  0  0  0  0  0  0
  154.0087  141.2847  160.7502 N   0  0  0  0  0  0  0  0  0  0  0  0
  153.3875  141.1524  159.5682 C   0  0  0  0  0  0  0  0  0  0  0  0
  153.5447  140.1807  158.8279 O   0  0  0  0  0  0  0  0  0  0  0  0
  152.4415  142.2700  159.2102 C   0  0  0  0  0  0  0  0  0  0  0  0
  152.4579  143.4652  159.9671 C   0  0  0  0  0  0  0  0  0  0  0  0
  151.5997  144.5225  159.6167 C   0  0  0  0  0  0  0  0  0  0  0  0
  150.7521  144.3507  158.5092 C   0  0  0  0  0  0  0  0  0  0  0  0
  150.7236  143.2223  157.7722 N   0  0  0  0  0  0  0  0  0  0  0  0
  151.5477  142.1976  158.1024 C   0  0  0  0  0  0  0  0  0  0  0  0
  151.4647  141.0331  157.3174 N   0  0  0  0  0  0  0  0  0  0  0  0
  150.2032  140.6285  156.7063 C   0  0  1  0  0  0  0  0  0  0  0  0
  149.6237  141.6943  155.7669 C   0  0  0  0  0  0  0  0  0  0  0  0
  149.4917  140.9199  154.4496 C   0  0  2  0  0  0  0  0  0  0  0  0
  148.3953  139.8480  154.5124 C   0  0  0  0  0  0  0  0  0  0  0  0
  149.0444  138.7898  155.4040 C   0  0  0  0  0  0  0  0  0  0  0  0
  150.3907  139.4442  155.7429 C   0  0  1  0  0  0  0  0  0  0  0  0
  150.6530  140.1121  154.5190 O   0  0  0  0  0  0  0  0  0  0  0  0
  155.3031  140.6478  162.2684 H   0  0  0  0  0  0  0  0  0  0  0  0
  155.8141  140.2067  160.6354 H   0  0  0  0  0  0  0  0  0  0  0  0
  154.4773  139.3413  161.4130 H   0  0  0  0  0  0  0  0  0  0  0  0
  153.8144  142.1039  161.3078 H   0  0  0  0  0  0  0  0  0  0  0  0
  153.1263  143.5825  160.8079 H   0  0  0  0  0  0  0  0  0  0  0  0
  151.5954  145.4439  160.1799 H   0  0  0  0  0  0  0  0  0  0  0  0
  150.0798  145.1395  158.2060 H   0  0  0  0  0  0  0  0  0  0  0  0
  152.3126  140.7094  156.8735 H   0  0  0  0  0  0  0  0  0  0  0  0
  149.4938  140.3548  157.4885 H   0  0  0  0  0  0  0  0  0  0  0  0
  148.6686  142.0865  156.1175 H   0  0  0  0  0  0  0  0  0  0  0  0
  150.3074  142.5351  155.6400 H   0  0  0  0  0  0  0  0  0  0  0  0
  149.4399  141.5565  153.5659 H   0  0  0  0  0  0  0  0  0  0  0  0
  147.4619  140.2346  154.9227 H   0  0  0  0  0  0  0  0  0  0  0  0
  148.1925  139.4404  153.5213 H   0  0  0  0  0  0  0  0  0  0  0  0
  148.4544  138.5630  156.2927 H   0  0  0  0  0  0  0  0  0  0  0  0
  149.1945  137.8633  154.8486 H   0  0  0  0  0  0  0  0  0  0  0  0
  151.1574  138.7302  156.0464 H   0  0  0  0  0  0  0  0  0  0  0  0
  1  2  1  0  0  0  0
  1 19  1  0  0  0  0
  1 20  1  0  0  0  0
  1 21  1  0  0  0  0
  2  3  1  0  0  0  0
  2 22  1  0  0  0  0
  3  4  2  0  0  0  0
  3  5  1  0  0  0  0
  5 10  1  0  0  0  0
  5  6  2  0  0  0  0
  6  7  1  0  0  0  0
  6 23  1  0  0  0  0
  7  8  2  0  0  0  0
  7 24  1  0  0  0  0
  8  9  1  0  0  0  0
  8 25  1  0  0  0  0
  9 10  2  0  0  0  0
 10 11  1  0  0  0  0
 11 12  1  0  0  0  0
 11 26  1  0  0  0  0
 12 17  1  0  0  0  0
 12 13  1  0  0  0  0
 12 27  1  0  0  0  0
 13 14  1  0  0  0  0
 13 28  1  0  0  0  0
 13 29  1  0  0  0  0
 14 18  1  0  0  0  0
 14 15  1  0  0  0  0
 14 30  1  0  0  0  0
 15 16  1  0  0  0  0
 15 31  1  0  0  0  0
 15 32  1  0  0  0  0
 16 17  1  0  0  0  0
 16 33  1  0  0  0  0
 16 34  1  0  0  0  0
 17 18  1  0  0  0  0
 17 35  1  0  0  0  0
M  END
> <s_m_source_file>
AV-unprocessed.smi

> <i_m_source_file_index>
886

> <i_lp_mmshare_version>
43012

> <i_f3d_flags>
0

> <s_epik_input>
W0NIM11bTkhdQyg9TyljMVtjSF1bY0hdW2NIXW5jMVtOSF1bQ0BIXShbQ0gyXVtDQEhdMjMpW0NASF0oTzMpW0NIMl1bQ0gyXTI=

> <s_epik_cmdline>
J2VwaWtfcHl0aG9uJywgJy1waCcsICc3LjAnLCAnLXRuJywgJzgnLCAnLW1hJywgJzIwMCcsICctbWV0YWxfYmluZGluZycsICctaW1hZScsICc8aW5maWxlLm1hZT4nLCAnLW9tYWUnLCAnPG91dGZpbGUubWFlPic=

> <r_lp_tautomer_probability>
1

> <r_epik_Ionization_Penalty>
0.0065447

> <r_epik_Ionization_Penalty_Charging>
0

> <r_epik_Ionization_Penalty_Neutral>
0.0065447

> <r_epik_State_Penalty>
0.00484214

> <r_epik_Charging_Adjusted_Penalty>
0.00484214

> <i_epik_Tot_Q>
0

> <i_epik_Tot_abs_Q>
0

> <r_epik_Metal_State_Penalty>
-0

> <b_epik_Metal_Only>
0

> <s_lp_Force_Field>
OPLS_2005

> <r_lp_Energy>
46.3803

> <b_lp_Chiralities_Consistent>
1

> <s_lp_Variant>
AV-unprocessed.smi:886-2

> <Gold.Version>
5.8.1

> <Gold.Id.Protein>
6NUR|6NUR_protein|mol2

> <Gold.PLP.Fitness>
41.0814

> <Gold.PLP.PLP>
-32.8056

> <Gold.PLP.part.hbond>
-2.0000

> <Gold.PLP.part.metal>
0.0000

> <Gold.PLP.part.buried>
-3.3532

> <Gold.PLP.part.nonpolar>
-28.5363

> <Gold.PLP.part.repulsive>
0.3434

> <Gold.PLP.ligand.clash>
0.0000

> <Gold.PLP.ligand.torsion>
0.2948

> <Gold.PLP.Chemscore.Hbond>
1.9440

> <Gold.PLP.Chemscore.CHOScore>
1.0031

> <Gold.PLP.Chemscore.Metal>
0.0000

> <Gold.Chemscore.Hbonds>
donor molecule, donor type, donor heavy atom, donor atom, acceptor molecule, acceptor atom, score
      P1  H  7989  7998       L1    18  1.00
      P1  H  7997  8010       L1     4  0.92
      L1  C     8    25       P1  8028  0.06
      L1  C     8    25       P1  8029  0.94

> <Gold.PLP.Chemscore.Internal.Correction>
0.0242

> <Gold.Rescore>
     Score         DG    S(hbond)    S(metal)    S(lipo)     H(rot)  DE(clash)    DE(int)     intcor
     16.72     -18.57       1.87        0.00      80.31       1.00       0.04       1.81       ----

> <Gold.Chemscore.Fitness>
16.7195

> <Gold.Chemscore.DG>
-18.5685

> <Gold.Chemscore.ZeroCoef>
-5.4800

> <Gold.Chemscore.Hbond>
1.8718

> <Gold.Chemscore.Metal>
0.0000

> <Gold.Chemscore.Lipo>
80.3133

> <Gold.Chemscore.Internal_Hbond>
0.0000

> <Gold.Chemscore.DEClash>
0.0383

> <Gold.Chemscore.DEInternal>
1.8107

> <Gold.Chemscore.Rot>
1.0000

> <Gold.Chemscore.Internal.Correction>
   9.000000E+99

> <Gold.Chemscore.Hbonds>
donor molecule, donor type, donor heavy atom, donor atom, acceptor molecule, acceptor atom, score
      P1  H  7989  7998       L1    18  0.30
      P1  H  7997  8010       L1     4  0.83

> <Gold.Chemscore.Hbond.Weighted>
-6.2518

> <Gold.Chemscore.Metal.Weighted>
-0.0000

> <Gold.Chemscore.Lipo.Weighted>
-9.3967

> <Gold.Chemscore.Internal_Hbond.Weighted>
0.0000

> <Gold.Chemscore.DEClash.Weighted>
0.0383

> <Gold.Chemscore.DEInternal.Weighted>
1.8107

> <Gold.Chemscore.Rot.Weighted>
2.5600

> <Gold.Chemscore.Internal.Correction.Weighted>
   9.000000E+99

> <Gold.Protein.RotatedTorsions>
[ 6907 6896 6895 6894 ] final -105.98 input  -60.11 | X-H torsion
[ 7974 7965 7964 7962 ] final  -58.27 input  175.53 | X-H torsion
[ 8008 7997 7996 7995 ] final   22.24 input   59.86 | X-H torsion
[ 10167 10162 10161 10158 ] final   79.28 input  -65.29 | X-H torsion
[ 10718 10713 10712 10709 ] final -139.29 input   66.30 | X-H torsion
[ 10763 10752 10751 10750 ] final -138.98 input  -60.55 | X-H torsion
[ 11005 11000 10999 10996 ] final   -0.62 input  -57.11 | X-H torsion

> <Gold.Protein.ActiveResidues>
 VAL166  LYS551  ARG553  GLY616  TRP617  ASP618  TYR619  PRO620  LYS621  CYS622 
 ASP623  PHE694  ASN695  SER759  ASP760  ASP761  ALA762  ILE779  LEU786  VAL792 
 PHE793  MET794  SER795  GLU796  ALA797  LYS798  CYS799  TRP800  GLU811  SER814 

> <Gold.Protein.RotatedAtoms>
  150.7365  134.0045  159.3648 H   0  0  0  0  0  0  0  0  0  0  0  0  # atno 6907 bound_to 6896
  151.8001  135.0709  160.0408 H   0  0  0  0  0  0  0  0  0  0  0  0  # atno 6908 bound_to 6896
  152.3147  133.5753  159.5740 H   0  0  0  0  0  0  0  0  0  0  0  0  # atno 6909 bound_to 6896
  145.8413  140.8415  143.0033 H   0  0  0  0  0  0  0  0  0  0  0  0  # atno 7974 bound_to 7965
  154.9627  140.3080  155.5023 H   0  0  0  0  0  0  0  0  0  0  0  0  # atno 8008 bound_to 7997
  156.2975  140.2298  156.4653 H   0  0  0  0  0  0  0  0  0  0  0  0  # atno 8009 bound_to 7997
  154.7950  140.0437  157.1218 H   0  0  0  0  0  0  0  0  0  0  0  0  # atno 8010 bound_to 7997
  139.9620  144.5954  150.8063 H   0  0  0  0  0  0  0  0  0  0  0  0  # atno 10167 bound_to 10162
  156.3091  130.7472  151.1543 H   0  0  0  0  0  0  0  0  0  0  0  0  # atno 10718 bound_to 10713
  154.8622  135.3596  154.5473 H   0  0  0  0  0  0  0  0  0  0  0  0  # atno 10763 bound_to 10752
  153.6092  135.7010  153.5358 H   0  0  0  0  0  0  0  0  0  0  0  0  # atno 10764 bound_to 10752
  153.3223  135.4147  155.1388 H   0  0  0  0  0  0  0  0  0  0  0  0  # atno 10765 bound_to 10752
  140.6383  133.9513  155.8312 H   0  0  0  0  0  0  0  0  0  0  0  0  # atno 11005 bound_to 11000
  144.6733  140.0816  143.7469 LP  0  0  0  0  0  0  0  0  0  0  0  0  # atno 17320 bound_to 7965
  145.9462  139.2702  143.1239 LP  0  0  0  0  0  0  0  0  0  0  0  0  # atno 17321 bound_to 7965
  140.7550  143.3038  151.3014 LP  0  0  0  0  0  0  0  0  0  0  0  0  # atno 17342 bound_to 10162
  139.6547  144.0299  152.2651 LP  0  0  0  0  0  0  0  0  0  0  0  0  # atno 17343 bound_to 10162
  157.7387  131.0538  150.5280 LP  0  0  0  0  0  0  0  0  0  0  0  0  # atno 17370 bound_to 10713
  156.5418  130.4210  149.6150 LP  0  0  0  0  0  0  0  0  0  0  0  0  # atno 17371 bound_to 10713
  141.0625  134.0325  157.3638 LP  0  0  0  0  0  0  0  0  0  0  0  0  # atno 17394 bound_to 11000
  139.9090  135.0186  156.7610 LP  0  0  0  0  0  0  0  0  0  0  0  0  # atno 17395 bound_to 11000

$$$$
