AV-unprocessed.smi:3173|AV-procd|sdf|12117|dock6
  -GOLD-   2272017553D 1   1.00000     0.00000
 Structure written by MMmdl.
 35 36  0  0  0  0  0  0  0  0  1 V2000
  150.1591  140.2056  154.4628 O   0  0  0  0  0  0  0  0  0  0  0  0
  149.4874  141.2052  154.7191 C   0  0  0  0  0  0  0  0  0  0  0  0
  148.1790  141.4728  153.9672 C   0  0  0  0  0  0  0  0  0  0  0  0
  147.3326  142.5967  154.6011 C   0  0  2  0  0  0  0  0  0  0  0  0
  146.7818  142.2094  155.9493 C   0  0  0  0  0  0  0  0  0  0  0  0
  145.4718  142.4234  156.0512 C   0  0  0  0  0  0  0  0  0  0  0  0
  144.8828  142.9945  154.7914 C   0  0  0  0  0  0  0  0  0  0  0  0
  146.0623  142.9787  153.7943 C   0  0  0  0  0  0  0  0  0  0  0  0
  149.8351  142.1058  155.6507 N   0  0  0  0  0  0  0  0  0  0  0  0
  151.0149  142.0147  156.5028 C   0  0  0  0  0  0  0  0  0  0  0  0
  150.7029  141.2753  157.8147 C   0  0  0  0  0  0  0  0  0  0  0  0
  151.7895  141.4653  158.8558 C   0  0  0  0  0  0  0  0  0  0  0  0
  152.0268  142.7347  159.4248 C   0  0  0  0  0  0  0  0  0  0  0  0
  153.0456  142.8580  160.3892 C   0  0  0  0  0  0  0  0  0  0  0  0
  153.7832  141.7130  160.7467 C   0  0  0  0  0  0  0  0  0  0  0  0
  153.4664  140.4901  160.1222 C   0  0  0  0  0  0  0  0  0  0  0  0
  152.4913  140.3607  159.1967 N   0  0  0  0  0  0  0  0  0  0  0  0
  148.3969  141.7190  152.9265 H   0  0  0  0  0  0  0  0  0  0  0  0
  147.6062  140.5449  153.9504 H   0  0  0  0  0  0  0  0  0  0  0  0
  147.9498  143.4827  154.7566 H   0  0  0  0  0  0  0  0  0  0  0  0
  147.4096  141.8195  156.7371 H   0  0  0  0  0  0  0  0  0  0  0  0
  144.8761  142.2336  156.9319 H   0  0  0  0  0  0  0  0  0  0  0  0
  144.0469  142.3871  154.4429 H   0  0  0  0  0  0  0  0  0  0  0  0
  144.5259  144.0078  154.9780 H   0  0  0  0  0  0  0  0  0  0  0  0
  146.1804  143.9408  153.2947 H   0  0  0  0  0  0  0  0  0  0  0  0
  145.8622  142.2393  153.0176 H   0  0  0  0  0  0  0  0  0  0  0  0
  149.2286  142.9002  155.7943 H   0  0  0  0  0  0  0  0  0  0  0  0
  151.8275  141.5191  155.9688 H   0  0  0  0  0  0  0  0  0  0  0  0
  151.3564  143.0277  156.7170 H   0  0  0  0  0  0  0  0  0  0  0  0
  149.7549  141.6266  158.2249 H   0  0  0  0  0  0  0  0  0  0  0  0
  150.5765  140.2084  157.6258 H   0  0  0  0  0  0  0  0  0  0  0  0
  151.4424  143.5943  159.1310 H   0  0  0  0  0  0  0  0  0  0  0  0
  153.2568  143.8135  160.8462 H   0  0  0  0  0  0  0  0  0  0  0  0
  154.5719  141.7704  161.4821 H   0  0  0  0  0  0  0  0  0  0  0  0
  154.0108  139.5916  160.3729 H   0  0  0  0  0  0  0  0  0  0  0  0
  1  2  2  0  0  0  0
  2  3  1  0  0  0  0
  2  9  1  0  0  0  0
  3  4  1  0  0  0  0
  3 18  1  0  0  0  0
  3 19  1  0  0  0  0
  4  8  1  0  0  0  0
  4  5  1  0  0  0  0
  4 20  1  0  0  0  0
  5  6  2  0  0  0  0
  5 21  1  0  0  0  0
  6  7  1  0  0  0  0
  6 22  1  0  0  0  0
  7  8  1  0  0  0  0
  7 23  1  0  0  0  0
  7 24  1  0  0  0  0
  8 25  1  0  0  0  0
  8 26  1  0  0  0  0
  9 10  1  0  0  0  0
  9 27  1  0  0  0  0
 10 11  1  0  0  0  0
 10 28  1  0  0  0  0
 10 29  1  0  0  0  0
 11 12  1  0  0  0  0
 11 30  1  0  0  0  0
 11 31  1  0  0  0  0
 12 17  1  0  0  0  0
 12 13  2  0  0  0  0
 13 14  1  0  0  0  0
 13 32  1  0  0  0  0
 14 15  2  0  0  0  0
 14 33  1  0  0  0  0
 15 16  1  0  0  0  0
 15 34  1  0  0  0  0
 16 17  2  0  0  0  0
 16 35  1  0  0  0  0
M  END
> <s_m_source_file>
AV-unprocessed.smi

> <i_m_source_file_index>
3173

> <i_lp_mmshare_version>
43012

> <i_f3d_flags>
0

> <s_epik_input>
W0NIMl0xW0NIMl1bQ0hdPVtDSF1bQ0BIXTFbQ0gyXUMoPU8pW05IXVtDSDJdW0NIMl1jMltjSF1bY0hdW2NIXVtjSF1uMg==

> <s_epik_cmdline>
J2VwaWtfcHl0aG9uJywgJy1waCcsICc3LjAnLCAnLXRuJywgJzgnLCAnLW1hJywgJzIwMCcsICctbWV0YWxfYmluZGluZycsICctaW1hZScsICc8aW5maWxlLm1hZT4nLCAnLW9tYWUnLCAnPG91dGZpbGUubWFlPic=

> <r_epik_Ionization_Penalty>
0.0258754

> <r_epik_Ionization_Penalty_Charging>
0

> <r_epik_Ionization_Penalty_Neutral>
0.0258754

> <r_epik_State_Penalty>
0.0210899

> <r_epik_Charging_Adjusted_Penalty>
0.0210899

> <i_epik_Tot_Q>
0

> <i_epik_Tot_abs_Q>
0

> <r_epik_Metal_State_Penalty>
0.0202045

> <b_epik_Metal_Only>
0

> <s_lp_Force_Field>
OPLS_2005

> <r_lp_Energy>
13.7226

> <b_lp_Chiralities_Consistent>
1

> <s_lp_Variant>
AV-unprocessed.smi:3173-1

> <Gold.Version>
5.8.1

> <Gold.Id.Protein>
6NUR|6NUR_protein|mol2

> <Gold.PLP.Fitness>
44.7473

> <Gold.PLP.PLP>
-39.5898

> <Gold.PLP.part.hbond>
-2.0000

> <Gold.PLP.part.metal>
0.0000

> <Gold.PLP.part.buried>
-2.7002

> <Gold.PLP.part.nonpolar>
-34.1372

> <Gold.PLP.part.repulsive>
0.2581

> <Gold.PLP.ligand.clash>
0.0000

> <Gold.PLP.ligand.torsion>
0.4208

> <Gold.PLP.Chemscore.Hbond>
1.9920

> <Gold.PLP.Chemscore.CHOScore>
0.0000

> <Gold.PLP.Chemscore.Metal>
0.0000

> <Gold.Chemscore.Hbonds>
donor molecule, donor type, donor heavy atom, donor atom, acceptor molecule, acceptor atom, score
      L1  H     9    27       P1  8028  1.00
      P1  H  7989  7998       L1     1  1.00

> <Gold.PLP.Chemscore.Internal.Correction>
0.0230

> <Gold.Rescore>
     Score         DG    S(hbond)    S(metal)    S(lipo)     H(rot)  DE(clash)    DE(int)     intcor
     17.24     -17.88       1.61        0.00      93.00       1.50       0.07       0.58       ----

> <Gold.Chemscore.Fitness>
17.2371

> <Gold.Chemscore.DG>
-17.8848

> <Gold.Chemscore.ZeroCoef>
-5.4800

> <Gold.Chemscore.Hbond>
1.6087

> <Gold.Chemscore.Metal>
0.0000

> <Gold.Chemscore.Lipo>
93.0009

> <Gold.Chemscore.Internal_Hbond>
0.0000

> <Gold.Chemscore.DEClash>
0.0727

> <Gold.Chemscore.DEInternal>
0.5750

> <Gold.Chemscore.Rot>
1.5037

> <Gold.Chemscore.Internal.Correction>
   9.000000E+99

> <Gold.Chemscore.Hbonds>
donor molecule, donor type, donor heavy atom, donor atom, acceptor molecule, acceptor atom, score
      L1  H     9    27       P1  8028  0.95
      P1  H  7989  7998       L1     1  0.43

> <Gold.Chemscore.Hbond.Weighted>
-5.3731

> <Gold.Chemscore.Metal.Weighted>
-0.0000

> <Gold.Chemscore.Lipo.Weighted>
-10.8811

> <Gold.Chemscore.Internal_Hbond.Weighted>
0.0000

> <Gold.Chemscore.DEClash.Weighted>
0.0727

> <Gold.Chemscore.DEInternal.Weighted>
0.5750

> <Gold.Chemscore.Rot.Weighted>
3.8494

> <Gold.Chemscore.Internal.Correction.Weighted>
   9.000000E+99

> <Gold.Protein.RotatedTorsions>
[ 6907 6896 6895 6894 ] final -150.13 input  -60.11 | X-H torsion
[ 7974 7965 7964 7962 ] final   66.78 input  175.53 | X-H torsion
[ 8008 7997 7996 7995 ] final  -27.33 input   59.86 | X-H torsion
[ 10167 10162 10161 10158 ] final  108.20 input  -65.29 | X-H torsion
[ 10718 10713 10712 10709 ] final -167.91 input   66.30 | X-H torsion
[ 10763 10752 10751 10750 ] final  -71.91 input  -60.55 | X-H torsion
[ 11005 11000 10999 10996 ] final -107.13 input  -57.11 | X-H torsion

> <Gold.Protein.ActiveResidues>
 VAL166  LYS551  ARG553  GLY616  TRP617  ASP618  TYR619  PRO620  LYS621  CYS622 
 ASP623  PHE694  ASN695  SER759  ASP760  ASP761  ALA762  ILE779  LEU786  VAL792 
 PHE793  MET794  SER795  GLU796  ALA797  LYS798  CYS799  TRP800  GLU811  SER814 

> <Gold.Protein.RotatedAtoms>
  151.1941  133.4649  159.2595 H   0  0  0  0  0  0  0  0  0  0  0  0  # atno 6907 bound_to 6896
  151.1134  135.0039  159.8515 H   0  0  0  0  0  0  0  0  0  0  0  0  # atno 6908 bound_to 6896
  152.5452  134.1858  159.8707 H   0  0  0  0  0  0  0  0  0  0  0  0  # atno 6909 bound_to 6896
  145.8225  139.3093  143.1035 H   0  0  0  0  0  0  0  0  0  0  0  0  # atno 7974 bound_to 7965
  154.4382  140.1875  156.0915 H   0  0  0  0  0  0  0  0  0  0  0  0  # atno 8008 bound_to 7997
  156.0362  140.3325  155.7167 H   0  0  0  0  0  0  0  0  0  0  0  0  # atno 8009 bound_to 7997
  155.5767  140.0618  157.2784 H   0  0  0  0  0  0  0  0  0  0  0  0  # atno 8010 bound_to 7997
  139.6865  144.7113  151.1422 H   0  0  0  0  0  0  0  0  0  0  0  0  # atno 10167 bound_to 10162
  156.6892  130.9152  151.3067 H   0  0  0  0  0  0  0  0  0  0  0  0  # atno 10718 bound_to 10713
  154.4383  135.5947  153.6113 H   0  0  0  0  0  0  0  0  0  0  0  0  # atno 10763 bound_to 10752
  152.9803  135.5992  154.3753 H   0  0  0  0  0  0  0  0  0  0  0  0  # atno 10764 bound_to 10752
  154.3600  135.2841  155.2304 H   0  0  0  0  0  0  0  0  0  0  0  0  # atno 10765 bound_to 10752
  141.0969  133.8954  157.1939 H   0  0  0  0  0  0  0  0  0  0  0  0  # atno 11005 bound_to 11000
  145.9659  140.8798  143.0187 LP  0  0  0  0  0  0  0  0  0  0  0  0  # atno 17320 bound_to 7965
  144.6746  140.1878  143.7399 LP  0  0  0  0  0  0  0  0  0  0  0  0  # atno 17321 bound_to 7965
  140.7669  143.5621  150.9087 LP  0  0  0  0  0  0  0  0  0  0  0  0  # atno 17342 bound_to 10162
  139.9296  143.6509  152.3079 LP  0  0  0  0  0  0  0  0  0  0  0  0  # atno 17343 bound_to 10162
  157.7015  130.9338  150.0800 LP  0  0  0  0  0  0  0  0  0  0  0  0  # atno 17370 bound_to 10713
  156.1810  130.3650  149.9036 LP  0  0  0  0  0  0  0  0  0  0  0  0  # atno 17371 bound_to 10713
  139.9809  135.0098  156.9746 LP  0  0  0  0  0  0  0  0  0  0  0  0  # atno 17394 bound_to 11000
  140.5117  134.0995  155.7272 LP  0  0  0  0  0  0  0  0  0  0  0  0  # atno 17395 bound_to 11000

$$$$
