AV-unprocessed.smi:2908|AV-procd|sdf|11168|dock2
  -GOLD-   2272016 53D 1   1.00000     0.00000
 Structure written by MMmdl.
 43 44  0  0  0  0  0  0  0  0  1 V2000
  153.8117  139.4621  157.1216 O   0  0  0  0  0  0  0  0  0  0  0  0
  152.7379  139.4045  157.7224 C   0  0  0  0  0  0  0  0  0  0  0  0
  152.5896  139.8811  158.9682 N   0  0  0  0  0  0  0  0  0  0  0  0
  153.5848  140.6498  159.7061 C   0  0  0  0  0  0  0  0  0  0  0  0
  152.9304  141.5193  160.7956 C   0  0  0  0  0  0  0  0  0  0  0  0
  152.2019  142.7351  160.2438 C   0  0  0  0  0  0  0  0  0  0  0  0
  151.6579  143.7015  161.1158 C   0  0  0  0  0  0  0  0  0  0  0  0
  151.0258  144.8295  160.5576 C   0  0  0  0  0  0  0  0  0  0  0  0
  150.9616  144.9471  159.1558 C   0  0  0  0  0  0  0  0  0  0  0  0
  151.5332  143.9263  158.3711 C   0  0  0  0  0  0  0  0  0  0  0  0
  152.1450  142.8430  158.8962 N   0  0  0  0  0  0  0  0  0  0  0  0
  151.6119  138.8674  157.1881 N   0  0  0  0  0  0  0  0  0  0  0  0
  150.2427  139.0406  157.6988 C   0  0  0  0  0  0  0  0  0  0  0  0
  149.5454  140.1175  156.8500 C   0  0  0  0  0  0  0  0  0  0  0  0
  149.5440  139.7431  155.3468 C   0  0  0  0  0  0  0  0  0  0  0  0
  148.8915  140.8591  154.4894 C   0  0  1  0  0  0  0  0  0  0  0  0
  149.4726  140.8877  153.1989 O   0  0  0  0  0  0  0  0  0  0  0  0
  147.3541  140.7848  154.3581 C   0  0  0  0  0  0  0  0  0  0  0  0
  146.8074  140.6961  155.5709 F   0  0  0  0  0  0  0  0  0  0  0  0
  146.8511  141.8491  153.7329 F   0  0  0  0  0  0  0  0  0  0  0  0
  147.0150  139.6897  153.6778 F   0  0  0  0  0  0  0  0  0  0  0  0
  150.9592  139.3147  154.8768 C   0  0  0  0  0  0  0  0  0  0  0  0
  151.5934  138.2924  155.8395 C   0  0  0  0  0  0  0  0  0  0  0  0
  151.6824  139.7842  159.4010 H   0  0  0  0  0  0  0  0  0  0  0  0
  154.3150  139.9716  160.1482 H   0  0  0  0  0  0  0  0  0  0  0  0
  154.1295  141.2995  159.0187 H   0  0  0  0  0  0  0  0  0  0  0  0
  152.2238  140.9151  161.3669 H   0  0  0  0  0  0  0  0  0  0  0  0
  153.6877  141.8492  161.5076 H   0  0  0  0  0  0  0  0  0  0  0  0
  151.7309  143.5863  162.1874 H   0  0  0  0  0  0  0  0  0  0  0  0
  150.6005  145.5921  161.1929 H   0  0  0  0  0  0  0  0  0  0  0  0
  150.4857  145.7985  158.6926 H   0  0  0  0  0  0  0  0  0  0  0  0
  151.5042  143.9837  157.2932 H   0  0  0  0  0  0  0  0  0  0  0  0
  149.7030  138.0959  157.6183 H   0  0  0  0  0  0  0  0  0  0  0  0
  150.1953  139.3061  158.7549 H   0  0  0  0  0  0  0  0  0  0  0  0
  148.5232  140.2578  157.2027 H   0  0  0  0  0  0  0  0  0  0  0  0
  150.0557  141.0701  156.9984 H   0  0  0  0  0  0  0  0  0  0  0  0
  148.9085  138.8609  155.2588 H   0  0  0  0  0  0  0  0  0  0  0  0
  149.1268  141.8151  154.9596 H   0  0  0  0  0  0  0  0  0  0  0  0
  149.2104  140.1076  152.7348 H   0  0  0  0  0  0  0  0  0  0  0  0
  150.9144  138.8735  153.8819 H   0  0  0  0  0  0  0  0  0  0  0  0
  151.6110  140.1861  154.8017 H   0  0  0  0  0  0  0  0  0  0  0  0
  152.5884  138.0135  155.4898 H   0  0  0  0  0  0  0  0  0  0  0  0
  151.0134  137.3685  155.8427 H   0  0  0  0  0  0  0  0  0  0  0  0
  1  2  2  0  0  0  0
  2  3  1  0  0  0  0
  2 12  1  0  0  0  0
  3  4  1  0  0  0  0
  3 24  1  0  0  0  0
  4  5  1  0  0  0  0
  4 25  1  0  0  0  0
  4 26  1  0  0  0  0
  5  6  1  0  0  0  0
  5 27  1  0  0  0  0
  5 28  1  0  0  0  0
  6 11  1  0  0  0  0
  6  7  2  0  0  0  0
  7  8  1  0  0  0  0
  7 29  1  0  0  0  0
  8  9  2  0  0  0  0
  8 30  1  0  0  0  0
  9 10  1  0  0  0  0
  9 31  1  0  0  0  0
 10 11  2  0  0  0  0
 10 32  1  0  0  0  0
 12 23  1  0  0  0  0
 12 13  1  0  0  0  0
 13 14  1  0  0  0  0
 13 33  1  0  0  0  0
 13 34  1  0  0  0  0
 14 15  1  0  0  0  0
 14 35  1  0  0  0  0
 14 36  1  0  0  0  0
 15 16  1  0  0  0  0
 15 22  1  0  0  0  0
 15 37  1  0  0  0  0
 16 17  1  0  0  0  0
 16 18  1  0  0  0  0
 16 38  1  0  0  0  0
 17 39  1  0  0  0  0
 18 19  1  0  0  0  0
 18 20  1  0  0  0  0
 18 21  1  0  0  0  0
 22 23  1  0  0  0  0
 22 40  1  0  0  0  0
 22 41  1  0  0  0  0
 23 42  1  0  0  0  0
 23 43  1  0  0  0  0
M  END
> <s_m_source_file>
AV-unprocessed.smi

> <i_m_source_file_index>
2908

> <i_lp_mmshare_version>
43012

> <i_f3d_flags>
0

> <s_epik_input>
RkMoRikoRilbQ0BASF0oW09IXSlbQ0hdKFtDSDJdW0NIMl0xKVtDSDJdW0NIMl1OMUMoPU8pW05IXVtDSDJdW0NIMl1jMltjSF1bY0hdW2NIXVtjSF1uMg==

> <s_epik_cmdline>
J2VwaWtfcHl0aG9uJywgJy1waCcsICc3LjAnLCAnLXRuJywgJzgnLCAnLW1hJywgJzIwMCcsICctbWV0YWxfYmluZGluZycsICctaW1hZScsICc8aW5maWxlLm1hZT4nLCAnLW9tYWUnLCAnPG91dGZpbGUubWFlPic=

> <r_epik_Ionization_Penalty>
0.0451198

> <r_epik_Ionization_Penalty_Charging>
0

> <r_epik_Ionization_Penalty_Neutral>
0.0451198

> <r_epik_State_Penalty>
0.0381178

> <r_epik_Charging_Adjusted_Penalty>
0.0381178

> <i_epik_Tot_Q>
0

> <i_epik_Tot_abs_Q>
0

> <r_epik_Metal_State_Penalty>
0.0354176

> <b_epik_Metal_Only>
0

> <s_lp_Force_Field>
OPLS_2005

> <r_lp_Energy>
37.4058

> <b_lp_Chiralities_Consistent>
1

> <s_lp_Variant>
AV-unprocessed.smi:2908-2

> <Gold.Version>
5.8.1

> <Gold.Id.Protein>
6NUR|6NUR_protein|mol2

> <Gold.PLP.Fitness>
56.3584

> <Gold.PLP.PLP>
-51.6764

> <Gold.PLP.part.hbond>
-3.5695

> <Gold.PLP.part.metal>
0.0000

> <Gold.PLP.part.buried>
-8.2429

> <Gold.PLP.part.nonpolar>
-40.0534

> <Gold.PLP.part.repulsive>
0.1304

> <Gold.PLP.ligand.clash>
0.4164

> <Gold.PLP.ligand.torsion>
1.1517

> <Gold.PLP.Chemscore.Hbond>
2.3445

> <Gold.PLP.Chemscore.CHOScore>
0.0000

> <Gold.PLP.Chemscore.Metal>
0.0000

> <Gold.Chemscore.Hbonds>
donor molecule, donor type, donor heavy atom, donor atom, acceptor molecule, acceptor atom, score
      L1  H    17    39       P1  7957  0.32
      P1  H  7989  7998       L1    17  0.14
      P1  H  8011  8017       L1    17  1.00

> <Gold.PLP.Chemscore.Internal.Correction>
0.3683

> <Gold.Rescore>
     Score         DG    S(hbond)    S(metal)    S(lipo)     H(rot)  DE(clash)    DE(int)     intcor
     18.09     -21.07       2.26        0.00     119.00       2.30       0.67       2.30       ----

> <Gold.Chemscore.Fitness>
18.0893

> <Gold.Chemscore.DG>
-21.0663

> <Gold.Chemscore.ZeroCoef>
-5.4800

> <Gold.Chemscore.Hbond>
2.2647

> <Gold.Chemscore.Metal>
0.0000

> <Gold.Chemscore.Lipo>
118.9959

> <Gold.Chemscore.Internal_Hbond>
0.0000

> <Gold.Chemscore.DEClash>
0.6739

> <Gold.Chemscore.DEInternal>
2.3031

> <Gold.Chemscore.Rot>
2.3048

> <Gold.Chemscore.Internal.Correction>
   9.000000E+99

> <Gold.Chemscore.Hbonds>
donor molecule, donor type, donor heavy atom, donor atom, acceptor molecule, acceptor atom, score
      L1  H    17    39       P1  7957  0.32
      P1  H  7989  7998       L1    17  0.07
      P1  H  8011  8017       L1    17  0.98

> <Gold.Chemscore.Hbond.Weighted>
-7.5642

> <Gold.Chemscore.Metal.Weighted>
-0.0000

> <Gold.Chemscore.Lipo.Weighted>
-13.9225

> <Gold.Chemscore.Internal_Hbond.Weighted>
0.0000

> <Gold.Chemscore.DEClash.Weighted>
0.6739

> <Gold.Chemscore.DEInternal.Weighted>
2.3031

> <Gold.Chemscore.Rot.Weighted>
5.9004

> <Gold.Chemscore.Internal.Correction.Weighted>
   9.000000E+99

> <Gold.Protein.RotatedTorsions>
[ 6907 6896 6895 6894 ] final   48.87 input  -60.11 | X-H torsion
[ 7974 7965 7964 7962 ] final -140.18 input  175.53 | X-H torsion
[ 8008 7997 7996 7995 ] final  176.82 input   59.86 | X-H torsion
[ 10167 10162 10161 10158 ] final  -76.31 input  -65.29 | X-H torsion
[ 10718 10713 10712 10709 ] final -157.84 input   66.30 | X-H torsion
[ 10763 10752 10751 10750 ] final -143.77 input  -60.55 | X-H torsion
[ 11005 11000 10999 10996 ] final  -90.76 input  -57.11 | X-H torsion

> <Gold.Protein.ActiveResidues>
 VAL166  LYS551  ARG553  GLY616  TRP617  ASP618  TYR619  PRO620  LYS621  CYS622 
 ASP623  PHE694  ASN695  SER759  ASP760  ASP761  ALA762  ILE779  LEU786  VAL792 
 PHE793  MET794  SER795  GLU796  ALA797  LYS798  CYS799  TRP800  GLU811  SER814 

> <Gold.Protein.RotatedAtoms>
  152.2844  134.7792  160.0390 H   0  0  0  0  0  0  0  0  0  0  0  0  # atno 6907 bound_to 6896
  151.8360  133.3411  159.3636 H   0  0  0  0  0  0  0  0  0  0  0  0  # atno 6908 bound_to 6896
  150.7203  134.5365  159.5770 H   0  0  0  0  0  0  0  0  0  0  0  0  # atno 6909 bound_to 6896
  144.8618  140.6231  143.5323 H   0  0  0  0  0  0  0  0  0  0  0  0  # atno 7974 bound_to 7965
  156.0723  140.1374  156.9813 H   0  0  0  0  0  0  0  0  0  0  0  0  # atno 8008 bound_to 7997
  154.4539  140.0969  156.6750 H   0  0  0  0  0  0  0  0  0  0  0  0  # atno 8009 bound_to 7997
  155.5208  140.3456  155.4408 H   0  0  0  0  0  0  0  0  0  0  0  0  # atno 8010 bound_to 7997
  140.4868  143.2389  151.7971 H   0  0  0  0  0  0  0  0  0  0  0  0  # atno 10167 bound_to 10162
  156.5458  130.8583  151.2764 H   0  0  0  0  0  0  0  0  0  0  0  0  # atno 10718 bound_to 10713
  154.8456  135.3458  154.6241 H   0  0  0  0  0  0  0  0  0  0  0  0  # atno 10763 bound_to 10752
  153.6850  135.6978  153.5111 H   0  0  0  0  0  0  0  0  0  0  0  0  # atno 10764 bound_to 10752
  153.2639  135.4314  155.0877 H   0  0  0  0  0  0  0  0  0  0  0  0  # atno 10765 bound_to 10752
  141.1559  133.7713  156.9784 H   0  0  0  0  0  0  0  0  0  0  0  0  # atno 11005 bound_to 11000
  145.4298  139.1551  143.4028 LP  0  0  0  0  0  0  0  0  0  0  0  0  # atno 17320 bound_to 7965
  146.2866  140.4414  142.8755 LP  0  0  0  0  0  0  0  0  0  0  0  0  # atno 17321 bound_to 7965
  139.4843  144.4702  151.9435 LP  0  0  0  0  0  0  0  0  0  0  0  0  # atno 17342 bound_to 10162
  140.3788  144.2763  150.5911 LP  0  0  0  0  0  0  0  0  0  0  0  0  # atno 17343 bound_to 10162
  157.7397  130.9836  150.2329 LP  0  0  0  0  0  0  0  0  0  0  0  0  # atno 17370 bound_to 10713
  156.2929  130.3748  149.7824 LP  0  0  0  0  0  0  0  0  0  0  0  0  # atno 17371 bound_to 10713
  140.1082  134.9493  157.2026 LP  0  0  0  0  0  0  0  0  0  0  0  0  # atno 17394 bound_to 11000
  140.3228  134.2897  155.7243 LP  0  0  0  0  0  0  0  0  0  0  0  0  # atno 17395 bound_to 11000

$$$$
