AV-unprocessed.smi:910|AV-procd|sdf|4122|dock10
  -GOLD-   22720 2 23D 1   1.00000     0.00000
 Structure written by MMmdl.
 46 47  0  0  0  0  0  0  0  0  1 V2000
  149.5708  134.1192  154.4501 C   0  0  0  0  0  0  0  0  0  0  0  0
  150.1761  135.4453  154.8548 C   0  0  0  0  0  0  0  0  0  0  0  0
  149.9268  136.5982  154.1606 N   0  0  0  0  0  0  0  0  0  0  0  0
  150.6267  137.6288  154.7683 C   0  0  0  0  0  0  0  0  0  0  0  0
  150.6560  138.8798  154.4280 N   0  0  0  0  0  0  0  0  0  0  0  0
  151.4408  139.7419  155.1753 C   0  0  0  0  0  0  0  0  0  0  0  0
  152.6743  139.7959  155.2114 O   0  0  0  0  0  0  0  0  0  0  0  0
  150.6724  140.5230  155.9495 N   0  0  0  0  0  0  0  0  0  0  0  0
  151.1597  141.4824  156.9355 C   0  0  0  0  0  0  0  0  0  0  0  0
  151.5925  140.7773  158.2284 C   0  0  0  0  0  0  0  0  0  0  0  0
  151.7134  141.7381  159.2659 O   0  0  0  0  0  0  0  0  0  0  0  0
  152.9590  142.4238  159.2985 C   0  0  2  0  0  0  0  0  0  0  0  0
  153.7010  141.9830  160.5741 C   0  0  0  0  0  0  0  0  0  0  0  0
  152.9801  142.4502  161.8501 C   0  0  0  0  0  0  0  0  0  0  0  0
  152.7547  143.9692  161.8383 C   0  0  0  0  0  0  0  0  0  0  0  0
  151.9977  144.4063  160.5756 C   0  0  0  0  0  0  0  0  0  0  0  0
  152.7207  143.9531  159.2926 C   0  0  2  0  0  0  0  0  0  0  0  0
  151.9868  144.4373  158.0327 C   0  0  0  0  0  0  0  0  0  0  0  0
  151.2928  137.0701  155.8350 O   0  0  0  0  0  0  0  0  0  0  0  0
  150.9976  135.7414  155.8591 C   0  0  0  0  0  0  0  0  0  0  0  0
  151.6159  134.8794  156.9368 C   0  0  0  0  0  0  0  0  0  0  0  0
  150.3576  133.3944  154.2406 H   0  0  0  0  0  0  0  0  0  0  0  0
  148.9549  134.2264  153.5570 H   0  0  0  0  0  0  0  0  0  0  0  0
  148.9467  133.7287  155.2538 H   0  0  0  0  0  0  0  0  0  0  0  0
  149.3307  136.6423  153.3473 H   0  0  0  0  0  0  0  0  0  0  0  0
  149.6710  140.4172  155.8755 H   0  0  0  0  0  0  0  0  0  0  0  0
  151.9742  142.0863  156.5322 H   0  0  0  0  0  0  0  0  0  0  0  0
  150.3441  142.1715  157.1546 H   0  0  0  0  0  0  0  0  0  0  0  0
  150.8487  140.0333  158.5159 H   0  0  0  0  0  0  0  0  0  0  0  0
  152.5342  140.2505  158.0683 H   0  0  0  0  0  0  0  0  0  0  0  0
  153.5751  142.1501  158.4395 H   0  0  0  0  0  0  0  0  0  0  0  0
  153.8103  140.8982  160.5851 H   0  0  0  0  0  0  0  0  0  0  0  0
  154.7117  142.3926  160.5627 H   0  0  0  0  0  0  0  0  0  0  0  0
  152.0196  141.9404  161.9375 H   0  0  0  0  0  0  0  0  0  0  0  0
  153.5598  142.1674  162.7291 H   0  0  0  0  0  0  0  0  0  0  0  0
  152.1982  144.2694  162.7268 H   0  0  0  0  0  0  0  0  0  0  0  0
  153.7156  144.4829  161.8861 H   0  0  0  0  0  0  0  0  0  0  0  0
  150.9916  143.9881  160.5972 H   0  0  0  0  0  0  0  0  0  0  0  0
  151.8819  145.4905  160.5756 H   0  0  0  0  0  0  0  0  0  0  0  0
  153.7015  144.4311  159.2867 H   0  0  0  0  0  0  0  0  0  0  0  0
  150.9714  144.0437  157.9857 H   0  0  0  0  0  0  0  0  0  0  0  0
  152.5103  144.1267  157.1284 H   0  0  0  0  0  0  0  0  0  0  0  0
  151.9170  145.5251  158.0153 H   0  0  0  0  0  0  0  0  0  0  0  0
  151.0224  133.9796  157.0989 H   0  0  0  0  0  0  0  0  0  0  0  0
  151.6743  135.4275  157.8765 H   0  0  0  0  0  0  0  0  0  0  0  0
  152.6240  134.5827  156.6475 H   0  0  0  0  0  0  0  0  0  0  0  0
  1 22  1  0  0  0  0
  1 23  1  0  0  0  0
  1 24  1  0  0  0  0
  1  2  1  0  0  0  0
  2  3  1  0  0  0  0
  2 20  2  0  0  0  0
  3 25  1  0  0  0  0
  3  4  1  0  0  0  0
  4 19  1  0  0  0  0
  4  5  2  0  0  0  0
  5  6  1  0  0  0  0
  6  8  1  0  0  0  0
  6  7  2  0  0  0  0
  8  9  1  0  0  0  0
  8 26  1  0  0  0  0
  9 10  1  0  0  0  0
  9 27  1  0  0  0  0
  9 28  1  0  0  0  0
 10 11  1  0  0  0  0
 10 29  1  0  0  0  0
 10 30  1  0  0  0  0
 11 12  1  0  0  0  0
 12 17  1  0  0  0  0
 12 13  1  0  0  0  0
 12 31  1  0  0  0  0
 13 14  1  0  0  0  0
 13 32  1  0  0  0  0
 13 33  1  0  0  0  0
 14 15  1  0  0  0  0
 14 34  1  0  0  0  0
 14 35  1  0  0  0  0
 15 16  1  0  0  0  0
 15 36  1  0  0  0  0
 15 37  1  0  0  0  0
 16 17  1  0  0  0  0
 16 38  1  0  0  0  0
 16 39  1  0  0  0  0
 17 18  1  0  0  0  0
 17 40  1  0  0  0  0
 18 41  1  0  0  0  0
 18 42  1  0  0  0  0
 18 43  1  0  0  0  0
 19 20  1  0  0  0  0
 20 21  1  0  0  0  0
 21 44  1  0  0  0  0
 21 45  1  0  0  0  0
 21 46  1  0  0  0  0
M  END
> <s_m_source_file>
AV-unprocessed.smi

> <i_m_source_file_index>
910

> <i_lp_mmshare_version>
43012

> <i_f3d_flags>
0

> <s_epik_input>
W0NIM11jMW5jKG9jMVtDSDNdKVtOSF1DKD1PKVtOSF1bQ0gyXVtDSDJdT1tDQEBIXTJbQ0gyXVtDSDJdW0NIMl1bQ0gyXVtDQEhdMltDSDNd

> <s_epik_cmdline>
J2VwaWtfcHl0aG9uJywgJy1waCcsICc3LjAnLCAnLXRuJywgJzgnLCAnLW1hJywgJzIwMCcsICctbWV0YWxfYmluZGluZycsICctaW1hZScsICc8aW5maWxlLm1hZT4nLCAnLW9tYWUnLCAnPG91dGZpbGUubWFlPic=

> <r_lp_tautomer_probability>
0.107061

> <r_epik_Ionization_Penalty>
0.727192

> <r_epik_Ionization_Penalty_Charging>
0.726719

> <r_epik_Ionization_Penalty_Neutral>
0.000473387

> <r_epik_State_Penalty>
2.53712

> <r_epik_Charging_Adjusted_Penalty>
3.26383

> <i_epik_Tot_Q>
0

> <i_epik_Tot_abs_Q>
0

> <r_epik_Metal_State_Penalty>
3.71015

> <b_epik_Metal_Only>
0

> <s_lp_Force_Field>
OPLS_2005

> <r_lp_Energy>
29.3715

> <b_lp_Chiralities_Consistent>
1

> <s_lp_Variant>
AV-unprocessed.smi:910-7

> <Gold.Version>
5.8.1

> <Gold.Id.Protein>
6NUR|6NUR_protein|mol2

> <Gold.PLP.Fitness>
49.4260

> <Gold.PLP.PLP>
-46.7992

> <Gold.PLP.part.hbond>
-3.7850

> <Gold.PLP.part.metal>
0.0000

> <Gold.PLP.part.buried>
-1.1292

> <Gold.PLP.part.nonpolar>
-41.5885

> <Gold.PLP.part.repulsive>
0.3485

> <Gold.PLP.ligand.clash>
0.0000

> <Gold.PLP.ligand.torsion>
1.7154

> <Gold.PLP.Chemscore.Hbond>
2.0000

> <Gold.PLP.Chemscore.CHOScore>
0.0000

> <Gold.PLP.Chemscore.Metal>
0.0000

> <Gold.Chemscore.Hbonds>
donor molecule, donor type, donor heavy atom, donor atom, acceptor molecule, acceptor atom, score
      L1  H     3    25       P1  7948  1.00
      P1  H  7997  8010       L1     7  1.00

> <Gold.PLP.Chemscore.Internal.Correction>
0.0575

> <Gold.Rescore>
     Score         DG    S(hbond)    S(metal)    S(lipo)     H(rot)  DE(clash)    DE(int)     intcor
     18.18     -21.11       1.93        0.00     114.71       1.66       1.29       1.64       ----

> <Gold.Chemscore.Fitness>
18.1758

> <Gold.Chemscore.DG>
-21.1071

> <Gold.Chemscore.ZeroCoef>
-5.4800

> <Gold.Chemscore.Hbond>
1.9309

> <Gold.Chemscore.Metal>
0.0000

> <Gold.Chemscore.Lipo>
114.7138

> <Gold.Chemscore.Internal_Hbond>
0.0000

> <Gold.Chemscore.DEClash>
1.2870

> <Gold.Chemscore.DEInternal>
1.6444

> <Gold.Chemscore.Rot>
1.6576

> <Gold.Chemscore.Internal.Correction>
   9.000000E+99

> <Gold.Chemscore.Hbonds>
donor molecule, donor type, donor heavy atom, donor atom, acceptor molecule, acceptor atom, score
      L1  H     3    25       P1  7948  0.82
      P1  H  7997  8010       L1     7  0.99

> <Gold.Chemscore.Hbond.Weighted>
-6.4492

> <Gold.Chemscore.Metal.Weighted>
-0.0000

> <Gold.Chemscore.Lipo.Weighted>
-13.4215

> <Gold.Chemscore.Internal_Hbond.Weighted>
0.0000

> <Gold.Chemscore.DEClash.Weighted>
1.2870

> <Gold.Chemscore.DEInternal.Weighted>
1.6444

> <Gold.Chemscore.Rot.Weighted>
4.2436

> <Gold.Chemscore.Internal.Correction.Weighted>
   9.000000E+99

> <Gold.Protein.RotatedTorsions>
[ 6907 6896 6895 6894 ] final  -55.62 input  -60.11 | X-H torsion
[ 7974 7965 7964 7962 ] final  151.79 input  175.53 | X-H torsion
[ 8008 7997 7996 7995 ] final  101.13 input   59.86 | X-H torsion
[ 10167 10162 10161 10158 ] final  -96.93 input  -65.29 | X-H torsion
[ 10718 10713 10712 10709 ] final  124.39 input   66.30 | X-H torsion
[ 10763 10752 10751 10750 ] final  -72.42 input  -60.55 | X-H torsion
[ 11005 11000 10999 10996 ] final  165.15 input  -57.11 | X-H torsion

> <Gold.Protein.ActiveResidues>
 VAL166  LYS551  ARG553  GLY616  TRP617  ASP618  TYR619  PRO620  LYS621  CYS622 
 ASP623  PHE694  ASN695  SER759  ASP760  ASP761  ALA762  ILE779  LEU786  VAL792 
 PHE793  MET794  SER795  GLU796  ALA797  LYS798  CYS799  TRP800  GLU811  SER814 

> <Gold.Protein.RotatedAtoms>
  150.8236  134.7456  159.6793 H   0  0  0  0  0  0  0  0  0  0  0  0  # atno 6907 bound_to 6896
  152.4349  134.5702  159.9929 H   0  0  0  0  0  0  0  0  0  0  0  0  # atno 6908 bound_to 6896
  151.5880  133.3332  159.3058 H   0  0  0  0  0  0  0  0  0  0  0  0  # atno 6909 bound_to 6896
  144.8268  139.6583  143.6076 H   0  0  0  0  0  0  0  0  0  0  0  0  # atno 7974 bound_to 7965
  156.1270  140.3202  155.8291 H   0  0  0  0  0  0  0  0  0  0  0  0  # atno 8008 bound_to 7997
  155.4402  140.0525  157.3028 H   0  0  0  0  0  0  0  0  0  0  0  0  # atno 8009 bound_to 7997
  154.4870  140.2076  155.9647 H   0  0  0  0  0  0  0  0  0  0  0  0  # atno 8010 bound_to 7997
  140.2887  143.3235  152.0367 H   0  0  0  0  0  0  0  0  0  0  0  0  # atno 10167 bound_to 10162
  157.5589  131.1090  150.8574 H   0  0  0  0  0  0  0  0  0  0  0  0  # atno 10718 bound_to 10713
  154.4454  135.5930  153.6157 H   0  0  0  0  0  0  0  0  0  0  0  0  # atno 10763 bound_to 10752
  152.9809  135.6008  154.3670 H   0  0  0  0  0  0  0  0  0  0  0  0  # atno 10764 bound_to 10752
  154.3525  135.2841  155.2343 H   0  0  0  0  0  0  0  0  0  0  0  0  # atno 10765 bound_to 10752
  140.2532  134.7960  157.3521 H   0  0  0  0  0  0  0  0  0  0  0  0  # atno 11005 bound_to 11000
  146.2572  139.6330  142.9386 LP  0  0  0  0  0  0  0  0  0  0  0  0  # atno 17320 bound_to 7965
  145.4984  141.0438  143.2554 LP  0  0  0  0  0  0  0  0  0  0  0  0  # atno 17321 bound_to 7965
  139.4943  144.6540  151.6613 LP  0  0  0  0  0  0  0  0  0  0  0  0  # atno 17342 bound_to 10162
  140.5750  144.0044  150.6237 LP  0  0  0  0  0  0  0  0  0  0  0  0  # atno 17343 bound_to 10162
  156.9077  130.5269  149.5281 LP  0  0  0  0  0  0  0  0  0  0  0  0  # atno 17370 bound_to 10713
  156.0644  130.5690  150.9258 LP  0  0  0  0  0  0  0  0  0  0  0  0  # atno 17371 bound_to 10713
  140.1537  134.4817  155.7943 LP  0  0  0  0  0  0  0  0  0  0  0  0  # atno 17394 bound_to 11000
  141.2199  133.6873  156.7423 LP  0  0  0  0  0  0  0  0  0  0  0  0  # atno 17395 bound_to 11000

$$$$
