AV-unprocessed.smi:1381|AV-procd|sdf|5602|dock5
  -GOLD-   22720 5213D 1   1.00000     0.00000
 Structure written by MMmdl.
 42 43  0  0  0  0  0  0  0  0  1 V2000
  143.9585  132.6303  150.1529 C   0  0  0  0  0  0  0  0  0  0  0  0
  144.4148  133.8253  150.9181 C   0  0  0  0  0  0  0  0  0  0  0  0
  145.6020  134.5007  150.9640 C   0  0  0  0  0  0  0  0  0  0  0  0
  145.3448  135.5362  151.9015 C   0  0  0  0  0  0  0  0  0  0  0  0
  146.3492  136.4797  152.2373 N   0  0  0  0  0  0  0  0  0  0  0  0
  146.2403  137.5326  153.0654 C   0  0  0  0  0  0  0  0  0  0  0  0
  145.2205  137.8519  153.6774 O   0  0  0  0  0  0  0  0  0  0  0  0
  147.3952  138.2089  153.1490 N   0  0  0  0  0  0  0  0  0  0  0  0
  147.6083  139.4001  153.9622 C   0  0  0  0  0  0  0  0  0  0  0  0
  148.7198  140.2889  153.3733 C   0  0  0  0  0  0  0  0  0  0  0  0
  149.9619  140.3151  154.1435 N   0  0  0  0  0  0  0  0  0  0  0  0
  149.8684  141.1648  155.3286 C   0  0  0  0  0  0  0  0  0  0  0  0
  151.1751  141.1618  156.1457 C   0  0  1  0  0  0  0  0  0  0  0  0
  151.0547  141.9812  157.4348 C   0  0  0  0  0  0  0  0  0  0  0  0
  151.5049  139.8208  156.4969 O   0  0  0  0  0  0  0  0  0  0  0  0
  151.6540  138.9641  155.3683 C   0  0  1  0  0  0  0  0  0  0  0  0
  152.0183  137.5636  155.8717 C   0  0  0  0  0  0  0  0  0  0  0  0
  150.3439  138.9701  154.5580 C   0  0  0  0  0  0  0  0  0  0  0  0
  144.1126  135.4960  152.3850 N   0  0  0  0  0  0  0  0  0  0  0  0
  143.5105  134.3990  151.7577 O   0  0  0  0  0  0  0  0  0  0  0  0
  144.2475  131.7122  150.6643 H   0  0  0  0  0  0  0  0  0  0  0  0
  144.4002  132.6164  149.1563 H   0  0  0  0  0  0  0  0  0  0  0  0
  142.8741  132.6280  150.0401 H   0  0  0  0  0  0  0  0  0  0  0  0
  146.5063  134.2858  150.4145 H   0  0  0  0  0  0  0  0  0  0  0  0
  147.2471  136.3378  151.7988 H   0  0  0  0  0  0  0  0  0  0  0  0
  148.1827  137.8798  152.6098 H   0  0  0  0  0  0  0  0  0  0  0  0
  146.6707  139.9554  153.9998 H   0  0  0  0  0  0  0  0  0  0  0  0
  147.8356  139.1003  154.9858 H   0  0  0  0  0  0  0  0  0  0  0  0
  148.9324  139.9830  152.3476 H   0  0  0  0  0  0  0  0  0  0  0  0
  148.3285  141.3050  153.3064 H   0  0  0  0  0  0  0  0  0  0  0  0
  149.6422  142.1907  155.0406 H   0  0  0  0  0  0  0  0  0  0  0  0
  149.0440  140.8280  155.9593 H   0  0  0  0  0  0  0  0  0  0  0  0
  151.9837  141.5772  155.5416 H   0  0  0  0  0  0  0  0  0  0  0  0
  150.8142  143.0222  157.2172 H   0  0  0  0  0  0  0  0  0  0  0  0
  151.9903  141.9665  157.9943 H   0  0  0  0  0  0  0  0  0  0  0  0
  150.2724  141.5849  158.0827 H   0  0  0  0  0  0  0  0  0  0  0  0
  152.4699  139.3368  154.7465 H   0  0  0  0  0  0  0  0  0  0  0  0
  152.1544  136.8710  155.0408 H   0  0  0  0  0  0  0  0  0  0  0  0
  151.2381  137.1617  156.5187 H   0  0  0  0  0  0  0  0  0  0  0  0
  152.9466  137.5845  156.4431 H   0  0  0  0  0  0  0  0  0  0  0  0
  149.5450  138.5284  155.1563 H   0  0  0  0  0  0  0  0  0  0  0  0
  150.4622  138.3345  153.6795 H   0  0  0  0  0  0  0  0  0  0  0  0
  1  2  1  0  0  0  0
  1 21  1  0  0  0  0
  1 22  1  0  0  0  0
  1 23  1  0  0  0  0
  2 20  1  0  0  0  0
  2  3  2  0  0  0  0
  3  4  1  0  0  0  0
  3 24  1  0  0  0  0
  4  5  1  0  0  0  0
  4 19  2  0  0  0  0
  5  6  1  0  0  0  0
  5 25  1  0  0  0  0
  6  7  2  0  0  0  0
  6  8  1  0  0  0  0
  8  9  1  0  0  0  0
  8 26  1  0  0  0  0
  9 10  1  0  0  0  0
  9 27  1  0  0  0  0
  9 28  1  0  0  0  0
 10 11  1  0  0  0  0
 10 29  1  0  0  0  0
 10 30  1  0  0  0  0
 11 18  1  0  0  0  0
 11 12  1  0  0  0  0
 12 13  1  0  0  0  0
 12 31  1  0  0  0  0
 12 32  1  0  0  0  0
 13 14  1  0  0  0  0
 13 15  1  0  0  0  0
 13 33  1  0  0  0  0
 14 34  1  0  0  0  0
 14 35  1  0  0  0  0
 14 36  1  0  0  0  0
 15 16  1  0  0  0  0
 16 17  1  0  0  0  0
 16 18  1  0  0  0  0
 16 37  1  0  0  0  0
 17 38  1  0  0  0  0
 17 39  1  0  0  0  0
 17 40  1  0  0  0  0
 18 41  1  0  0  0  0
 18 42  1  0  0  0  0
 19 20  1  0  0  0  0
M  END
> <s_m_source_file>
AV-unprocessed.smi

> <i_m_source_file_index>
1381

> <i_lp_mmshare_version>
43012

> <i_f3d_flags>
0

> <s_epik_input>
W0NIM11jMVtjSF1jKG5vMSlbTkhdQyg9TylbTkhdW0NIMl1bQ0gyXU4yW0NIMl1bQ0BASF0oW0NIM10pT1tDQEBIXShbQ0gzXSlbQ0gyXTI=

> <s_epik_cmdline>
J2VwaWtfcHl0aG9uJywgJy1waCcsICc3LjAnLCAnLXRuJywgJzgnLCAnLW1hJywgJzIwMCcsICctbWV0YWxfYmluZGluZycsICctaW1hZScsICc8aW5maWxlLm1hZT4nLCAnLW9tYWUnLCAnPG91dGZpbGUubWFlPic=

> <r_epik_Ionization_Penalty>
0.214073

> <r_epik_Ionization_Penalty_Charging>
0

> <r_epik_Ionization_Penalty_Neutral>
0.214073

> <r_epik_State_Penalty>
0.204211

> <r_epik_Charging_Adjusted_Penalty>
0.204211

> <i_epik_Tot_Q>
0

> <i_epik_Tot_abs_Q>
0

> <r_epik_Metal_State_Penalty>
0.217067

> <b_epik_Metal_Only>
0

> <s_lp_Force_Field>
OPLS_2005

> <r_lp_Energy>
17.1752

> <b_lp_Chiralities_Consistent>
1

> <s_lp_Variant>
AV-unprocessed.smi:1381-1

> <Gold.Version>
5.8.1

> <Gold.Id.Protein>
6NUR|6NUR_protein|mol2

> <Gold.PLP.Fitness>
37.2063

> <Gold.PLP.PLP>
-30.4217

> <Gold.PLP.part.hbond>
-3.0000

> <Gold.PLP.part.metal>
0.0000

> <Gold.PLP.part.buried>
-2.2857

> <Gold.PLP.part.nonpolar>
-27.8480

> <Gold.PLP.part.repulsive>
1.3930

> <Gold.PLP.ligand.clash>
0.0000

> <Gold.PLP.ligand.torsion>
0.6609

> <Gold.PLP.Chemscore.Hbond>
2.6960

> <Gold.PLP.Chemscore.CHOScore>
0.0000

> <Gold.PLP.Chemscore.Metal>
0.0000

> <Gold.Chemscore.Hbonds>
donor molecule, donor type, donor heavy atom, donor atom, acceptor molecule, acceptor atom, score
      L1  H     5    25       P1  7948  1.00
      L1  H     8    26       P1  7948  0.85
      P1  H  7989  7998       L1    11  0.81

> <Gold.PLP.Chemscore.Internal.Correction>
0.0184

> <Gold.Rescore>
     Score         DG    S(hbond)    S(metal)    S(lipo)     H(rot)  DE(clash)    DE(int)     intcor
     13.04     -16.49       1.90        0.00      74.09       1.57       1.56       1.89       ----

> <Gold.Chemscore.Fitness>
13.0372

> <Gold.Chemscore.DG>
-16.4914

> <Gold.Chemscore.ZeroCoef>
-5.4800

> <Gold.Chemscore.Hbond>
1.9046

> <Gold.Chemscore.Metal>
0.0000

> <Gold.Chemscore.Lipo>
74.0913

> <Gold.Chemscore.Internal_Hbond>
0.0000

> <Gold.Chemscore.DEClash>
1.5627

> <Gold.Chemscore.DEInternal>
1.8915

> <Gold.Chemscore.Rot>
1.5697

> <Gold.Chemscore.Internal.Correction>
   9.000000E+99

> <Gold.Chemscore.Hbonds>
donor molecule, donor type, donor heavy atom, donor atom, acceptor molecule, acceptor atom, score
      L1  H     5    25       P1  7948  0.97
      L1  H     8    26       P1  7948  0.84
      P1  H  7989  7998       L1    11  0.05

> <Gold.Chemscore.Hbond.Weighted>
-6.3612

> <Gold.Chemscore.Metal.Weighted>
-0.0000

> <Gold.Chemscore.Lipo.Weighted>
-8.6687

> <Gold.Chemscore.Internal_Hbond.Weighted>
0.0000

> <Gold.Chemscore.DEClash.Weighted>
1.5627

> <Gold.Chemscore.DEInternal.Weighted>
1.8915

> <Gold.Chemscore.Rot.Weighted>
4.0185

> <Gold.Chemscore.Internal.Correction.Weighted>
   9.000000E+99

> <Gold.Protein.RotatedTorsions>
[ 6907 6896 6895 6894 ] final -173.59 input  -60.11 | X-H torsion
[ 7974 7965 7964 7962 ] final  -60.92 input  175.53 | X-H torsion
[ 8008 7997 7996 7995 ] final -121.62 input   59.86 | X-H torsion
[ 10167 10162 10161 10158 ] final  134.19 input  -65.29 | X-H torsion
[ 10718 10713 10712 10709 ] final -109.99 input   66.30 | X-H torsion
[ 10763 10752 10751 10750 ] final  123.18 input  -60.55 | X-H torsion
[ 11005 11000 10999 10996 ] final -167.43 input  -57.11 | X-H torsion

> <Gold.Protein.ActiveResidues>
 VAL166  LYS551  ARG553  GLY616  TRP617  ASP618  TYR619  PRO620  LYS621  CYS622 
 ASP623  PHE694  ASN695  SER759  ASP760  ASP761  ALA762  ILE779  LEU786  VAL792 
 PHE793  MET794  SER795  GLU796  ALA797  LYS798  CYS799  TRP800  GLU811  SER814 

> <Gold.Protein.RotatedAtoms>
  151.5587  133.3406  159.2966 H   0  0  0  0  0  0  0  0  0  0  0  0  # atno 6907 bound_to 6896
  150.8435  134.7739  159.6963 H   0  0  0  0  0  0  0  0  0  0  0  0  # atno 6908 bound_to 6896
  152.4498  134.5425  159.9895 H   0  0  0  0  0  0  0  0  0  0  0  0  # atno 6909 bound_to 6896
  145.8097  140.8606  143.0188 H   0  0  0  0  0  0  0  0  0  0  0  0  # atno 7974 bound_to 7965
  155.1510  140.0404  157.2821 H   0  0  0  0  0  0  0  0  0  0  0  0  # atno 8008 bound_to 7997
  154.6404  140.2545  155.7302 H   0  0  0  0  0  0  0  0  0  0  0  0  # atno 8009 bound_to 7997
  156.2529  140.2857  156.0795 H   0  0  0  0  0  0  0  0  0  0  0  0  # atno 8010 bound_to 7997
  139.5266  144.6579  151.5104 H   0  0  0  0  0  0  0  0  0  0  0  0  # atno 10167 bound_to 10162
  156.0567  130.5792  150.8176 H   0  0  0  0  0  0  0  0  0  0  0  0  # atno 10718 bound_to 10713
  153.6415  135.3378  155.3073 H   0  0  0  0  0  0  0  0  0  0  0  0  # atno 10763 bound_to 10752
  154.8558  135.4319  154.2000 H   0  0  0  0  0  0  0  0  0  0  0  0  # atno 10764 bound_to 10752
  153.2920  135.7018  153.7358 H   0  0  0  0  0  0  0  0  0  0  0  0  # atno 10765 bound_to 10752
  140.5533  134.5406  157.5127 H   0  0  0  0  0  0  0  0  0  0  0  0  # atno 11005 bound_to 11000
  144.6759  140.0378  143.7481 LP  0  0  0  0  0  0  0  0  0  0  0  0  # atno 17320 bound_to 7965
  145.9790  139.2926  143.1053 LP  0  0  0  0  0  0  0  0  0  0  0  0  # atno 17321 bound_to 7965
  140.6414  143.8882  150.6695 LP  0  0  0  0  0  0  0  0  0  0  0  0  # atno 17342 bound_to 10162
  140.2217  143.3803  152.1637 LP  0  0  0  0  0  0  0  0  0  0  0  0  # atno 17343 bound_to 10162
  157.5542  131.0944  150.9652 LP  0  0  0  0  0  0  0  0  0  0  0  0  # atno 17370 bound_to 10713
  156.9905  130.5561  149.5303 LP  0  0  0  0  0  0  0  0  0  0  0  0  # atno 17371 bound_to 10713
  139.9444  134.7728  156.0598 LP  0  0  0  0  0  0  0  0  0  0  0  0  # atno 17394 bound_to 11000
  141.1158  133.6628  156.3091 LP  0  0  0  0  0  0  0  0  0  0  0  0  # atno 17395 bound_to 11000

$$$$
