AV-unprocessed.smi:2299|AV-procd|sdf|9230|dock1
  -GOLD-   2272012453D 1   1.00000     0.00000
 Structure written by MMmdl.
 42 43  0  0  0  0  0  0  0  0  1 V2000
  144.6794  140.2554  155.3381 C   0  0  0  0  0  0  0  0  0  0  0  0
  145.9689  139.4789  155.0325 C   0  0  0  0  0  0  0  0  0  0  0  0
  146.5744  138.8516  156.2970 C   0  0  0  0  0  0  0  0  0  0  0  0
  146.9707  140.3354  154.3043 C   0  0  0  0  0  0  0  0  0  0  0  0
  147.3908  140.0662  153.0704 N   0  0  0  0  0  0  0  0  0  0  0  0
  148.3043  141.0677  152.7731 C   0  0  0  0  0  0  0  0  0  0  0  0
  148.4084  141.9177  153.8452 C   0  0  0  0  0  0  0  0  0  0  0  0
  147.5364  141.4460  154.8283 N   0  0  0  0  0  0  0  0  0  0  0  0
  147.2892  142.0084  156.1581 C   0  0  0  0  0  0  0  0  0  0  0  0
  148.4319  141.8064  157.1581 C   0  0  0  0  0  0  0  0  0  0  0  0
  148.4677  140.7933  157.8560 O   0  0  0  0  0  0  0  0  0  0  0  0
  149.3549  142.7795  157.2139 N   0  0  0  0  0  0  0  0  0  0  0  0
  150.5486  142.7804  158.0602 C   0  0  2  0  0  0  0  0  0  0  0  0
  151.2508  144.1546  157.9877 C   0  0  0  0  0  0  0  0  0  0  0  0
  152.1538  144.4605  159.1936 C   0  0  0  0  0  0  0  0  0  0  0  0
  153.3446  143.5060  159.3664 C   0  0  0  0  0  0  0  0  0  0  0  0
  152.9342  142.0597  159.6914 C   0  0  0  0  0  0  0  0  0  0  0  0
  152.5096  141.3185  158.5102 N   0  0  0  0  0  0  0  0  0  0  0  0
  151.4571  141.5833  157.7212 C   0  0  0  0  0  0  0  0  0  0  0  0
  151.2231  140.8824  156.7367 O   0  0  0  0  0  0  0  0  0  0  0  0
  144.2320  140.6456  154.4234 H   0  0  0  0  0  0  0  0  0  0  0  0
  144.8703  141.0994  156.0019 H   0  0  0  0  0  0  0  0  0  0  0  0
  143.9402  139.6149  155.8199 H   0  0  0  0  0  0  0  0  0  0  0  0
  145.6777  138.6509  154.3885 H   0  0  0  0  0  0  0  0  0  0  0  0
  147.4510  138.2500  156.0542 H   0  0  0  0  0  0  0  0  0  0  0  0
  145.8555  138.2010  156.7955 H   0  0  0  0  0  0  0  0  0  0  0  0
  146.8820  139.6152  157.0123 H   0  0  0  0  0  0  0  0  0  0  0  0
  148.8152  141.0971  151.8220 H   0  0  0  0  0  0  0  0  0  0  0  0
  149.0211  142.7981  153.9723 H   0  0  0  0  0  0  0  0  0  0  0  0
  147.1039  143.0784  156.0552 H   0  0  0  0  0  0  0  0  0  0  0  0
  146.3786  141.5600  156.5577 H   0  0  0  0  0  0  0  0  0  0  0  0
  149.2449  143.5710  156.5960 H   0  0  0  0  0  0  0  0  0  0  0  0
  150.2094  142.6209  159.0856 H   0  0  0  0  0  0  0  0  0  0  0  0
  151.8231  144.2349  157.0622 H   0  0  0  0  0  0  0  0  0  0  0  0
  150.5003  144.9448  157.9381 H   0  0  0  0  0  0  0  0  0  0  0  0
  152.5369  145.4762  159.0889 H   0  0  0  0  0  0  0  0  0  0  0  0
  151.5544  144.4632  160.1048 H   0  0  0  0  0  0  0  0  0  0  0  0
  153.9834  143.5306  158.4822 H   0  0  0  0  0  0  0  0  0  0  0  0
  153.9577  143.8798  160.1871 H   0  0  0  0  0  0  0  0  0  0  0  0
  153.7926  141.5308  160.1064 H   0  0  0  0  0  0  0  0  0  0  0  0
  152.1591  142.0321  160.4585 H   0  0  0  0  0  0  0  0  0  0  0  0
  153.0799  140.5244  158.2575 H   0  0  0  0  0  0  0  0  0  0  0  0
  1  2  1  0  0  0  0
  1 21  1  0  0  0  0
  1 22  1  0  0  0  0
  1 23  1  0  0  0  0
  2  3  1  0  0  0  0
  2  4  1  0  0  0  0
  2 24  1  0  0  0  0
  3 25  1  0  0  0  0
  3 26  1  0  0  0  0
  3 27  1  0  0  0  0
  4  8  1  0  0  0  0
  4  5  2  0  0  0  0
  5  6  1  0  0  0  0
  6  7  2  0  0  0  0
  6 28  1  0  0  0  0
  7  8  1  0  0  0  0
  7 29  1  0  0  0  0
  8  9  1  0  0  0  0
  9 10  1  0  0  0  0
  9 30  1  0  0  0  0
  9 31  1  0  0  0  0
 10 11  2  0  0  0  0
 10 12  1  0  0  0  0
 12 13  1  0  0  0  0
 12 32  1  0  0  0  0
 13 19  1  0  0  0  0
 13 14  1  0  0  0  0
 13 33  1  0  0  0  0
 14 15  1  0  0  0  0
 14 34  1  0  0  0  0
 14 35  1  0  0  0  0
 15 16  1  0  0  0  0
 15 36  1  0  0  0  0
 15 37  1  0  0  0  0
 16 17  1  0  0  0  0
 16 38  1  0  0  0  0
 16 39  1  0  0  0  0
 17 18  1  0  0  0  0
 17 40  1  0  0  0  0
 17 41  1  0  0  0  0
 18 19  1  0  0  0  0
 18 42  1  0  0  0  0
 19 20  2  0  0  0  0
M  END
> <s_m_source_file>
AV-unprocessed.smi

> <i_m_source_file_index>
2299

> <i_lp_mmshare_version>
43012

> <i_f3d_flags>
0

> <s_epik_input>
W0NIM11bQ0hdKFtDSDNdKWMxbltjSF1bY0hdbjFbQ0gyXUMoPU8pW05IXVtDQEBIXTJbQ0gyXVtDSDJdW0NIMl1bQ0gyXVtOSF1DMj1P

> <s_epik_cmdline>
J2VwaWtfcHl0aG9uJywgJy1waCcsICc3LjAnLCAnLXRuJywgJzgnLCAnLW1hJywgJzIwMCcsICctbWV0YWxfYmluZGluZycsICctaW1hZScsICc8aW5maWxlLm1hZT4nLCAnLW9tYWUnLCAnPG91dGZpbGUubWFlPic=

> <r_lp_tautomer_probability>
1

> <r_epik_Ionization_Penalty>
0.557868

> <r_epik_Ionization_Penalty_Charging>
0.557868

> <r_epik_Ionization_Penalty_Neutral>
1.99744e-07

> <r_epik_State_Penalty>
0.568774

> <r_epik_Charging_Adjusted_Penalty>
1.12664

> <i_epik_Tot_Q>
0

> <i_epik_Tot_abs_Q>
0

> <r_epik_Metal_State_Penalty>
0.289303

> <b_epik_Metal_Only>
0

> <s_lp_Force_Field>
OPLS_2005

> <r_lp_Energy>
12.6328

> <b_lp_Chiralities_Consistent>
1

> <s_lp_Variant>
AV-unprocessed.smi:2299-3

> <Gold.Version>
5.8.1

> <Gold.Id.Protein>
6NUR|6NUR_protein|mol2

> <Gold.PLP.Fitness>
39.7471

> <Gold.PLP.PLP>
-31.8023

> <Gold.PLP.part.hbond>
-2.1403

> <Gold.PLP.part.metal>
0.0000

> <Gold.PLP.part.buried>
-2.8141

> <Gold.PLP.part.nonpolar>
-27.8323

> <Gold.PLP.part.repulsive>
0.3304

> <Gold.PLP.ligand.clash>
0.0000

> <Gold.PLP.ligand.torsion>
0.5673

> <Gold.PLP.Chemscore.Hbond>
1.0000

> <Gold.PLP.Chemscore.CHOScore>
2.0000

> <Gold.PLP.Chemscore.Metal>
0.0000

> <Gold.Chemscore.Hbonds>
donor molecule, donor type, donor heavy atom, donor atom, acceptor molecule, acceptor atom, score
      L1  H    12    32       P1  8028  0.98
      L1  C     7    29       P1  8028  1.00

> <Gold.PLP.Chemscore.Internal.Correction>
0.0794

> <Gold.Rescore>
     Score         DG    S(hbond)    S(metal)    S(lipo)     H(rot)  DE(clash)    DE(int)     intcor
     12.33     -13.07       0.99        0.00      73.91       1.70       0.03       0.71       ----

> <Gold.Chemscore.Fitness>
12.3321

> <Gold.Chemscore.DG>
-13.0670

> <Gold.Chemscore.ZeroCoef>
-5.4800

> <Gold.Chemscore.Hbond>
0.9858

> <Gold.Chemscore.Metal>
0.0000

> <Gold.Chemscore.Lipo>
73.9103

> <Gold.Chemscore.Internal_Hbond>
0.0000

> <Gold.Chemscore.DEClash>
0.0285

> <Gold.Chemscore.DEInternal>
0.7064

> <Gold.Chemscore.Rot>
1.7004

> <Gold.Chemscore.Internal.Correction>
   9.000000E+99

> <Gold.Chemscore.Hbonds>
donor molecule, donor type, donor heavy atom, donor atom, acceptor molecule, acceptor atom, score
      L1  H    12    32       P1  8028  0.89

> <Gold.Chemscore.Hbond.Weighted>
-3.2926

> <Gold.Chemscore.Metal.Weighted>
-0.0000

> <Gold.Chemscore.Lipo.Weighted>
-8.6475

> <Gold.Chemscore.Internal_Hbond.Weighted>
0.0000

> <Gold.Chemscore.DEClash.Weighted>
0.0285

> <Gold.Chemscore.DEInternal.Weighted>
0.7064

> <Gold.Chemscore.Rot.Weighted>
4.3530

> <Gold.Chemscore.Internal.Correction.Weighted>
   9.000000E+99

> <Gold.Protein.RotatedTorsions>
[ 6907 6896 6895 6894 ] final -160.90 input  -60.11 | X-H torsion
[ 7974 7965 7964 7962 ] final   58.90 input  175.53 | X-H torsion
[ 8008 7997 7996 7995 ] final  -63.59 input   59.86 | X-H torsion
[ 10167 10162 10161 10158 ] final  -47.24 input  -65.29 | X-H torsion
[ 10718 10713 10712 10709 ] final    6.19 input   66.30 | X-H torsion
[ 10763 10752 10751 10750 ] final -146.03 input  -60.55 | X-H torsion
[ 11005 11000 10999 10996 ] final   85.19 input  -57.11 | X-H torsion

> <Gold.Protein.ActiveResidues>
 VAL166  LYS551  ARG553  GLY616  TRP617  ASP618  TYR619  PRO620  LYS621  CYS622 
 ASP623  PHE694  ASN695  SER759  ASP760  ASP761  ALA762  ILE779  LEU786  VAL792 
 PHE793  MET794  SER795  GLU796  ALA797  LYS798  CYS799  TRP800  GLU811  SER814 

> <Gold.Protein.RotatedAtoms>
  151.3563  133.3906  159.2684 H   0  0  0  0  0  0  0  0  0  0  0  0  # atno 6907 bound_to 6896
  150.9761  134.9126  159.7827 H   0  0  0  0  0  0  0  0  0  0  0  0  # atno 6908 bound_to 6896
  152.5201  134.3526  159.9309 H   0  0  0  0  0  0  0  0  0  0  0  0  # atno 6909 bound_to 6896
  145.9131  139.3669  143.0524 H   0  0  0  0  0  0  0  0  0  0  0  0  # atno 7974 bound_to 7965
  154.4563  140.0971  156.6766 H   0  0  0  0  0  0  0  0  0  0  0  0  # atno 8008 bound_to 7997
  155.5129  140.3477  155.4373 H   0  0  0  0  0  0  0  0  0  0  0  0  # atno 8009 bound_to 7997
  156.0783  140.1366  156.9732 H   0  0  0  0  0  0  0  0  0  0  0  0  # atno 8010 bound_to 7997
  140.6783  143.2793  151.3898 H   0  0  0  0  0  0  0  0  0  0  0  0  # atno 10167 bound_to 10162
  156.9185  130.5782  149.5647 H   0  0  0  0  0  0  0  0  0  0  0  0  # atno 10718 bound_to 10713
  154.8356  135.3397  154.6597 H   0  0  0  0  0  0  0  0  0  0  0  0  # atno 10763 bound_to 10752
  153.7212  135.6958  153.5017 H   0  0  0  0  0  0  0  0  0  0  0  0  # atno 10764 bound_to 10752
  153.2380  135.4394  155.0620 H   0  0  0  0  0  0  0  0  0  0  0  0  # atno 10765 bound_to 10752
  139.8978  134.8269  156.2548 H   0  0  0  0  0  0  0  0  0  0  0  0  # atno 11005 bound_to 11000
  145.8646  140.9455  143.0682 LP  0  0  0  0  0  0  0  0  0  0  0  0  # atno 17320 bound_to 7965
  144.6745  140.0575  143.7477 LP  0  0  0  0  0  0  0  0  0  0  0  0  # atno 17321 bound_to 7965
  139.6089  144.1138  152.2278 LP  0  0  0  0  0  0  0  0  0  0  0  0  # atno 17342 bound_to 10162
  140.0546  144.5905  150.7309 LP  0  0  0  0  0  0  0  0  0  0  0  0  # atno 17343 bound_to 10162
  156.0502  130.5573  150.8972 LP  0  0  0  0  0  0  0  0  0  0  0  0  # atno 17370 bound_to 10713
  157.5923  131.0944  150.9099 LP  0  0  0  0  0  0  0  0  0  0  0  0  # atno 17371 bound_to 10713
  141.0201  133.7046  156.1253 LP  0  0  0  0  0  0  0  0  0  0  0  0  # atno 17394 bound_to 11000
  140.7246  134.4321  157.5572 LP  0  0  0  0  0  0  0  0  0  0  0  0  # atno 17395 bound_to 11000

$$$$
