AV-unprocessed.smi:136|AV-procd|sdf|1173|dock3
  -GOLD-   2262018323D 1   1.00000     0.00000
 Structure written by MMmdl.
 54 58  0  0  0  0  0  0  0  0  1 V2000
  150.2036  137.3129  160.4338 O   0  0  0  0  0  0  0  0  0  0  0  0
  149.8323  137.0494  159.2885 C   0  0  0  0  0  0  0  0  0  0  0  0
  150.4736  137.7753  158.0869 C   0  0  0  0  0  0  0  0  0  0  0  0
  150.4313  139.2499  158.1981 N   0  0  0  0  0  0  0  0  0  0  0  0
  149.2254  139.9224  157.8803 C   0  0  0  0  0  0  0  0  0  0  0  0
  148.2212  139.3019  157.5281 O   0  0  0  0  0  0  0  0  0  0  0  0
  149.2676  141.3759  157.9904 C   0  0  0  0  0  0  0  0  0  0  0  0
  148.1683  142.0960  157.7093 F   0  0  0  0  0  0  0  0  0  0  0  0
  150.3949  142.0128  158.3686 C   0  0  0  0  0  0  0  0  0  0  0  0
  151.5665  141.3434  158.6747 N   0  0  0  0  0  0  0  0  0  0  0  0
  152.8294  142.0747  159.0796 C   0  0  2  0  0  0  0  0  0  0  0  0
  153.2680  141.6581  160.4968 C   0  0  0  0  0  0  0  0  0  0  0  0
  153.4387  142.9898  161.2005 C   0  0  0  0  0  0  0  0  0  0  0  0
  152.4342  143.8650  160.4667 C   0  0  0  0  0  0  0  0  0  0  0  0
  152.5910  143.4533  159.1154 O   0  0  0  0  0  0  0  0  0  0  0  0
  151.6086  139.9351  158.5822 C   0  0  0  0  0  0  0  0  0  0  0  0
  152.6498  139.3211  158.8268 O   0  0  0  0  0  0  0  0  0  0  0  0
  148.8731  136.1292  159.0431 N   0  0  0  0  0  0  0  0  0  0  0  0
  148.5503  135.7106  157.7933 N   0  0  0  0  0  0  0  0  0  0  0  0
  147.7359  134.7233  157.8634 C   0  0  0  0  0  0  0  0  0  0  0  0
  147.1769  134.0131  156.6914 C   0  0  0  0  0  0  0  0  0  0  0  0
  147.7619  132.7963  156.2723 C   0  0  0  0  0  0  0  0  0  0  0  0
  147.2319  132.1209  155.1557 C   0  0  0  0  0  0  0  0  0  0  0  0
  146.1266  132.6554  154.4635 C   0  0  0  0  0  0  0  0  0  0  0  0
  145.4829  131.8241  153.0956 Cl  0  0  0  0  0  0  0  0  0  0  0  0
  145.5461  133.8679  154.8867 C   0  0  0  0  0  0  0  0  0  0  0  0
  146.0672  134.5525  156.0022 C   0  0  0  0  0  0  0  0  0  0  0  0
  147.3816  134.3332  159.2589 C   0  0  0  0  0  0  0  0  0  0  0  0
  148.1591  135.3677  160.0763 C   0  0  2  0  0  0  0  0  0  0  0  0
  147.2691  136.2072  160.9483 C   0  0  0  0  0  0  0  0  0  0  0  0
  147.2066  136.4582  162.2932 C   0  0  0  0  0  0  0  0  0  0  0  0
  146.1259  137.3618  162.4865 C   0  0  0  0  0  0  0  0  0  0  0  0
  145.6110  137.6017  161.2450 C   0  0  0  0  0  0  0  0  0  0  0  0
  146.2981  136.9084  160.2970 O   0  0  0  0  0  0  0  0  0  0  0  0
  151.4993  137.4215  157.9721 H   0  0  0  0  0  0  0  0  0  0  0  0
  149.9756  137.4498  157.1720 H   0  0  0  0  0  0  0  0  0  0  0  0
  150.3585  143.0899  158.4248 H   0  0  0  0  0  0  0  0  0  0  0  0
  153.5613  141.8533  158.3006 H   0  0  0  0  0  0  0  0  0  0  0  0
  152.4838  141.0720  160.9791 H   0  0  0  0  0  0  0  0  0  0  0  0
  154.1839  141.0676  160.4656 H   0  0  0  0  0  0  0  0  0  0  0  0
  153.2533  142.9330  162.2735 H   0  0  0  0  0  0  0  0  0  0  0  0
  154.4490  143.3703  161.0455 H   0  0  0  0  0  0  0  0  0  0  0  0
  151.4186  143.6608  160.8084 H   0  0  0  0  0  0  0  0  0  0  0  0
  152.6320  144.9301  160.5876 H   0  0  0  0  0  0  0  0  0  0  0  0
  148.6098  132.3703  156.7890 H   0  0  0  0  0  0  0  0  0  0  0  0
  147.6755  131.1913  154.8301 H   0  0  0  0  0  0  0  0  0  0  0  0
  144.6988  134.2751  154.3548 H   0  0  0  0  0  0  0  0  0  0  0  0
  145.6033  135.4789  156.3062 H   0  0  0  0  0  0  0  0  0  0  0  0
  146.3050  134.3997  159.4236 H   0  0  0  0  0  0  0  0  0  0  0  0
  147.7090  133.3170  159.4817 H   0  0  0  0  0  0  0  0  0  0  0  0
  148.8942  134.8557  160.6999 H   0  0  0  0  0  0  0  0  0  0  0  0
  147.8581  136.0405  163.0465 H   0  0  0  0  0  0  0  0  0  0  0  0
  145.7715  137.7834  163.4152 H   0  0  0  0  0  0  0  0  0  0  0  0
  144.7980  138.2085  160.8745 H   0  0  0  0  0  0  0  0  0  0  0  0
  1  2  2  0  0  0  0
  2  3  1  0  0  0  0
  2 18  1  0  0  0  0
  3  4  1  0  0  0  0
  3 35  1  0  0  0  0
  3 36  1  0  0  0  0
  4 16  1  0  0  0  0
  4  5  1  0  0  0  0
  5  6  2  0  0  0  0
  5  7  1  0  0  0  0
  7  8  1  0  0  0  0
  7  9  2  0  0  0  0
  9 10  1  0  0  0  0
  9 37  1  0  0  0  0
 10 11  1  0  0  0  0
 10 16  1  0  0  0  0
 11 15  1  0  0  0  0
 11 12  1  0  0  0  0
 11 38  1  0  0  0  0
 12 13  1  0  0  0  0
 12 39  1  0  0  0  0
 12 40  1  0  0  0  0
 13 14  1  0  0  0  0
 13 41  1  0  0  0  0
 13 42  1  0  0  0  0
 14 15  1  0  0  0  0
 14 43  1  0  0  0  0
 14 44  1  0  0  0  0
 16 17  2  0  0  0  0
 18 29  1  0  0  0  0
 18 19  1  0  0  0  0
 19 20  2  0  0  0  0
 20 21  1  0  0  0  0
 20 28  1  0  0  0  0
 21 27  1  0  0  0  0
 21 22  2  0  0  0  0
 22 23  1  0  0  0  0
 22 45  1  0  0  0  0
 23 24  2  0  0  0  0
 23 46  1  0  0  0  0
 24 25  1  0  0  0  0
 24 26  1  0  0  0  0
 26 27  2  0  0  0  0
 26 47  1  0  0  0  0
 27 48  1  0  0  0  0
 28 29  1  0  0  0  0
 28 49  1  0  0  0  0
 28 50  1  0  0  0  0
 29 30  1  0  0  0  0
 29 51  1  0  0  0  0
 30 34  1  0  0  0  0
 30 31  2  0  0  0  0
 31 32  1  0  0  0  0
 31 52  1  0  0  0  0
 32 33  2  0  0  0  0
 32 53  1  0  0  0  0
 33 34  1  0  0  0  0
 33 54  1  0  0  0  0
M  END
> <s_m_source_file>
AV-unprocessed.smi

> <i_m_source_file_index>
136

> <i_lp_mmshare_version>
43012

> <i_f3d_flags>
0

> <s_epik_input>
bzFbY0hdW2NIXVtjSF1jMVtDQEBIXTJbQ0gyXUMoYzNbY0hdW2NIXWMoQ2wpW2NIXVtjSF0zKT1OTjJDKD1PKVtDSDJdbjRjKD1PKWMoRilbY0hdbihjND1PKVtDQEBIXTVbQ0gyXVtDSDJdW0NIMl1PNQ==

> <s_epik_cmdline>
J2VwaWtfcHl0aG9uJywgJy1waCcsICc3LjAnLCAnLXRuJywgJzgnLCAnLW1hJywgJzIwMCcsICctbWV0YWxfYmluZGluZycsICctaW1hZScsICc8aW5maWxlLm1hZT4nLCAnLW9tYWUnLCAnPG91dGZpbGUubWFlPic=

> <r_lp_tautomer_probability>
1

> <r_epik_Ionization_Penalty>
2.55467e-08

> <r_epik_Ionization_Penalty_Charging>
4.85705e-09

> <r_epik_Ionization_Penalty_Neutral>
2.06897e-08

> <r_epik_State_Penalty>
-0

> <r_epik_Charging_Adjusted_Penalty>
4.85705e-09

> <i_epik_Tot_Q>
0

> <i_epik_Tot_abs_Q>
0

> <r_epik_Metal_State_Penalty>
-0

> <b_epik_Metal_Only>
0

> <s_epik_Chemistry_Notes>
This compound has an imine and may undergo hydrolysis. This compound contains an acetal/aminal-like group ( X-CH(R)-Y where X, Y are N, S, or O) that may be acid/base labile, releasing an aldehyde.

> <s_lp_Force_Field>
OPLS_2005

> <r_lp_Energy>
40.0267

> <b_lp_Chiralities_Consistent>
1

> <s_lp_Variant>
AV-unprocessed.smi:136-3

> <Gold.Version>
5.8.1

> <Gold.Id.Protein>
6NUR|6NUR_protein|mol2

> <Gold.PLP.Fitness>
49.0007

> <Gold.PLP.PLP>
-46.5153

> <Gold.PLP.part.hbond>
-2.0000

> <Gold.PLP.part.metal>
0.0000

> <Gold.PLP.part.buried>
-6.4526

> <Gold.PLP.part.nonpolar>
-38.1615

> <Gold.PLP.part.repulsive>
0.0358

> <Gold.PLP.ligand.clash>
0.0000

> <Gold.PLP.ligand.torsion>
1.7895

> <Gold.PLP.Chemscore.Hbond>
1.9913

> <Gold.PLP.Chemscore.CHOScore>
0.0000

> <Gold.PLP.Chemscore.Metal>
0.0000

> <Gold.Chemscore.Hbonds>
donor molecule, donor type, donor heavy atom, donor atom, acceptor molecule, acceptor atom, score
      P1  H  6931  6943       L1     1  0.14

> <Gold.PLP.Chemscore.Internal.Correction>
0.0907

> <Gold.Rescore>
     Score         DG    S(hbond)    S(metal)    S(lipo)     H(rot)  DE(clash)    DE(int)     intcor
     17.43     -19.49       1.91        0.00     104.86       1.81       0.05       2.02       ----

> <Gold.Chemscore.Fitness>
17.4265

> <Gold.Chemscore.DG>
-19.4941

> <Gold.Chemscore.ZeroCoef>
-5.4800

> <Gold.Chemscore.Hbond>
1.9066

> <Gold.Chemscore.Metal>
0.0000

> <Gold.Chemscore.Lipo>
104.8569

> <Gold.Chemscore.Internal_Hbond>
0.0000

> <Gold.Chemscore.DEClash>
0.0467

> <Gold.Chemscore.DEInternal>
2.0209

> <Gold.Chemscore.Rot>
1.8056

> <Gold.Chemscore.Internal.Correction>
   9.000000E+99

> <Gold.Chemscore.Hbonds>
donor molecule, donor type, donor heavy atom, donor atom, acceptor molecule, acceptor atom, score
      P1  H  6931  6943       L1     1  0.14

> <Gold.Chemscore.Hbond.Weighted>
-6.3682

> <Gold.Chemscore.Metal.Weighted>
-0.0000

> <Gold.Chemscore.Lipo.Weighted>
-12.2683

> <Gold.Chemscore.Internal_Hbond.Weighted>
0.0000

> <Gold.Chemscore.DEClash.Weighted>
0.0467

> <Gold.Chemscore.DEInternal.Weighted>
2.0209

> <Gold.Chemscore.Rot.Weighted>
4.6223

> <Gold.Chemscore.Internal.Correction.Weighted>
   9.000000E+99

> <Gold.Protein.RotatedTorsions>
[ 6907 6896 6895 6894 ] final  -21.70 input  -60.11 | X-H torsion
[ 7974 7965 7964 7962 ] final   72.33 input  175.53 | X-H torsion
[ 8008 7997 7996 7995 ] final   36.17 input   59.86 | X-H torsion
[ 10167 10162 10161 10158 ] final -124.78 input  -65.29 | X-H torsion
[ 10718 10713 10712 10709 ] final  172.64 input   66.30 | X-H torsion
[ 10763 10752 10751 10750 ] final  172.63 input  -60.55 | X-H torsion
[ 11005 11000 10999 10996 ] final  -87.97 input  -57.11 | X-H torsion

> <Gold.Protein.ActiveResidues>
 VAL166  LYS551  ARG553  GLY616  TRP617  ASP618  TYR619  PRO620  LYS621  CYS622 
 ASP623  PHE694  ASN695  SER759  ASP760  ASP761  ALA762  ILE779  LEU786  VAL792 
 PHE793  MET794  SER795  GLU796  ALA797  LYS798  CYS799  TRP800  GLU811  SER814 

> <Gold.Protein.RotatedAtoms>
  151.2294  135.0548  159.8981 H   0  0  0  0  0  0  0  0  0  0  0  0  # atno 6907 bound_to 6896
  152.5406  134.0553  159.8138 H   0  0  0  0  0  0  0  0  0  0  0  0  # atno 6908 bound_to 6896
  151.0731  133.5401  159.2657 H   0  0  0  0  0  0  0  0  0  0  0  0  # atno 6909 bound_to 6896
  145.7547  139.2775  143.1411 H   0  0  0  0  0  0  0  0  0  0  0  0  # atno 7974 bound_to 7965
  155.1830  140.3301  155.4372 H   0  0  0  0  0  0  0  0  0  0  0  0  # atno 8008 bound_to 7997
  156.2470  140.1923  156.6877 H   0  0  0  0  0  0  0  0  0  0  0  0  # atno 8009 bound_to 7997
  154.6258  140.0589  156.9658 H   0  0  0  0  0  0  0  0  0  0  0  0  # atno 8010 bound_to 7997
  139.9892  143.5659  152.2348 H   0  0  0  0  0  0  0  0  0  0  0  0  # atno 10167 bound_to 10162
  156.9760  131.0104  151.2893 H   0  0  0  0  0  0  0  0  0  0  0  0  # atno 10718 bound_to 10713
  154.4287  135.2759  155.1927 H   0  0  0  0  0  0  0  0  0  0  0  0  # atno 10763 bound_to 10752
  154.3842  135.6081  153.5811 H   0  0  0  0  0  0  0  0  0  0  0  0  # atno 10764 bound_to 10752
  152.9835  135.5887  154.4595 H   0  0  0  0  0  0  0  0  0  0  0  0  # atno 10765 bound_to 10752
  141.1609  133.7542  156.9383 H   0  0  0  0  0  0  0  0  0  0  0  0  # atno 11005 bound_to 11000
  146.0323  140.8246  142.9870 LP  0  0  0  0  0  0  0  0  0  0  0  0  # atno 17320 bound_to 7965
  144.6842  140.2786  143.7295 LP  0  0  0  0  0  0  0  0  0  0  0  0  # atno 17321 bound_to 7965
  139.6353  144.7649  151.2451 LP  0  0  0  0  0  0  0  0  0  0  0  0  # atno 17342 bound_to 10162
  140.7461  143.6410  150.8335 LP  0  0  0  0  0  0  0  0  0  0  0  0  # atno 17343 bound_to 10162
  157.5560  130.8213  149.8204 LP  0  0  0  0  0  0  0  0  0  0  0  0  # atno 17370 bound_to 10713
  156.0263  130.3778  150.1812 LP  0  0  0  0  0  0  0  0  0  0  0  0  # atno 17371 bound_to 10713
  140.1339  134.9338  157.2374 LP  0  0  0  0  0  0  0  0  0  0  0  0  # atno 17394 bound_to 11000
  140.2919  134.3230  155.7313 LP  0  0  0  0  0  0  0  0  0  0  0  0  # atno 17395 bound_to 11000

$$$$
