AV-unprocessed.smi:2706|AV-procd|sdf|10445|dock3
  -GOLD-   2272014483D 1   1.00000     0.00000
 Structure written by MMmdl.
 43 46  0  0  0  0  0  0  0  0  1 V2000
  150.8162  137.8810  154.4710 C   0  0  0  0  0  0  0  0  0  0  0  0
  150.5316  139.2722  154.8088 N   0  0  0  0  0  0  0  0  0  0  0  0
  151.5164  140.0585  155.5409 C   0  0  0  0  0  0  0  0  0  0  0  0
  149.3389  139.8754  154.3490 C   0  0  0  0  0  0  0  0  0  0  0  0
  149.0681  141.2473  154.5686 C   0  0  0  0  0  0  0  0  0  0  0  0
  147.8650  141.7895  154.0824 C   0  0  0  0  0  0  0  0  0  0  0  0
  146.9678  140.9529  153.3947 C   0  0  0  0  0  0  0  0  0  0  0  0
  147.2965  139.5932  153.2130 C   0  0  0  0  0  0  0  0  0  0  0  0
  146.3326  138.8247  152.5075 N   0  0  0  0  0  0  0  0  0  0  0  0
  145.9961  137.5368  152.7006 C   0  0  0  0  0  0  0  0  0  0  0  0
  146.4715  136.7989  153.5646 O   0  0  0  0  0  0  0  0  0  0  0  0
  145.0608  137.1448  151.8245 N   0  0  0  0  0  0  0  0  0  0  0  0
  144.4779  135.8437  151.7626 C   0  0  2  0  0  0  0  0  0  0  0  0
  145.4174  134.6546  151.8890 C   0  0  1  0  0  0  0  0  0  0  0  0
  144.9958  133.2062  152.1182 C   0  0  2  0  0  0  0  0  0  0  0  0
  145.8170  132.3177  151.1612 C   0  0  0  0  0  0  0  0  0  0  0  0
  145.2075  132.6622  149.7799 C   0  0  0  0  0  0  0  0  0  0  0  0
  144.1217  133.6967  150.1427 C   0  0  1  0  0  0  0  0  0  0  0  0
  143.6190  133.1042  151.4599 C   0  0  0  0  0  0  0  0  0  0  0  0
  144.8242  134.9875  150.5535 C   0  0  1  0  0  0  0  0  0  0  0  0
  148.4600  139.0851  153.6862 N   0  0  0  0  0  0  0  0  0  0  0  0
  150.0317  137.2254  154.8501 H   0  0  0  0  0  0  0  0  0  0  0  0
  151.7615  137.5512  154.9019 H   0  0  0  0  0  0  0  0  0  0  0  0
  150.8792  137.7556  153.3898 H   0  0  0  0  0  0  0  0  0  0  0  0
  151.0960  140.4182  156.4804 H   0  0  0  0  0  0  0  0  0  0  0  0
  151.8405  140.9160  154.9503 H   0  0  0  0  0  0  0  0  0  0  0  0
  152.4004  139.4661  155.7769 H   0  0  0  0  0  0  0  0  0  0  0  0
  149.7551  141.8910  155.0966 H   0  0  0  0  0  0  0  0  0  0  0  0
  147.6335  142.8334  154.2347 H   0  0  0  0  0  0  0  0  0  0  0  0
  146.0395  141.3545  153.0150 H   0  0  0  0  0  0  0  0  0  0  0  0
  145.8473  139.3101  151.7678 H   0  0  0  0  0  0  0  0  0  0  0  0
  144.7308  137.8195  151.1501 H   0  0  0  0  0  0  0  0  0  0  0  0
  143.4770  135.7423  152.1765 H   0  0  0  0  0  0  0  0  0  0  0  0
  146.4742  134.8682  152.0410 H   0  0  0  0  0  0  0  0  0  0  0  0
  145.0380  132.9137  153.1675 H   0  0  0  0  0  0  0  0  0  0  0  0
  146.8852  132.5332  151.2108 H   0  0  0  0  0  0  0  0  0  0  0  0
  145.6769  131.2608  151.3915 H   0  0  0  0  0  0  0  0  0  0  0  0
  145.9478  133.0652  149.0875 H   0  0  0  0  0  0  0  0  0  0  0  0
  144.7668  131.7762  149.3208 H   0  0  0  0  0  0  0  0  0  0  0  0
  143.3621  133.8533  149.3768 H   0  0  0  0  0  0  0  0  0  0  0  0
  143.2565  132.0785  151.3654 H   0  0  0  0  0  0  0  0  0  0  0  0
  142.8421  133.6909  151.9489 H   0  0  0  0  0  0  0  0  0  0  0  0
  145.4801  135.4263  149.8034 H   0  0  0  0  0  0  0  0  0  0  0  0
  1  2  1  0  0  0  0
  1 22  1  0  0  0  0
  1 23  1  0  0  0  0
  1 24  1  0  0  0  0
  2  3  1  0  0  0  0
  2  4  1  0  0  0  0
  3 25  1  0  0  0  0
  3 26  1  0  0  0  0
  3 27  1  0  0  0  0
  4 21  1  0  0  0  0
  4  5  2  0  0  0  0
  5  6  1  0  0  0  0
  5 28  1  0  0  0  0
  6  7  2  0  0  0  0
  6 29  1  0  0  0  0
  7  8  1  0  0  0  0
  7 30  1  0  0  0  0
  8  9  1  0  0  0  0
  8 21  2  0  0  0  0
  9 10  1  0  0  0  0
  9 31  1  0  0  0  0
 10 11  2  0  0  0  0
 10 12  1  0  0  0  0
 12 13  1  0  0  0  0
 12 32  1  0  0  0  0
 13 20  1  0  0  0  0
 13 14  1  0  0  0  0
 13 33  1  0  0  0  0
 14 20  1  0  0  0  0
 14 15  1  0  0  0  0
 14 34  1  0  0  0  0
 15 19  1  0  0  0  0
 15 16  1  0  0  0  0
 15 35  1  0  0  0  0
 16 17  1  0  0  0  0
 16 36  1  0  0  0  0
 16 37  1  0  0  0  0
 17 18  1  0  0  0  0
 17 38  1  0  0  0  0
 17 39  1  0  0  0  0
 18 19  1  0  0  0  0
 18 20  1  0  0  0  0
 18 40  1  0  0  0  0
 19 41  1  0  0  0  0
 19 42  1  0  0  0  0
 20 43  1  0  0  0  0
M  END
> <s_m_source_file>
AV-unprocessed.smi

> <i_m_source_file_index>
2706

> <i_lp_mmshare_version>
43012

> <i_f3d_flags>
0

> <s_epik_input>
W0NIM11OKFtDSDNdKWMxW2NIXVtjSF1bY0hdYyhuMSlbTkhdQyg9TylbTkhdW0NASF0yW0NAQEhdM1tDQEBIXShbQ0gyXTQpW0NIMl1bQ0gyXVtDQEBIXTRbQ0BIXTIz

> <s_epik_cmdline>
J2VwaWtfcHl0aG9uJywgJy1waCcsICc3LjAnLCAnLXRuJywgJzgnLCAnLW1hJywgJzIwMCcsICctbWV0YWxfYmluZGluZycsICctaW1hZScsICc8aW5maWxlLm1hZT4nLCAnLW9tYWUnLCAnPG91dGZpbGUubWFlPic=

> <r_lp_tautomer_probability>
1

> <r_epik_Ionization_Penalty>
0.0296788

> <r_epik_Ionization_Penalty_Charging>
0

> <r_epik_Ionization_Penalty_Neutral>
0.0296788

> <r_epik_State_Penalty>
0.0248512

> <r_epik_Charging_Adjusted_Penalty>
0.0248512

> <i_epik_Tot_Q>
0

> <i_epik_Tot_abs_Q>
0

> <r_epik_Metal_State_Penalty>
0.0237882

> <b_epik_Metal_Only>
0

> <s_lp_Force_Field>
OPLS_2005

> <r_lp_Energy>
77.4142

> <b_lp_Chiralities_Consistent>
1

> <s_lp_Variant>
AV-unprocessed.smi:2706-2

> <Gold.Version>
5.8.1

> <Gold.Id.Protein>
6NUR|6NUR_protein|mol2

> <Gold.PLP.Fitness>
45.7968

> <Gold.PLP.PLP>
-43.5550

> <Gold.PLP.part.hbond>
-1.7147

> <Gold.PLP.part.metal>
0.0000

> <Gold.PLP.part.buried>
-5.1360

> <Gold.PLP.part.nonpolar>
-38.5073

> <Gold.PLP.part.repulsive>
1.5978

> <Gold.PLP.ligand.clash>
0.0000

> <Gold.PLP.ligand.torsion>
0.3946

> <Gold.PLP.Chemscore.Hbond>
1.0000

> <Gold.PLP.Chemscore.CHOScore>
0.0000

> <Gold.PLP.Chemscore.Metal>
0.0000

> <Gold.Chemscore.Hbonds>
donor molecule, donor type, donor heavy atom, donor atom, acceptor molecule, acceptor atom, score
      L1  H    12    32       P1 10171  1.00

> <Gold.PLP.Chemscore.Internal.Correction>
0.0309

> <Gold.Rescore>
     Score         DG    S(hbond)    S(metal)    S(lipo)     H(rot)  DE(clash)    DE(int)     intcor
     13.88     -16.29       0.99        0.00      86.01       1.00       0.02       2.38       ----

> <Gold.Chemscore.Fitness>
13.8809

> <Gold.Chemscore.DG>
-16.2854

> <Gold.Chemscore.ZeroCoef>
-5.4800

> <Gold.Chemscore.Hbond>
0.9886

> <Gold.Chemscore.Metal>
0.0000

> <Gold.Chemscore.Lipo>
86.0121

> <Gold.Chemscore.Internal_Hbond>
0.0000

> <Gold.Chemscore.DEClash>
0.0222

> <Gold.Chemscore.DEInternal>
2.3823

> <Gold.Chemscore.Rot>
1.0000

> <Gold.Chemscore.Internal.Correction>
   9.000000E+99

> <Gold.Chemscore.Hbonds>
donor molecule, donor type, donor heavy atom, donor atom, acceptor molecule, acceptor atom, score
      L1  H    12    32       P1 10171  1.00

> <Gold.Chemscore.Hbond.Weighted>
-3.3020

> <Gold.Chemscore.Metal.Weighted>
-0.0000

> <Gold.Chemscore.Lipo.Weighted>
-10.0634

> <Gold.Chemscore.Internal_Hbond.Weighted>
0.0000

> <Gold.Chemscore.DEClash.Weighted>
0.0222

> <Gold.Chemscore.DEInternal.Weighted>
2.3823

> <Gold.Chemscore.Rot.Weighted>
2.5600

> <Gold.Chemscore.Internal.Correction.Weighted>
   9.000000E+99

> <Gold.Protein.RotatedTorsions>
[ 6907 6896 6895 6894 ] final   98.44 input  -60.11 | X-H torsion
[ 7974 7965 7964 7962 ] final  103.45 input  175.53 | X-H torsion
[ 8008 7997 7996 7995 ] final  169.33 input   59.86 | X-H torsion
[ 10167 10162 10161 10158 ] final   58.36 input  -65.29 | X-H torsion
[ 10718 10713 10712 10709 ] final -114.57 input   66.30 | X-H torsion
[ 10763 10752 10751 10750 ] final    6.63 input  -60.55 | X-H torsion
[ 11005 11000 10999 10996 ] final   -0.45 input  -57.11 | X-H torsion

> <Gold.Protein.ActiveResidues>
 VAL166  LYS551  ARG553  GLY616  TRP617  ASP618  TYR619  PRO620  LYS621  CYS622 
 ASP623  PHE694  ASN695  SER759  ASP760  ASP761  ALA762  ILE779  LEU786  VAL792 
 PHE793  MET794  SER795  GLU796  ALA797  LYS798  CYS799  TRP800  GLU811  SER814 

> <Gold.Protein.RotatedAtoms>
  152.5409  134.0580  159.8139 H   0  0  0  0  0  0  0  0  0  0  0  0  # atno 6907 bound_to 6896
  151.0712  133.5457  159.2634 H   0  0  0  0  0  0  0  0  0  0  0  0  # atno 6908 bound_to 6896
  151.2320  135.0566  159.9045 H   0  0  0  0  0  0  0  0  0  0  0  0  # atno 6909 bound_to 6896
  145.3458  139.2451  143.3585 H   0  0  0  0  0  0  0  0  0  0  0  0  # atno 7974 bound_to 7965
  156.1467  140.1567  156.8835 H   0  0  0  0  0  0  0  0  0  0  0  0  # atno 8008 bound_to 7997
  154.5035  140.0819  156.7883 H   0  0  0  0  0  0  0  0  0  0  0  0  # atno 8009 bound_to 7997
  155.3975  140.3413  155.4257 H   0  0  0  0  0  0  0  0  0  0  0  0  # atno 8010 bound_to 7997
  140.1880  144.4114  150.6584 H   0  0  0  0  0  0  0  0  0  0  0  0  # atno 10167 bound_to 10162
  156.0839  130.6034  150.8792 H   0  0  0  0  0  0  0  0  0  0  0  0  # atno 10718 bound_to 10713
  153.2455  135.6908  153.7736 H   0  0  0  0  0  0  0  0  0  0  0  0  # atno 10763 bound_to 10752
  153.6850  135.3322  155.3188 H   0  0  0  0  0  0  0  0  0  0  0  0  # atno 10764 bound_to 10752
  154.8373  135.4531  154.1393 H   0  0  0  0  0  0  0  0  0  0  0  0  # atno 10765 bound_to 10752
  140.6364  133.9529  155.8302 H   0  0  0  0  0  0  0  0  0  0  0  0  # atno 11005 bound_to 11000
  146.2988  140.4064  142.8711 LP  0  0  0  0  0  0  0  0  0  0  0  0  # atno 17320 bound_to 7965
  144.8755  140.7331  143.6019 LP  0  0  0  0  0  0  0  0  0  0  0  0  # atno 17321 bound_to 7965
  140.6475  143.2217  151.6153 LP  0  0  0  0  0  0  0  0  0  0  0  0  # atno 17342 bound_to 10162
  139.5268  144.3036  152.1053 LP  0  0  0  0  0  0  0  0  0  0  0  0  # atno 17343 bound_to 10162
  157.5966  131.0943  150.9031 LP  0  0  0  0  0  0  0  0  0  0  0  0  # atno 17370 bound_to 10713
  156.9196  130.5310  149.5279 LP  0  0  0  0  0  0  0  0  0  0  0  0  # atno 17371 bound_to 10713
  141.0639  134.0306  157.3621 LP  0  0  0  0  0  0  0  0  0  0  0  0  # atno 17394 bound_to 11000
  139.9097  135.0187  156.7637 LP  0  0  0  0  0  0  0  0  0  0  0  0  # atno 17395 bound_to 11000

$$$$
