AV-unprocessed.smi:3014|AV-procd|sdf|11468|dock9
  -GOLD-   2272016403D 1   1.00000     0.00000
 Structure written by MMmdl.
 45 46  0  0  0  0  0  0  0  0  1 V2000
  151.3172  144.8598  159.0211 C   0  0  0  0  0  0  0  0  0  0  0  0
  151.5758  143.4307  159.5196 C   0  0  2  0  0  0  0  0  0  0  0  0
  152.5854  143.4151  160.6838 C   0  0  0  0  0  0  0  0  0  0  0  0
  152.8536  141.9849  161.1786 C   0  0  0  0  0  0  0  0  0  0  0  0
  153.3275  141.0813  160.0305 C   0  0  0  0  0  0  0  0  0  0  0  0
  152.3149  141.0752  158.8734 C   0  0  2  0  0  0  0  0  0  0  0  0
  152.8671  140.2766  157.8288 O   0  0  0  0  0  0  0  0  0  0  0  0
  152.0126  139.2785  157.2751 C   0  0  0  0  0  0  0  0  0  0  0  0
  151.0966  139.8753  156.2007 C   0  0  0  0  0  0  0  0  0  0  0  0
  151.5556  140.1368  155.0886 O   0  0  0  0  0  0  0  0  0  0  0  0
  149.8163  140.0693  156.5676 N   0  0  0  0  0  0  0  0  0  0  0  0
  148.7512  140.5913  155.7879 C   0  0  0  0  0  0  0  0  0  0  0  0
  148.8505  140.3874  154.3948 C   0  0  0  0  0  0  0  0  0  0  0  0
  147.8067  140.8936  153.5966 C   0  0  0  0  0  0  0  0  0  0  0  0
  146.7549  141.5460  154.1321 N   0  0  0  0  0  0  0  0  0  0  0  0
  146.7382  141.6984  155.4620 C   0  0  0  0  0  0  0  0  0  0  0  0
  145.6504  142.3743  156.0219 N   0  0  0  0  0  0  0  0  0  0  0  0
  144.6428  143.0113  155.1781 C   0  0  0  0  0  0  0  0  0  0  0  0
  145.4852  142.4740  157.4691 C   0  0  0  0  0  0  0  0  0  0  0  0
  147.6838  141.2523  156.2991 N   0  0  0  0  0  0  0  0  0  0  0  0
  152.0532  142.5123  158.3770 C   0  0  0  0  0  0  0  0  0  0  0  0
  152.2301  145.3181  158.6390 H   0  0  0  0  0  0  0  0  0  0  0  0
  150.9381  145.4928  159.8237 H   0  0  0  0  0  0  0  0  0  0  0  0
  150.5792  144.8688  158.2185 H   0  0  0  0  0  0  0  0  0  0  0  0
  150.6286  143.0367  159.8915 H   0  0  0  0  0  0  0  0  0  0  0  0
  153.5241  143.8701  160.3647 H   0  0  0  0  0  0  0  0  0  0  0  0
  152.2131  144.0231  161.5091 H   0  0  0  0  0  0  0  0  0  0  0  0
  153.6009  141.9997  161.9725 H   0  0  0  0  0  0  0  0  0  0  0  0
  151.9441  141.5720  161.6167 H   0  0  0  0  0  0  0  0  0  0  0  0
  154.2973  141.4279  159.6709 H   0  0  0  0  0  0  0  0  0  0  0  0
  153.4782  140.0653  160.3969 H   0  0  0  0  0  0  0  0  0  0  0  0
  151.3836  140.6445  159.2441 H   0  0  0  0  0  0  0  0  0  0  0  0
  152.5867  138.4373  156.8854 H   0  0  0  0  0  0  0  0  0  0  0  0
  151.3844  138.8863  158.0749 H   0  0  0  0  0  0  0  0  0  0  0  0
  149.5781  139.8116  157.5141 H   0  0  0  0  0  0  0  0  0  0  0  0
  149.6872  139.8663  153.9528 H   0  0  0  0  0  0  0  0  0  0  0  0
  147.8163  140.7741  152.5233 H   0  0  0  0  0  0  0  0  0  0  0  0
  144.1551  142.2701  154.5440 H   0  0  0  0  0  0  0  0  0  0  0  0
  145.1036  143.7627  154.5360 H   0  0  0  0  0  0  0  0  0  0  0  0
  143.8705  143.5061  155.7668 H   0  0  0  0  0  0  0  0  0  0  0  0
  146.3337  142.9956  157.9127 H   0  0  0  0  0  0  0  0  0  0  0  0
  145.4204  141.4807  157.9143 H   0  0  0  0  0  0  0  0  0  0  0  0
  144.5806  143.0184  157.7403 H   0  0  0  0  0  0  0  0  0  0  0  0
  151.3063  142.5071  157.5832 H   0  0  0  0  0  0  0  0  0  0  0  0
  152.9660  142.9173  157.9375 H   0  0  0  0  0  0  0  0  0  0  0  0
  1  2  1  0  0  0  0
  1 22  1  0  0  0  0
  1 23  1  0  0  0  0
  1 24  1  0  0  0  0
  2 21  1  0  0  0  0
  2  3  1  0  0  0  0
  2 25  1  0  0  0  0
  3  4  1  0  0  0  0
  3 26  1  0  0  0  0
  3 27  1  0  0  0  0
  4  5  1  0  0  0  0
  4 28  1  0  0  0  0
  4 29  1  0  0  0  0
  5  6  1  0  0  0  0
  5 30  1  0  0  0  0
  5 31  1  0  0  0  0
  6  7  1  0  0  0  0
  6 21  1  0  0  0  0
  6 32  1  0  0  0  0
  7  8  1  0  0  0  0
  8  9  1  0  0  0  0
  8 33  1  0  0  0  0
  8 34  1  0  0  0  0
  9 10  2  0  0  0  0
  9 11  1  0  0  0  0
 11 12  1  0  0  0  0
 11 35  1  0  0  0  0
 12 20  1  0  0  0  0
 12 13  2  0  0  0  0
 13 14  1  0  0  0  0
 13 36  1  0  0  0  0
 14 15  2  0  0  0  0
 14 37  1  0  0  0  0
 15 16  1  0  0  0  0
 16 17  1  0  0  0  0
 16 20  2  0  0  0  0
 17 18  1  0  0  0  0
 17 19  1  0  0  0  0
 18 38  1  0  0  0  0
 18 39  1  0  0  0  0
 18 40  1  0  0  0  0
 19 41  1  0  0  0  0
 19 42  1  0  0  0  0
 19 43  1  0  0  0  0
 21 44  1  0  0  0  0
 21 45  1  0  0  0  0
M  END
> <s_m_source_file>
AV-unprocessed.smi

> <i_m_source_file_index>
3014

> <i_lp_mmshare_version>
43012

> <i_f3d_flags>
0

> <s_epik_input>
W0NIM11bQ0BASF0xW0NIMl1bQ0gyXVtDSDJdW0NASF0oW0NIMl0xKU9bQ0gyXUMoPU8pW05IXWMyW2NIXVtjSF1uYyhuMilOKFtDSDNdKVtDSDNd

> <s_epik_cmdline>
J2VwaWtfcHl0aG9uJywgJy1waCcsICc3LjAnLCAnLXRuJywgJzgnLCAnLW1hJywgJzIwMCcsICctbWV0YWxfYmluZGluZycsICctaW1hZScsICc8aW5maWxlLm1hZT4nLCAnLW9tYWUnLCAnPG91dGZpbGUubWFlPic=

> <r_lp_tautomer_probability>
1

> <r_epik_Ionization_Penalty>
0.000308195

> <r_epik_Ionization_Penalty_Charging>
0

> <r_epik_Ionization_Penalty_Neutral>
0.000308195

> <r_epik_State_Penalty>
-0

> <r_epik_Charging_Adjusted_Penalty>
0

> <i_epik_Tot_Q>
0

> <i_epik_Tot_abs_Q>
0

> <r_epik_Metal_State_Penalty>
-0

> <b_epik_Metal_Only>
0

> <s_lp_Force_Field>
OPLS_2005

> <r_lp_Energy>
8.92974

> <b_lp_Chiralities_Consistent>
1

> <s_lp_Variant>
AV-unprocessed.smi:3014-3

> <Gold.Version>
5.8.1

> <Gold.Id.Protein>
6NUR|6NUR_protein|mol2

> <Gold.PLP.Fitness>
47.3229

> <Gold.PLP.PLP>
-40.7616

> <Gold.PLP.part.hbond>
-2.0000

> <Gold.PLP.part.metal>
0.0000

> <Gold.PLP.part.buried>
-5.0351

> <Gold.PLP.part.nonpolar>
-33.6502

> <Gold.PLP.part.repulsive>
0.3516

> <Gold.PLP.ligand.clash>
0.0000

> <Gold.PLP.ligand.torsion>
1.1972

> <Gold.PLP.Chemscore.Hbond>
1.9920

> <Gold.PLP.Chemscore.CHOScore>
0.9868

> <Gold.PLP.Chemscore.Metal>
0.0000

> <Gold.Chemscore.Hbonds>
donor molecule, donor type, donor heavy atom, donor atom, acceptor molecule, acceptor atom, score
      P1  H  7989  7998       L1    10  1.00
      P1  H  7997  8008       L1     7  0.94
      L1  C    14    37       P1  7957  0.98

> <Gold.PLP.Chemscore.Internal.Correction>
0.0193

> <Gold.Rescore>
     Score         DG    S(hbond)    S(metal)    S(lipo)     H(rot)  DE(clash)    DE(int)     intcor
     17.50     -19.89       1.93        0.00      99.26       1.43       0.01       2.39       ----

> <Gold.Chemscore.Fitness>
17.4962

> <Gold.Chemscore.DG>
-19.8909

> <Gold.Chemscore.ZeroCoef>
-5.4800

> <Gold.Chemscore.Hbond>
1.9344

> <Gold.Chemscore.Metal>
0.0000

> <Gold.Chemscore.Lipo>
99.2597

> <Gold.Chemscore.Internal_Hbond>
0.0000

> <Gold.Chemscore.DEClash>
0.0082

> <Gold.Chemscore.DEInternal>
2.3866

> <Gold.Chemscore.Rot>
1.4310

> <Gold.Chemscore.Internal.Correction>
   9.000000E+99

> <Gold.Chemscore.Hbonds>
donor molecule, donor type, donor heavy atom, donor atom, acceptor molecule, acceptor atom, score
      P1  H  7989  7998       L1    10  0.95
      P1  H  7997  8008       L1     7  0.36

> <Gold.Chemscore.Hbond.Weighted>
-6.4608

> <Gold.Chemscore.Metal.Weighted>
-0.0000

> <Gold.Chemscore.Lipo.Weighted>
-11.6134

> <Gold.Chemscore.Internal_Hbond.Weighted>
0.0000

> <Gold.Chemscore.DEClash.Weighted>
0.0082

> <Gold.Chemscore.DEInternal.Weighted>
2.3866

> <Gold.Chemscore.Rot.Weighted>
3.6632

> <Gold.Chemscore.Internal.Correction.Weighted>
   9.000000E+99

> <Gold.Protein.RotatedTorsions>
[ 6907 6896 6895 6894 ] final  -34.33 input  -60.11 | X-H torsion
[ 7974 7965 7964 7962 ] final   20.31 input  175.53 | X-H torsion
[ 8008 7997 7996 7995 ] final  -71.41 input   59.86 | X-H torsion
[ 10167 10162 10161 10158 ] final  -15.46 input  -65.29 | X-H torsion
[ 10718 10713 10712 10709 ] final  103.80 input   66.30 | X-H torsion
[ 10763 10752 10751 10750 ] final  -42.49 input  -60.55 | X-H torsion
[ 11005 11000 10999 10996 ] final -169.63 input  -57.11 | X-H torsion

> <Gold.Protein.ActiveResidues>
 VAL166  LYS551  ARG553  GLY616  TRP617  ASP618  TYR619  PRO620  LYS621  CYS622 
 ASP623  PHE694  ASN695  SER759  ASP760  ASP761  ALA762  ILE779  LEU786  VAL792 
 PHE793  MET794  SER795  GLU796  ALA797  LYS798  CYS799  TRP800  GLU811  SER814 

> <Gold.Protein.RotatedAtoms>
  151.0540  134.9692  159.8226 H   0  0  0  0  0  0  0  0  0  0  0  0  # atno 6907 bound_to 6896
  152.5385  134.2501  159.8905 H   0  0  0  0  0  0  0  0  0  0  0  0  # atno 6908 bound_to 6896
  151.2518  133.4303  159.2645 H   0  0  0  0  0  0  0  0  0  0  0  0  # atno 6909 bound_to 6896
  146.2116  139.8188  142.8684 H   0  0  0  0  0  0  0  0  0  0  0  0  # atno 7974 bound_to 7965
  154.5086  140.0816  156.7944 H   0  0  0  0  0  0  0  0  0  0  0  0  # atno 8008 bound_to 7997
  155.3837  140.3429  155.4230 H   0  0  0  0  0  0  0  0  0  0  0  0  # atno 8009 bound_to 7997
  156.1546  140.1569  156.8702 H   0  0  0  0  0  0  0  0  0  0  0  0  # atno 8010 bound_to 7997
  140.7218  143.5216  150.9626 H   0  0  0  0  0  0  0  0  0  0  0  0  # atno 10167 bound_to 10162
  157.6761  131.0788  150.5609 H   0  0  0  0  0  0  0  0  0  0  0  0  # atno 10718 bound_to 10713
  153.9798  135.6718  153.4749 H   0  0  0  0  0  0  0  0  0  0  0  0  # atno 10763 bound_to 10752
  153.0753  135.4952  154.8388 H   0  0  0  0  0  0  0  0  0  0  0  0  # atno 10764 bound_to 10752
  154.7171  135.3109  154.9068 H   0  0  0  0  0  0  0  0  0  0  0  0  # atno 10765 bound_to 10752
  140.5286  134.5639  157.5068 H   0  0  0  0  0  0  0  0  0  0  0  0  # atno 11005 bound_to 11000
  145.3118  141.0221  143.3550 LP  0  0  0  0  0  0  0  0  0  0  0  0  # atno 17320 bound_to 7965
  144.8930  139.4749  143.6669 LP  0  0  0  0  0  0  0  0  0  0  0  0  # atno 17321 bound_to 7965
  139.8934  143.6925  152.3142 LP  0  0  0  0  0  0  0  0  0  0  0  0  # atno 17342 bound_to 10162
  139.7249  144.7595  151.0895 LP  0  0  0  0  0  0  0  0  0  0  0  0  # atno 17343 bound_to 10162
  156.5912  130.4330  149.5936 LP  0  0  0  0  0  0  0  0  0  0  0  0  # atno 17370 bound_to 10713
  156.2582  130.6947  151.1707 LP  0  0  0  0  0  0  0  0  0  0  0  0  # atno 17371 bound_to 10713
  139.9567  134.7523  156.0327 LP  0  0  0  0  0  0  0  0  0  0  0  0  # atno 17394 bound_to 11000
  141.1294  133.6590  156.3424 LP  0  0  0  0  0  0  0  0  0  0  0  0  # atno 17395 bound_to 11000

$$$$
