AV-unprocessed.smi:2669|AV-procd|sdf|10343|dock5
  -GOLD-   2272014363D 1   1.00000     0.00000
 Structure written by MMmdl.
 39 41  0  0  0  0  0  0  0  0  1 V2000
  148.0206  142.8086  158.5026 C   0  0  0  0  0  0  0  0  0  0  0  0
  149.0877  142.6043  157.5358 N   0  0  0  0  0  0  0  0  0  0  0  0
  150.2843  141.9817  157.9174 C   0  0  0  0  0  0  0  0  0  0  0  0
  150.8485  142.2807  159.1107 N   0  0  0  0  0  0  0  0  0  0  0  0
  151.9936  141.6663  159.4341 C   0  0  0  0  0  0  0  0  0  0  0  0
  152.6967  140.7641  158.7323 N   0  0  0  0  0  0  0  0  0  0  0  0
  152.1446  140.4584  157.5503 C   0  0  0  0  0  0  0  0  0  0  0  0
  152.6527  139.5619  156.6261 N   0  0  0  0  0  0  0  0  0  0  0  0
  151.7435  139.6290  155.6570 C   0  0  0  0  0  0  0  0  0  0  0  0
  150.7001  140.4622  155.8380 N   0  0  0  0  0  0  0  0  0  0  0  0
  149.6041  140.6774  154.9079 C   0  0  0  0  0  0  0  0  0  0  0  0
  148.9027  139.3654  154.5037 C   0  0  2  0  0  0  0  0  0  0  0  0
  149.5688  138.7771  153.4039 O   0  0  0  0  0  0  0  0  0  0  0  0
  147.4316  139.5818  154.1196 C   0  0  0  0  0  0  0  0  0  0  0  0
  146.7940  140.3378  155.1406 O   0  0  0  0  0  0  0  0  0  0  0  0
  146.2331  141.5503  154.8021 C   0  0  0  0  0  0  0  0  0  0  0  0
  145.2335  142.0541  155.6599 C   0  0  0  0  0  0  0  0  0  0  0  0
  144.6067  143.2863  155.3919 C   0  0  0  0  0  0  0  0  0  0  0  0
  144.9761  144.0308  154.2561 C   0  0  0  0  0  0  0  0  0  0  0  0
  144.2115  145.5416  153.9253 Cl  0  0  0  0  0  0  0  0  0  0  0  0
  145.9711  143.5394  153.3907 C   0  0  0  0  0  0  0  0  0  0  0  0
  146.5974  142.3066  153.6592 C   0  0  0  0  0  0  0  0  0  0  0  0
  150.9257  141.0401  157.0869 C   0  0  0  0  0  0  0  0  0  0  0  0
  147.2058  143.3690  158.0444 H   0  0  0  0  0  0  0  0  0  0  0  0
  148.3797  143.3728  159.3640 H   0  0  0  0  0  0  0  0  0  0  0  0
  147.6257  141.8530  158.8487 H   0  0  0  0  0  0  0  0  0  0  0  0
  149.0268  143.0574  156.6352 H   0  0  0  0  0  0  0  0  0  0  0  0
  152.4099  141.9349  160.3935 H   0  0  0  0  0  0  0  0  0  0  0  0
  151.8408  139.0352  154.7599 H   0  0  0  0  0  0  0  0  0  0  0  0
  148.8883  141.3498  155.3828 H   0  0  0  0  0  0  0  0  0  0  0  0
  149.9767  141.2064  154.0315 H   0  0  0  0  0  0  0  0  0  0  0  0
  148.9531  138.6568  155.3316 H   0  0  0  0  0  0  0  0  0  0  0  0
  149.3715  139.2799  152.6283 H   0  0  0  0  0  0  0  0  0  0  0  0
  147.3679  140.0954  153.1585 H   0  0  0  0  0  0  0  0  0  0  0  0
  146.9321  138.6163  154.0217 H   0  0  0  0  0  0  0  0  0  0  0  0
  144.9443  141.4898  156.5344 H   0  0  0  0  0  0  0  0  0  0  0  0
  143.8433  143.6584  156.0593 H   0  0  0  0  0  0  0  0  0  0  0  0
  146.2568  144.1079  152.5177 H   0  0  0  0  0  0  0  0  0  0  0  0
  147.3550  141.9634  152.9714 H   0  0  0  0  0  0  0  0  0  0  0  0
  1  2  1  0  0  0  0
  1 24  1  0  0  0  0
  1 25  1  0  0  0  0
  1 26  1  0  0  0  0
  2  3  1  0  0  0  0
  2 27  1  0  0  0  0
  3 23  1  0  0  0  0
  3  4  2  0  0  0  0
  4  5  1  0  0  0  0
  5  6  2  0  0  0  0
  5 28  1  0  0  0  0
  6  7  1  0  0  0  0
  7 23  2  0  0  0  0
  7  8  1  0  0  0  0
  8  9  2  0  0  0  0
  9 10  1  0  0  0  0
  9 29  1  0  0  0  0
 10 11  1  0  0  0  0
 10 23  1  0  0  0  0
 11 12  1  0  0  0  0
 11 30  1  0  0  0  0
 11 31  1  0  0  0  0
 12 13  1  0  0  0  0
 12 14  1  0  0  0  0
 12 32  1  0  0  0  0
 13 33  1  0  0  0  0
 14 15  1  0  0  0  0
 14 34  1  0  0  0  0
 14 35  1  0  0  0  0
 15 16  1  0  0  0  0
 16 22  1  0  0  0  0
 16 17  2  0  0  0  0
 17 18  1  0  0  0  0
 17 36  1  0  0  0  0
 18 19  2  0  0  0  0
 18 37  1  0  0  0  0
 19 20  1  0  0  0  0
 19 21  1  0  0  0  0
 21 22  2  0  0  0  0
 21 38  1  0  0  0  0
 22 39  1  0  0  0  0
M  END
> <s_m_source_file>
AV-unprocessed.smi

> <i_m_source_file_index>
2669

> <i_lp_mmshare_version>
43012

> <i_f3d_flags>
0

> <s_epik_input>
bjFbY0hdbmMoW05IXVtDSDNdKWMoYzEyKW4oW2NIXW4yKVtDSDJdW0NASF0oW09IXSlbQ0gyXU9jM1tjSF1bY0hdYyhDbClbY0hdW2NIXTM=

> <s_epik_cmdline>
J2VwaWtfcHl0aG9uJywgJy1waCcsICc3LjAnLCAnLXRuJywgJzgnLCAnLW1hJywgJzIwMCcsICctbWV0YWxfYmluZGluZycsICctaW1hZScsICc8aW5maWxlLm1hZT4nLCAnLW9tYWUnLCAnPG91dGZpbGUubWFlPic=

> <r_lp_tautomer_probability>
1

> <r_epik_Ionization_Penalty>
0.00733592

> <r_epik_Ionization_Penalty_Charging>
0

> <r_epik_Ionization_Penalty_Neutral>
0.00733592

> <r_epik_State_Penalty>
-0

> <r_epik_Charging_Adjusted_Penalty>
0

> <i_epik_Tot_Q>
0

> <i_epik_Tot_abs_Q>
0

> <r_epik_Metal_State_Penalty>
-0

> <b_epik_Metal_Only>
0

> <s_lp_Force_Field>
OPLS_2005

> <r_lp_Energy>
12.7517

> <b_lp_Chiralities_Consistent>
1

> <s_lp_Variant>
AV-unprocessed.smi:2669-1

> <Gold.Version>
5.8.1

> <Gold.Id.Protein>
6NUR|6NUR_protein|mol2

> <Gold.PLP.Fitness>
48.5369

> <Gold.PLP.PLP>
-42.3786

> <Gold.PLP.part.hbond>
-4.2958

> <Gold.PLP.part.metal>
0.0000

> <Gold.PLP.part.buried>
-7.5187

> <Gold.PLP.part.nonpolar>
-30.4453

> <Gold.PLP.part.repulsive>
0.1209

> <Gold.PLP.ligand.clash>
0.0000

> <Gold.PLP.ligand.torsion>
1.3967

> <Gold.PLP.Chemscore.Hbond>
2.9760

> <Gold.PLP.Chemscore.CHOScore>
0.0000

> <Gold.PLP.Chemscore.Metal>
0.0000

> <Gold.Chemscore.Hbonds>
donor molecule, donor type, donor heavy atom, donor atom, acceptor molecule, acceptor atom, score
      L1  H     2    27       P1  8028  0.93
      L1  H    13    33       P1  7957  1.00
      P1  H  7997  8008       L1     8  1.00

> <Gold.PLP.Chemscore.Internal.Correction>
0.0237

> <Gold.Rescore>
     Score         DG    S(hbond)    S(metal)    S(lipo)     H(rot)  DE(clash)    DE(int)     intcor
     12.81     -14.46       2.71        0.00      64.36       2.97       0.03       1.62       ----

> <Gold.Chemscore.Fitness>
12.8053

> <Gold.Chemscore.DG>
-14.4587

> <Gold.Chemscore.ZeroCoef>
-5.4800

> <Gold.Chemscore.Hbond>
2.7137

> <Gold.Chemscore.Metal>
0.0000

> <Gold.Chemscore.Lipo>
64.3585

> <Gold.Chemscore.Internal_Hbond>
0.0000

> <Gold.Chemscore.DEClash>
0.0295

> <Gold.Chemscore.DEInternal>
1.6240

> <Gold.Chemscore.Rot>
2.9746

> <Gold.Chemscore.Internal.Correction>
   9.000000E+99

> <Gold.Chemscore.Hbonds>
donor molecule, donor type, donor heavy atom, donor atom, acceptor molecule, acceptor atom, score
      L1  H     2    27       P1  8028  0.88
      L1  H    13    33       P1  7957  0.99
      P1  H  7997  8008       L1     8  0.54

> <Gold.Chemscore.Hbond.Weighted>
-9.0638

> <Gold.Chemscore.Metal.Weighted>
-0.0000

> <Gold.Chemscore.Lipo.Weighted>
-7.5299

> <Gold.Chemscore.Internal_Hbond.Weighted>
0.0000

> <Gold.Chemscore.DEClash.Weighted>
0.0295

> <Gold.Chemscore.DEInternal.Weighted>
1.6240

> <Gold.Chemscore.Rot.Weighted>
7.6150

> <Gold.Chemscore.Internal.Correction.Weighted>
   9.000000E+99

> <Gold.Protein.RotatedTorsions>
[ 6907 6896 6895 6894 ] final -165.69 input  -60.11 | X-H torsion
[ 7974 7965 7964 7962 ] final -173.96 input  175.53 | X-H torsion
[ 8008 7997 7996 7995 ] final  -32.30 input   59.86 | X-H torsion
[ 10167 10162 10161 10158 ] final  105.97 input  -65.29 | X-H torsion
[ 10718 10713 10712 10709 ] final  -87.13 input   66.30 | X-H torsion
[ 10763 10752 10751 10750 ] final  -91.74 input  -60.55 | X-H torsion
[ 11005 11000 10999 10996 ] final  175.72 input  -57.11 | X-H torsion

> <Gold.Protein.ActiveResidues>
 VAL166  LYS551  ARG553  GLY616  TRP617  ASP618  TYR619  PRO620  LYS621  CYS622 
 ASP623  PHE694  ASN695  SER759  ASP760  ASP761  ALA762  ILE779  LEU786  VAL792 
 PHE793  MET794  SER795  GLU796  ALA797  LYS798  CYS799  TRP800  GLU811  SER814 

> <Gold.Protein.RotatedAtoms>
  151.4317  133.3668  159.2769 H   0  0  0  0  0  0  0  0  0  0  0  0  # atno 6907 bound_to 6896
  150.9221  134.8639  159.7506 H   0  0  0  0  0  0  0  0  0  0  0  0  # atno 6908 bound_to 6896
  152.4987  134.4255  159.9547 H   0  0  0  0  0  0  0  0  0  0  0  0  # atno 6909 bound_to 6896
  144.7134  140.1543  143.6381 H   0  0  0  0  0  0  0  0  0  0  0  0  # atno 7974 bound_to 7965
  154.4184  140.1741  156.1704 H   0  0  0  0  0  0  0  0  0  0  0  0  # atno 8008 bound_to 7997
  155.9765  140.3381  155.6599 H   0  0  0  0  0  0  0  0  0  0  0  0  # atno 8009 bound_to 7997
  155.6557  140.0695  157.2562 H   0  0  0  0  0  0  0  0  0  0  0  0  # atno 8010 bound_to 7997
  139.7048  144.7088  151.1125 H   0  0  0  0  0  0  0  0  0  0  0  0  # atno 10167 bound_to 10162
  155.9986  130.4789  150.4820 H   0  0  0  0  0  0  0  0  0  0  0  0  # atno 10718 bound_to 10713
  154.6791  135.5257  153.8239 H   0  0  0  0  0  0  0  0  0  0  0  0  # atno 10763 bound_to 10752
  153.0552  135.6548  154.0604 H   0  0  0  0  0  0  0  0  0  0  0  0  # atno 10764 bound_to 10752
  154.0493  135.2970  155.3323 H   0  0  0  0  0  0  0  0  0  0  0  0  # atno 10765 bound_to 10752
  140.3653  134.7077  157.4357 H   0  0  0  0  0  0  0  0  0  0  0  0  # atno 11005 bound_to 11000
  145.9088  139.2474  143.1450 LP  0  0  0  0  0  0  0  0  0  0  0  0  # atno 17320 bound_to 7965
  145.9737  140.8739  143.0149 LP  0  0  0  0  0  0  0  0  0  0  0  0  # atno 17321 bound_to 7965
  140.7719  143.5374  150.9352 LP  0  0  0  0  0  0  0  0  0  0  0  0  # atno 17342 bound_to 10162
  139.9057  143.6781  152.3124 LP  0  0  0  0  0  0  0  0  0  0  0  0  # atno 17343 bound_to 10162
  157.2824  131.0609  151.2188 LP  0  0  0  0  0  0  0  0  0  0  0  0  # atno 17370 bound_to 10713
  157.3230  130.6946  149.6280 LP  0  0  0  0  0  0  0  0  0  0  0  0  # atno 17371 bound_to 10713
  140.0594  134.6017  155.8766 LP  0  0  0  0  0  0  0  0  0  0  0  0  # atno 17394 bound_to 11000
  141.1971  133.6595  156.5727 LP  0  0  0  0  0  0  0  0  0  0  0  0  # atno 17395 bound_to 11000

$$$$
