AV-unprocessed.smi:195|AV-procd|sdf|1526|dock8
  -GOLD-   2262019373D 1   1.00000     0.00000
 Structure written by MMmdl.
 45 48  0  0  0  0  0  0  0  0  1 V2000
  148.6415  134.8133  159.2173 N   0  0  0  0  0  0  0  0  0  0  0  0
  148.6643  135.4681  158.2638 C   0  0  0  0  0  0  0  0  0  0  0  0
  148.6932  136.3020  157.0519 C   0  0  0  0  0  0  0  0  0  0  0  0
  149.1333  135.5401  155.7983 C   0  0  0  0  0  0  0  0  0  0  0  0
  148.1036  134.6019  155.5658 O   0  0  0  0  0  0  0  0  0  0  0  0
  149.5451  136.3701  154.5785 C   0  0  0  0  0  0  0  0  0  0  0  0
  150.9370  136.1106  154.9382 N   0  0  0  0  0  0  0  0  0  0  0  0
  151.5774  137.2129  155.5873 C   0  0  0  0  0  0  0  0  0  0  0  0
  152.7607  137.0491  156.2393 N   0  0  0  0  0  0  0  0  0  0  0  0
  153.3667  138.0744  156.8447 C   0  0  0  0  0  0  0  0  0  0  0  0
  152.9780  139.3475  156.9152 N   0  0  0  0  0  0  0  0  0  0  0  0
  151.8050  139.5352  156.2480 C   0  0  0  0  0  0  0  0  0  0  0  0
  151.0531  138.5376  155.5640 C   0  0  0  0  0  0  0  0  0  0  0  0
  149.9198  139.1102  154.9976 N   0  0  0  0  0  0  0  0  0  0  0  0
  149.9939  140.3695  155.3336 C   0  0  0  0  0  0  0  0  0  0  0  0
  151.0932  140.7099  156.0879 N   0  0  0  0  0  0  0  0  0  0  0  0
  151.4271  142.0265  156.6017 C   0  0  0  0  0  0  0  0  0  0  0  0
  151.5167  142.0495  158.1406 C   0  0  2  0  0  0  0  0  0  0  0  0
  150.2113  141.9688  158.6812 O   0  0  0  0  0  0  0  0  0  0  0  0
  152.1971  143.3260  158.6697 C   0  0  1  0  0  0  0  0  0  0  0  0
  151.4387  144.6195  158.3621 C   0  0  0  0  0  0  0  0  0  0  0  0
  151.9197  145.5303  159.4674 C   0  0  0  0  0  0  0  0  0  0  0  0
  151.9819  144.5681  160.6483 C   0  0  0  0  0  0  0  0  0  0  0  0
  152.2865  143.2910  160.0937 O   0  0  0  0  0  0  0  0  0  0  0  0
  150.5533  134.9649  155.7637 C   0  0  0  0  0  0  0  0  0  0  0  0
  147.7031  136.7396  156.9200 H   0  0  0  0  0  0  0  0  0  0  0  0
  149.3679  137.1322  157.2592 H   0  0  0  0  0  0  0  0  0  0  0  0
  147.4003  135.0646  155.1364 H   0  0  0  0  0  0  0  0  0  0  0  0
  149.2790  135.9073  153.6273 H   0  0  0  0  0  0  0  0  0  0  0  0
  149.2308  137.4136  154.6234 H   0  0  0  0  0  0  0  0  0  0  0  0
  154.2966  137.8404  157.3420 H   0  0  0  0  0  0  0  0  0  0  0  0
  149.2416  141.0881  155.0421 H   0  0  0  0  0  0  0  0  0  0  0  0
  152.3783  142.3278  156.1615 H   0  0  0  0  0  0  0  0  0  0  0  0
  150.6814  142.7405  156.2490 H   0  0  0  0  0  0  0  0  0  0  0  0
  152.0765  141.1775  158.4818 H   0  0  0  0  0  0  0  0  0  0  0  0
  149.7257  141.3196  158.1955 H   0  0  0  0  0  0  0  0  0  0  0  0
  153.2125  143.4054  158.2774 H   0  0  0  0  0  0  0  0  0  0  0  0
  151.6487  145.0099  157.3660 H   0  0  0  0  0  0  0  0  0  0  0  0
  150.3619  144.4662  158.4490 H   0  0  0  0  0  0  0  0  0  0  0  0
  152.9161  145.9087  159.2350 H   0  0  0  0  0  0  0  0  0  0  0  0
  151.2611  146.3811  159.6431 H   0  0  0  0  0  0  0  0  0  0  0  0
  152.7206  144.8682  161.3920 H   0  0  0  0  0  0  0  0  0  0  0  0
  151.0105  144.5075  161.1408 H   0  0  0  0  0  0  0  0  0  0  0  0
  151.0344  134.8680  156.7366 H   0  0  0  0  0  0  0  0  0  0  0  0
  150.6206  134.0326  155.2011 H   0  0  0  0  0  0  0  0  0  0  0  0
  1  2  3  0  0  0  0
  2  3  1  0  0  0  0
  3  4  1  0  0  0  0
  3 26  1  0  0  0  0
  3 27  1  0  0  0  0
  4 25  1  0  0  0  0
  4  5  1  0  0  0  0
  4  6  1  0  0  0  0
  5 28  1  0  0  0  0
  6  7  1  0  0  0  0
  6 29  1  0  0  0  0
  6 30  1  0  0  0  0
  7  8  1  0  0  0  0
  7 25  1  0  0  0  0
  8 13  1  0  0  0  0
  8  9  2  0  0  0  0
  9 10  1  0  0  0  0
 10 11  2  0  0  0  0
 10 31  1  0  0  0  0
 11 12  1  0  0  0  0
 12 16  1  0  0  0  0
 12 13  2  0  0  0  0
 13 14  1  0  0  0  0
 14 15  2  0  0  0  0
 15 16  1  0  0  0  0
 15 32  1  0  0  0  0
 16 17  1  0  0  0  0
 17 18  1  0  0  0  0
 17 33  1  0  0  0  0
 17 34  1  0  0  0  0
 18 19  1  0  0  0  0
 18 20  1  0  0  0  0
 18 35  1  0  0  0  0
 19 36  1  0  0  0  0
 20 24  1  0  0  0  0
 20 21  1  0  0  0  0
 20 37  1  0  0  0  0
 21 22  1  0  0  0  0
 21 38  1  0  0  0  0
 21 39  1  0  0  0  0
 22 23  1  0  0  0  0
 22 40  1  0  0  0  0
 22 41  1  0  0  0  0
 23 24  1  0  0  0  0
 23 42  1  0  0  0  0
 23 43  1  0  0  0  0
 25 44  1  0  0  0  0
 25 45  1  0  0  0  0
M  END
> <s_m_source_file>
AV-unprocessed.smi

> <i_m_source_file_index>
195

> <i_lp_mmshare_version>
43012

> <i_f3d_flags>
0

> <s_epik_input>
TiNDW0NIMl1DMShbT0hdKVtDSDJdTihbQ0gyXTEpYyhuW2NIXW4yKWMoYzIzKW5bY0hdbjNbQ0gyXVtDQEhdKFtPSF0pW0NAQEhdNFtDSDJdW0NIMl1bQ0gyXU80

> <s_epik_cmdline>
J2VwaWtfcHl0aG9uJywgJy1waCcsICc3LjAnLCAnLXRuJywgJzgnLCAnLW1hJywgJzIwMCcsICctbWV0YWxfYmluZGluZycsICctaW1hZScsICc8aW5maWxlLm1hZT4nLCAnLW9tYWUnLCAnPG91dGZpbGUubWFlPic=

> <r_lp_tautomer_probability>
1

> <r_epik_Ionization_Penalty>
0.00307146

> <r_epik_Ionization_Penalty_Charging>
0

> <r_epik_Ionization_Penalty_Neutral>
0.00307146

> <r_epik_State_Penalty>
0.0020279

> <r_epik_Charging_Adjusted_Penalty>
0.0020279

> <i_epik_Tot_Q>
0

> <i_epik_Tot_abs_Q>
0

> <r_epik_Metal_State_Penalty>
-0

> <b_epik_Metal_Only>
0

> <s_lp_Force_Field>
OPLS_2005

> <r_lp_Energy>
44.1004

> <b_lp_Chiralities_Consistent>
1

> <s_lp_Variant>
AV-unprocessed.smi:195-3

> <Gold.Version>
5.8.1

> <Gold.Id.Protein>
6NUR|6NUR_protein|mol2

> <Gold.PLP.Fitness>
44.3856

> <Gold.PLP.PLP>
-36.5614

> <Gold.PLP.part.hbond>
-4.1398

> <Gold.PLP.part.metal>
0.0000

> <Gold.PLP.part.buried>
-2.5178

> <Gold.PLP.part.nonpolar>
-30.5986

> <Gold.PLP.part.repulsive>
0.2598

> <Gold.PLP.ligand.clash>
0.0000

> <Gold.PLP.ligand.torsion>
0.3593

> <Gold.PLP.Chemscore.Hbond>
2.7360

> <Gold.PLP.Chemscore.CHOScore>
0.0000

> <Gold.PLP.Chemscore.Metal>
0.0000

> <Gold.Chemscore.Hbonds>
donor molecule, donor type, donor heavy atom, donor atom, acceptor molecule, acceptor atom, score
      P1  H  6896  6909       L1     1  0.93
      P1  H  7997  8009       L1    11  1.00
      P1  H 10752 10764       L1     9  0.74

> <Gold.PLP.Chemscore.Internal.Correction>
0.3347

> <Gold.Rescore>
     Score         DG    S(hbond)    S(metal)    S(lipo)     H(rot)  DE(clash)    DE(int)     intcor
      9.00     -14.05       2.33        0.00      88.07       3.72       3.28       1.76       ----

> <Gold.Chemscore.Fitness>
9.0047

> <Gold.Chemscore.DG>
-14.0464

> <Gold.Chemscore.ZeroCoef>
-5.4800

> <Gold.Chemscore.Hbond>
2.3317

> <Gold.Chemscore.Metal>
0.0000

> <Gold.Chemscore.Lipo>
88.0687

> <Gold.Chemscore.Internal_Hbond>
0.0000

> <Gold.Chemscore.DEClash>
3.2813

> <Gold.Chemscore.DEInternal>
1.7604

> <Gold.Chemscore.Rot>
3.7210

> <Gold.Chemscore.Internal.Correction>
   9.000000E+99

> <Gold.Chemscore.Hbonds>
donor molecule, donor type, donor heavy atom, donor atom, acceptor molecule, acceptor atom, score
      P1  H  6896  6909       L1     1  0.35
      P1  H  7997  8009       L1    11  0.29
      P1  H 10752 10764       L1     9  0.18

> <Gold.Chemscore.Hbond.Weighted>
-7.7880

> <Gold.Chemscore.Metal.Weighted>
-0.0000

> <Gold.Chemscore.Lipo.Weighted>
-10.3040

> <Gold.Chemscore.Internal_Hbond.Weighted>
0.0000

> <Gold.Chemscore.DEClash.Weighted>
3.2813

> <Gold.Chemscore.DEInternal.Weighted>
1.7604

> <Gold.Chemscore.Rot.Weighted>
9.5256

> <Gold.Chemscore.Internal.Correction.Weighted>
   9.000000E+99

> <Gold.Protein.RotatedTorsions>
[ 6907 6896 6895 6894 ] final   30.71 input  -60.11 | X-H torsion
[ 7974 7965 7964 7962 ] final  -24.40 input  175.53 | X-H torsion
[ 8008 7997 7996 7995 ] final -164.79 input   59.86 | X-H torsion
[ 10167 10162 10161 10158 ] final  -71.41 input  -65.29 | X-H torsion
[ 10718 10713 10712 10709 ] final   68.04 input   66.30 | X-H torsion
[ 10763 10752 10751 10750 ] final   -6.06 input  -60.55 | X-H torsion
[ 11005 11000 10999 10996 ] final  -61.48 input  -57.11 | X-H torsion

> <Gold.Protein.ActiveResidues>
 VAL166  LYS551  ARG553  GLY616  TRP617  ASP618  TYR619  PRO620  LYS621  CYS622 
 ASP623  PHE694  ASN695  SER759  ASP760  ASP761  ALA762  ILE779  LEU786  VAL792 
 PHE793  MET794  SER795  GLU796  ALA797  LYS798  CYS799  TRP800  GLU811  SER814 

> <Gold.Protein.RotatedAtoms>
  152.0499  134.9660  160.0574 H   0  0  0  0  0  0  0  0  0  0  0  0  # atno 6907 bound_to 6896
  152.1065  133.4273  159.4619 H   0  0  0  0  0  0  0  0  0  0  0  0  # atno 6908 bound_to 6896
  150.6841  134.2618  159.4595 H   0  0  0  0  0  0  0  0  0  0  0  0  # atno 6909 bound_to 6896
  146.1557  140.4746  142.8592 H   0  0  0  0  0  0  0  0  0  0  0  0  # atno 7974 bound_to 7965
  155.8406  140.0948  157.1737 H   0  0  0  0  0  0  0  0  0  0  0  0  # atno 8008 bound_to 7997
  154.3982  140.1402  156.3785 H   0  0  0  0  0  0  0  0  0  0  0  0  # atno 8009 bound_to 7997
  155.8068  140.3451  155.5437 H   0  0  0  0  0  0  0  0  0  0  0  0  # atno 8010 bound_to 7997
  140.5275  143.2325  151.7320 H   0  0  0  0  0  0  0  0  0  0  0  0  # atno 10167 bound_to 10162
  157.6266  130.9352  150.0323 H   0  0  0  0  0  0  0  0  0  0  0  0  # atno 10718 bound_to 10713
  153.4071  135.7006  153.6385 H   0  0  0  0  0  0  0  0  0  0  0  0  # atno 10763 bound_to 10752
  153.4894  135.3676  155.2484 H   0  0  0  0  0  0  0  0  0  0  0  0  # atno 10764 bound_to 10752
  154.8714  135.4085  154.3417 H   0  0  0  0  0  0  0  0  0  0  0  0  # atno 10765 bound_to 10752
  141.1326  133.6630  156.5381 H   0  0  0  0  0  0  0  0  0  0  0  0  # atno 11005 bound_to 11000
  144.7960  140.6124  143.6509 LP  0  0  0  0  0  0  0  0  0  0  0  0  # atno 17320 bound_to 7965
  145.4714  139.1503  143.3812 LP  0  0  0  0  0  0  0  0  0  0  0  0  # atno 17321 bound_to 7965
  139.4943  144.4163  152.0026 LP  0  0  0  0  0  0  0  0  0  0  0  0  # atno 17342 bound_to 10162
  140.3263  144.3369  150.5997 LP  0  0  0  0  0  0  0  0  0  0  0  0  # atno 17343 bound_to 10162
  156.1442  130.3642  149.9536 LP  0  0  0  0  0  0  0  0  0  0  0  0  # atno 17370 bound_to 10713
  156.7570  130.9137  151.3640 LP  0  0  0  0  0  0  0  0  0  0  0  0  # atno 17371 bound_to 10713
  140.4162  134.7228  157.4864 LP  0  0  0  0  0  0  0  0  0  0  0  0  # atno 17394 bound_to 11000
  140.0392  134.6292  155.9003 LP  0  0  0  0  0  0  0  0  0  0  0  0  # atno 17395 bound_to 11000

$$$$
