AV-unprocessed.smi:767|AV-procd|sdf|3664|dock2
  -GOLD-   22720 1 73D 1   1.00000     0.00000
 Structure written by MMmdl.
 47 49  0  0  0  0  0  0  0  0  1 V2000
  145.8382  130.0784  151.7427 C   0  0  0  0  0  0  0  0  0  0  0  0
  145.5442  131.5435  151.4981 C   0  0  0  0  0  0  0  0  0  0  0  0
  144.3021  131.9493  150.9675 C   0  0  0  0  0  0  0  0  0  0  0  0
  144.0716  133.3251  150.7771 C   0  0  0  0  0  0  0  0  0  0  0  0
  145.0898  134.2396  151.1173 C   0  0  0  0  0  0  0  0  0  0  0  0
  144.8792  135.7368  150.9626 C   0  0  0  0  0  0  0  0  0  0  0  0
  144.9907  136.5244  152.2833 C   0  0  0  0  0  0  0  0  0  0  0  0
  146.3770  136.6930  152.7152 N   0  0  0  0  0  0  0  0  0  0  0  0
  146.7686  137.3418  153.8219 C   0  0  0  0  0  0  0  0  0  0  0  0
  145.9963  137.8445  154.6386 O   0  0  0  0  0  0  0  0  0  0  0  0
  148.1024  137.4012  153.9241 N   0  0  0  0  0  0  0  0  0  0  0  0
  148.7994  138.1227  154.9821 C   0  0  1  0  0  0  0  0  0  0  0  0
  150.2635  138.4059  154.6496 C   0  0  2  0  0  0  0  0  0  0  0  0
  151.5668  137.9535  155.2048 C   0  0  0  0  0  0  0  0  0  0  0  0
  152.2548  139.3420  155.2950 C   0  0  0  0  0  0  0  0  0  0  0  0
  151.2134  140.3188  155.0505 O   0  0  0  0  0  0  0  0  0  0  0  0
  150.0340  139.6632  155.4689 C   0  0  1  0  0  0  0  0  0  0  0  0
  148.5972  139.6836  154.9102 C   0  0  0  0  0  0  0  0  0  0  0  0
  148.3702  140.3644  153.5452 C   0  0  0  0  0  0  0  0  0  0  0  0
  147.5249  140.2405  155.8475 C   0  0  0  0  0  0  0  0  0  0  0  0
  146.3030  133.7273  151.6249 C   0  0  0  0  0  0  0  0  0  0  0  0
  146.5306  132.4102  151.8164 N   0  0  0  0  0  0  0  0  0  0  0  0
  144.9147  129.5113  151.8643 H   0  0  0  0  0  0  0  0  0  0  0  0
  146.4348  129.9468  152.6463 H   0  0  0  0  0  0  0  0  0  0  0  0
  146.3899  129.6601  150.9006 H   0  0  0  0  0  0  0  0  0  0  0  0
  143.5378  131.2263  150.7232 H   0  0  0  0  0  0  0  0  0  0  0  0
  143.1249  133.6688  150.3871 H   0  0  0  0  0  0  0  0  0  0  0  0
  145.6075  136.1183  150.2465 H   0  0  0  0  0  0  0  0  0  0  0  0
  143.8986  135.9131  150.5189 H   0  0  0  0  0  0  0  0  0  0  0  0
  144.5019  137.4944  152.1789 H   0  0  0  0  0  0  0  0  0  0  0  0
  144.4474  135.9989  153.0688 H   0  0  0  0  0  0  0  0  0  0  0  0
  147.0905  136.3143  152.1096 H   0  0  0  0  0  0  0  0  0  0  0  0
  148.6662  136.9618  153.2115 H   0  0  0  0  0  0  0  0  0  0  0  0
  148.6635  137.6969  155.9808 H   0  0  0  0  0  0  0  0  0  0  0  0
  150.3792  138.6017  153.5812 H   0  0  0  0  0  0  0  0  0  0  0  0
  151.4537  137.4877  156.1848 H   0  0  0  0  0  0  0  0  0  0  0  0
  152.0942  137.2671  154.5422 H   0  0  0  0  0  0  0  0  0  0  0  0
  152.6949  139.4930  156.2815 H   0  0  0  0  0  0  0  0  0  0  0  0
  153.0435  139.4558  154.5509 H   0  0  0  0  0  0  0  0  0  0  0  0
  150.0493  139.4963  156.5522 H   0  0  0  0  0  0  0  0  0  0  0  0
  148.3904  141.4506  153.6387 H   0  0  0  0  0  0  0  0  0  0  0  0
  147.4006  140.0951  153.1287 H   0  0  0  0  0  0  0  0  0  0  0  0
  149.1160  140.1078  152.7953 H   0  0  0  0  0  0  0  0  0  0  0  0
  147.6193  141.3197  155.9708 H   0  0  0  0  0  0  0  0  0  0  0  0
  147.5907  139.7953  156.8405 H   0  0  0  0  0  0  0  0  0  0  0  0
  146.5215  140.0375  155.4718 H   0  0  0  0  0  0  0  0  0  0  0  0
  147.1068  134.3936  151.9017 H   0  0  0  0  0  0  0  0  0  0  0  0
  1  2  1  0  0  0  0
  1 23  1  0  0  0  0
  1 24  1  0  0  0  0
  1 25  1  0  0  0  0
  2 22  1  0  0  0  0
  2  3  2  0  0  0  0
  3  4  1  0  0  0  0
  3 26  1  0  0  0  0
  4  5  2  0  0  0  0
  4 27  1  0  0  0  0
  5  6  1  0  0  0  0
  5 21  1  0  0  0  0
  6  7  1  0  0  0  0
  6 28  1  0  0  0  0
  6 29  1  0  0  0  0
  7  8  1  0  0  0  0
  7 30  1  0  0  0  0
  7 31  1  0  0  0  0
  8  9  1  0  0  0  0
  8 32  1  0  0  0  0
  9 10  2  0  0  0  0
  9 11  1  0  0  0  0
 11 12  1  0  0  0  0
 11 33  1  0  0  0  0
 12 18  1  0  0  0  0
 12 13  1  0  0  0  0
 12 34  1  0  0  0  0
 13 17  1  0  0  0  0
 13 14  1  0  0  0  0
 13 35  1  0  0  0  0
 14 15  1  0  0  0  0
 14 36  1  0  0  0  0
 14 37  1  0  0  0  0
 15 16  1  0  0  0  0
 15 38  1  0  0  0  0
 15 39  1  0  0  0  0
 16 17  1  0  0  0  0
 17 18  1  0  0  0  0
 17 40  1  0  0  0  0
 18 19  1  0  0  0  0
 18 20  1  0  0  0  0
 19 41  1  0  0  0  0
 19 42  1  0  0  0  0
 19 43  1  0  0  0  0
 20 44  1  0  0  0  0
 20 45  1  0  0  0  0
 20 46  1  0  0  0  0
 21 22  2  0  0  0  0
 21 47  1  0  0  0  0
M  END
> <s_m_source_file>
AV-unprocessed.smi

> <i_m_source_file_index>
767

> <i_lp_mmshare_version>
43012

> <i_f3d_flags>
0

> <s_epik_input>
W0NIM11jMVtjSF1bY0hdYyhbY0hdbjEpW0NIMl1bQ0gyXVtOSF1DKD1PKVtOSF1bQ0BIXTJDKFtDSDNdKShbQ0gzXSlbQ0BIXShbQ0BASF0yMylPW0NIMl1bQ0gyXTM=

> <s_epik_cmdline>
J2VwaWtfcHl0aG9uJywgJy1waCcsICc3LjAnLCAnLXRuJywgJzgnLCAnLW1hJywgJzIwMCcsICctbWV0YWxfYmluZGluZycsICctaW1hZScsICc8aW5maWxlLm1hZT4nLCAnLW9tYWUnLCAnPG91dGZpbGUubWFlPic=

> <r_epik_Ionization_Penalty>
0.0567523

> <r_epik_Ionization_Penalty_Charging>
0

> <r_epik_Ionization_Penalty_Neutral>
0.0567523

> <r_epik_State_Penalty>
0.0489186

> <r_epik_Charging_Adjusted_Penalty>
0.0489186

> <i_epik_Tot_Q>
0

> <i_epik_Tot_abs_Q>
0

> <r_epik_Metal_State_Penalty>
0.044622

> <b_epik_Metal_Only>
0

> <s_lp_Force_Field>
OPLS_2005

> <r_lp_Energy>
55.1366

> <b_lp_Chiralities_Consistent>
1

> <s_lp_Variant>
AV-unprocessed.smi:767-8

> <Gold.Version>
5.8.1

> <Gold.Id.Protein>
6NUR|6NUR_protein|mol2

> <Gold.PLP.Fitness>
47.0404

> <Gold.PLP.PLP>
-35.5151

> <Gold.PLP.part.hbond>
-2.9198

> <Gold.PLP.part.metal>
0.0000

> <Gold.PLP.part.buried>
-2.5070

> <Gold.PLP.part.nonpolar>
-30.7219

> <Gold.PLP.part.repulsive>
0.2745

> <Gold.PLP.ligand.clash>
0.0000

> <Gold.PLP.ligand.torsion>
0.2051

> <Gold.PLP.Chemscore.Hbond>
2.8800

> <Gold.PLP.Chemscore.CHOScore>
1.0000

> <Gold.PLP.Chemscore.Metal>
0.0000

> <Gold.Chemscore.Hbonds>
donor molecule, donor type, donor heavy atom, donor atom, acceptor molecule, acceptor atom, score
      L1  H     8    32       P1  7948  0.88
      L1  H    11    33       P1  7948  1.00
      P1  H  7989  7998       L1    16  1.00
      L1  C    21    47       P1  7948  0.93

> <Gold.PLP.Chemscore.Internal.Correction>
0.2954

> <Gold.Rescore>
     Score         DG    S(hbond)    S(metal)    S(lipo)     H(rot)  DE(clash)    DE(int)     intcor
     21.03     -22.70       2.77        0.00      99.86       1.45       1.47       0.20       ----

> <Gold.Chemscore.Fitness>
21.0256

> <Gold.Chemscore.DG>
-22.6955

> <Gold.Chemscore.ZeroCoef>
-5.4800

> <Gold.Chemscore.Hbond>
2.7675

> <Gold.Chemscore.Metal>
0.0000

> <Gold.Chemscore.Lipo>
99.8558

> <Gold.Chemscore.Internal_Hbond>
0.0000

> <Gold.Chemscore.DEClash>
1.4749

> <Gold.Chemscore.DEInternal>
0.1951

> <Gold.Chemscore.Rot>
1.4497

> <Gold.Chemscore.Internal.Correction>
   9.000000E+99

> <Gold.Chemscore.Hbonds>
donor molecule, donor type, donor heavy atom, donor atom, acceptor molecule, acceptor atom, score
      L1  H     8    32       P1  7948  0.86
      L1  H    11    33       P1  7948  0.94
      P1  H  7989  7998       L1    16  0.29

> <Gold.Chemscore.Hbond.Weighted>
-9.2436

> <Gold.Chemscore.Metal.Weighted>
-0.0000

> <Gold.Chemscore.Lipo.Weighted>
-11.6831

> <Gold.Chemscore.Internal_Hbond.Weighted>
0.0000

> <Gold.Chemscore.DEClash.Weighted>
1.4749

> <Gold.Chemscore.DEInternal.Weighted>
0.1951

> <Gold.Chemscore.Rot.Weighted>
3.7112

> <Gold.Chemscore.Internal.Correction.Weighted>
   9.000000E+99

> <Gold.Protein.RotatedTorsions>
[ 6907 6896 6895 6894 ] final   73.70 input  -60.11 | X-H torsion
[ 7974 7965 7964 7962 ] final  -92.26 input  175.53 | X-H torsion
[ 8008 7997 7996 7995 ] final  176.48 input   59.86 | X-H torsion
[ 10167 10162 10161 10158 ] final  -30.27 input  -65.29 | X-H torsion
[ 10718 10713 10712 10709 ] final -138.09 input   66.30 | X-H torsion
[ 10763 10752 10751 10750 ] final  -33.83 input  -60.55 | X-H torsion
[ 11005 11000 10999 10996 ] final    2.90 input  -57.11 | X-H torsion

> <Gold.Protein.ActiveResidues>
 VAL166  LYS551  ARG553  GLY616  TRP617  ASP618  TYR619  PRO620  LYS621  CYS622 
 ASP623  PHE694  ASN695  SER759  ASP760  ASP761  ALA762  ILE779  LEU786  VAL792 
 PHE793  MET794  SER795  GLU796  ALA797  LYS798  CYS799  TRP800  GLU811  SER814 

> <Gold.Protein.RotatedAtoms>
  152.4937  134.4383  159.9534 H   0  0  0  0  0  0  0  0  0  0  0  0  # atno 6907 bound_to 6896
  151.4365  133.3649  159.2783 H   0  0  0  0  0  0  0  0  0  0  0  0  # atno 6908 bound_to 6896
  150.9117  134.8558  159.7490 H   0  0  0  0  0  0  0  0  0  0  0  0  # atno 6909 bound_to 6896
  145.4022  140.9538  143.2281 H   0  0  0  0  0  0  0  0  0  0  0  0  # atno 7974 bound_to 7965
  156.0760  140.1382  156.9770 H   0  0  0  0  0  0  0  0  0  0  0  0  # atno 8008 bound_to 7997
  154.4558  140.0962  156.6803 H   0  0  0  0  0  0  0  0  0  0  0  0  # atno 8009 bound_to 7997
  155.5152  140.3455  155.4398 H   0  0  0  0  0  0  0  0  0  0  0  0  # atno 8010 bound_to 7997
  140.7251  143.3862  151.1511 H   0  0  0  0  0  0  0  0  0  0  0  0  # atno 10167 bound_to 10162
  156.2955  130.7399  151.1436 H   0  0  0  0  0  0  0  0  0  0  0  0  # atno 10718 bound_to 10713
  153.8366  135.6861  153.4808 H   0  0  0  0  0  0  0  0  0  0  0  0  # atno 10763 bound_to 10752
  153.1479  135.4630  154.9591 H   0  0  0  0  0  0  0  0  0  0  0  0  # atno 10764 bound_to 10752
  154.7863  135.3286  154.7824 H   0  0  0  0  0  0  0  0  0  0  0  0  # atno 10765 bound_to 10752
  140.5991  133.9853  155.8123 H   0  0  0  0  0  0  0  0  0  0  0  0  # atno 11005 bound_to 11000
  144.8366  139.5540  143.6919 LP  0  0  0  0  0  0  0  0  0  0  0  0  # atno 17320 bound_to 7965
  146.2746  139.6720  142.9272 LP  0  0  0  0  0  0  0  0  0  0  0  0  # atno 17321 bound_to 7965
  139.7460  143.8852  152.3063 LP  0  0  0  0  0  0  0  0  0  0  0  0  # atno 17342 bound_to 10162
  139.8689  144.7078  150.9011 LP  0  0  0  0  0  0  0  0  0  0  0  0  # atno 17343 bound_to 10162
  157.7354  131.0572  150.5472 LP  0  0  0  0  0  0  0  0  0  0  0  0  # atno 17370 bound_to 10713
  156.5593  130.4251  149.6070 LP  0  0  0  0  0  0  0  0  0  0  0  0  # atno 17371 bound_to 10713
  141.0884  133.9954  157.3276 LP  0  0  0  0  0  0  0  0  0  0  0  0  # atno 17394 bound_to 11000
  139.9240  135.0201  156.8169 LP  0  0  0  0  0  0  0  0  0  0  0  0  # atno 17395 bound_to 11000

$$$$
