AV-unprocessed.smi:2006|AV-procd|sdf|8132|dock1
  -GOLD-   2272010363D 1   1.00000     0.00000
 Structure written by MMmdl.
 32 33  0  0  0  0  0  0  0  0  1 V2000
  152.5144  142.6144  161.7280 C   0  0  0  0  0  0  0  0  0  0  0  0
  152.6872  142.9537  160.2439 C   0  0  1  0  0  0  0  0  0  0  0  0
  152.0475  141.8911  159.3295 C   0  0  0  0  0  0  0  0  0  0  0  0
  152.1547  142.2991  157.9345 N   0  0  0  0  0  0  0  0  0  0  0  0
  151.6959  141.3278  157.0337 C   0  0  0  0  0  0  0  0  0  0  0  0
  150.4955  141.5611  156.3305 C   0  0  0  0  0  0  0  0  0  0  0  0
  150.0420  140.5852  155.4227 C   0  0  0  0  0  0  0  0  0  0  0  0
  150.8031  139.4114  155.2482 C   0  0  0  0  0  0  0  0  0  0  0  0
  150.3589  138.3316  154.2824 C   0  0  0  0  0  0  0  0  0  0  0  0
  149.2271  138.7391  153.4738 N   0  0  0  0  0  0  0  0  0  0  0  0
  151.9881  139.2688  155.9995 C   0  0  0  0  0  0  0  0  0  0  0  0
  152.4293  140.1999  156.8721 N   0  0  0  0  0  0  0  0  0  0  0  0
  151.5942  143.6230  157.6959 C   0  0  0  0  0  0  0  0  0  0  0  0
  152.2384  144.6450  158.6475 C   0  0  0  0  0  0  0  0  0  0  0  0
  152.0689  144.2148  159.9955 O   0  0  0  0  0  0  0  0  0  0  0  0
  152.9849  141.6609  161.9692 H   0  0  0  0  0  0  0  0  0  0  0  0
  151.4600  142.5449  161.9968 H   0  0  0  0  0  0  0  0  0  0  0  0
  152.9697  143.3790  162.3580 H   0  0  0  0  0  0  0  0  0  0  0  0
  153.7542  143.0312  160.0271 H   0  0  0  0  0  0  0  0  0  0  0  0
  152.5423  140.9290  159.4685 H   0  0  0  0  0  0  0  0  0  0  0  0
  150.9979  141.7556  159.5943 H   0  0  0  0  0  0  0  0  0  0  0  0
  149.9327  142.4707  156.4814 H   0  0  0  0  0  0  0  0  0  0  0  0
  149.1267  140.7369  154.8697 H   0  0  0  0  0  0  0  0  0  0  0  0
  151.1840  138.0553  153.6251 H   0  0  0  0  0  0  0  0  0  0  0  0
  150.0887  137.4385  154.8465 H   0  0  0  0  0  0  0  0  0  0  0  0
  149.5447  139.3601  152.7431 H   0  0  0  0  0  0  0  0  0  0  0  0
  148.8434  137.9313  153.0042 H   0  0  0  0  0  0  0  0  0  0  0  0
  152.6012  138.3853  155.8983 H   0  0  0  0  0  0  0  0  0  0  0  0
  151.7650  143.9161  156.6592 H   0  0  0  0  0  0  0  0  0  0  0  0
  150.5148  143.6016  157.8530 H   0  0  0  0  0  0  0  0  0  0  0  0
  153.2992  144.7702  158.4250 H   0  0  0  0  0  0  0  0  0  0  0  0
  151.7699  145.6215  158.5244 H   0  0  0  0  0  0  0  0  0  0  0  0
  1  2  1  0  0  0  0
  1 16  1  0  0  0  0
  1 17  1  0  0  0  0
  1 18  1  0  0  0  0
  2 15  1  0  0  0  0
  2  3  1  0  0  0  0
  2 19  1  0  0  0  0
  3  4  1  0  0  0  0
  3 20  1  0  0  0  0
  3 21  1  0  0  0  0
  4  5  1  0  0  0  0
  4 13  1  0  0  0  0
  5 12  1  0  0  0  0
  5  6  2  0  0  0  0
  6  7  1  0  0  0  0
  6 22  1  0  0  0  0
  7  8  2  0  0  0  0
  7 23  1  0  0  0  0
  8  9  1  0  0  0  0
  8 11  1  0  0  0  0
  9 10  1  0  0  0  0
  9 24  1  0  0  0  0
  9 25  1  0  0  0  0
 10 26  1  0  0  0  0
 10 27  1  0  0  0  0
 11 12  2  0  0  0  0
 11 28  1  0  0  0  0
 13 14  1  0  0  0  0
 13 29  1  0  0  0  0
 13 30  1  0  0  0  0
 14 15  1  0  0  0  0
 14 31  1  0  0  0  0
 14 32  1  0  0  0  0
M  END
> <s_m_source_file>
AV-unprocessed.smi

> <i_m_source_file_index>
2006

> <i_lp_mmshare_version>
43012

> <i_f3d_flags>
0

> <s_epik_input>
W0NIM11bQ0BASF0xW0NIMl1OKFtDSDJdW0NIMl1PMSljMltjSF1bY0hdYyhbY0hdbjIpW0NIMl1bTkgyXQ==

> <s_epik_cmdline>
J2VwaWtfcHl0aG9uJywgJy1waCcsICc3LjAnLCAnLXRuJywgJzgnLCAnLW1hJywgJzIwMCcsICctbWV0YWxfYmluZGluZycsICctaW1hZScsICc8aW5maWxlLm1hZT4nLCAnLW9tYWUnLCAnPG91dGZpbGUubWFlPic=

> <r_lp_tautomer_probability>
1

> <r_epik_Ionization_Penalty>
1.39389

> <r_epik_Ionization_Penalty_Charging>
0

> <r_epik_Ionization_Penalty_Neutral>
1.39389

> <r_epik_State_Penalty>
1.46818

> <r_epik_Charging_Adjusted_Penalty>
1.46818

> <i_epik_Tot_Q>
0

> <i_epik_Tot_abs_Q>
0

> <r_epik_Metal_State_Penalty>
1.46201

> <b_epik_Metal_Only>
0

> <s_lp_Force_Field>
OPLS_2005

> <r_lp_Energy>
16.9225

> <b_lp_Chiralities_Consistent>
1

> <s_lp_Variant>
AV-unprocessed.smi:2006-4

> <Gold.Version>
5.8.1

> <Gold.Id.Protein>
6NUR|6NUR_protein|mol2

> <Gold.PLP.Fitness>
41.8750

> <Gold.PLP.PLP>
-35.2781

> <Gold.PLP.part.hbond>
-3.0000

> <Gold.PLP.part.metal>
0.0000

> <Gold.PLP.part.buried>
-2.3036

> <Gold.PLP.part.nonpolar>
-29.7879

> <Gold.PLP.part.repulsive>
0.0557

> <Gold.PLP.ligand.clash>
1.5866

> <Gold.PLP.ligand.torsion>
0.4585

> <Gold.PLP.Chemscore.Hbond>
3.0000

> <Gold.PLP.Chemscore.CHOScore>
0.0000

> <Gold.PLP.Chemscore.Metal>
0.0000

> <Gold.Chemscore.Hbonds>
donor molecule, donor type, donor heavy atom, donor atom, acceptor molecule, acceptor atom, score
      L1  H    10    26       P1  7957  1.00
      L1  H    10    27       P1  7948  1.00
      P1  H  7997  8008       L1    12  1.00

> <Gold.PLP.Chemscore.Internal.Correction>
0.1005

> <Gold.Rescore>
     Score         DG    S(hbond)    S(metal)    S(lipo)     H(rot)  DE(clash)    DE(int)     intcor
     20.97     -21.97       2.77        0.00      89.84       1.28       0.55       0.44       ----

> <Gold.Chemscore.Fitness>
20.9743

> <Gold.Chemscore.DG>
-21.9666

> <Gold.Chemscore.ZeroCoef>
-5.4800

> <Gold.Chemscore.Hbond>
2.7671

> <Gold.Chemscore.Metal>
0.0000

> <Gold.Chemscore.Lipo>
89.8418

> <Gold.Chemscore.Internal_Hbond>
0.0000

> <Gold.Chemscore.DEClash>
0.5497

> <Gold.Chemscore.DEInternal>
0.4427

> <Gold.Chemscore.Rot>
1.2762

> <Gold.Chemscore.Internal.Correction>
   9.000000E+99

> <Gold.Chemscore.Hbonds>
donor molecule, donor type, donor heavy atom, donor atom, acceptor molecule, acceptor atom, score
      L1  H    10    26       P1  7957  0.98
      L1  H    10    27       P1  7948  0.91
      P1  H  7997  8008       L1    12  0.24

> <Gold.Chemscore.Hbond.Weighted>
-9.2422

> <Gold.Chemscore.Metal.Weighted>
-0.0000

> <Gold.Chemscore.Lipo.Weighted>
-10.5115

> <Gold.Chemscore.Internal_Hbond.Weighted>
0.0000

> <Gold.Chemscore.DEClash.Weighted>
0.5497

> <Gold.Chemscore.DEInternal.Weighted>
0.4427

> <Gold.Chemscore.Rot.Weighted>
3.2671

> <Gold.Chemscore.Internal.Correction.Weighted>
   9.000000E+99

> <Gold.Protein.RotatedTorsions>
[ 6907 6896 6895 6894 ] final   74.94 input  -60.11 | X-H torsion
[ 7974 7965 7964 7962 ] final  143.33 input  175.53 | X-H torsion
[ 8008 7997 7996 7995 ] final  -50.45 input   59.86 | X-H torsion
[ 10167 10162 10161 10158 ] final  121.25 input  -65.29 | X-H torsion
[ 10718 10713 10712 10709 ] final -152.10 input   66.30 | X-H torsion
[ 10763 10752 10751 10750 ] final   24.64 input  -60.55 | X-H torsion
[ 11005 11000 10999 10996 ] final   75.91 input  -57.11 | X-H torsion

> <Gold.Protein.ActiveResidues>
 VAL166  LYS551  ARG553  GLY616  TRP617  ASP618  TYR619  PRO620  LYS621  CYS622 
 ASP623  PHE694  ASN695  SER759  ASP760  ASP761  ALA762  ILE779  LEU786  VAL792 
 PHE793  MET794  SER795  GLU796  ALA797  LYS798  CYS799  TRP800  GLU811  SER814 

> <Gold.Protein.RotatedAtoms>
  152.5001  134.4196  159.9475 H   0  0  0  0  0  0  0  0  0  0  0  0  # atno 6907 bound_to 6896
  151.4168  133.3704  159.2759 H   0  0  0  0  0  0  0  0  0  0  0  0  # atno 6908 bound_to 6896
  150.9251  134.8690  159.7574 H   0  0  0  0  0  0  0  0  0  0  0  0  # atno 6909 bound_to 6896
  144.8930  139.5531  143.5789 H   0  0  0  0  0  0  0  0  0  0  0  0  # atno 7974 bound_to 7965
  154.4062  140.1272  156.4668 H   0  0  0  0  0  0  0  0  0  0  0  0  # atno 8008 bound_to 7997
  155.7219  140.3492  155.5000 H   0  0  0  0  0  0  0  0  0  0  0  0  # atno 8009 bound_to 7997
  155.9207  140.1052  157.1199 H   0  0  0  0  0  0  0  0  0  0  0  0  # atno 8010 bound_to 7997
  139.5931  144.7032  151.3241 H   0  0  0  0  0  0  0  0  0  0  0  0  # atno 10167 bound_to 10162
  156.4680  130.8245  151.2475 H   0  0  0  0  0  0  0  0  0  0  0  0  # atno 10718 bound_to 10713
  153.0749  135.6601  154.0167 H   0  0  0  0  0  0  0  0  0  0  0  0  # atno 10763 bound_to 10752
  153.9803  135.2956  155.3422 H   0  0  0  0  0  0  0  0  0  0  0  0  # atno 10764 bound_to 10752
  154.7134  135.5195  153.8772 H   0  0  0  0  0  0  0  0  0  0  0  0  # atno 10765 bound_to 10752
  139.9322  134.7557  156.1329 H   0  0  0  0  0  0  0  0  0  0  0  0  # atno 11005 bound_to 11000
  146.3065  139.7597  142.9052 LP  0  0  0  0  0  0  0  0  0  0  0  0  # atno 17320 bound_to 7965
  145.3750  141.0349  143.3210 LP  0  0  0  0  0  0  0  0  0  0  0  0  # atno 17321 bound_to 7965
  140.7190  143.7189  150.7711 LP  0  0  0  0  0  0  0  0  0  0  0  0  # atno 17342 bound_to 10162
  140.0749  143.5025  152.2560 LP  0  0  0  0  0  0  0  0  0  0  0  0  # atno 17343 bound_to 10162
  157.7493  131.0085  150.3232 LP  0  0  0  0  0  0  0  0  0  0  0  0  # atno 17370 bound_to 10713
  156.3647  130.3853  149.7223 LP  0  0  0  0  0  0  0  0  0  0  0  0  # atno 17371 bound_to 10713
  141.0917  133.6712  156.2555 LP  0  0  0  0  0  0  0  0  0  0  0  0  # atno 17394 bound_to 11000
  140.6171  134.5399  157.5542 LP  0  0  0  0  0  0  0  0  0  0  0  0  # atno 17395 bound_to 11000

$$$$
