AV-unprocessed.smi:1644|AV-procd|sdf|6592|dock1
  -GOLD-   22720 7293D 1   1.00000     0.00000
 Structure written by MMmdl.
 48 50  0  0  0  0  0  0  0  0  2 V2000
  143.6647  145.4421  153.8870 C   0  0  0  0  0  0  0  0  0  0  0  0
  143.7907  144.1546  154.7086 C   0  0  0  0  0  0  0  0  0  0  0  0
  145.1972  143.5261  154.6039 C   0  0  0  0  0  0  0  0  0  0  0  0
  145.3557  142.1045  155.1966 C   0  0  2  0  0  0  0  0  0  0  0  0
  145.3992  142.1262  156.6438 N   0  5  0  0  0  0  0  0  0  0  0  0
  146.5479  141.5325  157.0456 C   0  0  0  0  0  0  0  0  0  0  0  0
  146.9296  141.3805  158.2057 O   0  0  0  0  0  0  0  0  0  0  0  0
  147.2751  141.1164  155.9899 N   0  0  0  0  0  0  0  0  0  0  0  0
  148.5895  140.4719  156.0724 C   0  0  0  0  0  0  0  0  0  0  0  0
  149.7330  141.4944  155.9105 C   0  0  2  0  0  0  0  0  0  0  0  0
  149.5773  142.1568  154.6699 O   0  0  0  0  0  0  0  0  0  0  0  0
  151.1144  140.8130  155.9274 C   0  0  0  0  0  0  0  0  0  0  0  0
  151.6739  140.7275  157.2644 N   0  0  0  0  0  0  0  0  0  0  0  0
  152.2575  139.6577  157.8378 C   0  0  0  0  0  0  0  0  0  0  0  0
  152.6980  139.8001  159.0848 N   0  0  0  0  0  0  0  0  0  0  0  0
  152.3639  141.1175  159.3493 C   0  0  0  0  0  0  0  0  0  0  0  0
  152.5608  141.8984  160.5095 C   0  0  0  0  0  0  0  0  0  0  0  0
  152.1364  143.2457  160.5569 C   0  0  0  0  0  0  0  0  0  0  0  0
  152.3737  144.0509  161.8223 C   0  0  0  0  0  0  0  0  0  0  0  0
  151.5000  143.8304  159.4323 C   0  0  0  0  0  0  0  0  0  0  0  0
  151.0406  145.2774  159.4572 C   0  0  0  0  0  0  0  0  0  0  0  0
  151.2901  143.0625  158.2678 C   0  0  0  0  0  0  0  0  0  0  0  0
  151.7210  141.7248  158.2316 C   0  0  0  0  0  0  0  0  0  0  0  0
  146.6623  141.4241  154.8432 C   0  0  0  0  0  0  0  0  0  0  0  0
  147.0602  141.2231  153.6954 O   0  0  0  0  0  0  0  0  0  0  0  0
  142.6643  145.8653  153.9802 H   0  0  0  0  0  0  0  0  0  0  0  0
  143.8490  145.2533  152.8291 H   0  0  0  0  0  0  0  0  0  0  0  0
  144.3782  146.1949  154.2233 H   0  0  0  0  0  0  0  0  0  0  0  0
  143.5520  144.3786  155.7484 H   0  0  0  0  0  0  0  0  0  0  0  0
  143.0386  143.4428  154.3672 H   0  0  0  0  0  0  0  0  0  0  0  0
  145.4971  143.5016  153.5554 H   0  0  0  0  0  0  0  0  0  0  0  0
  145.9124  144.1871  155.0949 H   0  0  0  0  0  0  0  0  0  0  0  0
  144.5409  141.4774  154.8323 H   0  0  0  0  0  0  0  0  0  0  0  0
  148.6644  139.9870  157.0471 H   0  0  0  0  0  0  0  0  0  0  0  0
  148.6818  139.6615  155.3468 H   0  0  0  0  0  0  0  0  0  0  0  0
  149.6937  142.2351  156.7106 H   0  0  0  0  0  0  0  0  0  0  0  0
  149.1993  143.0080  154.8324 H   0  0  0  0  0  0  0  0  0  0  0  0
  151.0377  139.7991  155.5324 H   0  0  0  0  0  0  0  0  0  0  0  0
  151.8142  141.3478  155.2832 H   0  0  0  0  0  0  0  0  0  0  0  0
  152.3658  138.7218  157.3090 H   0  0  0  0  0  0  0  0  0  0  0  0
  153.0453  141.4522  161.3658 H   0  0  0  0  0  0  0  0  0  0  0  0
  151.4293  144.4169  162.2257 H   0  0  0  0  0  0  0  0  0  0  0  0
  153.0171  144.9061  161.6149 H   0  0  0  0  0  0  0  0  0  0  0  0
  152.8553  143.4486  162.5935 H   0  0  0  0  0  0  0  0  0  0  0  0
  150.5654  145.5599  158.5173 H   0  0  0  0  0  0  0  0  0  0  0  0
  151.8885  145.9439  159.6165 H   0  0  0  0  0  0  0  0  0  0  0  0
  150.3184  145.4368  160.2579 H   0  0  0  0  0  0  0  0  0  0  0  0
  150.8070  143.4942  157.4034 H   0  0  0  0  0  0  0  0  0  0  0  0
  1  2  1  0  0  0  0
  1 26  1  0  0  0  0
  1 27  1  0  0  0  0
  1 28  1  0  0  0  0
  2  3  1  0  0  0  0
  2 29  1  0  0  0  0
  2 30  1  0  0  0  0
  3  4  1  0  0  0  0
  3 31  1  0  0  0  0
  3 32  1  0  0  0  0
  4 24  1  0  0  0  0
  4  5  1  0  0  0  0
  4 33  1  0  0  0  0
  5  6  1  0  0  0  0
  6  7  2  0  0  0  0
  6  8  1  0  0  0  0
  8  9  1  0  0  0  0
  8 24  1  0  0  0  0
  9 10  1  0  0  0  0
  9 34  1  0  0  0  0
  9 35  1  0  0  0  0
 10 11  1  0  0  0  0
 10 12  1  0  0  0  0
 10 36  1  0  0  0  0
 11 37  1  0  0  0  0
 12 13  1  0  0  0  0
 12 38  1  0  0  0  0
 12 39  1  0  0  0  0
 13 23  1  0  0  0  0
 13 14  1  0  0  0  0
 14 15  2  0  0  0  0
 14 40  1  0  0  0  0
 15 16  1  0  0  0  0
 16 23  2  0  0  0  0
 16 17  1  0  0  0  0
 17 18  2  0  0  0  0
 17 41  1  0  0  0  0
 18 19  1  0  0  0  0
 18 20  1  0  0  0  0
 19 42  1  0  0  0  0
 19 43  1  0  0  0  0
 19 44  1  0  0  0  0
 20 21  1  0  0  0  0
 20 22  2  0  0  0  0
 21 45  1  0  0  0  0
 21 46  1  0  0  0  0
 21 47  1  0  0  0  0
 22 23  1  0  0  0  0
 22 48  1  0  0  0  0
 24 25  2  0  0  0  0
M  CHG  1   5  -1
M  END
> <s_m_source_file>
AV-unprocessed.smi

> <i_m_source_file_index>
1644

> <i_lp_mmshare_version>
43012

> <i_f3d_flags>
0

> <s_epik_input>
W0NIM11bQ0gyXVtDSDJdW0NAQEhdMVtOSF1DKD1PKU4oQzE9TylbQ0gyXVtDQEhdKFtPSF0pW0NIMl1uKFtjSF1uMiljKGMyMylbY0hdYyhbQ0gzXSljKFtjSF0zKVtDSDNd

> <s_epik_cmdline>
J2VwaWtfcHl0aG9uJywgJy1waCcsICc3LjAnLCAnLXRuJywgJzgnLCAnLW1hJywgJzIwMCcsICctbWV0YWxfYmluZGluZycsICctaW1hZScsICc8aW5maWxlLm1hZT4nLCAnLW9tYWUnLCAnPG91dGZpbGUubWFlPic=

> <r_lp_tautomer_probability>
1

> <r_epik_Ionization_Penalty>
5.95212

> <r_epik_Ionization_Penalty_Charging>
5.84419

> <r_epik_Ionization_Penalty_Neutral>
0.107924

> <r_epik_State_Penalty>
5.94088

> <r_epik_Charging_Adjusted_Penalty>
11.7851

> <i_epik_Tot_Q>
-1

> <i_epik_Tot_abs_Q>
1

> <r_epik_Metal_State_Penalty>
1.99095

> <b_epik_Metal_Only>
1

> <s_lp_Force_Field>
OPLS_2005

> <r_lp_Energy>
19.2974

> <b_lp_Chiralities_Consistent>
1

> <s_lp_Variant>
AV-unprocessed.smi:1644-9

> <Gold.Version>
5.8.1

> <Gold.Id.Protein>
6NUR|6NUR_protein|mol2

> <Gold.PLP.Fitness>
49.8246

> <Gold.PLP.PLP>
-48.4711

> <Gold.PLP.part.hbond>
-3.2779

> <Gold.PLP.part.metal>
0.0000

> <Gold.PLP.part.buried>
-5.8008

> <Gold.PLP.part.nonpolar>
-39.5022

> <Gold.PLP.part.repulsive>
0.2915

> <Gold.PLP.ligand.clash>
0.0000

> <Gold.PLP.ligand.torsion>
1.0076

> <Gold.PLP.Chemscore.Hbond>
1.0382

> <Gold.PLP.Chemscore.CHOScore>
0.0000

> <Gold.PLP.Chemscore.Metal>
0.0000

> <Gold.Chemscore.Hbonds>
donor molecule, donor type, donor heavy atom, donor atom, acceptor molecule, acceptor atom, score
      L1  H    11    37       P1  8028  1.00
      P1  H  8011  8017       L1    11  0.04

> <Gold.PLP.Chemscore.Internal.Correction>
0.2539

> <Gold.Rescore>
     Score         DG    S(hbond)    S(metal)    S(lipo)     H(rot)  DE(clash)    DE(int)     intcor
     14.32     -16.65       1.42        0.00     112.83       2.65       0.05       2.28       ----

> <Gold.Chemscore.Fitness>
14.3215

> <Gold.Chemscore.DG>
-16.6459

> <Gold.Chemscore.ZeroCoef>
-5.4800

> <Gold.Chemscore.Hbond>
1.4207

> <Gold.Chemscore.Metal>
0.0000

> <Gold.Chemscore.Lipo>
112.8314

> <Gold.Chemscore.Internal_Hbond>
0.0000

> <Gold.Chemscore.DEClash>
0.0491

> <Gold.Chemscore.DEInternal>
2.2753

> <Gold.Chemscore.Rot>
2.6486

> <Gold.Chemscore.Internal.Correction>
   9.000000E+99

> <Gold.Chemscore.Hbonds>
donor molecule, donor type, donor heavy atom, donor atom, acceptor molecule, acceptor atom, score
      L1  H    11    37       P1  8028  0.99
      P1  H  8011  8017       L1    11  0.01

> <Gold.Chemscore.Hbond.Weighted>
-4.7451

> <Gold.Chemscore.Metal.Weighted>
-0.0000

> <Gold.Chemscore.Lipo.Weighted>
-13.2013

> <Gold.Chemscore.Internal_Hbond.Weighted>
0.0000

> <Gold.Chemscore.DEClash.Weighted>
0.0491

> <Gold.Chemscore.DEInternal.Weighted>
2.2753

> <Gold.Chemscore.Rot.Weighted>
6.7804

> <Gold.Chemscore.Internal.Correction.Weighted>
   9.000000E+99

> <Gold.Protein.RotatedTorsions>
[ 6907 6896 6895 6894 ] final  118.92 input  -60.11 | X-H torsion
[ 7974 7965 7964 7962 ] final   69.36 input  175.53 | X-H torsion
[ 8008 7997 7996 7995 ] final  129.79 input   59.86 | X-H torsion
[ 10167 10162 10161 10158 ] final  129.31 input  -65.29 | X-H torsion
[ 10718 10713 10712 10709 ] final  179.39 input   66.30 | X-H torsion
[ 10763 10752 10751 10750 ] final   78.56 input  -60.55 | X-H torsion
[ 11005 11000 10999 10996 ] final   79.62 input  -57.11 | X-H torsion

> <Gold.Protein.ActiveResidues>
 VAL166  LYS551  ARG553  GLY616  TRP617  ASP618  TYR619  PRO620  LYS621  CYS622 
 ASP623  PHE694  ASN695  SER759  ASP760  ASP761  ALA762  ILE779  LEU786  VAL792 
 PHE793  MET794  SER795  GLU796  ALA797  LYS798  CYS799  TRP800  GLU811  SER814 

> <Gold.Protein.RotatedAtoms>
  152.4509  133.7627  159.6754 H   0  0  0  0  0  0  0  0  0  0  0  0  # atno 6907 bound_to 6896
  150.8420  133.7910  159.3063 H   0  0  0  0  0  0  0  0  0  0  0  0  # atno 6908 bound_to 6896
  151.5532  135.1070  160.0006 H   0  0  0  0  0  0  0  0  0  0  0  0  # atno 6909 bound_to 6896
  145.7914  139.2936  143.1208 H   0  0  0  0  0  0  0  0  0  0  0  0  # atno 7974 bound_to 7965
  156.2943  140.2612  156.2656 H   0  0  0  0  0  0  0  0  0  0  0  0  # atno 8008 bound_to 7997
  154.9745  140.0390  157.2268 H   0  0  0  0  0  0  0  0  0  0  0  0  # atno 8009 bound_to 7997
  154.7828  140.2798  155.6055 H   0  0  0  0  0  0  0  0  0  0  0  0  # atno 8010 bound_to 7997
  139.5484  144.6793  151.4400 H   0  0  0  0  0  0  0  0  0  0  0  0  # atno 10167 bound_to 10162
  156.8765  130.9801  151.3067 H   0  0  0  0  0  0  0  0  0  0  0  0  # atno 10718 bound_to 10713
  153.0884  135.4872  154.8642 H   0  0  0  0  0  0  0  0  0  0  0  0  # atno 10763 bound_to 10752
  154.7239  135.3045  154.9005 H   0  0  0  0  0  0  0  0  0  0  0  0  # atno 10764 bound_to 10752
  153.9661  135.6806  153.4799 H   0  0  0  0  0  0  0  0  0  0  0  0  # atno 10765 bound_to 10752
  139.9166  134.7857  156.1802 H   0  0  0  0  0  0  0  0  0  0  0  0  # atno 11005 bound_to 11000
  145.9973  140.8551  143.0036 LP  0  0  0  0  0  0  0  0  0  0  0  0  # atno 17320 bound_to 7965
  144.6781  140.2301  143.7356 LP  0  0  0  0  0  0  0  0  0  0  0  0  # atno 17321 bound_to 7965
  140.6740  143.8232  150.7034 LP  0  0  0  0  0  0  0  0  0  0  0  0  # atno 17342 bound_to 10162
  140.1665  143.4231  152.2031 LP  0  0  0  0  0  0  0  0  0  0  0  0  # atno 17343 bound_to 10162
  157.6165  130.8622  149.9037 LP  0  0  0  0  0  0  0  0  0  0  0  0  # atno 17370 bound_to 10713
  156.0699  130.3686  150.0798 LP  0  0  0  0  0  0  0  0  0  0  0  0  # atno 17371 bound_to 10713
  141.0647  133.6825  156.2020 LP  0  0  0  0  0  0  0  0  0  0  0  0  # atno 17394 bound_to 11000
  140.6605  134.4973  157.5583 LP  0  0  0  0  0  0  0  0  0  0  0  0  # atno 17395 bound_to 11000

$$$$
