AV-unprocessed.smi:372|AV-procd|sdf|2448|dock8
  -GOLD-   2262022383D 1   1.00000     0.00000
 Structure written by MMmdl.
 22 23  0  0  0  0  0  0  0  0  2 V2000
  150.7916  140.7293  155.4242 C   0  0  0  0  0  0  0  0  0  0  0  0
  151.5087  140.3930  156.7480 C   0  0  2  0  0  0  0  0  0  0  0  0
  151.7122  141.6651  157.5991 C   0  0  0  0  0  0  0  0  0  0  0  0
  152.4092  141.6442  158.8343 C   0  0  0  0  0  0  0  0  0  0  0  0
  152.5702  142.8457  159.5501 C   0  0  0  0  0  0  0  0  0  0  0  0
  152.0387  144.0332  159.0155 C   0  0  0  0  0  0  0  0  0  0  0  0
  151.3681  143.9638  157.7804 C   0  0  0  0  0  0  0  0  0  0  0  0
  151.2096  142.8171  157.0872 N   0  0  0  0  0  0  0  0  0  0  0  0
  152.7499  139.6878  156.4427 N   0  5  0  0  0  0  0  0  0  0  0  0
  152.7194  138.4616  157.0135 C   0  0  0  0  0  0  0  0  0  0  0  0
  153.5946  137.5994  156.9915 O   0  0  0  0  0  0  0  0  0  0  0  0
  151.5578  138.2649  157.6412 N   0  0  0  0  0  0  0  0  0  0  0  0
  150.7528  139.3164  157.5283 C   0  0  0  0  0  0  0  0  0  0  0  0
  149.6001  139.4069  157.9513 O   0  0  0  0  0  0  0  0  0  0  0  0
  149.8206  141.1936  155.6001 H   0  0  0  0  0  0  0  0  0  0  0  0
  150.6200  139.8383  154.8183 H   0  0  0  0  0  0  0  0  0  0  0  0
  151.3817  141.4241  154.8254 H   0  0  0  0  0  0  0  0  0  0  0  0
  152.8215  140.7323  159.2394 H   0  0  0  0  0  0  0  0  0  0  0  0
  153.0951  142.8554  160.4938 H   0  0  0  0  0  0  0  0  0  0  0  0
  152.1439  144.9726  159.5372 H   0  0  0  0  0  0  0  0  0  0  0  0
  150.9478  144.8538  157.3359 H   0  0  0  0  0  0  0  0  0  0  0  0
  151.3119  137.4114  158.1198 H   0  0  0  0  0  0  0  0  0  0  0  0
  1  2  1  0  0  0  0
  1 15  1  0  0  0  0
  1 16  1  0  0  0  0
  1 17  1  0  0  0  0
  2 13  1  0  0  0  0
  2  3  1  0  0  0  0
  2  9  1  0  0  0  0
  3  8  1  0  0  0  0
  3  4  2  0  0  0  0
  4  5  1  0  0  0  0
  4 18  1  0  0  0  0
  5  6  2  0  0  0  0
  5 19  1  0  0  0  0
  6  7  1  0  0  0  0
  6 20  1  0  0  0  0
  7  8  2  0  0  0  0
  7 21  1  0  0  0  0
  9 10  1  0  0  0  0
 10 11  2  0  0  0  0
 10 12  1  0  0  0  0
 12 13  1  0  0  0  0
 12 22  1  0  0  0  0
 13 14  2  0  0  0  0
M  CHG  1   9  -1
M  END
> <s_m_source_file>
AV-unprocessed.smi

> <i_m_source_file_index>
372

> <i_lp_mmshare_version>
43012

> <i_f3d_flags>
0

> <s_epik_input>
Tz1DMVtOSF1DKD1PKVtOSF1bQ0BAXTEoW0NIM10pYzJbY0hdW2NIXVtjSF1bY0hdbjI=

> <s_epik_cmdline>
J2VwaWtfcHl0aG9uJywgJy1waCcsICc3LjAnLCAnLXRuJywgJzgnLCAnLW1hJywgJzIwMCcsICctbWV0YWxfYmluZGluZycsICctaW1hZScsICc8aW5maWxlLm1hZT4nLCAnLW9tYWUnLCAnPG91dGZpbGUubWFlPic=

> <r_lp_tautomer_probability>
1

> <r_epik_Ionization_Penalty>
4.88994

> <r_epik_Ionization_Penalty_Charging>
4.8337

> <r_epik_Ionization_Penalty_Neutral>
0.0562367

> <r_epik_State_Penalty>
4.86848

> <r_epik_Charging_Adjusted_Penalty>
9.70218

> <i_epik_Tot_Q>
-1

> <i_epik_Tot_abs_Q>
1

> <r_epik_Metal_State_Penalty>
1.42536

> <b_epik_Metal_Only>
1

> <s_lp_Force_Field>
OPLS_2005

> <r_lp_Energy>
15.0122

> <b_lp_Chiralities_Consistent>
1

> <s_lp_Variant>
AV-unprocessed.smi:372-6

> <Gold.Version>
5.8.1

> <Gold.Id.Protein>
6NUR|6NUR_protein|mol2

> <Gold.PLP.Fitness>
32.2733

> <Gold.PLP.PLP>
-23.4354

> <Gold.PLP.part.hbond>
-1.0370

> <Gold.PLP.part.metal>
0.0000

> <Gold.PLP.part.buried>
-2.5596

> <Gold.PLP.part.nonpolar>
-20.1097

> <Gold.PLP.part.repulsive>
0.1642

> <Gold.PLP.ligand.clash>
0.0000

> <Gold.PLP.ligand.torsion>
0.0401

> <Gold.PLP.Chemscore.Hbond>
2.0000

> <Gold.PLP.Chemscore.CHOScore>
0.9548

> <Gold.PLP.Chemscore.Metal>
0.0000

> <Gold.Chemscore.Hbonds>
donor molecule, donor type, donor heavy atom, donor atom, acceptor molecule, acceptor atom, score
      P1  H  7997  8008       L1     9  2.00
      L1  C     7    21       P1  8028  0.67

> <Gold.PLP.Chemscore.Internal.Correction>
0.0536

> <Gold.Rescore>
     Score         DG    S(hbond)    S(metal)    S(lipo)     H(rot)  DE(clash)    DE(int)     intcor
     13.80     -14.00       0.95        0.00      67.44       1.00       0.09       0.10       ----

> <Gold.Chemscore.Fitness>
13.8036

> <Gold.Chemscore.DG>
-13.9953

> <Gold.Chemscore.ZeroCoef>
-5.4800

> <Gold.Chemscore.Hbond>
0.9534

> <Gold.Chemscore.Metal>
0.0000

> <Gold.Chemscore.Lipo>
67.4431

> <Gold.Chemscore.Internal_Hbond>
0.0000

> <Gold.Chemscore.DEClash>
0.0923

> <Gold.Chemscore.DEInternal>
0.0995

> <Gold.Chemscore.Rot>
1.0000

> <Gold.Chemscore.Internal.Correction>
   9.000000E+99

> <Gold.Chemscore.Hbonds>
donor molecule, donor type, donor heavy atom, donor atom, acceptor molecule, acceptor atom, score
      P1  H  7997  8008       L1     9  0.65

> <Gold.Chemscore.Hbond.Weighted>
-3.1845

> <Gold.Chemscore.Metal.Weighted>
-0.0000

> <Gold.Chemscore.Lipo.Weighted>
-7.8908

> <Gold.Chemscore.Internal_Hbond.Weighted>
0.0000

> <Gold.Chemscore.DEClash.Weighted>
0.0923

> <Gold.Chemscore.DEInternal.Weighted>
0.0995

> <Gold.Chemscore.Rot.Weighted>
2.5600

> <Gold.Chemscore.Internal.Correction.Weighted>
   9.000000E+99

> <Gold.Protein.RotatedTorsions>
[ 6907 6896 6895 6894 ] final   44.20 input  -60.11 | X-H torsion
[ 7974 7965 7964 7962 ] final   17.73 input  175.53 | X-H torsion
[ 8008 7997 7996 7995 ] final  -37.35 input   59.86 | X-H torsion
[ 10167 10162 10161 10158 ] final -105.22 input  -65.29 | X-H torsion
[ 10718 10713 10712 10709 ] final   31.03 input   66.30 | X-H torsion
[ 10763 10752 10751 10750 ] final -129.47 input  -60.55 | X-H torsion
[ 11005 11000 10999 10996 ] final  -96.85 input  -57.11 | X-H torsion

> <Gold.Protein.ActiveResidues>
 VAL166  LYS551  ARG553  GLY616  TRP617  ASP618  TYR619  PRO620  LYS621  CYS622 
 ASP623  PHE694  ASN695  SER759  ASP760  ASP761  ALA762  ILE779  LEU786  VAL792 
 PHE793  MET794  SER795  GLU796  ALA797  LYS798  CYS799  TRP800  GLU811  SER814 

> <Gold.Protein.RotatedAtoms>
  152.2297  134.8334  160.0475 H   0  0  0  0  0  0  0  0  0  0  0  0  # atno 6907 bound_to 6896
  151.9088  133.3551  159.3864 H   0  0  0  0  0  0  0  0  0  0  0  0  # atno 6908 bound_to 6896
  150.7022  134.4679  159.5455 H   0  0  0  0  0  0  0  0  0  0  0  0  # atno 6909 bound_to 6896
  146.2208  139.8559  142.8614 H   0  0  0  0  0  0  0  0  0  0  0  0  # atno 7974 bound_to 7965
  154.4055  140.1606  156.2523 H   0  0  0  0  0  0  0  0  0  0  0  0  # atno 8008 bound_to 7997
  155.9108  140.3427  155.6075 H   0  0  0  0  0  0  0  0  0  0  0  0  # atno 8009 bound_to 7997
  155.7338  140.0783  157.2267 H   0  0  0  0  0  0  0  0  0  0  0  0  # atno 8010 bound_to 7997
  140.2008  143.3820  152.1131 H   0  0  0  0  0  0  0  0  0  0  0  0  # atno 10167 bound_to 10162
  157.2672  130.7190  149.6485 H   0  0  0  0  0  0  0  0  0  0  0  0  # atno 10718 bound_to 10713
  154.8757  135.3894  154.3925 H   0  0  0  0  0  0  0  0  0  0  0  0  # atno 10763 bound_to 10752
  153.4659  135.7029  153.6027 H   0  0  0  0  0  0  0  0  0  0  0  0  # atno 10764 bound_to 10752
  153.4506  135.3835  155.2249 H   0  0  0  0  0  0  0  0  0  0  0  0  # atno 10765 bound_to 10752
  141.1398  133.8127  157.0626 H   0  0  0  0  0  0  0  0  0  0  0  0  # atno 11005 bound_to 11000
  145.2753  141.0122  143.3748 LP  0  0  0  0  0  0  0  0  0  0  0  0  # atno 17320 bound_to 7965
  144.9191  139.4433  143.6550 LP  0  0  0  0  0  0  0  0  0  0  0  0  # atno 17321 bound_to 7965
  139.5218  144.7050  151.5380 LP  0  0  0  0  0  0  0  0  0  0  0  0  # atno 17342 bound_to 10162
  140.6391  143.8924  150.6675 LP  0  0  0  0  0  0  0  0  0  0  0  0  # atno 17343 bound_to 10162
  155.9663  130.4379  150.5194 LP  0  0  0  0  0  0  0  0  0  0  0  0  # atno 17370 bound_to 10713
  157.3111  131.0664  151.2000 LP  0  0  0  0  0  0  0  0  0  0  0  0  # atno 17371 bound_to 10713
  140.0561  134.9779  157.1223 LP  0  0  0  0  0  0  0  0  0  0  0  0  # atno 17394 bound_to 11000
  140.3917  134.2178  155.7166 LP  0  0  0  0  0  0  0  0  0  0  0  0  # atno 17395 bound_to 11000

$$$$
