AV-unprocessed.smi:266|AV-procd|sdf|2032|dock8
  -GOLD-   2262021243D 1   1.00000     0.00000
 Structure written by MMmdl.
 52 55  0  0  0  0  0  0  0  0  1 V2000
  146.0122  134.8000  151.9953 C   0  0  0  0  0  0  0  0  0  0  0  0
  145.2555  133.4624  151.9586 C   0  0  1  0  0  0  0  0  0  0  0  0
  144.0575  133.6333  151.2074 O   0  0  0  0  0  0  0  0  0  0  0  0
  143.7195  132.3926  150.6152 C   0  0  0  0  0  0  0  0  0  0  0  0
  145.0735  131.8789  150.1542 C   0  0  0  0  0  0  0  0  0  0  0  0
  145.9962  132.2569  151.3146 C   0  0  1  0  0  0  0  0  0  0  0  0
  147.2580  132.6182  150.7792 O   0  0  0  0  0  0  0  0  0  0  0  0
  146.2036  131.1181  152.3484 C   0  0  0  0  0  0  0  0  0  0  0  0
  147.3705  131.2810  153.2040 N   0  0  0  0  0  0  0  0  0  0  0  0
  147.7570  132.4282  153.8559 C   0  0  0  0  0  0  0  0  0  0  0  0
  148.8508  132.3243  154.5576 N   0  0  0  0  0  0  0  0  0  0  0  0
  149.2694  131.0098  154.3688 C   0  0  0  0  0  0  0  0  0  0  0  0
  150.3781  130.2281  154.8264 C   0  0  0  0  0  0  0  0  0  0  0  0
  151.3667  130.6785  155.6554 N   0  0  0  0  0  0  0  0  0  0  0  0
  151.5724  132.1102  155.8405 C   0  0  0  0  0  0  0  0  0  0  0  0
  152.1227  129.7658  156.5188 C   0  0  0  0  0  0  0  0  0  0  0  0
  153.6211  129.7038  156.1607 C   0  0  2  0  0  0  0  0  0  0  0  0
  154.3283  131.0532  156.3895 C   0  0  0  0  0  0  0  0  0  0  0  0
  155.7347  130.9793  155.7854 C   0  0  0  0  0  0  0  0  0  0  0  0
  155.5886  129.8837  154.3248 S   0  0  0  0  0  0  0  0  0  0  0  0
  155.5459  130.6976  153.1005 O   0  0  0  0  0  0  0  0  0  0  0  0
  156.5439  128.7742  154.4644 O   0  0  0  0  0  0  0  0  0  0  0  0
  153.8984  129.2881  154.7070 C   0  0  0  0  0  0  0  0  0  0  0  0
  150.4363  128.9430  154.3838 N   0  0  0  0  0  0  0  0  0  0  0  0
  149.4983  128.4470  153.5739 C   0  0  0  0  0  0  0  0  0  0  0  0
  148.4204  129.0544  153.0807 N   0  0  0  0  0  0  0  0  0  0  0  0
  148.3449  130.3456  153.5084 C   0  0  0  0  0  0  0  0  0  0  0  0
  146.9315  134.7160  152.5754 H   0  0  0  0  0  0  0  0  0  0  0  0
  145.4016  135.5769  152.4562 H   0  0  0  0  0  0  0  0  0  0  0  0
  146.2732  135.1386  150.9923 H   0  0  0  0  0  0  0  0  0  0  0  0
  144.9565  133.2096  152.9771 H   0  0  0  0  0  0  0  0  0  0  0  0
  143.2784  131.7300  151.3613 H   0  0  0  0  0  0  0  0  0  0  0  0
  143.0117  132.5163  149.7955 H   0  0  0  0  0  0  0  0  0  0  0  0
  145.0613  130.8195  149.9048 H   0  0  0  0  0  0  0  0  0  0  0  0
  145.3553  132.4197  149.2490 H   0  0  0  0  0  0  0  0  0  0  0  0
  147.6951  131.8345  150.4835 H   0  0  0  0  0  0  0  0  0  0  0  0
  145.3242  131.0313  152.9880 H   0  0  0  0  0  0  0  0  0  0  0  0
  146.2983  130.1601  151.8352 H   0  0  0  0  0  0  0  0  0  0  0  0
  147.1964  133.3499  153.7981 H   0  0  0  0  0  0  0  0  0  0  0  0
  150.6469  132.5973  156.1488 H   0  0  0  0  0  0  0  0  0  0  0  0
  151.9283  132.5703  154.9184 H   0  0  0  0  0  0  0  0  0  0  0  0
  152.3184  132.3035  156.6119 H   0  0  0  0  0  0  0  0  0  0  0  0
  151.9896  129.9908  157.5770 H   0  0  0  0  0  0  0  0  0  0  0  0
  151.6914  128.7724  156.3896 H   0  0  0  0  0  0  0  0  0  0  0  0
  154.1107  128.9779  156.8117 H   0  0  0  0  0  0  0  0  0  0  0  0
  153.7680  131.8415  155.8847 H   0  0  0  0  0  0  0  0  0  0  0  0
  154.3646  131.3160  157.4472 H   0  0  0  0  0  0  0  0  0  0  0  0
  156.1255  131.9534  155.4910 H   0  0  0  0  0  0  0  0  0  0  0  0
  156.4329  130.5182  156.4845 H   0  0  0  0  0  0  0  0  0  0  0  0
  153.8313  128.2119  154.5484 H   0  0  0  0  0  0  0  0  0  0  0  0
  153.2131  129.7855  154.0206 H   0  0  0  0  0  0  0  0  0  0  0  0
  149.6303  127.4161  153.2800 H   0  0  0  0  0  0  0  0  0  0  0  0
  1  2  1  0  0  0  0
  1 28  1  0  0  0  0
  1 29  1  0  0  0  0
  1 30  1  0  0  0  0
  2  6  1  0  0  0  0
  2  3  1  0  0  0  0
  2 31  1  0  0  0  0
  3  4  1  0  0  0  0
  4  5  1  0  0  0  0
  4 32  1  0  0  0  0
  4 33  1  0  0  0  0
  5  6  1  0  0  0  0
  5 34  1  0  0  0  0
  5 35  1  0  0  0  0
  6  7  1  0  0  0  0
  6  8  1  0  0  0  0
  7 36  1  0  0  0  0
  8  9  1  0  0  0  0
  8 37  1  0  0  0  0
  8 38  1  0  0  0  0
  9 27  1  0  0  0  0
  9 10  1  0  0  0  0
 10 11  2  0  0  0  0
 10 39  1  0  0  0  0
 11 12  1  0  0  0  0
 12 27  2  0  0  0  0
 12 13  1  0  0  0  0
 13 14  1  0  0  0  0
 13 24  2  0  0  0  0
 14 15  1  0  0  0  0
 14 16  1  0  0  0  0
 15 40  1  0  0  0  0
 15 41  1  0  0  0  0
 15 42  1  0  0  0  0
 16 17  1  0  0  0  0
 16 43  1  0  0  0  0
 16 44  1  0  0  0  0
 17 23  1  0  0  0  0
 17 18  1  0  0  0  0
 17 45  1  0  0  0  0
 18 19  1  0  0  0  0
 18 46  1  0  0  0  0
 18 47  1  0  0  0  0
 19 20  1  0  0  0  0
 19 48  1  0  0  0  0
 19 49  1  0  0  0  0
 20 21  2  0  0  0  0
 20 22  2  0  0  0  0
 20 23  1  0  0  0  0
 23 50  1  0  0  0  0
 23 51  1  0  0  0  0
 24 25  1  0  0  0  0
 25 26  2  0  0  0  0
 25 52  1  0  0  0  0
 26 27  1  0  0  0  0
M  END
> <s_m_source_file>
AV-unprocessed.smi

> <i_m_source_file_index>
266

> <i_lp_mmshare_version>
43012

> <i_f3d_flags>
0

> <s_epik_input>
W0NIMl0xW0NIMl1PW0NAQEhdKFtDSDNdKVtDQEBdMShbT0hdKVtDSDJdbihbY0hdbjIpYyhjMjMpbltjSF1uYzNOKFtDSDNdKVtDSDJdW0NAQEhdKFtDSDJdNClbQ0gyXVtDSDJdUzQoPU8pPU8=

> <s_epik_cmdline>
J2VwaWtfcHl0aG9uJywgJy1waCcsICc3LjAnLCAnLXRuJywgJzgnLCAnLW1hJywgJzIwMCcsICctbWV0YWxfYmluZGluZycsICctaW1hZScsICc8aW5maWxlLm1hZT4nLCAnLW9tYWUnLCAnPG91dGZpbGUubWFlPic=

> <r_lp_tautomer_probability>
1

> <r_epik_Ionization_Penalty>
0.00155497

> <r_epik_Ionization_Penalty_Charging>
0

> <r_epik_Ionization_Penalty_Neutral>
0.00155497

> <r_epik_State_Penalty>
-0

> <r_epik_Charging_Adjusted_Penalty>
0

> <i_epik_Tot_Q>
0

> <i_epik_Tot_abs_Q>
0

> <r_epik_Metal_State_Penalty>
-0

> <b_epik_Metal_Only>
0

> <s_lp_Force_Field>
OPLS_2005

> <r_lp_Energy>
32.0182

> <b_lp_Chiralities_Consistent>
1

> <s_lp_Variant>
AV-unprocessed.smi:266-2

> <Gold.Version>
5.8.1

> <Gold.Id.Protein>
6NUR|6NUR_protein|mol2

> <Gold.PLP.Fitness>
43.2526

> <Gold.PLP.PLP>
-41.0621

> <Gold.PLP.part.hbond>
-2.0000

> <Gold.PLP.part.metal>
0.0000

> <Gold.PLP.part.buried>
-6.1054

> <Gold.PLP.part.nonpolar>
-34.1629

> <Gold.PLP.part.repulsive>
0.4428

> <Gold.PLP.ligand.clash>
0.0000

> <Gold.PLP.ligand.torsion>
0.7416

> <Gold.PLP.Chemscore.Hbond>
1.0000

> <Gold.PLP.Chemscore.CHOScore>
0.1883

> <Gold.PLP.Chemscore.Metal>
0.0000

> <Gold.Chemscore.Hbonds>
donor molecule, donor type, donor heavy atom, donor atom, acceptor molecule, acceptor atom, score
      L1  H     7    36       P1 10747  1.00
      L1  C    25    52       P1 10737  0.04

> <Gold.PLP.Chemscore.Internal.Correction>
0.1086

> <Gold.Rescore>
     Score         DG    S(hbond)    S(metal)    S(lipo)     H(rot)  DE(clash)    DE(int)     intcor
      9.79     -10.95       0.96        0.00      72.78       2.45       0.01       1.15       ----

> <Gold.Chemscore.Fitness>
9.7890

> <Gold.Chemscore.DG>
-10.9498

> <Gold.Chemscore.ZeroCoef>
-5.4800

> <Gold.Chemscore.Hbond>
0.9638

> <Gold.Chemscore.Metal>
0.0000

> <Gold.Chemscore.Lipo>
72.7797

> <Gold.Chemscore.Internal_Hbond>
0.0000

> <Gold.Chemscore.DEClash>
0.0111

> <Gold.Chemscore.DEInternal>
1.1497

> <Gold.Chemscore.Rot>
2.4471

> <Gold.Chemscore.Internal.Correction>
   9.000000E+99

> <Gold.Chemscore.Hbonds>
donor molecule, donor type, donor heavy atom, donor atom, acceptor molecule, acceptor atom, score
      L1  H     7    36       P1 10747  0.97

> <Gold.Chemscore.Hbond.Weighted>
-3.2191

> <Gold.Chemscore.Metal.Weighted>
-0.0000

> <Gold.Chemscore.Lipo.Weighted>
-8.5152

> <Gold.Chemscore.Internal_Hbond.Weighted>
0.0000

> <Gold.Chemscore.DEClash.Weighted>
0.0111

> <Gold.Chemscore.DEInternal.Weighted>
1.1497

> <Gold.Chemscore.Rot.Weighted>
6.2645

> <Gold.Chemscore.Internal.Correction.Weighted>
   9.000000E+99

> <Gold.Protein.RotatedTorsions>
[ 6907 6896 6895 6894 ] final -161.61 input  -60.11 | X-H torsion
[ 7974 7965 7964 7962 ] final  174.17 input  175.53 | X-H torsion
[ 8008 7997 7996 7995 ] final  -73.62 input   59.86 | X-H torsion
[ 10167 10162 10161 10158 ] final -178.42 input  -65.29 | X-H torsion
[ 10718 10713 10712 10709 ] final   -8.22 input   66.30 | X-H torsion
[ 10763 10752 10751 10750 ] final   73.05 input  -60.55 | X-H torsion
[ 11005 11000 10999 10996 ] final   64.37 input  -57.11 | X-H torsion

> <Gold.Protein.ActiveResidues>
 VAL166  LYS551  ARG553  GLY616  TRP617  ASP618  TYR619  PRO620  LYS621  CYS622 
 ASP623  PHE694  ASN695  SER759  ASP760  ASP761  ALA762  ILE779  LEU786  VAL792 
 PHE793  MET794  SER795  GLU796  ALA797  LYS798  CYS799  TRP800  GLU811  SER814 

> <Gold.Protein.RotatedAtoms>
  151.3673  133.3867  159.2695 H   0  0  0  0  0  0  0  0  0  0  0  0  # atno 6907 bound_to 6896
  150.9678  134.9057  159.7780 H   0  0  0  0  0  0  0  0  0  0  0  0  # atno 6908 bound_to 6896
  152.5173  134.3634  159.9345 H   0  0  0  0  0  0  0  0  0  0  0  0  # atno 6909 bound_to 6896
  144.7227  139.9757  143.6438 H   0  0  0  0  0  0  0  0  0  0  0  0  # atno 7974 bound_to 7965
  154.5263  140.0776  156.8263 H   0  0  0  0  0  0  0  0  0  0  0  0  # atno 8008 bound_to 7997
  155.3470  140.3410  155.4221 H   0  0  0  0  0  0  0  0  0  0  0  0  # atno 8009 bound_to 7997
  156.1734  140.1627  156.8393 H   0  0  0  0  0  0  0  0  0  0  0  0  # atno 8010 bound_to 7997
  139.5433  144.2303  152.0939 H   0  0  0  0  0  0  0  0  0  0  0  0  # atno 10167 bound_to 10162
  156.7057  130.5107  149.5905 H   0  0  0  0  0  0  0  0  0  0  0  0  # atno 10718 bound_to 10713
  153.0497  135.5077  154.7835 H   0  0  0  0  0  0  0  0  0  0  0  0  # atno 10763 bound_to 10752
  154.6707  135.2952  154.9748 H   0  0  0  0  0  0  0  0  0  0  0  0  # atno 10764 bound_to 10752
  154.0567  135.6696  153.4859 H   0  0  0  0  0  0  0  0  0  0  0  0  # atno 10765 bound_to 10752
  139.9963  134.6512  156.0005 H   0  0  0  0  0  0  0  0  0  0  0  0  # atno 11005 bound_to 11000
  146.0528  139.3527  143.0629 LP  0  0  0  0  0  0  0  0  0  0  0  0  # atno 17320 bound_to 7965
  145.8193  140.9687  143.0907 LP  0  0  0  0  0  0  0  0  0  0  0  0  # atno 17321 bound_to 7965
  140.1785  144.4867  150.6541 LP  0  0  0  0  0  0  0  0  0  0  0  0  # atno 17342 bound_to 10162
  140.6672  143.2272  151.5714 LP  0  0  0  0  0  0  0  0  0  0  0  0  # atno 17343 bound_to 10162
  156.1697  130.6428  151.0821 LP  0  0  0  0  0  0  0  0  0  0  0  0  # atno 17370 bound_to 10713
  157.6956  131.0795  150.6980 LP  0  0  0  0  0  0  0  0  0  0  0  0  # atno 17371 bound_to 10713
  141.1607  133.6539  156.4309 LP  0  0  0  0  0  0  0  0  0  0  0  0  # atno 17394 bound_to 11000
  140.4812  134.6663  157.5171 LP  0  0  0  0  0  0  0  0  0  0  0  0  # atno 17395 bound_to 11000

$$$$
