AV-unprocessed.smi:1574|AV-procd|sdf|6338|dock4
  -GOLD-   22720 6553D 1   1.00000     0.00000
 Structure written by MMmdl.
 40 41  0  0  0  0  0  0  0  0  1 V2000
  152.8042  140.8250  158.9876 C   0  0  0  0  0  0  0  0  0  0  0  0
  152.0751  142.0716  159.5143 C   0  0  1  0  0  0  0  0  0  0  0  0
  152.8223  142.6705  160.7235 C   0  0  0  0  0  0  0  0  0  0  0  0
  152.1200  143.9253  161.2651 C   0  0  0  0  0  0  0  0  0  0  0  0
  151.9461  144.9793  160.1629 C   0  0  0  0  0  0  0  0  0  0  0  0
  151.1930  144.3938  158.9611 C   0  0  0  0  0  0  0  0  0  0  0  0
  151.8892  143.1336  158.4075 C   0  0  2  0  0  0  0  0  0  0  0  0
  151.0648  142.5794  157.3914 O   0  0  0  0  0  0  0  0  0  0  0  0
  149.7214  142.3515  157.7919 C   0  0  0  0  0  0  0  0  0  0  0  0
  148.8355  142.3125  156.5391 C   0  0  0  0  0  0  0  0  0  0  0  0
  149.1680  141.1686  155.6967 N   0  0  0  0  0  0  0  0  0  0  0  0
  149.1286  141.1635  154.3549 C   0  0  0  0  0  0  0  0  0  0  0  0
  148.8653  142.1587  153.6806 O   0  0  0  0  0  0  0  0  0  0  0  0
  149.4148  139.8296  153.6655 C   0  0  0  0  0  0  0  0  0  0  0  0
  150.7053  139.3011  154.0674 N   0  0  0  0  0  0  0  0  0  0  0  0
  151.0886  138.0588  154.3684 C   0  0  0  0  0  0  0  0  0  0  0  0
  152.3721  138.0071  154.6912 N   0  0  0  0  0  0  0  0  0  0  0  0
  152.7811  139.3243  154.5665 N   0  0  0  0  0  0  0  0  0  0  0  0
  151.7962  140.0970  154.1985 N   0  0  0  0  0  0  0  0  0  0  0  0
  153.7988  141.0744  158.6169 H   0  0  0  0  0  0  0  0  0  0  0  0
  152.2527  140.3589  158.1707 H   0  0  0  0  0  0  0  0  0  0  0  0
  152.9196  140.0770  159.7723 H   0  0  0  0  0  0  0  0  0  0  0  0
  151.0866  141.7592  159.8547 H   0  0  0  0  0  0  0  0  0  0  0  0
  152.9013  141.9279  161.5184 H   0  0  0  0  0  0  0  0  0  0  0  0
  153.8440  142.9236  160.4369 H   0  0  0  0  0  0  0  0  0  0  0  0
  151.1437  143.6535  161.6686 H   0  0  0  0  0  0  0  0  0  0  0  0
  152.6921  144.3444  162.0933 H   0  0  0  0  0  0  0  0  0  0  0  0
  151.4056  145.8417  160.5541 H   0  0  0  0  0  0  0  0  0  0  0  0
  152.9230  145.3429  159.8420 H   0  0  0  0  0  0  0  0  0  0  0  0
  150.1797  144.1348  159.2664 H   0  0  0  0  0  0  0  0  0  0  0  0
  151.0937  145.1551  158.1875 H   0  0  0  0  0  0  0  0  0  0  0  0
  152.8704  143.3947  158.0049 H   0  0  0  0  0  0  0  0  0  0  0  0
  149.6184  141.4196  158.3493 H   0  0  0  0  0  0  0  0  0  0  0  0
  149.4067  143.1559  158.4576 H   0  0  0  0  0  0  0  0  0  0  0  0
  147.7823  142.2735  156.8216 H   0  0  0  0  0  0  0  0  0  0  0  0
  148.9690  143.2254  155.9579 H   0  0  0  0  0  0  0  0  0  0  0  0
  149.3951  140.3067  156.1708 H   0  0  0  0  0  0  0  0  0  0  0  0
  148.6389  139.1040  153.9145 H   0  0  0  0  0  0  0  0  0  0  0  0
  149.4036  139.9552  152.5819 H   0  0  0  0  0  0  0  0  0  0  0  0
  150.4340  137.2003  154.3506 H   0  0  0  0  0  0  0  0  0  0  0  0
  1  2  1  0  0  0  0
  1 20  1  0  0  0  0
  1 21  1  0  0  0  0
  1 22  1  0  0  0  0
  2  7  1  0  0  0  0
  2  3  1  0  0  0  0
  2 23  1  0  0  0  0
  3  4  1  0  0  0  0
  3 24  1  0  0  0  0
  3 25  1  0  0  0  0
  4  5  1  0  0  0  0
  4 26  1  0  0  0  0
  4 27  1  0  0  0  0
  5  6  1  0  0  0  0
  5 28  1  0  0  0  0
  5 29  1  0  0  0  0
  6  7  1  0  0  0  0
  6 30  1  0  0  0  0
  6 31  1  0  0  0  0
  7  8  1  0  0  0  0
  7 32  1  0  0  0  0
  8  9  1  0  0  0  0
  9 10  1  0  0  0  0
  9 33  1  0  0  0  0
  9 34  1  0  0  0  0
 10 11  1  0  0  0  0
 10 35  1  0  0  0  0
 10 36  1  0  0  0  0
 11 12  1  0  0  0  0
 11 37  1  0  0  0  0
 12 13  2  0  0  0  0
 12 14  1  0  0  0  0
 14 15  1  0  0  0  0
 14 38  1  0  0  0  0
 14 39  1  0  0  0  0
 15 19  1  0  0  0  0
 15 16  1  0  0  0  0
 16 17  2  0  0  0  0
 16 40  1  0  0  0  0
 17 18  1  0  0  0  0
 18 19  2  0  0  0  0
M  END
> <s_m_source_file>
AV-unprocessed.smi

> <i_m_source_file_index>
1574

> <i_lp_mmshare_version>
43012

> <i_f3d_flags>
0

> <s_epik_input>
W0NIM11bQ0BASF0xW0NIMl1bQ0gyXVtDSDJdW0NIMl1bQ0BIXTFPW0NIMl1bQ0gyXVtOSF1DKD1PKVtDSDJdbjJbY0hdbm5uMg==

> <s_epik_cmdline>
J2VwaWtfcHl0aG9uJywgJy1waCcsICc3LjAnLCAnLXRuJywgJzgnLCAnLW1hJywgJzIwMCcsICctbWV0YWxfYmluZGluZycsICctaW1hZScsICc8aW5maWxlLm1hZT4nLCAnLW9tYWUnLCAnPG91dGZpbGUubWFlPic=

> <r_lp_tautomer_probability>
1

> <r_epik_Ionization_Penalty>
1.44269e-06

> <r_epik_Ionization_Penalty_Charging>
0

> <r_epik_Ionization_Penalty_Neutral>
1.44269e-06

> <r_epik_State_Penalty>
-0

> <r_epik_Charging_Adjusted_Penalty>
0

> <i_epik_Tot_Q>
0

> <i_epik_Tot_abs_Q>
0

> <r_epik_Metal_State_Penalty>
-0

> <b_epik_Metal_Only>
0

> <s_lp_Force_Field>
OPLS_2005

> <r_lp_Energy>
11.2802

> <b_lp_Chiralities_Consistent>
1

> <s_lp_Variant>
AV-unprocessed.smi:1574-4

> <Gold.Version>
5.8.1

> <Gold.Id.Protein>
6NUR|6NUR_protein|mol2

> <Gold.PLP.Fitness>
50.5823

> <Gold.PLP.PLP>
-43.2292

> <Gold.PLP.part.hbond>
-5.0000

> <Gold.PLP.part.metal>
0.0000

> <Gold.PLP.part.buried>
-5.2593

> <Gold.PLP.part.nonpolar>
-33.8036

> <Gold.PLP.part.repulsive>
0.5283

> <Gold.PLP.ligand.clash>
0.0000

> <Gold.PLP.ligand.torsion>
0.6027

> <Gold.PLP.Chemscore.Hbond>
2.8224

> <Gold.PLP.Chemscore.CHOScore>
0.0000

> <Gold.PLP.Chemscore.Metal>
0.0000

> <Gold.Chemscore.Hbonds>
donor molecule, donor type, donor heavy atom, donor atom, acceptor molecule, acceptor atom, score
      P1  H  7997  8010       L1    18  0.23
      P1  H  8011  8017       L1    13  0.37

> <Gold.PLP.Chemscore.Internal.Correction>
0.0913

> <Gold.Rescore>
     Score         DG    S(hbond)    S(metal)    S(lipo)     H(rot)  DE(clash)    DE(int)     intcor
     15.40     -16.27       2.10        0.00      95.79       2.90       0.26       0.61       ----

> <Gold.Chemscore.Fitness>
15.3996

> <Gold.Chemscore.DG>
-16.2661

> <Gold.Chemscore.ZeroCoef>
-5.4800

> <Gold.Chemscore.Hbond>
2.1005

> <Gold.Chemscore.Metal>
0.0000

> <Gold.Chemscore.Lipo>
95.7879

> <Gold.Chemscore.Internal_Hbond>
0.0000

> <Gold.Chemscore.DEClash>
0.2571

> <Gold.Chemscore.DEInternal>
0.6094

> <Gold.Chemscore.Rot>
2.9050

> <Gold.Chemscore.Internal.Correction>
   9.000000E+99

> <Gold.Chemscore.Hbonds>
donor molecule, donor type, donor heavy atom, donor atom, acceptor molecule, acceptor atom, score
      P1  H  7997  8010       L1    18  0.22
      P1  H  8011  8017       L1    13  0.34

> <Gold.Chemscore.Hbond.Weighted>
-7.0155

> <Gold.Chemscore.Metal.Weighted>
-0.0000

> <Gold.Chemscore.Lipo.Weighted>
-11.2072

> <Gold.Chemscore.Internal_Hbond.Weighted>
0.0000

> <Gold.Chemscore.DEClash.Weighted>
0.2571

> <Gold.Chemscore.DEInternal.Weighted>
0.6094

> <Gold.Chemscore.Rot.Weighted>
7.4367

> <Gold.Chemscore.Internal.Correction.Weighted>
   9.000000E+99

> <Gold.Protein.RotatedTorsions>
[ 6907 6896 6895 6894 ] final -173.41 input  -60.11 | X-H torsion
[ 7974 7965 7964 7962 ] final  -86.12 input  175.53 | X-H torsion
[ 8008 7997 7996 7995 ] final   93.42 input   59.86 | X-H torsion
[ 10167 10162 10161 10158 ] final  -97.54 input  -65.29 | X-H torsion
[ 10718 10713 10712 10709 ] final  104.73 input   66.30 | X-H torsion
[ 10763 10752 10751 10750 ] final  -26.42 input  -60.55 | X-H torsion
[ 11005 11000 10999 10996 ] final  -85.93 input  -57.11 | X-H torsion

> <Gold.Protein.ActiveResidues>
 VAL166  LYS551  ARG553  GLY616  TRP617  ASP618  TYR619  PRO620  LYS621  CYS622 
 ASP623  PHE694  ASN695  SER759  ASP760  ASP761  ALA762  ILE779  LEU786  VAL792 
 PHE793  MET794  SER795  GLU796  ALA797  LYS798  CYS799  TRP800  GLU811  SER814 

> <Gold.Protein.RotatedAtoms>
  151.5557  133.3411  159.2961 H   0  0  0  0  0  0  0  0  0  0  0  0  # atno 6907 bound_to 6896
  150.8452  134.7762  159.6976 H   0  0  0  0  0  0  0  0  0  0  0  0  # atno 6908 bound_to 6896
  152.4511  134.5398  159.9887 H   0  0  0  0  0  0  0  0  0  0  0  0  # atno 6909 bound_to 6896
  145.4842  140.9556  143.1848 H   0  0  0  0  0  0  0  0  0  0  0  0  # atno 7974 bound_to 7965
  156.0465  140.3313  155.7302 H   0  0  0  0  0  0  0  0  0  0  0  0  # atno 8008 bound_to 7997
  155.5666  140.0624  157.2834 H   0  0  0  0  0  0  0  0  0  0  0  0  # atno 8009 bound_to 7997
  154.4416  140.1868  156.0825 H   0  0  0  0  0  0  0  0  0  0  0  0  # atno 8010 bound_to 7997
  140.2823  143.3274  152.0429 H   0  0  0  0  0  0  0  0  0  0  0  0  # atno 10167 bound_to 10162
  157.6730  131.0811  150.5750 H   0  0  0  0  0  0  0  0  0  0  0  0  # atno 10718 bound_to 10713
  153.7157  135.6948  153.5026 H   0  0  0  0  0  0  0  0  0  0  0  0  # atno 10763 bound_to 10752
  153.2240  135.4360  155.0520 H   0  0  0  0  0  0  0  0  0  0  0  0  # atno 10764 bound_to 10752
  154.8301  135.3467  154.6692 H   0  0  0  0  0  0  0  0  0  0  0  0  # atno 10765 bound_to 10752
  141.1636  133.7426  156.9086 H   0  0  0  0  0  0  0  0  0  0  0  0  # atno 11005 bound_to 11000
  144.7871  139.6404  143.7129 LP  0  0  0  0  0  0  0  0  0  0  0  0  # atno 17320 bound_to 7965
  146.2323  139.5837  142.9547 LP  0  0  0  0  0  0  0  0  0  0  0  0  # atno 17321 bound_to 7965
  139.4959  144.6583  151.6522 LP  0  0  0  0  0  0  0  0  0  0  0  0  # atno 17342 bound_to 10162
  140.5801  143.9960  150.6264 LP  0  0  0  0  0  0  0  0  0  0  0  0  # atno 17343 bound_to 10162
  156.6051  130.4365  149.5881 LP  0  0  0  0  0  0  0  0  0  0  0  0  # atno 17370 bound_to 10713
  156.2475  130.6887  151.1614 LP  0  0  0  0  0  0  0  0  0  0  0  0  # atno 17371 bound_to 10713
  140.1532  134.9216  157.2620 LP  0  0  0  0  0  0  0  0  0  0  0  0  # atno 17394 bound_to 11000
  140.2698  134.3474  155.7377 LP  0  0  0  0  0  0  0  0  0  0  0  0  # atno 17395 bound_to 11000

$$$$
