AV-unprocessed.smi:1867|AV-procd|sdf|7576|dock7
  -GOLD-   22720 9283D 1   1.00000     0.00000
 Structure written by MMmdl.
 52 55  0  0  0  0  0  0  0  0  4 V2000
  146.3737  140.2144  155.5002 O   0  0  0  0  0  0  0  0  0  0  0  0
  146.9391  139.1240  155.4420 C   0  0  0  0  0  0  0  0  0  0  0  0
  148.1723  138.9940  155.9911 N   0  0  0  0  0  0  0  0  0  0  0  0
  149.0075  139.9870  156.5690 C   0  0  0  0  0  0  0  0  0  0  0  0
  150.0089  139.5641  157.4671 C   0  0  0  0  0  0  0  0  0  0  0  0
  150.8789  140.5122  158.0428 C   0  0  0  0  0  0  0  0  0  0  0  0
  150.7449  141.8800  157.7072 C   0  0  0  0  0  0  0  0  0  0  0  0
  151.5825  142.8798  158.2365 N   0  0  0  0  0  0  0  0  0  0  0  0
  151.3084  144.2924  158.0264 C   0  0  0  0  0  0  0  0  0  0  0  0
  152.3389  145.0169  158.8912 C   0  0  0  0  0  0  0  0  0  0  0  0
  152.5317  144.0652  160.0721 C   0  0  0  0  0  0  0  0  0  0  0  0
  152.3301  142.6702  159.4682 C   0  0  0  0  0  0  0  0  0  0  0  0
  149.7818  142.2382  156.8249 N   0  3  0  0  0  0  0  0  0  0  0  0
  148.9273  141.3633  156.2518 C   0  0  0  0  0  0  0  0  0  0  0  0
  146.3358  138.0427  154.8607 N   0  5  0  0  0  0  0  0  0  0  0  0
  146.7022  137.3301  153.6285 C   0  0  2  0  0  0  0  0  0  0  0  0
  145.8096  137.7430  152.4424 C   0  0  0  0  0  0  0  0  0  0  0  0
  145.6047  136.4597  151.6143 C   0  0  0  0  0  0  0  0  0  0  0  0
  146.3365  135.4012  152.3368 N   0  3  2  0  0  0  0  0  0  0  0  0
  145.8491  134.0129  152.1823 C   0  0  0  0  0  0  0  0  0  0  0  0
  146.8068  133.0528  152.9169 C   0  0  0  0  0  0  0  0  0  0  0  0
  147.0242  133.4709  154.3860 C   0  0  0  0  0  0  0  0  0  0  0  0
  147.4493  134.9493  154.4883 C   0  0  0  0  0  0  0  0  0  0  0  0
  146.4221  135.8271  153.7431 C   0  0  1  0  0  0  0  0  0  0  0  0
  148.5330  138.0519  156.0247 H   0  0  0  0  0  0  0  0  0  0  0  0
  150.1114  138.5181  157.7174 H   0  0  0  0  0  0  0  0  0  0  0  0
  151.6434  140.1766  158.7276 H   0  0  0  0  0  0  0  0  0  0  0  0
  151.3981  144.5692  156.9755 H   0  0  0  0  0  0  0  0  0  0  0  0
  150.2956  144.5213  158.3608 H   0  0  0  0  0  0  0  0  0  0  0  0
  153.2768  145.1184  158.3431 H   0  0  0  0  0  0  0  0  0  0  0  0
  152.0145  146.0129  159.1937 H   0  0  0  0  0  0  0  0  0  0  0  0
  153.5014  144.1800  160.5571 H   0  0  0  0  0  0  0  0  0  0  0  0
  151.7602  144.2548  160.8195 H   0  0  0  0  0  0  0  0  0  0  0  0
  151.8043  142.0166  160.1651 H   0  0  0  0  0  0  0  0  0  0  0  0
  153.2891  142.2121  159.2246 H   0  0  0  0  0  0  0  0  0  0  0  0
  148.2276  141.7990  155.5542 H   0  0  0  0  0  0  0  0  0  0  0  0
  147.7486  137.4704  153.3509 H   0  0  0  0  0  0  0  0  0  0  0  0
  144.8396  138.1106  152.7820 H   0  0  0  0  0  0  0  0  0  0  0  0
  146.2715  138.5389  151.8571 H   0  0  0  0  0  0  0  0  0  0  0  0
  144.5422  136.2166  151.5548 H   0  0  0  0  0  0  0  0  0  0  0  0
  145.9849  136.5570  150.5966 H   0  0  0  0  0  0  0  0  0  0  0  0
  144.8379  133.9281  152.5839 H   0  0  0  0  0  0  0  0  0  0  0  0
  145.7997  133.7580  151.1231 H   0  0  0  0  0  0  0  0  0  0  0  0
  146.4216  132.0337  152.8717 H   0  0  0  0  0  0  0  0  0  0  0  0
  147.7686  133.0409  152.4028 H   0  0  0  0  0  0  0  0  0  0  0  0
  146.1001  133.3206  154.9456 H   0  0  0  0  0  0  0  0  0  0  0  0
  147.7747  132.8314  154.8514 H   0  0  0  0  0  0  0  0  0  0  0  0
  147.5187  135.2386  155.5385 H   0  0  0  0  0  0  0  0  0  0  0  0
  148.4481  135.0677  154.0633 H   0  0  0  0  0  0  0  0  0  0  0  0
  145.4383  135.6857  154.1980 H   0  0  0  0  0  0  0  0  0  0  0  0
  147.2831  135.4275  151.9859 H   0  0  0  0  0  0  0  0  0  0  0  0
  149.6963  143.2234  156.5754 H   0  0  0  0  0  0  0  0  0  0  0  0
  1  2  2  0  0  0  0
  2  3  1  0  0  0  0
  2 15  1  0  0  0  0
  3  4  1  0  0  0  0
  3 25  1  0  0  0  0
  4 14  1  0  0  0  0
  4  5  2  0  0  0  0
  5  6  1  0  0  0  0
  5 26  1  0  0  0  0
  6  7  2  0  0  0  0
  6 27  1  0  0  0  0
  7  8  1  0  0  0  0
  7 13  1  0  0  0  0
  8 12  1  0  0  0  0
  8  9  1  0  0  0  0
  9 10  1  0  0  0  0
  9 28  1  0  0  0  0
  9 29  1  0  0  0  0
 10 11  1  0  0  0  0
 10 30  1  0  0  0  0
 10 31  1  0  0  0  0
 11 12  1  0  0  0  0
 11 32  1  0  0  0  0
 11 33  1  0  0  0  0
 12 34  1  0  0  0  0
 12 35  1  0  0  0  0
 13 14  2  0  0  0  0
 13 52  1  0  0  0  0
 14 36  1  0  0  0  0
 15 16  1  0  0  0  0
 16 24  1  0  0  0  0
 16 17  1  0  0  0  0
 16 37  1  0  0  0  0
 17 18  1  0  0  0  0
 17 38  1  0  0  0  0
 17 39  1  0  0  0  0
 18 19  1  0  0  0  0
 18 40  1  0  0  0  0
 18 41  1  0  0  0  0
 19 24  1  0  0  0  0
 19 20  1  0  0  0  0
 19 51  1  0  0  0  0
 20 21  1  0  0  0  0
 20 42  1  0  0  0  0
 20 43  1  0  0  0  0
 21 22  1  0  0  0  0
 21 44  1  0  0  0  0
 21 45  1  0  0  0  0
 22 23  1  0  0  0  0
 22 46  1  0  0  0  0
 22 47  1  0  0  0  0
 23 24  1  0  0  0  0
 23 48  1  0  0  0  0
 23 49  1  0  0  0  0
 24 50  1  0  0  0  0
M  CHG  1  13   1
M  CHG  1  15  -1
M  CHG  1  19   1
M  END
> <s_m_source_file>
AV-unprocessed.smi

> <i_m_source_file_index>
1867

> <i_lp_mmshare_version>
43012

> <i_f3d_flags>
0

> <s_epik_input>
W0NIMl0xW0NIMl1bQ0gyXVtDSDJdW0NASF0oTjEyKVtDQEBIXShbQ0gyXVtDSDJdMilbTkhdQyg9TylbTkhdYzNbY0hdW2NIXWMobltjSF0zKU40W0NIMl1bQ0gyXVtDSDJdW0NIMl00

> <s_epik_cmdline>
J2VwaWtfcHl0aG9uJywgJy1waCcsICc3LjAnLCAnLXRuJywgJzgnLCAnLW1hJywgJzIwMCcsICctbWV0YWxfYmluZGluZycsICctaW1hZScsICc8aW5maWxlLm1hZT4nLCAnLW9tYWUnLCAnPG91dGZpbGUubWFlPic=

> <r_lp_tautomer_probability>
0.999994

> <r_epik_Ionization_Penalty>
8.56137

> <r_epik_Ionization_Penalty_Charging>
8.56136

> <r_epik_Ionization_Penalty_Neutral>
3.91889e-06

> <r_epik_State_Penalty>
8.16255

> <r_epik_Charging_Adjusted_Penalty>
16.7239

> <i_epik_Tot_Q>
1

> <i_epik_Tot_abs_Q>
3

> <r_epik_Metal_State_Penalty>
4.14279

> <b_epik_Metal_Only>
1

> <s_lp_Force_Field>
OPLS_2005

> <r_lp_Energy>
66.0689

> <b_lp_Chiralities_Consistent>
1

> <s_lp_Variant>
AV-unprocessed.smi:1867-17

> <Gold.Version>
5.8.1

> <Gold.Id.Protein>
6NUR|6NUR_protein|mol2

> <Gold.PLP.Fitness>
44.6115

> <Gold.PLP.PLP>
-34.7400

> <Gold.PLP.part.hbond>
-2.0000

> <Gold.PLP.part.metal>
0.0000

> <Gold.PLP.part.buried>
-3.3483

> <Gold.PLP.part.nonpolar>
-30.5246

> <Gold.PLP.part.repulsive>
0.1532

> <Gold.PLP.ligand.clash>
0.0000

> <Gold.PLP.ligand.torsion>
1.1762

> <Gold.PLP.Chemscore.Hbond>
4.0000

> <Gold.PLP.Chemscore.CHOScore>
0.0000

> <Gold.PLP.Chemscore.Metal>
0.0000

> <Gold.Chemscore.Hbonds>
donor molecule, donor type, donor heavy atom, donor atom, acceptor molecule, acceptor atom, score
      L1  H    13    52       P1  8028  2.00
      L1  H    19    51       P1  7948  2.00

> <Gold.PLP.Chemscore.Internal.Correction>
0.2239

> <Gold.Rescore>
     Score         DG    S(hbond)    S(metal)    S(lipo)     H(rot)  DE(clash)    DE(int)     intcor
     18.39     -20.87       1.95        0.00      97.76       1.00       0.07       2.42       ----

> <Gold.Chemscore.Fitness>
18.3863

> <Gold.Chemscore.DG>
-20.8726

> <Gold.Chemscore.ZeroCoef>
-5.4800

> <Gold.Chemscore.Hbond>
1.9504

> <Gold.Chemscore.Metal>
0.0000

> <Gold.Chemscore.Lipo>
97.7629

> <Gold.Chemscore.Internal_Hbond>
0.0000

> <Gold.Chemscore.DEClash>
0.0653

> <Gold.Chemscore.DEInternal>
2.4210

> <Gold.Chemscore.Rot>
1.0000

> <Gold.Chemscore.Internal.Correction>
   9.000000E+99

> <Gold.Chemscore.Hbonds>
donor molecule, donor type, donor heavy atom, donor atom, acceptor molecule, acceptor atom, score
      L1  H    13    52       P1  8028  0.97
      L1  H    19    51       P1  7948  0.97

> <Gold.Chemscore.Hbond.Weighted>
-6.5144

> <Gold.Chemscore.Metal.Weighted>
-0.0000

> <Gold.Chemscore.Lipo.Weighted>
-11.4383

> <Gold.Chemscore.Internal_Hbond.Weighted>
0.0000

> <Gold.Chemscore.DEClash.Weighted>
0.0653

> <Gold.Chemscore.DEInternal.Weighted>
2.4210

> <Gold.Chemscore.Rot.Weighted>
2.5600

> <Gold.Chemscore.Internal.Correction.Weighted>
   9.000000E+99

> <Gold.Protein.RotatedTorsions>
[ 6907 6896 6895 6894 ] final  -80.15 input  -60.11 | X-H torsion
[ 7974 7965 7964 7962 ] final   60.63 input  175.53 | X-H torsion
[ 8008 7997 7996 7995 ] final   40.02 input   59.86 | X-H torsion
[ 10167 10162 10161 10158 ] final -128.06 input  -65.29 | X-H torsion
[ 10718 10713 10712 10709 ] final  176.14 input   66.30 | X-H torsion
[ 10763 10752 10751 10750 ] final -169.86 input  -60.55 | X-H torsion
[ 11005 11000 10999 10996 ] final   -2.22 input  -57.11 | X-H torsion

> <Gold.Protein.ActiveResidues>
 VAL166  LYS551  ARG553  GLY616  TRP617  ASP618  TYR619  PRO620  LYS621  CYS622 
 ASP623  PHE694  ASN695  SER759  ASP760  ASP761  ALA762  ILE779  LEU786  VAL792 
 PHE793  MET794  SER795  GLU796  ALA797  LYS798  CYS799  TRP800  GLU811  SER814 

> <Gold.Protein.RotatedAtoms>
  150.6935  134.4012  159.5119 H   0  0  0  0  0  0  0  0  0  0  0  0  # atno 6907 bound_to 6896
  152.1786  134.8771  160.0537 H   0  0  0  0  0  0  0  0  0  0  0  0  # atno 6908 bound_to 6896
  151.9770  133.3710  159.4130 H   0  0  0  0  0  0  0  0  0  0  0  0  # atno 6909 bound_to 6896
  145.8938  139.3530  143.0633 H   0  0  0  0  0  0  0  0  0  0  0  0  # atno 7974 bound_to 7965
  155.2462  140.3349  155.4287 H   0  0  0  0  0  0  0  0  0  0  0  0  # atno 8008 bound_to 7997
  156.2235  140.1819  156.7464 H   0  0  0  0  0  0  0  0  0  0  0  0  # atno 8009 bound_to 7997
  154.5862  140.0645  156.9159 H   0  0  0  0  0  0  0  0  0  0  0  0  # atno 8010 bound_to 7997
  139.9543  143.6021  152.2465 H   0  0  0  0  0  0  0  0  0  0  0  0  # atno 10167 bound_to 10162
  156.9245  130.9951  151.2998 H   0  0  0  0  0  0  0  0  0  0  0  0  # atno 10718 bound_to 10713
  154.6477  135.2907  155.0026 H   0  0  0  0  0  0  0  0  0  0  0  0  # atno 10763 bound_to 10752
  154.1130  135.6559  153.4892 H   0  0  0  0  0  0  0  0  0  0  0  0  # atno 10764 bound_to 10752
  153.0359  135.5269  154.7371 H   0  0  0  0  0  0  0  0  0  0  0  0  # atno 10765 bound_to 10752
  140.6560  133.9362  155.8408 H   0  0  0  0  0  0  0  0  0  0  0  0  # atno 11005 bound_to 11000
  145.8876  140.9324  143.0569 LP  0  0  0  0  0  0  0  0  0  0  0  0  # atno 17320 bound_to 7965
  144.6732  140.0862  143.7467 LP  0  0  0  0  0  0  0  0  0  0  0  0  # atno 17321 bound_to 7965
  139.6604  144.7662  151.1975 LP  0  0  0  0  0  0  0  0  0  0  0  0  # atno 17342 bound_to 10162
  140.7573  143.6020  150.8690 LP  0  0  0  0  0  0  0  0  0  0  0  0  # atno 17343 bound_to 10162
  157.5886  130.8427  149.8626 LP  0  0  0  0  0  0  0  0  0  0  0  0  # atno 17370 bound_to 10713
  156.0475  130.3724  150.1281 LP  0  0  0  0  0  0  0  0  0  0  0  0  # atno 17371 bound_to 10713
  141.0501  134.0497  157.3794 LP  0  0  0  0  0  0  0  0  0  0  0  0  # atno 17394 bound_to 11000
  139.9029  135.0171  156.7354 LP  0  0  0  0  0  0  0  0  0  0  0  0  # atno 17395 bound_to 11000

$$$$
