AV-unprocessed.smi:2422|AV-procd|sdf|9557|dock3
  -GOLD-   2272013193D 1   1.00000     0.00000
 Structure written by MMmdl.
 46 47  0  0  0  0  0  0  0  0  1 V2000
  137.8646  142.3192  154.3795 C   0  0  0  0  0  0  0  0  0  0  0  0
  138.1820  140.9448  154.2487 O   0  0  0  0  0  0  0  0  0  0  0  0
  139.5475  140.7295  153.9237 C   0  0  0  0  0  0  0  0  0  0  0  0
  139.8683  139.2156  153.9227 C   0  0  0  0  0  0  0  0  0  0  0  0
  139.8152  138.6770  155.3648 C   0  0  0  0  0  0  0  0  0  0  0  0
  138.8275  138.4521  153.0760 C   0  0  0  0  0  0  0  0  0  0  0  0
  141.2233  138.9633  153.4147 N   0  0  0  0  0  0  0  0  0  0  0  0
  141.8543  137.7857  153.2688 C   0  0  0  0  0  0  0  0  0  0  0  0
  141.3628  136.6985  153.5718 O   0  0  0  0  0  0  0  0  0  0  0  0
  143.0817  137.9609  152.7496 N   0  0  0  0  0  0  0  0  0  0  0  0
  144.0522  136.9738  152.4370 C   0  0  0  0  0  0  0  0  0  0  0  0
  145.3714  137.2402  152.1884 N   0  0  0  0  0  0  0  0  0  0  0  0
  145.7977  136.0042  151.9657 C   0  0  0  0  0  0  0  0  0  0  0  0
  144.8455  135.0726  152.0707 N   0  0  0  0  0  0  0  0  0  0  0  0
  144.9210  133.6312  151.8876 C   0  0  0  0  0  0  0  0  0  0  0  0
  146.3833  133.1548  151.7707 C   0  0  0  0  0  0  0  0  0  0  0  0
  146.4594  131.6292  151.5939 C   0  0  0  0  0  0  0  0  0  0  0  0
  145.6286  131.1653  150.3866 C   0  0  0  0  0  0  0  0  0  0  0  0
  144.1704  131.6388  150.4979 C   0  0  0  0  0  0  0  0  0  0  0  0
  144.0931  133.1643  150.6714 C   0  0  0  0  0  0  0  0  0  0  0  0
  143.6800  135.6972  152.3730 N   0  0  0  0  0  0  0  0  0  0  0  0
  136.8095  142.4292  154.6298 H   0  0  0  0  0  0  0  0  0  0  0  0
  138.0481  142.8568  153.4484 H   0  0  0  0  0  0  0  0  0  0  0  0
  138.4490  142.7848  155.1742 H   0  0  0  0  0  0  0  0  0  0  0  0
  139.7594  141.1538  152.9409 H   0  0  0  0  0  0  0  0  0  0  0  0
  140.1827  141.2610  154.6334 H   0  0  0  0  0  0  0  0  0  0  0  0
  138.8365  138.8448  155.8153 H   0  0  0  0  0  0  0  0  0  0  0  0
  140.5561  139.1609  156.0024 H   0  0  0  0  0  0  0  0  0  0  0  0
  140.0096  137.6041  155.3956 H   0  0  0  0  0  0  0  0  0  0  0  0
  137.8263  138.5599  153.4945 H   0  0  0  0  0  0  0  0  0  0  0  0
  139.0525  137.3857  153.0356 H   0  0  0  0  0  0  0  0  0  0  0  0
  138.7842  138.8182  152.0502 H   0  0  0  0  0  0  0  0  0  0  0  0
  141.7327  139.7854  153.1258 H   0  0  0  0  0  0  0  0  0  0  0  0
  143.3520  138.9115  152.5457 H   0  0  0  0  0  0  0  0  0  0  0  0
  146.8242  135.7737  151.7210 H   0  0  0  0  0  0  0  0  0  0  0  0
  144.4899  133.1757  152.7808 H   0  0  0  0  0  0  0  0  0  0  0  0
  146.8684  133.6405  150.9228 H   0  0  0  0  0  0  0  0  0  0  0  0
  146.9443  133.4497  152.6583 H   0  0  0  0  0  0  0  0  0  0  0  0
  147.4978  131.3199  151.4718 H   0  0  0  0  0  0  0  0  0  0  0  0
  146.0952  131.1385  152.4974 H   0  0  0  0  0  0  0  0  0  0  0  0
  146.0698  131.5553  149.4682 H   0  0  0  0  0  0  0  0  0  0  0  0
  145.6615  130.0783  150.3080 H   0  0  0  0  0  0  0  0  0  0  0  0
  143.6126  131.3367  149.6108 H   0  0  0  0  0  0  0  0  0  0  0  0
  143.6901  131.1494  151.3462 H   0  0  0  0  0  0  0  0  0  0  0  0
  143.0525  133.4695  150.7872 H   0  0  0  0  0  0  0  0  0  0  0  0
  144.4564  133.6451  149.7617 H   0  0  0  0  0  0  0  0  0  0  0  0
  1  2  1  0  0  0  0
  1 22  1  0  0  0  0
  1 23  1  0  0  0  0
  1 24  1  0  0  0  0
  2  3  1  0  0  0  0
  3  4  1  0  0  0  0
  3 25  1  0  0  0  0
  3 26  1  0  0  0  0
  4  5  1  0  0  0  0
  4  6  1  0  0  0  0
  4  7  1  0  0  0  0
  5 27  1  0  0  0  0
  5 28  1  0  0  0  0
  5 29  1  0  0  0  0
  6 30  1  0  0  0  0
  6 31  1  0  0  0  0
  6 32  1  0  0  0  0
  7  8  1  0  0  0  0
  7 33  1  0  0  0  0
  8  9  2  0  0  0  0
  8 10  1  0  0  0  0
 10 11  1  0  0  0  0
 10 34  1  0  0  0  0
 11 21  2  0  0  0  0
 11 12  1  0  0  0  0
 12 13  2  0  0  0  0
 13 14  1  0  0  0  0
 13 35  1  0  0  0  0
 14 15  1  0  0  0  0
 14 21  1  0  0  0  0
 15 20  1  0  0  0  0
 15 16  1  0  0  0  0
 15 36  1  0  0  0  0
 16 17  1  0  0  0  0
 16 37  1  0  0  0  0
 16 38  1  0  0  0  0
 17 18  1  0  0  0  0
 17 39  1  0  0  0  0
 17 40  1  0  0  0  0
 18 19  1  0  0  0  0
 18 41  1  0  0  0  0
 18 42  1  0  0  0  0
 19 20  1  0  0  0  0
 19 43  1  0  0  0  0
 19 44  1  0  0  0  0
 20 45  1  0  0  0  0
 20 46  1  0  0  0  0
M  END
> <s_m_source_file>
AV-unprocessed.smi

> <i_m_source_file_index>
2422

> <i_lp_mmshare_version>
43012

> <i_f3d_flags>
0

> <s_epik_input>
W0NIM11PW0NIMl1DKFtDSDNdKShbQ0gzXSlbTkhdQyg9TylbTkhdYzFuW2NIXW4objEpW0NIXTJbQ0gyXVtDSDJdW0NIMl1bQ0gyXVtDSDJdMg==

> <s_epik_cmdline>
J2VwaWtfcHl0aG9uJywgJy1waCcsICc3LjAnLCAnLXRuJywgJzgnLCAnLW1hJywgJzIwMCcsICctbWV0YWxfYmluZGluZycsICctaW1hZScsICc8aW5maWxlLm1hZT4nLCAnLW9tYWUnLCAnPG91dGZpbGUubWFlPic=

> <r_lp_tautomer_probability>
1

> <r_epik_Ionization_Penalty>
0.000103736

> <r_epik_Ionization_Penalty_Charging>
0

> <r_epik_Ionization_Penalty_Neutral>
0.000103736

> <r_epik_State_Penalty>
-0

> <r_epik_Charging_Adjusted_Penalty>
0

> <i_epik_Tot_Q>
0

> <i_epik_Tot_abs_Q>
0

> <r_epik_Metal_State_Penalty>
-0

> <b_epik_Metal_Only>
0

> <s_lp_Force_Field>
OPLS_2005

> <r_lp_Energy>
18.085

> <b_lp_Chiralities_Consistent>
1

> <s_lp_Variant>
AV-unprocessed.smi:2422-1

> <Gold.Version>
5.8.1

> <Gold.Id.Protein>
6NUR|6NUR_protein|mol2

> <Gold.PLP.Fitness>
39.7935

> <Gold.PLP.PLP>
-31.5144

> <Gold.PLP.part.hbond>
-3.7509

> <Gold.PLP.part.metal>
0.0000

> <Gold.PLP.part.buried>
-2.3664

> <Gold.PLP.part.nonpolar>
-25.8665

> <Gold.PLP.part.repulsive>
0.6051

> <Gold.PLP.ligand.clash>
0.0000

> <Gold.PLP.ligand.torsion>
0.2316

> <Gold.PLP.Chemscore.Hbond>
1.8800

> <Gold.PLP.Chemscore.CHOScore>
1.0000

> <Gold.PLP.Chemscore.Metal>
0.0000

> <Gold.Chemscore.Hbonds>
donor molecule, donor type, donor heavy atom, donor atom, acceptor molecule, acceptor atom, score
      L1  H     7    33       P1 10175  0.80
      L1  H    10    34       P1 10175  1.00
      L1  C    13    35       P1  7948  1.00

> <Gold.PLP.Chemscore.Internal.Correction>
0.1022

> <Gold.Rescore>
     Score         DG    S(hbond)    S(metal)    S(lipo)     H(rot)  DE(clash)    DE(int)     intcor
     13.25     -15.46       1.65        0.00      75.15       1.70       0.33       1.89       ----

> <Gold.Chemscore.Fitness>
13.2453

> <Gold.Chemscore.DG>
-15.4591

> <Gold.Chemscore.ZeroCoef>
-5.4800

> <Gold.Chemscore.Hbond>
1.6548

> <Gold.Chemscore.Metal>
0.0000

> <Gold.Chemscore.Lipo>
75.1473

> <Gold.Chemscore.Internal_Hbond>
0.0000

> <Gold.Chemscore.DEClash>
0.3253

> <Gold.Chemscore.DEInternal>
1.8885

> <Gold.Chemscore.Rot>
1.6954

> <Gold.Chemscore.Internal.Correction>
   9.000000E+99

> <Gold.Chemscore.Hbonds>
donor molecule, donor type, donor heavy atom, donor atom, acceptor molecule, acceptor atom, score
      L1  H     7    33       P1 10175  0.34
      L1  H    10    34       P1 10175  0.94

> <Gold.Chemscore.Hbond.Weighted>
-5.5271

> <Gold.Chemscore.Metal.Weighted>
-0.0000

> <Gold.Chemscore.Lipo.Weighted>
-8.7922

> <Gold.Chemscore.Internal_Hbond.Weighted>
0.0000

> <Gold.Chemscore.DEClash.Weighted>
0.3253

> <Gold.Chemscore.DEInternal.Weighted>
1.8885

> <Gold.Chemscore.Rot.Weighted>
4.3402

> <Gold.Chemscore.Internal.Correction.Weighted>
   9.000000E+99

> <Gold.Protein.RotatedTorsions>
[ 6907 6896 6895 6894 ] final  170.56 input  -60.11 | X-H torsion
[ 7974 7965 7964 7962 ] final  130.78 input  175.53 | X-H torsion
[ 8008 7997 7996 7995 ] final  147.21 input   59.86 | X-H torsion
[ 10167 10162 10161 10158 ] final  -59.66 input  -65.29 | X-H torsion
[ 10718 10713 10712 10709 ] final  160.37 input   66.30 | X-H torsion
[ 10763 10752 10751 10750 ] final   91.69 input  -60.55 | X-H torsion
[ 11005 11000 10999 10996 ] final -110.09 input  -57.11 | X-H torsion

> <Gold.Protein.ActiveResidues>
 VAL166  LYS551  ARG553  GLY616  TRP617  ASP618  TYR619  PRO620  LYS621  CYS622 
 ASP623  PHE694  ASN695  SER759  ASP760  ASP761  ALA762  ILE779  LEU786  VAL792 
 PHE793  MET794  SER795  GLU796  ALA797  LYS798  CYS799  TRP800  GLU811  SER814 

> <Gold.Protein.RotatedAtoms>
  151.8141  133.3385  159.3564 H   0  0  0  0  0  0  0  0  0  0  0  0  # atno 6907 bound_to 6896
  150.7316  134.5636  159.5864 H   0  0  0  0  0  0  0  0  0  0  0  0  # atno 6908 bound_to 6896
  152.3053  134.7563  160.0400 H   0  0  0  0  0  0  0  0  0  0  0  0  # atno 6909 bound_to 6896
  145.0142  139.4192  143.5229 H   0  0  0  0  0  0  0  0  0  0  0  0  # atno 7974 bound_to 7965
  156.2832  140.2162  156.5501 H   0  0  0  0  0  0  0  0  0  0  0  0  # atno 8008 bound_to 7997
  154.7298  140.0496  157.0739 H   0  0  0  0  0  0  0  0  0  0  0  0  # atno 8009 bound_to 7997
  155.0368  140.3141  155.4742 H   0  0  0  0  0  0  0  0  0  0  0  0  # atno 8010 bound_to 7997
  140.6121  143.2390  151.5684 H   0  0  0  0  0  0  0  0  0  0  0  0  # atno 10167 bound_to 10162
  157.1513  131.0565  151.2278 H   0  0  0  0  0  0  0  0  0  0  0  0  # atno 10718 bound_to 10713
  153.2110  135.4388  155.0379 H   0  0  0  0  0  0  0  0  0  0  0  0  # atno 10763 bound_to 10752
  154.8200  135.3333  154.7069 H   0  0  0  0  0  0  0  0  0  0  0  0  # atno 10764 bound_to 10752
  153.7507  135.6998  153.5002 H   0  0  0  0  0  0  0  0  0  0  0  0  # atno 10765 bound_to 10752
  141.0811  133.9217  157.2286 H   0  0  0  0  0  0  0  0  0  0  0  0  # atno 11005 bound_to 11000
  146.3475  139.9603  142.8718 LP  0  0  0  0  0  0  0  0  0  0  0  0  # atno 17320 bound_to 7965
  145.1982  140.9842  143.4171 LP  0  0  0  0  0  0  0  0  0  0  0  0  # atno 17321 bound_to 7965
  139.5369  144.2755  152.1271 LP  0  0  0  0  0  0  0  0  0  0  0  0  # atno 17342 bound_to 10162
  140.1956  144.4708  150.6457 LP  0  0  0  0  0  0  0  0  0  0  0  0  # atno 17343 bound_to 10162
  157.4217  130.7441  149.6919 LP  0  0  0  0  0  0  0  0  0  0  0  0  # atno 17370 bound_to 10713
  155.9770  130.4068  150.3742 LP  0  0  0  0  0  0  0  0  0  0  0  0  # atno 17371 bound_to 10713
  139.9625  135.0150  156.9300 LP  0  0  0  0  0  0  0  0  0  0  0  0  # atno 17394 bound_to 11000
  140.5465  134.0668  155.7356 LP  0  0  0  0  0  0  0  0  0  0  0  0  # atno 17395 bound_to 11000

$$$$
