AV-unprocessed.smi:2105|AV-procd|sdf|8591|dock6
  -GOLD-   2272011323D 1   1.00000     0.00000
 Structure written by MMmdl.
 42 43  0  0  0  0  0  0  0  0  1 V2000
  144.8855  133.6851  162.7282 C   0  0  0  0  0  0  0  0  0  0  0  0
  146.2455  134.2699  162.3640 C   0  0  0  0  0  0  0  0  0  0  0  0
  147.1652  133.5261  162.0240 O   0  0  0  0  0  0  0  0  0  0  0  0
  146.3574  135.6049  162.4390 N   0  0  0  0  0  0  0  0  0  0  0  0
  147.5641  136.3604  162.1215 C   0  0  0  0  0  0  0  0  0  0  0  0
  148.2126  135.8871  160.8047 C   0  0  0  0  0  0  0  0  0  0  0  0
  148.8151  136.9924  160.0676 N   0  0  0  0  0  0  0  0  0  0  0  0
  149.4636  136.8860  158.9000 C   0  0  0  0  0  0  0  0  0  0  0  0
  149.5719  135.8313  158.2743 O   0  0  0  0  0  0  0  0  0  0  0  0
  149.9925  138.0652  158.5357 N   0  0  0  0  0  0  0  0  0  0  0  0
  150.8263  138.3511  157.4182 C   0  0  0  0  0  0  0  0  0  0  0  0
  150.7643  137.6200  156.2075 C   0  0  0  0  0  0  0  0  0  0  0  0
  151.6089  137.9853  155.1434 C   0  0  0  0  0  0  0  0  0  0  0  0
  152.4790  139.0755  155.3237 C   0  0  0  0  0  0  0  0  0  0  0  0
  152.5393  139.7915  156.4650 N   0  0  0  0  0  0  0  0  0  0  0  0
  151.7324  139.4396  157.4955 C   0  0  0  0  0  0  0  0  0  0  0  0
  151.7998  140.2134  158.6679 N   0  0  0  0  0  0  0  0  0  0  0  0
  153.0413  140.1528  159.4309 C   0  0  0  0  0  0  0  0  0  0  0  0
  153.1283  141.4861  160.1687 C   0  0  0  0  0  0  0  0  0  0  0  0
  152.4934  142.4526  159.1752 C   0  0  0  0  0  0  0  0  0  0  0  0
  151.4092  141.6087  158.4980 C   0  0  0  0  0  0  0  0  0  0  0  0
  144.5782  134.0179  163.7198 H   0  0  0  0  0  0  0  0  0  0  0  0
  144.9209  132.5952  162.7304 H   0  0  0  0  0  0  0  0  0  0  0  0
  144.1316  134.0007  162.0068 H   0  0  0  0  0  0  0  0  0  0  0  0
  145.5478  136.1355  162.7261 H   0  0  0  0  0  0  0  0  0  0  0  0
  147.3722  137.4349  162.1265 H   0  0  0  0  0  0  0  0  0  0  0  0
  148.2629  136.1792  162.9384 H   0  0  0  0  0  0  0  0  0  0  0  0
  148.9889  135.1524  161.0247 H   0  0  0  0  0  0  0  0  0  0  0  0
  147.4874  135.3771  160.1696 H   0  0  0  0  0  0  0  0  0  0  0  0
  148.7835  137.8998  160.5089 H   0  0  0  0  0  0  0  0  0  0  0  0
  149.8915  138.8189  159.1998 H   0  0  0  0  0  0  0  0  0  0  0  0
  150.0763  136.7999  156.0717 H   0  0  0  0  0  0  0  0  0  0  0  0
  151.5851  137.4456  154.2083 H   0  0  0  0  0  0  0  0  0  0  0  0
  153.1388  139.3866  154.5273 H   0  0  0  0  0  0  0  0  0  0  0  0
  153.0282  139.3132  160.1262 H   0  0  0  0  0  0  0  0  0  0  0  0
  153.9063  140.0321  158.7780 H   0  0  0  0  0  0  0  0  0  0  0  0
  152.5326  141.4470  161.0821 H   0  0  0  0  0  0  0  0  0  0  0  0
  154.1491  141.7567  160.4385 H   0  0  0  0  0  0  0  0  0  0  0  0
  152.0973  143.3522  159.6473 H   0  0  0  0  0  0  0  0  0  0  0  0
  153.2360  142.7578  158.4365 H   0  0  0  0  0  0  0  0  0  0  0  0
  151.2838  141.8888  157.4510 H   0  0  0  0  0  0  0  0  0  0  0  0
  150.4498  141.7541  158.9956 H   0  0  0  0  0  0  0  0  0  0  0  0
  1  2  1  0  0  0  0
  1 22  1  0  0  0  0
  1 23  1  0  0  0  0
  1 24  1  0  0  0  0
  2  3  2  0  0  0  0
  2  4  1  0  0  0  0
  4  5  1  0  0  0  0
  4 25  1  0  0  0  0
  5  6  1  0  0  0  0
  5 26  1  0  0  0  0
  5 27  1  0  0  0  0
  6  7  1  0  0  0  0
  6 28  1  0  0  0  0
  6 29  1  0  0  0  0
  7  8  1  0  0  0  0
  7 30  1  0  0  0  0
  8  9  2  0  0  0  0
  8 10  1  0  0  0  0
 10 11  1  0  0  0  0
 10 31  1  0  0  0  0
 11 16  1  0  0  0  0
 11 12  2  0  0  0  0
 12 13  1  0  0  0  0
 12 32  1  0  0  0  0
 13 14  2  0  0  0  0
 13 33  1  0  0  0  0
 14 15  1  0  0  0  0
 14 34  1  0  0  0  0
 15 16  2  0  0  0  0
 16 17  1  0  0  0  0
 17 21  1  0  0  0  0
 17 18  1  0  0  0  0
 18 19  1  0  0  0  0
 18 35  1  0  0  0  0
 18 36  1  0  0  0  0
 19 20  1  0  0  0  0
 19 37  1  0  0  0  0
 19 38  1  0  0  0  0
 20 21  1  0  0  0  0
 20 39  1  0  0  0  0
 20 40  1  0  0  0  0
 21 41  1  0  0  0  0
 21 42  1  0  0  0  0
M  END
> <s_m_source_file>
AV-unprocessed.smi

> <i_m_source_file_index>
2105

> <i_lp_mmshare_version>
43012

> <i_f3d_flags>
0

> <s_epik_input>
W0NIM11DKD1PKVtOSF1bQ0gyXVtDSDJdW05IXUMoPU8pW05IXWMxW2NIXVtjSF1bY0hdbmMxTjJbQ0gyXVtDSDJdW0NIMl1bQ0gyXTI=

> <s_epik_cmdline>
J2VwaWtfcHl0aG9uJywgJy1waCcsICc3LjAnLCAnLXRuJywgJzgnLCAnLW1hJywgJzIwMCcsICctbWV0YWxfYmluZGluZycsICctaW1hZScsICc8aW5maWxlLm1hZT4nLCAnLW9tYWUnLCAnPG91dGZpbGUubWFlPic=

> <r_lp_tautomer_probability>
1

> <r_epik_Ionization_Penalty>
0.0963551

> <r_epik_Ionization_Penalty_Charging>
0

> <r_epik_Ionization_Penalty_Neutral>
0.0963551

> <r_epik_State_Penalty>
0.0859578

> <r_epik_Charging_Adjusted_Penalty>
0.0859578

> <i_epik_Tot_Q>
0

> <i_epik_Tot_abs_Q>
0

> <r_epik_Metal_State_Penalty>
0.0739032

> <b_epik_Metal_Only>
0

> <s_lp_Force_Field>
OPLS_2005

> <r_lp_Energy>
32.5144

> <b_lp_Chiralities_Consistent>
1

> <s_lp_Variant>
AV-unprocessed.smi:2105-1

> <Gold.Version>
5.8.1

> <Gold.Id.Protein>
6NUR|6NUR_protein|mol2

> <Gold.PLP.Fitness>
40.9980

> <Gold.PLP.PLP>
-35.9710

> <Gold.PLP.part.hbond>
-2.0000

> <Gold.PLP.part.metal>
0.0000

> <Gold.PLP.part.buried>
-7.0972

> <Gold.PLP.part.nonpolar>
-29.1950

> <Gold.PLP.part.repulsive>
1.4883

> <Gold.PLP.ligand.clash>
0.0000

> <Gold.PLP.ligand.torsion>
0.5455

> <Gold.PLP.Chemscore.Hbond>
2.0000

> <Gold.PLP.Chemscore.CHOScore>
0.0000

> <Gold.PLP.Chemscore.Metal>
0.0000

> <Gold.Chemscore.Hbonds>
donor molecule, donor type, donor heavy atom, donor atom, acceptor molecule, acceptor atom, score
      P1  H  6896  6907       L1     9  0.84
      P1  H  7997  8010       L1    15  1.00

> <Gold.PLP.Chemscore.Internal.Correction>
0.1181

> <Gold.Rescore>
     Score         DG    S(hbond)    S(metal)    S(lipo)     H(rot)  DE(clash)    DE(int)     intcor
     11.93     -16.20       1.85        0.00      81.24       1.94       1.56       2.71       ----

> <Gold.Chemscore.Fitness>
11.9301

> <Gold.Chemscore.DG>
-16.1965

> <Gold.Chemscore.ZeroCoef>
-5.4800

> <Gold.Chemscore.Hbond>
1.8525

> <Gold.Chemscore.Metal>
0.0000

> <Gold.Chemscore.Lipo>
81.2404

> <Gold.Chemscore.Internal_Hbond>
0.0000

> <Gold.Chemscore.DEClash>
1.5552

> <Gold.Chemscore.DEInternal>
2.7112

> <Gold.Chemscore.Rot>
1.9437

> <Gold.Chemscore.Internal.Correction>
   9.000000E+99

> <Gold.Chemscore.Hbonds>
donor molecule, donor type, donor heavy atom, donor atom, acceptor molecule, acceptor atom, score
      P1  H  6896  6907       L1     9  0.37
      P1  H  7997  8010       L1    15  0.34

> <Gold.Chemscore.Hbond.Weighted>
-6.1872

> <Gold.Chemscore.Metal.Weighted>
-0.0000

> <Gold.Chemscore.Lipo.Weighted>
-9.5051

> <Gold.Chemscore.Internal_Hbond.Weighted>
0.0000

> <Gold.Chemscore.DEClash.Weighted>
1.5552

> <Gold.Chemscore.DEInternal.Weighted>
2.7112

> <Gold.Chemscore.Rot.Weighted>
4.9759

> <Gold.Chemscore.Internal.Correction.Weighted>
   9.000000E+99

> <Gold.Protein.RotatedTorsions>
[ 6907 6896 6895 6894 ] final  -68.49 input  -60.11 | X-H torsion
[ 7974 7965 7964 7962 ] final  110.64 input  175.53 | X-H torsion
[ 8008 7997 7996 7995 ] final   59.19 input   59.86 | X-H torsion
[ 10167 10162 10161 10158 ] final   80.60 input  -65.29 | X-H torsion
[ 10718 10713 10712 10709 ] final -147.19 input   66.30 | X-H torsion
[ 10763 10752 10751 10750 ] final -112.54 input  -60.55 | X-H torsion
[ 11005 11000 10999 10996 ] final  -80.39 input  -57.11 | X-H torsion

> <Gold.Protein.ActiveResidues>
 VAL166  LYS551  ARG553  GLY616  TRP617  ASP618  TYR619  PRO620  LYS621  CYS622 
 ASP623  PHE694  ASN695  SER759  ASP760  ASP761  ALA762  ILE779  LEU786  VAL792 
 PHE793  MET794  SER795  GLU796  ALA797  LYS798  CYS799  TRP800  GLU811  SER814 

> <Gold.Protein.RotatedAtoms>
  150.7353  134.5731  159.5900 H   0  0  0  0  0  0  0  0  0  0  0  0  # atno 6907 bound_to 6896
  152.3165  134.7431  160.0333 H   0  0  0  0  0  0  0  0  0  0  0  0  # atno 6908 bound_to 6896
  151.7961  133.3329  159.3550 H   0  0  0  0  0  0  0  0  0  0  0  0  # atno 6909 bound_to 6896
  145.2524  139.2734  143.4060 H   0  0  0  0  0  0  0  0  0  0  0  0  # atno 7974 bound_to 7965
  155.5621  140.3488  155.4494 H   0  0  0  0  0  0  0  0  0  0  0  0  # atno 8008 bound_to 7997
  156.0506  140.1317  157.0080 H   0  0  0  0  0  0  0  0  0  0  0  0  # atno 8009 bound_to 7997
  154.4432  140.1005  156.6356 H   0  0  0  0  0  0  0  0  0  0  0  0  # atno 8010 bound_to 7997
  139.9480  144.6045  150.8188 H   0  0  0  0  0  0  0  0  0  0  0  0  # atno 10167 bound_to 10162
  156.4044  130.7950  151.2163 H   0  0  0  0  0  0  0  0  0  0  0  0  # atno 10718 bound_to 10713
  154.8354  135.4487  154.1210 H   0  0  0  0  0  0  0  0  0  0  0  0  # atno 10763 bound_to 10752
  153.2446  135.6920  153.7751 H   0  0  0  0  0  0  0  0  0  0  0  0  # atno 10764 bound_to 10752
  153.7086  135.3360  155.3217 H   0  0  0  0  0  0  0  0  0  0  0  0  # atno 10765 bound_to 10752
  141.1668  133.7148  156.8266 H   0  0  0  0  0  0  0  0  0  0  0  0  # atno 11005 bound_to 11000
  146.3299  140.2918  142.8615 LP  0  0  0  0  0  0  0  0  0  0  0  0  # atno 17320 bound_to 7965
  144.9491  140.8159  143.5583 LP  0  0  0  0  0  0  0  0  0  0  0  0  # atno 17321 bound_to 7965
  140.7591  143.3122  151.2818 LP  0  0  0  0  0  0  0  0  0  0  0  0  # atno 17342 bound_to 10162
  139.6651  144.0120  152.2717 LP  0  0  0  0  0  0  0  0  0  0  0  0  # atno 17343 bound_to 10162
  157.7505  131.0277  150.4016 LP  0  0  0  0  0  0  0  0  0  0  0  0  # atno 17370 bound_to 10713
  156.4302  130.3970  149.6765 LP  0  0  0  0  0  0  0  0  0  0  0  0  # atno 17371 bound_to 10713
  140.2081  134.8848  157.3244 LP  0  0  0  0  0  0  0  0  0  0  0  0  # atno 17394 bound_to 11000
  140.2116  134.4132  155.7610 LP  0  0  0  0  0  0  0  0  0  0  0  0  # atno 17395 bound_to 11000

$$$$
