AV-unprocessed.smi:1671|AV-procd|sdf|6699|dock2
  -GOLD-   22720 7433D 1   1.00000     0.00000
 Structure written by MMmdl.
 44 45  0  0  0  0  0  0  0  0  1 V2000
  144.0367  144.3134  154.6547 C   0  0  0  0  0  0  0  0  0  0  0  0
  145.7142  144.0839  154.0049 S   0  0  0  0  0  0  0  0  0  0  0  0
  146.0350  142.3573  154.4748 C   0  0  2  0  0  0  0  0  0  0  0  0
  145.5231  142.0578  155.8955 C   0  0  0  0  0  0  0  0  0  0  0  0
  147.5230  142.0197  154.3173 C   0  0  0  0  0  0  0  0  0  0  0  0
  148.3386  142.8920  154.0151 O   0  0  0  0  0  0  0  0  0  0  0  0
  147.8639  140.7381  154.5173 N   0  0  0  0  0  0  0  0  0  0  0  0
  149.2168  140.2126  154.3876 C   0  0  0  0  0  0  0  0  0  0  0  0
  150.0604  140.4592  155.6253 C   0  0  0  0  0  0  0  0  0  0  0  0
  151.3514  139.9093  155.7556 C   0  0  0  0  0  0  0  0  0  0  0  0
  152.0870  140.1630  156.9290 C   0  0  0  0  0  0  0  0  0  0  0  0
  151.5141  140.9647  157.9460 C   0  0  0  0  0  0  0  0  0  0  0  0
  152.2313  141.2388  159.1325 N   0  0  0  0  0  0  0  0  0  0  0  0
  152.3562  142.6338  159.5527 C   0  0  0  0  0  0  0  0  0  0  0  0
  152.8860  142.7154  160.9935 C   0  0  0  0  0  0  0  0  0  0  0  0
  154.1094  141.9952  161.0958 O   0  0  0  0  0  0  0  0  0  0  0  0
  153.9432  140.6122  160.7964 C   0  0  2  0  0  0  0  0  0  0  0  0
  155.2839  139.9065  161.0254 C   0  0  0  0  0  0  0  0  0  0  0  0
  153.4508  140.4616  159.3437 C   0  0  0  0  0  0  0  0  0  0  0  0
  150.2655  141.4801  157.8188 N   0  0  0  0  0  0  0  0  0  0  0  0
  149.5632  141.2315  156.6935 C   0  0  0  0  0  0  0  0  0  0  0  0
  143.6672  145.3038  154.3893 H   0  0  0  0  0  0  0  0  0  0  0  0
  144.0257  144.2260  155.7407 H   0  0  0  0  0  0  0  0  0  0  0  0
  143.3583  143.5699  154.2360 H   0  0  0  0  0  0  0  0  0  0  0  0
  145.4861  141.7228  153.7773 H   0  0  0  0  0  0  0  0  0  0  0  0
  145.7781  141.0432  156.2039 H   0  0  0  0  0  0  0  0  0  0  0  0
  144.4386  142.1458  155.9523 H   0  0  0  0  0  0  0  0  0  0  0  0
  145.9488  142.7459  156.6270 H   0  0  0  0  0  0  0  0  0  0  0  0
  147.1353  140.0807  154.7548 H   0  0  0  0  0  0  0  0  0  0  0  0
  149.1632  139.1429  154.1802 H   0  0  0  0  0  0  0  0  0  0  0  0
  149.7161  140.6792  153.5369 H   0  0  0  0  0  0  0  0  0  0  0  0
  151.7731  139.2957  154.9730 H   0  0  0  0  0  0  0  0  0  0  0  0
  153.0681  139.7265  157.0382 H   0  0  0  0  0  0  0  0  0  0  0  0
  153.0346  143.1545  158.8754 H   0  0  0  0  0  0  0  0  0  0  0  0
  151.3898  143.1364  159.4986 H   0  0  0  0  0  0  0  0  0  0  0  0
  153.0619  143.7551  161.2699 H   0  0  0  0  0  0  0  0  0  0  0  0
  152.1554  142.3177  161.6998 H   0  0  0  0  0  0  0  0  0  0  0  0
  153.2064  140.1848  161.4793 H   0  0  0  0  0  0  0  0  0  0  0  0
  155.2065  138.8389  160.8182 H   0  0  0  0  0  0  0  0  0  0  0  0
  155.6128  140.0211  162.0585 H   0  0  0  0  0  0  0  0  0  0  0  0
  156.0616  140.3172  160.3808 H   0  0  0  0  0  0  0  0  0  0  0  0
  153.2987  139.4043  159.1335 H   0  0  0  0  0  0  0  0  0  0  0  0
  154.2145  140.8153  158.6496 H   0  0  0  0  0  0  0  0  0  0  0  0
  148.5757  141.6666  156.6467 H   0  0  0  0  0  0  0  0  0  0  0  0
  1  2  1  0  0  0  0
  1 22  1  0  0  0  0
  1 23  1  0  0  0  0
  1 24  1  0  0  0  0
  2  3  1  0  0  0  0
  3  4  1  0  0  0  0
  3  5  1  0  0  0  0
  3 25  1  0  0  0  0
  4 26  1  0  0  0  0
  4 27  1  0  0  0  0
  4 28  1  0  0  0  0
  5  6  2  0  0  0  0
  5  7  1  0  0  0  0
  7  8  1  0  0  0  0
  7 29  1  0  0  0  0
  8  9  1  0  0  0  0
  8 30  1  0  0  0  0
  8 31  1  0  0  0  0
  9 21  1  0  0  0  0
  9 10  2  0  0  0  0
 10 11  1  0  0  0  0
 10 32  1  0  0  0  0
 11 12  2  0  0  0  0
 11 33  1  0  0  0  0
 12 13  1  0  0  0  0
 12 20  1  0  0  0  0
 13 19  1  0  0  0  0
 13 14  1  0  0  0  0
 14 15  1  0  0  0  0
 14 34  1  0  0  0  0
 14 35  1  0  0  0  0
 15 16  1  0  0  0  0
 15 36  1  0  0  0  0
 15 37  1  0  0  0  0
 16 17  1  0  0  0  0
 17 18  1  0  0  0  0
 17 19  1  0  0  0  0
 17 38  1  0  0  0  0
 18 39  1  0  0  0  0
 18 40  1  0  0  0  0
 18 41  1  0  0  0  0
 19 42  1  0  0  0  0
 19 43  1  0  0  0  0
 20 21  2  0  0  0  0
 21 44  1  0  0  0  0
M  END
> <s_m_source_file>
AV-unprocessed.smi

> <i_m_source_file_index>
1671

> <i_lp_mmshare_version>
43012

> <i_f3d_flags>
0

> <s_epik_input>
W0NIM11TW0NASF0oW0NIM10pQyg9TylbTkhdW0NIMl1jMVtjSF1bY0hdYyhuW2NIXTEpTjJbQ0gyXVtDSDJdT1tDQEBIXShbQ0gzXSlbQ0gyXTI=

> <s_epik_cmdline>
J2VwaWtfcHl0aG9uJywgJy1waCcsICc3LjAnLCAnLXRuJywgJzgnLCAnLW1hJywgJzIwMCcsICctbWV0YWxfYmluZGluZycsICctaW1hZScsICc8aW5maWxlLm1hZT4nLCAnLW9tYWUnLCAnPG91dGZpbGUubWFlPic=

> <r_lp_tautomer_probability>
1

> <r_epik_Ionization_Penalty>
0.00480033

> <r_epik_Ionization_Penalty_Charging>
0

> <r_epik_Ionization_Penalty_Neutral>
0.00480033

> <r_epik_State_Penalty>
0.00347981

> <r_epik_Charging_Adjusted_Penalty>
0.00347981

> <i_epik_Tot_Q>
0

> <i_epik_Tot_abs_Q>
0

> <r_epik_Metal_State_Penalty>
-0

> <b_epik_Metal_Only>
0

> <s_lp_Force_Field>
OPLS_2005

> <r_lp_Energy>
17.324

> <b_lp_Chiralities_Consistent>
1

> <s_lp_Variant>
AV-unprocessed.smi:1671-3

> <Gold.Version>
5.8.1

> <Gold.Id.Protein>
6NUR|6NUR_protein|mol2

> <Gold.PLP.Fitness>
38.2886

> <Gold.PLP.PLP>
-35.8653

> <Gold.PLP.part.hbond>
-2.6664

> <Gold.PLP.part.metal>
0.0000

> <Gold.PLP.part.buried>
-3.6800

> <Gold.PLP.part.nonpolar>
-33.4650

> <Gold.PLP.part.repulsive>
4.4812

> <Gold.PLP.ligand.clash>
0.0000

> <Gold.PLP.ligand.torsion>
0.5291

> <Gold.PLP.Chemscore.Hbond>
1.0000

> <Gold.PLP.Chemscore.CHOScore>
0.0000

> <Gold.PLP.Chemscore.Metal>
0.0000

> <Gold.Chemscore.Hbonds>
donor molecule, donor type, donor heavy atom, donor atom, acceptor molecule, acceptor atom, score
      P1  H  8022  8030       L1     6  0.99

> <Gold.PLP.Chemscore.Internal.Correction>
0.4814

> <Gold.Rescore>
     Score         DG    S(hbond)    S(metal)    S(lipo)     H(rot)  DE(clash)    DE(int)     intcor
     11.38     -14.30       0.35        0.00     101.12       1.63       2.40       0.52       ----

> <Gold.Chemscore.Fitness>
11.3822

> <Gold.Chemscore.DG>
-14.3003

> <Gold.Chemscore.ZeroCoef>
-5.4800

> <Gold.Chemscore.Hbond>
0.3459

> <Gold.Chemscore.Metal>
0.0000

> <Gold.Chemscore.Lipo>
101.1188

> <Gold.Chemscore.Internal_Hbond>
0.0000

> <Gold.Chemscore.DEClash>
2.3972

> <Gold.Chemscore.DEInternal>
0.5209

> <Gold.Chemscore.Rot>
1.6272

> <Gold.Chemscore.Internal.Correction>
   9.000000E+99

> <Gold.Chemscore.Hbonds>
donor molecule, donor type, donor heavy atom, donor atom, acceptor molecule, acceptor atom, score
      P1  H  8011  8017       L1     6  0.02
      P1  H  8022  8030       L1     6  0.94

> <Gold.Chemscore.Hbond.Weighted>
-1.1552

> <Gold.Chemscore.Metal.Weighted>
-0.0000

> <Gold.Chemscore.Lipo.Weighted>
-11.8309

> <Gold.Chemscore.Internal_Hbond.Weighted>
0.0000

> <Gold.Chemscore.DEClash.Weighted>
2.3972

> <Gold.Chemscore.DEInternal.Weighted>
0.5209

> <Gold.Chemscore.Rot.Weighted>
4.1657

> <Gold.Chemscore.Internal.Correction.Weighted>
   9.000000E+99

> <Gold.Protein.RotatedTorsions>
[ 6907 6896 6895 6894 ] final   18.67 input  -60.11 | X-H torsion
[ 7974 7965 7964 7962 ] final   20.67 input  175.53 | X-H torsion
[ 8008 7997 7996 7995 ] final  -55.38 input   59.86 | X-H torsion
[ 10167 10162 10161 10158 ] final  108.11 input  -65.29 | X-H torsion
[ 10718 10713 10712 10709 ] final  123.52 input   66.30 | X-H torsion
[ 10763 10752 10751 10750 ] final  147.56 input  -60.55 | X-H torsion
[ 11005 11000 10999 10996 ] final  135.26 input  -57.11 | X-H torsion

> <Gold.Protein.ActiveResidues>
 VAL166  LYS551  ARG553  GLY616  TRP617  ASP618  TYR619  PRO620  LYS621  CYS622 
 ASP623  PHE694  ASN695  SER759  ASP760  ASP761  ALA762  ILE779  LEU786  VAL792 
 PHE793  MET794  SER795  GLU796  ALA797  LYS798  CYS799  TRP800  GLU811  SER814 

> <Gold.Protein.RotatedAtoms>
  151.8690  135.0496  160.0477 H   0  0  0  0  0  0  0  0  0  0  0  0  # atno 6907 bound_to 6896
  152.2603  133.5287  159.5386 H   0  0  0  0  0  0  0  0  0  0  0  0  # atno 6908 bound_to 6896
  150.7114  134.0755  159.3922 H   0  0  0  0  0  0  0  0  0  0  0  0  # atno 6909 bound_to 6896
  146.2102  139.8136  142.8695 H   0  0  0  0  0  0  0  0  0  0  0  0  # atno 7974 bound_to 7965
  154.4193  140.1154  156.5468 H   0  0  0  0  0  0  0  0  0  0  0  0  # atno 8008 bound_to 7997
  155.6451  140.3496  155.4709 H   0  0  0  0  0  0  0  0  0  0  0  0  # atno 8009 bound_to 7997
  155.9839  140.1166  157.0691 H   0  0  0  0  0  0  0  0  0  0  0  0  # atno 8010 bound_to 7997
  139.6873  144.7112  151.1410 H   0  0  0  0  0  0  0  0  0  0  0  0  # atno 10167 bound_to 10162
  157.5658  131.1086  150.8457 H   0  0  0  0  0  0  0  0  0  0  0  0  # atno 10718 bound_to 10713
  154.0403  135.2890  155.3356 H   0  0  0  0  0  0  0  0  0  0  0  0  # atno 10763 bound_to 10752
  154.6933  135.5217  153.8426 H   0  0  0  0  0  0  0  0  0  0  0  0  # atno 10764 bound_to 10752
  153.0603  135.6611  154.0608 H   0  0  0  0  0  0  0  0  0  0  0  0  # atno 10765 bound_to 10752
  139.9968  134.9494  156.9983 H   0  0  0  0  0  0  0  0  0  0  0  0  # atno 11005 bound_to 11000
  145.3170  141.0234  143.3522 LP  0  0  0  0  0  0  0  0  0  0  0  0  # atno 17320 bound_to 7965
  144.8894  139.4795  143.6685 LP  0  0  0  0  0  0  0  0  0  0  0  0  # atno 17321 bound_to 7965
  140.7671  143.5611  150.9098 LP  0  0  0  0  0  0  0  0  0  0  0  0  # atno 17342 bound_to 10162
  139.9286  143.6520  152.3081 LP  0  0  0  0  0  0  0  0  0  0  0  0  # atno 17343 bound_to 10162
  156.8942  130.5224  149.5285 LP  0  0  0  0  0  0  0  0  0  0  0  0  # atno 17370 bound_to 10713
  156.0706  130.5740  150.9376 LP  0  0  0  0  0  0  0  0  0  0  0  0  # atno 17371 bound_to 10713
  140.4803  134.1297  155.7216 LP  0  0  0  0  0  0  0  0  0  0  0  0  # atno 17394 bound_to 11000
  141.1611  133.8791  157.1846 LP  0  0  0  0  0  0  0  0  0  0  0  0  # atno 17395 bound_to 11000

$$$$
