AV-unprocessed.smi:1776|AV-procd|sdf|7173|dock4
  -GOLD-   22720 8413D 1   1.00000     0.00000
 Structure written by MMmdl.
 31 32  0  0  0  0  0  0  0  0  1 V2000
  153.8566  139.7811  158.9025 O   0  0  0  0  0  0  0  0  0  0  0  0
  154.0519  139.5268  160.0909 C   0  0  0  0  0  0  0  0  0  0  0  0
  153.7814  140.3594  161.1169 N   0  0  0  0  0  0  0  0  0  0  0  0
  153.2465  141.6597  161.1160 C   0  0  0  0  0  0  0  0  0  0  0  0
  152.6714  142.2740  160.0483 C   0  0  0  0  0  0  0  0  0  0  0  0
  152.1470  143.6273  160.1261 C   0  0  0  0  0  0  0  0  0  0  0  0
  151.4412  144.2740  158.9440 C   0  0  0  0  0  0  0  0  0  0  0  0
  151.3623  143.4379  157.9078 F   0  0  0  0  0  0  0  0  0  0  0  0
  150.2034  144.6226  159.2920 F   0  0  0  0  0  0  0  0  0  0  0  0
  152.0847  145.3721  158.5475 F   0  0  0  0  0  0  0  0  0  0  0  0
  152.2476  144.2431  161.3184 C   0  0  0  0  0  0  0  0  0  0  0  0
  152.8509  143.6260  162.4160 N   0  0  0  0  0  0  0  0  0  0  0  0
  153.3600  142.3739  162.3990 C   0  0  0  0  0  0  0  0  0  0  0  0
  153.8756  141.9008  163.4113 O   0  0  0  0  0  0  0  0  0  0  0  0
  154.6586  138.1745  160.4947 C   0  0  2  0  0  0  0  0  0  0  0  0
  153.8345  136.9626  160.0003 C   0  0  0  0  0  0  0  0  0  0  0  0
  154.4467  135.7614  160.4524 O   0  0  0  0  0  0  0  0  0  0  0  0
  154.5156  135.7177  161.8710 C   0  0  0  0  0  0  0  0  0  0  0  0
  155.3446  136.9140  162.3657 C   0  0  0  0  0  0  0  0  0  0  0  0
  154.7353  138.1170  161.9170 O   0  0  0  0  0  0  0  0  0  0  0  0
  152.9001  144.1591  163.2723 H   0  0  0  0  0  0  0  0  0  0  0  0
  153.9719  139.9909  162.0381 H   0  0  0  0  0  0  0  0  0  0  0  0
  152.5930  141.7838  159.0929 H   0  0  0  0  0  0  0  0  0  0  0  0
  151.8773  145.2365  161.5246 H   0  0  0  0  0  0  0  0  0  0  0  0
  155.6662  138.1277  160.0776 H   0  0  0  0  0  0  0  0  0  0  0  0
  152.8037  137.0115  160.3563 H   0  0  0  0  0  0  0  0  0  0  0  0
  153.7983  136.9396  158.9104 H   0  0  0  0  0  0  0  0  0  0  0  0
  153.5121  135.7346  162.2994 H   0  0  0  0  0  0  0  0  0  0  0  0
  154.9807  134.7806  162.1774 H   0  0  0  0  0  0  0  0  0  0  0  0
  155.3864  136.9214  163.4549 H   0  0  0  0  0  0  0  0  0  0  0  0
  156.3722  136.8531  162.0037 H   0  0  0  0  0  0  0  0  0  0  0  0
  1  2  2  0  0  0  0
  2  3  1  0  0  0  0
  2 15  1  0  0  0  0
  3  4  1  0  0  0  0
  3 22  1  0  0  0  0
  4 13  1  0  0  0  0
  4  5  2  0  0  0  0
  5  6  1  0  0  0  0
  5 23  1  0  0  0  0
  6  7  1  0  0  0  0
  6 11  2  0  0  0  0
  7  8  1  0  0  0  0
  7  9  1  0  0  0  0
  7 10  1  0  0  0  0
 11 12  1  0  0  0  0
 11 24  1  0  0  0  0
 12 21  1  0  0  0  0
 12 13  1  0  0  0  0
 13 14  2  0  0  0  0
 15 20  1  0  0  0  0
 15 16  1  0  0  0  0
 15 25  1  0  0  0  0
 16 17  1  0  0  0  0
 16 26  1  0  0  0  0
 16 27  1  0  0  0  0
 17 18  1  0  0  0  0
 18 19  1  0  0  0  0
 18 28  1  0  0  0  0
 18 29  1  0  0  0  0
 19 20  1  0  0  0  0
 19 30  1  0  0  0  0
 19 31  1  0  0  0  0
M  END
> <s_m_source_file>
AV-unprocessed.smi

> <i_m_source_file_index>
1776

> <i_lp_mmshare_version>
43012

> <i_f3d_flags>
0

> <s_epik_input>
TzFbQ0gyXVtDSDJdT1tDSDJdW0NASF0xQyg9TylbTkhdYzJbY0hdYyhDKEYpKEYpRilbY0hdW25IXWMyPU8=

> <s_epik_cmdline>
J2VwaWtfcHl0aG9uJywgJy1waCcsICc3LjAnLCAnLXRuJywgJzgnLCAnLW1hJywgJzIwMCcsICctbWV0YWxfYmluZGluZycsICctaW1hZScsICc8aW5maWxlLm1hZT4nLCAnLW9tYWUnLCAnPG91dGZpbGUubWFlPic=

> <r_lp_tautomer_probability>
0.999

> <r_epik_Ionization_Penalty>
0.0100875

> <r_epik_Ionization_Penalty_Charging>
0.0100873

> <r_epik_Ionization_Penalty_Neutral>
1.79075e-07

> <r_epik_State_Penalty>
0.00769562

> <r_epik_Charging_Adjusted_Penalty>
0.017783

> <i_epik_Tot_Q>
0

> <i_epik_Tot_abs_Q>
0

> <r_epik_Metal_State_Penalty>
0.325451

> <b_epik_Metal_Only>
0

> <s_lp_Force_Field>
OPLS_2005

> <r_lp_Energy>
23.697

> <b_lp_Chiralities_Consistent>
1

> <s_lp_Variant>
AV-unprocessed.smi:1776-1

> <Gold.Version>
5.8.1

> <Gold.Id.Protein>
6NUR|6NUR_protein|mol2

> <Gold.PLP.Fitness>
41.2536

> <Gold.PLP.PLP>
-36.8975

> <Gold.PLP.part.hbond>
-1.6207

> <Gold.PLP.part.metal>
0.0000

> <Gold.PLP.part.buried>
-3.0517

> <Gold.PLP.part.nonpolar>
-33.4918

> <Gold.PLP.part.repulsive>
0.1605

> <Gold.PLP.ligand.clash>
0.0000

> <Gold.PLP.ligand.torsion>
0.0872

> <Gold.PLP.Chemscore.Hbond>
1.5001

> <Gold.PLP.Chemscore.CHOScore>
0.0000

> <Gold.PLP.Chemscore.Metal>
0.0000

> <Gold.Chemscore.Hbonds>
donor molecule, donor type, donor heavy atom, donor atom, acceptor molecule, acceptor atom, score
      P1  H  6896  6909       L1    17  0.15
      P1  H  7997  8009       L1     1  0.98

> <Gold.PLP.Chemscore.Internal.Correction>
0.0303

> <Gold.Rescore>
     Score         DG    S(hbond)    S(metal)    S(lipo)     H(rot)  DE(clash)    DE(int)     intcor
     13.81     -14.97       0.99        0.00      74.74       1.00       0.03       1.13       ----

> <Gold.Chemscore.Fitness>
13.8146

> <Gold.Chemscore.DG>
-14.9738

> <Gold.Chemscore.ZeroCoef>
-5.4800

> <Gold.Chemscore.Hbond>
0.9909

> <Gold.Chemscore.Metal>
0.0000

> <Gold.Chemscore.Lipo>
74.7379

> <Gold.Chemscore.Internal_Hbond>
0.0000

> <Gold.Chemscore.DEClash>
0.0295

> <Gold.Chemscore.DEInternal>
1.1296

> <Gold.Chemscore.Rot>
1.0000

> <Gold.Chemscore.Internal.Correction>
   9.000000E+99

> <Gold.Chemscore.Hbonds>
donor molecule, donor type, donor heavy atom, donor atom, acceptor molecule, acceptor atom, score
      P1  H  7997  8009       L1     1  0.90

> <Gold.Chemscore.Hbond.Weighted>
-3.3095

> <Gold.Chemscore.Metal.Weighted>
-0.0000

> <Gold.Chemscore.Lipo.Weighted>
-8.7443

> <Gold.Chemscore.Internal_Hbond.Weighted>
0.0000

> <Gold.Chemscore.DEClash.Weighted>
0.0295

> <Gold.Chemscore.DEInternal.Weighted>
1.1296

> <Gold.Chemscore.Rot.Weighted>
2.5600

> <Gold.Chemscore.Internal.Correction.Weighted>
   9.000000E+99

> <Gold.Protein.RotatedTorsions>
[ 6907 6896 6895 6894 ] final -171.40 input  -60.11 | X-H torsion
[ 7974 7965 7964 7962 ] final   26.78 input  175.53 | X-H torsion
[ 8008 7997 7996 7995 ] final  120.94 input   59.86 | X-H torsion
[ 10167 10162 10161 10158 ] final -163.79 input  -65.29 | X-H torsion
[ 10718 10713 10712 10709 ] final  -69.60 input   66.30 | X-H torsion
[ 10763 10752 10751 10750 ] final -124.00 input  -60.55 | X-H torsion
[ 11005 11000 10999 10996 ] final  -61.92 input  -57.11 | X-H torsion

> <Gold.Protein.ActiveResidues>
 VAL166  LYS551  ARG553  GLY616  TRP617  ASP618  TYR619  PRO620  LYS621  CYS622 
 ASP623  PHE694  ASN695  SER759  ASP760  ASP761  ALA762  ILE779  LEU786  VAL792 
 PHE793  MET794  SER795  GLU796  ALA797  LYS798  CYS799  TRP800  GLU811  SER814 

> <Gold.Protein.RotatedAtoms>
  151.5232  133.3462  159.2904 H   0  0  0  0  0  0  0  0  0  0  0  0  # atno 6907 bound_to 6896
  150.8639  134.8000  159.7115 H   0  0  0  0  0  0  0  0  0  0  0  0  # atno 6908 bound_to 6896
  152.4650  134.5106  159.9804 H   0  0  0  0  0  0  0  0  0  0  0  0  # atno 6909 bound_to 6896
  146.1819  139.7281  142.8894 H   0  0  0  0  0  0  0  0  0  0  0  0  # atno 7974 bound_to 7965
  156.2665  140.2819  156.1230 H   0  0  0  0  0  0  0  0  0  0  0  0  # atno 8008 bound_to 7997
  155.1135  140.0391  157.2748 H   0  0  0  0  0  0  0  0  0  0  0  0  # atno 8009 bound_to 7997
  154.6724  140.2591  155.6999 H   0  0  0  0  0  0  0  0  0  0  0  0  # atno 8010 bound_to 7997
  139.6296  144.0466  152.2004 H   0  0  0  0  0  0  0  0  0  0  0  0  # atno 10167 bound_to 10162
  156.0448  130.4315  150.2171 H   0  0  0  0  0  0  0  0  0  0  0  0  # atno 10718 bound_to 10713
  154.8717  135.4079  154.3035 H   0  0  0  0  0  0  0  0  0  0  0  0  # atno 10763 bound_to 10752
  153.3890  135.7014  153.6514 H   0  0  0  0  0  0  0  0  0  0  0  0  # atno 10764 bound_to 10752
  153.5304  135.3668  155.2644 H   0  0  0  0  0  0  0  0  0  0  0  0  # atno 10765 bound_to 10752
  141.1342  133.6635  156.5449 H   0  0  0  0  0  0  0  0  0  0  0  0  # atno 11005 bound_to 11000
  145.4050  141.0390  143.3049 LP  0  0  0  0  0  0  0  0  0  0  0  0  # atno 17320 bound_to 7965
  144.8330  139.5596  143.6935 LP  0  0  0  0  0  0  0  0  0  0  0  0  # atno 17321 bound_to 7965
  140.0128  144.6211  150.7633 LP  0  0  0  0  0  0  0  0  0  0  0  0  # atno 17342 bound_to 10162
  140.7431  143.2841  151.3513 LP  0  0  0  0  0  0  0  0  0  0  0  0  # atno 17343 bound_to 10162
  157.0262  130.9994  151.3325 LP  0  0  0  0  0  0  0  0  0  0  0  0  # atno 17370 bound_to 10713
  157.5309  130.8058  149.7916 LP  0  0  0  0  0  0  0  0  0  0  0  0  # atno 17371 bound_to 10713
  140.4110  134.7272  157.4836 LP  0  0  0  0  0  0  0  0  0  0  0  0  # atno 17394 bound_to 11000
  140.0427  134.6244  155.8960 LP  0  0  0  0  0  0  0  0  0  0  0  0  # atno 17395 bound_to 11000

$$$$
