AV-unprocessed.smi:149|AV-procd|sdf|1236|dock10
  -GOLD-   2262018453D 1   1.00000     0.00000
 Structure written by MMmdl.
 60 64  0  0  0  0  0  0  0  0  2 V2000
  146.7739  142.3370  154.8137 C   0  0  0  0  0  0  0  0  0  0  0  0
  147.9979  141.7578  154.0754 C   0  0  2  0  0  0  0  0  0  0  0  0
  147.6174  140.4702  153.3248 C   0  0  0  0  0  0  0  0  0  0  0  0
  148.0411  139.3643  154.1749 N   0  0  0  0  0  0  0  0  0  0  0  0
  147.3983  138.1681  154.1488 C   0  0  0  0  0  0  0  0  0  0  0  0
  147.4118  137.3948  155.2669 N   0  0  0  0  0  0  0  0  0  0  0  0
  146.7961  136.2092  155.2792 C   0  0  0  0  0  0  0  0  0  0  0  0
  146.1190  135.6114  154.2981 N   0  0  0  0  0  0  0  0  0  0  0  0
  146.1047  136.3755  153.1689 C   0  0  0  0  0  0  0  0  0  0  0  0
  146.7188  137.6510  153.0062 C   0  0  0  0  0  0  0  0  0  0  0  0
  146.5154  138.1039  151.7072 N   0  0  0  0  0  0  0  0  0  0  0  0
  145.8213  137.1565  151.1393 C   0  0  0  0  0  0  0  0  0  0  0  0
  145.5028  136.0945  151.9539 N   0  0  0  0  0  0  0  0  0  0  0  0
  144.7901  134.9093  151.5737 C   0  0  0  0  0  0  0  0  0  0  0  0
  145.2967  133.5211  151.9789 C   0  0  0  0  0  0  0  0  0  0  0  0
  144.8312  132.9410  150.6246 C   0  0  0  0  0  0  0  0  0  0  0  0
  145.8643  132.0375  149.9340 C   0  0  0  0  0  0  0  0  0  0  0  0
  147.1748  132.5482  150.0709 O   0  0  0  0  0  0  0  0  0  0  0  0
  143.4891  132.1755  150.6341 C   0  0  0  0  0  0  0  0  0  0  0  0
  142.9016  132.0602  149.3539 O   0  0  0  0  0  0  0  0  0  0  0  0
  144.8051  134.4034  150.1283 C   0  0  0  0  0  0  0  0  0  0  0  0
  148.6638  139.8733  155.3877 C   0  0  0  0  0  0  0  0  0  0  0  0
  149.1335  141.2806  155.0038 C   0  0  2  0  0  0  0  0  0  0  0  0
  149.4334  142.1861  156.1488 N   0  3  0  0  0  0  0  0  0  0  0  0
  148.5367  141.9955  157.3178 C   0  0  0  0  0  0  0  0  0  0  0  0
  148.8906  142.9872  158.4397 C   0  0  0  0  0  0  0  0  0  0  0  0
  150.2540  142.8303  158.8087 O   0  0  0  0  0  0  0  0  0  0  0  0
  151.1292  143.0998  157.7222 C   0  0  0  0  0  0  0  0  0  0  0  0
  150.8523  142.1071  156.5816 C   0  0  0  0  0  0  0  0  0  0  0  0
  146.3658  141.6289  155.5353 H   0  0  0  0  0  0  0  0  0  0  0  0
  145.9782  142.5815  154.1096 H   0  0  0  0  0  0  0  0  0  0  0  0
  147.0196  143.2537  155.3493 H   0  0  0  0  0  0  0  0  0  0  0  0
  148.3625  142.5054  153.3701 H   0  0  0  0  0  0  0  0  0  0  0  0
  146.5491  140.4354  153.1065 H   0  0  0  0  0  0  0  0  0  0  0  0
  148.1564  140.4066  152.3791 H   0  0  0  0  0  0  0  0  0  0  0  0
  146.8531  135.6612  156.2080 H   0  0  0  0  0  0  0  0  0  0  0  0
  145.5173  137.2107  150.1039 H   0  0  0  0  0  0  0  0  0  0  0  0
  143.7653  135.0597  151.9150 H   0  0  0  0  0  0  0  0  0  0  0  0
  146.3807  133.4946  152.1003 H   0  0  0  0  0  0  0  0  0  0  0  0
  144.8000  133.1005  152.8538 H   0  0  0  0  0  0  0  0  0  0  0  0
  145.8538  131.0361  150.3655 H   0  0  0  0  0  0  0  0  0  0  0  0
  145.6390  131.9182  148.8738 H   0  0  0  0  0  0  0  0  0  0  0  0
  147.7883  131.8417  149.9383 H   0  0  0  0  0  0  0  0  0  0  0  0
  143.6181  131.1653  151.0233 H   0  0  0  0  0  0  0  0  0  0  0  0
  142.7671  132.6703  151.2845 H   0  0  0  0  0  0  0  0  0  0  0  0
  142.2738  132.7585  149.2480 H   0  0  0  0  0  0  0  0  0  0  0  0
  143.9216  134.6737  149.5493 H   0  0  0  0  0  0  0  0  0  0  0  0
  145.7171  134.6869  149.6000 H   0  0  0  0  0  0  0  0  0  0  0  0
  147.9304  139.9062  156.1948 H   0  0  0  0  0  0  0  0  0  0  0  0
  149.4953  139.2389  155.6975 H   0  0  0  0  0  0  0  0  0  0  0  0
  150.0428  141.1731  154.4086 H   0  0  0  0  0  0  0  0  0  0  0  0
  147.4960  142.1491  157.0337 H   0  0  0  0  0  0  0  0  0  0  0  0
  148.6230  140.9706  157.6824 H   0  0  0  0  0  0  0  0  0  0  0  0
  148.7029  144.0150  158.1248 H   0  0  0  0  0  0  0  0  0  0  0  0
  148.2656  142.8042  159.3140 H   0  0  0  0  0  0  0  0  0  0  0  0
  151.0062  144.1299  157.3835 H   0  0  0  0  0  0  0  0  0  0  0  0
  152.1589  142.9983  158.0658 H   0  0  0  0  0  0  0  0  0  0  0  0
  151.0775  141.0920  156.9127 H   0  0  0  0  0  0  0  0  0  0  0  0
  151.5202  142.3238  155.7485 H   0  0  0  0  0  0  0  0  0  0  0  0
  149.2771  143.1281  155.8195 H   0  0  0  0  0  0  0  0  0  0  0  0
  1  2  1  0  0  0  0
  1 30  1  0  0  0  0
  1 31  1  0  0  0  0
  1 32  1  0  0  0  0
  2 23  1  0  0  0  0
  2  3  1  0  0  0  0
  2 33  1  0  0  0  0
  3  4  1  0  0  0  0
  3 34  1  0  0  0  0
  3 35  1  0  0  0  0
  4  5  1  0  0  0  0
  4 22  1  0  0  0  0
  5 10  1  0  0  0  0
  5  6  2  0  0  0  0
  6  7  1  0  0  0  0
  7  8  2  0  0  0  0
  7 36  1  0  0  0  0
  8  9  1  0  0  0  0
  9 13  1  0  0  0  0
  9 10  2  0  0  0  0
 10 11  1  0  0  0  0
 11 12  2  0  0  0  0
 12 13  1  0  0  0  0
 12 37  1  0  0  0  0
 13 14  1  0  0  0  0
 14 21  1  0  0  0  0
 14 15  1  0  0  0  0
 14 38  1  0  0  0  0
 15 16  1  0  0  0  0
 15 39  1  0  0  0  0
 15 40  1  0  0  0  0
 16 17  1  0  0  0  0
 16 19  1  0  0  0  0
 16 21  1  0  0  0  0
 17 18  1  0  0  0  0
 17 41  1  0  0  0  0
 17 42  1  0  0  0  0
 18 43  1  0  0  0  0
 19 20  1  0  0  0  0
 19 44  1  0  0  0  0
 19 45  1  0  0  0  0
 20 46  1  0  0  0  0
 21 47  1  0  0  0  0
 21 48  1  0  0  0  0
 22 23  1  0  0  0  0
 22 49  1  0  0  0  0
 22 50  1  0  0  0  0
 23 24  1  0  0  0  0
 23 51  1  0  0  0  0
 24 29  1  0  0  0  0
 24 25  1  0  0  0  0
 24 60  1  0  0  0  0
 25 26  1  0  0  0  0
 25 52  1  0  0  0  0
 25 53  1  0  0  0  0
 26 27  1  0  0  0  0
 26 54  1  0  0  0  0
 26 55  1  0  0  0  0
 27 28  1  0  0  0  0
 28 29  1  0  0  0  0
 28 56  1  0  0  0  0
 28 57  1  0  0  0  0
 29 58  1  0  0  0  0
 29 59  1  0  0  0  0
M  CHG  1  24   1
M  END
> <s_m_source_file>
AV-unprocessed.smi

> <i_m_source_file_index>
149

> <i_lp_mmshare_version>
43012

> <i_f3d_flags>
0

> <s_epik_input>
W0NIMl0xW0NIMl1PW0NIMl1bQ0gyXU4xW0NAQEhdMltDSDJdTihbQ0gyXVtDQEhdMltDSDNdKWMobltjSF1uMyljKGMzNCluW2NIXW40W0NIXShbQ0gyXTUpW0NIMl1DNShbQ0gyXVtPSF0pW0NIMl1bT0hd

> <s_epik_cmdline>
J2VwaWtfcHl0aG9uJywgJy1waCcsICc3LjAnLCAnLXRuJywgJzgnLCAnLW1hJywgJzIwMCcsICctbWV0YWxfYmluZGluZycsICctaW1hZScsICc8aW5maWxlLm1hZT4nLCAnLW9tYWUnLCAnPG91dGZpbGUubWFlPic=

> <r_lp_tautomer_probability>
1

> <r_epik_Ionization_Penalty>
0.404847

> <r_epik_Ionization_Penalty_Charging>
0.404623

> <r_epik_Ionization_Penalty_Neutral>
0.000224096

> <r_epik_State_Penalty>
0.238803

> <r_epik_Charging_Adjusted_Penalty>
0.643425

> <i_epik_Tot_Q>
1

> <i_epik_Tot_abs_Q>
1

> <r_epik_Metal_State_Penalty>
0.239083

> <b_epik_Metal_Only>
0

> <s_lp_Force_Field>
OPLS_2005

> <r_lp_Energy>
71.321

> <b_lp_Chiralities_Consistent>
1

> <s_lp_Variant>
AV-unprocessed.smi:149-3

> <Gold.Version>
5.8.1

> <Gold.Id.Protein>
6NUR|6NUR_protein|mol2

> <Gold.PLP.Fitness>
59.0316

> <Gold.PLP.PLP>
-44.7675

> <Gold.PLP.part.hbond>
-6.1443

> <Gold.PLP.part.metal>
0.0000

> <Gold.PLP.part.buried>
2.5716

> <Gold.PLP.part.nonpolar>
-42.3783

> <Gold.PLP.part.repulsive>
0.7262

> <Gold.PLP.ligand.clash>
0.0000

> <Gold.PLP.ligand.torsion>
1.6073

> <Gold.PLP.Chemscore.Hbond>
4.8850

> <Gold.PLP.Chemscore.CHOScore>
0.7122

> <Gold.PLP.Chemscore.Metal>
0.0000

> <Gold.Chemscore.Hbonds>
donor molecule, donor type, donor heavy atom, donor atom, acceptor molecule, acceptor atom, score
      L1  H    18    43       P1 10747  1.00
      L1  H    20    46       P1 10186  0.83
      L1  H    24    60       P1  8028  2.00
      P1  H 10785 10796       L1    20  0.99
      L1  C    12    37       P1 10171  0.66

> <Gold.PLP.Chemscore.Internal.Correction>
0.6868

> <Gold.Rescore>
     Score         DG    S(hbond)    S(metal)    S(lipo)     H(rot)  DE(clash)    DE(int)     intcor
     17.12     -21.46       3.60        0.00     101.44       3.09       1.95       2.38       ----

> <Gold.Chemscore.Fitness>
17.1247

> <Gold.Chemscore.DG>
-21.4609

> <Gold.Chemscore.ZeroCoef>
-5.4800

> <Gold.Chemscore.Hbond>
3.6007

> <Gold.Chemscore.Metal>
0.0000

> <Gold.Chemscore.Lipo>
101.4351

> <Gold.Chemscore.Internal_Hbond>
0.0000

> <Gold.Chemscore.DEClash>
1.9516

> <Gold.Chemscore.DEInternal>
2.3846

> <Gold.Chemscore.Rot>
3.0912

> <Gold.Chemscore.Internal.Correction>
   9.000000E+99

> <Gold.Chemscore.Hbonds>
donor molecule, donor type, donor heavy atom, donor atom, acceptor molecule, acceptor atom, score
      L1  H    18    43       P1 10747  0.95
      L1  H    20    46       P1 10186  0.80
      L1  H    24    60       P1  8028  1.00
      P1  H 10785 10796       L1    20  0.56

> <Gold.Chemscore.Hbond.Weighted>
-12.0265

> <Gold.Chemscore.Metal.Weighted>
-0.0000

> <Gold.Chemscore.Lipo.Weighted>
-11.8679

> <Gold.Chemscore.Internal_Hbond.Weighted>
0.0000

> <Gold.Chemscore.DEClash.Weighted>
1.9516

> <Gold.Chemscore.DEInternal.Weighted>
2.3846

> <Gold.Chemscore.Rot.Weighted>
7.9135

> <Gold.Chemscore.Internal.Correction.Weighted>
   9.000000E+99

> <Gold.Protein.RotatedTorsions>
[ 6907 6896 6895 6894 ] final  -49.35 input  -60.11 | X-H torsion
[ 7974 7965 7964 7962 ] final -154.21 input  175.53 | X-H torsion
[ 8008 7997 7996 7995 ] final -147.51 input   59.86 | X-H torsion
[ 10167 10162 10161 10158 ] final  131.82 input  -65.29 | X-H torsion
[ 10718 10713 10712 10709 ] final   98.97 input   66.30 | X-H torsion
[ 10763 10752 10751 10750 ] final -140.80 input  -60.55 | X-H torsion
[ 11005 11000 10999 10996 ] final  100.47 input  -57.11 | X-H torsion

> <Gold.Protein.ActiveResidues>
 VAL166  LYS551  ARG553  GLY616  TRP617  ASP618  TYR619  PRO620  LYS621  CYS622 
 ASP623  PHE694  ASN695  SER759  ASP760  ASP761  ALA762  ILE779  LEU786  VAL792 
 PHE793  MET794  SER795  GLU796  ALA797  LYS798  CYS799  TRP800  GLU811  SER814 

> <Gold.Protein.RotatedAtoms>
  150.8813  134.8205  159.7226 H   0  0  0  0  0  0  0  0  0  0  0  0  # atno 6907 bound_to 6896
  152.4780  134.4791  159.9670 H   0  0  0  0  0  0  0  0  0  0  0  0  # atno 6908 bound_to 6896
  151.4866  133.3495  159.2882 H   0  0  0  0  0  0  0  0  0  0  0  0  # atno 6909 bound_to 6896
  144.7701  140.4419  143.5913 H   0  0  0  0  0  0  0  0  0  0  0  0  # atno 7974 bound_to 7965
  155.5767  140.0639  157.2793 H   0  0  0  0  0  0  0  0  0  0  0  0  # atno 8008 bound_to 7997
  154.4345  140.1859  156.0981 H   0  0  0  0  0  0  0  0  0  0  0  0  # atno 8009 bound_to 7997
  156.0336  140.3303  155.7170 H   0  0  0  0  0  0  0  0  0  0  0  0  # atno 8010 bound_to 7997
  139.5367  144.6689  151.4762 H   0  0  0  0  0  0  0  0  0  0  0  0  # atno 10167 bound_to 10162
  157.6885  131.0656  150.4877 H   0  0  0  0  0  0  0  0  0  0  0  0  # atno 10718 bound_to 10713
  154.8566  135.3542  154.5766 H   0  0  0  0  0  0  0  0  0  0  0  0  # atno 10763 bound_to 10752
  153.6378  135.6999  153.5257 H   0  0  0  0  0  0  0  0  0  0  0  0  # atno 10764 bound_to 10752
  153.2996  135.4210  155.1200 H   0  0  0  0  0  0  0  0  0  0  0  0  # atno 10765 bound_to 10752
  139.8771  134.9141  156.4761 H   0  0  0  0  0  0  0  0  0  0  0  0  # atno 11005 bound_to 11000
  145.6351  139.1542  143.2947 LP  0  0  0  0  0  0  0  0  0  0  0  0  # atno 17320 bound_to 7965
  146.1840  140.6451  142.9176 LP  0  0  0  0  0  0  0  0  0  0  0  0  # atno 17321 bound_to 7965
  140.6577  143.8565  150.6853 LP  0  0  0  0  0  0  0  0  0  0  0  0  # atno 17342 bound_to 10162
  140.1949  143.4006  152.1835 LP  0  0  0  0  0  0  0  0  0  0  0  0  # atno 17343 bound_to 10162
  156.5205  130.4161  149.6253 LP  0  0  0  0  0  0  0  0  0  0  0  0  # atno 17370 bound_to 10713
  156.3159  130.7254  151.2156 LP  0  0  0  0  0  0  0  0  0  0  0  0  # atno 17371 bound_to 10713
  140.8761  133.7952  155.9416 LP  0  0  0  0  0  0  0  0  0  0  0  0  # atno 17394 bound_to 11000
  140.8903  134.2504  157.5098 LP  0  0  0  0  0  0  0  0  0  0  0  0  # atno 17395 bound_to 11000

$$$$
