AV-unprocessed.smi:1240|AV-procd|sdf|5209|dock8
  -GOLD-   22720 4303D 1   1.00000     0.00000
 Structure written by MMmdl.
 49 51  0  0  0  0  0  0  0  0  3 V2000
  144.6324  136.1230  153.2196 O   0  0  0  0  0  0  0  0  0  0  0  0
  145.7908  136.2252  152.8178 C   0  0  0  0  0  0  0  0  0  0  0  0
  146.6040  137.2301  153.1694 N   0  0  0  0  0  0  0  0  0  0  0  0
  146.2086  138.3386  154.0335 C   0  0  0  0  0  0  0  0  0  0  0  0
  147.0654  139.6055  153.7795 C   0  0  2  0  0  0  0  0  0  0  0  0
  148.4043  139.5619  154.5883 C   0  0  1  0  0  0  0  0  0  0  0  0
  149.2740  138.3433  154.2971 C   0  0  0  0  0  0  0  0  0  0  0  0
  150.6554  138.8081  154.7263 C   0  0  0  0  0  0  0  0  0  0  0  0
  150.7067  140.1349  154.2360 O   0  0  0  0  0  0  0  0  0  0  0  0
  149.4015  140.7012  154.2848 C   0  0  0  0  0  0  0  0  0  0  0  0
  146.1977  140.8099  154.0144 N   0  3  0  0  0  0  0  0  0  0  0  0
  145.6355  141.0148  155.3752 C   0  0  0  0  0  0  0  0  0  0  0  0
  144.6828  142.2229  155.3901 C   0  0  0  0  0  0  0  0  0  0  0  0
  145.3703  143.3839  154.9455 O   0  0  0  0  0  0  0  0  0  0  0  0
  145.8417  143.2398  153.6130 C   0  0  0  0  0  0  0  0  0  0  0  0
  146.8347  142.0682  153.5447 C   0  0  0  0  0  0  0  0  0  0  0  0
  146.4085  135.3551  152.0001 N   0  0  0  0  0  0  0  0  0  0  0  0
  145.8732  134.1849  151.3959 C   0  0  0  0  0  0  0  0  0  0  0  0
  144.4897  133.9423  151.5459 C   0  0  0  0  0  0  0  0  0  0  0  0
  143.9208  132.7850  150.9759 C   0  0  0  0  0  0  0  0  0  0  0  0
  144.7021  131.9133  150.3026 N   0  3  0  0  0  0  0  0  0  0  0  0
  146.0312  132.0939  150.1470 C   0  0  0  0  0  0  0  0  0  0  0  0
  146.6562  133.2330  150.6943 C   0  0  0  0  0  0  0  0  0  0  0  0
  147.5406  137.2470  152.7931 H   0  0  0  0  0  0  0  0  0  0  0  0
  145.1485  138.5485  153.8877 H   0  0  0  0  0  0  0  0  0  0  0  0
  146.2939  138.0195  155.0723 H   0  0  0  0  0  0  0  0  0  0  0  0
  147.3441  139.5976  152.7242 H   0  0  0  0  0  0  0  0  0  0  0  0
  148.1954  139.5465  155.6590 H   0  0  0  0  0  0  0  0  0  0  0  0
  148.9543  137.4484  154.8321 H   0  0  0  0  0  0  0  0  0  0  0  0
  149.2810  138.1202  153.2291 H   0  0  0  0  0  0  0  0  0  0  0  0
  150.7444  138.8156  155.8137 H   0  0  0  0  0  0  0  0  0  0  0  0
  151.4576  138.1945  154.3157 H   0  0  0  0  0  0  0  0  0  0  0  0
  149.1977  141.1795  153.3263 H   0  0  0  0  0  0  0  0  0  0  0  0
  149.3757  141.4709  155.0559 H   0  0  0  0  0  0  0  0  0  0  0  0
  145.0722  140.1413  155.7002 H   0  0  0  0  0  0  0  0  0  0  0  0
  146.4421  141.1835  156.0893 H   0  0  0  0  0  0  0  0  0  0  0  0
  143.8096  142.0393  154.7619 H   0  0  0  0  0  0  0  0  0  0  0  0
  144.3154  142.3980  156.4013 H   0  0  0  0  0  0  0  0  0  0  0  0
  145.0047  143.0840  152.9300 H   0  0  0  0  0  0  0  0  0  0  0  0
  146.3319  144.1654  153.3108 H   0  0  0  0  0  0  0  0  0  0  0  0
  147.7078  142.2864  154.1619 H   0  0  0  0  0  0  0  0  0  0  0  0
  147.1920  141.9632  152.5209 H   0  0  0  0  0  0  0  0  0  0  0  0
  147.3900  135.5200  151.8317 H   0  0  0  0  0  0  0  0  0  0  0  0
  143.8640  134.6380  152.0862 H   0  0  0  0  0  0  0  0  0  0  0  0
  142.8726  132.5316  151.0393 H   0  0  0  0  0  0  0  0  0  0  0  0
  146.5533  131.3238  149.5980 H   0  0  0  0  0  0  0  0  0  0  0  0
  147.7230  133.3473  150.5760 H   0  0  0  0  0  0  0  0  0  0  0  0
  145.3916  140.6674  153.4230 H   0  0  0  0  0  0  0  0  0  0  0  0
  144.2711  131.0812  149.8987 H   0  0  0  0  0  0  0  0  0  0  0  0
  1  2  2  0  0  0  0
  2  3  1  0  0  0  0
  2 17  1  0  0  0  0
  3  4  1  0  0  0  0
  3 24  1  0  0  0  0
  4  5  1  0  0  0  0
  4 25  1  0  0  0  0
  4 26  1  0  0  0  0
  5  6  1  0  0  0  0
  5 11  1  0  0  0  0
  5 27  1  0  0  0  0
  6 10  1  0  0  0  0
  6  7  1  0  0  0  0
  6 28  1  0  0  0  0
  7  8  1  0  0  0  0
  7 29  1  0  0  0  0
  7 30  1  0  0  0  0
  8  9  1  0  0  0  0
  8 31  1  0  0  0  0
  8 32  1  0  0  0  0
  9 10  1  0  0  0  0
 10 33  1  0  0  0  0
 10 34  1  0  0  0  0
 11 16  1  0  0  0  0
 11 12  1  0  0  0  0
 11 48  1  0  0  0  0
 12 13  1  0  0  0  0
 12 35  1  0  0  0  0
 12 36  1  0  0  0  0
 13 14  1  0  0  0  0
 13 37  1  0  0  0  0
 13 38  1  0  0  0  0
 14 15  1  0  0  0  0
 15 16  1  0  0  0  0
 15 39  1  0  0  0  0
 15 40  1  0  0  0  0
 16 41  1  0  0  0  0
 16 42  1  0  0  0  0
 17 18  1  0  0  0  0
 17 43  1  0  0  0  0
 18 23  1  0  0  0  0
 18 19  2  0  0  0  0
 19 20  1  0  0  0  0
 19 44  1  0  0  0  0
 20 21  2  0  0  0  0
 20 45  1  0  0  0  0
 21 22  1  0  0  0  0
 21 49  1  0  0  0  0
 22 23  2  0  0  0  0
 22 46  1  0  0  0  0
 23 47  1  0  0  0  0
M  CHG  1  11   1
M  CHG  1  21   1
M  END
> <s_m_source_file>
AV-unprocessed.smi

> <i_m_source_file_index>
1240

> <i_lp_mmshare_version>
43012

> <i_f3d_flags>
0

> <s_epik_input>
W2NIXTFbY0hdbltjSF1bY0hdYzFbTkhdQyg9TylbTkhdW0NIMl1bQ0BIXShbQ0BASF0yW0NIMl1bQ0gyXU9bQ0gyXTIpTjNbQ0gyXVtDSDJdT1tDSDJdW0NIMl0z

> <s_epik_cmdline>
J2VwaWtfcHl0aG9uJywgJy1waCcsICc3LjAnLCAnLXRuJywgJzgnLCAnLW1hJywgJzIwMCcsICctbWV0YWxfYmluZGluZycsICctaW1hZScsICc8aW5maWxlLm1hZT4nLCAnLW9tYWUnLCAnPG91dGZpbGUubWFlPic=

> <r_epik_Ionization_Penalty>
2.08105

> <r_epik_Ionization_Penalty_Charging>
2.08103

> <r_epik_Ionization_Penalty_Neutral>
2.04144e-05

> <r_epik_State_Penalty>
2.15598

> <r_epik_Charging_Adjusted_Penalty>
4.23701

> <i_epik_Tot_Q>
2

> <i_epik_Tot_abs_Q>
2

> <r_epik_Metal_State_Penalty>
2.25158

> <b_epik_Metal_Only>
0

> <s_lp_Force_Field>
OPLS_2005

> <r_lp_Energy>
62.0114

> <b_lp_Chiralities_Consistent>
1

> <s_lp_Variant>
AV-unprocessed.smi:1240-15

> <Gold.Version>
5.8.1

> <Gold.Id.Protein>
6NUR|6NUR_protein|mol2

> <Gold.PLP.Fitness>
52.3162

> <Gold.PLP.PLP>
-38.4181

> <Gold.PLP.part.hbond>
-4.0000

> <Gold.PLP.part.metal>
0.0000

> <Gold.PLP.part.buried>
-7.3606

> <Gold.PLP.part.nonpolar>
-27.5034

> <Gold.PLP.part.repulsive>
0.5675

> <Gold.PLP.ligand.clash>
0.0000

> <Gold.PLP.ligand.torsion>
0.5947

> <Gold.PLP.Chemscore.Hbond>
4.9760

> <Gold.PLP.Chemscore.CHOScore>
0.0000

> <Gold.PLP.Chemscore.Metal>
0.0000

> <Gold.Chemscore.Hbonds>
donor molecule, donor type, donor heavy atom, donor atom, acceptor molecule, acceptor atom, score
      L1  H     3    24       P1  7948  0.93
      L1  H    11    48       P1 10175  2.00
      L1  H    17    43       P1  7948  1.00
      P1  H  7989  7998       L1     9  0.65

> <Gold.PLP.Chemscore.Internal.Correction>
0.1594

> <Gold.Rescore>
     Score         DG    S(hbond)    S(metal)    S(lipo)     H(rot)  DE(clash)    DE(int)     intcor
     21.60     -24.00       3.78        0.00      88.53       1.74       0.09       2.31       ----

> <Gold.Chemscore.Fitness>
21.6019

> <Gold.Chemscore.DG>
-24.0010

> <Gold.Chemscore.ZeroCoef>
-5.4800

> <Gold.Chemscore.Hbond>
3.7794

> <Gold.Chemscore.Metal>
0.0000

> <Gold.Chemscore.Lipo>
88.5261

> <Gold.Chemscore.Internal_Hbond>
0.0000

> <Gold.Chemscore.DEClash>
0.0901

> <Gold.Chemscore.DEInternal>
2.3091

> <Gold.Chemscore.Rot>
1.7421

> <Gold.Chemscore.Internal.Correction>
   9.000000E+99

> <Gold.Chemscore.Hbonds>
donor molecule, donor type, donor heavy atom, donor atom, acceptor molecule, acceptor atom, score
      L1  H     3    24       P1  7948  0.89
      L1  H    11    48       P1 10175  0.89
      L1  H    17    43       P1  7948  1.00
      P1  H  7989  7998       L1     9  0.57

> <Gold.Chemscore.Hbond.Weighted>
-12.6232

> <Gold.Chemscore.Metal.Weighted>
-0.0000

> <Gold.Chemscore.Lipo.Weighted>
-10.3576

> <Gold.Chemscore.Internal_Hbond.Weighted>
0.0000

> <Gold.Chemscore.DEClash.Weighted>
0.0901

> <Gold.Chemscore.DEInternal.Weighted>
2.3091

> <Gold.Chemscore.Rot.Weighted>
4.4597

> <Gold.Chemscore.Internal.Correction.Weighted>
   9.000000E+99

> <Gold.Protein.RotatedTorsions>
[ 6907 6896 6895 6894 ] final -110.83 input  -60.11 | X-H torsion
[ 7974 7965 7964 7962 ] final   59.00 input  175.53 | X-H torsion
[ 8008 7997 7996 7995 ] final -151.44 input   59.86 | X-H torsion
[ 10167 10162 10161 10158 ] final  -75.88 input  -65.29 | X-H torsion
[ 10718 10713 10712 10709 ] final  -47.41 input   66.30 | X-H torsion
[ 10763 10752 10751 10750 ] final  163.86 input  -60.55 | X-H torsion
[ 11005 11000 10999 10996 ] final   89.17 input  -57.11 | X-H torsion

> <Gold.Protein.ActiveResidues>
 VAL166  LYS551  ARG553  GLY616  TRP617  ASP618  TYR619  PRO620  LYS621  CYS622 
 ASP623  PHE694  ASN695  SER759  ASP760  ASP761  ALA762  ILE779  LEU786  VAL792 
 PHE793  MET794  SER795  GLU796  ALA797  LYS798  CYS799  TRP800  GLU811  SER814 

> <Gold.Protein.RotatedAtoms>
  150.7650  133.9324  159.3430 H   0  0  0  0  0  0  0  0  0  0  0  0  # atno 6907 bound_to 6896
  151.7224  135.0889  160.0296 H   0  0  0  0  0  0  0  0  0  0  0  0  # atno 6908 bound_to 6896
  152.3642  133.6297  159.6073 H   0  0  0  0  0  0  0  0  0  0  0  0  # atno 6909 bound_to 6896
  145.9120  139.3661  143.0530 H   0  0  0  0  0  0  0  0  0  0  0  0  # atno 7974 bound_to 7965
  155.6394  140.0700  157.2623 H   0  0  0  0  0  0  0  0  0  0  0  0  # atno 8008 bound_to 7997
  154.4187  140.1753  156.1606 H   0  0  0  0  0  0  0  0  0  0  0  0  # atno 8009 bound_to 7997
  155.9868  140.3349  155.6718 H   0  0  0  0  0  0  0  0  0  0  0  0  # atno 8010 bound_to 7997
  140.4905  143.2381  151.7915 H   0  0  0  0  0  0  0  0  0  0  0  0  # atno 10167 bound_to 10162
  156.2087  130.4159  149.9143 H   0  0  0  0  0  0  0  0  0  0  0  0  # atno 10718 bound_to 10713
  154.3001  135.2759  155.2615 H   0  0  0  0  0  0  0  0  0  0  0  0  # atno 10763 bound_to 10752
  154.5056  135.5796  153.6568 H   0  0  0  0  0  0  0  0  0  0  0  0  # atno 10764 bound_to 10752
  152.9902  135.6168  154.3171 H   0  0  0  0  0  0  0  0  0  0  0  0  # atno 10765 bound_to 10752
  139.8881  134.8534  156.3104 H   0  0  0  0  0  0  0  0  0  0  0  0  # atno 11005 bound_to 11000
  145.8659  140.9448  143.0676 LP  0  0  0  0  0  0  0  0  0  0  0  0  # atno 17320 bound_to 7965
  144.6744  140.0591  143.7476 LP  0  0  0  0  0  0  0  0  0  0  0  0  # atno 17321 bound_to 7965
  139.4850  144.4655  151.9489 LP  0  0  0  0  0  0  0  0  0  0  0  0  # atno 17342 bound_to 10162
  140.3742  144.2817  150.5916 LP  0  0  0  0  0  0  0  0  0  0  0  0  # atno 17343 bound_to 10162
  156.6828  130.8865  151.3578 LP  0  0  0  0  0  0  0  0  0  0  0  0  # atno 17370 bound_to 10713
  157.7027  130.9350  150.0833 LP  0  0  0  0  0  0  0  0  0  0  0  0  # atno 17371 bound_to 10713
  140.9854  133.7241  156.0734 LP  0  0  0  0  0  0  0  0  0  0  0  0  # atno 17394 bound_to 11000
  140.7695  134.3849  157.5510 LP  0  0  0  0  0  0  0  0  0  0  0  0  # atno 17395 bound_to 11000

$$$$
