AV-unprocessed.smi:2520|AV-procd|sdf|9914|dock9
  -GOLD-   2272013553D 1   1.00000     0.00000
 Structure written by MMmdl.
 41 44  0  0  0  0  0  0  0  0  1 V2000
  150.2030  136.1595  158.6433 O   0  0  0  0  0  0  0  0  0  0  0  0
  149.5801  137.1631  158.9842 C   0  0  0  0  0  0  0  0  0  0  0  0
  148.6060  137.0941  159.9165 N   0  0  0  0  0  0  0  0  0  0  0  0
  148.0908  135.9939  160.6632 C   0  0  0  0  0  0  0  0  0  0  0  0
  147.7272  136.3003  161.9920 C   0  0  0  0  0  0  0  0  0  0  0  0
  147.2081  135.2732  162.7987 C   0  0  0  0  0  0  0  0  0  0  0  0
  147.0846  133.9996  162.2186 C   0  0  0  0  0  0  0  0  0  0  0  0
  147.4418  133.7488  160.9409 N   0  0  0  0  0  0  0  0  0  0  0  0
  147.9341  134.7323  160.1807 N   0  0  0  0  0  0  0  0  0  0  0  0
  149.8221  138.3773  158.4672 N   0  0  0  0  0  0  0  0  0  0  0  0
  150.8684  138.6889  157.5017 C   0  0  1  0  0  0  0  0  0  0  0  0
  150.4199  138.4325  156.0630 C   0  0  2  0  0  0  0  0  0  0  0  0
  150.8045  137.4533  155.0122 C   0  0  0  0  0  0  0  0  0  0  0  0
  150.9531  138.4507  153.8330 C   0  0  0  0  0  0  0  0  0  0  0  0
  150.8997  139.7728  154.4216 O   0  0  0  0  0  0  0  0  0  0  0  0
  151.3599  139.5766  155.7436 C   0  0  1  0  0  0  0  0  0  0  0  0
  150.9151  140.2078  157.0791 C   0  0  0  0  0  0  0  0  0  0  0  0
  151.9410  141.0929  157.8009 C   0  0  0  0  0  0  0  0  0  0  0  0
  151.2602  142.4040  158.2013 C   0  0  0  0  0  0  0  0  0  0  0  0
  149.7722  142.0847  158.2036 C   0  0  0  0  0  0  0  0  0  0  0  0
  149.6235  141.0513  157.0919 C   0  0  0  0  0  0  0  0  0  0  0  0
  148.1404  137.9717  160.0960 H   0  0  0  0  0  0  0  0  0  0  0  0
  147.8431  137.2988  162.3879 H   0  0  0  0  0  0  0  0  0  0  0  0
  146.9161  135.4546  163.8223 H   0  0  0  0  0  0  0  0  0  0  0  0
  146.6931  133.1683  162.7863 H   0  0  0  0  0  0  0  0  0  0  0  0
  149.2610  139.1504  158.7961 H   0  0  0  0  0  0  0  0  0  0  0  0
  151.8434  138.2531  157.7391 H   0  0  0  0  0  0  0  0  0  0  0  0
  149.3681  138.7075  155.9366 H   0  0  0  0  0  0  0  0  0  0  0  0
  151.7454  136.9529  155.2456 H   0  0  0  0  0  0  0  0  0  0  0  0
  150.0355  136.7019  154.8316 H   0  0  0  0  0  0  0  0  0  0  0  0
  151.9015  138.3023  153.3153 H   0  0  0  0  0  0  0  0  0  0  0  0
  150.1487  138.3439  153.1048 H   0  0  0  0  0  0  0  0  0  0  0  0
  152.4197  139.2969  155.7480 H   0  0  0  0  0  0  0  0  0  0  0  0
  152.3093  140.5900  158.6951 H   0  0  0  0  0  0  0  0  0  0  0  0
  152.8155  141.2929  157.1806 H   0  0  0  0  0  0  0  0  0  0  0  0
  151.6097  142.7834  159.1619 H   0  0  0  0  0  0  0  0  0  0  0  0
  151.4660  143.1656  157.4481 H   0  0  0  0  0  0  0  0  0  0  0  0
  149.4934  141.6391  159.1595 H   0  0  0  0  0  0  0  0  0  0  0  0
  149.1493  142.9660  158.0490 H   0  0  0  0  0  0  0  0  0  0  0  0
  149.5111  141.5674  156.1377 H   0  0  0  0  0  0  0  0  0  0  0  0
  148.7165  140.4637  157.2346 H   0  0  0  0  0  0  0  0  0  0  0  0
  1  2  2  0  0  0  0
  2  3  1  0  0  0  0
  2 10  1  0  0  0  0
  3  4  1  0  0  0  0
  3 22  1  0  0  0  0
  4  9  1  0  0  0  0
  4  5  2  0  0  0  0
  5  6  1  0  0  0  0
  5 23  1  0  0  0  0
  6  7  2  0  0  0  0
  6 24  1  0  0  0  0
  7  8  1  0  0  0  0
  7 25  1  0  0  0  0
  8  9  2  0  0  0  0
 10 11  1  0  0  0  0
 10 26  1  0  0  0  0
 11 17  1  0  0  0  0
 11 12  1  0  0  0  0
 11 27  1  0  0  0  0
 12 16  1  0  0  0  0
 12 13  1  0  0  0  0
 12 28  1  0  0  0  0
 13 14  1  0  0  0  0
 13 29  1  0  0  0  0
 13 30  1  0  0  0  0
 14 15  1  0  0  0  0
 14 31  1  0  0  0  0
 14 32  1  0  0  0  0
 15 16  1  0  0  0  0
 16 17  1  0  0  0  0
 16 33  1  0  0  0  0
 17 21  1  0  0  0  0
 17 18  1  0  0  0  0
 18 19  1  0  0  0  0
 18 34  1  0  0  0  0
 18 35  1  0  0  0  0
 19 20  1  0  0  0  0
 19 36  1  0  0  0  0
 19 37  1  0  0  0  0
 20 21  1  0  0  0  0
 20 38  1  0  0  0  0
 20 39  1  0  0  0  0
 21 40  1  0  0  0  0
 21 41  1  0  0  0  0
M  END
> <s_m_source_file>
AV-unprocessed.smi

> <i_m_source_file_index>
2520

> <i_lp_mmshare_version>
43012

> <i_f3d_flags>
0

> <s_epik_input>
bjFuW2NIXVtjSF1bY0hdYzFbTkhdQyg9TylbTkhdW0NAQEhdMltDQEBIXShbQ0gyXVtDSDJdTzMpW0NASF0zQzI0W0NIMl1bQ0gyXVtDSDJdW0NIMl00

> <s_epik_cmdline>
J2VwaWtfcHl0aG9uJywgJy1waCcsICc3LjAnLCAnLXRuJywgJzgnLCAnLW1hJywgJzIwMCcsICctbWV0YWxfYmluZGluZycsICctaW1hZScsICc8aW5maWxlLm1hZT4nLCAnLW9tYWUnLCAnPG91dGZpbGUubWFlPic=

> <r_lp_tautomer_probability>
1

> <r_epik_Ionization_Penalty>
0.00552561

> <r_epik_Ionization_Penalty_Charging>
0

> <r_epik_Ionization_Penalty_Neutral>
0.00552561

> <r_epik_State_Penalty>
-0

> <r_epik_Charging_Adjusted_Penalty>
0

> <i_epik_Tot_Q>
0

> <i_epik_Tot_abs_Q>
0

> <r_epik_Metal_State_Penalty>
-0

> <b_epik_Metal_Only>
0

> <s_lp_Force_Field>
OPLS_2005

> <r_lp_Energy>
83.483

> <b_lp_Chiralities_Consistent>
1

> <s_lp_Variant>
AV-unprocessed.smi:2520-8

> <Gold.Version>
5.8.1

> <Gold.Id.Protein>
6NUR|6NUR_protein|mol2

> <Gold.PLP.Fitness>
40.6241

> <Gold.PLP.PLP>
-35.2318

> <Gold.PLP.part.hbond>
-2.0000

> <Gold.PLP.part.metal>
0.0000

> <Gold.PLP.part.buried>
-7.0837

> <Gold.PLP.part.nonpolar>
-26.9879

> <Gold.PLP.part.repulsive>
1.0281

> <Gold.PLP.ligand.clash>
0.0000

> <Gold.PLP.ligand.torsion>
0.4449

> <Gold.PLP.Chemscore.Hbond>
2.0000

> <Gold.PLP.Chemscore.CHOScore>
0.0000

> <Gold.PLP.Chemscore.Metal>
0.0000

> <Gold.Chemscore.Hbonds>
donor molecule, donor type, donor heavy atom, donor atom, acceptor molecule, acceptor atom, score
      P1  H  6896  6907       L1     1  1.00
      P1  H  7989  7998       L1    15  1.00

> <Gold.PLP.Chemscore.Internal.Correction>
0.2821

> <Gold.Rescore>
     Score         DG    S(hbond)    S(metal)    S(lipo)     H(rot)  DE(clash)    DE(int)     intcor
     18.79     -19.54       1.99        0.00      85.31       1.00       0.25       0.49       ----

> <Gold.Chemscore.Fitness>
18.7945

> <Gold.Chemscore.DG>
-19.5357

> <Gold.Chemscore.ZeroCoef>
-5.4800

> <Gold.Chemscore.Hbond>
1.9864

> <Gold.Chemscore.Metal>
0.0000

> <Gold.Chemscore.Lipo>
85.3093

> <Gold.Chemscore.Internal_Hbond>
0.0000

> <Gold.Chemscore.DEClash>
0.2518

> <Gold.Chemscore.DEInternal>
0.4894

> <Gold.Chemscore.Rot>
1.0000

> <Gold.Chemscore.Internal.Correction>
   9.000000E+99

> <Gold.Chemscore.Hbonds>
donor molecule, donor type, donor heavy atom, donor atom, acceptor molecule, acceptor atom, score
      P1  H  6896  6907       L1     1  0.95
      P1  H  7989  7998       L1    15  0.75

> <Gold.Chemscore.Hbond.Weighted>
-6.6346

> <Gold.Chemscore.Metal.Weighted>
-0.0000

> <Gold.Chemscore.Lipo.Weighted>
-9.9812

> <Gold.Chemscore.Internal_Hbond.Weighted>
0.0000

> <Gold.Chemscore.DEClash.Weighted>
0.2518

> <Gold.Chemscore.DEInternal.Weighted>
0.4894

> <Gold.Chemscore.Rot.Weighted>
2.5600

> <Gold.Chemscore.Internal.Correction.Weighted>
   9.000000E+99

> <Gold.Protein.RotatedTorsions>
[ 6907 6896 6895 6894 ] final  -57.31 input  -60.11 | X-H torsion
[ 7974 7965 7964 7962 ] final   17.25 input  175.53 | X-H torsion
[ 8008 7997 7996 7995 ] final   33.97 input   59.86 | X-H torsion
[ 10167 10162 10161 10158 ] final  -63.75 input  -65.29 | X-H torsion
[ 10718 10713 10712 10709 ] final  110.39 input   66.30 | X-H torsion
[ 10763 10752 10751 10750 ] final -121.53 input  -60.55 | X-H torsion
[ 11005 11000 10999 10996 ] final  103.58 input  -57.11 | X-H torsion

> <Gold.Protein.ActiveResidues>
 VAL166  LYS551  ARG553  GLY616  TRP617  ASP618  TYR619  PRO620  LYS621  CYS622 
 ASP623  PHE694  ASN695  SER759  ASP760  ASP761  ALA762  ILE779  LEU786  VAL792 
 PHE793  MET794  SER795  GLU796  ALA797  LYS798  CYS799  TRP800  GLU811  SER814 

> <Gold.Protein.RotatedAtoms>
  150.8096  134.7243  159.6675 H   0  0  0  0  0  0  0  0  0  0  0  0  # atno 6907 bound_to 6896
  152.4216  134.5941  159.9992 H   0  0  0  0  0  0  0  0  0  0  0  0  # atno 6908 bound_to 6896
  151.6155  133.3306  159.3112 H   0  0  0  0  0  0  0  0  0  0  0  0  # atno 6909 bound_to 6896
  146.2224  139.8629  142.8601 H   0  0  0  0  0  0  0  0  0  0  0  0  # atno 7974 bound_to 7965
  155.1472  140.3271  155.4439 H   0  0  0  0  0  0  0  0  0  0  0  0  # atno 8008 bound_to 7997
  156.2586  140.1983  156.6536 H   0  0  0  0  0  0  0  0  0  0  0  0  # atno 8009 bound_to 7997
  154.6499  140.0560  156.9930 H   0  0  0  0  0  0  0  0  0  0  0  0  # atno 8010 bound_to 7997
  140.5849  143.2332  151.6264 H   0  0  0  0  0  0  0  0  0  0  0  0  # atno 10167 bound_to 10162
  157.6496  131.0932  150.6594 H   0  0  0  0  0  0  0  0  0  0  0  0  # atno 10718 bound_to 10713
  154.8670  135.4164  154.2635 H   0  0  0  0  0  0  0  0  0  0  0  0  # atno 10763 bound_to 10752
  153.3558  135.7001  153.6757 H   0  0  0  0  0  0  0  0  0  0  0  0  # atno 10764 bound_to 10752
  153.5678  135.3597  155.2798 H   0  0  0  0  0  0  0  0  0  0  0  0  # atno 10765 bound_to 10752
  139.8785  134.9268  156.5231 H   0  0  0  0  0  0  0  0  0  0  0  0  # atno 11005 bound_to 11000
  145.2686  141.0101  143.3785 LP  0  0  0  0  0  0  0  0  0  0  0  0  # atno 17320 bound_to 7965
  144.9241  139.4376  143.6527 LP  0  0  0  0  0  0  0  0  0  0  0  0  # atno 17321 bound_to 7965
  139.5192  144.3262  152.0867 LP  0  0  0  0  0  0  0  0  0  0  0  0  # atno 17342 bound_to 10162
  140.2417  144.4262  150.6257 LP  0  0  0  0  0  0  0  0  0  0  0  0  # atno 17343 bound_to 10162
  156.6907  130.4594  149.5600 LP  0  0  0  0  0  0  0  0  0  0  0  0  # atno 17370 bound_to 10713
  156.1864  130.6531  151.1011 LP  0  0  0  0  0  0  0  0  0  0  0  0  # atno 17371 bound_to 10713
  140.8436  133.8186  155.9099 LP  0  0  0  0  0  0  0  0  0  0  0  0  # atno 17394 bound_to 11000
  140.9213  134.2138  157.4924 LP  0  0  0  0  0  0  0  0  0  0  0  0  # atno 17395 bound_to 11000

$$$$
