AV-unprocessed.smi:1196|AV-procd|sdf|4999|dock4
  -GOLD-   22720 4 03D 1   1.00000     0.00000
 Structure written by MMmdl.
 37 38  0  0  0  0  0  0  0  0  1 V2000
  149.9906  140.6087  155.7857 C   0  0  0  0  0  0  0  0  0  0  0  0
  150.8472  141.5510  156.6455 C   0  0  1  0  0  0  0  0  0  0  0  0
  149.9803  142.3709  157.6206 C   0  0  0  0  0  0  0  0  0  0  0  0
  150.7647  143.3257  158.3843 N   0  0  0  0  0  0  0  0  0  0  0  0
  151.2547  144.5489  157.9780 C   0  0  0  0  0  0  0  0  0  0  0  0
  151.9419  145.0811  159.0309 C   0  0  0  0  0  0  0  0  0  0  0  0
  151.8155  144.0959  160.0498 C   0  0  0  0  0  0  0  0  0  0  0  0
  151.1090  143.0470  159.6607 N   0  0  0  0  0  0  0  0  0  0  0  0
  151.8437  140.7822  157.3881 N   0  0  0  0  0  0  0  0  0  0  0  0
  151.5992  140.0161  158.4616 C   0  0  0  0  0  0  0  0  0  0  0  0
  150.4860  139.9105  158.9775 O   0  0  0  0  0  0  0  0  0  0  0  0
  152.8037  139.2594  159.0296 C   0  0  0  0  0  0  0  0  0  0  0  0
  153.0980  139.5948  160.5049 C   0  0  0  0  0  0  0  0  0  0  0  0
  154.0528  138.5851  161.1709 C   0  0  1  0  0  0  0  0  0  0  0  0
  154.2490  138.8467  162.5867 N   0  0  0  0  0  0  0  0  0  0  0  0
  153.8735  137.8156  163.3552 C   0  0  0  0  0  0  0  0  0  0  0  0
  153.9360  137.7691  164.5813 O   0  0  0  0  0  0  0  0  0  0  0  0
  153.4184  136.8469  162.5530 N   0  0  0  0  0  0  0  0  0  0  0  0
  153.4644  137.1884  161.2664 C   0  0  0  0  0  0  0  0  0  0  0  0
  153.1003  136.5110  160.3072 O   0  0  0  0  0  0  0  0  0  0  0  0
  149.2539  141.1680  155.2083 H   0  0  0  0  0  0  0  0  0  0  0  0
  149.4523  139.8877  156.4018 H   0  0  0  0  0  0  0  0  0  0  0  0
  150.6050  140.0509  155.0781 H   0  0  0  0  0  0  0  0  0  0  0  0
  151.3554  142.2501  155.9786 H   0  0  0  0  0  0  0  0  0  0  0  0
  149.2218  142.9279  157.0694 H   0  0  0  0  0  0  0  0  0  0  0  0
  149.4442  141.7144  158.3084 H   0  0  0  0  0  0  0  0  0  0  0  0
  151.0779  144.9325  156.9840 H   0  0  0  0  0  0  0  0  0  0  0  0
  152.4580  146.0291  159.0668 H   0  0  0  0  0  0  0  0  0  0  0  0
  152.2132  144.1113  161.0538 H   0  0  0  0  0  0  0  0  0  0  0  0
  152.7886  140.8073  157.0329 H   0  0  0  0  0  0  0  0  0  0  0  0
  152.6201  138.1881  158.9332 H   0  0  0  0  0  0  0  0  0  0  0  0
  153.6720  139.4866  158.4102 H   0  0  0  0  0  0  0  0  0  0  0  0
  153.5169  140.6004  160.5759 H   0  0  0  0  0  0  0  0  0  0  0  0
  152.1603  139.6153  161.0630 H   0  0  0  0  0  0  0  0  0  0  0  0
  155.0159  138.5506  160.6602 H   0  0  0  0  0  0  0  0  0  0  0  0
  154.6307  139.7130  162.9379 H   0  0  0  0  0  0  0  0  0  0  0  0
  153.0695  135.9603  162.8863 H   0  0  0  0  0  0  0  0  0  0  0  0
  1  2  1  0  0  0  0
  1 21  1  0  0  0  0
  1 22  1  0  0  0  0
  1 23  1  0  0  0  0
  2  3  1  0  0  0  0
  2  9  1  0  0  0  0
  2 24  1  0  0  0  0
  3  4  1  0  0  0  0
  3 25  1  0  0  0  0
  3 26  1  0  0  0  0
  4  8  1  0  0  0  0
  4  5  1  0  0  0  0
  5  6  2  0  0  0  0
  5 27  1  0  0  0  0
  6  7  1  0  0  0  0
  6 28  1  0  0  0  0
  7  8  2  0  0  0  0
  7 29  1  0  0  0  0
  9 10  1  0  0  0  0
  9 30  1  0  0  0  0
 10 11  2  0  0  0  0
 10 12  1  0  0  0  0
 12 13  1  0  0  0  0
 12 31  1  0  0  0  0
 12 32  1  0  0  0  0
 13 14  1  0  0  0  0
 13 33  1  0  0  0  0
 13 34  1  0  0  0  0
 14 19  1  0  0  0  0
 14 15  1  0  0  0  0
 14 35  1  0  0  0  0
 15 16  1  0  0  0  0
 15 36  1  0  0  0  0
 16 17  2  0  0  0  0
 16 18  1  0  0  0  0
 18 19  1  0  0  0  0
 18 37  1  0  0  0  0
 19 20  2  0  0  0  0
M  END
> <s_m_source_file>
AV-unprocessed.smi

> <i_m_source_file_index>
1196

> <i_lp_mmshare_version>
43012

> <i_f3d_flags>
0

> <s_epik_input>
bjFbY0hdW2NIXVtjSF1uMVtDSDJdW0NAQEhdKFtDSDNdKVtOSF1DKD1PKVtDSDJdW0NIMl1bQ0BASF0yW05IXUMoPU8pW05IXUMyPU8=

> <s_epik_cmdline>
J2VwaWtfcHl0aG9uJywgJy1waCcsICc3LjAnLCAnLXRuJywgJzgnLCAnLW1hJywgJzIwMCcsICctbWV0YWxfYmluZGluZycsICctaW1hZScsICc8aW5maWxlLm1hZT4nLCAnLW9tYWUnLCAnPG91dGZpbGUubWFlPic=

> <r_lp_tautomer_probability>
1

> <r_epik_Ionization_Penalty>
0.00815973

> <r_epik_Ionization_Penalty_Charging>
0

> <r_epik_Ionization_Penalty_Neutral>
0.00815973

> <r_epik_State_Penalty>
0.00583796

> <r_epik_Charging_Adjusted_Penalty>
0.00583796

> <i_epik_Tot_Q>
0

> <i_epik_Tot_abs_Q>
0

> <r_epik_Metal_State_Penalty>
0.409204

> <b_epik_Metal_Only>
0

> <s_lp_Force_Field>
OPLS_2005

> <r_lp_Energy>
17.2443

> <b_lp_Chiralities_Consistent>
1

> <s_lp_Variant>
AV-unprocessed.smi:1196-4

> <Gold.Version>
5.8.1

> <Gold.Id.Protein>
6NUR|6NUR_protein|mol2

> <Gold.PLP.Fitness>
39.5741

> <Gold.PLP.PLP>
-34.4550

> <Gold.PLP.part.hbond>
-1.0000

> <Gold.PLP.part.metal>
0.0000

> <Gold.PLP.part.buried>
-5.8409

> <Gold.PLP.part.nonpolar>
-28.1870

> <Gold.PLP.part.repulsive>
0.2108

> <Gold.PLP.ligand.clash>
0.0000

> <Gold.PLP.ligand.torsion>
0.4717

> <Gold.PLP.Chemscore.Hbond>
1.0000

> <Gold.PLP.Chemscore.CHOScore>
1.0000

> <Gold.PLP.Chemscore.Metal>
0.0000

> <Gold.Chemscore.Hbonds>
donor molecule, donor type, donor heavy atom, donor atom, acceptor molecule, acceptor atom, score
      P1  H  6896  6907       L1    20  1.00
      L1  C     5    27       P1  8028  0.93

> <Gold.PLP.Chemscore.Internal.Correction>
0.0626

> <Gold.Rescore>
     Score         DG    S(hbond)    S(metal)    S(lipo)     H(rot)  DE(clash)    DE(int)     intcor
      8.64     -10.15       1.00        0.00      76.11       2.96       0.00       1.51       ----

> <Gold.Chemscore.Fitness>
8.6414

> <Gold.Chemscore.DG>
-10.1525

> <Gold.Chemscore.ZeroCoef>
-5.4800

> <Gold.Chemscore.Hbond>
0.9997

> <Gold.Chemscore.Metal>
0.0000

> <Gold.Chemscore.Lipo>
76.1097

> <Gold.Chemscore.Internal_Hbond>
0.0000

> <Gold.Chemscore.DEClash>
0.0048

> <Gold.Chemscore.DEInternal>
1.5063

> <Gold.Chemscore.Rot>
2.9575

> <Gold.Chemscore.Internal.Correction>
   9.000000E+99

> <Gold.Chemscore.Hbonds>
donor molecule, donor type, donor heavy atom, donor atom, acceptor molecule, acceptor atom, score
      P1  H  6896  6907       L1    20  1.00

> <Gold.Chemscore.Hbond.Weighted>
-3.3390

> <Gold.Chemscore.Metal.Weighted>
-0.0000

> <Gold.Chemscore.Lipo.Weighted>
-8.9048

> <Gold.Chemscore.Internal_Hbond.Weighted>
0.0000

> <Gold.Chemscore.DEClash.Weighted>
0.0048

> <Gold.Chemscore.DEInternal.Weighted>
1.5063

> <Gold.Chemscore.Rot.Weighted>
7.5713

> <Gold.Chemscore.Internal.Correction.Weighted>
   9.000000E+99

> <Gold.Protein.RotatedTorsions>
[ 6907 6896 6895 6894 ] final   25.07 input  -60.11 | X-H torsion
[ 7974 7965 7964 7962 ] final  125.12 input  175.53 | X-H torsion
[ 8008 7997 7996 7995 ] final  150.04 input   59.86 | X-H torsion
[ 10167 10162 10161 10158 ] final  117.96 input  -65.29 | X-H torsion
[ 10718 10713 10712 10709 ] final  -92.69 input   66.30 | X-H torsion
[ 10763 10752 10751 10750 ] final  -36.40 input  -60.55 | X-H torsion
[ 11005 11000 10999 10996 ] final -163.11 input  -57.11 | X-H torsion

> <Gold.Protein.ActiveResidues>
 VAL166  LYS551  ARG553  GLY616  TRP617  ASP618  TYR619  PRO620  LYS621  CYS622 
 ASP623  PHE694  ASN695  SER759  ASP760  ASP761  ALA762  ILE779  LEU786  VAL792 
 PHE793  MET794  SER795  GLU796  ALA797  LYS798  CYS799  TRP800  GLU811  SER814 

> <Gold.Protein.RotatedAtoms>
  151.9670  135.0096  160.0550 H   0  0  0  0  0  0  0  0  0  0  0  0  # atno 6907 bound_to 6896
  152.1818  133.4708  159.4970 H   0  0  0  0  0  0  0  0  0  0  0  0  # atno 6908 bound_to 6896
  150.6919  134.1741  159.4266 H   0  0  0  0  0  0  0  0  0  0  0  0  # atno 6909 bound_to 6896
  145.0766  139.3689  143.4930 H   0  0  0  0  0  0  0  0  0  0  0  0  # atno 7974 bound_to 7965
  156.2731  140.2085  156.5954 H   0  0  0  0  0  0  0  0  0  0  0  0  # atno 8008 bound_to 7997
  154.6949  140.0526  157.0424 H   0  0  0  0  0  0  0  0  0  0  0  0  # atno 8009 bound_to 7997
  155.0814  140.3187  155.4603 H   0  0  0  0  0  0  0  0  0  0  0  0  # atno 8010 bound_to 7997
  139.6143  144.7089  151.2773 H   0  0  0  0  0  0  0  0  0  0  0  0  # atno 10167 bound_to 10162
  156.0005  130.4997  150.5664 H   0  0  0  0  0  0  0  0  0  0  0  0  # atno 10718 bound_to 10713
  153.8791  135.6823  153.4768 H   0  0  0  0  0  0  0  0  0  0  0  0  # atno 10763 bound_to 10752
  153.1244  135.4725  154.9245 H   0  0  0  0  0  0  0  0  0  0  0  0  # atno 10764 bound_to 10752
  154.7677  135.3229  154.8204 H   0  0  0  0  0  0  0  0  0  0  0  0  # atno 10765 bound_to 10752
  140.6017  134.4940  157.5206 H   0  0  0  0  0  0  0  0  0  0  0  0  # atno 11005 bound_to 11000
  146.3530  140.0536  142.8634 LP  0  0  0  0  0  0  0  0  0  0  0  0  # atno 17320 bound_to 7965
  145.1228  140.9473  143.4590 LP  0  0  0  0  0  0  0  0  0  0  0  0  # atno 17321 bound_to 7965
  140.7340  143.6777  150.8027 LP  0  0  0  0  0  0  0  0  0  0  0  0  # atno 17342 bound_to 10162
  140.0377  143.5378  152.2732 LP  0  0  0  0  0  0  0  0  0  0  0  0  # atno 17343 bound_to 10162
  157.3565  131.0742  151.1671 LP  0  0  0  0  0  0  0  0  0  0  0  0  # atno 17370 bound_to 10713
  157.2470  130.6596  149.5914 LP  0  0  0  0  0  0  0  0  0  0  0  0  # atno 17371 bound_to 10713
  139.9229  134.8112  156.1155 LP  0  0  0  0  0  0  0  0  0  0  0  0  # atno 17394 bound_to 11000
  141.0867  133.6731  156.2453 LP  0  0  0  0  0  0  0  0  0  0  0  0  # atno 17395 bound_to 11000

$$$$
