AV-unprocessed.smi:3274|AV-procd|sdf|12524|dock1
  -GOLD-   2272018433D 1   1.00000     0.00000
 Structure written by MMmdl.
 43 44  0  0  0  0  0  0  0  0  2 V2000
  153.6448  140.6959  160.7231 C   0  0  0  0  0  0  0  0  0  0  0  0
  152.9253  142.0269  160.5785 C   0  0  0  0  0  0  0  0  0  0  0  0
  152.8282  142.8518  161.6387 C   0  0  0  0  0  0  0  0  0  0  0  0
  152.2035  144.2274  161.5948 C   0  0  0  0  0  0  0  0  0  0  0  0
  152.1479  144.7614  160.1617 C   0  0  0  0  0  0  0  0  0  0  0  0
  151.5447  143.7244  159.2006 C   0  0  1  0  0  0  0  0  0  0  0  0
  151.4094  144.3446  157.7959 C   0  0  0  0  0  0  0  0  0  0  0  0
  152.3511  142.3886  159.1932 C   0  0  2  0  0  0  0  0  0  0  0  0
  151.4939  141.2513  158.5789 C   0  0  0  0  0  0  0  0  0  0  0  0
  151.2881  141.4078  157.1223 N   0  3  0  0  0  0  0  0  0  0  0  0
  149.9035  141.1696  156.6562 C   0  0  2  0  0  0  0  0  0  0  0  0
  149.4449  139.7792  157.1154 C   0  0  0  0  0  0  0  0  0  0  0  0
  149.8039  141.3013  155.1220 C   0  0  0  0  0  0  0  0  0  0  0  0
  148.4328  141.3394  154.6467 N   0  0  0  0  0  0  0  0  0  0  0  0
  147.7078  142.3492  154.1630 C   0  0  0  0  0  0  0  0  0  0  0  0
  146.4785  142.0021  153.8090 N   0  0  0  0  0  0  0  0  0  0  0  0
  146.5115  140.6752  154.1329 C   0  0  0  0  0  0  0  0  0  0  0  0
  147.6629  140.2257  154.6325 N   0  0  0  0  0  0  0  0  0  0  0  0
  154.3975  140.5816  159.9426 H   0  0  0  0  0  0  0  0  0  0  0  0
  152.9425  139.8644  160.6654 H   0  0  0  0  0  0  0  0  0  0  0  0
  154.1542  140.6234  161.6845 H   0  0  0  0  0  0  0  0  0  0  0  0
  153.2256  142.5484  162.5966 H   0  0  0  0  0  0  0  0  0  0  0  0
  151.2042  144.1718  162.0278 H   0  0  0  0  0  0  0  0  0  0  0  0
  152.7864  144.9056  162.2186 H   0  0  0  0  0  0  0  0  0  0  0  0
  151.5668  145.6842  160.1438 H   0  0  0  0  0  0  0  0  0  0  0  0
  153.1538  145.0238  159.8306 H   0  0  0  0  0  0  0  0  0  0  0  0
  150.5380  143.5093  159.5630 H   0  0  0  0  0  0  0  0  0  0  0  0
  152.3862  144.5371  157.3509 H   0  0  0  0  0  0  0  0  0  0  0  0
  150.8762  145.2948  157.8390 H   0  0  0  0  0  0  0  0  0  0  0  0
  150.8525  143.7070  157.1120 H   0  0  0  0  0  0  0  0  0  0  0  0
  153.2200  142.5426  158.5511 H   0  0  0  0  0  0  0  0  0  0  0  0
  151.9577  140.2846  158.7795 H   0  0  0  0  0  0  0  0  0  0  0  0
  150.5110  141.2160  159.0436 H   0  0  0  0  0  0  0  0  0  0  0  0
  151.5583  142.3431  156.8521 H   0  0  0  0  0  0  0  0  0  0  0  0
  149.2362  141.8994  157.1179 H   0  0  0  0  0  0  0  0  0  0  0  0
  148.4142  139.5870  156.8157 H   0  0  0  0  0  0  0  0  0  0  0  0
  149.4932  139.6881  158.2011 H   0  0  0  0  0  0  0  0  0  0  0  0
  150.0675  138.9926  156.6872 H   0  0  0  0  0  0  0  0  0  0  0  0
  150.3214  142.1987  154.7787 H   0  0  0  0  0  0  0  0  0  0  0  0
  150.2991  140.4560  154.6423 H   0  0  0  0  0  0  0  0  0  0  0  0
  148.0877  143.3554  154.0613 H   0  0  0  0  0  0  0  0  0  0  0  0
  145.6657  140.0195  153.9873 H   0  0  0  0  0  0  0  0  0  0  0  0
  151.8980  140.7517  156.6557 H   0  0  0  0  0  0  0  0  0  0  0  0
  1  2  1  0  0  0  0
  1 19  1  0  0  0  0
  1 20  1  0  0  0  0
  1 21  1  0  0  0  0
  2  8  1  0  0  0  0
  2  3  2  0  0  0  0
  3  4  1  0  0  0  0
  3 22  1  0  0  0  0
  4  5  1  0  0  0  0
  4 23  1  0  0  0  0
  4 24  1  0  0  0  0
  5  6  1  0  0  0  0
  5 25  1  0  0  0  0
  5 26  1  0  0  0  0
  6  7  1  0  0  0  0
  6  8  1  0  0  0  0
  6 27  1  0  0  0  0
  7 28  1  0  0  0  0
  7 29  1  0  0  0  0
  7 30  1  0  0  0  0
  8  9  1  0  0  0  0
  8 31  1  0  0  0  0
  9 10  1  0  0  0  0
  9 32  1  0  0  0  0
  9 33  1  0  0  0  0
 10 11  1  0  0  0  0
 10 34  1  0  0  0  0
 10 43  1  0  0  0  0
 11 12  1  0  0  0  0
 11 13  1  0  0  0  0
 11 35  1  0  0  0  0
 12 36  1  0  0  0  0
 12 37  1  0  0  0  0
 12 38  1  0  0  0  0
 13 14  1  0  0  0  0
 13 39  1  0  0  0  0
 13 40  1  0  0  0  0
 14 18  1  0  0  0  0
 14 15  1  0  0  0  0
 15 16  2  0  0  0  0
 15 41  1  0  0  0  0
 16 17  1  0  0  0  0
 17 18  2  0  0  0  0
 17 42  1  0  0  0  0
M  CHG  1  10   1
M  END
> <s_m_source_file>
AV-unprocessed.smi

> <i_m_source_file_index>
3274

> <i_lp_mmshare_version>
43012

> <i_f3d_flags>
0

> <s_epik_input>
W0NIM11DMT1bQ0hdW0NIMl1bQ0gyXVtDQEBIXShbQ0gzXSlbQ0BIXTFbQ0gyXVtOSF1bQ0BIXShbQ0gzXSlbQ0gyXW4yW2NIXW5bY0hdbjI=

> <s_epik_cmdline>
J2VwaWtfcHl0aG9uJywgJy1waCcsICc3LjAnLCAnLXRuJywgJzgnLCAnLW1hJywgJzIwMCcsICctbWV0YWxfYmluZGluZycsICctaW1hZScsICc8aW5maWxlLm1hZT4nLCAnLW9tYWUnLCAnPG91dGZpbGUubWFlPic=

> <r_lp_tautomer_probability>
1

> <r_epik_Ionization_Penalty>
0.0017527

> <r_epik_Ionization_Penalty_Charging>
0.00175191

> <r_epik_Ionization_Penalty_Neutral>
7.94565e-07

> <r_epik_State_Penalty>
0.00118605

> <r_epik_Charging_Adjusted_Penalty>
0.00293796

> <i_epik_Tot_Q>
1

> <i_epik_Tot_abs_Q>
1

> <r_epik_Metal_State_Penalty>
-0

> <b_epik_Metal_Only>
0

> <s_lp_Force_Field>
OPLS_2005

> <r_lp_Energy>
18.1094

> <b_lp_Chiralities_Consistent>
1

> <s_lp_Variant>
AV-unprocessed.smi:3274-3

> <Gold.Version>
5.8.1

> <Gold.Id.Protein>
6NUR|6NUR_protein|mol2

> <Gold.PLP.Fitness>
46.4049

> <Gold.PLP.PLP>
-41.7147

> <Gold.PLP.part.hbond>
0.0000

> <Gold.PLP.part.metal>
0.0000

> <Gold.PLP.part.buried>
-2.9506

> <Gold.PLP.part.nonpolar>
-39.0985

> <Gold.PLP.part.repulsive>
0.3622

> <Gold.PLP.ligand.clash>
0.0000

> <Gold.PLP.ligand.torsion>
0.6317

> <Gold.PLP.Chemscore.Hbond>
0.0000

> <Gold.PLP.Chemscore.CHOScore>
1.9149

> <Gold.PLP.Chemscore.Metal>
0.0000

> <Gold.Chemscore.Hbonds>
donor molecule, donor type, donor heavy atom, donor atom, acceptor molecule, acceptor atom, score
      L1  C    15    41       P1  8028  1.00
      L1  C    17    42       P1 10175  0.90

> <Gold.PLP.Chemscore.Internal.Correction>
0.2089

> <Gold.Rescore>
     Score         DG    S(hbond)    S(metal)    S(lipo)     H(rot)  DE(clash)    DE(int)     intcor
     11.14     -12.69       0.00        0.00     113.31       2.36       0.00       1.55       ----

> <Gold.Chemscore.Fitness>
11.1356

> <Gold.Chemscore.DG>
-12.6922

> <Gold.Chemscore.ZeroCoef>
-5.4800

> <Gold.Chemscore.Hbond>
0.0000

> <Gold.Chemscore.Metal>
0.0000

> <Gold.Chemscore.Lipo>
113.3124

> <Gold.Chemscore.Internal_Hbond>
0.0000

> <Gold.Chemscore.DEClash>
0.0021

> <Gold.Chemscore.DEInternal>
1.5545

> <Gold.Chemscore.Rot>
2.3615

> <Gold.Chemscore.Internal.Correction>
   9.000000E+99

> <Gold.Chemscore.Hbond.Weighted>
-0.0000

> <Gold.Chemscore.Metal.Weighted>
-0.0000

> <Gold.Chemscore.Lipo.Weighted>
-13.2576

> <Gold.Chemscore.Internal_Hbond.Weighted>
0.0000

> <Gold.Chemscore.DEClash.Weighted>
0.0021

> <Gold.Chemscore.DEInternal.Weighted>
1.5545

> <Gold.Chemscore.Rot.Weighted>
6.0454

> <Gold.Chemscore.Internal.Correction.Weighted>
   9.000000E+99

> <Gold.Protein.RotatedTorsions>
[ 6907 6896 6895 6894 ] final  -27.92 input  -60.11 | X-H torsion
[ 7974 7965 7964 7962 ] final   81.58 input  175.53 | X-H torsion
[ 8008 7997 7996 7995 ] final  -91.70 input   59.86 | X-H torsion
[ 10167 10162 10161 10158 ] final   17.96 input  -65.29 | X-H torsion
[ 10718 10713 10712 10709 ] final -176.45 input   66.30 | X-H torsion
[ 10763 10752 10751 10750 ] final   34.45 input  -60.55 | X-H torsion
[ 11005 11000 10999 10996 ] final  -84.07 input  -57.11 | X-H torsion

> <Gold.Protein.ActiveResidues>
 VAL166  LYS551  ARG553  GLY616  TRP617  ASP618  TYR619  PRO620  LYS621  CYS622 
 ASP623  PHE694  ASN695  SER759  ASP760  ASP761  ALA762  ILE779  LEU786  VAL792 
 PHE793  MET794  SER795  GLU796  ALA797  LYS798  CYS799  TRP800  GLU811  SER814 

> <Gold.Protein.RotatedAtoms>
  151.1402  135.0176  159.8621 H   0  0  0  0  0  0  0  0  0  0  0  0  # atno 6907 bound_to 6896
  152.5452  134.1508  159.8527 H   0  0  0  0  0  0  0  0  0  0  0  0  # atno 6908 bound_to 6896
  151.1583  133.4816  159.2627 H   0  0  0  0  0  0  0  0  0  0  0  0  # atno 6909 bound_to 6896
  145.6363  139.2415  143.2056 H   0  0  0  0  0  0  0  0  0  0  0  0  # atno 7974 bound_to 7965
  154.7139  140.0517  157.0576 H   0  0  0  0  0  0  0  0  0  0  0  0  # atno 8008 bound_to 7997
  155.0517  140.3180  155.4671 H   0  0  0  0  0  0  0  0  0  0  0  0  # atno 8009 bound_to 7997
  156.2797  140.2114  156.5643 H   0  0  0  0  0  0  0  0  0  0  0  0  # atno 8010 bound_to 7997
  140.5688  143.9201  150.6697 H   0  0  0  0  0  0  0  0  0  0  0  0  # atno 10167 bound_to 10162
  156.8148  130.9599  151.3114 H   0  0  0  0  0  0  0  0  0  0  0  0  # atno 10718 bound_to 10713
  153.0164  135.6360  154.1670 H   0  0  0  0  0  0  0  0  0  0  0  0  # atno 10763 bound_to 10752
  154.1409  135.2834  155.3163 H   0  0  0  0  0  0  0  0  0  0  0  0  # atno 10764 bound_to 10752
  154.6125  135.5551  153.7550 H   0  0  0  0  0  0  0  0  0  0  0  0  # atno 10765 bound_to 10752
  141.1653  133.7327  156.8814 H   0  0  0  0  0  0  0  0  0  0  0  0  # atno 11005 bound_to 11000
  146.1317  140.7177  142.9409 LP  0  0  0  0  0  0  0  0  0  0  0  0  # atno 17320 bound_to 7965
  144.7174  140.4258  143.7034 LP  0  0  0  0  0  0  0  0  0  0  0  0  # atno 17321 bound_to 7965
  140.2670  143.3483  152.1271 LP  0  0  0  0  0  0  0  0  0  0  0  0  # atno 17342 bound_to 10162
  139.5106  144.6888  151.5817 LP  0  0  0  0  0  0  0  0  0  0  0  0  # atno 17343 bound_to 10162
  157.6487  130.8866  149.9590 LP  0  0  0  0  0  0  0  0  0  0  0  0  # atno 17370 bound_to 10713
  156.1023  130.3655  150.0196 LP  0  0  0  0  0  0  0  0  0  0  0  0  # atno 17371 bound_to 10713
  140.1712  134.9098  157.2836 LP  0  0  0  0  0  0  0  0  0  0  0  0  # atno 17394 bound_to 11000
  140.2500  134.3694  155.7446 LP  0  0  0  0  0  0  0  0  0  0  0  0  # atno 17395 bound_to 11000

$$$$
