AV-unprocessed.smi:2379|AV-procd|sdf|9453|dock2
  -GOLD-   2272013 83D 1   1.00000     0.00000
 Structure written by MMmdl.
 53 55  0  0  0  0  0  0  0  0  2 V2000
  152.1928  145.0267  160.5330 C   0  0  0  0  0  0  0  0  0  0  0  0
  152.0291  143.7458  159.7422 C   0  0  0  0  0  0  0  0  0  0  0  0
  152.7264  142.5789  160.1089 C   0  0  0  0  0  0  0  0  0  0  0  0
  152.5318  141.4175  159.3361 C   0  0  0  0  0  0  0  0  0  0  0  0
  153.2511  140.1289  159.6751 C   0  0  0  0  0  0  0  0  0  0  0  0
  151.7128  141.3753  158.2633 N   0  0  0  0  0  0  0  0  0  0  0  0
  151.0357  142.4929  157.9012 C   0  0  0  0  0  0  0  0  0  0  0  0
  150.1441  142.5486  156.7968 N   0  0  0  0  0  0  0  0  0  0  0  0
  149.4661  141.5364  156.2277 C   0  0  0  0  0  0  0  0  0  0  0  0
  149.5521  140.3509  156.5487 O   0  0  0  0  0  0  0  0  0  0  0  0
  148.6697  141.9769  155.2421 N   0  0  0  0  0  0  0  0  0  0  0  0
  147.8133  141.1343  154.4069 C   0  0  2  0  0  0  0  0  0  0  0  0
  147.1221  141.9783  153.3220 C   0  0  0  0  0  0  0  0  0  0  0  0
  146.0224  142.8864  153.9043 C   0  0  0  0  0  0  0  0  0  0  0  0
  145.0251  142.1024  154.6795 N   0  3  2  0  0  0  0  0  0  0  0  0
  143.8767  142.9287  155.1361 C   0  0  0  0  0  0  0  0  0  0  0  0
  144.2547  144.4118  155.3243 C   0  0  2  0  0  0  0  0  0  0  0  0
  143.3633  145.1348  156.3153 C   0  0  0  0  0  0  0  0  0  0  0  0
  143.6341  146.5964  155.9784 C   0  0  0  0  0  0  0  0  0  0  0  0
  143.8613  146.6232  154.5742 O   0  0  0  0  0  0  0  0  0  0  0  0
  144.0883  145.3032  154.0900 C   0  0  0  0  0  0  0  0  0  0  0  0
  145.6735  141.3423  155.7801 C   0  0  0  0  0  0  0  0  0  0  0  0
  146.7475  140.3873  155.2337 C   0  0  0  0  0  0  0  0  0  0  0  0
  151.1701  143.6988  158.6255 C   0  0  0  0  0  0  0  0  0  0  0  0
  153.1080  145.0083  161.1255 H   0  0  0  0  0  0  0  0  0  0  0  0
  151.3487  145.1621  161.2093 H   0  0  0  0  0  0  0  0  0  0  0  0
  152.2402  145.8867  159.8644 H   0  0  0  0  0  0  0  0  0  0  0  0
  153.3922  142.5737  160.9597 H   0  0  0  0  0  0  0  0  0  0  0  0
  153.6102  140.1397  160.7046 H   0  0  0  0  0  0  0  0  0  0  0  0
  154.1069  139.9905  159.0144 H   0  0  0  0  0  0  0  0  0  0  0  0
  152.5849  139.2732  159.5592 H   0  0  0  0  0  0  0  0  0  0  0  0
  150.0012  143.4663  156.4023 H   0  0  0  0  0  0  0  0  0  0  0  0
  148.6695  142.9666  155.0428 H   0  0  0  0  0  0  0  0  0  0  0  0
  148.4529  140.4014  153.9115 H   0  0  0  0  0  0  0  0  0  0  0  0
  147.8568  142.5771  152.7821 H   0  0  0  0  0  0  0  0  0  0  0  0
  146.6758  141.3114  152.5830 H   0  0  0  0  0  0  0  0  0  0  0  0
  146.4604  143.6539  154.5443 H   0  0  0  0  0  0  0  0  0  0  0  0
  145.5251  143.4053  153.0838 H   0  0  0  0  0  0  0  0  0  0  0  0
  143.0243  142.8144  154.4645 H   0  0  0  0  0  0  0  0  0  0  0  0
  143.5374  142.5598  156.1052 H   0  0  0  0  0  0  0  0  0  0  0  0
  145.2838  144.4854  155.6807 H   0  0  0  0  0  0  0  0  0  0  0  0
  142.3143  144.8978  156.1313 H   0  0  0  0  0  0  0  0  0  0  0  0
  143.5906  144.8927  157.3539 H   0  0  0  0  0  0  0  0  0  0  0  0
  142.8113  147.2523  156.2636 H   0  0  0  0  0  0  0  0  0  0  0  0
  144.5363  146.9431  156.4839 H   0  0  0  0  0  0  0  0  0  0  0  0
  144.9617  145.2760  153.4384 H   0  0  0  0  0  0  0  0  0  0  0  0
  143.2175  145.0021  153.5061 H   0  0  0  0  0  0  0  0  0  0  0  0
  146.1152  142.0374  156.4960 H   0  0  0  0  0  0  0  0  0  0  0  0
  144.9353  140.7612  156.3288 H   0  0  0  0  0  0  0  0  0  0  0  0
  146.2676  139.6379  154.6028 H   0  0  0  0  0  0  0  0  0  0  0  0
  147.2075  139.8349  156.0535 H   0  0  0  0  0  0  0  0  0  0  0  0
  150.6227  144.5817  158.3284 H   0  0  0  0  0  0  0  0  0  0  0  0
  144.6460  141.4235  154.0347 H   0  0  0  0  0  0  0  0  0  0  0  0
  1  2  1  0  0  0  0
  1 25  1  0  0  0  0
  1 26  1  0  0  0  0
  1 27  1  0  0  0  0
  2 24  1  0  0  0  0
  2  3  2  0  0  0  0
  3  4  1  0  0  0  0
  3 28  1  0  0  0  0
  4  5  1  0  0  0  0
  4  6  2  0  0  0  0
  5 29  1  0  0  0  0
  5 30  1  0  0  0  0
  5 31  1  0  0  0  0
  6  7  1  0  0  0  0
  7  8  1  0  0  0  0
  7 24  2  0  0  0  0
  8  9  1  0  0  0  0
  8 32  1  0  0  0  0
  9 10  2  0  0  0  0
  9 11  1  0  0  0  0
 11 12  1  0  0  0  0
 11 33  1  0  0  0  0
 12 23  1  0  0  0  0
 12 13  1  0  0  0  0
 12 34  1  0  0  0  0
 13 14  1  0  0  0  0
 13 35  1  0  0  0  0
 13 36  1  0  0  0  0
 14 15  1  0  0  0  0
 14 37  1  0  0  0  0
 14 38  1  0  0  0  0
 15 16  1  0  0  0  0
 15 22  1  0  0  0  0
 15 53  1  0  0  0  0
 16 17  1  0  0  0  0
 16 39  1  0  0  0  0
 16 40  1  0  0  0  0
 17 21  1  0  0  0  0
 17 18  1  0  0  0  0
 17 41  1  0  0  0  0
 18 19  1  0  0  0  0
 18 42  1  0  0  0  0
 18 43  1  0  0  0  0
 19 20  1  0  0  0  0
 19 44  1  0  0  0  0
 19 45  1  0  0  0  0
 20 21  1  0  0  0  0
 21 46  1  0  0  0  0
 21 47  1  0  0  0  0
 22 23  1  0  0  0  0
 22 48  1  0  0  0  0
 22 49  1  0  0  0  0
 23 50  1  0  0  0  0
 23 51  1  0  0  0  0
 24 52  1  0  0  0  0
M  CHG  1  15   1
M  END
> <s_m_source_file>
AV-unprocessed.smi

> <i_m_source_file_index>
2379

> <i_lp_mmshare_version>
43012

> <i_f3d_flags>
0

> <s_epik_input>
W0NIM11jMVtjSF1jKFtDSDNdKW5jKFtjSF0xKVtOSF1DKD1PKVtOSF1bQ0hdMltDSDJdW0NIMl1OKFtDSDJdW0NIMl0yKVtDSDJdW0NAQEhdM1tDSDJdW0NIMl1PW0NIMl0z

> <s_epik_cmdline>
J2VwaWtfcHl0aG9uJywgJy1waCcsICc3LjAnLCAnLXRuJywgJzgnLCAnLW1hJywgJzIwMCcsICctbWV0YWxfYmluZGluZycsICctaW1hZScsICc8aW5maWxlLm1hZT4nLCAnLW9tYWUnLCAnPG91dGZpbGUubWFlPic=

> <r_epik_Ionization_Penalty>
0.00766556

> <r_epik_Ionization_Penalty_Charging>
0.00747775

> <r_epik_Ionization_Penalty_Neutral>
0.00018781

> <r_epik_State_Penalty>
0.00558817

> <r_epik_Charging_Adjusted_Penalty>
0.0130659

> <i_epik_Tot_Q>
1

> <i_epik_Tot_abs_Q>
1

> <r_epik_Metal_State_Penalty>
-0

> <b_epik_Metal_Only>
0

> <s_lp_Force_Field>
OPLS_2005

> <r_lp_Energy>
34.3762

> <b_lp_Chiralities_Consistent>
1

> <s_lp_Variant>
AV-unprocessed.smi:2379-3

> <Gold.Version>
5.8.1

> <Gold.Id.Protein>
6NUR|6NUR_protein|mol2

> <Gold.PLP.Fitness>
54.0421

> <Gold.PLP.PLP>
-44.4920

> <Gold.PLP.part.hbond>
-4.0000

> <Gold.PLP.part.metal>
0.0000

> <Gold.PLP.part.buried>
-8.9858

> <Gold.PLP.part.nonpolar>
-33.5297

> <Gold.PLP.part.repulsive>
0.2195

> <Gold.PLP.ligand.clash>
0.6261

> <Gold.PLP.ligand.torsion>
0.9530

> <Gold.PLP.Chemscore.Hbond>
4.0000

> <Gold.PLP.Chemscore.CHOScore>
0.0000

> <Gold.PLP.Chemscore.Metal>
0.0000

> <Gold.Chemscore.Hbonds>
donor molecule, donor type, donor heavy atom, donor atom, acceptor molecule, acceptor atom, score
      L1  H     8    32       P1  8028  1.00
      L1  H    11    33       P1  8028  0.99
      L1  H    15    53       P1 10175  1.98

> <Gold.PLP.Chemscore.Internal.Correction>
0.0822

> <Gold.Rescore>
     Score         DG    S(hbond)    S(metal)    S(lipo)     H(rot)  DE(clash)    DE(int)     intcor
     20.30     -23.61       2.76        0.00     106.33       1.37       1.39       1.92       ----

> <Gold.Chemscore.Fitness>
20.3006

> <Gold.Chemscore.DG>
-23.6099

> <Gold.Chemscore.ZeroCoef>
-5.4800

> <Gold.Chemscore.Hbond>
2.7553

> <Gold.Chemscore.Metal>
0.0000

> <Gold.Chemscore.Lipo>
106.3304

> <Gold.Chemscore.Internal_Hbond>
0.0000

> <Gold.Chemscore.DEClash>
1.3942

> <Gold.Chemscore.DEInternal>
1.9151

> <Gold.Chemscore.Rot>
1.3725

> <Gold.Chemscore.Internal.Correction>
   9.000000E+99

> <Gold.Chemscore.Hbonds>
donor molecule, donor type, donor heavy atom, donor atom, acceptor molecule, acceptor atom, score
      L1  H     8    32       P1  8028  0.95
      L1  H    11    33       P1  8028  0.94
      L1  H    15    53       P1 10175  0.32

> <Gold.Chemscore.Hbond.Weighted>
-9.2028

> <Gold.Chemscore.Metal.Weighted>
-0.0000

> <Gold.Chemscore.Lipo.Weighted>
-12.4407

> <Gold.Chemscore.Internal_Hbond.Weighted>
0.0000

> <Gold.Chemscore.DEClash.Weighted>
1.3942

> <Gold.Chemscore.DEInternal.Weighted>
1.9151

> <Gold.Chemscore.Rot.Weighted>
3.5136

> <Gold.Chemscore.Internal.Correction.Weighted>
   9.000000E+99

> <Gold.Protein.RotatedTorsions>
[ 6907 6896 6895 6894 ] final  -31.98 input  -60.11 | X-H torsion
[ 7974 7965 7964 7962 ] final  -18.07 input  175.53 | X-H torsion
[ 8008 7997 7996 7995 ] final  -32.74 input   59.86 | X-H torsion
[ 10167 10162 10161 10158 ] final  -75.27 input  -65.29 | X-H torsion
[ 10718 10713 10712 10709 ] final  129.30 input   66.30 | X-H torsion
[ 10763 10752 10751 10750 ] final    3.69 input  -60.55 | X-H torsion
[ 11005 11000 10999 10996 ] final   94.04 input  -57.11 | X-H torsion

> <Gold.Protein.ActiveResidues>
 VAL166  LYS551  ARG553  GLY616  TRP617  ASP618  TYR619  PRO620  LYS621  CYS622 
 ASP623  PHE694  ASN695  SER759  ASP760  ASP761  ALA762  ILE779  LEU786  VAL792 
 PHE793  MET794  SER795  GLU796  ALA797  LYS798  CYS799  TRP800  GLU811  SER814 

> <Gold.Protein.RotatedAtoms>
  151.0848  134.9880  159.8373 H   0  0  0  0  0  0  0  0  0  0  0  0  # atno 6907 bound_to 6896
  152.5423  134.2137  159.8770 H   0  0  0  0  0  0  0  0  0  0  0  0  # atno 6908 bound_to 6896
  151.2170  133.4480  159.2633 H   0  0  0  0  0  0  0  0  0  0  0  0  # atno 6909 bound_to 6896
  146.1910  140.3869  142.8458 H   0  0  0  0  0  0  0  0  0  0  0  0  # atno 7974 bound_to 7965
  154.4170  140.1729  156.1776 H   0  0  0  0  0  0  0  0  0  0  0  0  # atno 8008 bound_to 7997
  155.9708  140.3386  155.6550 H   0  0  0  0  0  0  0  0  0  0  0  0  # atno 8009 bound_to 7997
  155.6627  140.0703  157.2539 H   0  0  0  0  0  0  0  0  0  0  0  0  # atno 8010 bound_to 7997
  140.4957  143.2371  151.7835 H   0  0  0  0  0  0  0  0  0  0  0  0  # atno 10167 bound_to 10162
  157.5167  131.1097  150.9214 H   0  0  0  0  0  0  0  0  0  0  0  0  # atno 10718 bound_to 10713
  153.2803  135.6940  153.7392 H   0  0  0  0  0  0  0  0  0  0  0  0  # atno 10763 bound_to 10752
  153.6382  135.3398  155.3064 H   0  0  0  0  0  0  0  0  0  0  0  0  # atno 10764 bound_to 10752
  154.8493  135.4425  154.1854 H   0  0  0  0  0  0  0  0  0  0  0  0  # atno 10765 bound_to 10752
  139.8803  134.8823  156.3806 H   0  0  0  0  0  0  0  0  0  0  0  0  # atno 11005 bound_to 11000
  144.8487  140.6968  143.6182 LP  0  0  0  0  0  0  0  0  0  0  0  0  # atno 17320 bound_to 7965
  145.3792  139.1641  143.4290 LP  0  0  0  0  0  0  0  0  0  0  0  0  # atno 17321 bound_to 7965
  139.4860  144.4590  151.9563 LP  0  0  0  0  0  0  0  0  0  0  0  0  # atno 17342 bound_to 10162
  140.3678  144.2893  150.5924 LP  0  0  0  0  0  0  0  0  0  0  0  0  # atno 17343 bound_to 10162
  156.9837  130.5537  149.5298 LP  0  0  0  0  0  0  0  0  0  0  0  0  # atno 17370 bound_to 10713
  156.0325  130.5415  150.8571 LP  0  0  0  0  0  0  0  0  0  0  0  0  # atno 17371 bound_to 10713
  140.9401  133.7520  156.0135 LP  0  0  0  0  0  0  0  0  0  0  0  0  # atno 17394 bound_to 11000
  140.8229  134.3268  157.5375 LP  0  0  0  0  0  0  0  0  0  0  0  0  # atno 17395 bound_to 11000

$$$$
