AV-unprocessed.smi:1813|AV-procd|sdf|7345|dock2
  -GOLD-   22720 9 03D 1   1.00000     0.00000
 Structure written by MMmdl.
 39 40  0  0  0  0  0  0  0  0  3 V2000
  149.5576  136.8098  158.4990 C   0  0  0  0  0  0  0  0  0  0  0  0
  149.9739  135.5565  157.8810 N   0  5  0  0  0  0  0  0  0  0  0  0
  150.7710  135.4913  156.7808 C   0  0  0  0  0  0  0  0  0  0  0  0
  151.9935  135.6253  156.6617 O   0  0  0  0  0  0  0  0  0  0  0  0
  149.9531  135.1723  155.5240 C   0  0  0  0  0  0  0  0  0  0  0  0
  149.6312  136.4224  154.7916 N   0  3  2  0  0  0  0  0  0  0  0  0
  150.7739  137.3701  154.7690 C   0  0  0  0  0  0  0  0  0  0  0  0
  150.4683  138.5892  153.8811 C   0  0  0  0  0  0  0  0  0  0  0  0
  149.1754  139.3092  154.3131 C   0  0  2  0  0  0  0  0  0  0  0  0
  149.3390  140.0053  155.5892 N   0  0  0  0  0  0  0  0  0  0  0  0
  150.4463  140.6514  155.9831 C   0  0  0  0  0  0  0  0  0  0  0  0
  151.4689  140.7215  155.3008 O   0  0  0  0  0  0  0  0  0  0  0  0
  150.2851  141.1967  157.2017 N   0  0  0  0  0  0  0  0  0  0  0  0
  151.2242  141.9454  157.9589 C   0  0  0  0  0  0  0  0  0  0  0  0
  151.9939  141.4329  158.9261 N   0  0  0  0  0  0  0  0  0  0  0  0
  152.8227  142.3983  159.5035 C   0  0  0  0  0  0  0  0  0  0  0  0
  152.6679  143.6498  158.9610 C   0  0  0  0  0  0  0  0  0  0  0  0
  151.4704  143.6652  157.6938 S   0  0  0  0  0  0  0  0  0  0  0  0
  148.0224  138.2943  154.3969 C   0  0  0  0  0  0  0  0  0  0  0  0
  148.3838  137.0784  155.2693 C   0  0  0  0  0  0  0  0  0  0  0  0
  148.8809  136.6435  159.3368 H   0  0  0  0  0  0  0  0  0  0  0  0
  149.0323  137.4645  157.8031 H   0  0  0  0  0  0  0  0  0  0  0  0
  150.4014  137.3780  158.8918 H   0  0  0  0  0  0  0  0  0  0  0  0
  150.4492  134.4580  154.8628 H   0  0  0  0  0  0  0  0  0  0  0  0
  149.0341  134.6907  155.8613 H   0  0  0  0  0  0  0  0  0  0  0  0
  151.0061  137.6876  155.7868 H   0  0  0  0  0  0  0  0  0  0  0  0
  151.6616  136.8661  154.3851 H   0  0  0  0  0  0  0  0  0  0  0  0
  151.3141  139.2775  153.8865 H   0  0  0  0  0  0  0  0  0  0  0  0
  150.3614  138.2560  152.8479 H   0  0  0  0  0  0  0  0  0  0  0  0
  148.9165  140.0526  153.5567 H   0  0  0  0  0  0  0  0  0  0  0  0
  148.5453  140.0037  156.2134 H   0  0  0  0  0  0  0  0  0  0  0  0
  149.3866  141.0606  157.6407 H   0  0  0  0  0  0  0  0  0  0  0  0
  153.4941  142.1066  160.2978 H   0  0  0  0  0  0  0  0  0  0  0  0
  153.1846  144.5595  159.2288 H   0  0  0  0  0  0  0  0  0  0  0  0
  147.1209  138.7751  154.7788 H   0  0  0  0  0  0  0  0  0  0  0  0
  147.7771  137.9481  153.3919 H   0  0  0  0  0  0  0  0  0  0  0  0
  147.5533  136.3725  155.2469 H   0  0  0  0  0  0  0  0  0  0  0  0
  148.5072  137.3811  156.3102 H   0  0  0  0  0  0  0  0  0  0  0  0
  149.4707  136.1453  153.8335 H   0  0  0  0  0  0  0  0  0  0  0  0
  1  2  1  0  0  0  0
  1 21  1  0  0  0  0
  1 22  1  0  0  0  0
  1 23  1  0  0  0  0
  2  3  1  0  0  0  0
  3  4  2  0  0  0  0
  3  5  1  0  0  0  0
  5  6  1  0  0  0  0
  5 24  1  0  0  0  0
  5 25  1  0  0  0  0
  6 20  1  0  0  0  0
  6  7  1  0  0  0  0
  6 39  1  0  0  0  0
  7  8  1  0  0  0  0
  7 26  1  0  0  0  0
  7 27  1  0  0  0  0
  8  9  1  0  0  0  0
  8 28  1  0  0  0  0
  8 29  1  0  0  0  0
  9 10  1  0  0  0  0
  9 19  1  0  0  0  0
  9 30  1  0  0  0  0
 10 11  1  0  0  0  0
 10 31  1  0  0  0  0
 11 12  2  0  0  0  0
 11 13  1  0  0  0  0
 13 14  1  0  0  0  0
 13 32  1  0  0  0  0
 14 18  1  0  0  0  0
 14 15  2  0  0  0  0
 15 16  1  0  0  0  0
 16 17  2  0  0  0  0
 16 33  1  0  0  0  0
 17 18  1  0  0  0  0
 17 34  1  0  0  0  0
 19 20  1  0  0  0  0
 19 35  1  0  0  0  0
 19 36  1  0  0  0  0
 20 37  1  0  0  0  0
 20 38  1  0  0  0  0
M  CHG  1   2  -1
M  CHG  1   6   1
M  END
> <s_m_source_file>
AV-unprocessed.smi

> <i_m_source_file_index>
1813

> <i_lp_mmshare_version>
43012

> <i_f3d_flags>
0

> <s_epik_input>
W0NIM11bTkhdQyg9TylbQ0gyXU4xW0NIMl1bQ0gyXVtDSF0oW0NIMl1bQ0gyXTEpW05IXUMoPU8pW05IXWMybltjSF1bY0hdczI=

> <s_epik_cmdline>
J2VwaWtfcHl0aG9uJywgJy1waCcsICc3LjAnLCAnLXRuJywgJzgnLCAnLW1hJywgJzIwMCcsICctbWV0YWxfYmluZGluZycsICctaW1hZScsICc8aW5maWxlLm1hZT4nLCAnLW9tYWUnLCAnPG91dGZpbGUubWFlPic=

> <r_lp_tautomer_probability>
0.999

> <r_epik_Ionization_Penalty>
6.14232

> <r_epik_Ionization_Penalty_Charging>
6.14218

> <r_epik_Ionization_Penalty_Neutral>
0.000139308

> <r_epik_State_Penalty>
6.98503

> <r_epik_Charging_Adjusted_Penalty>
13.1272

> <i_epik_Tot_Q>
0

> <i_epik_Tot_abs_Q>
2

> <r_epik_Metal_State_Penalty>
2.95036

> <b_epik_Metal_Only>
1

> <s_lp_Force_Field>
OPLS_2005

> <r_lp_Energy>
8.34863

> <b_lp_Chiralities_Consistent>
1

> <s_lp_Variant>
AV-unprocessed.smi:1813-6

> <Gold.Version>
5.8.1

> <Gold.Id.Protein>
6NUR|6NUR_protein|mol2

> <Gold.PLP.Fitness>
44.1900

> <Gold.PLP.PLP>
-31.9370

> <Gold.PLP.part.hbond>
-4.0000

> <Gold.PLP.part.metal>
0.0000

> <Gold.PLP.part.buried>
-4.1730

> <Gold.PLP.part.nonpolar>
-25.0129

> <Gold.PLP.part.repulsive>
0.1245

> <Gold.PLP.ligand.clash>
0.0000

> <Gold.PLP.ligand.torsion>
2.3348

> <Gold.PLP.Chemscore.Hbond>
5.6240

> <Gold.PLP.Chemscore.CHOScore>
0.0000

> <Gold.PLP.Chemscore.Metal>
0.0000

> <Gold.Chemscore.Hbonds>
donor molecule, donor type, donor heavy atom, donor atom, acceptor molecule, acceptor atom, score
      L1  H     6    39       P1  7948  2.00
      P1  H  6896  6907       L1     2  1.69
      P1  H  7989  7998       L1    12  0.74
      P1  H 10752 10763       L1     4  1.00

> <Gold.PLP.Chemscore.Internal.Correction>
0.0507

> <Gold.Rescore>
     Score         DG    S(hbond)    S(metal)    S(lipo)     H(rot)  DE(clash)    DE(int)     intcor
     13.96     -19.00       3.02        0.00      67.28       1.73       0.02       5.02       ----

> <Gold.Chemscore.Fitness>
13.9582

> <Gold.Chemscore.DG>
-18.9959

> <Gold.Chemscore.ZeroCoef>
-5.4800

> <Gold.Chemscore.Hbond>
3.0168

> <Gold.Chemscore.Metal>
0.0000

> <Gold.Chemscore.Lipo>
67.2806

> <Gold.Chemscore.Internal_Hbond>
0.0000

> <Gold.Chemscore.DEClash>
0.0166

> <Gold.Chemscore.DEInternal>
5.0211

> <Gold.Chemscore.Rot>
1.7312

> <Gold.Chemscore.Internal.Correction>
   9.000000E+99

> <Gold.Chemscore.Hbonds>
donor molecule, donor type, donor heavy atom, donor atom, acceptor molecule, acceptor atom, score
      L1  H     6    39       P1  7948  0.62
      P1  H  6896  6907       L1     2  0.24
      P1  H  7989  7998       L1    12  0.74
      P1  H 10752 10763       L1     4  0.99

> <Gold.Chemscore.Hbond.Weighted>
-10.0760

> <Gold.Chemscore.Metal.Weighted>
-0.0000

> <Gold.Chemscore.Lipo.Weighted>
-7.8718

> <Gold.Chemscore.Internal_Hbond.Weighted>
0.0000

> <Gold.Chemscore.DEClash.Weighted>
0.0166

> <Gold.Chemscore.DEInternal.Weighted>
5.0211

> <Gold.Chemscore.Rot.Weighted>
4.4319

> <Gold.Chemscore.Internal.Correction.Weighted>
   9.000000E+99

> <Gold.Protein.RotatedTorsions>
[ 6907 6896 6895 6894 ] final  -75.21 input  -60.11 | X-H torsion
[ 7974 7965 7964 7962 ] final   45.15 input  175.53 | X-H torsion
[ 8008 7997 7996 7995 ] final -174.03 input   59.86 | X-H torsion
[ 10167 10162 10161 10158 ] final  -45.96 input  -65.29 | X-H torsion
[ 10718 10713 10712 10709 ] final  178.46 input   66.30 | X-H torsion
[ 10763 10752 10751 10750 ] final  100.64 input  -60.55 | X-H torsion
[ 11005 11000 10999 10996 ] final -167.07 input  -57.11 | X-H torsion

> <Gold.Protein.ActiveResidues>
 VAL166  LYS551  ARG553  GLY616  TRP617  ASP618  TYR619  PRO620  LYS621  CYS622 
 ASP623  PHE694  ASN695  SER759  ASP760  ASP761  ALA762  ILE779  LEU786  VAL792 
 PHE793  MET794  SER795  GLU796  ALA797  LYS798  CYS799  TRP800  GLU811  SER814 

> <Gold.Protein.RotatedAtoms>
  150.7066  134.4755  159.5445 H   0  0  0  0  0  0  0  0  0  0  0  0  # atno 6907 bound_to 6896
  152.2402  134.8233  160.0470 H   0  0  0  0  0  0  0  0  0  0  0  0  # atno 6908 bound_to 6896
  151.9017  133.3504  159.3870 H   0  0  0  0  0  0  0  0  0  0  0  0  # atno 6909 bound_to 6896
  146.0505  139.4995  142.9721 H   0  0  0  0  0  0  0  0  0  0  0  0  # atno 7974 bound_to 7965
  155.9649  140.1151  157.0863 H   0  0  0  0  0  0  0  0  0  0  0  0  # atno 8008 bound_to 7997
  154.4141  140.1174  156.5296 H   0  0  0  0  0  0  0  0  0  0  0  0  # atno 8009 bound_to 7997
  155.6672  140.3473  155.4807 H   0  0  0  0  0  0  0  0  0  0  0  0  # atno 8010 bound_to 7997
  140.6837  143.2854  151.3714 H   0  0  0  0  0  0  0  0  0  0  0  0  # atno 10167 bound_to 10162
  156.8902  130.9845  151.3050 H   0  0  0  0  0  0  0  0  0  0  0  0  # atno 10718 bound_to 10713
  153.3165  135.4072  155.1380 H   0  0  0  0  0  0  0  0  0  0  0  0  # atno 10763 bound_to 10752
  154.8589  135.3577  154.5653 H   0  0  0  0  0  0  0  0  0  0  0  0  # atno 10764 bound_to 10752
  153.6085  135.7068  153.5415 H   0  0  0  0  0  0  0  0  0  0  0  0  # atno 10765 bound_to 10752
  140.5573  134.5368  157.5136 H   0  0  0  0  0  0  0  0  0  0  0  0  # atno 11005 bound_to 11000
  145.6732  141.0211  143.1646 LP  0  0  0  0  0  0  0  0  0  0  0  0  # atno 17320 bound_to 7965
  144.7120  139.8335  143.7411 LP  0  0  0  0  0  0  0  0  0  0  0  0  # atno 17321 bound_to 7965
  139.6178  144.0967  152.2362 LP  0  0  0  0  0  0  0  0  0  0  0  0  # atno 17342 bound_to 10162
  140.0402  144.6013  150.7417 LP  0  0  0  0  0  0  0  0  0  0  0  0  # atno 17343 bound_to 10162
  157.6088  130.8567  149.8919 LP  0  0  0  0  0  0  0  0  0  0  0  0  # atno 17370 bound_to 10713
  156.0633  130.3696  150.0934 LP  0  0  0  0  0  0  0  0  0  0  0  0  # atno 17371 bound_to 10713
  139.9425  134.7761  156.0643 LP  0  0  0  0  0  0  0  0  0  0  0  0  # atno 17394 bound_to 11000
  141.1135  133.6635  156.3038 LP  0  0  0  0  0  0  0  0  0  0  0  0  # atno 17395 bound_to 11000

$$$$
