AV-unprocessed.smi:1104|AV-procd|sdf|4775|dock3
  -GOLD-   22720 3313D 1   1.00000     0.00000
 Structure written by MMmdl.
 43 44  0  0  0  0  0  0  0  0  1 V2000
  144.1209  135.2260  152.7728 C   0  0  0  0  0  0  0  0  0  0  0  0
  145.0218  136.1176  152.0383 N   0  0  0  0  0  0  0  0  0  0  0  0
  145.4724  135.6431  150.7272 C   0  0  0  0  0  0  0  0  0  0  0  0
  145.4016  137.3034  152.5684 C   0  0  0  0  0  0  0  0  0  0  0  0
  145.0333  137.6672  153.6877 O   0  0  0  0  0  0  0  0  0  0  0  0
  146.3393  138.2130  151.7502 C   0  0  0  0  0  0  0  0  0  0  0  0
  147.6576  138.3768  152.3602 N   0  0  0  0  0  0  0  0  0  0  0  0
  147.9526  139.2490  153.3351 C   0  0  0  0  0  0  0  0  0  0  0  0
  147.1343  140.0341  153.8139 O   0  0  0  0  0  0  0  0  0  0  0  0
  149.2339  139.1298  153.7223 N   0  0  0  0  0  0  0  0  0  0  0  0
  149.9341  139.8873  154.6992 C   0  0  0  0  0  0  0  0  0  0  0  0
  151.0515  139.4127  155.4242 C   0  0  0  0  0  0  0  0  0  0  0  0
  151.6455  140.2512  156.3869 C   0  0  0  0  0  0  0  0  0  0  0  0
  151.1075  141.5403  156.6099 C   0  0  0  0  0  0  0  0  0  0  0  0
  151.6870  142.3934  157.5739 N   0  0  0  0  0  0  0  0  0  0  0  0
  151.6592  141.9006  158.9488 C   0  0  0  0  0  0  0  0  0  0  0  0
  152.5728  142.7558  159.8440 C   0  0  0  0  0  0  0  0  0  0  0  0
  152.2054  144.1274  159.7393 O   0  0  0  0  0  0  0  0  0  0  0  0
  152.3499  144.6137  158.4090 C   0  0  0  0  0  0  0  0  0  0  0  0
  151.4229  143.8270  157.4672 C   0  0  0  0  0  0  0  0  0  0  0  0
  150.0332  141.9895  155.9157 N   0  0  0  0  0  0  0  0  0  0  0  0
  149.4649  141.1817  154.9964 C   0  0  0  0  0  0  0  0  0  0  0  0
  143.2503  135.7684  153.1447 H   0  0  0  0  0  0  0  0  0  0  0  0
  144.6378  134.7873  153.6269 H   0  0  0  0  0  0  0  0  0  0  0  0
  143.7443  134.4098  152.1562 H   0  0  0  0  0  0  0  0  0  0  0  0
  146.5513  135.7538  150.6118 H   0  0  0  0  0  0  0  0  0  0  0  0
  144.9807  136.2045  149.9317 H   0  0  0  0  0  0  0  0  0  0  0  0
  145.2508  134.5872  150.5699 H   0  0  0  0  0  0  0  0  0  0  0  0
  146.4788  137.7729  150.7626 H   0  0  0  0  0  0  0  0  0  0  0  0
  145.8855  139.1937  151.5993 H   0  0  0  0  0  0  0  0  0  0  0  0
  148.3883  137.7617  152.0339 H   0  0  0  0  0  0  0  0  0  0  0  0
  149.7567  138.3739  153.3044 H   0  0  0  0  0  0  0  0  0  0  0  0
  151.4553  138.4239  155.2728 H   0  0  0  0  0  0  0  0  0  0  0  0
  152.5082  139.9002  156.9331 H   0  0  0  0  0  0  0  0  0  0  0  0
  150.6328  141.9428  159.3159 H   0  0  0  0  0  0  0  0  0  0  0  0
  151.9750  140.8601  159.0114 H   0  0  0  0  0  0  0  0  0  0  0  0
  152.4783  142.4421  160.8837 H   0  0  0  0  0  0  0  0  0  0  0  0
  153.6203  142.6263  159.5668 H   0  0  0  0  0  0  0  0  0  0  0  0
  152.0945  145.6732  158.3881 H   0  0  0  0  0  0  0  0  0  0  0  0
  153.3903  144.5305  158.0905 H   0  0  0  0  0  0  0  0  0  0  0  0
  151.5785  144.1643  156.4416 H   0  0  0  0  0  0  0  0  0  0  0  0
  150.3800  144.0226  157.7212 H   0  0  0  0  0  0  0  0  0  0  0  0
  148.6078  141.5869  154.4783 H   0  0  0  0  0  0  0  0  0  0  0  0
  1  2  1  0  0  0  0
  1 23  1  0  0  0  0
  1 24  1  0  0  0  0
  1 25  1  0  0  0  0
  2  3  1  0  0  0  0
  2  4  1  0  0  0  0
  3 26  1  0  0  0  0
  3 27  1  0  0  0  0
  3 28  1  0  0  0  0
  4  5  2  0  0  0  0
  4  6  1  0  0  0  0
  6  7  1  0  0  0  0
  6 29  1  0  0  0  0
  6 30  1  0  0  0  0
  7  8  1  0  0  0  0
  7 31  1  0  0  0  0
  8  9  2  0  0  0  0
  8 10  1  0  0  0  0
 10 11  1  0  0  0  0
 10 32  1  0  0  0  0
 11 22  1  0  0  0  0
 11 12  2  0  0  0  0
 12 13  1  0  0  0  0
 12 33  1  0  0  0  0
 13 14  2  0  0  0  0
 13 34  1  0  0  0  0
 14 15  1  0  0  0  0
 14 21  1  0  0  0  0
 15 20  1  0  0  0  0
 15 16  1  0  0  0  0
 16 17  1  0  0  0  0
 16 35  1  0  0  0  0
 16 36  1  0  0  0  0
 17 18  1  0  0  0  0
 17 37  1  0  0  0  0
 17 38  1  0  0  0  0
 18 19  1  0  0  0  0
 19 20  1  0  0  0  0
 19 39  1  0  0  0  0
 19 40  1  0  0  0  0
 20 41  1  0  0  0  0
 20 42  1  0  0  0  0
 21 22  2  0  0  0  0
 22 43  1  0  0  0  0
M  END
> <s_m_source_file>
AV-unprocessed.smi

> <i_m_source_file_index>
1104

> <i_lp_mmshare_version>
43012

> <i_f3d_flags>
0

> <s_epik_input>
W0NIM11OKFtDSDNdKUMoPU8pW0NIMl1bTkhdQyg9TylbTkhdYzFbY0hdW2NIXWMobltjSF0xKU4yW0NIMl1bQ0gyXU9bQ0gyXVtDSDJdMg==

> <s_epik_cmdline>
J2VwaWtfcHl0aG9uJywgJy1waCcsICc3LjAnLCAnLXRuJywgJzgnLCAnLW1hJywgJzIwMCcsICctbWV0YWxfYmluZGluZycsICctaW1hZScsICc8aW5maWxlLm1hZT4nLCAnLW9tYWUnLCAnPG91dGZpbGUubWFlPic=

> <r_lp_tautomer_probability>
1

> <r_epik_Ionization_Penalty>
0.00584487

> <r_epik_Ionization_Penalty_Charging>
0

> <r_epik_Ionization_Penalty_Neutral>
0.00584487

> <r_epik_State_Penalty>
0.00427029

> <r_epik_Charging_Adjusted_Penalty>
0.00427029

> <i_epik_Tot_Q>
0

> <i_epik_Tot_abs_Q>
0

> <r_epik_Metal_State_Penalty>
-0

> <b_epik_Metal_Only>
0

> <s_lp_Force_Field>
OPLS_2005

> <r_lp_Energy>
22.3559

> <b_lp_Chiralities_Consistent>
1

> <s_lp_Variant>
AV-unprocessed.smi:1104-1

> <Gold.Version>
5.8.1

> <Gold.Id.Protein>
6NUR|6NUR_protein|mol2

> <Gold.PLP.Fitness>
45.0783

> <Gold.PLP.PLP>
-42.9956

> <Gold.PLP.part.hbond>
-3.0000

> <Gold.PLP.part.metal>
0.0000

> <Gold.PLP.part.buried>
-2.1697

> <Gold.PLP.part.nonpolar>
-40.0293

> <Gold.PLP.part.repulsive>
1.5005

> <Gold.PLP.ligand.clash>
0.0000

> <Gold.PLP.ligand.torsion>
0.6265

> <Gold.PLP.Chemscore.Hbond>
1.0000

> <Gold.PLP.Chemscore.CHOScore>
0.0000

> <Gold.PLP.Chemscore.Metal>
0.0000

> <Gold.Chemscore.Hbonds>
donor molecule, donor type, donor heavy atom, donor atom, acceptor molecule, acceptor atom, score
      L1  H     7    31       P1  7948  1.00

> <Gold.PLP.Chemscore.Internal.Correction>
0.3358

> <Gold.Rescore>
     Score         DG    S(hbond)    S(metal)    S(lipo)     H(rot)  DE(clash)    DE(int)     intcor
     13.38     -15.44       0.97        0.00      91.53       1.56       0.17       1.89       ----

> <Gold.Chemscore.Fitness>
13.3835

> <Gold.Chemscore.DG>
-15.4440

> <Gold.Chemscore.ZeroCoef>
-5.4800

> <Gold.Chemscore.Hbond>
0.9693

> <Gold.Chemscore.Metal>
0.0000

> <Gold.Chemscore.Lipo>
91.5275

> <Gold.Chemscore.Internal_Hbond>
0.0000

> <Gold.Chemscore.DEClash>
0.1685

> <Gold.Chemscore.DEInternal>
1.8919

> <Gold.Chemscore.Rot>
1.5555

> <Gold.Chemscore.Internal.Correction>
   9.000000E+99

> <Gold.Chemscore.Hbonds>
donor molecule, donor type, donor heavy atom, donor atom, acceptor molecule, acceptor atom, score
      L1  H     7    31       P1  7948  0.93

> <Gold.Chemscore.Hbond.Weighted>
-3.2373

> <Gold.Chemscore.Metal.Weighted>
-0.0000

> <Gold.Chemscore.Lipo.Weighted>
-10.7087

> <Gold.Chemscore.Internal_Hbond.Weighted>
0.0000

> <Gold.Chemscore.DEClash.Weighted>
0.1685

> <Gold.Chemscore.DEInternal.Weighted>
1.8919

> <Gold.Chemscore.Rot.Weighted>
3.9821

> <Gold.Chemscore.Internal.Correction.Weighted>
   9.000000E+99

> <Gold.Protein.RotatedTorsions>
[ 6907 6896 6895 6894 ] final   78.14 input  -60.11 | X-H torsion
[ 7974 7965 7964 7962 ] final -100.08 input  175.53 | X-H torsion
[ 8008 7997 7996 7995 ] final  -19.16 input   59.86 | X-H torsion
[ 10167 10162 10161 10158 ] final  -63.46 input  -65.29 | X-H torsion
[ 10718 10713 10712 10709 ] final -157.73 input   66.30 | X-H torsion
[ 10763 10752 10751 10750 ] final  123.88 input  -60.55 | X-H torsion
[ 11005 11000 10999 10996 ] final  -38.29 input  -57.11 | X-H torsion

> <Gold.Protein.ActiveResidues>
 VAL166  LYS551  ARG553  GLY616  TRP617  ASP618  TYR619  PRO620  LYS621  CYS622 
 ASP623  PHE694  ASN695  SER759  ASP760  ASP761  ALA762  ILE779  LEU786  VAL792 
 PHE793  MET794  SER795  GLU796  ALA797  LYS798  CYS799  TRP800  GLU811  SER814 

> <Gold.Protein.RotatedAtoms>
  152.5147  134.3710  159.9317 H   0  0  0  0  0  0  0  0  0  0  0  0  # atno 6907 bound_to 6896
  151.3664  133.3864  159.2703 H   0  0  0  0  0  0  0  0  0  0  0  0  # atno 6908 bound_to 6896
  150.9612  134.9019  159.7790 H   0  0  0  0  0  0  0  0  0  0  0  0  # atno 6909 bound_to 6896
  145.2992  140.9373  143.2833 H   0  0  0  0  0  0  0  0  0  0  0  0  # atno 7974 bound_to 7965
  154.4856  140.2096  155.9664 H   0  0  0  0  0  0  0  0  0  0  0  0  # atno 8008 bound_to 7997
  156.1230  140.3210  155.8205 H   0  0  0  0  0  0  0  0  0  0  0  0  # atno 8009 bound_to 7997
  155.4434  140.0512  157.2999 H   0  0  0  0  0  0  0  0  0  0  0  0  # atno 8010 bound_to 7997
  140.5869  143.2335  151.6223 H   0  0  0  0  0  0  0  0  0  0  0  0  # atno 10167 bound_to 10162
  156.5444  130.8577  151.2759 H   0  0  0  0  0  0  0  0  0  0  0  0  # atno 10718 bound_to 10713
  153.6526  135.3360  155.3104 H   0  0  0  0  0  0  0  0  0  0  0  0  # atno 10763 bound_to 10752
  154.8534  135.4344  154.1888 H   0  0  0  0  0  0  0  0  0  0  0  0  # atno 10764 bound_to 10752
  153.2835  135.7011  153.7437 H   0  0  0  0  0  0  0  0  0  0  0  0  # atno 10765 bound_to 10752
  141.0016  133.6952  156.2034 H   0  0  0  0  0  0  0  0  0  0  0  0  # atno 11005 bound_to 11000
  144.9108  139.4531  143.6588 LP  0  0  0  0  0  0  0  0  0  0  0  0  # atno 17320 bound_to 7965
  146.3158  139.7915  142.8984 LP  0  0  0  0  0  0  0  0  0  0  0  0  # atno 17321 bound_to 7965
  139.5203  144.3227  152.0896 LP  0  0  0  0  0  0  0  0  0  0  0  0  # atno 17342 bound_to 10162
  140.2385  144.4294  150.6270 LP  0  0  0  0  0  0  0  0  0  0  0  0  # atno 17343 bound_to 10162
  157.7399  130.9841  150.2345 LP  0  0  0  0  0  0  0  0  0  0  0  0  # atno 17370 bound_to 10713
  156.2942  130.3749  149.7812 LP  0  0  0  0  0  0  0  0  0  0  0  0  # atno 17371 bound_to 10713
  140.6879  134.4697  157.5589 LP  0  0  0  0  0  0  0  0  0  0  0  0  # atno 17394 bound_to 11000
  139.9042  134.8487  156.1773 LP  0  0  0  0  0  0  0  0  0  0  0  0  # atno 17395 bound_to 11000

$$$$
