AV-unprocessed.smi:1987|AV-procd|sdf|8055|dock8
  -GOLD-   2272010263D 1   1.00000     0.00000
 Structure written by MMmdl.
 37 39  0  0  0  0  0  0  0  0  2 V2000
  149.8039  140.4621  153.3971 O   0  0  0  0  0  0  0  0  0  0  0  0
  149.6734  139.4739  154.1187 C   0  0  0  0  0  0  0  0  0  0  0  0
  150.8678  138.5610  154.3920 C   0  0  0  0  0  0  0  0  0  0  0  0
  152.0650  139.0978  153.7726 N   0  0  0  0  0  0  0  0  0  0  0  0
  152.6303  140.3041  153.8568 C   0  0  0  0  0  0  0  0  0  0  0  0
  153.7096  140.3918  153.0943 N   0  0  0  0  0  0  0  0  0  0  0  0
  153.7894  139.1361  152.5150 N   0  0  0  0  0  0  0  0  0  0  0  0
  152.8157  138.3642  152.9128 N   0  0  0  0  0  0  0  0  0  0  0  0
  148.5076  139.1122  154.6763 N   0  0  0  0  0  0  0  0  0  0  0  0
  147.2252  139.7626  154.4363 C   0  0  0  0  0  0  0  0  0  0  0  0
  146.3097  138.9009  153.5446 C   0  0  1  0  0  0  0  0  0  0  0  0
  146.4948  139.1068  152.0421 C   0  0  0  0  0  0  0  0  0  0  0  0
  145.8637  137.8464  151.4576 C   0  0  0  0  0  0  0  0  0  0  0  0
  146.1798  136.7634  152.4146 N   0  3  2  0  0  0  0  0  0  0  0  0
  145.1402  135.7150  152.4945 C   0  0  0  0  0  0  0  0  0  0  0  0
  145.6264  134.4302  153.1217 C   0  0  0  0  0  0  0  0  0  0  0  0
  145.4245  134.5142  151.6242 C   0  0  0  0  0  0  0  0  0  0  0  0
  146.5084  137.3894  153.7176 C   0  0  0  0  0  0  0  0  0  0  0  0
  151.0364  138.4722  155.4660 H   0  0  0  0  0  0  0  0  0  0  0  0
  150.6758  137.5577  154.0081 H   0  0  0  0  0  0  0  0  0  0  0  0
  152.2486  141.1130  154.4621 H   0  0  0  0  0  0  0  0  0  0  0  0
  148.4992  138.2889  155.2617 H   0  0  0  0  0  0  0  0  0  0  0  0
  146.7520  139.9372  155.4030 H   0  0  0  0  0  0  0  0  0  0  0  0
  147.3824  140.7441  153.9861 H   0  0  0  0  0  0  0  0  0  0  0  0
  145.2686  139.1252  153.7833 H   0  0  0  0  0  0  0  0  0  0  0  0
  146.0253  140.0208  151.6760 H   0  0  0  0  0  0  0  0  0  0  0  0
  147.5558  139.1458  151.7905 H   0  0  0  0  0  0  0  0  0  0  0  0
  144.7825  137.9811  151.3930 H   0  0  0  0  0  0  0  0  0  0  0  0
  146.2323  137.6171  150.4574 H   0  0  0  0  0  0  0  0  0  0  0  0
  144.1180  136.0549  152.6528 H   0  0  0  0  0  0  0  0  0  0  0  0
  146.6500  134.3918  153.4902 H   0  0  0  0  0  0  0  0  0  0  0  0
  144.9059  133.8447  153.6893 H   0  0  0  0  0  0  0  0  0  0  0  0
  144.5711  133.9840  151.2060 H   0  0  0  0  0  0  0  0  0  0  0  0
  146.3140  134.5309  150.9969 H   0  0  0  0  0  0  0  0  0  0  0  0
  147.5495  137.1574  153.9443 H   0  0  0  0  0  0  0  0  0  0  0  0
  145.9014  136.9997  154.5363 H   0  0  0  0  0  0  0  0  0  0  0  0
  147.0284  136.3227  152.0894 H   0  0  0  0  0  0  0  0  0  0  0  0
  1  2  2  0  0  0  0
  2  3  1  0  0  0  0
  2  9  1  0  0  0  0
  3  4  1  0  0  0  0
  3 19  1  0  0  0  0
  3 20  1  0  0  0  0
  4  8  1  0  0  0  0
  4  5  1  0  0  0  0
  5  6  2  0  0  0  0
  5 21  1  0  0  0  0
  6  7  1  0  0  0  0
  7  8  2  0  0  0  0
  9 10  1  0  0  0  0
  9 22  1  0  0  0  0
 10 11  1  0  0  0  0
 10 23  1  0  0  0  0
 10 24  1  0  0  0  0
 11 18  1  0  0  0  0
 11 12  1  0  0  0  0
 11 25  1  0  0  0  0
 12 13  1  0  0  0  0
 12 26  1  0  0  0  0
 12 27  1  0  0  0  0
 13 14  1  0  0  0  0
 13 28  1  0  0  0  0
 13 29  1  0  0  0  0
 14 15  1  0  0  0  0
 14 18  1  0  0  0  0
 14 37  1  0  0  0  0
 15 17  1  0  0  0  0
 15 16  1  0  0  0  0
 15 30  1  0  0  0  0
 16 17  1  0  0  0  0
 16 31  1  0  0  0  0
 16 32  1  0  0  0  0
 17 33  1  0  0  0  0
 17 34  1  0  0  0  0
 18 35  1  0  0  0  0
 18 36  1  0  0  0  0
M  CHG  1  14   1
M  END
> <s_m_source_file>
AV-unprocessed.smi

> <i_m_source_file_index>
1987

> <i_lp_mmshare_version>
43012

> <i_f3d_flags>
0

> <s_epik_input>
bjFubltjSF1uMVtDSDJdQyg9TylbTkhdW0NIMl1bQ0BASF0yW0NIMl1bQ0gyXU4oW0NIMl0yKVtDSF0zW0NIMl1bQ0gyXTM=

> <s_epik_cmdline>
J2VwaWtfcHl0aG9uJywgJy1waCcsICc3LjAnLCAnLXRuJywgJzgnLCAnLW1hJywgJzIwMCcsICctbWV0YWxfYmluZGluZycsICctaW1hZScsICc8aW5maWxlLm1hZT4nLCAnLW9tYWUnLCAnPG91dGZpbGUubWFlPic=

> <r_lp_tautomer_probability>
1

> <r_epik_Ionization_Penalty>
0.000242849

> <r_epik_Ionization_Penalty_Charging>
0.000241326

> <r_epik_Ionization_Penalty_Neutral>
1.52322e-06

> <r_epik_State_Penalty>
-0

> <r_epik_Charging_Adjusted_Penalty>
0.000241326

> <i_epik_Tot_Q>
1

> <i_epik_Tot_abs_Q>
1

> <r_epik_Metal_State_Penalty>
-0

> <b_epik_Metal_Only>
0

> <s_lp_Force_Field>
OPLS_2005

> <r_lp_Energy>
38.094

> <b_lp_Chiralities_Consistent>
1

> <s_lp_Variant>
AV-unprocessed.smi:1987-2

> <Gold.Version>
5.8.1

> <Gold.Id.Protein>
6NUR|6NUR_protein|mol2

> <Gold.PLP.Fitness>
39.6608

> <Gold.PLP.PLP>
-26.9036

> <Gold.PLP.part.hbond>
-4.8305

> <Gold.PLP.part.metal>
0.0000

> <Gold.PLP.part.buried>
3.1385

> <Gold.PLP.part.nonpolar>
-26.6971

> <Gold.PLP.part.repulsive>
1.1957

> <Gold.PLP.ligand.clash>
0.0000

> <Gold.PLP.ligand.torsion>
1.1094

> <Gold.PLP.Chemscore.Hbond>
4.5680

> <Gold.PLP.Chemscore.CHOScore>
0.0000

> <Gold.PLP.Chemscore.Metal>
0.0000

> <Gold.Chemscore.Hbonds>
donor molecule, donor type, donor heavy atom, donor atom, acceptor molecule, acceptor atom, score
      L1  H    14    37       P1  7948  2.00
      P1  H  7989  7998       L1     1  0.45
      P1  H  8011  8017       L1     1  0.54

> <Gold.PLP.Chemscore.Internal.Correction>
1.2719

> <Gold.Rescore>
     Score         DG    S(hbond)    S(metal)    S(lipo)     H(rot)  DE(clash)    DE(int)     intcor
      8.93     -14.96       2.90        0.00      55.72       2.62       3.36       2.66       ----

> <Gold.Chemscore.Fitness>
8.9338

> <Gold.Chemscore.DG>
-14.9612

> <Gold.Chemscore.ZeroCoef>
-5.4800

> <Gold.Chemscore.Hbond>
2.8985

> <Gold.Chemscore.Metal>
0.0000

> <Gold.Chemscore.Lipo>
55.7150

> <Gold.Chemscore.Internal_Hbond>
0.0000

> <Gold.Chemscore.DEClash>
3.3635

> <Gold.Chemscore.DEInternal>
2.6639

> <Gold.Chemscore.Rot>
2.6244

> <Gold.Chemscore.Internal.Correction>
   9.000000E+99

> <Gold.Chemscore.Hbonds>
donor molecule, donor type, donor heavy atom, donor atom, acceptor molecule, acceptor atom, score
      L1  H    14    37       P1  7948  0.97
      P1  H  7989  7998       L1     1  0.24
      P1  H  8011  8017       L1     1  0.54

> <Gold.Chemscore.Hbond.Weighted>
-9.6811

> <Gold.Chemscore.Metal.Weighted>
-0.0000

> <Gold.Chemscore.Lipo.Weighted>
-6.5187

> <Gold.Chemscore.Internal_Hbond.Weighted>
0.0000

> <Gold.Chemscore.DEClash.Weighted>
3.3635

> <Gold.Chemscore.DEInternal.Weighted>
2.6639

> <Gold.Chemscore.Rot.Weighted>
6.7186

> <Gold.Chemscore.Internal.Correction.Weighted>
   9.000000E+99

> <Gold.Protein.RotatedTorsions>
[ 6907 6896 6895 6894 ] final  120.60 input  -60.11 | X-H torsion
[ 7974 7965 7964 7962 ] final   -6.53 input  175.53 | X-H torsion
[ 8008 7997 7996 7995 ] final   -0.39 input   59.86 | X-H torsion
[ 10167 10162 10161 10158 ] final   -0.30 input  -65.29 | X-H torsion
[ 10718 10713 10712 10709 ] final  127.22 input   66.30 | X-H torsion
[ 10763 10752 10751 10750 ] final  154.29 input  -60.55 | X-H torsion
[ 11005 11000 10999 10996 ] final -108.04 input  -57.11 | X-H torsion

> <Gold.Protein.ActiveResidues>
 VAL166  LYS551  ARG553  GLY616  TRP617  ASP618  TYR619  PRO620  LYS621  CYS622 
 ASP623  PHE694  ASN695  SER759  ASP760  ASP761  ALA762  ILE779  LEU786  VAL792 
 PHE793  MET794  SER795  GLU796  ALA797  LYS798  CYS799  TRP800  GLU811  SER814 

> <Gold.Protein.RotatedAtoms>
  152.4386  133.7406  159.6638 H   0  0  0  0  0  0  0  0  0  0  0  0  # atno 6907 bound_to 6896
  150.8273  133.8139  159.3119 H   0  0  0  0  0  0  0  0  0  0  0  0  # atno 6908 bound_to 6896
  151.5804  135.1061  160.0067 H   0  0  0  0  0  0  0  0  0  0  0  0  # atno 6909 bound_to 6896
  146.2328  140.2185  142.8337 H   0  0  0  0  0  0  0  0  0  0  0  0  # atno 7974 bound_to 7965
  154.6586  140.2585  155.7133 H   0  0  0  0  0  0  0  0  0  0  0  0  # atno 8008 bound_to 7997
  156.2608  140.2853  156.0971 H   0  0  0  0  0  0  0  0  0  0  0  0  # atno 8009 bound_to 7997
  155.1342  140.0379  157.2772 H   0  0  0  0  0  0  0  0  0  0  0  0  # atno 8010 bound_to 7997
  140.6761  143.6911  150.8027 H   0  0  0  0  0  0  0  0  0  0  0  0  # atno 10167 bound_to 10162
  157.5352  131.1098  150.8947 H   0  0  0  0  0  0  0  0  0  0  0  0  # atno 10718 bound_to 10713
  154.1499  135.2816  155.3138 H   0  0  0  0  0  0  0  0  0  0  0  0  # atno 10763 bound_to 10752
  154.6225  135.5462  153.7594 H   0  0  0  0  0  0  0  0  0  0  0  0  # atno 10764 bound_to 10752
  153.0224  135.6442  154.1643 H   0  0  0  0  0  0  0  0  0  0  0  0  # atno 10765 bound_to 10752
  141.0922  133.9034  157.2047 H   0  0  0  0  0  0  0  0  0  0  0  0  # atno 11005 bound_to 11000
  144.9651  140.8313  143.5490 LP  0  0  0  0  0  0  0  0  0  0  0  0  # atno 17320 bound_to 7965
  145.2160  139.2182  143.5118 LP  0  0  0  0  0  0  0  0  0  0  0  0  # atno 17321 bound_to 7965
  140.0604  143.5160  152.2630 LP  0  0  0  0  0  0  0  0  0  0  0  0  # atno 17342 bound_to 10162
  139.6055  144.7595  151.3073 LP  0  0  0  0  0  0  0  0  0  0  0  0  # atno 17343 bound_to 10162
  156.9516  130.5422  149.5282 LP  0  0  0  0  0  0  0  0  0  0  0  0  # atno 17370 bound_to 10713
  156.0453  130.5530  150.8866 LP  0  0  0  0  0  0  0  0  0  0  0  0  # atno 17371 bound_to 10713
  139.9751  135.0116  156.9610 LP  0  0  0  0  0  0  0  0  0  0  0  0  # atno 17394 bound_to 11000
  140.5224  134.0894  155.7295 LP  0  0  0  0  0  0  0  0  0  0  0  0  # atno 17395 bound_to 11000

$$$$
