AV-unprocessed.smi:2154|AV-procd|sdf|8777|dock9
  -GOLD-   2272011553D 1   1.00000     0.00000
 Structure written by MMmdl.
 31 32  0  0  0  0  0  0  0  0  2 V2000
  153.8895  141.4641  160.3198 C   0  0  0  0  0  0  0  0  0  0  0  0
  152.6543  142.3062  160.0826 C   0  0  1  0  0  0  0  0  0  0  0  0
  152.1411  143.2383  161.1567 C   0  0  0  0  0  0  0  0  0  0  0  0
  152.7623  143.8038  159.9017 C   0  0  2  0  0  0  0  0  0  0  0  0
  151.9181  144.5188  158.8679 C   0  0  0  0  0  0  0  0  0  0  0  0
  151.5804  143.6928  157.7170 N   0  0  0  0  0  0  0  0  0  0  0  0
  150.7967  142.6016  157.7305 C   0  0  0  0  0  0  0  0  0  0  0  0
  150.2507  142.1830  158.7510 O   0  0  0  0  0  0  0  0  0  0  0  0
  150.5698  141.8543  156.4042 C   0  0  0  0  0  0  0  0  0  0  0  0
  151.0964  140.4773  156.3658 N   0  0  0  0  0  0  0  0  0  0  0  0
  151.7574  140.0030  157.5127 C   0  0  0  0  0  0  0  0  0  0  0  0
  152.2677  138.7583  157.5756 C   0  0  0  0  0  0  0  0  0  0  0  0
  152.1210  137.8928  156.4121 C   0  0  0  0  0  0  0  0  0  0  0  0
  152.5819  136.7538  156.4512 O   0  0  0  0  0  0  0  0  0  0  0  0
  151.4692  138.3975  155.3240 N   0  5  0  0  0  0  0  0  0  0  0  0
  150.9547  139.6652  155.2744 C   0  0  0  0  0  0  0  0  0  0  0  0
  150.3628  140.0979  154.2855 O   0  0  0  0  0  0  0  0  0  0  0  0
  154.6301  142.0159  160.8995 H   0  0  0  0  0  0  0  0  0  0  0  0
  154.3361  141.1796  159.3669 H   0  0  0  0  0  0  0  0  0  0  0  0
  153.6259  140.5579  160.8655 H   0  0  0  0  0  0  0  0  0  0  0  0
  151.8920  141.8024  159.4914 H   0  0  0  0  0  0  0  0  0  0  0  0
  151.0625  143.3253  161.2728 H   0  0  0  0  0  0  0  0  0  0  0  0
  152.7153  143.3194  162.0775 H   0  0  0  0  0  0  0  0  0  0  0  0
  153.7605  144.2244  160.0118 H   0  0  0  0  0  0  0  0  0  0  0  0
  151.0165  144.8767  159.3670 H   0  0  0  0  0  0  0  0  0  0  0  0
  152.4492  145.4028  158.5137 H   0  0  0  0  0  0  0  0  0  0  0  0
  151.9898  143.9589  156.8325 H   0  0  0  0  0  0  0  0  0  0  0  0
  149.5005  141.8555  156.1868 H   0  0  0  0  0  0  0  0  0  0  0  0
  151.0186  142.4456  155.6049 H   0  0  0  0  0  0  0  0  0  0  0  0
  151.8183  140.7049  158.3315 H   0  0  0  0  0  0  0  0  0  0  0  0
  152.7709  138.4090  158.4650 H   0  0  0  0  0  0  0  0  0  0  0  0
  1  2  1  0  0  0  0
  1 18  1  0  0  0  0
  1 19  1  0  0  0  0
  1 20  1  0  0  0  0
  2  4  1  0  0  0  0
  2  3  1  0  0  0  0
  2 21  1  0  0  0  0
  3  4  1  0  0  0  0
  3 22  1  0  0  0  0
  3 23  1  0  0  0  0
  4  5  1  0  0  0  0
  4 24  1  0  0  0  0
  5  6  1  0  0  0  0
  5 25  1  0  0  0  0
  5 26  1  0  0  0  0
  6  7  1  0  0  0  0
  6 27  1  0  0  0  0
  7  8  2  0  0  0  0
  7  9  1  0  0  0  0
  9 10  1  0  0  0  0
  9 28  1  0  0  0  0
  9 29  1  0  0  0  0
 10 16  1  0  0  0  0
 10 11  1  0  0  0  0
 11 12  2  0  0  0  0
 11 30  1  0  0  0  0
 12 13  1  0  0  0  0
 12 31  1  0  0  0  0
 13 14  2  0  0  0  0
 13 15  1  0  0  0  0
 15 16  1  0  0  0  0
 16 17  2  0  0  0  0
M  CHG  1  15  -1
M  END
> <s_m_source_file>
AV-unprocessed.smi

> <i_m_source_file_index>
2154

> <i_lp_mmshare_version>
43012

> <i_f3d_flags>
0

> <s_epik_input>
W0NIM11bQ0BASF0xW0NIMl1bQ0BIXTFbQ0gyXVtOSF1DKD1PKVtDSDJdbjJbY0hdW2NIXWMoPU8pW25IXWMyPU8=

> <s_epik_cmdline>
J2VwaWtfcHl0aG9uJywgJy1waCcsICc3LjAnLCAnLXRuJywgJzgnLCAnLW1hJywgJzIwMCcsICctbWV0YWxfYmluZGluZycsICctaW1hZScsICc8aW5maWxlLm1hZT4nLCAnLW9tYWUnLCAnPG91dGZpbGUubWFlPic=

> <r_lp_tautomer_probability>
0.999537

> <r_epik_Ionization_Penalty>
3.12283

> <r_epik_Ionization_Penalty_Charging>
2.83566e-08

> <r_epik_Ionization_Penalty_Neutral>
3.12283

> <r_epik_State_Penalty>
3.12192

> <r_epik_Charging_Adjusted_Penalty>
3.12192

> <i_epik_Tot_Q>
-1

> <i_epik_Tot_abs_Q>
1

> <r_epik_Metal_State_Penalty>
0.463748

> <b_epik_Metal_Only>
1

> <s_lp_Force_Field>
OPLS_2005

> <r_lp_Energy>
24.2191

> <b_lp_Chiralities_Consistent>
1

> <s_lp_Variant>
AV-unprocessed.smi:2154-8

> <Gold.Version>
5.8.1

> <Gold.Id.Protein>
6NUR|6NUR_protein|mol2

> <Gold.PLP.Fitness>
43.3478

> <Gold.PLP.PLP>
-37.9191

> <Gold.PLP.part.hbond>
-2.2760

> <Gold.PLP.part.metal>
0.0000

> <Gold.PLP.part.buried>
-5.6591

> <Gold.PLP.part.nonpolar>
-30.9500

> <Gold.PLP.part.repulsive>
0.2050

> <Gold.PLP.ligand.clash>
0.0000

> <Gold.PLP.ligand.torsion>
0.5187

> <Gold.PLP.Chemscore.Hbond>
1.9760

> <Gold.PLP.Chemscore.CHOScore>
0.0000

> <Gold.PLP.Chemscore.Metal>
0.0000

> <Gold.Chemscore.Hbonds>
donor molecule, donor type, donor heavy atom, donor atom, acceptor molecule, acceptor atom, score
      P1  H  7989  7998       L1    17  1.00
      P1  H 10752 10764       L1    14  1.00

> <Gold.PLP.Chemscore.Internal.Correction>
0.5381

> <Gold.Rescore>
     Score         DG    S(hbond)    S(metal)    S(lipo)     H(rot)  DE(clash)    DE(int)     intcor
     13.17     -14.93       1.59        0.00      78.15       1.96       0.01       1.75       ----

> <Gold.Chemscore.Fitness>
13.1720

> <Gold.Chemscore.DG>
-14.9300

> <Gold.Chemscore.ZeroCoef>
-5.4800

> <Gold.Chemscore.Hbond>
1.5949

> <Gold.Chemscore.Metal>
0.0000

> <Gold.Chemscore.Lipo>
78.1470

> <Gold.Chemscore.Internal_Hbond>
0.0000

> <Gold.Chemscore.DEClash>
0.0060

> <Gold.Chemscore.DEInternal>
1.7521

> <Gold.Chemscore.Rot>
1.9609

> <Gold.Chemscore.Internal.Correction>
   9.000000E+99

> <Gold.Chemscore.Hbonds>
donor molecule, donor type, donor heavy atom, donor atom, acceptor molecule, acceptor atom, score
      P1  H  7989  7998       L1    17  0.30
      P1  H 10752 10764       L1    14  0.94

> <Gold.Chemscore.Hbond.Weighted>
-5.3268

> <Gold.Chemscore.Metal.Weighted>
-0.0000

> <Gold.Chemscore.Lipo.Weighted>
-9.1432

> <Gold.Chemscore.Internal_Hbond.Weighted>
0.0000

> <Gold.Chemscore.DEClash.Weighted>
0.0060

> <Gold.Chemscore.DEInternal.Weighted>
1.7521

> <Gold.Chemscore.Rot.Weighted>
5.0200

> <Gold.Chemscore.Internal.Correction.Weighted>
   9.000000E+99

> <Gold.Protein.RotatedTorsions>
[ 6907 6896 6895 6894 ] final   59.44 input  -60.11 | X-H torsion
[ 7974 7965 7964 7962 ] final  -11.84 input  175.53 | X-H torsion
[ 8008 7997 7996 7995 ] final   70.02 input   59.86 | X-H torsion
[ 10167 10162 10161 10158 ] final  -92.40 input  -65.29 | X-H torsion
[ 10718 10713 10712 10709 ] final  117.54 input   66.30 | X-H torsion
[ 10763 10752 10751 10750 ] final  -15.88 input  -60.55 | X-H torsion
[ 11005 11000 10999 10996 ] final  -89.99 input  -57.11 | X-H torsion

> <Gold.Protein.ActiveResidues>
 VAL166  LYS551  ARG553  GLY616  TRP617  ASP618  TYR619  PRO620  LYS621  CYS622 
 ASP623  PHE694  ASN695  SER759  ASP760  ASP761  ALA762  ILE779  LEU786  VAL792 
 PHE793  MET794  SER795  GLU796  ALA797  LYS798  CYS799  TRP800  GLU811  SER814 

> <Gold.Protein.RotatedAtoms>
  152.3915  134.6434  160.0105 H   0  0  0  0  0  0  0  0  0  0  0  0  # atno 6907 bound_to 6896
  151.6666  133.3309  159.3194 H   0  0  0  0  0  0  0  0  0  0  0  0  # atno 6908 bound_to 6896
  150.7830  134.6835  159.6502 H   0  0  0  0  0  0  0  0  0  0  0  0  # atno 6909 bound_to 6896
  146.2173  140.2970  142.8372 H   0  0  0  0  0  0  0  0  0  0  0  0  # atno 7974 bound_to 7965
  155.7324  140.3491  155.5066 H   0  0  0  0  0  0  0  0  0  0  0  0  # atno 8008 bound_to 7997
  155.9170  140.1060  157.1258 H   0  0  0  0  0  0  0  0  0  0  0  0  # atno 8009 bound_to 7997
  154.4064  140.1257  156.4617 H   0  0  0  0  0  0  0  0  0  0  0  0  # atno 8010 bound_to 7997
  140.3352  143.2973  151.9897 H   0  0  0  0  0  0  0  0  0  0  0  0  # atno 10167 bound_to 10162
  157.6090  131.1038  150.7629 H   0  0  0  0  0  0  0  0  0  0  0  0  # atno 10718 bound_to 10713
  153.5500  135.7012  153.5596 H   0  0  0  0  0  0  0  0  0  0  0  0  # atno 10763 bound_to 10752
  153.3524  135.3991  155.1656 H   0  0  0  0  0  0  0  0  0  0  0  0  # atno 10764 bound_to 10752
  154.8662  135.3768  154.5010 H   0  0  0  0  0  0  0  0  0  0  0  0  # atno 10765 bound_to 10752
  141.1574  133.7664  156.9673 H   0  0  0  0  0  0  0  0  0  0  0  0  # atno 11005 bound_to 11000
  144.9085  140.7729  143.5822 LP  0  0  0  0  0  0  0  0  0  0  0  0  # atno 17320 bound_to 7965
  145.2899  139.1887  143.4746 LP  0  0  0  0  0  0  0  0  0  0  0  0  # atno 17321 bound_to 7965
  139.4849  144.6202  151.7269 LP  0  0  0  0  0  0  0  0  0  0  0  0  # atno 17342 bound_to 10162
  140.5360  144.0654  150.6071 LP  0  0  0  0  0  0  0  0  0  0  0  0  # atno 17343 bound_to 10162
  156.8011  130.4921  149.5369 LP  0  0  0  0  0  0  0  0  0  0  0  0  # atno 17370 bound_to 10713
  156.1186  130.6093  151.0158 LP  0  0  0  0  0  0  0  0  0  0  0  0  # atno 17371 bound_to 10713
  140.1153  134.9451  157.2124 LP  0  0  0  0  0  0  0  0  0  0  0  0  # atno 17394 bound_to 11000
  140.3142  134.2990  155.7260 LP  0  0  0  0  0  0  0  0  0  0  0  0  # atno 17395 bound_to 11000

$$$$
