AV-unprocessed.smi:3274|AV-procd|sdf|12529|dock4
  -GOLD-   2272018443D 1   1.00000     0.00000
 Structure written by MMmdl.
 43 44  0  0  0  0  0  0  0  0  2 V2000
  153.2207  140.9036  159.9245 C   0  0  0  0  0  0  0  0  0  0  0  0
  152.6915  142.3276  159.9745 C   0  0  0  0  0  0  0  0  0  0  0  0
  152.6673  143.0134  161.1345 C   0  0  0  0  0  0  0  0  0  0  0  0
  152.2054  144.4529  161.2815 C   0  0  0  0  0  0  0  0  0  0  0  0
  151.5819  145.0221  159.9963 C   0  0  0  0  0  0  0  0  0  0  0  0
  152.3084  144.5063  158.7423 C   0  0  2  0  0  0  0  0  0  0  0  0
  151.8592  145.2427  157.4684 C   0  0  0  0  0  0  0  0  0  0  0  0
  152.2309  142.9558  158.6522 C   0  0  2  0  0  0  0  0  0  0  0  0
  150.8322  142.4406  158.2237 C   0  0  0  0  0  0  0  0  0  0  0  0
  150.5796  142.6166  156.7780 N   0  3  0  0  0  0  0  0  0  0  0  0
  150.2914  141.3751  156.0274 C   0  0  1  0  0  0  0  0  0  0  0  0
  149.4910  141.7236  154.7610 C   0  0  0  0  0  0  0  0  0  0  0  0
  151.5993  140.6121  155.7151 C   0  0  0  0  0  0  0  0  0  0  0  0
  151.3671  139.3085  155.1203 N   0  0  0  0  0  0  0  0  0  0  0  0
  152.2257  138.3506  154.7670 C   0  0  0  0  0  0  0  0  0  0  0  0
  151.6464  137.2791  154.2441 N   0  0  0  0  0  0  0  0  0  0  0  0
  150.3395  137.6736  154.3037 C   0  0  0  0  0  0  0  0  0  0  0  0
  150.1179  138.8825  154.8207 N   0  0  0  0  0  0  0  0  0  0  0  0
  153.9385  140.7896  159.1120 H   0  0  0  0  0  0  0  0  0  0  0  0
  152.4168  140.1828  159.7856 H   0  0  0  0  0  0  0  0  0  0  0  0
  153.7294  140.6428  160.8533 H   0  0  0  0  0  0  0  0  0  0  0  0
  153.0219  142.5432  162.0404 H   0  0  0  0  0  0  0  0  0  0  0  0
  151.4969  144.5255  162.1070 H   0  0  0  0  0  0  0  0  0  0  0  0
  153.0759  145.0474  161.5609 H   0  0  0  0  0  0  0  0  0  0  0  0
  150.5270  144.7509  159.9489 H   0  0  0  0  0  0  0  0  0  0  0  0
  151.6100  146.1117  160.0342 H   0  0  0  0  0  0  0  0  0  0  0  0
  153.3637  144.7568  158.8660 H   0  0  0  0  0  0  0  0  0  0  0  0
  150.7806  145.1881  157.3220 H   0  0  0  0  0  0  0  0  0  0  0  0
  152.3447  144.8323  156.5828 H   0  0  0  0  0  0  0  0  0  0  0  0
  152.1202  146.2999  157.5235 H   0  0  0  0  0  0  0  0  0  0  0  0
  152.9473  142.6552  157.8860 H   0  0  0  0  0  0  0  0  0  0  0  0
  150.7310  141.3900  158.4934 H   0  0  0  0  0  0  0  0  0  0  0  0
  150.0412  142.9775  158.7452 H   0  0  0  0  0  0  0  0  0  0  0  0
  149.7820  143.2296  156.6867 H   0  0  0  0  0  0  0  0  0  0  0  0
  149.6530  140.7448  156.6486 H   0  0  0  0  0  0  0  0  0  0  0  0
  149.1637  140.8276  154.2330 H   0  0  0  0  0  0  0  0  0  0  0  0
  150.0849  142.3200  154.0676 H   0  0  0  0  0  0  0  0  0  0  0  0
  148.5950  142.2943  155.0078 H   0  0  0  0  0  0  0  0  0  0  0  0
  152.2226  141.1986  155.0376 H   0  0  0  0  0  0  0  0  0  0  0  0
  152.1879  140.4599  156.6197 H   0  0  0  0  0  0  0  0  0  0  0  0
  153.2946  138.4371  154.8968 H   0  0  0  0  0  0  0  0  0  0  0  0
  149.5276  137.0518  153.9563 H   0  0  0  0  0  0  0  0  0  0  0  0
  151.3779  143.0689  156.3555 H   0  0  0  0  0  0  0  0  0  0  0  0
  1  2  1  0  0  0  0
  1 19  1  0  0  0  0
  1 20  1  0  0  0  0
  1 21  1  0  0  0  0
  2  8  1  0  0  0  0
  2  3  2  0  0  0  0
  3  4  1  0  0  0  0
  3 22  1  0  0  0  0
  4  5  1  0  0  0  0
  4 23  1  0  0  0  0
  4 24  1  0  0  0  0
  5  6  1  0  0  0  0
  5 25  1  0  0  0  0
  5 26  1  0  0  0  0
  6  7  1  0  0  0  0
  6  8  1  0  0  0  0
  6 27  1  0  0  0  0
  7 28  1  0  0  0  0
  7 29  1  0  0  0  0
  7 30  1  0  0  0  0
  8  9  1  0  0  0  0
  8 31  1  0  0  0  0
  9 10  1  0  0  0  0
  9 32  1  0  0  0  0
  9 33  1  0  0  0  0
 10 11  1  0  0  0  0
 10 34  1  0  0  0  0
 10 43  1  0  0  0  0
 11 12  1  0  0  0  0
 11 13  1  0  0  0  0
 11 35  1  0  0  0  0
 12 36  1  0  0  0  0
 12 37  1  0  0  0  0
 12 38  1  0  0  0  0
 13 14  1  0  0  0  0
 13 39  1  0  0  0  0
 13 40  1  0  0  0  0
 14 18  1  0  0  0  0
 14 15  1  0  0  0  0
 15 16  2  0  0  0  0
 15 41  1  0  0  0  0
 16 17  1  0  0  0  0
 17 18  2  0  0  0  0
 17 42  1  0  0  0  0
M  CHG  1  10   1
M  END
> <s_m_source_file>
AV-unprocessed.smi

> <i_m_source_file_index>
3274

> <i_lp_mmshare_version>
43012

> <i_f3d_flags>
0

> <s_epik_input>
W0NIM11DMT1bQ0hdW0NIMl1bQ0gyXVtDQEBIXShbQ0gzXSlbQ0BIXTFbQ0gyXVtOSF1bQ0BIXShbQ0gzXSlbQ0gyXW4yW2NIXW5bY0hdbjI=

> <s_epik_cmdline>
J2VwaWtfcHl0aG9uJywgJy1waCcsICc3LjAnLCAnLXRuJywgJzgnLCAnLW1hJywgJzIwMCcsICctbWV0YWxfYmluZGluZycsICctaW1hZScsICc8aW5maWxlLm1hZT4nLCAnLW9tYWUnLCAnPG91dGZpbGUubWFlPic=

> <r_lp_tautomer_probability>
1

> <r_epik_Ionization_Penalty>
0.0017527

> <r_epik_Ionization_Penalty_Charging>
0.00175191

> <r_epik_Ionization_Penalty_Neutral>
7.94565e-07

> <r_epik_State_Penalty>
0.00118605

> <r_epik_Charging_Adjusted_Penalty>
0.00293796

> <i_epik_Tot_Q>
1

> <i_epik_Tot_abs_Q>
1

> <r_epik_Metal_State_Penalty>
-0

> <b_epik_Metal_Only>
0

> <s_lp_Force_Field>
OPLS_2005

> <r_lp_Energy>
19.123

> <b_lp_Chiralities_Consistent>
1

> <s_lp_Variant>
AV-unprocessed.smi:3274-8

> <Gold.Version>
5.8.1

> <Gold.Id.Protein>
6NUR|6NUR_protein|mol2

> <Gold.PLP.Fitness>
57.5200

> <Gold.PLP.PLP>
-47.0790

> <Gold.PLP.part.hbond>
-2.0000

> <Gold.PLP.part.metal>
0.0000

> <Gold.PLP.part.buried>
-3.2272

> <Gold.PLP.part.nonpolar>
-40.8818

> <Gold.PLP.part.repulsive>
0.3370

> <Gold.PLP.ligand.clash>
0.0000

> <Gold.PLP.ligand.torsion>
0.7866

> <Gold.PLP.Chemscore.Hbond>
2.9825

> <Gold.PLP.Chemscore.CHOScore>
0.9754

> <Gold.PLP.Chemscore.Metal>
0.0000

> <Gold.Chemscore.Hbonds>
donor molecule, donor type, donor heavy atom, donor atom, acceptor molecule, acceptor atom, score
      L1  H    10    34       P1  8028  1.92
      P1  H 10752 10763       L1    16  0.89
      L1  C    17    42       P1  7948  1.00

> <Gold.PLP.Chemscore.Internal.Correction>
0.1404

> <Gold.Rescore>
     Score         DG    S(hbond)    S(metal)    S(lipo)     H(rot)  DE(clash)    DE(int)     intcor
     15.78     -20.33       1.84        0.00     125.96       2.36       2.12       2.43       ----

> <Gold.Chemscore.Fitness>
15.7822

> <Gold.Chemscore.DG>
-20.3333

> <Gold.Chemscore.ZeroCoef>
-5.4800

> <Gold.Chemscore.Hbond>
1.8446

> <Gold.Chemscore.Metal>
0.0000

> <Gold.Chemscore.Lipo>
125.9620

> <Gold.Chemscore.Internal_Hbond>
0.0000

> <Gold.Chemscore.DEClash>
2.1229

> <Gold.Chemscore.DEInternal>
2.4282

> <Gold.Chemscore.Rot>
2.3615

> <Gold.Chemscore.Internal.Correction>
   9.000000E+99

> <Gold.Chemscore.Hbonds>
donor molecule, donor type, donor heavy atom, donor atom, acceptor molecule, acceptor atom, score
      L1  H    10    34       P1  8028  0.87
      P1  H 10752 10763       L1    16  0.64

> <Gold.Chemscore.Hbond.Weighted>
-6.1611

> <Gold.Chemscore.Metal.Weighted>
-0.0000

> <Gold.Chemscore.Lipo.Weighted>
-14.7376

> <Gold.Chemscore.Internal_Hbond.Weighted>
0.0000

> <Gold.Chemscore.DEClash.Weighted>
2.1229

> <Gold.Chemscore.DEInternal.Weighted>
2.4282

> <Gold.Chemscore.Rot.Weighted>
6.0454

> <Gold.Chemscore.Internal.Correction.Weighted>
   9.000000E+99

> <Gold.Protein.RotatedTorsions>
[ 6907 6896 6895 6894 ] final  -15.02 input  -60.11 | X-H torsion
[ 7974 7965 7964 7962 ] final  103.24 input  175.53 | X-H torsion
[ 8008 7997 7996 7995 ] final   97.15 input   59.86 | X-H torsion
[ 10167 10162 10161 10158 ] final  168.13 input  -65.29 | X-H torsion
[ 10718 10713 10712 10709 ] final -117.32 input   66.30 | X-H torsion
[ 10763 10752 10751 10750 ] final   44.44 input  -60.55 | X-H torsion
[ 11005 11000 10999 10996 ] final   35.53 input  -57.11 | X-H torsion

> <Gold.Protein.ActiveResidues>
 VAL166  LYS551  ARG553  GLY616  TRP617  ASP618  TYR619  PRO620  LYS621  CYS622 
 ASP623  PHE694  ASN695  SER759  ASP760  ASP761  ALA762  ILE779  LEU786  VAL792 
 PHE793  MET794  SER795  GLU796  ALA797  LYS798  CYS799  TRP800  GLU811  SER814 

> <Gold.Protein.RotatedAtoms>
  151.3303  135.0840  159.9336 H   0  0  0  0  0  0  0  0  0  0  0  0  # atno 6907 bound_to 6896
  152.5236  133.9549  159.7700 H   0  0  0  0  0  0  0  0  0  0  0  0  # atno 6908 bound_to 6896
  150.9886  133.6119  159.2741 H   0  0  0  0  0  0  0  0  0  0  0  0  # atno 6909 bound_to 6896
  145.3485  139.2445  143.3571 H   0  0  0  0  0  0  0  0  0  0  0  0  # atno 7974 bound_to 7965
  156.0871  140.3262  155.7767 H   0  0  0  0  0  0  0  0  0  0  0  0  # atno 8008 bound_to 7997
  155.5058  140.0573  157.2949 H   0  0  0  0  0  0  0  0  0  0  0  0  # atno 8009 bound_to 7997
  154.4615  140.1969  156.0247 H   0  0  0  0  0  0  0  0  0  0  0  0  # atno 8010 bound_to 7997
  139.4961  144.3847  151.9584 H   0  0  0  0  0  0  0  0  0  0  0  0  # atno 10167 bound_to 10162
  156.1025  130.6184  150.9148 H   0  0  0  0  0  0  0  0  0  0  0  0  # atno 10718 bound_to 10713
  152.9841  135.6070  154.3274 H   0  0  0  0  0  0  0  0  0  0  0  0  # atno 10763 bound_to 10752
  154.2980  135.2773  155.2626 H   0  0  0  0  0  0  0  0  0  0  0  0  # atno 10764 bound_to 10752
  154.4891  135.5897  153.6502 H   0  0  0  0  0  0  0  0  0  0  0  0  # atno 10765 bound_to 10752
  140.2417  134.3407  155.7923 H   0  0  0  0  0  0  0  0  0  0  0  0  # atno 11005 bound_to 11000
  146.2978  140.4097  142.8715 LP  0  0  0  0  0  0  0  0  0  0  0  0  # atno 17320 bound_to 7965
  144.8735  140.7305  143.6031 LP  0  0  0  0  0  0  0  0  0  0  0  0  # atno 17321 bound_to 7965
  140.3284  144.3346  150.5993 LP  0  0  0  0  0  0  0  0  0  0  0  0  # atno 17342 bound_to 10162
  140.5665  143.2185  151.7674 LP  0  0  0  0  0  0  0  0  0  0  0  0  # atno 17343 bound_to 10162
  157.6197  131.0930  150.8644 LP  0  0  0  0  0  0  0  0  0  0  0  0  # atno 17370 bound_to 10713
  156.8770  130.5166  149.5293 LP  0  0  0  0  0  0  0  0  0  0  0  0  # atno 17371 bound_to 10713
  141.2210  133.7302  156.8895 LP  0  0  0  0  0  0  0  0  0  0  0  0  # atno 17394 bound_to 11000
  140.1647  134.9141  157.2758 LP  0  0  0  0  0  0  0  0  0  0  0  0  # atno 17395 bound_to 11000

$$$$
