AV-unprocessed.smi:2510|AV-procd|sdf|9883|dock5
  -GOLD-   2272013523D 1   1.00000     0.00000
 Structure written by MMmdl.
 48 49  0  0  0  0  0  0  0  0  1 V2000
  154.5279  135.6014  158.4148 C   0  0  0  0  0  0  0  0  0  0  0  0
  154.1561  137.0569  158.0837 C   0  0  0  0  0  0  0  0  0  0  0  0
  152.8971  137.6347  158.7752 C   0  0  0  0  0  0  0  0  0  0  0  0
  153.0620  137.3773  160.3008 C   0  0  0  0  0  0  0  0  0  0  0  0
  154.4249  137.7513  160.9148 C   0  0  0  0  0  0  0  0  0  0  0  0
  152.4728  139.0816  158.3805 C   0  0  2  0  0  0  0  0  0  0  0  0
  152.8260  140.0997  159.3657 N   0  0  0  0  0  0  0  0  0  0  0  0
  154.0781  140.4628  159.6780 C   0  0  0  0  0  0  0  0  0  0  0  0
  155.0741  139.9534  159.1619 O   0  0  0  0  0  0  0  0  0  0  0  0
  154.2042  141.5729  160.7284 C   0  0  0  0  0  0  0  0  0  0  0  0
  153.1075  142.5888  160.6435 C   0  0  0  0  0  0  0  0  0  0  0  0
  152.7131  143.4101  159.6242 C   0  0  0  0  0  0  0  0  0  0  0  0
  151.6179  144.1448  160.1662 C   0  0  0  0  0  0  0  0  0  0  0  0
  150.7855  145.1976  159.4960 C   0  0  0  0  0  0  0  0  0  0  0  0
  151.3548  143.8091  161.4203 N   0  0  0  0  0  0  0  0  0  0  0  0
  152.2682  142.8612  161.7003 N   0  0  0  0  0  0  0  0  0  0  0  0
  150.9990  138.6597  158.4491 C   0  0  1  0  0  0  0  0  0  0  0  0
  150.0026  139.3133  157.4986 C   0  0  0  0  0  0  0  0  0  0  0  0
  151.5265  137.2470  158.1496 C   0  0  2  0  0  0  0  0  0  0  0  0
  150.8587  136.2062  158.8463 O   0  0  0  0  0  0  0  0  0  0  0  0
  149.4656  136.1569  158.5945 C   0  0  0  0  0  0  0  0  0  0  0  0
  152.3046  142.4113  162.6041 H   0  0  0  0  0  0  0  0  0  0  0  0
  155.4790  135.3408  157.9502 H   0  0  0  0  0  0  0  0  0  0  0  0
  153.7876  134.8988  158.0323 H   0  0  0  0  0  0  0  0  0  0  0  0
  154.6376  135.4374  159.4861 H   0  0  0  0  0  0  0  0  0  0  0  0
  155.0194  137.6714  158.3403 H   0  0  0  0  0  0  0  0  0  0  0  0
  154.0548  137.1287  156.9999 H   0  0  0  0  0  0  0  0  0  0  0  0
  152.2939  137.9214  160.8518 H   0  0  0  0  0  0  0  0  0  0  0  0
  152.8809  136.3266  160.5272 H   0  0  0  0  0  0  0  0  0  0  0  0
  154.4609  137.4530  161.9627 H   0  0  0  0  0  0  0  0  0  0  0  0
  154.6029  138.8260  160.8874 H   0  0  0  0  0  0  0  0  0  0  0  0
  155.2573  137.2618  160.4121 H   0  0  0  0  0  0  0  0  0  0  0  0
  152.7393  139.3578  157.3593 H   0  0  0  0  0  0  0  0  0  0  0  0
  152.0631  140.5635  159.8372 H   0  0  0  0  0  0  0  0  0  0  0  0
  154.2118  141.1185  161.7200 H   0  0  0  0  0  0  0  0  0  0  0  0
  155.1691  142.0663  160.6046 H   0  0  0  0  0  0  0  0  0  0  0  0
  153.1430  143.4755  158.6356 H   0  0  0  0  0  0  0  0  0  0  0  0
  151.1112  145.3633  158.4688 H   0  0  0  0  0  0  0  0  0  0  0  0
  150.8563  146.1490  160.0235 H   0  0  0  0  0  0  0  0  0  0  0  0
  149.7346  144.9085  159.4676 H   0  0  0  0  0  0  0  0  0  0  0  0
  150.6374  138.7082  159.4779 H   0  0  0  0  0  0  0  0  0  0  0  0
  150.3265  139.2269  156.4613 H   0  0  0  0  0  0  0  0  0  0  0  0
  149.8874  140.3744  157.7195 H   0  0  0  0  0  0  0  0  0  0  0  0
  149.0163  138.8575  157.5755 H   0  0  0  0  0  0  0  0  0  0  0  0
  151.5971  137.0484  157.0786 H   0  0  0  0  0  0  0  0  0  0  0  0
  149.0361  135.2941  159.1031 H   0  0  0  0  0  0  0  0  0  0  0  0
  149.2567  136.0571  157.5287 H   0  0  0  0  0  0  0  0  0  0  0  0
  148.9617  137.0462  158.9712 H   0  0  0  0  0  0  0  0  0  0  0  0
  1  2  1  0  0  0  0
  1 23  1  0  0  0  0
  1 24  1  0  0  0  0
  1 25  1  0  0  0  0
  2  3  1  0  0  0  0
  2 26  1  0  0  0  0
  2 27  1  0  0  0  0
  3 19  1  0  0  0  0
  3  4  1  0  0  0  0
  3  6  1  0  0  0  0
  4  5  1  0  0  0  0
  4 28  1  0  0  0  0
  4 29  1  0  0  0  0
  5 30  1  0  0  0  0
  5 31  1  0  0  0  0
  5 32  1  0  0  0  0
  6  7  1  0  0  0  0
  6 17  1  0  0  0  0
  6 33  1  0  0  0  0
  7  8  1  0  0  0  0
  7 34  1  0  0  0  0
  8  9  2  0  0  0  0
  8 10  1  0  0  0  0
 10 35  1  0  0  0  0
 10 36  1  0  0  0  0
 10 11  1  0  0  0  0
 11 16  1  0  0  0  0
 11 12  2  0  0  0  0
 12 13  1  0  0  0  0
 12 37  1  0  0  0  0
 13 14  1  0  0  0  0
 13 15  2  0  0  0  0
 14 38  1  0  0  0  0
 14 39  1  0  0  0  0
 14 40  1  0  0  0  0
 15 16  1  0  0  0  0
 16 22  1  0  0  0  0
 17 18  1  0  0  0  0
 17 19  1  0  0  0  0
 17 41  1  0  0  0  0
 18 42  1  0  0  0  0
 18 43  1  0  0  0  0
 18 44  1  0  0  0  0
 19 20  1  0  0  0  0
 19 45  1  0  0  0  0
 20 21  1  0  0  0  0
 21 46  1  0  0  0  0
 21 47  1  0  0  0  0
 21 48  1  0  0  0  0
M  END
> <s_m_source_file>
AV-unprocessed.smi

> <i_m_source_file_index>
2510

> <i_lp_mmshare_version>
43012

> <i_f3d_flags>
0

> <s_epik_input>
W0NIM11PW0NAQEhdMVtDQEhdKFtDSDNdKVtDQEBIXShDMShbQ0gyXVtDSDNdKVtDSDJdW0NIM10pW05IXUMoPU8pW0NIMl1jMltjSF1jKFtDSDNdKVtuSF1uMg==

> <s_epik_cmdline>
J2VwaWtfcHl0aG9uJywgJy1waCcsICc3LjAnLCAnLXRuJywgJzgnLCAnLW1hJywgJzIwMCcsICctbWV0YWxfYmluZGluZycsICctaW1hZScsICc8aW5maWxlLm1hZT4nLCAnLW9tYWUnLCAnPG91dGZpbGUubWFlPic=

> <r_lp_tautomer_probability>
0.5

> <r_epik_Ionization_Penalty>
0.000134763

> <r_epik_Ionization_Penalty_Charging>
0

> <r_epik_Ionization_Penalty_Neutral>
0.000134763

> <r_epik_State_Penalty>
0.41068

> <r_epik_Charging_Adjusted_Penalty>
0.41068

> <i_epik_Tot_Q>
0

> <i_epik_Tot_abs_Q>
0

> <r_epik_Metal_State_Penalty>
0.410661

> <b_epik_Metal_Only>
0

> <s_lp_Force_Field>
OPLS_2005

> <r_lp_Energy>
25.9976

> <b_lp_Chiralities_Consistent>
1

> <s_lp_Variant>
AV-unprocessed.smi:2510-14

> <Gold.Version>
5.8.1

> <Gold.Id.Protein>
6NUR|6NUR_protein|mol2

> <Gold.PLP.Fitness>
41.4837

> <Gold.PLP.PLP>
-36.5897

> <Gold.PLP.part.hbond>
-2.3534

> <Gold.PLP.part.metal>
0.0000

> <Gold.PLP.part.buried>
-6.5915

> <Gold.PLP.part.nonpolar>
-28.4156

> <Gold.PLP.part.repulsive>
0.4111

> <Gold.PLP.ligand.clash>
0.0000

> <Gold.PLP.ligand.torsion>
0.8342

> <Gold.PLP.Chemscore.Hbond>
1.9920

> <Gold.PLP.Chemscore.CHOScore>
0.0000

> <Gold.PLP.Chemscore.Metal>
0.0000

> <Gold.Chemscore.Hbonds>
donor molecule, donor type, donor heavy atom, donor atom, acceptor molecule, acceptor atom, score
      P1  H  6896  6908       L1    20  0.87
      P1  H  7997  8009       L1     9  1.00

> <Gold.PLP.Chemscore.Internal.Correction>
0.5864

> <Gold.Rescore>
     Score         DG    S(hbond)    S(metal)    S(lipo)     H(rot)  DE(clash)    DE(int)     intcor
     18.06     -18.96       1.90        0.00     100.70       1.81       0.14       0.76       ----

> <Gold.Chemscore.Fitness>
18.0606

> <Gold.Chemscore.DG>
-18.9608

> <Gold.Chemscore.ZeroCoef>
-5.4800

> <Gold.Chemscore.Hbond>
1.8962

> <Gold.Chemscore.Metal>
0.0000

> <Gold.Chemscore.Lipo>
100.6968

> <Gold.Chemscore.Internal_Hbond>
0.0000

> <Gold.Chemscore.DEClash>
0.1392

> <Gold.Chemscore.DEInternal>
0.7610

> <Gold.Chemscore.Rot>
1.8102

> <Gold.Chemscore.Internal.Correction>
   9.000000E+99

> <Gold.Chemscore.Hbonds>
donor molecule, donor type, donor heavy atom, donor atom, acceptor molecule, acceptor atom, score
      P1  H  6896  6908       L1    20  0.20
      P1  H  7997  8009       L1     9  0.94

> <Gold.Chemscore.Hbond.Weighted>
-6.3334

> <Gold.Chemscore.Metal.Weighted>
-0.0000

> <Gold.Chemscore.Lipo.Weighted>
-11.7815

> <Gold.Chemscore.Internal_Hbond.Weighted>
0.0000

> <Gold.Chemscore.DEClash.Weighted>
0.1392

> <Gold.Chemscore.DEInternal.Weighted>
0.7610

> <Gold.Chemscore.Rot.Weighted>
4.6341

> <Gold.Chemscore.Internal.Correction.Weighted>
   9.000000E+99

> <Gold.Protein.RotatedTorsions>
[ 6907 6896 6895 6894 ] final -158.14 input  -60.11 | X-H torsion
[ 7974 7965 7964 7962 ] final  -20.32 input  175.53 | X-H torsion
[ 8008 7997 7996 7995 ] final  101.92 input   59.86 | X-H torsion
[ 10167 10162 10161 10158 ] final   57.27 input  -65.29 | X-H torsion
[ 10718 10713 10712 10709 ] final  103.70 input   66.30 | X-H torsion
[ 10763 10752 10751 10750 ] final   42.47 input  -60.55 | X-H torsion
[ 11005 11000 10999 10996 ] final  134.12 input  -57.11 | X-H torsion

> <Gold.Protein.ActiveResidues>
 VAL166  LYS551  ARG553  GLY616  TRP617  ASP618  TYR619  PRO620  LYS621  CYS622 
 ASP623  PHE694  ASN695  SER759  ASP760  ASP761  ALA762  ILE779  LEU786  VAL792 
 PHE793  MET794  SER795  GLU796  ALA797  LYS798  CYS799  TRP800  GLU811  SER814 

> <Gold.Protein.RotatedAtoms>
  151.3136  133.4070  159.2648 H   0  0  0  0  0  0  0  0  0  0  0  0  # atno 6907 bound_to 6896
  151.0093  134.9385  159.8008 H   0  0  0  0  0  0  0  0  0  0  0  0  # atno 6908 bound_to 6896
  152.5296  134.3101  159.9163 H   0  0  0  0  0  0  0  0  0  0  0  0  # atno 6909 bound_to 6896
  146.1794  140.4185  142.8500 H   0  0  0  0  0  0  0  0  0  0  0  0  # atno 7974 bound_to 7965
  156.1345  140.3189  155.8399 H   0  0  0  0  0  0  0  0  0  0  0  0  # atno 8008 bound_to 7997
  155.4270  140.0516  157.3038 H   0  0  0  0  0  0  0  0  0  0  0  0  # atno 8009 bound_to 7997
  154.4925  140.2098  155.9529 H   0  0  0  0  0  0  0  0  0  0  0  0  # atno 8010 bound_to 7997
  140.1997  144.4000  150.6534 H   0  0  0  0  0  0  0  0  0  0  0  0  # atno 10167 bound_to 10162
  157.6764  131.0785  150.5595 H   0  0  0  0  0  0  0  0  0  0  0  0  # atno 10718 bound_to 10713
  152.9882  135.6130  154.2955 H   0  0  0  0  0  0  0  0  0  0  0  0  # atno 10763 bound_to 10752
  154.2678  135.2780  155.2753 H   0  0  0  0  0  0  0  0  0  0  0  0  # atno 10764 bound_to 10752
  154.5149  135.5831  153.6691 H   0  0  0  0  0  0  0  0  0  0  0  0  # atno 10765 bound_to 10752
  139.9894  134.9520  156.9821 H   0  0  0  0  0  0  0  0  0  0  0  0  # atno 11005 bound_to 11000
  144.8290  140.6676  143.6303 LP  0  0  0  0  0  0  0  0  0  0  0  0  # atno 17320 bound_to 7965
  145.4118  139.1579  143.4121 LP  0  0  0  0  0  0  0  0  0  0  0  0  # atno 17321 bound_to 7965
  140.6399  143.2201  151.6314 LP  0  0  0  0  0  0  0  0  0  0  0  0  # atno 17342 bound_to 10162
  139.5222  144.3170  152.0944 LP  0  0  0  0  0  0  0  0  0  0  0  0  # atno 17343 bound_to 10162
  156.5898  130.4326  149.5941 LP  0  0  0  0  0  0  0  0  0  0  0  0  # atno 17370 bound_to 10713
  156.2592  130.6952  151.1716 LP  0  0  0  0  0  0  0  0  0  0  0  0  # atno 17371 bound_to 10713
  140.4937  134.1167  155.7237 LP  0  0  0  0  0  0  0  0  0  0  0  0  # atno 17394 bound_to 11000
  141.1553  133.8894  157.1993 LP  0  0  0  0  0  0  0  0  0  0  0  0  # atno 17395 bound_to 11000

$$$$
