AV-unprocessed.smi:1255|AV-procd|sdf|5281|dock6
  -GOLD-   22720 4403D 1   1.00000     0.00000
 Structure written by MMmdl.
 40 41  0  0  0  0  0  0  0  0  1 V2000
  146.6160  139.0592  150.5227 C   0  0  0  0  0  0  0  0  0  0  0  0
  146.5694  138.3445  151.8838 C   0  0  2  0  0  0  0  0  0  0  0  0
  145.1676  138.0903  152.2137 N   0  0  0  0  0  0  0  0  0  0  0  0
  144.6209  136.8749  152.3636 C   0  0  0  0  0  0  0  0  0  0  0  0
  143.3307  136.9362  152.6945 N   0  0  0  0  0  0  0  0  0  0  0  0
  145.2267  135.8149  152.2185 O   0  0  0  0  0  0  0  0  0  0  0  0
  147.2130  139.2698  152.9304 C   0  0  0  0  0  0  0  0  0  0  0  0
  146.6009  140.2582  153.3373 O   0  0  0  0  0  0  0  0  0  0  0  0
  148.4451  138.9138  153.3379 N   0  0  0  0  0  0  0  0  0  0  0  0
  149.2896  139.5600  154.2805 C   0  0  0  0  0  0  0  0  0  0  0  0
  150.5752  139.0998  154.6476 C   0  0  0  0  0  0  0  0  0  0  0  0
  151.3084  139.8193  155.6104 C   0  0  0  0  0  0  0  0  0  0  0  0
  150.7396  140.9763  156.1931 C   0  0  0  0  0  0  0  0  0  0  0  0
  151.4591  141.7125  157.1596 N   0  0  0  0  0  0  0  0  0  0  0  0
  151.8484  140.9772  158.3605 C   0  0  0  0  0  0  0  0  0  0  0  0
  152.8800  141.7818  159.1700 C   0  0  0  0  0  0  0  0  0  0  0  0
  152.3663  143.0788  159.4557 O   0  0  0  0  0  0  0  0  0  0  0  0
  152.1005  143.8166  158.2676 C   0  0  0  0  0  0  0  0  0  0  0  0
  151.0367  143.0855  157.4319 C   0  0  0  0  0  0  0  0  0  0  0  0
  149.5033  141.4097  155.8443 N   0  0  0  0  0  0  0  0  0  0  0  0
  148.8033  140.7164  154.9221 C   0  0  0  0  0  0  0  0  0  0  0  0
  147.6428  139.2714  150.2216 H   0  0  0  0  0  0  0  0  0  0  0  0
  146.0719  140.0049  150.5400 H   0  0  0  0  0  0  0  0  0  0  0  0
  146.1724  138.4393  149.7427 H   0  0  0  0  0  0  0  0  0  0  0  0
  147.1153  137.4008  151.8209 H   0  0  0  0  0  0  0  0  0  0  0  0
  144.5826  138.8993  152.3622 H   0  0  0  0  0  0  0  0  0  0  0  0
  142.7995  136.0889  152.8314 H   0  0  0  0  0  0  0  0  0  0  0  0
  142.8875  137.8374  152.8013 H   0  0  0  0  0  0  0  0  0  0  0  0
  148.7906  138.0359  152.9778 H   0  0  0  0  0  0  0  0  0  0  0  0
  151.0094  138.2085  154.2224 H   0  0  0  0  0  0  0  0  0  0  0  0
  152.2979  139.4817  155.8799 H   0  0  0  0  0  0  0  0  0  0  0  0
  150.9587  140.7972  158.9655 H   0  0  0  0  0  0  0  0  0  0  0  0
  152.2697  140.0022  158.1200 H   0  0  0  0  0  0  0  0  0  0  0  0
  153.0990  141.2729  160.1086 H   0  0  0  0  0  0  0  0  0  0  0  0
  153.8222  141.8639  158.6255 H   0  0  0  0  0  0  0  0  0  0  0  0
  151.7463  144.8115  158.5379 H   0  0  0  0  0  0  0  0  0  0  0  0
  153.0202  143.9503  157.6955 H   0  0  0  0  0  0  0  0  0  0  0  0
  150.8790  143.6252  156.4971 H   0  0  0  0  0  0  0  0  0  0  0  0
  150.0859  143.0720  157.9667 H   0  0  0  0  0  0  0  0  0  0  0  0
  147.8224  141.1032  154.6865 H   0  0  0  0  0  0  0  0  0  0  0  0
  1  2  1  0  0  0  0
  1 22  1  0  0  0  0
  1 23  1  0  0  0  0
  1 24  1  0  0  0  0
  2  3  1  0  0  0  0
  2  7  1  0  0  0  0
  2 25  1  0  0  0  0
  3  4  1  0  0  0  0
  3 26  1  0  0  0  0
  4  5  1  0  0  0  0
  4  6  2  0  0  0  0
  5 27  1  0  0  0  0
  5 28  1  0  0  0  0
  7  8  2  0  0  0  0
  7  9  1  0  0  0  0
  9 10  1  0  0  0  0
  9 29  1  0  0  0  0
 10 21  1  0  0  0  0
 10 11  2  0  0  0  0
 11 12  1  0  0  0  0
 11 30  1  0  0  0  0
 12 13  2  0  0  0  0
 12 31  1  0  0  0  0
 13 14  1  0  0  0  0
 13 20  1  0  0  0  0
 14 19  1  0  0  0  0
 14 15  1  0  0  0  0
 15 16  1  0  0  0  0
 15 32  1  0  0  0  0
 15 33  1  0  0  0  0
 16 17  1  0  0  0  0
 16 34  1  0  0  0  0
 16 35  1  0  0  0  0
 17 18  1  0  0  0  0
 18 19  1  0  0  0  0
 18 36  1  0  0  0  0
 18 37  1  0  0  0  0
 19 38  1  0  0  0  0
 19 39  1  0  0  0  0
 20 21  2  0  0  0  0
 21 40  1  0  0  0  0
M  END
> <s_m_source_file>
AV-unprocessed.smi

> <i_m_source_file_index>
1255

> <i_lp_mmshare_version>
43012

> <i_f3d_flags>
0

> <s_epik_input>
W05IMl1DKD1PKVtOSF1bQ0BASF0oW0NIM10pQyg9TylbTkhdYzFbY0hdW2NIXWMobltjSF0xKU4yW0NIMl1bQ0gyXU9bQ0gyXVtDSDJdMg==

> <s_epik_cmdline>
J2VwaWtfcHl0aG9uJywgJy1waCcsICc3LjAnLCAnLXRuJywgJzgnLCAnLW1hJywgJzIwMCcsICctbWV0YWxfYmluZGluZycsICctaW1hZScsICc8aW5maWxlLm1hZT4nLCAnLW9tYWUnLCAnPG91dGZpbGUubWFlPic=

> <r_lp_tautomer_probability>
1

> <r_epik_Ionization_Penalty>
0.00069351

> <r_epik_Ionization_Penalty_Charging>
0

> <r_epik_Ionization_Penalty_Neutral>
0.00069351

> <r_epik_State_Penalty>
0.000408291

> <r_epik_Charging_Adjusted_Penalty>
0.000408291

> <i_epik_Tot_Q>
0

> <i_epik_Tot_abs_Q>
0

> <r_epik_Metal_State_Penalty>
-0

> <b_epik_Metal_Only>
0

> <s_lp_Force_Field>
OPLS_2005

> <r_lp_Energy>
17.9712

> <b_lp_Chiralities_Consistent>
1

> <s_lp_Variant>
AV-unprocessed.smi:1255-1

> <Gold.Version>
5.8.1

> <Gold.Id.Protein>
6NUR|6NUR_protein|mol2

> <Gold.PLP.Fitness>
39.9694

> <Gold.PLP.PLP>
-36.1644

> <Gold.PLP.part.hbond>
-3.5119

> <Gold.PLP.part.metal>
0.0000

> <Gold.PLP.part.buried>
0.3388

> <Gold.PLP.part.nonpolar>
-34.3806

> <Gold.PLP.part.repulsive>
0.7624

> <Gold.PLP.ligand.clash>
0.0000

> <Gold.PLP.ligand.torsion>
0.6598

> <Gold.PLP.Chemscore.Hbond>
1.5850

> <Gold.PLP.Chemscore.CHOScore>
0.0000

> <Gold.PLP.Chemscore.Metal>
0.0000

> <Gold.Chemscore.Hbonds>
donor molecule, donor type, donor heavy atom, donor atom, acceptor molecule, acceptor atom, score
      L1  H     3    26       P1 10175  1.00
      L1  H     9    29       P1  7948  0.81

> <Gold.PLP.Chemscore.Internal.Correction>
0.3696

> <Gold.Rescore>
     Score         DG    S(hbond)    S(metal)    S(lipo)     H(rot)  DE(clash)    DE(int)     intcor
     13.13     -16.75       1.74        0.00      88.42       1.91       1.64       1.97       ----

> <Gold.Chemscore.Fitness>
13.1344

> <Gold.Chemscore.DG>
-16.7499

> <Gold.Chemscore.ZeroCoef>
-5.4800

> <Gold.Chemscore.Hbond>
1.7383

> <Gold.Chemscore.Metal>
0.0000

> <Gold.Chemscore.Lipo>
88.4192

> <Gold.Chemscore.Internal_Hbond>
0.0000

> <Gold.Chemscore.DEClash>
1.6407

> <Gold.Chemscore.DEInternal>
1.9749

> <Gold.Chemscore.Rot>
1.9067

> <Gold.Chemscore.Internal.Correction>
   9.000000E+99

> <Gold.Chemscore.Hbonds>
donor molecule, donor type, donor heavy atom, donor atom, acceptor molecule, acceptor atom, score
      L1  H     3    26       P1 10175  1.00
      L1  H     9    29       P1  7948  0.80

> <Gold.Chemscore.Hbond.Weighted>
-5.8060

> <Gold.Chemscore.Metal.Weighted>
-0.0000

> <Gold.Chemscore.Lipo.Weighted>
-10.3450

> <Gold.Chemscore.Internal_Hbond.Weighted>
0.0000

> <Gold.Chemscore.DEClash.Weighted>
1.6407

> <Gold.Chemscore.DEInternal.Weighted>
1.9749

> <Gold.Chemscore.Rot.Weighted>
4.8811

> <Gold.Chemscore.Internal.Correction.Weighted>
   9.000000E+99

> <Gold.Protein.RotatedTorsions>
[ 6907 6896 6895 6894 ] final -167.80 input  -60.11 | X-H torsion
[ 7974 7965 7964 7962 ] final   83.69 input  175.53 | X-H torsion
[ 8008 7997 7996 7995 ] final  -32.06 input   59.86 | X-H torsion
[ 10167 10162 10161 10158 ] final   43.83 input  -65.29 | X-H torsion
[ 10718 10713 10712 10709 ] final   91.70 input   66.30 | X-H torsion
[ 10763 10752 10751 10750 ] final   43.30 input  -60.55 | X-H torsion
[ 11005 11000 10999 10996 ] final  142.52 input  -57.11 | X-H torsion

> <Gold.Protein.ActiveResidues>
 VAL166  LYS551  ARG553  GLY616  TRP617  ASP618  TYR619  PRO620  LYS621  CYS622 
 ASP623  PHE694  ASN695  SER759  ASP760  ASP761  ALA762  ILE779  LEU786  VAL792 
 PHE793  MET794  SER795  GLU796  ALA797  LYS798  CYS799  TRP800  GLU811  SER814 

> <Gold.Protein.RotatedAtoms>
  151.4653  133.3582  159.2815 H   0  0  0  0  0  0  0  0  0  0  0  0  # atno 6907 bound_to 6896
  150.8997  134.8410  159.7362 H   0  0  0  0  0  0  0  0  0  0  0  0  # atno 6908 bound_to 6896
  152.4872  134.4572  159.9645 H   0  0  0  0  0  0  0  0  0  0  0  0  # atno 6909 bound_to 6896
  145.6086  139.2364  143.2205 H   0  0  0  0  0  0  0  0  0  0  0  0  # atno 7974 bound_to 7965
  154.4192  140.1747  156.1666 H   0  0  0  0  0  0  0  0  0  0  0  0  # atno 8008 bound_to 7997
  155.9794  140.3379  155.6625 H   0  0  0  0  0  0  0  0  0  0  0  0  # atno 8009 bound_to 7997
  155.6520  140.0691  157.2574 H   0  0  0  0  0  0  0  0  0  0  0  0  # atno 8010 bound_to 7997
  140.3404  144.2477  150.6156 H   0  0  0  0  0  0  0  0  0  0  0  0  # atno 10167 bound_to 10162
  157.6960  131.0417  150.3770 H   0  0  0  0  0  0  0  0  0  0  0  0  # atno 10718 bound_to 10713
  152.9863  135.6105  154.3090 H   0  0  0  0  0  0  0  0  0  0  0  0  # atno 10763 bound_to 10752
  154.2806  135.2777  155.2700 H   0  0  0  0  0  0  0  0  0  0  0  0  # atno 10764 bound_to 10752
  154.5041  135.5859  153.6610 H   0  0  0  0  0  0  0  0  0  0  0  0  # atno 10765 bound_to 10752
  140.0483  134.9269  157.0971 H   0  0  0  0  0  0  0  0  0  0  0  0  # atno 11005 bound_to 11000
  146.1522  140.6909  142.9317 LP  0  0  0  0  0  0  0  0  0  0  0  0  # atno 17320 bound_to 7965
  144.7279  140.4583  143.6959 LP  0  0  0  0  0  0  0  0  0  0  0  0  # atno 17321 bound_to 7965
  140.5314  143.2242  151.8232 LP  0  0  0  0  0  0  0  0  0  0  0  0  # atno 17342 bound_to 10162
  139.4841  144.4715  151.9419 LP  0  0  0  0  0  0  0  0  0  0  0  0  # atno 17343 bound_to 10162
  156.4188  130.3948  149.6839 LP  0  0  0  0  0  0  0  0  0  0  0  0  # atno 17370 bound_to 10713
  156.4098  130.7716  151.2728 LP  0  0  0  0  0  0  0  0  0  0  0  0  # atno 17371 bound_to 10713
  140.3958  134.2136  155.7164 LP  0  0  0  0  0  0  0  0  0  0  0  0  # atno 17394 bound_to 11000
  141.1918  133.8187  157.0865 LP  0  0  0  0  0  0  0  0  0  0  0  0  # atno 17395 bound_to 11000

$$$$
