AV-unprocessed.smi:2854|AV-procd|sdf|10975|dock5
  -GOLD-   2272015433D 1   1.00000     0.00000
 Structure written by MMmdl.
 27 28  0  0  0  0  0  0  0  0  2 V2000
  149.3973  142.3375  154.9011 N   0  0  0  0  0  0  0  0  0  0  0  0
  148.6003  141.3081  154.3960 C   0  0  0  0  0  0  0  0  0  0  0  0
  147.2700  141.5855  154.0166 C   0  0  0  0  0  0  0  0  0  0  0  0
  146.4863  140.6011  153.5270 N   0  3  0  0  0  0  0  0  0  0  0  0
  146.9174  139.3308  153.3760 C   0  0  0  0  0  0  0  0  0  0  0  0
  148.2361  138.9901  153.7368 C   0  0  0  0  0  0  0  0  0  0  0  0
  149.0980  139.9870  154.2552 C   0  0  0  0  0  0  0  0  0  0  0  0
  150.4177  139.6810  154.6259 N   0  0  0  0  0  0  0  0  0  0  0  0
  150.6879  139.8809  156.0441 C   0  0  0  0  0  0  0  0  0  0  0  0
  152.1828  139.6566  156.3307 C   0  0  0  0  0  0  0  0  0  0  0  0
  152.5649  138.3604  155.8791 O   0  0  0  0  0  0  0  0  0  0  0  0
  152.3711  138.2035  154.4763 C   0  0  0  0  0  0  0  0  0  0  0  0
  150.8811  138.3875  154.1396 C   0  0  0  0  0  0  0  0  0  0  0  0
  150.3542  142.1826  155.1844 H   0  0  0  0  0  0  0  0  0  0  0  0
  149.0392  143.2779  154.9945 H   0  0  0  0  0  0  0  0  0  0  0  0
  146.8093  142.5601  154.0893 H   0  0  0  0  0  0  0  0  0  0  0  0
  146.1999  138.6298  152.9748 H   0  0  0  0  0  0  0  0  0  0  0  0
  148.5784  137.9727  153.6158 H   0  0  0  0  0  0  0  0  0  0  0  0
  150.3980  140.8905  156.3377 H   0  0  0  0  0  0  0  0  0  0  0  0
  150.0913  139.1867  156.6375 H   0  0  0  0  0  0  0  0  0  0  0  0
  152.7920  140.4181  155.8409 H   0  0  0  0  0  0  0  0  0  0  0  0
  152.3765  139.7328  157.4006 H   0  0  0  0  0  0  0  0  0  0  0  0
  152.9856  138.9217  153.9310 H   0  0  0  0  0  0  0  0  0  0  0  0
  152.7042  137.2089  154.1795 H   0  0  0  0  0  0  0  0  0  0  0  0
  150.2992  137.5869  154.5981 H   0  0  0  0  0  0  0  0  0  0  0  0
  150.7302  138.3217  153.0615 H   0  0  0  0  0  0  0  0  0  0  0  0
  145.5278  140.8273  153.2600 H   0  0  0  0  0  0  0  0  0  0  0  0
  1  2  1  0  0  0  0
  1 14  1  0  0  0  0
  1 15  1  0  0  0  0
  2  7  1  0  0  0  0
  2  3  2  0  0  0  0
  3  4  1  0  0  0  0
  3 16  1  0  0  0  0
  4  5  2  0  0  0  0
  4 27  1  0  0  0  0
  5  6  1  0  0  0  0
  5 17  1  0  0  0  0
  6  7  2  0  0  0  0
  6 18  1  0  0  0  0
  7  8  1  0  0  0  0
  8 13  1  0  0  0  0
  8  9  1  0  0  0  0
  9 10  1  0  0  0  0
  9 19  1  0  0  0  0
  9 20  1  0  0  0  0
 10 11  1  0  0  0  0
 10 21  1  0  0  0  0
 10 22  1  0  0  0  0
 11 12  1  0  0  0  0
 12 13  1  0  0  0  0
 12 23  1  0  0  0  0
 12 24  1  0  0  0  0
 13 25  1  0  0  0  0
 13 26  1  0  0  0  0
M  CHG  1   4   1
M  END
> <s_m_source_file>
AV-unprocessed.smi

> <i_m_source_file_index>
2854

> <i_lp_mmshare_version>
43012

> <i_f3d_flags>
0

> <s_epik_input>
W05IMl1jMVtjSF1uW2NIXVtjSF1jMU4yW0NIMl1bQ0gyXU9bQ0gyXVtDSDJdMg==

> <s_epik_cmdline>
J2VwaWtfcHl0aG9uJywgJy1waCcsICc3LjAnLCAnLXRuJywgJzgnLCAnLW1hJywgJzIwMCcsICctbWV0YWxfYmluZGluZycsICctaW1hZScsICc8aW5maWxlLm1hZT4nLCAnLW9tYWUnLCAnPG91dGZpbGUubWFlPic=

> <r_lp_tautomer_probability>
0.999846

> <r_epik_Ionization_Penalty>
0.0229726

> <r_epik_Ionization_Penalty_Charging>
0.0229724

> <r_epik_Ionization_Penalty_Neutral>
1.97994e-07

> <r_epik_State_Penalty>
0.0185659

> <r_epik_Charging_Adjusted_Penalty>
0.0415384

> <i_epik_Tot_Q>
1

> <i_epik_Tot_abs_Q>
1

> <r_epik_Metal_State_Penalty>
2.0686

> <b_epik_Metal_Only>
0

> <s_lp_Force_Field>
OPLS_2005

> <r_lp_Energy>
29.6275

> <b_lp_Chiralities_Consistent>
1

> <s_lp_Variant>
AV-unprocessed.smi:2854-1

> <Gold.Version>
5.8.1

> <Gold.Id.Protein>
6NUR|6NUR_protein|mol2

> <Gold.PLP.Fitness>
36.2468

> <Gold.PLP.PLP>
-25.0409

> <Gold.PLP.part.hbond>
-3.0000

> <Gold.PLP.part.metal>
0.0000

> <Gold.PLP.part.buried>
-1.9999

> <Gold.PLP.part.nonpolar>
-21.0460

> <Gold.PLP.part.repulsive>
0.7978

> <Gold.PLP.ligand.clash>
0.2713

> <Gold.PLP.ligand.torsion>
0.1726

> <Gold.PLP.Chemscore.Hbond>
3.9000

> <Gold.PLP.Chemscore.CHOScore>
0.0000

> <Gold.PLP.Chemscore.Metal>
0.0000

> <Gold.Chemscore.Hbonds>
donor molecule, donor type, donor heavy atom, donor atom, acceptor molecule, acceptor atom, score
      L1  H     1    15       P1  8028  1.00
      L1  H     4    27       P1 10175  2.00
      P1  H  7989  7998       L1     8  0.88

> <Gold.PLP.Chemscore.Internal.Correction>
0.1224

> <Gold.Rescore>
     Score         DG    S(hbond)    S(metal)    S(lipo)     H(rot)  DE(clash)    DE(int)     intcor
     15.54     -16.88       2.00        0.00      62.33       1.00       0.13       1.21       ----

> <Gold.Chemscore.Fitness>
15.5414

> <Gold.Chemscore.DG>
-16.8770

> <Gold.Chemscore.ZeroCoef>
-5.4800

> <Gold.Chemscore.Hbond>
1.9953

> <Gold.Chemscore.Metal>
0.0000

> <Gold.Chemscore.Lipo>
62.3304

> <Gold.Chemscore.Internal_Hbond>
0.0000

> <Gold.Chemscore.DEClash>
0.1277

> <Gold.Chemscore.DEInternal>
1.2079

> <Gold.Chemscore.Rot>
1.0000

> <Gold.Chemscore.Internal.Correction>
   9.000000E+99

> <Gold.Chemscore.Hbonds>
donor molecule, donor type, donor heavy atom, donor atom, acceptor molecule, acceptor atom, score
      L1  H     1    15       P1  8028  0.97
      L1  H     4    27       P1 10175  0.65
      P1  H  7989  7998       L1     8  0.07

> <Gold.Chemscore.Hbond.Weighted>
-6.6643

> <Gold.Chemscore.Metal.Weighted>
-0.0000

> <Gold.Chemscore.Lipo.Weighted>
-7.2927

> <Gold.Chemscore.Internal_Hbond.Weighted>
0.0000

> <Gold.Chemscore.DEClash.Weighted>
0.1277

> <Gold.Chemscore.DEInternal.Weighted>
1.2079

> <Gold.Chemscore.Rot.Weighted>
2.5600

> <Gold.Chemscore.Internal.Correction.Weighted>
   9.000000E+99

> <Gold.Protein.RotatedTorsions>
[ 6907 6896 6895 6894 ] final  -88.13 input  -60.11 | X-H torsion
[ 7974 7965 7964 7962 ] final -133.73 input  175.53 | X-H torsion
[ 8008 7997 7996 7995 ] final  -14.30 input   59.86 | X-H torsion
[ 10167 10162 10161 10158 ] final  176.85 input  -65.29 | X-H torsion
[ 10718 10713 10712 10709 ] final   94.57 input   66.30 | X-H torsion
[ 10763 10752 10751 10750 ] final   63.76 input  -60.55 | X-H torsion
[ 11005 11000 10999 10996 ] final  119.48 input  -57.11 | X-H torsion

> <Gold.Protein.ActiveResidues>
 VAL166  LYS551  ARG553  GLY616  TRP617  ASP618  TYR619  PRO620  LYS621  CYS622 
 ASP623  PHE694  ASN695  SER759  ASP760  ASP761  ALA762  ILE779  LEU786  VAL792 
 PHE793  MET794  SER795  GLU796  ALA797  LYS798  CYS799  TRP800  GLU811  SER814 

> <Gold.Protein.RotatedAtoms>
  150.6868  134.2789  159.4618 H   0  0  0  0  0  0  0  0  0  0  0  0  # atno 6907 bound_to 6896
  152.0705  134.9534  160.0584 H   0  0  0  0  0  0  0  0  0  0  0  0  # atno 6908 bound_to 6896
  152.0926  133.4173  159.4587 H   0  0  0  0  0  0  0  0  0  0  0  0  # atno 6909 bound_to 6896
  144.9166  140.6963  143.4991 H   0  0  0  0  0  0  0  0  0  0  0  0  # atno 7974 bound_to 7965
  154.5222  140.2227  155.8956 H   0  0  0  0  0  0  0  0  0  0  0  0  # atno 8008 bound_to 7997
  156.1674  140.3129  155.8877 H   0  0  0  0  0  0  0  0  0  0  0  0  # atno 8009 bound_to 7997
  155.3629  140.0462  157.3037 H   0  0  0  0  0  0  0  0  0  0  0  0  # atno 8010 bound_to 7997
  139.5230  144.2867  152.0499 H   0  0  0  0  0  0  0  0  0  0  0  0  # atno 10167 bound_to 10162
  157.6947  131.0517  150.4207 H   0  0  0  0  0  0  0  0  0  0  0  0  # atno 10718 bound_to 10713
  153.0030  135.5417  154.6402 H   0  0  0  0  0  0  0  0  0  0  0  0  # atno 10763 bound_to 10752
  154.5659  135.2837  155.0876 H   0  0  0  0  0  0  0  0  0  0  0  0  # atno 10764 bound_to 10752
  154.2061  135.6475  153.5154 H   0  0  0  0  0  0  0  0  0  0  0  0  # atno 10765 bound_to 10752
  139.9148  134.9628  156.7661 H   0  0  0  0  0  0  0  0  0  0  0  0  # atno 11005 bound_to 11000
  145.3365  139.1744  143.4509 LP  0  0  0  0  0  0  0  0  0  0  0  0  # atno 17320 bound_to 7965
  146.3185  140.3400  142.8647 LP  0  0  0  0  0  0  0  0  0  0  0  0  # atno 17321 bound_to 7965
  140.2320  144.4358  150.6296 LP  0  0  0  0  0  0  0  0  0  0  0  0  # atno 17342 bound_to 10162
  140.6349  143.2193  151.6417 LP  0  0  0  0  0  0  0  0  0  0  0  0  # atno 17343 bound_to 10162
  156.4582  130.4026  149.6592 LP  0  0  0  0  0  0  0  0  0  0  0  0  # atno 17370 bound_to 10713
  156.3717  130.7534  151.2518 LP  0  0  0  0  0  0  0  0  0  0  0  0  # atno 17371 bound_to 10713
  140.6658  133.9604  155.7829 LP  0  0  0  0  0  0  0  0  0  0  0  0  # atno 17394 bound_to 11000
  141.0612  134.0344  157.3656 LP  0  0  0  0  0  0  0  0  0  0  0  0  # atno 17395 bound_to 11000

$$$$
