AV-unprocessed.smi:565|AV-procd|sdf|2954|dock8
  -GOLD-   2262023453D 1   1.00000     0.00000
 Structure written by MMmdl.
 50 51  0  0  0  0  0  0  0  0  2 V2000
  150.6562  145.3299  160.0626 C   0  0  0  0  0  0  0  0  0  0  0  0
  151.6211  144.2367  160.4232 C   0  0  0  0  0  0  0  0  0  0  0  0
  151.9975  144.0942  161.6830 N   0  0  0  0  0  0  0  0  0  0  0  0
  152.8489  143.0494  161.6727 N   0  0  0  0  0  0  0  0  0  0  0  0
  153.4605  142.6192  162.9150 C   0  0  0  0  0  0  0  0  0  0  0  0
  153.0077  142.5271  160.4038 C   0  0  0  0  0  0  0  0  0  0  0  0
  153.9051  141.3635  160.1288 C   0  0  0  0  0  0  0  0  0  0  0  0
  152.2283  143.2760  159.5620 C   0  0  0  0  0  0  0  0  0  0  0  0
  152.0465  143.1420  158.0708 C   0  0  0  0  0  0  0  0  0  0  0  0
  151.2125  141.8967  157.7720 C   0  0  0  0  0  0  0  0  0  0  0  0
  150.1777  141.6798  158.4022 O   0  0  0  0  0  0  0  0  0  0  0  0
  151.6623  141.0953  156.7936 N   0  0  0  0  0  0  0  0  0  0  0  0
  150.9745  139.9065  156.3074 C   0  0  0  0  0  0  0  0  0  0  0  0
  151.0485  139.8114  154.7712 C   0  0  0  0  0  0  0  0  0  0  0  0
  149.7059  139.7667  154.1399 N   0  3  2  0  0  0  0  0  0  0  0  0
  148.8372  140.8839  154.5917 C   0  0  0  0  0  0  0  0  0  0  0  0
  147.5070  140.8969  153.8224 C   0  0  0  0  0  0  0  0  0  0  0  0
  146.7801  139.5536  153.9614 C   0  0  0  0  0  0  0  0  0  0  0  0
  147.6991  138.4020  153.5200 C   0  0  2  0  0  0  0  0  0  0  0  0
  147.0057  137.0412  153.6761 C   0  0  0  0  0  0  0  0  0  0  0  0
  149.0289  138.4511  154.2995 C   0  0  0  0  0  0  0  0  0  0  0  0
  150.9406  145.8112  159.1269 H   0  0  0  0  0  0  0  0  0  0  0  0
  150.6172  146.1034  160.8306 H   0  0  0  0  0  0  0  0  0  0  0  0
  149.6486  144.9330  159.9388 H   0  0  0  0  0  0  0  0  0  0  0  0
  154.5373  142.5155  162.7793 H   0  0  0  0  0  0  0  0  0  0  0  0
  153.0439  141.6567  163.2130 H   0  0  0  0  0  0  0  0  0  0  0  0
  153.2756  143.3461  163.7073 H   0  0  0  0  0  0  0  0  0  0  0  0
  153.7384  140.9617  159.1297 H   0  0  0  0  0  0  0  0  0  0  0  0
  153.7311  140.5582  160.8429 H   0  0  0  0  0  0  0  0  0  0  0  0
  154.9516  141.6598  160.2006 H   0  0  0  0  0  0  0  0  0  0  0  0
  151.5563  144.0165  157.6424 H   0  0  0  0  0  0  0  0  0  0  0  0
  153.0070  143.0577  157.5610 H   0  0  0  0  0  0  0  0  0  0  0  0
  152.5251  141.3480  156.3336 H   0  0  0  0  0  0  0  0  0  0  0  0
  151.4484  139.0337  156.7570 H   0  0  0  0  0  0  0  0  0  0  0  0
  149.9437  139.9179  156.6623 H   0  0  0  0  0  0  0  0  0  0  0  0
  151.6209  140.6396  154.3507 H   0  0  0  0  0  0  0  0  0  0  0  0
  151.5973  138.9028  154.5189 H   0  0  0  0  0  0  0  0  0  0  0  0
  148.6533  140.7934  155.6635 H   0  0  0  0  0  0  0  0  0  0  0  0
  149.3469  141.8357  154.4361 H   0  0  0  0  0  0  0  0  0  0  0  0
  146.8721  141.7039  154.1894 H   0  0  0  0  0  0  0  0  0  0  0  0
  147.6944  141.1057  152.7682 H   0  0  0  0  0  0  0  0  0  0  0  0
  146.4720  139.4092  154.9980 H   0  0  0  0  0  0  0  0  0  0  0  0
  145.8681  139.5618  153.3634 H   0  0  0  0  0  0  0  0  0  0  0  0
  147.9242  138.5355  152.4605 H   0  0  0  0  0  0  0  0  0  0  0  0
  146.7522  136.8421  154.7179 H   0  0  0  0  0  0  0  0  0  0  0  0
  147.6468  136.2305  153.3285 H   0  0  0  0  0  0  0  0  0  0  0  0
  146.0832  137.0017  153.0961 H   0  0  0  0  0  0  0  0  0  0  0  0
  149.6770  137.6513  153.9427 H   0  0  0  0  0  0  0  0  0  0  0  0
  148.8517  138.2607  155.3595 H   0  0  0  0  0  0  0  0  0  0  0  0
  149.8503  139.9070  153.1502 H   0  0  0  0  0  0  0  0  0  0  0  0
  1  2  1  0  0  0  0
  1 22  1  0  0  0  0
  1 23  1  0  0  0  0
  1 24  1  0  0  0  0
  2  8  1  0  0  0  0
  2  3  2  0  0  0  0
  3  4  1  0  0  0  0
  4  5  1  0  0  0  0
  4  6  1  0  0  0  0
  5 25  1  0  0  0  0
  5 26  1  0  0  0  0
  5 27  1  0  0  0  0
  6  7  1  0  0  0  0
  6  8  2  0  0  0  0
  7 28  1  0  0  0  0
  7 29  1  0  0  0  0
  7 30  1  0  0  0  0
  8  9  1  0  0  0  0
  9 10  1  0  0  0  0
  9 31  1  0  0  0  0
  9 32  1  0  0  0  0
 10 11  2  0  0  0  0
 10 12  1  0  0  0  0
 12 13  1  0  0  0  0
 12 33  1  0  0  0  0
 13 14  1  0  0  0  0
 13 34  1  0  0  0  0
 13 35  1  0  0  0  0
 14 15  1  0  0  0  0
 14 36  1  0  0  0  0
 14 37  1  0  0  0  0
 15 21  1  0  0  0  0
 15 16  1  0  0  0  0
 15 50  1  0  0  0  0
 16 17  1  0  0  0  0
 16 38  1  0  0  0  0
 16 39  1  0  0  0  0
 17 18  1  0  0  0  0
 17 40  1  0  0  0  0
 17 41  1  0  0  0  0
 18 19  1  0  0  0  0
 18 42  1  0  0  0  0
 18 43  1  0  0  0  0
 19 20  1  0  0  0  0
 19 21  1  0  0  0  0
 19 44  1  0  0  0  0
 20 45  1  0  0  0  0
 20 46  1  0  0  0  0
 20 47  1  0  0  0  0
 21 48  1  0  0  0  0
 21 49  1  0  0  0  0
M  CHG  1  15   1
M  END
> <s_m_source_file>
AV-unprocessed.smi

> <i_m_source_file_index>
565

> <i_lp_mmshare_version>
43012

> <i_f3d_flags>
0

> <s_epik_input>
W0NIM11jMW5uKFtDSDNdKWMoW0NIM10pYzFbQ0gyXUMoPU8pW05IXVtDSDJdW0NIMl1OMltDSDJdW0NIMl1bQ0gyXVtDQEBIXShbQ0gzXSlbQ0gyXTI=

> <s_epik_cmdline>
J2VwaWtfcHl0aG9uJywgJy1waCcsICc3LjAnLCAnLXRuJywgJzgnLCAnLW1hJywgJzIwMCcsICctbWV0YWxfYmluZGluZycsICctaW1hZScsICc8aW5maWxlLm1hZT4nLCAnLW9tYWUnLCAnPG91dGZpbGUubWFlPic=

> <r_lp_tautomer_probability>
1

> <r_epik_Ionization_Penalty>
0.00411138

> <r_epik_Ionization_Penalty_Charging>
0.0019503

> <r_epik_Ionization_Penalty_Neutral>
0.00216107

> <r_epik_State_Penalty>
-0

> <r_epik_Charging_Adjusted_Penalty>
0.0019503

> <i_epik_Tot_Q>
1

> <i_epik_Tot_abs_Q>
1

> <r_epik_Metal_State_Penalty>
-0

> <b_epik_Metal_Only>
0

> <s_lp_Force_Field>
OPLS_2005

> <r_lp_Energy>
10.1844

> <b_lp_Chiralities_Consistent>
1

> <s_lp_Variant>
AV-unprocessed.smi:565-4

> <Gold.Version>
5.8.1

> <Gold.Id.Protein>
6NUR|6NUR_protein|mol2

> <Gold.PLP.Fitness>
49.1472

> <Gold.PLP.PLP>
-47.9055

> <Gold.PLP.part.hbond>
-1.0000

> <Gold.PLP.part.metal>
0.0000

> <Gold.PLP.part.buried>
-3.5869

> <Gold.PLP.part.nonpolar>
-44.4467

> <Gold.PLP.part.repulsive>
0.9034

> <Gold.PLP.ligand.clash>
0.0000

> <Gold.PLP.ligand.torsion>
0.8573

> <Gold.PLP.Chemscore.Hbond>
0.9750

> <Gold.PLP.Chemscore.CHOScore>
0.0000

> <Gold.PLP.Chemscore.Metal>
0.0000

> <Gold.Chemscore.Hbonds>
donor molecule, donor type, donor heavy atom, donor atom, acceptor molecule, acceptor atom, score
      L1  H    15    50       P1  7957  1.00

> <Gold.PLP.Chemscore.Internal.Correction>
0.0313

> <Gold.Rescore>
     Score         DG    S(hbond)    S(metal)    S(lipo)     H(rot)  DE(clash)    DE(int)     intcor
     16.50     -18.69       0.84        0.00     124.40       1.61       1.31       0.87       ----

> <Gold.Chemscore.Fitness>
16.5047

> <Gold.Chemscore.DG>
-18.6923

> <Gold.Chemscore.ZeroCoef>
-5.4800

> <Gold.Chemscore.Hbond>
0.8355

> <Gold.Chemscore.Metal>
0.0000

> <Gold.Chemscore.Lipo>
124.3955

> <Gold.Chemscore.Internal_Hbond>
0.0000

> <Gold.Chemscore.DEClash>
1.3143

> <Gold.Chemscore.DEInternal>
0.8734

> <Gold.Chemscore.Rot>
1.6142

> <Gold.Chemscore.Internal.Correction>
   9.000000E+99

> <Gold.Chemscore.Hbonds>
donor molecule, donor type, donor heavy atom, donor atom, acceptor molecule, acceptor atom, score
      L1  H    15    50       P1  7957  0.96

> <Gold.Chemscore.Hbond.Weighted>
-2.7905

> <Gold.Chemscore.Metal.Weighted>
-0.0000

> <Gold.Chemscore.Lipo.Weighted>
-14.5543

> <Gold.Chemscore.Internal_Hbond.Weighted>
0.0000

> <Gold.Chemscore.DEClash.Weighted>
1.3143

> <Gold.Chemscore.DEInternal.Weighted>
0.8734

> <Gold.Chemscore.Rot.Weighted>
4.1324

> <Gold.Chemscore.Internal.Correction.Weighted>
   9.000000E+99

> <Gold.Protein.RotatedTorsions>
[ 6907 6896 6895 6894 ] final -129.96 input  -60.11 | X-H torsion
[ 7974 7965 7964 7962 ] final -149.84 input  175.53 | X-H torsion
[ 8008 7997 7996 7995 ] final   17.67 input   59.86 | X-H torsion
[ 10167 10162 10161 10158 ] final  -90.85 input  -65.29 | X-H torsion
[ 10718 10713 10712 10709 ] final  108.24 input   66.30 | X-H torsion
[ 10763 10752 10751 10750 ] final   61.56 input  -60.55 | X-H torsion
[ 11005 11000 10999 10996 ] final  131.78 input  -57.11 | X-H torsion

> <Gold.Protein.ActiveResidues>
 VAL166  LYS551  ARG553  GLY616  TRP617  ASP618  TYR619  PRO620  LYS621  CYS622 
 ASP623  PHE694  ASN695  SER759  ASP760  ASP761  ALA762  ILE779  LEU786  VAL792 
 PHE793  MET794  SER795  GLU796  ALA797  LYS798  CYS799  TRP800  GLU811  SER814 

> <Gold.Protein.RotatedAtoms>
  150.9344  133.6729  159.2803 H   0  0  0  0  0  0  0  0  0  0  0  0  # atno 6907 bound_to 6896
  151.4139  135.0987  159.9603 H   0  0  0  0  0  0  0  0  0  0  0  0  # atno 6908 bound_to 6896
  152.5041  133.8811  159.7401 H   0  0  0  0  0  0  0  0  0  0  0  0  # atno 6909 bound_to 6896
  144.7943  140.5011  143.5751 H   0  0  0  0  0  0  0  0  0  0  0  0  # atno 7974 bound_to 7965
  154.8947  140.2992  155.5351 H   0  0  0  0  0  0  0  0  0  0  0  0  # atno 8008 bound_to 7997
  156.3020  140.2418  156.3902 H   0  0  0  0  0  0  0  0  0  0  0  0  # atno 8009 bound_to 7997
  154.8582  140.0406  157.1637 H   0  0  0  0  0  0  0  0  0  0  0  0  # atno 8010 bound_to 7997
  140.3507  143.2892  151.9729 H   0  0  0  0  0  0  0  0  0  0  0  0  # atno 10167 bound_to 10162
  157.6595  131.0889  150.6275 H   0  0  0  0  0  0  0  0  0  0  0  0  # atno 10718 bound_to 10713
  152.9954  135.5496  154.6054 H   0  0  0  0  0  0  0  0  0  0  0  0  # atno 10763 bound_to 10752
  154.5386  135.2818  155.1118 H   0  0  0  0  0  0  0  0  0  0  0  0  # atno 10764 bound_to 10752
  154.2404  135.6417  153.5258 H   0  0  0  0  0  0  0  0  0  0  0  0  # atno 10765 bound_to 10752
  139.9751  134.9566  156.9488 H   0  0  0  0  0  0  0  0  0  0  0  0  # atno 11005 bound_to 11000
  145.5713  139.1483  143.3286 LP  0  0  0  0  0  0  0  0  0  0  0  0  # atno 17320 bound_to 7965
  146.2206  140.5846  142.9019 LP  0  0  0  0  0  0  0  0  0  0  0  0  # atno 17321 bound_to 7965
  139.4827  144.6078  151.7489 LP  0  0  0  0  0  0  0  0  0  0  0  0  # atno 17342 bound_to 10162
  140.5221  144.0862  150.6026 LP  0  0  0  0  0  0  0  0  0  0  0  0  # atno 17343 bound_to 10162
  156.6579  130.4504  149.5697 LP  0  0  0  0  0  0  0  0  0  0  0  0  # atno 17370 bound_to 10713
  156.2089  130.6666  151.1248 LP  0  0  0  0  0  0  0  0  0  0  0  0  # atno 17371 bound_to 10713
  140.5212  134.0905  155.7292 LP  0  0  0  0  0  0  0  0  0  0  0  0  # atno 17394 bound_to 11000
  141.1428  133.9108  157.2286 LP  0  0  0  0  0  0  0  0  0  0  0  0  # atno 17395 bound_to 11000

$$$$
