AV-unprocessed.smi:1422|AV-procd|sdf|5792|dock2
  -GOLD-   22720 5443D 1   1.00000     0.00000
 Structure written by MMmdl.
 31 32  0  0  0  0  0  0  0  0  1 V2000
  143.2955  143.9162  162.0366 C   0  0  0  0  0  0  0  0  0  0  0  0
  144.6654  143.8046  161.4607 C   0  0  0  0  0  0  0  0  0  0  0  0
  145.4244  144.6456  160.6965 C   0  0  0  0  0  0  0  0  0  0  0  0
  146.6226  143.9080  160.5033 C   0  0  0  0  0  0  0  0  0  0  0  0
  147.6915  144.4444  159.7411 N   0  0  0  0  0  0  0  0  0  0  0  0
  148.9996  144.4427  160.0494 C   0  0  0  0  0  0  0  0  0  0  0  0
  149.4853  143.9675  161.0762 O   0  0  0  0  0  0  0  0  0  0  0  0
  149.7259  145.0345  159.0899 N   0  0  0  0  0  0  0  0  0  0  0  0
  151.1750  145.2090  159.1097 C   0  0  0  0  0  0  0  0  0  0  0  0
  151.9110  143.9273  158.6769 C   0  0  2  0  0  0  0  0  0  0  0  0
  151.1025  143.0378  157.7553 C   0  0  0  0  0  0  0  0  0  0  0  0
  151.8477  141.7110  157.8663 C   0  0  0  0  0  0  0  0  0  0  0  0
  152.3778  141.6733  159.1882 O   0  0  0  0  0  0  0  0  0  0  0  0
  152.2378  142.9487  159.8073 C   0  0  0  0  0  0  0  0  0  0  0  0
  146.5981  142.7248  161.0973 N   0  0  0  0  0  0  0  0  0  0  0  0
  145.3431  142.6521  161.7134 O   0  0  0  0  0  0  0  0  0  0  0  0
  142.9378  144.9451  161.9938 H   0  0  0  0  0  0  0  0  0  0  0  0
  143.2857  143.5986  163.0794 H   0  0  0  0  0  0  0  0  0  0  0  0
  142.5935  143.2906  161.4852 H   0  0  0  0  0  0  0  0  0  0  0  0
  145.1613  145.6284  160.3348 H   0  0  0  0  0  0  0  0  0  0  0  0
  147.4319  144.8730  158.8652 H   0  0  0  0  0  0  0  0  0  0  0  0
  149.2391  145.3953  158.2823 H   0  0  0  0  0  0  0  0  0  0  0  0
  151.4758  146.0556  158.4900 H   0  0  0  0  0  0  0  0  0  0  0  0
  151.4614  145.4640  160.1303 H   0  0  0  0  0  0  0  0  0  0  0  0
  152.8380  144.1964  158.1674 H   0  0  0  0  0  0  0  0  0  0  0  0
  150.0835  142.9262  158.1295 H   0  0  0  0  0  0  0  0  0  0  0  0
  151.0515  143.4116  156.7322 H   0  0  0  0  0  0  0  0  0  0  0  0
  151.2045  140.8533  157.6692 H   0  0  0  0  0  0  0  0  0  0  0  0
  152.6783  141.6813  157.1601 H   0  0  0  0  0  0  0  0  0  0  0  0
  153.1399  143.2262  160.3531 H   0  0  0  0  0  0  0  0  0  0  0  0
  151.4148  142.8936  160.5211 H   0  0  0  0  0  0  0  0  0  0  0  0
  1  2  1  0  0  0  0
  1 17  1  0  0  0  0
  1 18  1  0  0  0  0
  1 19  1  0  0  0  0
  2 16  1  0  0  0  0
  2  3  2  0  0  0  0
  3  4  1  0  0  0  0
  3 20  1  0  0  0  0
  4  5  1  0  0  0  0
  4 15  2  0  0  0  0
  5  6  1  0  0  0  0
  5 21  1  0  0  0  0
  6  7  2  0  0  0  0
  6  8  1  0  0  0  0
  8  9  1  0  0  0  0
  8 22  1  0  0  0  0
  9 10  1  0  0  0  0
  9 23  1  0  0  0  0
  9 24  1  0  0  0  0
 10 14  1  0  0  0  0
 10 11  1  0  0  0  0
 10 25  1  0  0  0  0
 11 12  1  0  0  0  0
 11 26  1  0  0  0  0
 11 27  1  0  0  0  0
 12 13  1  0  0  0  0
 12 28  1  0  0  0  0
 12 29  1  0  0  0  0
 13 14  1  0  0  0  0
 14 30  1  0  0  0  0
 14 31  1  0  0  0  0
 15 16  1  0  0  0  0
M  END
> <s_m_source_file>
AV-unprocessed.smi

> <i_m_source_file_index>
1422

> <i_lp_mmshare_version>
43012

> <i_f3d_flags>
0

> <s_epik_input>
W0NIM11jMVtjSF1jKG5vMSlbTkhdQyg9TylbTkhdW0NIMl1bQ0BASF0yW0NIMl1bQ0gyXU9bQ0gyXTI=

> <s_epik_cmdline>
J2VwaWtfcHl0aG9uJywgJy1waCcsICc3LjAnLCAnLXRuJywgJzgnLCAnLW1hJywgJzIwMCcsICctbWV0YWxfYmluZGluZycsICctaW1hZScsICc8aW5maWxlLm1hZT4nLCAnLW9tYWUnLCAnPG91dGZpbGUubWFlPic=

> <r_lp_tautomer_probability>
1

> <r_epik_Ionization_Penalty>
2.27275e-05

> <r_epik_Ionization_Penalty_Charging>
0

> <r_epik_Ionization_Penalty_Neutral>
2.27275e-05

> <r_epik_State_Penalty>
-0

> <r_epik_Charging_Adjusted_Penalty>
0

> <i_epik_Tot_Q>
0

> <i_epik_Tot_abs_Q>
0

> <r_epik_Metal_State_Penalty>
-0

> <b_epik_Metal_Only>
0

> <s_lp_Force_Field>
OPLS_2005

> <r_lp_Energy>
16.1313

> <b_lp_Chiralities_Consistent>
1

> <s_lp_Variant>
AV-unprocessed.smi:1422-1

> <Gold.Version>
5.8.1

> <Gold.Id.Protein>
6NUR|6NUR_protein|mol2

> <Gold.PLP.Fitness>
43.7645

> <Gold.PLP.PLP>
-34.9707

> <Gold.PLP.part.hbond>
-5.1489

> <Gold.PLP.part.metal>
0.0000

> <Gold.PLP.part.buried>
-5.5869

> <Gold.PLP.part.nonpolar>
-25.3495

> <Gold.PLP.part.repulsive>
0.6049

> <Gold.PLP.ligand.clash>
0.0000

> <Gold.PLP.ligand.torsion>
0.9244

> <Gold.PLP.Chemscore.Hbond>
3.5457

> <Gold.PLP.Chemscore.CHOScore>
0.0000

> <Gold.PLP.Chemscore.Metal>
0.0000

> <Gold.Chemscore.Hbonds>
donor molecule, donor type, donor heavy atom, donor atom, acceptor molecule, acceptor atom, score
      L1  H     5    21       P1  8029  1.00
      L1  H     8    22       P1  8029  1.00
      P1  H  6933  6944       L1    15  0.78
      P1  H  6934  6946       L1    15  0.82

> <Gold.PLP.Chemscore.Internal.Correction>
0.0055

> <Gold.Rescore>
     Score         DG    S(hbond)    S(metal)    S(lipo)     H(rot)  DE(clash)    DE(int)     intcor
     18.75     -19.54       2.57        0.00      75.25       1.30       0.00       0.79       ----

> <Gold.Chemscore.Fitness>
18.7526

> <Gold.Chemscore.DG>
-19.5443

> <Gold.Chemscore.ZeroCoef>
-5.4800

> <Gold.Chemscore.Hbond>
2.5686

> <Gold.Chemscore.Metal>
0.0000

> <Gold.Chemscore.Lipo>
75.2499

> <Gold.Chemscore.Internal_Hbond>
0.0000

> <Gold.Chemscore.DEClash>
0.0000

> <Gold.Chemscore.DEInternal>
0.7917

> <Gold.Chemscore.Rot>
1.2965

> <Gold.Chemscore.Internal.Correction>
   9.000000E+99

> <Gold.Chemscore.Hbonds>
donor molecule, donor type, donor heavy atom, donor atom, acceptor molecule, acceptor atom, score
      L1  H     5    21       P1  8029  0.94
      L1  H     8    22       P1  8029  0.78
      P1  H  6933  6944       L1    15  0.34
      P1  H  6934  6946       L1    15  0.21

> <Gold.Chemscore.Hbond.Weighted>
-8.5793

> <Gold.Chemscore.Metal.Weighted>
-0.0000

> <Gold.Chemscore.Lipo.Weighted>
-8.8042

> <Gold.Chemscore.Internal_Hbond.Weighted>
0.0000

> <Gold.Chemscore.DEClash.Weighted>
0.0000

> <Gold.Chemscore.DEInternal.Weighted>
0.7917

> <Gold.Chemscore.Rot.Weighted>
3.3192

> <Gold.Chemscore.Internal.Correction.Weighted>
   9.000000E+99

> <Gold.Protein.RotatedTorsions>
[ 6907 6896 6895 6894 ] final  -16.77 input  -60.11 | X-H torsion
[ 7974 7965 7964 7962 ] final  -12.44 input  175.53 | X-H torsion
[ 8008 7997 7996 7995 ] final  126.71 input   59.86 | X-H torsion
[ 10167 10162 10161 10158 ] final  -61.81 input  -65.29 | X-H torsion
[ 10718 10713 10712 10709 ] final  -84.23 input   66.30 | X-H torsion
[ 10763 10752 10751 10750 ] final   33.69 input  -60.55 | X-H torsion
[ 11005 11000 10999 10996 ] final -162.58 input  -57.11 | X-H torsion

> <Gold.Protein.ActiveResidues>
 VAL166  LYS551  ARG553  GLY616  TRP617  ASP618  TYR619  PRO620  LYS621  CYS622 
 ASP623  PHE694  ASN695  SER759  ASP760  ASP761  ALA762  ILE779  LEU786  VAL792 
 PHE793  MET794  SER795  GLU796  ALA797  LYS798  CYS799  TRP800  GLU811  SER814 

> <Gold.Protein.RotatedAtoms>
  151.3035  135.0775  159.9246 H   0  0  0  0  0  0  0  0  0  0  0  0  # atno 6907 bound_to 6896
  152.5293  133.9809  159.7816 H   0  0  0  0  0  0  0  0  0  0  0  0  # atno 6908 bound_to 6896
  151.0100  133.5923  159.2714 H   0  0  0  0  0  0  0  0  0  0  0  0  # atno 6909 bound_to 6896
  146.2152  140.3057  142.8378 H   0  0  0  0  0  0  0  0  0  0  0  0  # atno 7974 bound_to 7965
  156.2871  140.2686  156.2156 H   0  0  0  0  0  0  0  0  0  0  0  0  # atno 8008 bound_to 7997
  155.0220  140.0386  157.2459 H   0  0  0  0  0  0  0  0  0  0  0  0  # atno 8009 bound_to 7997
  154.7427  140.2728  155.6364 H   0  0  0  0  0  0  0  0  0  0  0  0  # atno 8010 bound_to 7997
  140.5981  143.2355  151.5990 H   0  0  0  0  0  0  0  0  0  0  0  0  # atno 10167 bound_to 10162
  156.0009  130.4691  150.4378 H   0  0  0  0  0  0  0  0  0  0  0  0  # atno 10718 bound_to 10713
  153.0200  135.6380  154.1551 H   0  0  0  0  0  0  0  0  0  0  0  0  # atno 10763 bound_to 10752
  154.1286  135.2842  155.3192 H   0  0  0  0  0  0  0  0  0  0  0  0  # atno 10764 bound_to 10752
  154.6211  135.5524  153.7638 H   0  0  0  0  0  0  0  0  0  0  0  0  # atno 10765 bound_to 10752
  140.6077  134.4882  157.5212 H   0  0  0  0  0  0  0  0  0  0  0  0  # atno 11005 bound_to 11000
  144.9025  140.7659  143.5858 LP  0  0  0  0  0  0  0  0  0  0  0  0  # atno 17320 bound_to 7965
  145.2984  139.1859  143.4703 LP  0  0  0  0  0  0  0  0  0  0  0  0  # atno 17321 bound_to 7965
  139.5272  144.3024  152.1062 LP  0  0  0  0  0  0  0  0  0  0  0  0  # atno 17342 bound_to 10162
  140.2200  144.4476  150.6346 LP  0  0  0  0  0  0  0  0  0  0  0  0  # atno 17343 bound_to 10162
  157.2421  131.0528  151.2430 LP  0  0  0  0  0  0  0  0  0  0  0  0  # atno 17370 bound_to 10713
  157.3610  130.7131  149.6502 LP  0  0  0  0  0  0  0  0  0  0  0  0  # atno 17371 bound_to 10713
  139.9205  134.8158  156.1226 LP  0  0  0  0  0  0  0  0  0  0  0  0  # atno 17394 bound_to 11000
  141.0829  133.6746  156.2375 LP  0  0  0  0  0  0  0  0  0  0  0  0  # atno 17395 bound_to 11000

$$$$
