AV-unprocessed.smi:148|AV-procd|sdf|1225|dock2
  -GOLD-   2262018423D 1   1.00000     0.00000
 Structure written by MMmdl.
 63 67  0  0  0  0  0  0  0  0  1 V2000
  148.1738  137.4583  163.2439 O   0  0  0  0  0  0  0  0  0  0  0  0
  147.5953  136.1880  163.0203 C   0  0  0  0  0  0  0  0  0  0  0  0
  147.3560  135.9258  161.5151 C   0  0  1  0  0  0  0  0  0  0  0  0
  148.6127  136.3631  160.7167 C   0  0  0  0  0  0  0  0  0  0  0  0
  148.3756  136.6251  159.3086 N   0  0  0  0  0  0  0  0  0  0  0  0
  149.1941  136.2746  158.2575 C   0  0  0  0  0  0  0  0  0  0  0  0
  148.7621  136.6208  157.0753 N   0  0  0  0  0  0  0  0  0  0  0  0
  147.5670  137.2780  157.3359 C   0  0  0  0  0  0  0  0  0  0  0  0
  146.5914  137.9089  156.5214 C   0  0  0  0  0  0  0  0  0  0  0  0
  146.7025  137.9470  155.1758 N   0  0  0  0  0  0  0  0  0  0  0  0
  145.4178  137.6074  154.5597 C   0  0  0  0  0  0  0  0  0  0  0  0
  145.5700  137.3447  153.0588 C   0  0  0  0  0  0  0  0  0  0  0  0
  146.2133  138.5571  152.3847 C   0  0  0  0  0  0  0  0  0  0  0  0
  147.5519  138.8799  153.0609 C   0  0  0  0  0  0  0  0  0  0  0  0
  147.4154  139.1024  154.5921 C   0  0  2  0  0  0  0  0  0  0  0  0
  148.8240  139.3667  155.2318 C   0  0  1  0  0  0  0  0  0  0  0  0
  149.9571  138.4543  154.7242 C   0  0  0  0  0  0  0  0  0  0  0  0
  151.2729  139.1372  155.1143 C   0  0  0  0  0  0  0  0  0  0  0  0
  150.9213  140.5962  155.4243 C   0  0  0  0  0  0  0  0  0  0  0  0
  149.4474  140.7690  155.0431 C   0  0  1  0  0  0  0  0  0  0  0  0
  149.3731  141.1871  153.6928 O   0  0  0  0  0  0  0  0  0  0  0  0
  145.5167  138.4740  157.1327 N   0  0  0  0  0  0  0  0  0  0  0  0
  145.4119  138.4334  158.4645 C   0  0  0  0  0  0  0  0  0  0  0  0
  146.2438  137.8819  159.3517 N   0  0  0  0  0  0  0  0  0  0  0  0
  147.3162  137.3062  158.7354 C   0  0  0  0  0  0  0  0  0  0  0  0
  146.8800  134.4704  161.2287 C   0  0  1  0  0  0  0  0  0  0  0  0
  147.8145  133.3846  161.7396 C   0  0  0  0  0  0  0  0  0  0  0  0
  146.9168  132.1563  161.7369 C   0  0  0  0  0  0  0  0  0  0  0  0
  145.6453  132.6411  162.1403 O   0  0  0  0  0  0  0  0  0  0  0  0
  145.5699  134.0455  161.9133 C   0  0  0  0  0  0  0  0  0  0  0  0
  148.0031  137.7137  164.1378 H   0  0  0  0  0  0  0  0  0  0  0  0
  148.2408  135.4253  163.4554 H   0  0  0  0  0  0  0  0  0  0  0  0
  146.6540  136.1345  163.5682 H   0  0  0  0  0  0  0  0  0  0  0  0
  146.5406  136.5908  161.2287 H   0  0  0  0  0  0  0  0  0  0  0  0
  149.0294  137.2737  161.1487 H   0  0  0  0  0  0  0  0  0  0  0  0
  149.3913  135.6037  160.7975 H   0  0  0  0  0  0  0  0  0  0  0  0
  150.1209  135.7367  158.3945 H   0  0  0  0  0  0  0  0  0  0  0  0
  144.9947  136.7236  155.0404 H   0  0  0  0  0  0  0  0  0  0  0  0
  144.7107  138.4238  154.7168 H   0  0  0  0  0  0  0  0  0  0  0  0
  146.1856  136.4586  152.8987 H   0  0  0  0  0  0  0  0  0  0  0  0
  144.5973  137.1364  152.6130 H   0  0  0  0  0  0  0  0  0  0  0  0
  146.3647  138.3617  151.3228 H   0  0  0  0  0  0  0  0  0  0  0  0
  145.5470  139.4179  152.4548 H   0  0  0  0  0  0  0  0  0  0  0  0
  148.2535  138.0660  152.8718 H   0  0  0  0  0  0  0  0  0  0  0  0
  147.9640  139.7633  152.5742 H   0  0  0  0  0  0  0  0  0  0  0  0
  146.7892  139.9839  154.7349 H   0  0  0  0  0  0  0  0  0  0  0  0
  148.7390  139.1854  156.3050 H   0  0  0  0  0  0  0  0  0  0  0  0
  149.8959  137.4450  155.1326 H   0  0  0  0  0  0  0  0  0  0  0  0
  149.9082  138.3717  153.6374 H   0  0  0  0  0  0  0  0  0  0  0  0
  151.7102  138.6617  155.9930 H   0  0  0  0  0  0  0  0  0  0  0  0
  152.0016  139.0637  154.3064 H   0  0  0  0  0  0  0  0  0  0  0  0
  151.0375  140.7692  156.4951 H   0  0  0  0  0  0  0  0  0  0  0  0
  151.5768  141.3036  154.9143 H   0  0  0  0  0  0  0  0  0  0  0  0
  148.9926  141.5323  155.6708 H   0  0  0  0  0  0  0  0  0  0  0  0
  149.2307  140.4254  153.1519 H   0  0  0  0  0  0  0  0  0  0  0  0
  144.5365  138.9113  158.8783 H   0  0  0  0  0  0  0  0  0  0  0  0
  146.7665  134.3353  160.1518 H   0  0  0  0  0  0  0  0  0  0  0  0
  148.6998  133.2493  161.1176 H   0  0  0  0  0  0  0  0  0  0  0  0
  148.1395  133.6063  162.7572 H   0  0  0  0  0  0  0  0  0  0  0  0
  146.8356  131.7448  160.7300 H   0  0  0  0  0  0  0  0  0  0  0  0
  147.2755  131.3696  162.4008 H   0  0  0  0  0  0  0  0  0  0  0  0
  145.4525  134.5356  162.8804 H   0  0  0  0  0  0  0  0  0  0  0  0
  144.6936  134.2754  161.3090 H   0  0  0  0  0  0  0  0  0  0  0  0
  1  2  1  0  0  0  0
  1 31  1  0  0  0  0
  2  3  1  0  0  0  0
  2 32  1  0  0  0  0
  2 33  1  0  0  0  0
  3  4  1  0  0  0  0
  3 26  1  0  0  0  0
  3 34  1  0  0  0  0
  4  5  1  0  0  0  0
  4 35  1  0  0  0  0
  4 36  1  0  0  0  0
  5 25  1  0  0  0  0
  5  6  1  0  0  0  0
  6  7  2  0  0  0  0
  6 37  1  0  0  0  0
  7  8  1  0  0  0  0
  8 25  2  0  0  0  0
  8  9  1  0  0  0  0
  9 10  1  0  0  0  0
  9 22  2  0  0  0  0
 10 15  1  0  0  0  0
 10 11  1  0  0  0  0
 11 12  1  0  0  0  0
 11 38  1  0  0  0  0
 11 39  1  0  0  0  0
 12 13  1  0  0  0  0
 12 40  1  0  0  0  0
 12 41  1  0  0  0  0
 13 14  1  0  0  0  0
 13 42  1  0  0  0  0
 13 43  1  0  0  0  0
 14 15  1  0  0  0  0
 14 44  1  0  0  0  0
 14 45  1  0  0  0  0
 15 16  1  0  0  0  0
 15 46  1  0  0  0  0
 16 20  1  0  0  0  0
 16 17  1  0  0  0  0
 16 47  1  0  0  0  0
 17 18  1  0  0  0  0
 17 48  1  0  0  0  0
 17 49  1  0  0  0  0
 18 19  1  0  0  0  0
 18 50  1  0  0  0  0
 18 51  1  0  0  0  0
 19 20  1  0  0  0  0
 19 52  1  0  0  0  0
 19 53  1  0  0  0  0
 20 21  1  0  0  0  0
 20 54  1  0  0  0  0
 21 55  1  0  0  0  0
 22 23  1  0  0  0  0
 23 24  2  0  0  0  0
 23 56  1  0  0  0  0
 24 25  1  0  0  0  0
 26 30  1  0  0  0  0
 26 27  1  0  0  0  0
 26 57  1  0  0  0  0
 27 28  1  0  0  0  0
 27 58  1  0  0  0  0
 27 59  1  0  0  0  0
 28 29  1  0  0  0  0
 28 60  1  0  0  0  0
 28 61  1  0  0  0  0
 29 30  1  0  0  0  0
 30 62  1  0  0  0  0
 30 63  1  0  0  0  0
M  END
> <s_m_source_file>
AV-unprocessed.smi

> <i_m_source_file_index>
148

> <i_lp_mmshare_version>
43012

> <i_f3d_flags>
0

> <s_epik_input>
W0NIMl0xT1tDSDJdW0NIMl1bQ0BIXTFbQ0BIXShbQ0gyXVtPSF0pW0NIMl1uKFtjSF1uMiljKGMyMyluW2NIXW5jM040W0NIMl1bQ0gyXVtDSDJdW0NIMl1bQ0BIXTRbQ0BASF01W0NIMl1bQ0gyXVtDSDJdW0NASF01W09IXQ==

> <s_epik_cmdline>
J2VwaWtfcHl0aG9uJywgJy1waCcsICc3LjAnLCAnLXRuJywgJzgnLCAnLW1hJywgJzIwMCcsICctbWV0YWxfYmluZGluZycsICctaW1hZScsICc8aW5maWxlLm1hZT4nLCAnLW9tYWUnLCAnPG91dGZpbGUubWFlPic=

> <r_lp_tautomer_probability>
1

> <r_epik_Ionization_Penalty>
0.00556303

> <r_epik_Ionization_Penalty_Charging>
0

> <r_epik_Ionization_Penalty_Neutral>
0.00556303

> <r_epik_State_Penalty>
0.00401767

> <r_epik_Charging_Adjusted_Penalty>
0.00401767

> <i_epik_Tot_Q>
0

> <i_epik_Tot_abs_Q>
0

> <r_epik_Metal_State_Penalty>
-0

> <b_epik_Metal_Only>
0

> <s_lp_Force_Field>
OPLS_2005

> <r_lp_Energy>
70.5137

> <b_lp_Chiralities_Consistent>
1

> <s_lp_Variant>
AV-unprocessed.smi:148-24

> <Gold.Version>
5.8.1

> <Gold.Id.Protein>
6NUR|6NUR_protein|mol2

> <Gold.PLP.Fitness>
47.2372

> <Gold.PLP.PLP>
-40.9905

> <Gold.PLP.part.hbond>
-4.7191

> <Gold.PLP.part.metal>
0.0000

> <Gold.PLP.part.buried>
-0.1575

> <Gold.PLP.part.nonpolar>
-35.9398

> <Gold.PLP.part.repulsive>
0.1160

> <Gold.PLP.ligand.clash>
0.0000

> <Gold.PLP.ligand.torsion>
1.3720

> <Gold.PLP.Chemscore.Hbond>
2.8041

> <Gold.PLP.Chemscore.CHOScore>
0.0000

> <Gold.PLP.Chemscore.Metal>
0.0000

> <Gold.Chemscore.Hbonds>
donor molecule, donor type, donor heavy atom, donor atom, acceptor molecule, acceptor atom, score
      L1  H    21    55       P1  7957  0.59
      P1  H  6931  6943       L1     1  0.46
      P1  H  6934  6947       L1    24  0.57
      P1  H  7989  7998       L1    21  0.03
      P1  H  8011  8017       L1    21  0.84

> <Gold.PLP.Chemscore.Internal.Correction>
0.5784

> <Gold.Rescore>
     Score         DG    S(hbond)    S(metal)    S(lipo)     H(rot)  DE(clash)    DE(int)     intcor
     11.21     -14.80       1.56        0.00     107.67       3.32       1.34       2.25       ----

> <Gold.Chemscore.Fitness>
11.2075

> <Gold.Chemscore.DG>
-14.7978

> <Gold.Chemscore.ZeroCoef>
-5.4800

> <Gold.Chemscore.Hbond>
1.5630

> <Gold.Chemscore.Metal>
0.0000

> <Gold.Chemscore.Lipo>
107.6703

> <Gold.Chemscore.Internal_Hbond>
0.0000

> <Gold.Chemscore.DEClash>
1.3362

> <Gold.Chemscore.DEInternal>
2.2541

> <Gold.Chemscore.Rot>
3.3203

> <Gold.Chemscore.Internal.Correction>
   9.000000E+99

> <Gold.Chemscore.Hbonds>
donor molecule, donor type, donor heavy atom, donor atom, acceptor molecule, acceptor atom, score
      L1  H    21    55       P1  7957  0.57
      P1  H  6931  6943       L1     1  0.45
      P1  H  6934  6947       L1    24  0.23
      P1  H  8011  8017       L1    21  0.16

> <Gold.Chemscore.Hbond.Weighted>
-5.2204

> <Gold.Chemscore.Metal.Weighted>
-0.0000

> <Gold.Chemscore.Lipo.Weighted>
-12.5974

> <Gold.Chemscore.Internal_Hbond.Weighted>
0.0000

> <Gold.Chemscore.DEClash.Weighted>
1.3362

> <Gold.Chemscore.DEInternal.Weighted>
2.2541

> <Gold.Chemscore.Rot.Weighted>
8.5000

> <Gold.Chemscore.Internal.Correction.Weighted>
   9.000000E+99

> <Gold.Protein.RotatedTorsions>
[ 6907 6896 6895 6894 ] final   48.88 input  -60.11 | X-H torsion
[ 7974 7965 7964 7962 ] final   30.95 input  175.53 | X-H torsion
[ 8008 7997 7996 7995 ] final  154.26 input   59.86 | X-H torsion
[ 10167 10162 10161 10158 ] final  -52.50 input  -65.29 | X-H torsion
[ 10718 10713 10712 10709 ] final  -58.94 input   66.30 | X-H torsion
[ 10763 10752 10751 10750 ] final  120.71 input  -60.55 | X-H torsion
[ 11005 11000 10999 10996 ] final  -65.39 input  -57.11 | X-H torsion

> <Gold.Protein.ActiveResidues>
 VAL166  LYS551  ARG553  GLY616  TRP617  ASP618  TYR619  PRO620  LYS621  CYS622 
 ASP623  PHE694  ASN695  SER759  ASP760  ASP761  ALA762  ILE779  LEU786  VAL792 
 PHE793  MET794  SER795  GLU796  ALA797  LYS798  CYS799  TRP800  GLU811  SER814 

> <Gold.Protein.RotatedAtoms>
  152.2844  134.7792  160.0389 H   0  0  0  0  0  0  0  0  0  0  0  0  # atno 6907 bound_to 6896
  151.8360  133.3411  159.3636 H   0  0  0  0  0  0  0  0  0  0  0  0  # atno 6908 bound_to 6896
  150.7203  134.5366  159.5771 H   0  0  0  0  0  0  0  0  0  0  0  0  # atno 6909 bound_to 6896
  146.1580  139.6720  142.9053 H   0  0  0  0  0  0  0  0  0  0  0  0  # atno 7974 bound_to 7965
  156.2540  140.1971  156.6619 H   0  0  0  0  0  0  0  0  0  0  0  0  # atno 8008 bound_to 7997
  154.6458  140.0578  156.9924 H   0  0  0  0  0  0  0  0  0  0  0  0  # atno 8009 bound_to 7997
  155.1493  140.3250  155.4437 H   0  0  0  0  0  0  0  0  0  0  0  0  # atno 8010 bound_to 7997
  140.6534  143.2581  151.4658 H   0  0  0  0  0  0  0  0  0  0  0  0  # atno 10167 bound_to 10162
  156.1098  130.4176  150.0647 H   0  0  0  0  0  0  0  0  0  0  0  0  # atno 10718 bound_to 10713
  153.6028  135.3445  155.2951 H   0  0  0  0  0  0  0  0  0  0  0  0  # atno 10763 bound_to 10752
  154.8633  135.4231  154.2394 H   0  0  0  0  0  0  0  0  0  0  0  0  # atno 10764 bound_to 10752
  153.3226  135.7039  153.7088 H   0  0  0  0  0  0  0  0  0  0  0  0  # atno 10765 bound_to 10752
  141.1453  133.6681  156.5978 H   0  0  0  0  0  0  0  0  0  0  0  0  # atno 11005 bound_to 11000
  145.4660  141.0434  143.2725 LP  0  0  0  0  0  0  0  0  0  0  0  0  # atno 17320 bound_to 7965
  144.7989  139.6180  143.7080 LP  0  0  0  0  0  0  0  0  0  0  0  0  # atno 17321 bound_to 7965
  139.5752  144.1835  152.1893 LP  0  0  0  0  0  0  0  0  0  0  0  0  # atno 17342 bound_to 10162
  140.1144  144.5429  150.6904 LP  0  0  0  0  0  0  0  0  0  0  0  0  # atno 17343 bound_to 10162
  156.8613  130.9492  151.3617 LP  0  0  0  0  0  0  0  0  0  0  0  0  # atno 17370 bound_to 10713
  157.6278  130.8705  149.9220 LP  0  0  0  0  0  0  0  0  0  0  0  0  # atno 17371 bound_to 10713
  140.3712  134.7604  157.4600 LP  0  0  0  0  0  0  0  0  0  0  0  0  # atno 17394 bound_to 11000
  140.0709  134.5864  155.8643 LP  0  0  0  0  0  0  0  0  0  0  0  0  # atno 17395 bound_to 11000

$$$$
