AV-unprocessed.smi:249|AV-procd|sdf|1920|dock6
  -GOLD-   2262021 23D 1   1.00000     0.00000
 Structure written by MMmdl.
 64 67  0  0  0  0  0  0  0  0  2 V2000
  144.0420  132.0517  150.2442 C   0  0  0  0  0  0  0  0  0  0  0  0
  143.4897  132.7536  151.4944 C   0  0  0  0  0  0  0  0  0  0  0  0
  143.3765  134.2334  151.3330 N   0  3  2  0  0  0  0  0  0  0  0  0
  144.6247  134.8894  150.8498 C   0  0  0  0  0  0  0  0  0  0  0  0
  145.7052  134.9536  151.9468 C   0  0  0  0  0  0  0  0  0  0  0  0
  145.1669  135.6607  153.2063 C   0  0  2  0  0  0  0  0  0  0  0  0
  146.1678  135.7414  154.2760 N   0  0  0  0  0  0  0  0  0  0  0  0
  147.1944  134.7066  154.3957 C   0  0  0  0  0  0  0  0  0  0  0  0
  146.5283  136.9993  154.6392 C   0  0  0  0  0  0  0  0  0  0  0  0
  145.8965  138.0674  154.0830 N   0  0  0  0  0  0  0  0  0  0  0  0
  146.2275  139.3105  154.4442 C   0  0  0  0  0  0  0  0  0  0  0  0
  147.1481  139.7058  155.3253 N   0  0  0  0  0  0  0  0  0  0  0  0
  147.7940  138.6399  155.8779 C   0  0  0  0  0  0  0  0  0  0  0  0
  147.5463  137.2664  155.5978 C   0  0  0  0  0  0  0  0  0  0  0  0
  148.3987  136.4684  156.3525 N   0  0  0  0  0  0  0  0  0  0  0  0
  149.1048  137.3210  157.0440 C   0  0  0  0  0  0  0  0  0  0  0  0
  148.8207  138.6469  156.8061 N   0  0  0  0  0  0  0  0  0  0  0  0
  149.4495  139.7951  157.4351 C   0  0  0  0  0  0  0  0  0  0  0  0
  150.6682  140.3695  156.6651 C   0  0  1  0  0  0  0  0  0  0  0  0
  150.1900  140.9473  155.3128 C   0  0  0  0  0  0  0  0  0  0  0  0
  150.3433  140.0137  154.2625 O   0  0  0  0  0  0  0  0  0  0  0  0
  151.5244  141.3841  157.4786 C   0  0  2  0  0  0  0  0  0  0  0  0
  152.1200  140.8256  158.7618 C   0  0  0  0  0  0  0  0  0  0  0  0
  152.4722  142.0903  159.5308 C   0  0  0  0  0  0  0  0  0  0  0  0
  151.4045  142.9819  159.2506 O   0  0  0  0  0  0  0  0  0  0  0  0
  150.7716  142.6062  158.0307 C   0  0  0  0  0  0  0  0  0  0  0  0
  143.8519  135.0053  153.6718 C   0  0  0  0  0  0  0  0  0  0  0  0
  142.8286  134.9633  152.5179 C   0  0  2  0  0  0  0  0  0  0  0  0
  141.4467  134.4576  152.9701 C   0  0  0  0  0  0  0  0  0  0  0  0
  143.9661  130.9694  150.3511 H   0  0  0  0  0  0  0  0  0  0  0  0
  145.0937  132.2791  150.0730 H   0  0  0  0  0  0  0  0  0  0  0  0
  143.4818  132.3337  149.3522 H   0  0  0  0  0  0  0  0  0  0  0  0
  142.5059  132.3255  151.6748 H   0  0  0  0  0  0  0  0  0  0  0  0
  144.0942  132.4998  152.3649 H   0  0  0  0  0  0  0  0  0  0  0  0
  145.0142  134.3984  149.9597 H   0  0  0  0  0  0  0  0  0  0  0  0
  144.3768  135.9036  150.5332 H   0  0  0  0  0  0  0  0  0  0  0  0
  146.0496  133.9479  152.1867 H   0  0  0  0  0  0  0  0  0  0  0  0
  146.5757  135.4886  151.5654 H   0  0  0  0  0  0  0  0  0  0  0  0
  144.9070  136.6737  152.9004 H   0  0  0  0  0  0  0  0  0  0  0  0
  147.7403  134.8117  155.3343 H   0  0  0  0  0  0  0  0  0  0  0  0
  147.9111  134.7687  153.5765 H   0  0  0  0  0  0  0  0  0  0  0  0
  146.7556  133.7101  154.3907 H   0  0  0  0  0  0  0  0  0  0  0  0
  145.6758  140.1014  153.9577 H   0  0  0  0  0  0  0  0  0  0  0  0
  149.8676  137.0042  157.7404 H   0  0  0  0  0  0  0  0  0  0  0  0
  148.6815  140.5621  157.5419 H   0  0  0  0  0  0  0  0  0  0  0  0
  149.7437  139.5156  158.4475 H   0  0  0  0  0  0  0  0  0  0  0  0
  151.3195  139.5329  156.4108 H   0  0  0  0  0  0  0  0  0  0  0  0
  149.1453  141.2536  155.3624 H   0  0  0  0  0  0  0  0  0  0  0  0
  150.7554  141.8458  155.0637 H   0  0  0  0  0  0  0  0  0  0  0  0
  149.5633  139.4815  154.2177 H   0  0  0  0  0  0  0  0  0  0  0  0
  152.3467  141.7402  156.8558 H   0  0  0  0  0  0  0  0  0  0  0  0
  151.3742  140.2505  159.3127 H   0  0  0  0  0  0  0  0  0  0  0  0
  152.9888  140.1889  158.5922 H   0  0  0  0  0  0  0  0  0  0  0  0
  152.5816  141.9184  160.6019 H   0  0  0  0  0  0  0  0  0  0  0  0
  153.4016  142.5209  159.1557 H   0  0  0  0  0  0  0  0  0  0  0  0
  150.7835  143.4427  157.3331 H   0  0  0  0  0  0  0  0  0  0  0  0
  149.7319  142.3652  158.2540 H   0  0  0  0  0  0  0  0  0  0  0  0
  144.0254  133.9956  154.0427 H   0  0  0  0  0  0  0  0  0  0  0  0
  143.4416  135.5738  154.5076 H   0  0  0  0  0  0  0  0  0  0  0  0
  142.6697  135.9913  152.1879 H   0  0  0  0  0  0  0  0  0  0  0  0
  141.0013  135.1516  153.6835 H   0  0  0  0  0  0  0  0  0  0  0  0
  141.5023  133.4889  153.4664 H   0  0  0  0  0  0  0  0  0  0  0  0
  140.7605  134.3716  152.1271 H   0  0  0  0  0  0  0  0  0  0  0  0
  142.6950  134.3639  150.5989 H   0  0  0  0  0  0  0  0  0  0  0  0
  1  2  1  0  0  0  0
  1 30  1  0  0  0  0
  1 31  1  0  0  0  0
  1 32  1  0  0  0  0
  2  3  1  0  0  0  0
  2 33  1  0  0  0  0
  2 34  1  0  0  0  0
  3 28  1  0  0  0  0
  3  4  1  0  0  0  0
  3 64  1  0  0  0  0
  4  5  1  0  0  0  0
  4 35  1  0  0  0  0
  4 36  1  0  0  0  0
  5  6  1  0  0  0  0
  5 37  1  0  0  0  0
  5 38  1  0  0  0  0
  6  7  1  0  0  0  0
  6 27  1  0  0  0  0
  6 39  1  0  0  0  0
  7  8  1  0  0  0  0
  7  9  1  0  0  0  0
  8 40  1  0  0  0  0
  8 41  1  0  0  0  0
  8 42  1  0  0  0  0
  9 14  1  0  0  0  0
  9 10  2  0  0  0  0
 10 11  1  0  0  0  0
 11 12  2  0  0  0  0
 11 43  1  0  0  0  0
 12 13  1  0  0  0  0
 13 17  1  0  0  0  0
 13 14  2  0  0  0  0
 14 15  1  0  0  0  0
 15 16  2  0  0  0  0
 16 17  1  0  0  0  0
 16 44  1  0  0  0  0
 17 18  1  0  0  0  0
 18 19  1  0  0  0  0
 18 45  1  0  0  0  0
 18 46  1  0  0  0  0
 19 20  1  0  0  0  0
 19 22  1  0  0  0  0
 19 47  1  0  0  0  0
 20 21  1  0  0  0  0
 20 48  1  0  0  0  0
 20 49  1  0  0  0  0
 21 50  1  0  0  0  0
 22 26  1  0  0  0  0
 22 23  1  0  0  0  0
 22 51  1  0  0  0  0
 23 24  1  0  0  0  0
 23 52  1  0  0  0  0
 23 53  1  0  0  0  0
 24 25  1  0  0  0  0
 24 54  1  0  0  0  0
 24 55  1  0  0  0  0
 25 26  1  0  0  0  0
 26 56  1  0  0  0  0
 26 57  1  0  0  0  0
 27 28  1  0  0  0  0
 27 58  1  0  0  0  0
 27 59  1  0  0  0  0
 28 29  1  0  0  0  0
 28 60  1  0  0  0  0
 29 61  1  0  0  0  0
 29 62  1  0  0  0  0
 29 63  1  0  0  0  0
M  CHG  1   3   1
M  END
> <s_m_source_file>
AV-unprocessed.smi

> <i_m_source_file_index>
249

> <i_lp_mmshare_version>
43012

> <i_f3d_flags>
0

> <s_epik_input>
W0NIM11bQ0gyXU4xW0NIMl1bQ0gyXVtDQEhdKFtDSDJdW0NASF0xW0NIM10pTihbQ0gzXSljKG5bY0hdbjIpYyhjMjMpbltjSF1uM1tDSDJdW0NASF0oW0NIMl1bT0hdKVtDQEBIXTRbQ0gyXVtDSDJdT1tDSDJdNA==

> <s_epik_cmdline>
J2VwaWtfcHl0aG9uJywgJy1waCcsICc3LjAnLCAnLXRuJywgJzgnLCAnLW1hJywgJzIwMCcsICctbWV0YWxfYmluZGluZycsICctaW1hZScsICc8aW5maWxlLm1hZT4nLCAnLW9tYWUnLCAnPG91dGZpbGUubWFlPic=

> <r_lp_tautomer_probability>
1

> <r_epik_Ionization_Penalty>
0.00294688

> <r_epik_Ionization_Penalty_Charging>
0.00169971

> <r_epik_Ionization_Penalty_Neutral>
0.00124717

> <r_epik_State_Penalty>
-0

> <r_epik_Charging_Adjusted_Penalty>
0.00169971

> <i_epik_Tot_Q>
1

> <i_epik_Tot_abs_Q>
1

> <r_epik_Metal_State_Penalty>
-0

> <b_epik_Metal_Only>
0

> <s_lp_Force_Field>
OPLS_2005

> <r_lp_Energy>
55.0731

> <b_lp_Chiralities_Consistent>
1

> <s_lp_Variant>
AV-unprocessed.smi:249-23

> <Gold.Version>
5.8.1

> <Gold.Id.Protein>
6NUR|6NUR_protein|mol2

> <Gold.PLP.Fitness>
48.3554

> <Gold.PLP.PLP>
-38.2073

> <Gold.PLP.part.hbond>
-2.8293

> <Gold.PLP.part.metal>
0.0000

> <Gold.PLP.part.buried>
-4.8244

> <Gold.PLP.part.nonpolar>
-30.3971

> <Gold.PLP.part.repulsive>
0.1936

> <Gold.PLP.ligand.clash>
0.0000

> <Gold.PLP.ligand.torsion>
1.5488

> <Gold.PLP.Chemscore.Hbond>
2.9920

> <Gold.PLP.Chemscore.CHOScore>
1.0000

> <Gold.PLP.Chemscore.Metal>
0.0000

> <Gold.Chemscore.Hbonds>
donor molecule, donor type, donor heavy atom, donor atom, acceptor molecule, acceptor atom, score
      L1  H     3    64       P1 10186  2.00
      P1  H  7989  7998       L1    21  0.75
      L1  C    11    43       P1 10175  1.00

> <Gold.PLP.Chemscore.Internal.Correction>
1.2698

> <Gold.Rescore>
     Score         DG    S(hbond)    S(metal)    S(lipo)     H(rot)  DE(clash)    DE(int)     intcor
     11.65     -14.58       1.50        0.00      92.88       2.65       0.09       2.84       ----

> <Gold.Chemscore.Fitness>
11.6488

> <Gold.Chemscore.DG>
-14.5766

> <Gold.Chemscore.ZeroCoef>
-5.4800

> <Gold.Chemscore.Hbond>
1.5021

> <Gold.Chemscore.Metal>
0.0000

> <Gold.Chemscore.Lipo>
92.8847

> <Gold.Chemscore.Internal_Hbond>
0.0000

> <Gold.Chemscore.DEClash>
0.0853

> <Gold.Chemscore.DEInternal>
2.8425

> <Gold.Chemscore.Rot>
2.6515

> <Gold.Chemscore.Internal.Correction>
   9.000000E+99

> <Gold.Chemscore.Hbonds>
donor molecule, donor type, donor heavy atom, donor atom, acceptor molecule, acceptor atom, score
      L1  H     3    64       P1 10186  0.49
      P1  H  7989  7998       L1    21  0.09

> <Gold.Chemscore.Hbond.Weighted>
-5.0171

> <Gold.Chemscore.Metal.Weighted>
-0.0000

> <Gold.Chemscore.Lipo.Weighted>
-10.8675

> <Gold.Chemscore.Internal_Hbond.Weighted>
0.0000

> <Gold.Chemscore.DEClash.Weighted>
0.0853

> <Gold.Chemscore.DEInternal.Weighted>
2.8425

> <Gold.Chemscore.Rot.Weighted>
6.7880

> <Gold.Chemscore.Internal.Correction.Weighted>
   9.000000E+99

> <Gold.Protein.RotatedTorsions>
[ 6907 6896 6895 6894 ] final  -26.29 input  -60.11 | X-H torsion
[ 7974 7965 7964 7962 ] final -153.94 input  175.53 | X-H torsion
[ 8008 7997 7996 7995 ] final  -62.93 input   59.86 | X-H torsion
[ 10167 10162 10161 10158 ] final    8.77 input  -65.29 | X-H torsion
[ 10718 10713 10712 10709 ] final  -43.20 input   66.30 | X-H torsion
[ 10763 10752 10751 10750 ] final  -41.64 input  -60.55 | X-H torsion
[ 11005 11000 10999 10996 ] final   -6.69 input  -57.11 | X-H torsion

> <Gold.Protein.ActiveResidues>
 VAL166  LYS551  ARG553  GLY616  TRP617  ASP618  TYR619  PRO620  LYS621  CYS622 
 ASP623  PHE694  ASN695  SER759  ASP760  ASP761  ALA762  ILE779  LEU786  VAL792 
 PHE793  MET794  SER795  GLU796  ALA797  LYS798  CYS799  TRP800  GLU811  SER814 

> <Gold.Protein.RotatedAtoms>
  151.1630  135.0282  159.8718 H   0  0  0  0  0  0  0  0  0  0  0  0  # atno 6907 bound_to 6896
  152.5451  134.1257  159.8428 H   0  0  0  0  0  0  0  0  0  0  0  0  # atno 6908 bound_to 6896
  151.1354  133.4961  159.2630 H   0  0  0  0  0  0  0  0  0  0  0  0  # atno 6909 bound_to 6896
  144.7715  140.4457  143.5904 H   0  0  0  0  0  0  0  0  0  0  0  0  # atno 7974 bound_to 7965
  154.4526  140.0985  156.6663 H   0  0  0  0  0  0  0  0  0  0  0  0  # atno 8008 bound_to 7997
  155.5237  140.3479  155.4393 H   0  0  0  0  0  0  0  0  0  0  0  0  # atno 8009 bound_to 7997
  156.0712  140.1350  156.9815 H   0  0  0  0  0  0  0  0  0  0  0  0  # atno 8010 bound_to 7997
  140.6294  143.8027  150.7276 H   0  0  0  0  0  0  0  0  0  0  0  0  # atno 10167 bound_to 10162
  156.2515  130.4188  149.8644 H   0  0  0  0  0  0  0  0  0  0  0  0  # atno 10718 bound_to 10713
  153.9659  135.6734  153.4746 H   0  0  0  0  0  0  0  0  0  0  0  0  # atno 10763 bound_to 10752
  153.0816  135.4920  154.8511 H   0  0  0  0  0  0  0  0  0  0  0  0  # atno 10764 bound_to 10752
  154.7247  135.3124  154.8951 H   0  0  0  0  0  0  0  0  0  0  0  0  # atno 10765 bound_to 10752
  140.7047  133.8959  155.8708 H   0  0  0  0  0  0  0  0  0  0  0  0  # atno 11005 bound_to 11000
  145.6311  139.1536  143.2969 LP  0  0  0  0  0  0  0  0  0  0  0  0  # atno 17320 bound_to 7965
  146.1864  140.6414  142.9165 LP  0  0  0  0  0  0  0  0  0  0  0  0  # atno 17321 bound_to 7965
  140.1635  143.4255  152.2050 LP  0  0  0  0  0  0  0  0  0  0  0  0  # atno 17342 bound_to 10162
  139.5510  144.7337  151.4435 LP  0  0  0  0  0  0  0  0  0  0  0  0  # atno 17343 bound_to 10162
  156.6191  130.8619  151.3471 LP  0  0  0  0  0  0  0  0  0  0  0  0  # atno 17370 bound_to 10713
  157.7216  130.9566  150.1462 LP  0  0  0  0  0  0  0  0  0  0  0  0  # atno 17371 bound_to 10713
  141.0134  134.0989  157.4197 LP  0  0  0  0  0  0  0  0  0  0  0  0  # atno 17394 bound_to 11000
  139.8887  135.0100  156.6637 LP  0  0  0  0  0  0  0  0  0  0  0  0  # atno 17395 bound_to 11000

$$$$
