AV-unprocessed.smi:2549|AV-procd|sdf|10010|dock10
  -GOLD-   2272014 53D 1   1.00000     0.00000
 Structure written by MMmdl.
 17 18  0  0  0  0  0  0  0  0  1 V2000
  153.9575  140.5940  159.8396 C   0  0  0  0  0  0  0  0  0  0  0  0
  153.5783  141.8473  160.2278 C   0  0  0  0  0  0  0  0  0  0  0  0
  152.7501  142.2603  159.2053 N   0  0  0  0  0  0  0  0  0  0  0  0
  152.0061  143.4824  159.1205 C   0  0  0  0  0  0  0  0  0  0  0  0
  150.5043  143.4781  158.8228 C   0  0  0  0  0  0  0  0  0  0  0  0
  150.7313  144.7004  158.0706 N   0  0  0  0  0  0  0  0  0  0  0  0
  152.1384  144.3853  157.8930 C   0  0  0  0  0  0  0  0  0  0  0  0
  152.5929  141.2939  158.2701 N   0  0  0  0  0  0  0  0  0  0  0  0
  153.3328  140.2922  158.6305 N   0  0  0  0  0  0  0  0  0  0  0  0
  154.6120  139.8875  160.3288 H   0  0  0  0  0  0  0  0  0  0  0  0
  153.8125  142.4491  161.0937 H   0  0  0  0  0  0  0  0  0  0  0  0
  152.2211  144.0344  160.0381 H   0  0  0  0  0  0  0  0  0  0  0  0
  150.1711  142.6591  158.1835 H   0  0  0  0  0  0  0  0  0  0  0  0
  149.8724  143.6078  159.7018 H   0  0  0  0  0  0  0  0  0  0  0  0
  150.2257  144.7137  157.1961 H   0  0  0  0  0  0  0  0  0  0  0  0
  152.8055  145.2364  158.0319 H   0  0  0  0  0  0  0  0  0  0  0  0
  152.3258  143.8532  156.9590 H   0  0  0  0  0  0  0  0  0  0  0  0
  1  9  1  0  0  0  0
  1  2  2  0  0  0  0
  1 10  1  0  0  0  0
  2  3  1  0  0  0  0
  2 11  1  0  0  0  0
  3  4  1  0  0  0  0
  3  8  1  0  0  0  0
  4  7  1  0  0  0  0
  4  5  1  0  0  0  0
  4 12  1  0  0  0  0
  5  6  1  0  0  0  0
  5 13  1  0  0  0  0
  5 14  1  0  0  0  0
  6  7  1  0  0  0  0
  6 15  1  0  0  0  0
  7 16  1  0  0  0  0
  7 17  1  0  0  0  0
  8  9  2  0  0  0  0
M  END
> <s_m_source_file>
AV-unprocessed.smi

> <i_m_source_file_index>
2549

> <i_lp_mmshare_version>
43012

> <i_f3d_flags>
0

> <s_epik_input>
bjFuW2NIXVtjSF1uMVtDSF0yW0NIMl1bTkhdW0NIMl0y

> <s_epik_cmdline>
J2VwaWtfcHl0aG9uJywgJy1waCcsICc3LjAnLCAnLXRuJywgJzgnLCAnLW1hJywgJzIwMCcsICctbWV0YWxfYmluZGluZycsICctaW1hZScsICc8aW5maWxlLm1hZT4nLCAnLW9tYWUnLCAnPG91dGZpbGUubWFlPic=

> <r_lp_tautomer_probability>
1

> <r_epik_Ionization_Penalty>
0.704768

> <r_epik_Ionization_Penalty_Charging>
0

> <r_epik_Ionization_Penalty_Neutral>
0.704768

> <r_epik_State_Penalty>
0.727806

> <r_epik_Charging_Adjusted_Penalty>
0.727806

> <i_epik_Tot_Q>
0

> <i_epik_Tot_abs_Q>
0

> <r_epik_Metal_State_Penalty>
0.727802

> <b_epik_Metal_Only>
0

> <s_lp_Force_Field>
OPLS_2005

> <r_lp_Energy>
13.9584

> <b_lp_Chiralities_Consistent>
1

> <s_lp_Variant>
AV-unprocessed.smi:2549-2

> <Gold.Version>
5.8.1

> <Gold.Id.Protein>
6NUR|6NUR_protein|mol2

> <Gold.PLP.Fitness>
28.2336

> <Gold.PLP.PLP>
-22.6030

> <Gold.PLP.part.hbond>
-2.5411

> <Gold.PLP.part.metal>
0.0000

> <Gold.PLP.part.buried>
0.2642

> <Gold.PLP.part.nonpolar>
-18.9525

> <Gold.PLP.part.repulsive>
0.0000

> <Gold.PLP.ligand.clash>
0.0000

> <Gold.PLP.ligand.torsion>
0.1390

> <Gold.PLP.Chemscore.Hbond>
1.8882

> <Gold.PLP.Chemscore.CHOScore>
0.0000

> <Gold.PLP.Chemscore.Metal>
0.0000

> <Gold.Chemscore.Hbonds>
donor molecule, donor type, donor heavy atom, donor atom, acceptor molecule, acceptor atom, score
      L1  H     6    15       P1  8028  1.00
      P1  H  7997  8010       L1     9  0.87

> <Gold.PLP.Chemscore.Internal.Correction>
0.2443

> <Gold.Rescore>
     Score         DG    S(hbond)    S(metal)    S(lipo)     H(rot)  DE(clash)    DE(int)     intcor
     12.82     -13.15       1.29        0.00      50.61       1.00       0.19       0.14       ----

> <Gold.Chemscore.Fitness>
12.8232

> <Gold.Chemscore.DG>
-13.1519

> <Gold.Chemscore.ZeroCoef>
-5.4800

> <Gold.Chemscore.Hbond>
1.2907

> <Gold.Chemscore.Metal>
0.0000

> <Gold.Chemscore.Lipo>
50.6055

> <Gold.Chemscore.Internal_Hbond>
0.0000

> <Gold.Chemscore.DEClash>
0.1933

> <Gold.Chemscore.DEInternal>
0.1354

> <Gold.Chemscore.Rot>
1.0000

> <Gold.Chemscore.Internal.Correction>
   9.000000E+99

> <Gold.Chemscore.Hbonds>
donor molecule, donor type, donor heavy atom, donor atom, acceptor molecule, acceptor atom, score
      L1  H     6    15       P1  8028  0.33
      P1  H  7997  8010       L1     9  0.33

> <Gold.Chemscore.Hbond.Weighted>
-4.3111

> <Gold.Chemscore.Metal.Weighted>
-0.0000

> <Gold.Chemscore.Lipo.Weighted>
-5.9208

> <Gold.Chemscore.Internal_Hbond.Weighted>
0.0000

> <Gold.Chemscore.DEClash.Weighted>
0.1933

> <Gold.Chemscore.DEInternal.Weighted>
0.1354

> <Gold.Chemscore.Rot.Weighted>
2.5600

> <Gold.Chemscore.Internal.Correction.Weighted>
   9.000000E+99

> <Gold.Protein.RotatedTorsions>
[ 6907 6896 6895 6894 ] final  150.11 input  -60.11 | X-H torsion
[ 7974 7965 7964 7962 ] final -128.79 input  175.53 | X-H torsion
[ 8008 7997 7996 7995 ] final   28.31 input   59.86 | X-H torsion
[ 10167 10162 10161 10158 ] final   65.08 input  -65.29 | X-H torsion
[ 10718 10713 10712 10709 ] final  179.92 input   66.30 | X-H torsion
[ 10763 10752 10751 10750 ] final  117.44 input  -60.55 | X-H torsion
[ 11005 11000 10999 10996 ] final  -41.74 input  -57.11 | X-H torsion

> <Gold.Protein.ActiveResidues>
 VAL166  LYS551  ARG553  GLY616  TRP617  ASP618  TYR619  PRO620  LYS621  CYS622 
 ASP623  PHE694  ASN695  SER759  ASP760  ASP761  ALA762  ILE779  LEU786  VAL792 
 PHE793  MET794  SER795  GLU796  ALA797  LYS798  CYS799  TRP800  GLU811  SER814 

> <Gold.Protein.RotatedAtoms>
  152.1188  133.4342  159.4665 H   0  0  0  0  0  0  0  0  0  0  0  0  # atno 6907 bound_to 6896
  150.6871  134.2560  159.4539 H   0  0  0  0  0  0  0  0  0  0  0  0  # atno 6908 bound_to 6896
  152.0434  134.9697  160.0625 H   0  0  0  0  0  0  0  0  0  0  0  0  # atno 6909 bound_to 6896
  144.9636  140.7472  143.4714 H   0  0  0  0  0  0  0  0  0  0  0  0  # atno 7974 bound_to 7965
  155.0567  140.3185  155.4674 H   0  0  0  0  0  0  0  0  0  0  0  0  # atno 8008 bound_to 7997
  156.2822  140.2136  156.5637 H   0  0  0  0  0  0  0  0  0  0  0  0  # atno 8009 bound_to 7997
  154.7166  140.0493  157.0588 H   0  0  0  0  0  0  0  0  0  0  0  0  # atno 8010 bound_to 7997
  140.1152  144.4781  150.6953 H   0  0  0  0  0  0  0  0  0  0  0  0  # atno 10167 bound_to 10162
  156.8686  130.9776  151.3076 H   0  0  0  0  0  0  0  0  0  0  0  0  # atno 10718 bound_to 10713
  153.5524  135.3537  155.2765 H   0  0  0  0  0  0  0  0  0  0  0  0  # atno 10763 bound_to 10752
  154.8705  135.4117  154.2922 H   0  0  0  0  0  0  0  0  0  0  0  0  # atno 10764 bound_to 10752
  153.3651  135.7061  153.6750 H   0  0  0  0  0  0  0  0  0  0  0  0  # atno 10765 bound_to 10752
  141.0267  133.6838  156.2498 H   0  0  0  0  0  0  0  0  0  0  0  0  # atno 11005 bound_to 11000
  145.2663  139.1972  143.4865 LP  0  0  0  0  0  0  0  0  0  0  0  0  # atno 17320 bound_to 7965
  146.3361  140.2602  142.8601 LP  0  0  0  0  0  0  0  0  0  0  0  0  # atno 17321 bound_to 7965
  140.6903  143.2372  151.5149 LP  0  0  0  0  0  0  0  0  0  0  0  0  # atno 17342 bound_to 10162
  139.5598  144.2186  152.1672 LP  0  0  0  0  0  0  0  0  0  0  0  0  # atno 17343 bound_to 10162
  157.6209  130.8654  149.9106 LP  0  0  0  0  0  0  0  0  0  0  0  0  # atno 17370 bound_to 10713
  156.0738  130.3681  150.0720 LP  0  0  0  0  0  0  0  0  0  0  0  0  # atno 17371 bound_to 10713
  140.6479  134.5098  157.5575 LP  0  0  0  0  0  0  0  0  0  0  0  0  # atno 17394 bound_to 11000
  139.9180  134.8206  156.1301 LP  0  0  0  0  0  0  0  0  0  0  0  0  # atno 17395 bound_to 11000

$$$$
