AV-unprocessed.smi:3306|AV-procd|sdf|12702|dock8
  -GOLD-   2272019 33D 1   1.00000     0.00000
 Structure written by MMmdl.
 45 46  0  0  0  0  0  0  0  0  3 V2000
  146.5506  139.1149  150.9778 C   0  0  0  0  0  0  0  0  0  0  0  0
  146.5260  138.6642  152.4514 C   0  0  0  0  0  0  0  0  0  0  0  0
  145.4535  137.5900  152.6973 C   0  0  0  0  0  0  0  0  0  0  0  0
  146.3933  139.7931  153.4187 N   0  3  2  0  0  0  0  0  0  0  0  0
  147.1175  141.0384  153.0456 C   0  0  0  0  0  0  0  0  0  0  0  0
  146.7221  142.2001  153.9743 C   0  0  0  0  0  0  0  0  0  0  0  0
  146.9637  141.8655  155.4615 C   0  0  2  0  0  0  0  0  0  0  0  0
  148.4030  141.8254  155.8173 N   0  3  0  0  0  0  0  0  0  0  0  0
  148.7102  141.2959  157.1628 C   0  0  0  0  0  0  0  0  0  0  0  0
  150.2250  141.1490  157.3614 C   0  0  0  0  0  0  0  0  0  0  0  0
  150.8261  142.3378  158.0873 C   0  0  0  0  0  0  0  0  0  0  0  0
  152.1534  142.2976  158.5649 C   0  0  0  0  0  0  0  0  0  0  0  0
  152.6612  143.4313  159.2289 C   0  0  0  0  0  0  0  0  0  0  0  0
  151.8274  144.5553  159.3871 C   0  0  0  0  0  0  0  0  0  0  0  0
  150.5167  144.4954  158.8729 C   0  0  0  0  0  0  0  0  0  0  0  0
  150.0201  143.4132  158.2343 N   0  0  0  0  0  0  0  0  0  0  0  0
  146.2796  140.5284  155.8023 C   0  0  0  0  0  0  0  0  0  0  0  0
  146.6689  139.4018  154.8262 C   0  0  0  0  0  0  0  0  0  0  0  0
  146.7574  138.2680  150.3225 H   0  0  0  0  0  0  0  0  0  0  0  0
  147.3252  139.8593  150.7941 H   0  0  0  0  0  0  0  0  0  0  0  0
  145.5955  139.5361  150.6634 H   0  0  0  0  0  0  0  0  0  0  0  0
  147.4814  138.1797  152.6577 H   0  0  0  0  0  0  0  0  0  0  0  0
  145.6422  136.7085  152.0837 H   0  0  0  0  0  0  0  0  0  0  0  0
  144.4524  137.9441  152.4522 H   0  0  0  0  0  0  0  0  0  0  0  0
  145.4496  137.2669  153.7388 H   0  0  0  0  0  0  0  0  0  0  0  0
  148.1950  140.8771  153.0985 H   0  0  0  0  0  0  0  0  0  0  0  0
  146.8897  141.3154  152.0168 H   0  0  0  0  0  0  0  0  0  0  0  0
  147.2450  143.1101  153.6822 H   0  0  0  0  0  0  0  0  0  0  0  0
  145.6620  142.4145  153.8309 H   0  0  0  0  0  0  0  0  0  0  0  0
  146.5026  142.6398  156.0766 H   0  0  0  0  0  0  0  0  0  0  0  0
  148.8623  141.2189  155.1522 H   0  0  0  0  0  0  0  0  0  0  0  0
  148.3057  141.9606  157.9261 H   0  0  0  0  0  0  0  0  0  0  0  0
  148.2255  140.3265  157.2872 H   0  0  0  0  0  0  0  0  0  0  0  0
  150.4426  140.2436  157.9304 H   0  0  0  0  0  0  0  0  0  0  0  0
  150.7188  141.0309  156.3958 H   0  0  0  0  0  0  0  0  0  0  0  0
  152.7705  141.4215  158.4298 H   0  0  0  0  0  0  0  0  0  0  0  0
  153.6717  143.4387  159.6103 H   0  0  0  0  0  0  0  0  0  0  0  0
  152.1833  145.4416  159.8911 H   0  0  0  0  0  0  0  0  0  0  0  0
  149.8503  145.3390  158.9757 H   0  0  0  0  0  0  0  0  0  0  0  0
  146.5112  140.2339  156.8269 H   0  0  0  0  0  0  0  0  0  0  0  0
  145.1976  140.6642  155.7671 H   0  0  0  0  0  0  0  0  0  0  0  0
  146.1030  138.5046  155.0794 H   0  0  0  0  0  0  0  0  0  0  0  0
  147.7241  139.1514  154.9428 H   0  0  0  0  0  0  0  0  0  0  0  0
  145.4112  140.0300  153.4001 H   0  0  0  0  0  0  0  0  0  0  0  0
  148.7965  142.7512  155.7282 H   0  0  0  0  0  0  0  0  0  0  0  0
  1  2  1  0  0  0  0
  1 19  1  0  0  0  0
  1 20  1  0  0  0  0
  1 21  1  0  0  0  0
  2  3  1  0  0  0  0
  2  4  1  0  0  0  0
  2 22  1  0  0  0  0
  3 23  1  0  0  0  0
  3 24  1  0  0  0  0
  3 25  1  0  0  0  0
  4 18  1  0  0  0  0
  4  5  1  0  0  0  0
  4 44  1  0  0  0  0
  5  6  1  0  0  0  0
  5 26  1  0  0  0  0
  5 27  1  0  0  0  0
  6  7  1  0  0  0  0
  6 28  1  0  0  0  0
  6 29  1  0  0  0  0
  7  8  1  0  0  0  0
  7 17  1  0  0  0  0
  7 30  1  0  0  0  0
  8  9  1  0  0  0  0
  8 31  1  0  0  0  0
  8 45  1  0  0  0  0
  9 10  1  0  0  0  0
  9 32  1  0  0  0  0
  9 33  1  0  0  0  0
 10 11  1  0  0  0  0
 10 34  1  0  0  0  0
 10 35  1  0  0  0  0
 11 16  1  0  0  0  0
 11 12  2  0  0  0  0
 12 13  1  0  0  0  0
 12 36  1  0  0  0  0
 13 14  2  0  0  0  0
 13 37  1  0  0  0  0
 14 15  1  0  0  0  0
 14 38  1  0  0  0  0
 15 16  2  0  0  0  0
 15 39  1  0  0  0  0
 17 18  1  0  0  0  0
 17 40  1  0  0  0  0
 17 41  1  0  0  0  0
 18 42  1  0  0  0  0
 18 43  1  0  0  0  0
M  CHG  1   4   1
M  CHG  1   8   1
M  END
> <s_m_source_file>
AV-unprocessed.smi

> <i_m_source_file_index>
3306

> <i_lp_mmshare_version>
43012

> <i_f3d_flags>
0

> <s_epik_input>
W0NIM11bQ0hdKFtDSDNdKU4xW0NIMl1bQ0gyXVtDSF0oW0NIMl1bQ0gyXTEpW05IXVtDSDJdW0NIMl1jMltjSF1bY0hdW2NIXVtjSF1uMg==

> <s_epik_cmdline>
J2VwaWtfcHl0aG9uJywgJy1waCcsICc3LjAnLCAnLXRuJywgJzgnLCAnLW1hJywgJzIwMCcsICctbWV0YWxfYmluZGluZycsICctaW1hZScsICc8aW5maWxlLm1hZT4nLCAnLW9tYWUnLCAnPG91dGZpbGUubWFlPic=

> <r_epik_Ionization_Penalty>
0.0800465

> <r_epik_Ionization_Penalty_Charging>
0.0790817

> <r_epik_Ionization_Penalty_Neutral>
0.000964829

> <r_epik_State_Penalty>
0.0665964

> <r_epik_Charging_Adjusted_Penalty>
0.145678

> <i_epik_Tot_Q>
2

> <i_epik_Tot_abs_Q>
2

> <r_epik_Metal_State_Penalty>
0.0683331

> <b_epik_Metal_Only>
0

> <s_lp_Force_Field>
OPLS_2005

> <r_lp_Energy>
31.8931

> <b_lp_Chiralities_Consistent>
1

> <s_lp_Variant>
AV-unprocessed.smi:3306-2

> <Gold.Version>
5.8.1

> <Gold.Id.Protein>
6NUR|6NUR_protein|mol2

> <Gold.PLP.Fitness>
47.3915

> <Gold.PLP.PLP>
-34.1966

> <Gold.PLP.part.hbond>
-2.0000

> <Gold.PLP.part.metal>
0.0000

> <Gold.PLP.part.buried>
-1.7814

> <Gold.PLP.part.nonpolar>
-31.2656

> <Gold.PLP.part.repulsive>
1.9003

> <Gold.PLP.ligand.clash>
0.0000

> <Gold.PLP.ligand.torsion>
0.6693

> <Gold.PLP.Chemscore.Hbond>
3.9175

> <Gold.PLP.Chemscore.CHOScore>
0.8917

> <Gold.PLP.Chemscore.Metal>
0.0000

> <Gold.Chemscore.Hbonds>
donor molecule, donor type, donor heavy atom, donor atom, acceptor molecule, acceptor atom, score
      L1  H     4    44       P1 10175  2.00
      L1  H     8    45       P1  8028  2.00
      L1  C    15    39       P1  8029  0.63

> <Gold.PLP.Chemscore.Internal.Correction>
0.1058

> <Gold.Rescore>
     Score         DG    S(hbond)    S(metal)    S(lipo)     H(rot)  DE(clash)    DE(int)     intcor
     18.45     -20.98       1.95        0.00     108.85       1.47       1.87       0.67       ----

> <Gold.Chemscore.Fitness>
18.4464

> <Gold.Chemscore.DG>
-20.9836

> <Gold.Chemscore.ZeroCoef>
-5.4800

> <Gold.Chemscore.Hbond>
1.9540

> <Gold.Chemscore.Metal>
0.0000

> <Gold.Chemscore.Lipo>
108.8464

> <Gold.Chemscore.Internal_Hbond>
0.0000

> <Gold.Chemscore.DEClash>
1.8657

> <Gold.Chemscore.DEInternal>
0.6714

> <Gold.Chemscore.Rot>
1.4679

> <Gold.Chemscore.Internal.Correction>
   9.000000E+99

> <Gold.Chemscore.Hbonds>
donor molecule, donor type, donor heavy atom, donor atom, acceptor molecule, acceptor atom, score
      L1  H     4    44       P1 10175  0.93
      L1  H     8    45       P1  8028  0.98

> <Gold.Chemscore.Hbond.Weighted>
-6.5264

> <Gold.Chemscore.Metal.Weighted>
-0.0000

> <Gold.Chemscore.Lipo.Weighted>
-12.7350

> <Gold.Chemscore.Internal_Hbond.Weighted>
0.0000

> <Gold.Chemscore.DEClash.Weighted>
1.8657

> <Gold.Chemscore.DEInternal.Weighted>
0.6714

> <Gold.Chemscore.Rot.Weighted>
3.7579

> <Gold.Chemscore.Internal.Correction.Weighted>
   9.000000E+99

> <Gold.Protein.RotatedTorsions>
[ 6907 6896 6895 6894 ] final   61.39 input  -60.11 | X-H torsion
[ 7974 7965 7964 7962 ] final  104.97 input  175.53 | X-H torsion
[ 8008 7997 7996 7995 ] final  -38.12 input   59.86 | X-H torsion
[ 10167 10162 10161 10158 ] final  126.06 input  -65.29 | X-H torsion
[ 10718 10713 10712 10709 ] final   15.97 input   66.30 | X-H torsion
[ 10763 10752 10751 10750 ] final  145.10 input  -60.55 | X-H torsion
[ 11005 11000 10999 10996 ] final -147.94 input  -57.11 | X-H torsion

> <Gold.Protein.ActiveResidues>
 VAL166  LYS551  ARG553  GLY616  TRP617  ASP618  TYR619  PRO620  LYS621  CYS622 
 ASP623  PHE694  ASN695  SER759  ASP760  ASP761  ALA762  ILE779  LEU786  VAL792 
 PHE793  MET794  SER795  GLU796  ALA797  LYS798  CYS799  TRP800  GLU811  SER814 

> <Gold.Protein.RotatedAtoms>
  152.4084  134.6167  160.0039 H   0  0  0  0  0  0  0  0  0  0  0  0  # atno 6907 bound_to 6896
  151.6351  133.3324  159.3125 H   0  0  0  0  0  0  0  0  0  0  0  0  # atno 6908 bound_to 6896
  150.7977  134.7089  159.6637 H   0  0  0  0  0  0  0  0  0  0  0  0  # atno 6909 bound_to 6896
  145.3258  139.2500  143.3687 H   0  0  0  0  0  0  0  0  0  0  0  0  # atno 7974 bound_to 7965
  154.4042  140.1586  156.2648 H   0  0  0  0  0  0  0  0  0  0  0  0  # atno 8008 bound_to 7997
  155.9005  140.3433  155.6000 H   0  0  0  0  0  0  0  0  0  0  0  0  # atno 8009 bound_to 7997
  155.7454  140.0798  157.2217 H   0  0  0  0  0  0  0  0  0  0  0  0  # atno 8010 bound_to 7997
  139.5651  144.6906  151.3932 H   0  0  0  0  0  0  0  0  0  0  0  0  # atno 10167 bound_to 10162
  157.0611  130.6309  149.5786 H   0  0  0  0  0  0  0  0  0  0  0  0  # atno 10718 bound_to 10713
  153.9998  135.2924  155.3404 H   0  0  0  0  0  0  0  0  0  0  0  0  # atno 10763 bound_to 10752
  154.7166  135.5127  153.8750 H   0  0  0  0  0  0  0  0  0  0  0  0  # atno 10764 bound_to 10752
  153.0771  135.6667  154.0241 H   0  0  0  0  0  0  0  0  0  0  0  0  # atno 10765 bound_to 10752
  140.7664  134.3239  157.5087 H   0  0  0  0  0  0  0  0  0  0  0  0  # atno 11005 bound_to 11000
  146.3065  140.3825  142.8685 LP  0  0  0  0  0  0  0  0  0  0  0  0  # atno 17320 bound_to 7965
  144.8903  140.7515  143.5931 LP  0  0  0  0  0  0  0  0  0  0  0  0  # atno 17321 bound_to 7965
  140.6934  143.7806  150.7290 LP  0  0  0  0  0  0  0  0  0  0  0  0  # atno 17342 bound_to 10162
  140.1296  143.4538  152.2263 LP  0  0  0  0  0  0  0  0  0  0  0  0  # atno 17343 bound_to 10162
  155.9978  130.5050  150.7548 LP  0  0  0  0  0  0  0  0  0  0  0  0  # atno 17370 bound_to 10713
  157.4954  131.0914  151.0378 LP  0  0  0  0  0  0  0  0  0  0  0  0  # atno 17371 bound_to 10713
  139.8762  134.9234  156.3324 LP  0  0  0  0  0  0  0  0  0  0  0  0  # atno 17394 bound_to 11000
  140.9615  133.7386  156.0407 LP  0  0  0  0  0  0  0  0  0  0  0  0  # atno 17395 bound_to 11000

$$$$
