AV-unprocessed.smi:2552|AV-procd|sdf|10016|dock3
  -GOLD-   2272014 63D 1   1.00000     0.00000
 Structure written by MMmdl.
 34 36  0  0  0  0  0  0  0  0  1 V2000
  148.1630  136.3241  158.4381 C   0  0  0  0  0  0  0  0  0  0  0  0
  148.7167  136.9297  157.2293 N   0  0  0  0  0  0  0  0  0  0  0  0
  148.7377  136.0898  156.1094 N   0  0  0  0  0  0  0  0  0  0  0  0
  149.1978  136.4990  154.9684 C   0  0  0  0  0  0  0  0  0  0  0  0
  149.6981  137.8673  154.8761 C   0  0  0  0  0  0  0  0  0  0  0  0
  150.2609  138.6700  153.8460 C   0  0  0  0  0  0  0  0  0  0  0  0
  150.5660  139.8929  154.2763 N   0  0  0  0  0  0  0  0  0  0  0  0
  150.2182  139.9197  155.5892 N   0  0  0  0  0  0  0  0  0  0  0  0
  150.4273  141.1272  156.3731 C   0  0  0  0  0  0  0  0  0  0  0  0
  151.1868  140.8616  157.6887 C   0  0  1  0  0  0  0  0  0  0  0  0
  152.3519  140.1005  157.4298 O   0  0  0  0  0  0  0  0  0  0  0  0
  151.4940  142.1637  158.4164 C   0  0  0  0  0  0  0  0  0  0  0  0
  151.1056  143.4028  157.8587 C   0  0  0  0  0  0  0  0  0  0  0  0
  151.3812  144.6066  158.5352 C   0  0  0  0  0  0  0  0  0  0  0  0
  152.0435  144.5806  159.7769 C   0  0  0  0  0  0  0  0  0  0  0  0
  152.4271  143.3497  160.3422 C   0  0  0  0  0  0  0  0  0  0  0  0
  152.1525  142.1440  159.6672 C   0  0  0  0  0  0  0  0  0  0  0  0
  152.5228  140.9688  160.2306 F   0  0  0  0  0  0  0  0  0  0  0  0
  149.6901  138.6968  155.9482 C   0  0  0  0  0  0  0  0  0  0  0  0
  149.1626  138.2220  157.2490 C   0  0  0  0  0  0  0  0  0  0  0  0
  149.1380  138.9471  158.2436 O   0  0  0  0  0  0  0  0  0  0  0  0
  147.2976  136.8882  158.7886 H   0  0  0  0  0  0  0  0  0  0  0  0
  148.9070  136.3086  159.2358 H   0  0  0  0  0  0  0  0  0  0  0  0
  147.8386  135.2960  158.2686 H   0  0  0  0  0  0  0  0  0  0  0  0
  149.2135  135.8434  154.0980 H   0  0  0  0  0  0  0  0  0  0  0  0
  150.4554  138.4122  152.8153 H   0  0  0  0  0  0  0  0  0  0  0  0
  150.9674  141.8546  155.7647 H   0  0  0  0  0  0  0  0  0  0  0  0
  149.4523  141.5688  156.5822 H   0  0  0  0  0  0  0  0  0  0  0  0
  150.5654  140.2435  158.3368 H   0  0  0  0  0  0  0  0  0  0  0  0
  152.0974  139.3032  156.9913 H   0  0  0  0  0  0  0  0  0  0  0  0
  150.5912  143.4355  156.9093 H   0  0  0  0  0  0  0  0  0  0  0  0
  151.0823  145.5498  158.1019 H   0  0  0  0  0  0  0  0  0  0  0  0
  152.2548  145.5035  160.2969 H   0  0  0  0  0  0  0  0  0  0  0  0
  152.9313  143.3291  161.2969 H   0  0  0  0  0  0  0  0  0  0  0  0
  1  2  1  0  0  0  0
  1 22  1  0  0  0  0
  1 23  1  0  0  0  0
  1 24  1  0  0  0  0
  2 20  1  0  0  0  0
  2  3  1  0  0  0  0
  3  4  2  0  0  0  0
  4  5  1  0  0  0  0
  4 25  1  0  0  0  0
  5 19  2  0  0  0  0
  5  6  1  0  0  0  0
  6  7  2  0  0  0  0
  6 26  1  0  0  0  0
  7  8  1  0  0  0  0
  8  9  1  0  0  0  0
  8 19  1  0  0  0  0
  9 10  1  0  0  0  0
  9 27  1  0  0  0  0
  9 28  1  0  0  0  0
 10 11  1  0  0  0  0
 10 12  1  0  0  0  0
 10 29  1  0  0  0  0
 11 30  1  0  0  0  0
 12 17  1  0  0  0  0
 12 13  2  0  0  0  0
 13 14  1  0  0  0  0
 13 31  1  0  0  0  0
 14 15  2  0  0  0  0
 14 32  1  0  0  0  0
 15 16  1  0  0  0  0
 15 33  1  0  0  0  0
 16 17  2  0  0  0  0
 16 34  1  0  0  0  0
 17 18  1  0  0  0  0
 19 20  1  0  0  0  0
 20 21  2  0  0  0  0
M  END
> <s_m_source_file>
AV-unprocessed.smi

> <i_m_source_file_index>
2552

> <i_lp_mmshare_version>
43012

> <i_f3d_flags>
0

> <s_epik_input>
W2NIXTFubihbQ0gzXSljKD1PKWMoYzEyKW4obltjSF0yKVtDSDJdW0NASF0oW09IXSljM1tjSF1bY0hdW2NIXVtjSF1jM0Y=

> <s_epik_cmdline>
J2VwaWtfcHl0aG9uJywgJy1waCcsICc3LjAnLCAnLXRuJywgJzgnLCAnLW1hJywgJzIwMCcsICctbWV0YWxfYmluZGluZycsICctaW1hZScsICc8aW5maWxlLm1hZT4nLCAnLW9tYWUnLCAnPG91dGZpbGUubWFlPic=

> <r_lp_tautomer_probability>
1

> <r_epik_Ionization_Penalty>
6.28011e-06

> <r_epik_Ionization_Penalty_Charging>
1.65421e-10

> <r_epik_Ionization_Penalty_Neutral>
6.27995e-06

> <r_epik_State_Penalty>
-0

> <r_epik_Charging_Adjusted_Penalty>
1.65421e-10

> <i_epik_Tot_Q>
0

> <i_epik_Tot_abs_Q>
0

> <r_epik_Metal_State_Penalty>
-0

> <b_epik_Metal_Only>
0

> <s_lp_Force_Field>
OPLS_2005

> <r_lp_Energy>
28.1215

> <b_lp_Chiralities_Consistent>
1

> <s_lp_Variant>
AV-unprocessed.smi:2552-2

> <Gold.Version>
5.8.1

> <Gold.Id.Protein>
6NUR|6NUR_protein|mol2

> <Gold.PLP.Fitness>
50.9660

> <Gold.PLP.PLP>
-37.1063

> <Gold.PLP.part.hbond>
-2.0000

> <Gold.PLP.part.metal>
0.0000

> <Gold.PLP.part.buried>
-4.4736

> <Gold.PLP.part.nonpolar>
-31.1674

> <Gold.PLP.part.repulsive>
0.1564

> <Gold.PLP.ligand.clash>
0.0000

> <Gold.PLP.ligand.torsion>
0.1161

> <Gold.PLP.Chemscore.Hbond>
2.0000

> <Gold.PLP.Chemscore.CHOScore>
2.6876

> <Gold.PLP.Chemscore.Metal>
0.0000

> <Gold.Chemscore.Hbonds>
donor molecule, donor type, donor heavy atom, donor atom, acceptor molecule, acceptor atom, score
      P1  H  7989  7998       L1     7  1.00
      P1  H  7997  8010       L1    11  0.42
      L1  C     4    25       P1  7948  1.00
      L1  C     6    26       P1  7948  0.22
      L1  C     6    26       P1  7949  0.11
      L1  C     6    26       P1  7957  0.60

> <Gold.PLP.Chemscore.Internal.Correction>
0.0291

> <Gold.Rescore>
     Score         DG    S(hbond)    S(metal)    S(lipo)     H(rot)  DE(clash)    DE(int)     intcor
     16.39     -18.05       1.89        0.00      97.65       2.02       0.19       1.47       ----

> <Gold.Chemscore.Fitness>
16.3927

> <Gold.Chemscore.DG>
-18.0507

> <Gold.Chemscore.ZeroCoef>
-5.4800

> <Gold.Chemscore.Hbond>
1.8898

> <Gold.Chemscore.Metal>
0.0000

> <Gold.Chemscore.Lipo>
97.6513

> <Gold.Chemscore.Internal_Hbond>
0.0000

> <Gold.Chemscore.DEClash>
0.1925

> <Gold.Chemscore.DEInternal>
1.4656

> <Gold.Chemscore.Rot>
2.0181

> <Gold.Chemscore.Internal.Correction>
   9.000000E+99

> <Gold.Chemscore.Hbonds>
donor molecule, donor type, donor heavy atom, donor atom, acceptor molecule, acceptor atom, score
      P1  H  7989  7998       L1     7  0.98
      P1  H  7997  8010       L1    11  0.04

> <Gold.Chemscore.Hbond.Weighted>
-6.3119

> <Gold.Chemscore.Metal.Weighted>
-0.0000

> <Gold.Chemscore.Lipo.Weighted>
-11.4252

> <Gold.Chemscore.Internal_Hbond.Weighted>
0.0000

> <Gold.Chemscore.DEClash.Weighted>
0.1925

> <Gold.Chemscore.DEInternal.Weighted>
1.4656

> <Gold.Chemscore.Rot.Weighted>
5.1663

> <Gold.Chemscore.Internal.Correction.Weighted>
   9.000000E+99

> <Gold.Protein.RotatedTorsions>
[ 6907 6896 6895 6894 ] final   -6.26 input  -60.11 | X-H torsion
[ 7974 7965 7964 7962 ] final   97.91 input  175.53 | X-H torsion
[ 8008 7997 7996 7995 ] final   67.24 input   59.86 | X-H torsion
[ 10167 10162 10161 10158 ] final   38.35 input  -65.29 | X-H torsion
[ 10718 10713 10712 10709 ] final  -45.19 input   66.30 | X-H torsion
[ 10763 10752 10751 10750 ] final  -99.79 input  -60.55 | X-H torsion
[ 11005 11000 10999 10996 ] final  -49.54 input  -57.11 | X-H torsion

> <Gold.Protein.ActiveResidues>
 VAL166  LYS551  ARG553  GLY616  TRP617  ASP618  TYR619  PRO620  LYS621  CYS622 
 ASP623  PHE694  ASN695  SER759  ASP760  ASP761  ALA762  ILE779  LEU786  VAL792 
 PHE793  MET794  SER795  GLU796  ALA797  LYS798  CYS799  TRP800  GLU811  SER814 

> <Gold.Protein.RotatedAtoms>
  151.4684  135.1044  159.9744 H   0  0  0  0  0  0  0  0  0  0  0  0  # atno 6907 bound_to 6896
  152.4826  133.8288  159.7103 H   0  0  0  0  0  0  0  0  0  0  0  0  # atno 6908 bound_to 6896
  150.8910  133.7183  159.2931 H   0  0  0  0  0  0  0  0  0  0  0  0  # atno 6909 bound_to 6896
  145.4192  139.2323  143.3205 H   0  0  0  0  0  0  0  0  0  0  0  0  # atno 7974 bound_to 7965
  155.6898  140.3496  155.4889 H   0  0  0  0  0  0  0  0  0  0  0  0  # atno 8008 bound_to 7997
  155.9534  140.1123  157.0980 H   0  0  0  0  0  0  0  0  0  0  0  0  # atno 8009 bound_to 7997
  154.4127  140.1190  156.5068 H   0  0  0  0  0  0  0  0  0  0  0  0  # atno 8010 bound_to 7997
  140.3945  144.1807  150.6131 H   0  0  0  0  0  0  0  0  0  0  0  0  # atno 10167 bound_to 10162
  156.2309  130.4172  149.8876 H   0  0  0  0  0  0  0  0  0  0  0  0  # atno 10718 bound_to 10713
  154.7526  135.4959  153.9317 H   0  0  0  0  0  0  0  0  0  0  0  0  # atno 10763 bound_to 10752
  153.1161  135.6721  153.9424 H   0  0  0  0  0  0  0  0  0  0  0  0  # atno 10764 bound_to 10752
  153.9170  135.3092  155.3427 H   0  0  0  0  0  0  0  0  0  0  0  0  # atno 10765 bound_to 10752
  141.0765  133.6664  156.3601 H   0  0  0  0  0  0  0  0  0  0  0  0  # atno 11005 bound_to 11000
  146.2665  140.4914  142.8832 LP  0  0  0  0  0  0  0  0  0  0  0  0  # atno 17320 bound_to 7965
  144.8257  140.6624  143.6324 LP  0  0  0  0  0  0  0  0  0  0  0  0  # atno 17321 bound_to 7965
  140.4805  143.2381  151.8962 LP  0  0  0  0  0  0  0  0  0  0  0  0  # atno 17342 bound_to 10162
  139.4787  144.5275  151.8714 LP  0  0  0  0  0  0  0  0  0  0  0  0  # atno 17343 bound_to 10162
  156.6491  130.8736  151.3528 LP  0  0  0  0  0  0  0  0  0  0  0  0  # atno 17370 bound_to 10713
  157.7132  130.9466  150.1163 LP  0  0  0  0  0  0  0  0  0  0  0  0  # atno 17371 bound_to 10713
  140.5562  134.5979  157.5421 LP  0  0  0  0  0  0  0  0  0  0  0  0  # atno 17394 bound_to 11000
  139.9577  134.7506  156.0304 LP  0  0  0  0  0  0  0  0  0  0  0  0  # atno 17395 bound_to 11000

$$$$
