AV-unprocessed.smi:1643|AV-procd|sdf|6577|dock6
  -GOLD-   22720 7263D 1   1.00000     0.00000
 Structure written by MMmdl.
 53 55  0  0  0  0  0  0  0  0  1 V2000
  145.7215  140.5222  157.5648 C   0  0  0  0  0  0  0  0  0  0  0  0
  146.4874  141.4310  156.6004 C   0  0  0  0  0  0  0  0  0  0  0  0
  147.0467  142.4276  157.0589 O   0  0  0  0  0  0  0  0  0  0  0  0
  146.5193  141.1160  155.2831 N   0  0  0  0  0  0  0  0  0  0  0  0
  145.9043  139.8919  154.7583 C   0  0  0  0  0  0  0  0  0  0  0  0
  146.9201  138.7386  154.7697 C   0  0  0  0  0  0  0  0  0  0  0  0
  148.2299  139.0286  154.0066 C   0  0  0  0  0  0  0  0  0  0  0  0
  149.0707  140.0588  154.6333 N   0  0  0  0  0  0  0  0  0  0  0  0
  150.5007  139.8012  154.4481 C   0  0  0  0  0  0  0  0  0  0  0  0
  151.3113  139.7116  155.7566 C   0  0  1  0  0  0  0  0  0  0  0  0
  152.6330  139.3286  155.4352 O   0  0  0  0  0  0  0  0  0  0  0  0
  151.3474  141.0536  156.5145 C   0  0  0  0  0  0  0  0  0  0  0  0
  151.8932  140.9118  157.8507 N   0  0  0  0  0  0  0  0  0  0  0  0
  152.4468  139.8143  158.4009 C   0  0  0  0  0  0  0  0  0  0  0  0
  152.8821  139.9166  159.6540 N   0  0  0  0  0  0  0  0  0  0  0  0
  152.5795  141.2357  159.9484 C   0  0  0  0  0  0  0  0  0  0  0  0
  152.7849  141.9852  161.1275 C   0  0  0  0  0  0  0  0  0  0  0  0
  152.3896  143.3402  161.2033 C   0  0  0  0  0  0  0  0  0  0  0  0
  152.6297  144.1089  162.4906 C   0  0  0  0  0  0  0  0  0  0  0  0
  151.7766  143.9656  160.0874 C   0  0  0  0  0  0  0  0  0  0  0  0
  151.3422  145.4196  160.1437 C   0  0  0  0  0  0  0  0  0  0  0  0
  151.5636  143.2311  158.9028 C   0  0  0  0  0  0  0  0  0  0  0  0
  151.9618  141.8846  158.8403 C   0  0  0  0  0  0  0  0  0  0  0  0
  148.7424  141.4106  154.1572 C   0  0  0  0  0  0  0  0  0  0  0  0
  147.2694  141.8658  154.2688 C   0  0  0  0  0  0  0  0  0  0  0  0
  144.6781  140.4251  157.2645 H   0  0  0  0  0  0  0  0  0  0  0  0
  145.7382  140.9357  158.5738 H   0  0  0  0  0  0  0  0  0  0  0  0
  146.1732  139.5308  157.6044 H   0  0  0  0  0  0  0  0  0  0  0  0
  145.0230  139.6145  155.3388 H   0  0  0  0  0  0  0  0  0  0  0  0
  145.5334  140.0461  153.7444 H   0  0  0  0  0  0  0  0  0  0  0  0
  147.1577  138.4721  155.8004 H   0  0  0  0  0  0  0  0  0  0  0  0
  146.4477  137.8564  154.3372 H   0  0  0  0  0  0  0  0  0  0  0  0
  148.7686  138.0844  153.9510 H   0  0  0  0  0  0  0  0  0  0  0  0
  148.0184  139.2918  152.9692 H   0  0  0  0  0  0  0  0  0  0  0  0
  150.6288  138.8856  153.8683 H   0  0  0  0  0  0  0  0  0  0  0  0
  150.9401  140.5976  153.8457 H   0  0  0  0  0  0  0  0  0  0  0  0
  150.9071  138.9364  156.4063 H   0  0  0  0  0  0  0  0  0  0  0  0
  152.7215  138.4008  155.5917 H   0  0  0  0  0  0  0  0  0  0  0  0
  151.9316  141.7943  155.9662 H   0  0  0  0  0  0  0  0  0  0  0  0
  150.3408  141.4623  156.6112 H   0  0  0  0  0  0  0  0  0  0  0  0
  152.5320  138.8876  157.8521 H   0  0  0  0  0  0  0  0  0  0  0  0
  153.2510  141.5085  161.9773 H   0  0  0  0  0  0  0  0  0  0  0  0
  153.2471  144.9876  162.3027 H   0  0  0  0  0  0  0  0  0  0  0  0
  153.1411  143.4941  163.2319 H   0  0  0  0  0  0  0  0  0  0  0  0
  151.6829  144.4354  162.9213 H   0  0  0  0  0  0  0  0  0  0  0  0
  150.8838  145.7339  159.2053 H   0  0  0  0  0  0  0  0  0  0  0  0
  152.1988  146.0676  160.3303 H   0  0  0  0  0  0  0  0  0  0  0  0
  150.6125  145.5700  160.9395 H   0  0  0  0  0  0  0  0  0  0  0  0
  151.0981  143.6929  158.0448 H   0  0  0  0  0  0  0  0  0  0  0  0
  149.3450  142.1227  154.7221 H   0  0  0  0  0  0  0  0  0  0  0  0
  149.0613  141.5230  153.1199 H   0  0  0  0  0  0  0  0  0  0  0  0
  146.7965  141.7388  153.2944 H   0  0  0  0  0  0  0  0  0  0  0  0
  147.2203  142.9403  154.4450 H   0  0  0  0  0  0  0  0  0  0  0  0
  1  2  1  0  0  0  0
  1 26  1  0  0  0  0
  1 27  1  0  0  0  0
  1 28  1  0  0  0  0
  2  3  2  0  0  0  0
  2  4  1  0  0  0  0
  4 25  1  0  0  0  0
  4  5  1  0  0  0  0
  5  6  1  0  0  0  0
  5 29  1  0  0  0  0
  5 30  1  0  0  0  0
  6  7  1  0  0  0  0
  6 31  1  0  0  0  0
  6 32  1  0  0  0  0
  7  8  1  0  0  0  0
  7 33  1  0  0  0  0
  7 34  1  0  0  0  0
  8  9  1  0  0  0  0
  8 24  1  0  0  0  0
  9 10  1  0  0  0  0
  9 35  1  0  0  0  0
  9 36  1  0  0  0  0
 10 11  1  0  0  0  0
 10 12  1  0  0  0  0
 10 37  1  0  0  0  0
 11 38  1  0  0  0  0
 12 13  1  0  0  0  0
 12 39  1  0  0  0  0
 12 40  1  0  0  0  0
 13 23  1  0  0  0  0
 13 14  1  0  0  0  0
 14 15  2  0  0  0  0
 14 41  1  0  0  0  0
 15 16  1  0  0  0  0
 16 23  2  0  0  0  0
 16 17  1  0  0  0  0
 17 18  2  0  0  0  0
 17 42  1  0  0  0  0
 18 19  1  0  0  0  0
 18 20  1  0  0  0  0
 19 43  1  0  0  0  0
 19 44  1  0  0  0  0
 19 45  1  0  0  0  0
 20 21  1  0  0  0  0
 20 22  2  0  0  0  0
 21 46  1  0  0  0  0
 21 47  1  0  0  0  0
 21 48  1  0  0  0  0
 22 23  1  0  0  0  0
 22 49  1  0  0  0  0
 24 25  1  0  0  0  0
 24 50  1  0  0  0  0
 24 51  1  0  0  0  0
 25 52  1  0  0  0  0
 25 53  1  0  0  0  0
M  END
> <s_m_source_file>
AV-unprocessed.smi

> <i_m_source_file_index>
1643

> <i_lp_mmshare_version>
43012

> <i_f3d_flags>
0

> <s_epik_input>
W0NIM11DKD1PKU4xW0NIMl1bQ0gyXVtDSDJdTihbQ0gyXVtDSDJdMSlbQ0gyXVtDQEhdKFtPSF0pW0NIMl1uKFtjSF1uMiljKGMyMylbY0hdYyhbQ0gzXSljKFtjSF0zKVtDSDNd

> <s_epik_cmdline>
J2VwaWtfcHl0aG9uJywgJy1waCcsICc3LjAnLCAnLXRuJywgJzgnLCAnLW1hJywgJzIwMCcsICctbWV0YWxfYmluZGluZycsICctaW1hZScsICc8aW5maWxlLm1hZT4nLCAnLW9tYWUnLCAnPG91dGZpbGUubWFlPic=

> <r_epik_Ionization_Penalty>
1.17666

> <r_epik_Ionization_Penalty_Charging>
0

> <r_epik_Ionization_Penalty_Neutral>
1.17666

> <r_epik_State_Penalty>
1.20405

> <r_epik_Charging_Adjusted_Penalty>
1.20405

> <i_epik_Tot_Q>
0

> <i_epik_Tot_abs_Q>
0

> <r_epik_Metal_State_Penalty>
1.13307

> <b_epik_Metal_Only>
0

> <s_lp_Force_Field>
OPLS_2005

> <r_lp_Energy>
45.5249

> <b_lp_Chiralities_Consistent>
1

> <s_lp_Variant>
AV-unprocessed.smi:1643-6

> <Gold.Version>
5.8.1

> <Gold.Id.Protein>
6NUR|6NUR_protein|mol2

> <Gold.PLP.Fitness>
47.9046

> <Gold.PLP.PLP>
-46.5588

> <Gold.PLP.part.hbond>
-1.0615

> <Gold.PLP.part.metal>
0.0000

> <Gold.PLP.part.buried>
-3.7033

> <Gold.PLP.part.nonpolar>
-42.2882

> <Gold.PLP.part.repulsive>
0.2733

> <Gold.PLP.ligand.clash>
0.0000

> <Gold.PLP.ligand.torsion>
0.8415

> <Gold.PLP.Chemscore.Hbond>
0.9913

> <Gold.PLP.Chemscore.CHOScore>
0.0000

> <Gold.PLP.Chemscore.Metal>
0.0000

> <Gold.Chemscore.Hbonds>
donor molecule, donor type, donor heavy atom, donor atom, acceptor molecule, acceptor atom, score
      P1  H  7997  8009       L1    11  0.99

> <Gold.PLP.Chemscore.Internal.Correction>
0.0550

> <Gold.Rescore>
     Score         DG    S(hbond)    S(metal)    S(lipo)     H(rot)  DE(clash)    DE(int)     intcor
     15.45     -17.59       0.68        0.00     129.18       2.07       1.18       0.95       ----

> <Gold.Chemscore.Fitness>
15.4526

> <Gold.Chemscore.DG>
-17.5851

> <Gold.Chemscore.ZeroCoef>
-5.4800

> <Gold.Chemscore.Hbond>
0.6819

> <Gold.Chemscore.Metal>
0.0000

> <Gold.Chemscore.Lipo>
129.1785

> <Gold.Chemscore.Internal_Hbond>
0.0000

> <Gold.Chemscore.DEClash>
1.1846

> <Gold.Chemscore.DEInternal>
0.9479

> <Gold.Chemscore.Rot>
2.0650

> <Gold.Chemscore.Internal.Correction>
   9.000000E+99

> <Gold.Chemscore.Hbonds>
donor molecule, donor type, donor heavy atom, donor atom, acceptor molecule, acceptor atom, score
      P1  H  7997  8009       L1    11  0.51

> <Gold.Chemscore.Hbond.Weighted>
-2.2777

> <Gold.Chemscore.Metal.Weighted>
-0.0000

> <Gold.Chemscore.Lipo.Weighted>
-15.1139

> <Gold.Chemscore.Internal_Hbond.Weighted>
0.0000

> <Gold.Chemscore.DEClash.Weighted>
1.1846

> <Gold.Chemscore.DEInternal.Weighted>
0.9479

> <Gold.Chemscore.Rot.Weighted>
5.2865

> <Gold.Chemscore.Internal.Correction.Weighted>
   9.000000E+99

> <Gold.Protein.RotatedTorsions>
[ 6907 6896 6895 6894 ] final   33.39 input  -60.11 | X-H torsion
[ 7974 7965 7964 7962 ] final  157.60 input  175.53 | X-H torsion
[ 8008 7997 7996 7995 ] final -145.41 input   59.86 | X-H torsion
[ 10167 10162 10161 10158 ] final   45.85 input  -65.29 | X-H torsion
[ 10718 10713 10712 10709 ] final  -59.80 input   66.30 | X-H torsion
[ 10763 10752 10751 10750 ] final   39.41 input  -60.55 | X-H torsion
[ 11005 11000 10999 10996 ] final  -41.82 input  -57.11 | X-H torsion

> <Gold.Protein.ActiveResidues>
 VAL166  LYS551  ARG553  GLY616  TRP617  ASP618  TYR619  PRO620  LYS621  CYS622 
 ASP623  PHE694  ASN695  SER759  ASP760  ASP761  ALA762  ILE779  LEU786  VAL792 
 PHE793  MET794  SER795  GLU796  ALA797  LYS798  CYS799  TRP800  GLU811  SER814 

> <Gold.Protein.RotatedAtoms>
  152.0878  134.9427  160.0572 H   0  0  0  0  0  0  0  0  0  0  0  0  # atno 6907 bound_to 6896
  152.0691  133.4093  159.4459 H   0  0  0  0  0  0  0  0  0  0  0  0  # atno 6908 bound_to 6896
  150.6836  134.3033  159.4759 H   0  0  0  0  0  0  0  0  0  0  0  0  # atno 6909 bound_to 6896
  144.7894  139.7363  143.6227 H   0  0  0  0  0  0  0  0  0  0  0  0  # atno 7974 bound_to 7965
  155.5427  140.0609  157.2866 H   0  0  0  0  0  0  0  0  0  0  0  0  # atno 8008 bound_to 7997
  154.4447  140.1916  156.0651 H   0  0  0  0  0  0  0  0  0  0  0  0  # atno 8009 bound_to 7997
  156.0573  140.3277  155.7424 H   0  0  0  0  0  0  0  0  0  0  0  0  # atno 8010 bound_to 7997
  140.3200  144.2717  150.6184 H   0  0  0  0  0  0  0  0  0  0  0  0  # atno 10167 bound_to 10162
  156.1036  130.4183  150.0765 H   0  0  0  0  0  0  0  0  0  0  0  0  # atno 10718 bound_to 10713
  152.9968  135.6221  154.2461 H   0  0  0  0  0  0  0  0  0  0  0  0  # atno 10763 bound_to 10752
  154.2200  135.2796  155.2930 H   0  0  0  0  0  0  0  0  0  0  0  0  # atno 10764 bound_to 10752
  154.5536  135.5726  153.7002 H   0  0  0  0  0  0  0  0  0  0  0  0  # atno 10765 bound_to 10752
  141.0273  133.6835  156.2510 H   0  0  0  0  0  0  0  0  0  0  0  0  # atno 11005 bound_to 11000
  146.2139  139.5515  142.9663 LP  0  0  0  0  0  0  0  0  0  0  0  0  # atno 17320 bound_to 7965
  145.5835  141.0379  143.2109 LP  0  0  0  0  0  0  0  0  0  0  0  0  # atno 17321 bound_to 7965
  140.5492  143.2209  151.7955 LP  0  0  0  0  0  0  0  0  0  0  0  0  # atno 17342 bound_to 10162
  139.4876  144.4499  151.9667 LP  0  0  0  0  0  0  0  0  0  0  0  0  # atno 17343 bound_to 10162
  156.8746  130.9536  151.3606 LP  0  0  0  0  0  0  0  0  0  0  0  0  # atno 17370 bound_to 10713
  157.6210  130.8655  149.9108 LP  0  0  0  0  0  0  0  0  0  0  0  0  # atno 17371 bound_to 10713
  140.6469  134.5108  157.5574 LP  0  0  0  0  0  0  0  0  0  0  0  0  # atno 17394 bound_to 11000
  139.9184  134.8198  156.1290 LP  0  0  0  0  0  0  0  0  0  0  0  0  # atno 17395 bound_to 11000

$$$$
