AV-unprocessed.smi:3255|AV-procd|sdf|12457|dock1
  -GOLD-   2272018353D 1   1.00000     0.00000
 Structure written by MMmdl.
 39 40  0  0  0  0  0  0  0  0  2 V2000
  151.9964  145.4523  158.8278 C   0  0  0  0  0  0  0  0  0  0  0  0
  152.1240  143.9796  158.4085 C   0  0  2  0  0  0  0  0  0  0  0  0
  151.0028  143.6495  157.5322 N   0  0  0  0  0  0  0  0  0  0  0  0
  150.5945  142.4094  157.2306 C   0  0  0  0  0  0  0  0  0  0  0  0
  151.1469  141.3826  157.6267 O   0  0  0  0  0  0  0  0  0  0  0  0
  149.4876  142.4204  156.4748 N   0  0  0  0  0  0  0  0  0  0  0  0
  148.7462  141.2340  156.0561 C   0  0  0  0  0  0  0  0  0  0  0  0
  149.2261  140.7024  154.6911 C   0  0  0  0  0  0  0  0  0  0  0  0
  150.1503  139.5697  154.8097 N   0  0  0  0  0  0  0  0  0  0  0  0
  150.0024  138.3145  154.2764 C   0  0  0  0  0  0  0  0  0  0  0  0
  151.1022  137.5936  154.6639 C   0  0  0  0  0  0  0  0  0  0  0  0
  151.8758  138.4390  155.4128 N   0  3  0  0  0  0  0  0  0  0  0  0
  151.2974  139.6413  155.4970 C   0  0  0  0  0  0  0  0  0  0  0  0
  152.1427  143.0258  159.6230 C   0  0  2  0  0  0  0  0  0  0  0  0
  151.9616  143.7136  160.9782 C   0  0  0  0  0  0  0  0  0  0  0  0
  152.6589  142.7832  161.9595 C   0  0  0  0  0  0  0  0  0  0  0  0
  153.4473  141.8219  161.0681 C   0  0  0  0  0  0  0  0  0  0  0  0
  153.4141  142.4111  159.7772 O   0  0  0  0  0  0  0  0  0  0  0  0
  152.8451  145.7688  159.4344 H   0  0  0  0  0  0  0  0  0  0  0  0
  151.0897  145.6230  159.4093 H   0  0  0  0  0  0  0  0  0  0  0  0
  151.9607  146.1065  157.9559 H   0  0  0  0  0  0  0  0  0  0  0  0
  153.0599  143.8720  157.8571 H   0  0  0  0  0  0  0  0  0  0  0  0
  150.4788  144.4265  157.1574 H   0  0  0  0  0  0  0  0  0  0  0  0
  149.1121  143.3149  156.1946 H   0  0  0  0  0  0  0  0  0  0  0  0
  148.9029  140.4668  156.8145 H   0  0  0  0  0  0  0  0  0  0  0  0
  147.6723  141.4279  156.0408 H   0  0  0  0  0  0  0  0  0  0  0  0
  148.3791  140.3895  154.0789 H   0  0  0  0  0  0  0  0  0  0  0  0
  149.7400  141.4911  154.1399 H   0  0  0  0  0  0  0  0  0  0  0  0
  149.1435  138.0315  153.6858 H   0  0  0  0  0  0  0  0  0  0  0  0
  151.3827  136.5683  154.4712 H   0  0  0  0  0  0  0  0  0  0  0  0
  151.6767  140.4972  156.0264 H   0  0  0  0  0  0  0  0  0  0  0  0
  151.3900  142.2439  159.5023 H   0  0  0  0  0  0  0  0  0  0  0  0
  152.4608  144.6834  160.9805 H   0  0  0  0  0  0  0  0  0  0  0  0
  150.9125  143.8771  161.2267 H   0  0  0  0  0  0  0  0  0  0  0  0
  153.3179  143.3467  162.6211 H   0  0  0  0  0  0  0  0  0  0  0  0
  151.9450  142.2397  162.5793 H   0  0  0  0  0  0  0  0  0  0  0  0
  154.4721  141.6773  161.4100 H   0  0  0  0  0  0  0  0  0  0  0  0
  152.9603  140.8464  161.0286 H   0  0  0  0  0  0  0  0  0  0  0  0
  152.7566  138.1912  155.8461 H   0  0  0  0  0  0  0  0  0  0  0  0
  1  2  1  0  0  0  0
  1 19  1  0  0  0  0
  1 20  1  0  0  0  0
  1 21  1  0  0  0  0
  2  3  1  0  0  0  0
  2 14  1  0  0  0  0
  2 22  1  0  0  0  0
  3  4  1  0  0  0  0
  3 23  1  0  0  0  0
  4  5  2  0  0  0  0
  4  6  1  0  0  0  0
  6  7  1  0  0  0  0
  6 24  1  0  0  0  0
  7  8  1  0  0  0  0
  7 25  1  0  0  0  0
  7 26  1  0  0  0  0
  8  9  1  0  0  0  0
  8 27  1  0  0  0  0
  8 28  1  0  0  0  0
  9 13  1  0  0  0  0
  9 10  1  0  0  0  0
 10 11  2  0  0  0  0
 10 29  1  0  0  0  0
 11 12  1  0  0  0  0
 11 30  1  0  0  0  0
 12 13  2  0  0  0  0
 12 39  1  0  0  0  0
 13 31  1  0  0  0  0
 14 18  1  0  0  0  0
 14 15  1  0  0  0  0
 14 32  1  0  0  0  0
 15 16  1  0  0  0  0
 15 33  1  0  0  0  0
 15 34  1  0  0  0  0
 16 17  1  0  0  0  0
 16 35  1  0  0  0  0
 16 36  1  0  0  0  0
 17 18  1  0  0  0  0
 17 37  1  0  0  0  0
 17 38  1  0  0  0  0
M  CHG  1  12   1
M  END
> <s_m_source_file>
AV-unprocessed.smi

> <i_m_source_file_index>
3255

> <i_lp_mmshare_version>
43012

> <i_f3d_flags>
0

> <s_epik_input>
TzFbQ0gyXVtDSDJdW0NIMl1bQ0BIXTFbQ0BIXShbQ0gzXSlbTkhdQyg9TylbTkhdW0NIMl1bQ0gyXW4yW2NIXVtjSF1uW2NIXTI=

> <s_epik_cmdline>
J2VwaWtfcHl0aG9uJywgJy1waCcsICc3LjAnLCAnLXRuJywgJzgnLCAnLW1hJywgJzIwMCcsICctbWV0YWxfYmluZGluZycsICctaW1hZScsICc8aW5maWxlLm1hZT4nLCAnLW9tYWUnLCAnPG91dGZpbGUubWFlPic=

> <r_lp_tautomer_probability>
1

> <r_epik_Ionization_Penalty>
0.256241

> <r_epik_Ionization_Penalty_Charging>
0

> <r_epik_Ionization_Penalty_Neutral>
0.256241

> <r_epik_State_Penalty>
0.247735

> <r_epik_Charging_Adjusted_Penalty>
0.247735

> <i_epik_Tot_Q>
1

> <i_epik_Tot_abs_Q>
1

> <r_epik_Metal_State_Penalty>
0.537184

> <b_epik_Metal_Only>
0

> <s_lp_Force_Field>
OPLS_2005

> <r_lp_Energy>
16.926

> <b_lp_Chiralities_Consistent>
1

> <s_lp_Variant>
AV-unprocessed.smi:3255-1

> <Gold.Version>
5.8.1

> <Gold.Id.Protein>
6NUR|6NUR_protein|mol2

> <Gold.PLP.Fitness>
49.5517

> <Gold.PLP.PLP>
-46.5221

> <Gold.PLP.part.hbond>
-1.9116

> <Gold.PLP.part.metal>
0.0000

> <Gold.PLP.part.buried>
-3.8058

> <Gold.PLP.part.nonpolar>
-41.1926

> <Gold.PLP.part.repulsive>
0.2681

> <Gold.PLP.ligand.clash>
0.0000

> <Gold.PLP.ligand.torsion>
2.1890

> <Gold.PLP.Chemscore.Hbond>
1.4290

> <Gold.PLP.Chemscore.CHOScore>
1.0000

> <Gold.PLP.Chemscore.Metal>
0.0000

> <Gold.Chemscore.Hbonds>
donor molecule, donor type, donor heavy atom, donor atom, acceptor molecule, acceptor atom, score
      L1  H     3    23       P1  8028  0.50
      L1  H     6    24       P1  8028  0.98
      L1  C    10    29       P1  7948  0.93

> <Gold.PLP.Chemscore.Internal.Correction>
0.1206

> <Gold.Rescore>
     Score         DG    S(hbond)    S(metal)    S(lipo)     H(rot)  DE(clash)    DE(int)     intcor
     13.54     -17.90       1.85        0.00     102.98       2.26       2.34       2.02       ----

> <Gold.Chemscore.Fitness>
13.5429

> <Gold.Chemscore.DG>
-17.8974

> <Gold.Chemscore.ZeroCoef>
-5.4800

> <Gold.Chemscore.Hbond>
1.8456

> <Gold.Chemscore.Metal>
0.0000

> <Gold.Chemscore.Lipo>
102.9814

> <Gold.Chemscore.Internal_Hbond>
0.0000

> <Gold.Chemscore.DEClash>
2.3390

> <Gold.Chemscore.DEInternal>
2.0156

> <Gold.Chemscore.Rot>
2.2640

> <Gold.Chemscore.Internal.Correction>
   9.000000E+99

> <Gold.Chemscore.Hbonds>
donor molecule, donor type, donor heavy atom, donor atom, acceptor molecule, acceptor atom, score
      L1  H     3    23       P1  8028  0.38
      L1  H     6    24       P1  8028  0.91

> <Gold.Chemscore.Hbond.Weighted>
-6.1643

> <Gold.Chemscore.Metal.Weighted>
-0.0000

> <Gold.Chemscore.Lipo.Weighted>
-12.0488

> <Gold.Chemscore.Internal_Hbond.Weighted>
0.0000

> <Gold.Chemscore.DEClash.Weighted>
2.3390

> <Gold.Chemscore.DEInternal.Weighted>
2.0156

> <Gold.Chemscore.Rot.Weighted>
5.7958

> <Gold.Chemscore.Internal.Correction.Weighted>
   9.000000E+99

> <Gold.Protein.RotatedTorsions>
[ 6907 6896 6895 6894 ] final  -56.33 input  -60.11 | X-H torsion
[ 7974 7965 7964 7962 ] final   24.40 input  175.53 | X-H torsion
[ 8008 7997 7996 7995 ] final   84.18 input   59.86 | X-H torsion
[ 10167 10162 10161 10158 ] final -143.35 input  -65.29 | X-H torsion
[ 10718 10713 10712 10709 ] final   52.72 input   66.30 | X-H torsion
[ 10763 10752 10751 10750 ] final   38.72 input  -60.55 | X-H torsion
[ 11005 11000 10999 10996 ] final -123.64 input  -57.11 | X-H torsion

> <Gold.Protein.ActiveResidues>
 VAL166  LYS551  ARG553  GLY616  TRP617  ASP618  TYR619  PRO620  LYS621  CYS622 
 ASP623  PHE694  ASN695  SER759  ASP760  ASP761  ALA762  ILE779  LEU786  VAL792 
 PHE793  MET794  SER795  GLU796  ALA797  LYS798  CYS799  TRP800  GLU811  SER814 

> <Gold.Protein.RotatedAtoms>
  150.8177  134.7368  159.6744 H   0  0  0  0  0  0  0  0  0  0  0  0  # atno 6907 bound_to 6896
  152.4294  134.5802  159.9955 H   0  0  0  0  0  0  0  0  0  0  0  0  # atno 6908 bound_to 6896
  151.5995  133.3320  159.3080 H   0  0  0  0  0  0  0  0  0  0  0  0  # atno 6909 bound_to 6896
  146.1939  139.7610  142.8811 H   0  0  0  0  0  0  0  0  0  0  0  0  # atno 7974 bound_to 7965
  155.9337  140.3413  155.6270 H   0  0  0  0  0  0  0  0  0  0  0  0  # atno 8008 bound_to 7997
  155.7126  140.0773  157.2383 H   0  0  0  0  0  0  0  0  0  0  0  0  # atno 8009 bound_to 7997
  154.4089  140.1620  156.2300 H   0  0  0  0  0  0  0  0  0  0  0  0  # atno 8010 bound_to 7997
  139.8001  143.7845  152.2657 H   0  0  0  0  0  0  0  0  0  0  0  0  # atno 10167 bound_to 10162
  157.5101  130.8495  149.8424 H   0  0  0  0  0  0  0  0  0  0  0  0  # atno 10718 bound_to 10713
  152.9991  135.6241  154.2349 H   0  0  0  0  0  0  0  0  0  0  0  0  # atno 10763 bound_to 10752
  154.2091  135.2800  155.2966 H   0  0  0  0  0  0  0  0  0  0  0  0  # atno 10764 bound_to 10752
  154.5621  135.5702  153.7076 H   0  0  0  0  0  0  0  0  0  0  0  0  # atno 10765 bound_to 10752
  140.9903  134.0549  157.3662 H   0  0  0  0  0  0  0  0  0  0  0  0  # atno 11005 bound_to 11000
  145.3705  141.0342  143.3234 LP  0  0  0  0  0  0  0  0  0  0  0  0  # atno 17320 bound_to 7965
  144.8541  139.5276  143.6842 LP  0  0  0  0  0  0  0  0  0  0  0  0  # atno 17321 bound_to 7965
  139.7963  144.7391  150.9886 LP  0  0  0  0  0  0  0  0  0  0  0  0  # atno 17342 bound_to 10162
  140.7820  143.4391  151.0579 LP  0  0  0  0  0  0  0  0  0  0  0  0  # atno 17343 bound_to 10162
  156.0283  130.3772  150.1759 LP  0  0  0  0  0  0  0  0  0  0  0  0  # atno 17370 bound_to 10713
  156.9949  130.9904  151.3405 LP  0  0  0  0  0  0  0  0  0  0  0  0  # atno 17371 bound_to 10713
  139.8989  135.0156  156.7171 LP  0  0  0  0  0  0  0  0  0  0  0  0  # atno 17394 bound_to 11000
  140.7051  133.9272  155.8048 LP  0  0  0  0  0  0  0  0  0  0  0  0  # atno 17395 bound_to 11000

$$$$
