AV-unprocessed.smi:2568|AV-procd|sdf|10099|dock2
  -GOLD-   2272014113D 1   1.00000     0.00000
 Structure written by MMmdl.
 24 25  0  0  0  0  0  0  0  0  3 V2000
  151.7876  140.8951  158.9709 C   0  0  0  0  0  0  0  0  0  0  0  0
  151.5012  140.5766  157.5217 C   0  0  0  0  0  0  0  0  0  0  0  0
  152.3910  140.1214  156.6222 N   0  5  0  0  0  0  0  0  0  0  0  0
  151.8011  139.9532  155.4565 N   0  0  0  0  0  0  0  0  0  0  0  0
  150.5256  140.3240  155.6461 C   0  0  0  0  0  0  0  0  0  0  0  0
  149.4503  140.2653  154.5813 C   0  0  1  0  0  0  0  0  0  0  0  0
  149.2838  138.8320  154.0397 C   0  0  0  0  0  0  0  0  0  0  0  0
  148.2241  138.7940  153.0135 N   0  3  0  0  0  0  0  0  0  0  0  0
  146.9548  139.3471  153.5237 C   0  0  0  0  0  0  0  0  0  0  0  0
  147.1837  140.7606  154.0847 C   0  0  0  0  0  0  0  0  0  0  0  0
  148.1950  140.7191  155.0850 O   0  0  0  0  0  0  0  0  0  0  0  0
  150.3236  140.6980  156.9177 N   0  0  0  0  0  0  0  0  0  0  0  0
  152.8312  140.6914  159.2115 H   0  0  0  0  0  0  0  0  0  0  0  0
  151.1583  140.2892  159.6228 H   0  0  0  0  0  0  0  0  0  0  0  0
  151.5858  141.9471  159.1728 H   0  0  0  0  0  0  0  0  0  0  0  0
  149.7607  140.9288  153.7718 H   0  0  0  0  0  0  0  0  0  0  0  0
  150.2168  138.4738  153.6036 H   0  0  0  0  0  0  0  0  0  0  0  0
  149.0240  138.1475  154.8488 H   0  0  0  0  0  0  0  0  0  0  0  0
  148.5236  139.3465  152.2228 H   0  0  0  0  0  0  0  0  0  0  0  0
  146.2184  139.3663  152.7202 H   0  0  0  0  0  0  0  0  0  0  0  0
  146.5657  138.6908  154.3032 H   0  0  0  0  0  0  0  0  0  0  0  0
  147.4675  141.4549  153.2921 H   0  0  0  0  0  0  0  0  0  0  0  0
  146.2638  141.1424  154.5279 H   0  0  0  0  0  0  0  0  0  0  0  0
  148.0809  137.8398  152.7150 H   0  0  0  0  0  0  0  0  0  0  0  0
  1 13  1  0  0  0  0
  1 14  1  0  0  0  0
  1 15  1  0  0  0  0
  1  2  1  0  0  0  0
  2 12  2  0  0  0  0
  2  3  1  0  0  0  0
  3  4  1  0  0  0  0
  4  5  2  0  0  0  0
  5 12  1  0  0  0  0
  5  6  1  0  0  0  0
  6 11  1  0  0  0  0
  6  7  1  0  0  0  0
  6 16  1  0  0  0  0
  7  8  1  0  0  0  0
  7 17  1  0  0  0  0
  7 18  1  0  0  0  0
  8  9  1  0  0  0  0
  8 19  1  0  0  0  0
  8 24  1  0  0  0  0
  9 10  1  0  0  0  0
  9 20  1  0  0  0  0
  9 21  1  0  0  0  0
 10 11  1  0  0  0  0
 10 22  1  0  0  0  0
 10 23  1  0  0  0  0
M  CHG  1   3  -1
M  CHG  1   8   1
M  END
> <s_m_source_file>
AV-unprocessed.smi

> <i_m_source_file_index>
2568

> <i_lp_mmshare_version>
43012

> <i_f3d_flags>
0

> <s_epik_input>
W0NIM11jMW5bbkhdYyhuMSlbQ0BASF0yW0NIMl1bTkhdW0NIMl1bQ0gyXU8y

> <s_epik_cmdline>
J2VwaWtfcHl0aG9uJywgJy1waCcsICc3LjAnLCAnLXRuJywgJzgnLCAnLW1hJywgJzIwMCcsICctbWV0YWxfYmluZGluZycsICctaW1hZScsICc8aW5maWxlLm1hZT4nLCAnLW9tYWUnLCAnPG91dGZpbGUubWFlPic=

> <r_lp_tautomer_probability>
0.948284

> <r_epik_Ionization_Penalty>
5.18319

> <r_epik_Ionization_Penalty_Charging>
5.18319

> <r_epik_Ionization_Penalty_Neutral>
2.73247e-13

> <r_epik_State_Penalty>
2.89074

> <r_epik_Charging_Adjusted_Penalty>
8.07392

> <i_epik_Tot_Q>
0

> <i_epik_Tot_abs_Q>
2

> <r_epik_Metal_State_Penalty>
0.548499

> <b_epik_Metal_Only>
1

> <s_lp_Force_Field>
OPLS_2005

> <r_lp_Energy>
8.28058

> <b_lp_Chiralities_Consistent>
1

> <s_lp_Variant>
AV-unprocessed.smi:2568-12

> <Gold.Version>
5.8.1

> <Gold.Id.Protein>
6NUR|6NUR_protein|mol2

> <Gold.PLP.Fitness>
34.8466

> <Gold.PLP.PLP>
-18.4673

> <Gold.PLP.part.hbond>
-3.7593

> <Gold.PLP.part.metal>
0.0000

> <Gold.PLP.part.buried>
-0.8989

> <Gold.PLP.part.nonpolar>
-13.8938

> <Gold.PLP.part.repulsive>
0.1935

> <Gold.PLP.ligand.clash>
0.0000

> <Gold.PLP.ligand.torsion>
0.0062

> <Gold.PLP.Chemscore.Hbond>
5.4600

> <Gold.PLP.Chemscore.CHOScore>
0.0000

> <Gold.PLP.Chemscore.Metal>
0.0000

> <Gold.Chemscore.Hbonds>
donor molecule, donor type, donor heavy atom, donor atom, acceptor molecule, acceptor atom, score
      L1  H     8    19       P1  7957  1.00
      L1  H     8    24       P1  7948  1.76
      P1  H  7989  7998       L1     4  0.22
      P1  H  7997  8008       L1     3  2.00

> <Gold.PLP.Chemscore.Internal.Correction>
0.0117

> <Gold.Rescore>
     Score         DG    S(hbond)    S(metal)    S(lipo)     H(rot)  DE(clash)    DE(int)     intcor
     16.05     -16.27       2.81        0.00      33.93       1.00       0.17       0.05       ----

> <Gold.Chemscore.Fitness>
16.0547

> <Gold.Chemscore.DG>
-16.2744

> <Gold.Chemscore.ZeroCoef>
-5.4800

> <Gold.Chemscore.Hbond>
2.8097

> <Gold.Chemscore.Metal>
0.0000

> <Gold.Chemscore.Lipo>
33.9316

> <Gold.Chemscore.Internal_Hbond>
0.0000

> <Gold.Chemscore.DEClash>
0.1685

> <Gold.Chemscore.DEInternal>
0.0512

> <Gold.Chemscore.Rot>
1.0000

> <Gold.Chemscore.Internal.Correction>
   9.000000E+99

> <Gold.Chemscore.Hbonds>
donor molecule, donor type, donor heavy atom, donor atom, acceptor molecule, acceptor atom, score
      L1  H     8    19       P1  7957  0.99
      L1  H     8    24       P1  7948  0.83
      P1  H  7997  8008       L1     3  0.63

> <Gold.Chemscore.Hbond.Weighted>
-9.3844

> <Gold.Chemscore.Metal.Weighted>
-0.0000

> <Gold.Chemscore.Lipo.Weighted>
-3.9700

> <Gold.Chemscore.Internal_Hbond.Weighted>
0.0000

> <Gold.Chemscore.DEClash.Weighted>
0.1685

> <Gold.Chemscore.DEInternal.Weighted>
0.0512

> <Gold.Chemscore.Rot.Weighted>
2.5600

> <Gold.Chemscore.Internal.Correction.Weighted>
   9.000000E+99

> <Gold.Protein.RotatedTorsions>
[ 6907 6896 6895 6894 ] final   96.97 input  -60.11 | X-H torsion
[ 7974 7965 7964 7962 ] final  111.54 input  175.53 | X-H torsion
[ 8008 7997 7996 7995 ] final  -40.57 input   59.86 | X-H torsion
[ 10167 10162 10161 10158 ] final -136.19 input  -65.29 | X-H torsion
[ 10718 10713 10712 10709 ] final  -59.29 input   66.30 | X-H torsion
[ 10763 10752 10751 10750 ] final  -70.68 input  -60.55 | X-H torsion
[ 11005 11000 10999 10996 ] final  -19.07 input  -57.11 | X-H torsion

> <Gold.Protein.ActiveResidues>
 VAL166  LYS551  ARG553  GLY616  TRP617  ASP618  TYR619  PRO620  LYS621  CYS622 
 ASP623  PHE694  ASN695  SER759  ASP760  ASP761  ALA762  ILE779  LEU786  VAL792 
 PHE793  MET794  SER795  GLU796  ALA797  LYS798  CYS799  TRP800  GLU811  SER814 

> <Gold.Protein.RotatedAtoms>
  152.5429  134.0805  159.8233 H   0  0  0  0  0  0  0  0  0  0  0  0  # atno 6907 bound_to 6896
  151.0908  133.5310  159.2622 H   0  0  0  0  0  0  0  0  0  0  0  0  # atno 6908 bound_to 6896
  151.2102  135.0487  159.8962 H   0  0  0  0  0  0  0  0  0  0  0  0  # atno 6909 bound_to 6896
  145.2409  139.2779  143.4118 H   0  0  0  0  0  0  0  0  0  0  0  0  # atno 7974 bound_to 7965
  154.4011  140.1522  156.3049 H   0  0  0  0  0  0  0  0  0  0  0  0  # atno 8008 bound_to 7997
  155.8667  140.3451  155.5772 H   0  0  0  0  0  0  0  0  0  0  0  0  # atno 8009 bound_to 7997
  155.7819  140.0844  157.2045 H   0  0  0  0  0  0  0  0  0  0  0  0  # atno 8010 bound_to 7997
  139.8702  143.6966  152.2640 H   0  0  0  0  0  0  0  0  0  0  0  0  # atno 10167 bound_to 10162
  156.1073  130.4179  150.0694 H   0  0  0  0  0  0  0  0  0  0  0  0  # atno 10718 bound_to 10713
  154.4211  135.5986  153.6010 H   0  0  0  0  0  0  0  0  0  0  0  0  # atno 10763 bound_to 10752
  152.9794  135.5952  154.3954 H   0  0  0  0  0  0  0  0  0  0  0  0  # atno 10764 bound_to 10752
  154.3780  135.2841  155.2206 H   0  0  0  0  0  0  0  0  0  0  0  0  # atno 10765 bound_to 10752
  140.8330  133.7982  155.9779 H   0  0  0  0  0  0  0  0  0  0  0  0  # atno 11005 bound_to 11000
  146.3328  140.2772  142.8608 LP  0  0  0  0  0  0  0  0  0  0  0  0  # atno 17320 bound_to 7965
  144.9590  140.8256  143.5525 LP  0  0  0  0  0  0  0  0  0  0  0  0  # atno 17321 bound_to 7965
  139.7291  144.7586  151.0831 LP  0  0  0  0  0  0  0  0  0  0  0  0  # atno 17342 bound_to 10162
  140.7762  143.5111  150.9651 LP  0  0  0  0  0  0  0  0  0  0  0  0  # atno 17343 bound_to 10162
  156.8667  130.9510  151.3613 LP  0  0  0  0  0  0  0  0  0  0  0  0  # atno 17370 bound_to 10713
  157.6251  130.8685  149.9175 LP  0  0  0  0  0  0  0  0  0  0  0  0  # atno 17371 bound_to 10713
  140.8977  134.2417  157.5059 LP  0  0  0  0  0  0  0  0  0  0  0  0  # atno 17394 bound_to 11000
  139.8704  134.9692  156.4657 LP  0  0  0  0  0  0  0  0  0  0  0  0  # atno 17395 bound_to 11000

$$$$
