AV-unprocessed.smi:1867|AV-procd|sdf|7572|dock6
  -GOLD-   22720 9283D 1   1.00000     0.00000
 Structure written by MMmdl.
 53 56  0  0  0  0  0  0  0  0  3 V2000
  145.3581  138.1737  153.6169 O   0  0  0  0  0  0  0  0  0  0  0  0
  146.2591  137.6486  152.9677 C   0  0  0  0  0  0  0  0  0  0  0  0
  147.5641  137.9711  153.0663 N   0  0  0  0  0  0  0  0  0  0  0  0
  148.1721  138.9876  153.8525 C   0  0  0  0  0  0  0  0  0  0  0  0
  149.5728  139.1478  154.0023 C   0  0  0  0  0  0  0  0  0  0  0  0
  150.0700  140.1825  154.8209 C   0  0  0  0  0  0  0  0  0  0  0  0
  149.1645  141.0377  155.4905 C   0  0  0  0  0  0  0  0  0  0  0  0
  149.5577  142.0986  156.3186 N   0  0  0  0  0  0  0  0  0  0  0  0
  149.1536  141.9928  157.7113 C   0  0  0  0  0  0  0  0  0  0  0  0
  150.0339  142.9886  158.4713 C   0  0  0  0  0  0  0  0  0  0  0  0
  151.2468  143.2180  157.5620 C   0  0  0  0  0  0  0  0  0  0  0  0
  150.9901  142.3419  156.3332 C   0  0  0  0  0  0  0  0  0  0  0  0
  147.8375  140.8437  155.3290 N   0  3  0  0  0  0  0  0  0  0  0  0
  147.3199  139.8663  154.5539 C   0  0  0  0  0  0  0  0  0  0  0  0
  145.9978  136.6551  152.0992 N   0  0  0  0  0  0  0  0  0  0  0  0
  144.7013  136.0662  151.7559 C   0  0  2  0  0  0  0  0  0  0  0  0
  143.9156  135.6041  152.9767 C   0  0  0  0  0  0  0  0  0  0  0  0
  142.8914  134.6331  152.3817 C   0  0  0  0  0  0  0  0  0  0  0  0
  143.4965  134.0763  151.1471 N   0  3  2  0  0  0  0  0  0  0  0  0
  143.5762  132.5909  151.1316 C   0  0  0  0  0  0  0  0  0  0  0  0
  144.5395  132.1035  150.0396 C   0  0  0  0  0  0  0  0  0  0  0  0
  145.9737  132.6086  150.2854 C   0  0  0  0  0  0  0  0  0  0  0  0
  146.0107  133.8833  151.1499 C   0  0  0  0  0  0  0  0  0  0  0  0
  144.7815  134.7900  150.8942 C   0  0  2  0  0  0  0  0  0  0  0  0
  148.2024  137.3959  152.5368 H   0  0  0  0  0  0  0  0  0  0  0  0
  150.2796  138.4934  153.5167 H   0  0  0  0  0  0  0  0  0  0  0  0
  151.1371  140.3116  154.9276 H   0  0  0  0  0  0  0  0  0  0  0  0
  148.0947  142.2250  157.8300 H   0  0  0  0  0  0  0  0  0  0  0  0
  149.3201  140.9844  158.0914 H   0  0  0  0  0  0  0  0  0  0  0  0
  149.5009  143.9281  158.6237 H   0  0  0  0  0  0  0  0  0  0  0  0
  150.3173  142.6057  159.4522 H   0  0  0  0  0  0  0  0  0  0  0  0
  151.3025  144.2689  157.2749 H   0  0  0  0  0  0  0  0  0  0  0  0
  152.1864  142.9573  158.0500 H   0  0  0  0  0  0  0  0  0  0  0  0
  151.5351  141.4008  156.4212 H   0  0  0  0  0  0  0  0  0  0  0  0
  151.3143  142.8344  155.4159 H   0  0  0  0  0  0  0  0  0  0  0  0
  146.2410  139.8218  154.5161 H   0  0  0  0  0  0  0  0  0  0  0  0
  146.7969  136.2565  151.6269 H   0  0  0  0  0  0  0  0  0  0  0  0
  144.0871  136.8071  151.2397 H   0  0  0  0  0  0  0  0  0  0  0  0
  144.5693  135.0717  153.6695 H   0  0  0  0  0  0  0  0  0  0  0  0
  143.4499  136.4269  153.5198 H   0  0  0  0  0  0  0  0  0  0  0  0
  142.5977  133.8678  153.1014 H   0  0  0  0  0  0  0  0  0  0  0  0
  141.9878  135.1729  152.0964 H   0  0  0  0  0  0  0  0  0  0  0  0
  143.9171  132.2219  152.1005 H   0  0  0  0  0  0  0  0  0  0  0  0
  142.5773  132.1839  150.9723 H   0  0  0  0  0  0  0  0  0  0  0  0
  144.5333  131.0147  149.9819 H   0  0  0  0  0  0  0  0  0  0  0  0
  144.1872  132.4614  149.0712 H   0  0  0  0  0  0  0  0  0  0  0  0
  146.5651  131.8333  150.7739 H   0  0  0  0  0  0  0  0  0  0  0  0
  146.4539  132.7940  149.3239 H   0  0  0  0  0  0  0  0  0  0  0  0
  146.0377  133.6025  152.2038 H   0  0  0  0  0  0  0  0  0  0  0  0
  146.9419  134.4157  150.9553 H   0  0  0  0  0  0  0  0  0  0  0  0
  144.8018  135.0778  149.8420 H   0  0  0  0  0  0  0  0  0  0  0  0
  142.8818  134.3377  150.3893 H   0  0  0  0  0  0  0  0  0  0  0  0
  147.1945  141.4667  155.8188 H   0  0  0  0  0  0  0  0  0  0  0  0
  1  2  2  0  0  0  0
  2  3  1  0  0  0  0
  2 15  1  0  0  0  0
  3  4  1  0  0  0  0
  3 25  1  0  0  0  0
  4 14  1  0  0  0  0
  4  5  2  0  0  0  0
  5  6  1  0  0  0  0
  5 26  1  0  0  0  0
  6  7  2  0  0  0  0
  6 27  1  0  0  0  0
  7  8  1  0  0  0  0
  7 13  1  0  0  0  0
  8 12  1  0  0  0  0
  8  9  1  0  0  0  0
  9 10  1  0  0  0  0
  9 28  1  0  0  0  0
  9 29  1  0  0  0  0
 10 11  1  0  0  0  0
 10 30  1  0  0  0  0
 10 31  1  0  0  0  0
 11 12  1  0  0  0  0
 11 32  1  0  0  0  0
 11 33  1  0  0  0  0
 12 34  1  0  0  0  0
 12 35  1  0  0  0  0
 13 14  2  0  0  0  0
 13 53  1  0  0  0  0
 14 36  1  0  0  0  0
 15 16  1  0  0  0  0
 15 37  1  0  0  0  0
 16 24  1  0  0  0  0
 16 17  1  0  0  0  0
 16 38  1  0  0  0  0
 17 18  1  0  0  0  0
 17 39  1  0  0  0  0
 17 40  1  0  0  0  0
 18 19  1  0  0  0  0
 18 41  1  0  0  0  0
 18 42  1  0  0  0  0
 19 24  1  0  0  0  0
 19 20  1  0  0  0  0
 19 52  1  0  0  0  0
 20 21  1  0  0  0  0
 20 43  1  0  0  0  0
 20 44  1  0  0  0  0
 21 22  1  0  0  0  0
 21 45  1  0  0  0  0
 21 46  1  0  0  0  0
 22 23  1  0  0  0  0
 22 47  1  0  0  0  0
 22 48  1  0  0  0  0
 23 24  1  0  0  0  0
 23 49  1  0  0  0  0
 23 50  1  0  0  0  0
 24 51  1  0  0  0  0
M  CHG  1  13   1
M  CHG  1  19   1
M  END
> <s_m_source_file>
AV-unprocessed.smi

> <i_m_source_file_index>
1867

> <i_lp_mmshare_version>
43012

> <i_f3d_flags>
0

> <s_epik_input>
W0NIMl0xW0NIMl1bQ0gyXVtDSDJdW0NASF0oTjEyKVtDQEBIXShbQ0gyXVtDSDJdMilbTkhdQyg9TylbTkhdYzNbY0hdW2NIXWMobltjSF0zKU40W0NIMl1bQ0gyXVtDSDJdW0NIMl00

> <s_epik_cmdline>
J2VwaWtfcHl0aG9uJywgJy1waCcsICc3LjAnLCAnLXRuJywgJzgnLCAnLW1hJywgJzIwMCcsICctbWV0YWxfYmluZGluZycsICctaW1hZScsICc8aW5maWxlLm1hZT4nLCAnLW9tYWUnLCAnPG91dGZpbGUubWFlPic=

> <r_lp_tautomer_probability>
0.999994

> <r_epik_Ionization_Penalty>
1.27347

> <r_epik_Ionization_Penalty_Charging>
1.27345

> <r_epik_Ionization_Penalty_Neutral>
1.96458e-05

> <r_epik_State_Penalty>
1.34393

> <r_epik_Charging_Adjusted_Penalty>
2.61738

> <i_epik_Tot_Q>
2

> <i_epik_Tot_abs_Q>
2

> <r_epik_Metal_State_Penalty>
1.41094

> <b_epik_Metal_Only>
0

> <s_lp_Force_Field>
OPLS_2005

> <r_lp_Energy>
89.9373

> <b_lp_Chiralities_Consistent>
1

> <s_lp_Variant>
AV-unprocessed.smi:1867-13

> <Gold.Version>
5.8.1

> <Gold.Id.Protein>
6NUR|6NUR_protein|mol2

> <Gold.PLP.Fitness>
50.4882

> <Gold.PLP.PLP>
-40.0796

> <Gold.PLP.part.hbond>
-2.9597

> <Gold.PLP.part.metal>
0.0000

> <Gold.PLP.part.buried>
-6.0355

> <Gold.PLP.part.nonpolar>
-32.9322

> <Gold.PLP.part.repulsive>
1.6995

> <Gold.PLP.ligand.clash>
0.0000

> <Gold.PLP.ligand.torsion>
0.1213

> <Gold.PLP.Chemscore.Hbond>
3.5439

> <Gold.PLP.Chemscore.CHOScore>
0.0000

> <Gold.PLP.Chemscore.Metal>
0.0000

> <Gold.Chemscore.Hbonds>
donor molecule, donor type, donor heavy atom, donor atom, acceptor molecule, acceptor atom, score
      L1  H     3    25       P1  7948  0.99
      L1  H    15    37       P1  7948  0.57
      L1  H    19    52       P1 10186  1.92

> <Gold.PLP.Chemscore.Internal.Correction>
0.0195

> <Gold.Rescore>
     Score         DG    S(hbond)    S(metal)    S(lipo)     H(rot)  DE(clash)    DE(int)     intcor
     18.70     -21.73       2.23        0.00     101.43       1.20       0.33       2.70       ----

> <Gold.Chemscore.Fitness>
18.6966

> <Gold.Chemscore.DG>
-21.7254

> <Gold.Chemscore.ZeroCoef>
-5.4800

> <Gold.Chemscore.Hbond>
2.2267

> <Gold.Chemscore.Metal>
0.0000

> <Gold.Chemscore.Lipo>
101.4313

> <Gold.Chemscore.Internal_Hbond>
0.0000

> <Gold.Chemscore.DEClash>
0.3336

> <Gold.Chemscore.DEInternal>
2.6953

> <Gold.Chemscore.Rot>
1.1950

> <Gold.Chemscore.Internal.Correction>
   9.000000E+99

> <Gold.Chemscore.Hbonds>
donor molecule, donor type, donor heavy atom, donor atom, acceptor molecule, acceptor atom, score
      L1  H     3    25       P1  7948  0.92
      L1  H    15    37       P1  7948  0.57
      L1  H    19    52       P1 10186  0.64

> <Gold.Chemscore.Hbond.Weighted>
-7.4372

> <Gold.Chemscore.Metal.Weighted>
-0.0000

> <Gold.Chemscore.Lipo.Weighted>
-11.8675

> <Gold.Chemscore.Internal_Hbond.Weighted>
0.0000

> <Gold.Chemscore.DEClash.Weighted>
0.3336

> <Gold.Chemscore.DEInternal.Weighted>
2.6953

> <Gold.Chemscore.Rot.Weighted>
3.0593

> <Gold.Chemscore.Internal.Correction.Weighted>
   9.000000E+99

> <Gold.Protein.RotatedTorsions>
[ 6907 6896 6895 6894 ] final   99.65 input  -60.11 | X-H torsion
[ 7974 7965 7964 7962 ] final   21.43 input  175.53 | X-H torsion
[ 8008 7997 7996 7995 ] final  -52.43 input   59.86 | X-H torsion
[ 10167 10162 10161 10158 ] final -159.17 input  -65.29 | X-H torsion
[ 10718 10713 10712 10709 ] final   92.99 input   66.30 | X-H torsion
[ 10763 10752 10751 10750 ] final  -33.85 input  -60.55 | X-H torsion
[ 11005 11000 10999 10996 ] final  -57.16 input  -57.11 | X-H torsion

> <Gold.Protein.ActiveResidues>
 VAL166  LYS551  ARG553  GLY616  TRP617  ASP618  TYR619  PRO620  LYS621  CYS622 
 ASP623  PHE694  ASN695  SER759  ASP760  ASP761  ALA762  ILE779  LEU786  VAL792 
 PHE793  MET794  SER795  GLU796  ALA797  LYS798  CYS799  TRP800  GLU811  SER814 

> <Gold.Protein.RotatedAtoms>
  152.5388  134.0397  159.8061 H   0  0  0  0  0  0  0  0  0  0  0  0  # atno 6907 bound_to 6896
  151.0555  133.5580  159.2646 H   0  0  0  0  0  0  0  0  0  0  0  0  # atno 6908 bound_to 6896
  151.2499  135.0626  159.9111 H   0  0  0  0  0  0  0  0  0  0  0  0  # atno 6909 bound_to 6896
  146.2071  139.8027  142.8717 H   0  0  0  0  0  0  0  0  0  0  0  0  # atno 7974 bound_to 7965
  154.4106  140.1224  156.4990 H   0  0  0  0  0  0  0  0  0  0  0  0  # atno 8008 bound_to 7997
  155.6914  140.3495  155.4876 H   0  0  0  0  0  0  0  0  0  0  0  0  # atno 8009 bound_to 7997
  155.9465  140.1097  157.1002 H   0  0  0  0  0  0  0  0  0  0  0  0  # atno 8010 bound_to 7997
  139.6636  143.9869  152.2241 H   0  0  0  0  0  0  0  0  0  0  0  0  # atno 10167 bound_to 10162
  157.6956  131.0462  150.3966 H   0  0  0  0  0  0  0  0  0  0  0  0  # atno 10718 bound_to 10713
  153.8370  135.6861  153.4807 H   0  0  0  0  0  0  0  0  0  0  0  0  # atno 10763 bound_to 10752
  153.1476  135.4631  154.9588 H   0  0  0  0  0  0  0  0  0  0  0  0  # atno 10764 bound_to 10752
  154.7862  135.3285  154.7828 H   0  0  0  0  0  0  0  0  0  0  0  0  # atno 10765 bound_to 10752
  141.1152  133.6610  156.4727 H   0  0  0  0  0  0  0  0  0  0  0  0  # atno 11005 bound_to 11000
  145.3279  141.0259  143.3463 LP  0  0  0  0  0  0  0  0  0  0  0  0  # atno 17320 bound_to 7965
  144.8820  139.4891  143.6718 LP  0  0  0  0  0  0  0  0  0  0  0  0  # atno 17321 bound_to 7965
  139.9615  144.6555  150.8075 LP  0  0  0  0  0  0  0  0  0  0  0  0  # atno 17342 bound_to 10162
  140.7590  143.3119  151.2824 LP  0  0  0  0  0  0  0  0  0  0  0  0  # atno 17343 bound_to 10162
  156.4363  130.3982  149.6726 LP  0  0  0  0  0  0  0  0  0  0  0  0  # atno 17370 bound_to 10713
  156.3926  130.7634  151.2637 LP  0  0  0  0  0  0  0  0  0  0  0  0  # atno 17371 bound_to 10713
  140.4665  134.6793  157.5110 LP  0  0  0  0  0  0  0  0  0  0  0  0  # atno 17394 bound_to 11000
  140.0070  134.6749  155.9440 LP  0  0  0  0  0  0  0  0  0  0  0  0  # atno 17395 bound_to 11000

$$$$
