AV-unprocessed.smi:86|AV-procd|sdf|815|dock4
  -GOLD-   2262017213D 1   1.00000     0.00000
 Structure written by MMmdl.
 51 55  0  0  0  0  0  0  0  0  1 V2000
  146.9452  137.5020  160.7066 O   0  0  0  0  0  0  0  0  0  0  0  0
  147.4161  136.3643  160.0125 C   0  0  0  0  0  0  0  0  0  0  0  0
  146.8250  135.0661  160.5895 C   0  0  0  0  0  0  0  0  0  0  0  0
  147.2699  133.8425  159.7609 C   0  0  0  0  0  0  0  0  0  0  0  0
  147.0517  133.9797  158.3285 N   0  0  0  0  0  0  0  0  0  0  0  0
  148.0155  133.9588  157.3470 C   0  0  0  0  0  0  0  0  0  0  0  0
  147.5708  134.1006  156.1293 N   0  0  0  0  0  0  0  0  0  0  0  0
  146.1916  134.2135  156.2728 C   0  0  0  0  0  0  0  0  0  0  0  0
  145.0986  134.3816  155.3696 C   0  0  0  0  0  0  0  0  0  0  0  0
  145.2153  134.4713  154.0190 N   0  0  0  0  0  0  0  0  0  0  0  0
  146.4602  134.1628  153.3197 C   0  0  0  0  0  0  0  0  0  0  0  0
  146.0463  133.7437  151.9007 C   0  0  1  0  0  0  0  0  0  0  0  0
  145.9151  132.2085  151.7878 C   0  0  0  0  0  0  0  0  0  0  0  0
  145.1431  131.7830  150.5319 C   0  0  0  0  0  0  0  0  0  0  0  0
  143.7419  132.4125  150.5282 C   0  0  2  0  0  0  0  0  0  0  0  0
  143.0448  132.0074  149.3691 O   0  0  0  0  0  0  0  0  0  0  0  0
  143.8330  133.9470  150.5596 C   0  0  0  0  0  0  0  0  0  0  0  0
  144.7026  134.4702  151.7195 C   0  0  1  0  0  0  0  0  0  0  0  0
  144.0784  134.4036  153.1146 C   0  0  0  0  0  0  0  0  0  0  0  0
  143.8524  134.4389  155.9094 N   0  0  0  0  0  0  0  0  0  0  0  0
  143.6773  134.3467  157.2299 C   0  0  0  0  0  0  0  0  0  0  0  0
  144.5966  134.1939  158.1830 N   0  0  0  0  0  0  0  0  0  0  0  0
  145.8517  134.1331  157.6553 C   0  0  0  0  0  0  0  0  0  0  0  0
  146.9518  134.9239  162.1127 C   0  0  0  0  0  0  0  0  0  0  0  0
  145.5908  135.3556  162.3214 O   0  0  0  0  0  0  0  0  0  0  0  0
  145.3272  135.1485  160.9177 C   0  0  0  0  0  0  0  0  0  0  0  0
  146.2104  137.2435  161.2418 H   0  0  0  0  0  0  0  0  0  0  0  0
  147.1378  136.4771  158.9641 H   0  0  0  0  0  0  0  0  0  0  0  0
  148.5058  136.3557  160.0332 H   0  0  0  0  0  0  0  0  0  0  0  0
  148.3282  133.6354  159.9242 H   0  0  0  0  0  0  0  0  0  0  0  0
  146.7455  132.9455  160.0926 H   0  0  0  0  0  0  0  0  0  0  0  0
  149.0673  133.8423  157.5647 H   0  0  0  0  0  0  0  0  0  0  0  0
  147.0725  135.0646  153.2894 H   0  0  0  0  0  0  0  0  0  0  0  0
  147.0375  133.3803  153.8141 H   0  0  0  0  0  0  0  0  0  0  0  0
  146.7711  134.0913  151.1633 H   0  0  0  0  0  0  0  0  0  0  0  0
  146.9056  131.7527  151.7870 H   0  0  0  0  0  0  0  0  0  0  0  0
  145.4010  131.8120  152.6647 H   0  0  0  0  0  0  0  0  0  0  0  0
  145.6954  132.0842  149.6405 H   0  0  0  0  0  0  0  0  0  0  0  0
  145.0657  130.6957  150.5000 H   0  0  0  0  0  0  0  0  0  0  0  0
  143.1805  132.0586  151.3935 H   0  0  0  0  0  0  0  0  0  0  0  0
  142.3291  132.6073  149.2238 H   0  0  0  0  0  0  0  0  0  0  0  0
  144.2679  134.2945  149.6213 H   0  0  0  0  0  0  0  0  0  0  0  0
  142.8364  134.3869  150.6134 H   0  0  0  0  0  0  0  0  0  0  0  0
  144.9188  135.5216  151.5215 H   0  0  0  0  0  0  0  0  0  0  0  0
  143.5457  133.4647  153.2694 H   0  0  0  0  0  0  0  0  0  0  0  0
  143.3849  135.2295  153.2754 H   0  0  0  0  0  0  0  0  0  0  0  0
  142.6541  134.4018  157.5712 H   0  0  0  0  0  0  0  0  0  0  0  0
  147.1069  133.8980  162.4514 H   0  0  0  0  0  0  0  0  0  0  0  0
  147.6806  135.5970  162.5656 H   0  0  0  0  0  0  0  0  0  0  0  0
  144.8148  135.9922  160.4541 H   0  0  0  0  0  0  0  0  0  0  0  0
  144.7789  134.2208  160.7500 H   0  0  0  0  0  0  0  0  0  0  0  0
  1  2  1  0  0  0  0
  1 27  1  0  0  0  0
  2  3  1  0  0  0  0
  2 28  1  0  0  0  0
  2 29  1  0  0  0  0
  3 26  1  0  0  0  0
  3  4  1  0  0  0  0
  3 24  1  0  0  0  0
  4  5  1  0  0  0  0
  4 30  1  0  0  0  0
  4 31  1  0  0  0  0
  5 23  1  0  0  0  0
  5  6  1  0  0  0  0
  6  7  2  0  0  0  0
  6 32  1  0  0  0  0
  7  8  1  0  0  0  0
  8 23  2  0  0  0  0
  8  9  1  0  0  0  0
  9 10  1  0  0  0  0
  9 20  2  0  0  0  0
 10 19  1  0  0  0  0
 10 11  1  0  0  0  0
 11 12  1  0  0  0  0
 11 33  1  0  0  0  0
 11 34  1  0  0  0  0
 12 18  1  0  0  0  0
 12 13  1  0  0  0  0
 12 35  1  0  0  0  0
 13 14  1  0  0  0  0
 13 36  1  0  0  0  0
 13 37  1  0  0  0  0
 14 15  1  0  0  0  0
 14 38  1  0  0  0  0
 14 39  1  0  0  0  0
 15 16  1  0  0  0  0
 15 17  1  0  0  0  0
 15 40  1  0  0  0  0
 16 41  1  0  0  0  0
 17 18  1  0  0  0  0
 17 42  1  0  0  0  0
 17 43  1  0  0  0  0
 18 19  1  0  0  0  0
 18 44  1  0  0  0  0
 19 45  1  0  0  0  0
 19 46  1  0  0  0  0
 20 21  1  0  0  0  0
 21 22  2  0  0  0  0
 21 47  1  0  0  0  0
 22 23  1  0  0  0  0
 24 25  1  0  0  0  0
 24 48  1  0  0  0  0
 24 49  1  0  0  0  0
 25 26  1  0  0  0  0
 26 50  1  0  0  0  0
 26 51  1  0  0  0  0
M  END
> <s_m_source_file>
AV-unprocessed.smi

> <i_m_source_file_index>
86

> <i_lp_mmshare_version>
43012

> <i_f3d_flags>
0

> <s_epik_input>
W0NIMl0xT1tDSDJdQzEoW0NIMl1bT0hdKVtDSDJdbihbY0hdbjIpYyhjMjMpbltjSF1uYzNOKFtDSDJdNClbQ0gyXVtDQEBIXShbQ0BIXTQ1KVtDSDJdW0NASF0oW09IXSlbQ0gyXVtDSDJdNQ==

> <s_epik_cmdline>
J2VwaWtfcHl0aG9uJywgJy1waCcsICc3LjAnLCAnLXRuJywgJzgnLCAnLW1hJywgJzIwMCcsICctbWV0YWxfYmluZGluZycsICctaW1hZScsICc8aW5maWxlLm1hZT4nLCAnLW9tYWUnLCAnPG91dGZpbGUubWFlPic=

> <r_lp_tautomer_probability>
1

> <r_epik_Ionization_Penalty>
0.00425795

> <r_epik_Ionization_Penalty_Charging>
0

> <r_epik_Ionization_Penalty_Neutral>
0.00425795

> <r_epik_State_Penalty>
0.00299946

> <r_epik_Charging_Adjusted_Penalty>
0.00299946

> <i_epik_Tot_Q>
0

> <i_epik_Tot_abs_Q>
0

> <r_epik_Metal_State_Penalty>
-0

> <b_epik_Metal_Only>
0

> <s_lp_Force_Field>
OPLS_2005

> <r_lp_Energy>
53.5729

> <b_lp_Chiralities_Consistent>
1

> <s_lp_Variant>
AV-unprocessed.smi:86-4

> <Gold.Version>
5.8.1

> <Gold.Id.Protein>
6NUR|6NUR_protein|mol2

> <Gold.PLP.Fitness>
41.8293

> <Gold.PLP.PLP>
-30.8740

> <Gold.PLP.part.hbond>
-4.6109

> <Gold.PLP.part.metal>
0.0000

> <Gold.PLP.part.buried>
-5.0259

> <Gold.PLP.part.nonpolar>
-22.3946

> <Gold.PLP.part.repulsive>
0.1109

> <Gold.PLP.ligand.clash>
0.0000

> <Gold.PLP.ligand.torsion>
0.2931

> <Gold.PLP.Chemscore.Hbond>
2.8050

> <Gold.PLP.Chemscore.CHOScore>
0.8836

> <Gold.PLP.Chemscore.Metal>
0.0000

> <Gold.Chemscore.Hbonds>
donor molecule, donor type, donor heavy atom, donor atom, acceptor molecule, acceptor atom, score
      L1  H    16    41       P1 10186  0.44
      P1  H  6934  6947       L1     1  1.00
      P1  H 10785 10796       L1    16  1.00
      L1  C    21    47       P1 11000  1.00

> <Gold.PLP.Chemscore.Internal.Correction>
0.4758

> <Gold.Rescore>
     Score         DG    S(hbond)    S(metal)    S(lipo)     H(rot)  DE(clash)    DE(int)     intcor
     12.55     -14.99       2.39        0.00      73.45       2.76       0.02       2.42       ----

> <Gold.Chemscore.Fitness>
12.5504

> <Gold.Chemscore.DG>
-14.9858

> <Gold.Chemscore.ZeroCoef>
-5.4800

> <Gold.Chemscore.Hbond>
2.3909

> <Gold.Chemscore.Metal>
0.0000

> <Gold.Chemscore.Lipo>
73.4478

> <Gold.Chemscore.Internal_Hbond>
0.0000

> <Gold.Chemscore.DEClash>
0.0199

> <Gold.Chemscore.DEInternal>
2.4154

> <Gold.Chemscore.Rot>
2.7630

> <Gold.Chemscore.Internal.Correction>
   9.000000E+99

> <Gold.Chemscore.Hbonds>
donor molecule, donor type, donor heavy atom, donor atom, acceptor molecule, acceptor atom, score
      L1  H    16    41       P1 10186  0.43
      P1  H  6934  6947       L1     1  0.62
      P1  H 10785 10796       L1    16  0.95

> <Gold.Chemscore.Hbond.Weighted>
-7.9858

> <Gold.Chemscore.Metal.Weighted>
-0.0000

> <Gold.Chemscore.Lipo.Weighted>
-8.5934

> <Gold.Chemscore.Internal_Hbond.Weighted>
0.0000

> <Gold.Chemscore.DEClash.Weighted>
0.0199

> <Gold.Chemscore.DEInternal.Weighted>
2.4154

> <Gold.Chemscore.Rot.Weighted>
7.0734

> <Gold.Chemscore.Internal.Correction.Weighted>
   9.000000E+99

> <Gold.Protein.RotatedTorsions>
[ 6907 6896 6895 6894 ] final  -85.61 input  -60.11 | X-H torsion
[ 7974 7965 7964 7962 ] final   41.99 input  175.53 | X-H torsion
[ 8008 7997 7996 7995 ] final  173.13 input   59.86 | X-H torsion
[ 10167 10162 10161 10158 ] final   18.25 input  -65.29 | X-H torsion
[ 10718 10713 10712 10709 ] final  132.18 input   66.30 | X-H torsion
[ 10763 10752 10751 10750 ] final -149.42 input  -60.55 | X-H torsion
[ 11005 11000 10999 10996 ] final   81.88 input  -57.11 | X-H torsion

> <Gold.Protein.ActiveResidues>
 VAL166  LYS551  ARG553  GLY616  TRP617  ASP618  TYR619  PRO620  LYS621  CYS622 
 ASP623  PHE694  ASN695  SER759  ASP760  ASP761  ALA762  ILE779  LEU786  VAL792 
 PHE793  MET794  SER795  GLU796  ALA797  LYS798  CYS799  TRP800  GLU811  SER814 

> <Gold.Protein.RotatedAtoms>
  150.6869  134.3179  159.4773 H   0  0  0  0  0  0  0  0  0  0  0  0  # atno 6907 bound_to 6896
  152.1058  134.9307  160.0577 H   0  0  0  0  0  0  0  0  0  0  0  0  # atno 6908 bound_to 6896
  152.0569  133.4009  159.4438 H   0  0  0  0  0  0  0  0  0  0  0  0  # atno 6909 bound_to 6896
  146.0778  139.5352  142.9556 H   0  0  0  0  0  0  0  0  0  0  0  0  # atno 7974 bound_to 7965
  156.1106  140.1468  156.9343 H   0  0  0  0  0  0  0  0  0  0  0  0  # atno 8008 bound_to 7997
  154.4764  140.0893  156.7316 H   0  0  0  0  0  0  0  0  0  0  0  0  # atno 8009 bound_to 7997
  155.4602  140.3438  155.4314 H   0  0  0  0  0  0  0  0  0  0  0  0  # atno 8010 bound_to 7997
  140.5667  143.9238  150.6682 H   0  0  0  0  0  0  0  0  0  0  0  0  # atno 10167 bound_to 10162
  157.4896  131.1090  150.9574 H   0  0  0  0  0  0  0  0  0  0  0  0  # atno 10718 bound_to 10713
  154.8178  135.3309  154.7126 H   0  0  0  0  0  0  0  0  0  0  0  0  # atno 10763 bound_to 10752
  153.7764  135.6922  153.4901 H   0  0  0  0  0  0  0  0  0  0  0  0  # atno 10764 bound_to 10752
  153.2010  135.4516  155.0214 H   0  0  0  0  0  0  0  0  0  0  0  0  # atno 10765 bound_to 10752
  139.9083  134.8030  156.2100 H   0  0  0  0  0  0  0  0  0  0  0  0  # atno 11005 bound_to 11000
  145.6274  141.0311  143.1882 LP  0  0  0  0  0  0  0  0  0  0  0  0  # atno 17320 bound_to 7965
  144.7273  139.7835  143.7360 LP  0  0  0  0  0  0  0  0  0  0  0  0  # atno 17321 bound_to 7965
  140.2702  143.3461  152.1244 LP  0  0  0  0  0  0  0  0  0  0  0  0  # atno 17342 bound_to 10162
  139.5096  144.6871  151.5859 LP  0  0  0  0  0  0  0  0  0  0  0  0  # atno 17343 bound_to 10162
  157.0280  130.5700  149.5339 LP  0  0  0  0  0  0  0  0  0  0  0  0  # atno 17370 bound_to 10713
  156.0166  130.5260  150.8153 LP  0  0  0  0  0  0  0  0  0  0  0  0  # atno 17371 bound_to 10713
  141.0471  133.6907  156.1704 LP  0  0  0  0  0  0  0  0  0  0  0  0  # atno 17394 bound_to 11000
  140.6867  134.4710  157.5589 LP  0  0  0  0  0  0  0  0  0  0  0  0  # atno 17395 bound_to 11000

$$$$
