AV-unprocessed.smi:1055|AV-procd|sdf|4629|dock10
  -GOLD-   22720 3133D 1   1.00000     0.00000
 Structure written by MMmdl.
 50 51  0  0  0  0  0  0  0  0  1 V2000
  151.8679  140.1487  156.4562 C   0  0  0  0  0  0  0  0  0  0  0  0
  151.4331  141.0571  157.3448 C   0  0  0  0  0  0  0  0  0  0  0  0
  152.2794  141.4962  158.5251 C   0  0  0  0  0  0  0  0  0  0  0  0
  150.0712  141.7232  157.2121 C   0  0  0  0  0  0  0  0  0  0  0  0
  149.1522  141.0048  156.3289 N   0  0  0  0  0  0  0  0  0  0  0  0
  149.1702  141.5564  154.9693 C   0  0  0  0  0  0  0  0  0  0  0  0
  148.2449  140.7437  154.0473 C   0  0  0  0  0  0  0  0  0  0  0  0
  146.8033  140.7246  154.5837 C   0  0  0  0  0  0  0  0  0  0  0  0
  145.9604  139.8397  153.7851 N   0  0  0  0  0  0  0  0  0  0  0  0
  146.2025  138.5413  153.5562 C   0  0  0  0  0  0  0  0  0  0  0  0
  147.1861  137.9464  153.9960 O   0  0  0  0  0  0  0  0  0  0  0  0
  145.2479  137.9999  152.7802 N   0  0  0  0  0  0  0  0  0  0  0  0
  145.1267  136.6564  152.3337 C   0  0  0  0  0  0  0  0  0  0  0  0
  143.8776  136.2319  151.8428 C   0  0  0  0  0  0  0  0  0  0  0  0
  143.7214  134.9017  151.4095 C   0  0  0  0  0  0  0  0  0  0  0  0
  144.8243  134.0153  151.4853 C   0  0  0  0  0  0  0  0  0  0  0  0
  144.7212  132.6707  151.0608 N   0  0  0  0  0  0  0  0  0  0  0  0
  143.4856  132.1834  150.4602 C   0  0  0  0  0  0  0  0  0  0  0  0
  145.8753  131.7843  151.1708 C   0  0  0  0  0  0  0  0  0  0  0  0
  146.0212  134.4236  151.9737 N   0  0  0  0  0  0  0  0  0  0  0  0
  146.1676  135.7001  152.3863 C   0  0  0  0  0  0  0  0  0  0  0  0
  146.8195  140.2536  156.0451 C   0  0  0  0  0  0  0  0  0  0  0  0
  147.8001  141.0910  156.8842 C   0  0  0  0  0  0  0  0  0  0  0  0
  152.8398  139.6880  156.5547 H   0  0  0  0  0  0  0  0  0  0  0  0
  151.2577  139.8511  155.6161 H   0  0  0  0  0  0  0  0  0  0  0  0
  152.4468  142.5726  158.4891 H   0  0  0  0  0  0  0  0  0  0  0  0
  153.2511  141.0013  158.5239 H   0  0  0  0  0  0  0  0  0  0  0  0
  151.7810  141.2573  159.4649 H   0  0  0  0  0  0  0  0  0  0  0  0
  149.6352  141.7871  158.2100 H   0  0  0  0  0  0  0  0  0  0  0  0
  150.1973  142.7472  156.8565 H   0  0  0  0  0  0  0  0  0  0  0  0
  148.8633  142.6033  154.9868 H   0  0  0  0  0  0  0  0  0  0  0  0
  150.1799  141.5273  154.5601 H   0  0  0  0  0  0  0  0  0  0  0  0
  148.2678  141.1675  153.0427 H   0  0  0  0  0  0  0  0  0  0  0  0
  148.6256  139.7246  153.9610 H   0  0  0  0  0  0  0  0  0  0  0  0
  146.3960  141.7373  154.5534 H   0  0  0  0  0  0  0  0  0  0  0  0
  145.1298  140.2473  153.3811 H   0  0  0  0  0  0  0  0  0  0  0  0
  144.5479  138.6369  152.4293 H   0  0  0  0  0  0  0  0  0  0  0  0
  143.0442  136.9175  151.7930 H   0  0  0  0  0  0  0  0  0  0  0  0
  142.7603  134.5895  151.0300 H   0  0  0  0  0  0  0  0  0  0  0  0
  142.6618  132.2503  151.1716 H   0  0  0  0  0  0  0  0  0  0  0  0
  143.5763  131.1408  150.1544 H   0  0  0  0  0  0  0  0  0  0  0  0
  143.2323  132.7677  149.5750 H   0  0  0  0  0  0  0  0  0  0  0  0
  146.1998  131.7047  152.2088 H   0  0  0  0  0  0  0  0  0  0  0  0
  146.7069  132.1627  150.5755 H   0  0  0  0  0  0  0  0  0  0  0  0
  145.6415  130.7799  150.8178 H   0  0  0  0  0  0  0  0  0  0  0  0
  147.1426  135.9343  152.7837 H   0  0  0  0  0  0  0  0  0  0  0  0
  145.8182  140.3235  156.4715 H   0  0  0  0  0  0  0  0  0  0  0  0
  147.1062  139.2020  156.0974 H   0  0  0  0  0  0  0  0  0  0  0  0
  147.8015  140.7189  157.9095 H   0  0  0  0  0  0  0  0  0  0  0  0
  147.4740  142.1317  156.9220 H   0  0  0  0  0  0  0  0  0  0  0  0
  1  2  2  0  0  0  0
  1 24  1  0  0  0  0
  1 25  1  0  0  0  0
  2  3  1  0  0  0  0
  2  4  1  0  0  0  0
  3 26  1  0  0  0  0
  3 27  1  0  0  0  0
  3 28  1  0  0  0  0
  4  5  1  0  0  0  0
  4 29  1  0  0  0  0
  4 30  1  0  0  0  0
  5 23  1  0  0  0  0
  5  6  1  0  0  0  0
  6  7  1  0  0  0  0
  6 31  1  0  0  0  0
  6 32  1  0  0  0  0
  7  8  1  0  0  0  0
  7 33  1  0  0  0  0
  7 34  1  0  0  0  0
  8  9  1  0  0  0  0
  8 22  1  0  0  0  0
  8 35  1  0  0  0  0
  9 10  1  0  0  0  0
  9 36  1  0  0  0  0
 10 11  2  0  0  0  0
 10 12  1  0  0  0  0
 12 13  1  0  0  0  0
 12 37  1  0  0  0  0
 13 21  1  0  0  0  0
 13 14  2  0  0  0  0
 14 15  1  0  0  0  0
 14 38  1  0  0  0  0
 15 16  2  0  0  0  0
 15 39  1  0  0  0  0
 16 17  1  0  0  0  0
 16 20  1  0  0  0  0
 17 18  1  0  0  0  0
 17 19  1  0  0  0  0
 18 40  1  0  0  0  0
 18 41  1  0  0  0  0
 18 42  1  0  0  0  0
 19 43  1  0  0  0  0
 19 44  1  0  0  0  0
 19 45  1  0  0  0  0
 20 21  2  0  0  0  0
 21 46  1  0  0  0  0
 22 23  1  0  0  0  0
 22 47  1  0  0  0  0
 22 48  1  0  0  0  0
 23 49  1  0  0  0  0
 23 50  1  0  0  0  0
M  END
> <s_m_source_file>
AV-unprocessed.smi

> <i_m_source_file_index>
1055

> <i_lp_mmshare_version>
43012

> <i_f3d_flags>
0

> <s_epik_input>
W0NIMl09QyhbQ0gzXSlbQ0gyXU4xW0NIMl1bQ0gyXVtDSF0oW0NIMl1bQ0gyXTEpW05IXUMoPU8pW05IXWMyW2NIXVtjSF1jKE4oW0NIM10pW0NIM10pbltjSF0y

> <s_epik_cmdline>
J2VwaWtfcHl0aG9uJywgJy1waCcsICc3LjAnLCAnLXRuJywgJzgnLCAnLW1hJywgJzIwMCcsICctbWV0YWxfYmluZGluZycsICctaW1hZScsICc8aW5maWxlLm1hZT4nLCAnLW9tYWUnLCAnPG91dGZpbGUubWFlPic=

> <r_epik_Ionization_Penalty>
2.66572

> <r_epik_Ionization_Penalty_Charging>
0

> <r_epik_Ionization_Penalty_Neutral>
2.66572

> <r_epik_State_Penalty>
2.75204

> <r_epik_Charging_Adjusted_Penalty>
2.75204

> <i_epik_Tot_Q>
0

> <i_epik_Tot_abs_Q>
0

> <r_epik_Metal_State_Penalty>
2.38689

> <b_epik_Metal_Only>
1

> <s_lp_Force_Field>
OPLS_2005

> <r_lp_Energy>
18.8719

> <b_lp_Chiralities_Consistent>
1

> <s_lp_Variant>
AV-unprocessed.smi:1055-6

> <Gold.Version>
5.8.1

> <Gold.Id.Protein>
6NUR|6NUR_protein|mol2

> <Gold.PLP.Fitness>
40.2121

> <Gold.PLP.PLP>
-32.8386

> <Gold.PLP.part.hbond>
-2.0000

> <Gold.PLP.part.metal>
0.0000

> <Gold.PLP.part.buried>
-3.0561

> <Gold.PLP.part.nonpolar>
-28.9746

> <Gold.PLP.part.repulsive>
0.3310

> <Gold.PLP.ligand.clash>
0.0000

> <Gold.PLP.ligand.torsion>
0.8186

> <Gold.PLP.Chemscore.Hbond>
2.0000

> <Gold.PLP.Chemscore.CHOScore>
1.0000

> <Gold.PLP.Chemscore.Metal>
0.0000

> <Gold.Chemscore.Hbonds>
donor molecule, donor type, donor heavy atom, donor atom, acceptor molecule, acceptor atom, score
      L1  H     9    36       P1 10175  1.00
      L1  H    12    37       P1 10175  1.00
      L1  C    21    46       P1  7948  1.00

> <Gold.PLP.Chemscore.Internal.Correction>
0.0106

> <Gold.Rescore>
     Score         DG    S(hbond)    S(metal)    S(lipo)     H(rot)  DE(clash)    DE(int)     intcor
     15.41     -18.68       1.94        0.00      85.98       1.30       0.21       3.06       ----

> <Gold.Chemscore.Fitness>
15.4143

> <Gold.Chemscore.DG>
-18.6807

> <Gold.Chemscore.ZeroCoef>
-5.4800

> <Gold.Chemscore.Hbond>
1.9387

> <Gold.Chemscore.Metal>
0.0000

> <Gold.Chemscore.Lipo>
85.9835

> <Gold.Chemscore.Internal_Hbond>
0.0000

> <Gold.Chemscore.DEClash>
0.2063

> <Gold.Chemscore.DEInternal>
3.0601

> <Gold.Chemscore.Rot>
1.3027

> <Gold.Chemscore.Internal.Correction>
   9.000000E+99

> <Gold.Chemscore.Hbonds>
donor molecule, donor type, donor heavy atom, donor atom, acceptor molecule, acceptor atom, score
      L1  H     9    36       P1 10175  1.00
      L1  H    12    37       P1 10175  0.91

> <Gold.Chemscore.Hbond.Weighted>
-6.4754

> <Gold.Chemscore.Metal.Weighted>
-0.0000

> <Gold.Chemscore.Lipo.Weighted>
-10.0601

> <Gold.Chemscore.Internal_Hbond.Weighted>
0.0000

> <Gold.Chemscore.DEClash.Weighted>
0.2063

> <Gold.Chemscore.DEInternal.Weighted>
3.0601

> <Gold.Chemscore.Rot.Weighted>
3.3348

> <Gold.Chemscore.Internal.Correction.Weighted>
   9.000000E+99

> <Gold.Protein.RotatedTorsions>
[ 6907 6896 6895 6894 ] final   28.74 input  -60.11 | X-H torsion
[ 7974 7965 7964 7962 ] final -107.58 input  175.53 | X-H torsion
[ 8008 7997 7996 7995 ] final   80.41 input   59.86 | X-H torsion
[ 10167 10162 10161 10158 ] final   36.76 input  -65.29 | X-H torsion
[ 10718 10713 10712 10709 ] final   32.33 input   66.30 | X-H torsion
[ 10763 10752 10751 10750 ] final  124.70 input  -60.55 | X-H torsion
[ 11005 11000 10999 10996 ] final  122.76 input  -57.11 | X-H torsion

> <Gold.Protein.ActiveResidues>
 VAL166  LYS551  ARG553  GLY616  TRP617  ASP618  TYR619  PRO620  LYS621  CYS622 
 ASP623  PHE694  ASN695  SER759  ASP760  ASP761  ALA762  ILE779  LEU786  VAL792 
 PHE793  MET794  SER795  GLU796  ALA797  LYS798  CYS799  TRP800  GLU811  SER814 

> <Gold.Protein.RotatedAtoms>
  152.0214  134.9820  160.0570 H   0  0  0  0  0  0  0  0  0  0  0  0  # atno 6907 bound_to 6896
  152.1333  133.4416  159.4740 H   0  0  0  0  0  0  0  0  0  0  0  0  # atno 6908 bound_to 6896
  150.6858  134.2312  159.4478 H   0  0  0  0  0  0  0  0  0  0  0  0  # atno 6909 bound_to 6896
  145.2035  140.9066  143.3355 H   0  0  0  0  0  0  0  0  0  0  0  0  # atno 7974 bound_to 7965
  155.8831  140.3443  155.5902 H   0  0  0  0  0  0  0  0  0  0  0  0  # atno 8008 bound_to 7997
  155.7697  140.0843  157.2133 H   0  0  0  0  0  0  0  0  0  0  0  0  # atno 8009 bound_to 7997
  154.4026  140.1520  156.2915 H   0  0  0  0  0  0  0  0  0  0  0  0  # atno 8010 bound_to 7997
  140.4097  144.1609  150.6138 H   0  0  0  0  0  0  0  0  0  0  0  0  # atno 10167 bound_to 10162
  157.2839  130.7269  149.6572 H   0  0  0  0  0  0  0  0  0  0  0  0  # atno 10718 bound_to 10713
  153.6655  135.3339  155.3139 H   0  0  0  0  0  0  0  0  0  0  0  0  # atno 10763 bound_to 10752
  154.8504  135.4374  154.1760 H   0  0  0  0  0  0  0  0  0  0  0  0  # atno 10764 bound_to 10752
  153.2737  135.7002  153.7530 H   0  0  0  0  0  0  0  0  0  0  0  0  # atno 10765 bound_to 10752
  139.9282  134.9641  156.8157 H   0  0  0  0  0  0  0  0  0  0  0  0  # atno 11005 bound_to 11000
  144.9924  139.3676  143.6208 LP  0  0  0  0  0  0  0  0  0  0  0  0  # atno 17320 bound_to 7965
  146.3412  139.9113  142.8780 LP  0  0  0  0  0  0  0  0  0  0  0  0  # atno 17321 bound_to 7965
  140.4651  143.2434  151.9166 LP  0  0  0  0  0  0  0  0  0  0  0  0  # atno 17342 bound_to 10162
  139.4783  144.5428  151.8503 LP  0  0  0  0  0  0  0  0  0  0  0  0  # atno 17343 bound_to 10162
  155.9665  130.4329  150.4986 LP  0  0  0  0  0  0  0  0  0  0  0  0  # atno 17370 bound_to 10713
  157.2935  131.0631  151.2118 LP  0  0  0  0  0  0  0  0  0  0  0  0  # atno 17371 bound_to 10713
  140.6275  133.9936  155.7646 LP  0  0  0  0  0  0  0  0  0  0  0  0  # atno 17394 bound_to 11000
  141.0854  133.9998  157.3321 LP  0  0  0  0  0  0  0  0  0  0  0  0  # atno 17395 bound_to 11000

$$$$
