AV-unprocessed.smi:29|AV-procd|sdf|191|dock1
  -GOLD-   2262015453D 1   1.00000     0.00000
 Structure written by MMmdl.
 56 59  0  0  0  0  0  0  0  0  1 V2000
  149.5400  138.1036  159.7185 O   0  0  0  0  0  0  0  0  0  0  0  0
  149.8266  137.6199  158.6233 C   0  0  0  0  0  0  0  0  0  0  0  0
  150.6797  138.4198  157.6271 C   0  0  0  0  0  0  0  0  0  0  0  0
  151.3070  139.6144  158.2318 N   0  0  0  0  0  0  0  0  0  0  0  0
  152.4054  139.4440  159.1111 C   0  0  0  0  0  0  0  0  0  0  0  0
  152.8316  138.3229  159.3916 O   0  0  0  0  0  0  0  0  0  0  0  0
  152.9869  140.6735  159.6382 C   0  0  0  0  0  0  0  0  0  0  0  0
  154.0391  140.6082  160.4716 F   0  0  0  0  0  0  0  0  0  0  0  0
  152.4882  141.8796  159.2976 C   0  0  0  0  0  0  0  0  0  0  0  0
  151.4109  142.0301  158.4437 N   0  0  0  0  0  0  0  0  0  0  0  0
  150.8847  143.3984  158.0716 C   0  0  2  0  0  0  0  0  0  0  0  0
  151.9958  144.2364  157.4289 C   0  0  0  0  0  0  0  0  0  0  0  0
  152.5388  144.9971  158.6189 C   0  0  0  0  0  0  0  0  0  0  0  0
  151.2748  145.2238  159.4405 C   0  0  0  0  0  0  0  0  0  0  0  0
  150.4746  144.0625  159.2326 O   0  0  0  0  0  0  0  0  0  0  0  0
  150.8037  140.8888  157.8773 C   0  0  0  0  0  0  0  0  0  0  0  0
  149.8649  141.0022  157.0858 O   0  0  0  0  0  0  0  0  0  0  0  0
  149.4129  136.4184  158.1825 N   0  0  0  0  0  0  0  0  0  0  0  0
  148.6051  135.4384  158.8304 C   0  0  0  0  0  0  0  0  0  0  0  0
  147.9731  135.6635  160.0785 C   0  0  0  0  0  0  0  0  0  0  0  0
  147.1939  134.6590  160.6887 C   0  0  0  0  0  0  0  0  0  0  0  0
  146.5280  134.9394  162.0277 C   0  0  0  0  0  0  0  0  0  0  0  0
  145.9183  133.8590  162.5176 F   0  0  0  0  0  0  0  0  0  0  0  0
  147.4436  135.3409  162.9095 F   0  0  0  0  0  0  0  0  0  0  0  0
  145.6231  135.9062  161.8771 F   0  0  0  0  0  0  0  0  0  0  0  0
  147.0451  133.4128  160.0463 C   0  0  0  0  0  0  0  0  0  0  0  0
  147.6828  133.1715  158.8163 C   0  0  0  0  0  0  0  0  0  0  0  0
  148.4705  134.1731  158.2051 C   0  0  0  0  0  0  0  0  0  0  0  0
  149.1209  133.9198  156.9855 N   0  0  0  0  0  0  0  0  0  0  0  0
  149.4407  132.5150  156.7683 C   0  0  0  0  0  0  0  0  0  0  0  0
  150.2890  132.3624  155.4941 C   0  0  0  0  0  0  0  0  0  0  0  0
  149.6019  132.9458  154.3902 O   0  0  0  0  0  0  0  0  0  0  0  0
  149.3629  134.3378  154.5823 C   0  0  0  0  0  0  0  0  0  0  0  0
  148.4878  134.5435  155.8311 C   0  0  0  0  0  0  0  0  0  0  0  0
  151.4423  137.7694  157.1939 H   0  0  0  0  0  0  0  0  0  0  0  0
  150.0476  138.6843  156.7782 H   0  0  0  0  0  0  0  0  0  0  0  0
  152.9643  142.7553  159.7126 H   0  0  0  0  0  0  0  0  0  0  0  0
  150.0240  143.2281  157.4229 H   0  0  0  0  0  0  0  0  0  0  0  0
  152.7377  143.6237  156.9146 H   0  0  0  0  0  0  0  0  0  0  0  0
  151.5433  144.9216  156.7109 H   0  0  0  0  0  0  0  0  0  0  0  0
  153.2456  144.3777  159.1723 H   0  0  0  0  0  0  0  0  0  0  0  0
  153.0401  145.9249  158.3421 H   0  0  0  0  0  0  0  0  0  0  0  0
  151.4836  145.3820  160.4987 H   0  0  0  0  0  0  0  0  0  0  0  0
  150.7313  146.0928  159.0672 H   0  0  0  0  0  0  0  0  0  0  0  0
  149.6591  136.1972  157.2283 H   0  0  0  0  0  0  0  0  0  0  0  0
  148.0816  136.5999  160.6021 H   0  0  0  0  0  0  0  0  0  0  0  0
  146.4500  132.6303  160.4928 H   0  0  0  0  0  0  0  0  0  0  0  0
  147.5661  132.2063  158.3453 H   0  0  0  0  0  0  0  0  0  0  0  0
  149.9833  132.1211  157.6287 H   0  0  0  0  0  0  0  0  0  0  0  0
  148.5218  131.9354  156.6713 H   0  0  0  0  0  0  0  0  0  0  0  0
  151.2654  132.8334  155.6183 H   0  0  0  0  0  0  0  0  0  0  0  0
  150.4682  131.3076  155.2853 H   0  0  0  0  0  0  0  0  0  0  0  0
  150.3109  134.8695  154.6801 H   0  0  0  0  0  0  0  0  0  0  0  0
  148.8618  134.7383  153.7011 H   0  0  0  0  0  0  0  0  0  0  0  0
  147.5018  134.1071  155.6669 H   0  0  0  0  0  0  0  0  0  0  0  0
  148.3447  135.6086  156.0175 H   0  0  0  0  0  0  0  0  0  0  0  0
  1  2  2  0  0  0  0
  2  3  1  0  0  0  0
  2 18  1  0  0  0  0
  3  4  1  0  0  0  0
  3 35  1  0  0  0  0
  3 36  1  0  0  0  0
  4 16  1  0  0  0  0
  4  5  1  0  0  0  0
  5  6  2  0  0  0  0
  5  7  1  0  0  0  0
  7  8  1  0  0  0  0
  7  9  2  0  0  0  0
  9 10  1  0  0  0  0
  9 37  1  0  0  0  0
 10 11  1  0  0  0  0
 10 16  1  0  0  0  0
 11 15  1  0  0  0  0
 11 12  1  0  0  0  0
 11 38  1  0  0  0  0
 12 13  1  0  0  0  0
 12 39  1  0  0  0  0
 12 40  1  0  0  0  0
 13 14  1  0  0  0  0
 13 41  1  0  0  0  0
 13 42  1  0  0  0  0
 14 15  1  0  0  0  0
 14 43  1  0  0  0  0
 14 44  1  0  0  0  0
 16 17  2  0  0  0  0
 18 19  1  0  0  0  0
 18 45  1  0  0  0  0
 19 28  1  0  0  0  0
 19 20  2  0  0  0  0
 20 21  1  0  0  0  0
 20 46  1  0  0  0  0
 21 22  1  0  0  0  0
 21 26  2  0  0  0  0
 22 23  1  0  0  0  0
 22 24  1  0  0  0  0
 22 25  1  0  0  0  0
 26 27  1  0  0  0  0
 26 47  1  0  0  0  0
 27 28  2  0  0  0  0
 27 48  1  0  0  0  0
 28 29  1  0  0  0  0
 29 34  1  0  0  0  0
 29 30  1  0  0  0  0
 30 31  1  0  0  0  0
 30 49  1  0  0  0  0
 30 50  1  0  0  0  0
 31 32  1  0  0  0  0
 31 51  1  0  0  0  0
 31 52  1  0  0  0  0
 32 33  1  0  0  0  0
 33 34  1  0  0  0  0
 33 53  1  0  0  0  0
 33 54  1  0  0  0  0
 34 55  1  0  0  0  0
 34 56  1  0  0  0  0
M  END
> <s_m_source_file>
AV-unprocessed.smi

> <i_m_source_file_index>
29

> <i_lp_mmshare_version>
43012

> <i_f3d_flags>
0

> <s_epik_input>
TzFbQ0gyXVtDSDJdW0NIMl1bQ0BIXTFuKGMyPU8pW2NIXWMoRiljKD1PKW4yW0NIMl1DKD1PKVtOSF1jM1tjSF1jKEMoRikoRilGKVtjSF1bY0hdYzNONFtDSDJdW0NIMl1PW0NIMl1bQ0gyXTQ=

> <s_epik_cmdline>
J2VwaWtfcHl0aG9uJywgJy1waCcsICc3LjAnLCAnLXRuJywgJzgnLCAnLW1hJywgJzIwMCcsICctbWV0YWxfYmluZGluZycsICctaW1hZScsICc8aW5maWxlLm1hZT4nLCAnLW9tYWUnLCAnPG91dGZpbGUubWFlPic=

> <r_lp_tautomer_probability>
1

> <r_epik_Ionization_Penalty>
3.5967e-06

> <r_epik_Ionization_Penalty_Charging>
3.88729e-08

> <r_epik_Ionization_Penalty_Neutral>
3.55783e-06

> <r_epik_State_Penalty>
-0

> <r_epik_Charging_Adjusted_Penalty>
3.88729e-08

> <i_epik_Tot_Q>
0

> <i_epik_Tot_abs_Q>
0

> <r_epik_Metal_State_Penalty>
-0

> <b_epik_Metal_Only>
0

> <s_epik_Chemistry_Notes>
This compound contains an acetal/aminal-like group ( X-CH(R)-Y where X, Y are N, S, or O) that may be acid/base labile, releasing an aldehyde.

> <s_lp_Force_Field>
OPLS_2005

> <r_lp_Energy>
49.5757

> <b_lp_Chiralities_Consistent>
1

> <s_lp_Variant>
AV-unprocessed.smi:29-1

> <Gold.Version>
5.8.1

> <Gold.Id.Protein>
6NUR|6NUR_protein|mol2

> <Gold.PLP.Fitness>
54.6685

> <Gold.PLP.PLP>
-56.1256

> <Gold.PLP.part.hbond>
-1.8596

> <Gold.PLP.part.metal>
0.0000

> <Gold.PLP.part.buried>
-6.6787

> <Gold.PLP.part.nonpolar>
-49.7788

> <Gold.PLP.part.repulsive>
0.3602

> <Gold.PLP.ligand.clash>
0.0000

> <Gold.PLP.ligand.torsion>
0.9182

> <Gold.PLP.Chemscore.Hbond>
0.0000

> <Gold.PLP.Chemscore.CHOScore>
0.0000

> <Gold.PLP.Chemscore.Metal>
0.0000

> <Gold.PLP.Chemscore.Internal.Correction>
0.3792

> <Gold.Rescore>
     Score         DG    S(hbond)    S(metal)    S(lipo)     H(rot)  DE(clash)    DE(int)     intcor
     11.03     -13.52       0.01        0.00     111.56       1.96       0.23       2.26       ----

> <Gold.Chemscore.Fitness>
11.0348

> <Gold.Chemscore.DG>
-13.5249

> <Gold.Chemscore.ZeroCoef>
-5.4800

> <Gold.Chemscore.Hbond>
0.0060

> <Gold.Chemscore.Metal>
0.0000

> <Gold.Chemscore.Lipo>
111.5636

> <Gold.Chemscore.Internal_Hbond>
0.0000

> <Gold.Chemscore.DEClash>
0.2328

> <Gold.Chemscore.DEInternal>
2.2574

> <Gold.Chemscore.Rot>
1.9641

> <Gold.Chemscore.Internal.Correction>
   9.000000E+99

> <Gold.Chemscore.Hbonds>
donor molecule, donor type, donor heavy atom, donor atom, acceptor molecule, acceptor atom, score
      P1  H  6931  6943       L1     1  0.01

> <Gold.Chemscore.Hbond.Weighted>
-0.0200

> <Gold.Chemscore.Metal.Weighted>
-0.0000

> <Gold.Chemscore.Lipo.Weighted>
-13.0529

> <Gold.Chemscore.Internal_Hbond.Weighted>
0.0000

> <Gold.Chemscore.DEClash.Weighted>
0.2328

> <Gold.Chemscore.DEInternal.Weighted>
2.2574

> <Gold.Chemscore.Rot.Weighted>
5.0280

> <Gold.Chemscore.Internal.Correction.Weighted>
   9.000000E+99

> <Gold.Protein.RotatedTorsions>
[ 6907 6896 6895 6894 ] final  100.08 input  -60.11 | X-H torsion
[ 7974 7965 7964 7962 ] final   76.72 input  175.53 | X-H torsion
[ 8008 7997 7996 7995 ] final  -84.48 input   59.86 | X-H torsion
[ 10167 10162 10161 10158 ] final   45.82 input  -65.29 | X-H torsion
[ 10718 10713 10712 10709 ] final  -15.56 input   66.30 | X-H torsion
[ 10763 10752 10751 10750 ] final -151.38 input  -60.55 | X-H torsion
[ 11005 11000 10999 10996 ] final  125.02 input  -57.11 | X-H torsion

> <Gold.Protein.ActiveResidues>
 VAL166  LYS551  ARG553  GLY616  TRP617  ASP618  TYR619  PRO620  LYS621  CYS622 
 ASP623  PHE694  ASN695  SER759  ASP760  ASP761  ALA762  ILE779  LEU786  VAL792 
 PHE793  MET794  SER795  GLU796  ALA797  LYS798  CYS799  TRP800  GLU811  SER814 

> <Gold.Protein.RotatedAtoms>
  152.5379  134.0331  159.8033 H   0  0  0  0  0  0  0  0  0  0  0  0  # atno 6907 bound_to 6896
  151.0499  133.5625  159.2650 H   0  0  0  0  0  0  0  0  0  0  0  0  # atno 6908 bound_to 6896
  151.2564  135.0647  159.9135 H   0  0  0  0  0  0  0  0  0  0  0  0  # atno 6909 bound_to 6896
  145.6992  139.2577  143.1715 H   0  0  0  0  0  0  0  0  0  0  0  0  # atno 7974 bound_to 7965
  154.6303  140.0604  156.9724 H   0  0  0  0  0  0  0  0  0  0  0  0  # atno 8008 bound_to 7997
  155.1676  140.3288  155.4380 H   0  0  0  0  0  0  0  0  0  0  0  0  # atno 8009 bound_to 7997
  156.2479  140.1920  156.6780 H   0  0  0  0  0  0  0  0  0  0  0  0  # atno 8010 bound_to 7997
  140.3202  144.2714  150.6184 H   0  0  0  0  0  0  0  0  0  0  0  0  # atno 10167 bound_to 10162
  156.6000  130.4821  149.6243 H   0  0  0  0  0  0  0  0  0  0  0  0  # atno 10718 bound_to 10713
  154.8061  135.3261  154.7427 H   0  0  0  0  0  0  0  0  0  0  0  0  # atno 10763 bound_to 10752
  153.8085  135.6897  153.4849 H   0  0  0  0  0  0  0  0  0  0  0  0  # atno 10764 bound_to 10752
  153.1808  135.4587  154.9970 H   0  0  0  0  0  0  0  0  0  0  0  0  # atno 10765 bound_to 10752
  139.9386  134.9637  156.8496 H   0  0  0  0  0  0  0  0  0  0  0  0  # atno 11005 bound_to 11000
  146.0813  140.7761  142.9640 LP  0  0  0  0  0  0  0  0  0  0  0  0  # atno 17320 bound_to 7965
  144.6973  140.3493  143.7185 LP  0  0  0  0  0  0  0  0  0  0  0  0  # atno 17321 bound_to 7965
  140.5490  143.2209  151.7958 LP  0  0  0  0  0  0  0  0  0  0  0  0  # atno 17342 bound_to 10162
  139.4876  144.4501  151.9664 LP  0  0  0  0  0  0  0  0  0  0  0  0  # atno 17343 bound_to 10162
  156.2477  130.6888  151.1615 LP  0  0  0  0  0  0  0  0  0  0  0  0  # atno 17370 bound_to 10713
  157.7282  131.0633  150.5831 LP  0  0  0  0  0  0  0  0  0  0  0  0  # atno 17371 bound_to 10713
  140.6010  134.0172  155.7537 LP  0  0  0  0  0  0  0  0  0  0  0  0  # atno 17394 bound_to 11000
  141.1011  133.9766  157.3077 LP  0  0  0  0  0  0  0  0  0  0  0  0  # atno 17395 bound_to 11000

$$$$
