AV-unprocessed.smi:2143|AV-procd|sdf|8729|dock1
  -GOLD-   2272011493D 1   1.00000     0.00000
 Structure written by MMmdl.
 44 45  0  0  0  0  0  0  0  0  1 V2000
  145.2682  133.3832  150.6125 C   0  0  0  0  0  0  0  0  0  0  0  0
  145.9226  134.4606  151.4960 C   0  0  1  0  0  0  0  0  0  0  0  0
  145.4052  135.8550  151.0857 C   0  0  0  0  0  0  0  0  0  0  0  0
  146.0335  136.9756  151.9245 C   0  0  0  0  0  0  0  0  0  0  0  0
  145.7925  136.7399  153.4221 C   0  0  0  0  0  0  0  0  0  0  0  0
  146.3040  135.3575  153.8732 C   0  0  2  0  0  0  0  0  0  0  0  0
  147.7668  135.3145  153.8546 N   0  0  0  0  0  0  0  0  0  0  0  0
  148.5601  135.2222  154.9320 C   0  0  0  0  0  0  0  0  0  0  0  0
  148.1336  135.1874  156.0868 O   0  0  0  0  0  0  0  0  0  0  0  0
  150.0686  135.1885  154.6565 C   0  0  0  0  0  0  0  0  0  0  0  0
  150.7121  136.4898  154.8750 N   0  0  0  0  0  0  0  0  0  0  0  0
  150.2535  137.6055  154.1989 C   0  0  0  0  0  0  0  0  0  0  0  0
  150.7786  138.8402  154.3571 C   0  0  0  0  0  0  0  0  0  0  0  0
  151.8900  139.0701  155.2722 C   0  0  0  0  0  0  0  0  0  0  0  0
  152.3865  140.1819  155.4567 O   0  0  0  0  0  0  0  0  0  0  0  0
  152.3472  137.9095  155.9423 N   0  0  0  0  0  0  0  0  0  0  0  0
  153.4399  138.0302  156.8850 C   0  0  0  0  0  0  0  0  0  0  0  0
  151.7839  136.6241  155.7832 C   0  0  0  0  0  0  0  0  0  0  0  0
  152.2008  135.6485  156.4134 O   0  0  0  0  0  0  0  0  0  0  0  0
  145.6989  134.2162  153.0149 C   0  0  2  0  0  0  0  0  0  0  0  0
  146.2032  132.8368  153.4868 C   0  0  0  0  0  0  0  0  0  0  0  0
  144.1987  133.3035  150.8101 H   0  0  0  0  0  0  0  0  0  0  0  0
  145.7142  132.4020  150.7729 H   0  0  0  0  0  0  0  0  0  0  0  0
  145.3922  133.6173  149.5549 H   0  0  0  0  0  0  0  0  0  0  0  0
  146.9951  134.4337  151.2986 H   0  0  0  0  0  0  0  0  0  0  0  0
  145.6141  136.0344  150.0305 H   0  0  0  0  0  0  0  0  0  0  0  0
  144.3202  135.8903  151.1929 H   0  0  0  0  0  0  0  0  0  0  0  0
  147.1040  137.0306  151.7233 H   0  0  0  0  0  0  0  0  0  0  0  0
  145.6154  137.9386  151.6299 H   0  0  0  0  0  0  0  0  0  0  0  0
  146.2636  137.5310  154.0065 H   0  0  0  0  0  0  0  0  0  0  0  0
  144.7235  136.8103  153.6270 H   0  0  0  0  0  0  0  0  0  0  0  0
  145.9731  135.2003  154.9017 H   0  0  0  0  0  0  0  0  0  0  0  0
  148.2070  135.3440  152.9466 H   0  0  0  0  0  0  0  0  0  0  0  0
  150.5463  134.4262  155.2751 H   0  0  0  0  0  0  0  0  0  0  0  0
  150.2183  134.8663  153.6251 H   0  0  0  0  0  0  0  0  0  0  0  0
  149.4277  137.4882  153.5123 H   0  0  0  0  0  0  0  0  0  0  0  0
  150.3686  139.6704  153.8009 H   0  0  0  0  0  0  0  0  0  0  0  0
  154.1438  137.2180  156.6937 H   0  0  0  0  0  0  0  0  0  0  0  0
  153.0070  137.9561  157.8837 H   0  0  0  0  0  0  0  0  0  0  0  0
  153.9624  138.9780  156.7566 H   0  0  0  0  0  0  0  0  0  0  0  0
  144.6217  134.2310  153.1898 H   0  0  0  0  0  0  0  0  0  0  0  0
  147.2514  132.6804  153.2302 H   0  0  0  0  0  0  0  0  0  0  0  0
  145.6275  132.0250  153.0427 H   0  0  0  0  0  0  0  0  0  0  0  0
  146.1086  132.7361  154.5685 H   0  0  0  0  0  0  0  0  0  0  0  0
  1  2  1  0  0  0  0
  1 22  1  0  0  0  0
  1 23  1  0  0  0  0
  1 24  1  0  0  0  0
  2 20  1  0  0  0  0
  2  3  1  0  0  0  0
  2 25  1  0  0  0  0
  3  4  1  0  0  0  0
  3 26  1  0  0  0  0
  3 27  1  0  0  0  0
  4  5  1  0  0  0  0
  4 28  1  0  0  0  0
  4 29  1  0  0  0  0
  5  6  1  0  0  0  0
  5 30  1  0  0  0  0
  5 31  1  0  0  0  0
  6  7  1  0  0  0  0
  6 20  1  0  0  0  0
  6 32  1  0  0  0  0
  7  8  1  0  0  0  0
  7 33  1  0  0  0  0
  8  9  2  0  0  0  0
  8 10  1  0  0  0  0
 10 11  1  0  0  0  0
 10 34  1  0  0  0  0
 10 35  1  0  0  0  0
 11 18  1  0  0  0  0
 11 12  1  0  0  0  0
 12 13  2  0  0  0  0
 12 36  1  0  0  0  0
 13 14  1  0  0  0  0
 13 37  1  0  0  0  0
 14 15  2  0  0  0  0
 14 16  1  0  0  0  0
 16 17  1  0  0  0  0
 16 18  1  0  0  0  0
 17 38  1  0  0  0  0
 17 39  1  0  0  0  0
 17 40  1  0  0  0  0
 18 19  2  0  0  0  0
 20 21  1  0  0  0  0
 20 41  1  0  0  0  0
 21 42  1  0  0  0  0
 21 43  1  0  0  0  0
 21 44  1  0  0  0  0
M  END
> <s_m_source_file>
AV-unprocessed.smi

> <i_m_source_file_index>
2143

> <i_lp_mmshare_version>
43012

> <i_f3d_flags>
0

> <s_epik_input>
W0NIM11bQ0BASF0xW0NIMl1bQ0gyXVtDSDJdW0NASF0oW0NASF0xW0NIM10pW05IXUMoPU8pW0NIMl1uMltjSF1bY0hdYyg9TyluKFtDSDNdKWMyPU8=

> <s_epik_cmdline>
J2VwaWtfcHl0aG9uJywgJy1waCcsICc3LjAnLCAnLXRuJywgJzgnLCAnLW1hJywgJzIwMCcsICctbWV0YWxfYmluZGluZycsICctaW1hZScsICc8aW5maWxlLm1hZT4nLCAnLW9tYWUnLCAnPG91dGZpbGUubWFlPic=

> <r_lp_tautomer_probability>
1

> <r_epik_Ionization_Penalty>
3.18445e-08

> <r_epik_Ionization_Penalty_Charging>
1.27977e-08

> <r_epik_Ionization_Penalty_Neutral>
1.90469e-08

> <r_epik_State_Penalty>
-0

> <r_epik_Charging_Adjusted_Penalty>
1.27977e-08

> <i_epik_Tot_Q>
0

> <i_epik_Tot_abs_Q>
0

> <r_epik_Metal_State_Penalty>
-0

> <b_epik_Metal_Only>
0

> <s_lp_Force_Field>
OPLS_2005

> <r_lp_Energy>
18.9337

> <b_lp_Chiralities_Consistent>
1

> <s_lp_Variant>
AV-unprocessed.smi:2143-8

> <Gold.Version>
5.8.1

> <Gold.Id.Protein>
6NUR|6NUR_protein|mol2

> <Gold.PLP.Fitness>
36.8875

> <Gold.PLP.PLP>
-26.0259

> <Gold.PLP.part.hbond>
-4.0000

> <Gold.PLP.part.metal>
0.0000

> <Gold.PLP.part.buried>
3.8401

> <Gold.PLP.part.nonpolar>
-25.3843

> <Gold.PLP.part.repulsive>
0.0230

> <Gold.PLP.ligand.clash>
0.0000

> <Gold.PLP.ligand.torsion>
0.3123

> <Gold.PLP.Chemscore.Hbond>
2.8210

> <Gold.PLP.Chemscore.CHOScore>
1.0000

> <Gold.PLP.Chemscore.Metal>
0.0000

> <Gold.Chemscore.Hbonds>
donor molecule, donor type, donor heavy atom, donor atom, acceptor molecule, acceptor atom, score
      L1  H     7    33       P1  7948  0.96
      P1  H  7989  7998       L1    15  0.23
      P1  H  7997  8008       L1    15  0.88
      P1  H 10752 10764       L1    19  0.67
      L1  C    12    36       P1  7948  1.00

> <Gold.PLP.Chemscore.Internal.Correction>
0.0233

> <Gold.Rescore>
     Score         DG    S(hbond)    S(metal)    S(lipo)     H(rot)  DE(clash)    DE(int)     intcor
     13.69     -15.11       2.05        0.00      56.83       1.51       1.14       0.27       ----

> <Gold.Chemscore.Fitness>
13.6934

> <Gold.Chemscore.DG>
-15.1066

> <Gold.Chemscore.ZeroCoef>
-5.4800

> <Gold.Chemscore.Hbond>
2.0510

> <Gold.Chemscore.Metal>
0.0000

> <Gold.Chemscore.Lipo>
56.8349

> <Gold.Chemscore.Internal_Hbond>
0.0000

> <Gold.Chemscore.DEClash>
1.1386

> <Gold.Chemscore.DEInternal>
0.2746

> <Gold.Chemscore.Rot>
1.5131

> <Gold.Chemscore.Internal.Correction>
   9.000000E+99

> <Gold.Chemscore.Hbonds>
donor molecule, donor type, donor heavy atom, donor atom, acceptor molecule, acceptor atom, score
      L1  H     7    33       P1  7948  0.89
      P1  H  7989  7998       L1    15  0.02
      P1  H  7997  8008       L1    15  0.79
      P1  H 10752 10764       L1    19  0.08

> <Gold.Chemscore.Hbond.Weighted>
-6.8504

> <Gold.Chemscore.Metal.Weighted>
-0.0000

> <Gold.Chemscore.Lipo.Weighted>
-6.6497

> <Gold.Chemscore.Internal_Hbond.Weighted>
0.0000

> <Gold.Chemscore.DEClash.Weighted>
1.1386

> <Gold.Chemscore.DEInternal.Weighted>
0.2746

> <Gold.Chemscore.Rot.Weighted>
3.8734

> <Gold.Chemscore.Internal.Correction.Weighted>
   9.000000E+99

> <Gold.Protein.RotatedTorsions>
[ 6907 6896 6895 6894 ] final    9.60 input  -60.11 | X-H torsion
[ 7974 7965 7964 7962 ] final -105.02 input  175.53 | X-H torsion
[ 8008 7997 7996 7995 ] final  -25.37 input   59.86 | X-H torsion
[ 10167 10162 10161 10158 ] final -150.01 input  -65.29 | X-H torsion
[ 10718 10713 10712 10709 ] final  -92.07 input   66.30 | X-H torsion
[ 10763 10752 10751 10750 ] final    2.22 input  -60.55 | X-H torsion
[ 11005 11000 10999 10996 ] final  129.79 input  -57.11 | X-H torsion

> <Gold.Protein.ActiveResidues>
 VAL166  LYS551  ARG553  GLY616  TRP617  ASP618  TYR619  PRO620  LYS621  CYS622 
 ASP623  PHE694  ASN695  SER759  ASP760  ASP761  ALA762  ILE779  LEU786  VAL792 
 PHE793  MET794  SER795  GLU796  ALA797  LYS798  CYS799  TRP800  GLU811  SER814 

> <Gold.Protein.RotatedAtoms>
  151.7248  135.0887  160.0289 H   0  0  0  0  0  0  0  0  0  0  0  0  # atno 6907 bound_to 6896
  152.3579  133.6255  159.6001 H   0  0  0  0  0  0  0  0  0  0  0  0  # atno 6908 bound_to 6896
  150.7584  133.9387  159.3491 H   0  0  0  0  0  0  0  0  0  0  0  0  # atno 6909 bound_to 6896
  145.2357  140.9187  143.3179 H   0  0  0  0  0  0  0  0  0  0  0  0  # atno 7974 bound_to 7965
  154.4480  140.1928  156.0608 H   0  0  0  0  0  0  0  0  0  0  0  0  # atno 8008 bound_to 7997
  156.0584  140.3300  155.7406 H   0  0  0  0  0  0  0  0  0  0  0  0  # atno 8009 bound_to 7997
  155.5449  140.0590  157.2853 H   0  0  0  0  0  0  0  0  0  0  0  0  # atno 8010 bound_to 7997
  139.7392  143.8689  152.2557 H   0  0  0  0  0  0  0  0  0  0  0  0  # atno 10167 bound_to 10162
  155.9999  130.4973  150.5570 H   0  0  0  0  0  0  0  0  0  0  0  0  # atno 10718 bound_to 10713
  153.2982  135.6954  153.7228 H   0  0  0  0  0  0  0  0  0  0  0  0  # atno 10763 bound_to 10752
  153.6152  135.3437  155.2993 H   0  0  0  0  0  0  0  0  0  0  0  0  # atno 10764 bound_to 10752
  154.8543  135.4373  154.2086 H   0  0  0  0  0  0  0  0  0  0  0  0  # atno 10765 bound_to 10752
  139.9635  134.9596  156.9199 H   0  0  0  0  0  0  0  0  0  0  0  0  # atno 11005 bound_to 11000
  144.9635  139.3954  143.6344 LP  0  0  0  0  0  0  0  0  0  0  0  0  # atno 17320 bound_to 7965
  146.3341  139.8700  142.8841 LP  0  0  0  0  0  0  0  0  0  0  0  0  # atno 17321 bound_to 7965
  139.8634  144.7105  150.9072 LP  0  0  0  0  0  0  0  0  0  0  0  0  # atno 17342 bound_to 10162
  140.7783  143.3798  151.1497 LP  0  0  0  0  0  0  0  0  0  0  0  0  # atno 17343 bound_to 10162
  157.3485  131.0729  151.1732 LP  0  0  0  0  0  0  0  0  0  0  0  0  # atno 17370 bound_to 10713
  157.2557  130.6635  149.5951 LP  0  0  0  0  0  0  0  0  0  0  0  0  # atno 17371 bound_to 10713
  140.5448  134.0685  155.7352 LP  0  0  0  0  0  0  0  0  0  0  0  0  # atno 17394 bound_to 11000
  141.1314  133.9296  157.2528 LP  0  0  0  0  0  0  0  0  0  0  0  0  # atno 17395 bound_to 11000

$$$$
