AV-unprocessed.smi:2221|AV-procd|sdf|8984|dock5
  -GOLD-   2272012193D 1   1.00000     0.00000
 Structure written by MMmdl.
 53 54  0  0  0  0  0  0  0  0  2 V2000
  153.5195  140.6168  159.8721 C   0  0  0  0  0  0  0  0  0  0  0  0
  152.7495  141.8402  159.4214 C   0  0  0  0  0  0  0  0  0  0  0  0
  152.7970  143.0349  160.1646 C   0  0  0  0  0  0  0  0  0  0  0  0
  152.0631  144.1409  159.6933 C   0  0  0  0  0  0  0  0  0  0  0  0
  152.0707  145.4556  160.4442 C   0  0  0  0  0  0  0  0  0  0  0  0
  151.3246  144.1074  158.5633 N   0  0  0  0  0  0  0  0  0  0  0  0
  151.2714  142.9620  157.8395 C   0  0  0  0  0  0  0  0  0  0  0  0
  150.5246  142.8239  156.6393 N   0  0  0  0  0  0  0  0  0  0  0  0
  150.0710  141.6930  156.0711 C   0  0  0  0  0  0  0  0  0  0  0  0
  150.2523  140.5544  156.5024 O   0  0  0  0  0  0  0  0  0  0  0  0
  149.3647  141.9549  154.9617 N   0  0  0  0  0  0  0  0  0  0  0  0
  148.7159  140.9503  154.1214 C   0  0  0  0  0  0  0  0  0  0  0  0
  147.2309  141.2621  153.8292 C   0  0  0  0  0  0  0  0  0  0  0  0
  146.3933  140.0440  153.6835 N   0  3  2  0  0  0  0  0  0  0  0  0
  145.8715  139.5539  154.9835 C   0  0  0  0  0  0  0  0  0  0  0  0
  144.9008  138.3760  154.7840 C   0  0  0  0  0  0  0  0  0  0  0  0
  145.5567  137.2048  154.0124 C   0  0  2  0  0  0  0  0  0  0  0  0
  146.5721  136.4887  154.8104 N   0  0  0  0  0  0  0  0  0  0  0  0
  146.1024  136.2150  156.1673 C   0  0  0  0  0  0  0  0  0  0  0  0
  146.9274  135.1967  154.2277 C   0  0  0  0  0  0  0  0  0  0  0  0
  146.1064  137.7783  152.6832 C   0  0  0  0  0  0  0  0  0  0  0  0
  147.0601  138.9633  152.9137 C   0  0  0  0  0  0  0  0  0  0  0  0
  151.9755  141.8057  158.2438 C   0  0  0  0  0  0  0  0  0  0  0  0
  153.7560  140.6720  160.9350 H   0  0  0  0  0  0  0  0  0  0  0  0
  154.4535  140.5351  159.3159 H   0  0  0  0  0  0  0  0  0  0  0  0
  152.9364  139.7113  159.7017 H   0  0  0  0  0  0  0  0  0  0  0  0
  153.3806  143.1021  161.0714 H   0  0  0  0  0  0  0  0  0  0  0  0
  152.4253  145.3216  161.4666 H   0  0  0  0  0  0  0  0  0  0  0  0
  151.0672  145.8805  160.4879 H   0  0  0  0  0  0  0  0  0  0  0  0
  152.7254  146.1703  159.9452 H   0  0  0  0  0  0  0  0  0  0  0  0
  150.2961  143.6878  156.1702 H   0  0  0  0  0  0  0  0  0  0  0  0
  149.2746  142.9182  154.6719 H   0  0  0  0  0  0  0  0  0  0  0  0
  149.2739  140.8943  153.1868 H   0  0  0  0  0  0  0  0  0  0  0  0
  148.8085  139.9667  154.5846 H   0  0  0  0  0  0  0  0  0  0  0  0
  146.8172  141.9138  154.5999 H   0  0  0  0  0  0  0  0  0  0  0  0
  147.1843  141.8309  152.8997 H   0  0  0  0  0  0  0  0  0  0  0  0
  146.7022  139.2580  155.6264 H   0  0  0  0  0  0  0  0  0  0  0  0
  145.3474  140.3626  155.4945 H   0  0  0  0  0  0  0  0  0  0  0  0
  144.4753  138.0663  155.7366 H   0  0  0  0  0  0  0  0  0  0  0  0
  144.0464  138.7320  154.2066 H   0  0  0  0  0  0  0  0  0  0  0  0
  144.7770  136.4823  153.7656 H   0  0  0  0  0  0  0  0  0  0  0  0
  146.8270  135.6099  156.7138 H   0  0  0  0  0  0  0  0  0  0  0  0
  145.1537  135.6765  156.1580 H   0  0  0  0  0  0  0  0  0  0  0  0
  145.9777  137.1283  156.7463 H   0  0  0  0  0  0  0  0  0  0  0  0
  147.5981  134.6445  154.8875 H   0  0  0  0  0  0  0  0  0  0  0  0
  147.4625  135.3144  153.2868 H   0  0  0  0  0  0  0  0  0  0  0  0
  146.0432  134.5818  154.0537 H   0  0  0  0  0  0  0  0  0  0  0  0
  146.5783  137.0192  152.0616 H   0  0  0  0  0  0  0  0  0  0  0  0
  145.2636  138.1309  152.0873 H   0  0  0  0  0  0  0  0  0  0  0  0
  147.3880  139.3432  151.9464 H   0  0  0  0  0  0  0  0  0  0  0  0
  147.9552  138.6322  153.4427 H   0  0  0  0  0  0  0  0  0  0  0  0
  151.9264  140.8992  157.6577 H   0  0  0  0  0  0  0  0  0  0  0  0
  145.5834  140.3260  153.1501 H   0  0  0  0  0  0  0  0  0  0  0  0
  1  2  1  0  0  0  0
  1 24  1  0  0  0  0
  1 25  1  0  0  0  0
  1 26  1  0  0  0  0
  2 23  1  0  0  0  0
  2  3  2  0  0  0  0
  3  4  1  0  0  0  0
  3 27  1  0  0  0  0
  4  5  1  0  0  0  0
  4  6  2  0  0  0  0
  5 28  1  0  0  0  0
  5 29  1  0  0  0  0
  5 30  1  0  0  0  0
  6  7  1  0  0  0  0
  7  8  1  0  0  0  0
  7 23  2  0  0  0  0
  8  9  1  0  0  0  0
  8 31  1  0  0  0  0
  9 10  2  0  0  0  0
  9 11  1  0  0  0  0
 11 12  1  0  0  0  0
 11 32  1  0  0  0  0
 12 13  1  0  0  0  0
 12 33  1  0  0  0  0
 12 34  1  0  0  0  0
 13 14  1  0  0  0  0
 13 35  1  0  0  0  0
 13 36  1  0  0  0  0
 14 22  1  0  0  0  0
 14 15  1  0  0  0  0
 14 53  1  0  0  0  0
 15 16  1  0  0  0  0
 15 37  1  0  0  0  0
 15 38  1  0  0  0  0
 16 17  1  0  0  0  0
 16 39  1  0  0  0  0
 16 40  1  0  0  0  0
 17 18  1  0  0  0  0
 17 21  1  0  0  0  0
 17 41  1  0  0  0  0
 18 19  1  0  0  0  0
 18 20  1  0  0  0  0
 19 42  1  0  0  0  0
 19 43  1  0  0  0  0
 19 44  1  0  0  0  0
 20 45  1  0  0  0  0
 20 46  1  0  0  0  0
 20 47  1  0  0  0  0
 21 22  1  0  0  0  0
 21 48  1  0  0  0  0
 21 49  1  0  0  0  0
 22 50  1  0  0  0  0
 22 51  1  0  0  0  0
 23 52  1  0  0  0  0
M  CHG  1  14   1
M  END
> <s_m_source_file>
AV-unprocessed.smi

> <i_m_source_file_index>
2221

> <i_lp_mmshare_version>
43012

> <i_f3d_flags>
0

> <s_epik_input>
W0NIM11jMVtjSF1jKFtDSDNdKW5jKFtjSF0xKVtOSF1DKD1PKVtOSF1bQ0gyXVtDSDJdTjJbQ0gyXVtDSDJdW0NIXShOKFtDSDNdKVtDSDNdKVtDSDJdW0NIMl0y

> <s_epik_cmdline>
J2VwaWtfcHl0aG9uJywgJy1waCcsICc3LjAnLCAnLXRuJywgJzgnLCAnLW1hJywgJzIwMCcsICctbWV0YWxfYmluZGluZycsICctaW1hZScsICc8aW5maWxlLm1hZT4nLCAnLW9tYWUnLCAnPG91dGZpbGUubWFlPic=

> <r_epik_Ionization_Penalty>
1.32168

> <r_epik_Ionization_Penalty_Charging>
0.00219175

> <r_epik_Ionization_Penalty_Neutral>
1.31949

> <r_epik_State_Penalty>
1.51166

> <r_epik_Charging_Adjusted_Penalty>
1.51385

> <i_epik_Tot_Q>
1

> <i_epik_Tot_abs_Q>
1

> <r_epik_Metal_State_Penalty>
1.51167

> <b_epik_Metal_Only>
0

> <s_lp_Force_Field>
OPLS_2005

> <r_lp_Energy>
32.286

> <b_lp_Chiralities_Consistent>
1

> <s_lp_Variant>
AV-unprocessed.smi:2221-5

> <Gold.Version>
5.8.1

> <Gold.Id.Protein>
6NUR|6NUR_protein|mol2

> <Gold.PLP.Fitness>
49.6465

> <Gold.PLP.PLP>
-40.4301

> <Gold.PLP.part.hbond>
-3.0000

> <Gold.PLP.part.metal>
0.0000

> <Gold.PLP.part.buried>
-5.1437

> <Gold.PLP.part.nonpolar>
-33.2845

> <Gold.PLP.part.repulsive>
0.5012

> <Gold.PLP.ligand.clash>
0.0000

> <Gold.PLP.ligand.torsion>
0.7831

> <Gold.PLP.Chemscore.Hbond>
3.5840

> <Gold.PLP.Chemscore.CHOScore>
0.0000

> <Gold.PLP.Chemscore.Metal>
0.0000

> <Gold.Chemscore.Hbonds>
donor molecule, donor type, donor heavy atom, donor atom, acceptor molecule, acceptor atom, score
      L1  H     8    31       P1  8028  0.86
      L1  H    11    32       P1  8028  0.64
      L1  H    14    53       P1 10175  2.00

> <Gold.PLP.Chemscore.Internal.Correction>
0.0306

> <Gold.Rescore>
     Score         DG    S(hbond)    S(metal)    S(lipo)     H(rot)  DE(clash)    DE(int)     intcor
     19.91     -22.29       2.90        0.00      96.06       1.61       0.03       2.34       ----

> <Gold.Chemscore.Fitness>
19.9065

> <Gold.Chemscore.DG>
-22.2853

> <Gold.Chemscore.ZeroCoef>
-5.4800

> <Gold.Chemscore.Hbond>
2.9022

> <Gold.Chemscore.Metal>
0.0000

> <Gold.Chemscore.Lipo>
96.0554

> <Gold.Chemscore.Internal_Hbond>
0.0000

> <Gold.Chemscore.DEClash>
0.0348

> <Gold.Chemscore.DEInternal>
2.3441

> <Gold.Chemscore.Rot>
1.6119

> <Gold.Chemscore.Internal.Correction>
   9.000000E+99

> <Gold.Chemscore.Hbonds>
donor molecule, donor type, donor heavy atom, donor atom, acceptor molecule, acceptor atom, score
      L1  H     8    31       P1  8028  0.85
      L1  H    11    32       P1  8028  0.62
      L1  H    14    53       P1 10175  0.91

> <Gold.Chemscore.Hbond.Weighted>
-9.6932

> <Gold.Chemscore.Metal.Weighted>
-0.0000

> <Gold.Chemscore.Lipo.Weighted>
-11.2385

> <Gold.Chemscore.Internal_Hbond.Weighted>
0.0000

> <Gold.Chemscore.DEClash.Weighted>
0.0348

> <Gold.Chemscore.DEInternal.Weighted>
2.3441

> <Gold.Chemscore.Rot.Weighted>
4.1264

> <Gold.Chemscore.Internal.Correction.Weighted>
   9.000000E+99

> <Gold.Protein.RotatedTorsions>
[ 6907 6896 6895 6894 ] final   90.20 input  -60.11 | X-H torsion
[ 7974 7965 7964 7962 ] final -111.96 input  175.53 | X-H torsion
[ 8008 7997 7996 7995 ] final  -90.85 input   59.86 | X-H torsion
[ 10167 10162 10161 10158 ] final -109.39 input  -65.29 | X-H torsion
[ 10718 10713 10712 10709 ] final -177.53 input   66.30 | X-H torsion
[ 10763 10752 10751 10750 ] final   41.36 input  -60.55 | X-H torsion
[ 11005 11000 10999 10996 ] final   69.90 input  -57.11 | X-H torsion

> <Gold.Protein.ActiveResidues>
 VAL166  LYS551  ARG553  GLY616  TRP617  ASP618  TYR619  PRO620  LYS621  CYS622 
 ASP623  PHE694  ASN695  SER759  ASP760  ASP761  ALA762  ILE779  LEU786  VAL792 
 PHE793  MET794  SER795  GLU796  ALA797  LYS798  CYS799  TRP800  GLU811  SER814 

> <Gold.Protein.RotatedAtoms>
  152.5443  134.1848  159.8649 H   0  0  0  0  0  0  0  0  0  0  0  0  # atno 6907 bound_to 6896
  151.1848  133.4696  159.2602 H   0  0  0  0  0  0  0  0  0  0  0  0  # atno 6908 bound_to 6896
  151.1142  135.0055  159.8564 H   0  0  0  0  0  0  0  0  0  0  0  0  # atno 6909 bound_to 6896
  145.1498  140.8823  143.3653 H   0  0  0  0  0  0  0  0  0  0  0  0  # atno 7974 bound_to 7965
  154.7035  140.0526  157.0481 H   0  0  0  0  0  0  0  0  0  0  0  0  # atno 8008 bound_to 7997
  155.0651  140.3193  155.4629 H   0  0  0  0  0  0  0  0  0  0  0  0  # atno 8009 bound_to 7997
  156.2767  140.2092  156.5779 H   0  0  0  0  0  0  0  0  0  0  0  0  # atno 8010 bound_to 7997
  140.1558  143.4161  152.1462 H   0  0  0  0  0  0  0  0  0  0  0  0  # atno 10167 bound_to 10162
  156.8308  130.9652  151.3106 H   0  0  0  0  0  0  0  0  0  0  0  0  # atno 10718 bound_to 10713
  152.9910  135.6164  154.2774 H   0  0  0  0  0  0  0  0  0  0  0  0  # atno 10763 bound_to 10752
  154.2505  135.2785  155.2820 H   0  0  0  0  0  0  0  0  0  0  0  0  # atno 10764 bound_to 10752
  154.5292  135.5793  153.6802 H   0  0  0  0  0  0  0  0  0  0  0  0  # atno 10765 bound_to 10752
  139.9628  134.7032  156.0610 H   0  0  0  0  0  0  0  0  0  0  0  0  # atno 11005 bound_to 11000
  145.0443  139.3234  143.5960 LP  0  0  0  0  0  0  0  0  0  0  0  0  # atno 17320 bound_to 7965
  146.3496  139.9828  142.8694 LP  0  0  0  0  0  0  0  0  0  0  0  0  # atno 17321 bound_to 7965
  139.5404  144.7251  151.4752 LP  0  0  0  0  0  0  0  0  0  0  0  0  # atno 17342 bound_to 10162
  140.6674  143.8368  150.6958 LP  0  0  0  0  0  0  0  0  0  0  0  0  # atno 17343 bound_to 10162
  157.6407  130.8803  149.9444 LP  0  0  0  0  0  0  0  0  0  0  0  0  # atno 17370 bound_to 10713
  156.0935  130.3661  150.0350 LP  0  0  0  0  0  0  0  0  0  0  0  0  # atno 17371 bound_to 10713
  141.1306  133.6587  156.3454 LP  0  0  0  0  0  0  0  0  0  0  0  0  # atno 17394 bound_to 11000
  140.5463  134.6071  157.5395 LP  0  0  0  0  0  0  0  0  0  0  0  0  # atno 17395 bound_to 11000

$$$$
