AV-unprocessed.smi:2675|AV-procd|sdf|10362|dock3
  -GOLD-   2272014383D 1   1.00000     0.00000
 Structure written by MMmdl.
 36 37  0  0  0  0  0  0  0  0  1 V2000
  153.4579  142.6048  160.9424 C   0  0  0  0  0  0  0  0  0  0  0  0
  152.6617  142.3442  159.7016 C   0  0  0  0  0  0  0  0  0  0  0  0
  151.9300  141.1694  159.5447 N   0  0  0  0  0  0  0  0  0  0  0  0
  151.3773  141.2988  158.3470 C   0  0  0  0  0  0  0  0  0  0  0  0
  151.6845  142.4384  157.7114 N   0  0  0  0  0  0  0  0  0  0  0  0
  151.2444  142.8342  156.3824 C   0  0  0  0  0  0  0  0  0  0  0  0
  150.3075  141.7862  155.7798 C   0  0  0  0  0  0  0  0  0  0  0  0
  150.6567  140.6076  155.7383 O   0  0  0  0  0  0  0  0  0  0  0  0
  149.1164  142.2357  155.3466 N   0  0  0  0  0  0  0  0  0  0  0  0
  147.9749  141.4670  154.8369 C   0  0  1  0  0  0  0  0  0  0  0  0
  147.4343  140.6666  156.0333 C   0  0  0  0  0  0  0  0  0  0  0  0
  146.8892  142.3434  154.3545 C   0  0  0  0  0  0  0  0  0  0  0  0
  146.0368  143.0280  153.9742 N   0  0  0  0  0  0  0  0  0  0  0  0
  148.3158  140.4868  153.7116 C   0  0  0  0  0  0  0  0  0  0  0  0
  147.4723  139.2638  153.4219 C   0  0  0  0  0  0  0  0  0  0  0  0
  148.8854  139.1030  153.9367 C   0  0  0  0  0  0  0  0  0  0  0  0
  152.5193  143.1368  158.5824 C   0  0  0  0  0  0  0  0  0  0  0  0
  153.1031  144.4770  158.2689 C   0  0  0  0  0  0  0  0  0  0  0  0
  153.2242  143.5836  161.3615 H   0  0  0  0  0  0  0  0  0  0  0  0
  154.5274  142.5807  160.7328 H   0  0  0  0  0  0  0  0  0  0  0  0
  153.2554  141.8611  161.7137 H   0  0  0  0  0  0  0  0  0  0  0  0
  150.7408  140.5397  157.9163 H   0  0  0  0  0  0  0  0  0  0  0  0
  150.7315  143.7949  156.4432 H   0  0  0  0  0  0  0  0  0  0  0  0
  152.1178  142.9759  155.7447 H   0  0  0  0  0  0  0  0  0  0  0  0
  148.9587  143.2294  155.4310 H   0  0  0  0  0  0  0  0  0  0  0  0
  146.5574  140.0808  155.7549 H   0  0  0  0  0  0  0  0  0  0  0  0
  147.1385  141.3254  156.8509 H   0  0  0  0  0  0  0  0  0  0  0  0
  148.1830  139.9738  156.4202 H   0  0  0  0  0  0  0  0  0  0  0  0
  148.7139  140.9915  152.8328 H   0  0  0  0  0  0  0  0  0  0  0  0
  146.6626  139.0161  154.1055 H   0  0  0  0  0  0  0  0  0  0  0  0
  147.2871  139.0195  152.3780 H   0  0  0  0  0  0  0  0  0  0  0  0
  149.6366  138.7522  153.2322 H   0  0  0  0  0  0  0  0  0  0  0  0
  149.0047  138.7371  154.9524 H   0  0  0  0  0  0  0  0  0  0  0  0
  153.6980  144.8520  159.1018 H   0  0  0  0  0  0  0  0  0  0  0  0
  152.3177  145.2053  158.0658 H   0  0  0  0  0  0  0  0  0  0  0  0
  153.7514  144.4247  157.3944 H   0  0  0  0  0  0  0  0  0  0  0  0
  1  2  1  0  0  0  0
  1 19  1  0  0  0  0
  1 20  1  0  0  0  0
  1 21  1  0  0  0  0
  2 17  2  0  0  0  0
  2  3  1  0  0  0  0
  3  4  2  0  0  0  0
  4  5  1  0  0  0  0
  4 22  1  0  0  0  0
  5  6  1  0  0  0  0
  5 17  1  0  0  0  0
  6  7  1  0  0  0  0
  6 23  1  0  0  0  0
  6 24  1  0  0  0  0
  7  8  2  0  0  0  0
  7  9  1  0  0  0  0
  9 10  1  0  0  0  0
  9 25  1  0  0  0  0
 10 11  1  0  0  0  0
 10 12  1  0  0  0  0
 10 14  1  0  0  0  0
 11 26  1  0  0  0  0
 11 27  1  0  0  0  0
 11 28  1  0  0  0  0
 12 13  3  0  0  0  0
 14 16  1  0  0  0  0
 14 15  1  0  0  0  0
 14 29  1  0  0  0  0
 15 16  1  0  0  0  0
 15 30  1  0  0  0  0
 15 31  1  0  0  0  0
 16 32  1  0  0  0  0
 16 33  1  0  0  0  0
 17 18  1  0  0  0  0
 18 34  1  0  0  0  0
 18 35  1  0  0  0  0
 18 36  1  0  0  0  0
M  END
> <s_m_source_file>
AV-unprocessed.smi

> <i_m_source_file_index>
2675

> <i_lp_mmshare_version>
43012

> <i_f3d_flags>
0

> <s_epik_input>
W0NIM11jMW5bY0hdbihjMVtDSDNdKVtDSDJdQyg9TylbTkhdW0NAQF0oW0NIM10pKEMjTilbQ0hdMltDSDJdW0NIMl0y

> <s_epik_cmdline>
J2VwaWtfcHl0aG9uJywgJy1waCcsICc3LjAnLCAnLXRuJywgJzgnLCAnLW1hJywgJzIwMCcsICctbWV0YWxfYmluZGluZycsICctaW1hZScsICc8aW5maWxlLm1hZT4nLCAnLW9tYWUnLCAnPG91dGZpbGUubWFlPic=

> <r_lp_tautomer_probability>
1

> <r_epik_Ionization_Penalty>
0.876174

> <r_epik_Ionization_Penalty_Charging>
0.876172

> <r_epik_Ionization_Penalty_Neutral>
2.64295e-06

> <r_epik_State_Penalty>
0.913958

> <r_epik_Charging_Adjusted_Penalty>
1.79013

> <i_epik_Tot_Q>
0

> <i_epik_Tot_abs_Q>
0

> <r_epik_Metal_State_Penalty>
0.359336

> <b_epik_Metal_Only>
0

> <s_lp_Force_Field>
OPLS_2005

> <r_lp_Energy>
14.5701

> <b_lp_Chiralities_Consistent>
1

> <s_lp_Variant>
AV-unprocessed.smi:2675-3

> <Gold.Version>
5.8.1

> <Gold.Id.Protein>
6NUR|6NUR_protein|mol2

> <Gold.PLP.Fitness>
40.3479

> <Gold.PLP.PLP>
-37.5639

> <Gold.PLP.part.hbond>
-1.6125

> <Gold.PLP.part.metal>
0.0000

> <Gold.PLP.part.buried>
-1.4343

> <Gold.PLP.part.nonpolar>
-33.4206

> <Gold.PLP.part.repulsive>
0.4050

> <Gold.PLP.ligand.clash>
0.0000

> <Gold.PLP.ligand.torsion>
0.8647

> <Gold.PLP.Chemscore.Hbond>
1.0000

> <Gold.PLP.Chemscore.CHOScore>
0.0000

> <Gold.PLP.Chemscore.Metal>
0.0000

> <Gold.Chemscore.Hbonds>
donor molecule, donor type, donor heavy atom, donor atom, acceptor molecule, acceptor atom, score
      L1  H     9    25       P1  8028  0.93

> <Gold.PLP.Chemscore.Internal.Correction>
1.5135

> <Gold.Rescore>
     Score         DG    S(hbond)    S(metal)    S(lipo)     H(rot)  DE(clash)    DE(int)     intcor
     11.88     -14.15       1.00        0.00      83.85       1.74       0.20       2.07       ----

> <Gold.Chemscore.Fitness>
11.8808

> <Gold.Chemscore.DG>
-14.1544

> <Gold.Chemscore.ZeroCoef>
-5.4800

> <Gold.Chemscore.Hbond>
0.9958

> <Gold.Chemscore.Metal>
0.0000

> <Gold.Chemscore.Lipo>
83.8487

> <Gold.Chemscore.Internal_Hbond>
0.0000

> <Gold.Chemscore.DEClash>
0.2000

> <Gold.Chemscore.DEInternal>
2.0736

> <Gold.Chemscore.Rot>
1.7429

> <Gold.Chemscore.Internal.Correction>
   9.000000E+99

> <Gold.Chemscore.Hbonds>
donor molecule, donor type, donor heavy atom, donor atom, acceptor molecule, acceptor atom, score
      L1  H     9    25       P1  8028  0.89

> <Gold.Chemscore.Hbond.Weighted>
-3.3258

> <Gold.Chemscore.Metal.Weighted>
-0.0000

> <Gold.Chemscore.Lipo.Weighted>
-9.8103

> <Gold.Chemscore.Internal_Hbond.Weighted>
0.0000

> <Gold.Chemscore.DEClash.Weighted>
0.2000

> <Gold.Chemscore.DEInternal.Weighted>
2.0736

> <Gold.Chemscore.Rot.Weighted>
4.4617

> <Gold.Chemscore.Internal.Correction.Weighted>
   9.000000E+99

> <Gold.Protein.RotatedTorsions>
[ 6907 6896 6895 6894 ] final -149.64 input  -60.11 | X-H torsion
[ 7974 7965 7964 7962 ] final -163.96 input  175.53 | X-H torsion
[ 8008 7997 7996 7995 ] final  -19.91 input   59.86 | X-H torsion
[ 10167 10162 10161 10158 ] final -158.89 input  -65.29 | X-H torsion
[ 10718 10713 10712 10709 ] final  -98.46 input   66.30 | X-H torsion
[ 10763 10752 10751 10750 ] final  -50.48 input  -60.55 | X-H torsion
[ 11005 11000 10999 10996 ] final   58.15 input  -57.11 | X-H torsion

> <Gold.Protein.ActiveResidues>
 VAL166  LYS551  ARG553  GLY616  TRP617  ASP618  TYR619  PRO620  LYS621  CYS622 
 ASP623  PHE694  ASN695  SER759  ASP760  ASP761  ALA762  ILE779  LEU786  VAL792 
 PHE793  MET794  SER795  GLU796  ALA797  LYS798  CYS799  TRP800  GLU811  SER814 

> <Gold.Protein.RotatedAtoms>
  151.1870  133.4690  159.2594 H   0  0  0  0  0  0  0  0  0  0  0  0  # atno 6907 bound_to 6896
  151.1201  135.0074  159.8545 H   0  0  0  0  0  0  0  0  0  0  0  0  # atno 6908 bound_to 6896
  152.5455  134.1782  159.8678 H   0  0  0  0  0  0  0  0  0  0  0  0  # atno 6909 bound_to 6896
  144.7310  140.3031  143.6201 H   0  0  0  0  0  0  0  0  0  0  0  0  # atno 7974 bound_to 7965
  154.4805  140.2076  155.9776 H   0  0  0  0  0  0  0  0  0  0  0  0  # atno 8008 bound_to 7997
  156.1157  140.3222  155.8105 H   0  0  0  0  0  0  0  0  0  0  0  0  # atno 8009 bound_to 7997
  155.4557  140.0520  157.2987 H   0  0  0  0  0  0  0  0  0  0  0  0  # atno 8010 bound_to 7997
  139.6657  143.9833  152.2253 H   0  0  0  0  0  0  0  0  0  0  0  0  # atno 10167 bound_to 10162
  156.0108  130.5239  150.6526 H   0  0  0  0  0  0  0  0  0  0  0  0  # atno 10718 bound_to 10713
  154.1111  135.6549  153.4885 H   0  0  0  0  0  0  0  0  0  0  0  0  # atno 10763 bound_to 10752
  153.0256  135.5248  154.7191 H   0  0  0  0  0  0  0  0  0  0  0  0  # atno 10764 bound_to 10752
  154.6371  135.2983  155.0117 H   0  0  0  0  0  0  0  0  0  0  0  0  # atno 10765 bound_to 10752
  140.0399  134.5889  155.9396 H   0  0  0  0  0  0  0  0  0  0  0  0  # atno 11005 bound_to 11000
  145.7740  139.1867  143.2196 LP  0  0  0  0  0  0  0  0  0  0  0  0  # atno 17320 bound_to 7965
  146.0888  140.7680  142.9605 LP  0  0  0  0  0  0  0  0  0  0  0  0  # atno 17321 bound_to 7965
  139.9584  144.6574  150.8104 LP  0  0  0  0  0  0  0  0  0  0  0  0  # atno 17342 bound_to 10162
  140.7598  143.3138  151.2782 LP  0  0  0  0  0  0  0  0  0  0  0  0  # atno 17343 bound_to 10162
  157.4284  131.0846  151.1063 LP  0  0  0  0  0  0  0  0  0  0  0  0  # atno 17370 bound_to 10713
  157.1643  130.6239  149.5620 LP  0  0  0  0  0  0  0  0  0  0  0  0  # atno 17371 bound_to 10713
  141.1877  133.6560  156.5293 LP  0  0  0  0  0  0  0  0  0  0  0  0  # atno 17394 bound_to 11000
  140.4087  134.7292  157.4823 LP  0  0  0  0  0  0  0  0  0  0  0  0  # atno 17395 bound_to 11000

$$$$
