AV-unprocessed.smi:13|AV-procd|sdf|74|dock1
  -GOLD-   2262015193D 1   1.00000     0.00000
 Structure written by MMmdl.
 54 58  0  0  0  0  0  0  0  0  1 V2000
  154.1163  137.1419  161.4531 C   0  0  0  0  0  0  0  0  0  0  0  0
  154.5764  137.6847  160.0930 C   0  0  0  0  0  0  0  0  0  0  0  0
  156.0999  137.5629  160.0658 C   0  0  0  0  0  0  0  0  0  0  0  0
  153.8385  137.0950  158.8811 C   0  0  0  0  0  0  0  0  0  0  0  0
  152.9906  138.2735  158.9115 N   0  0  0  0  0  0  0  0  0  0  0  0
  152.5804  138.7191  157.6211 C   0  0  0  0  0  0  0  0  0  0  0  0
  153.1452  138.2098  156.4935 N   0  0  0  0  0  0  0  0  0  0  0  0
  152.7725  138.6322  155.2824 C   0  0  0  0  0  0  0  0  0  0  0  0
  151.8601  139.5509  154.9653 N   0  0  0  0  0  0  0  0  0  0  0  0
  151.2868  140.0758  156.0846 C   0  0  0  0  0  0  0  0  0  0  0  0
  151.5898  139.7243  157.4308 C   0  0  0  0  0  0  0  0  0  0  0  0
  150.8148  140.4816  158.3010 N   0  0  0  0  0  0  0  0  0  0  0  0
  150.0929  141.2329  157.5156 C   0  0  0  0  0  0  0  0  0  0  0  0
  150.3023  141.0457  156.1679 N   0  0  0  0  0  0  0  0  0  0  0  0
  149.6369  141.7379  155.0743 C   0  0  0  0  0  0  0  0  0  0  0  0
  148.6158  140.8587  154.3111 C   0  0  2  0  0  0  0  0  0  0  0  0
  148.5923  141.2543  152.9517 O   0  0  0  0  0  0  0  0  0  0  0  0
  147.2025  140.9719  154.8875 C   0  0  0  0  0  0  0  0  0  0  0  0
  146.9765  139.6217  155.5569 C   0  0  0  0  0  0  0  0  0  0  0  0
  147.6770  138.7325  154.7059 O   0  0  0  0  0  0  0  0  0  0  0  0
  148.9174  139.3487  154.3916 C   0  0  0  0  0  0  0  0  0  0  0  0
  154.0043  139.0441  159.6237 C   0  0  1  0  0  0  0  0  0  0  0  0
  153.3990  140.0481  160.6117 C   0  0  1  0  0  0  0  0  0  0  0  0
  154.4447  140.8235  161.4150 C   0  0  0  0  0  0  0  0  0  0  0  0
  153.6967  142.0897  161.7619 C   0  0  0  0  0  0  0  0  0  0  0  0
  152.9081  142.3396  160.4820 C   0  0  0  0  0  0  0  0  0  0  0  0
  152.6576  141.0536  159.9234 O   0  0  0  0  0  0  0  0  0  0  0  0
  154.3613  136.0848  161.5607 H   0  0  0  0  0  0  0  0  0  0  0  0
  153.0372  137.2315  161.5805 H   0  0  0  0  0  0  0  0  0  0  0  0
  154.5867  137.6690  162.2826 H   0  0  0  0  0  0  0  0  0  0  0  0
  156.5101  137.9003  159.1137 H   0  0  0  0  0  0  0  0  0  0  0  0
  156.4225  136.5310  160.2073 H   0  0  0  0  0  0  0  0  0  0  0  0
  156.5628  138.1658  160.8477 H   0  0  0  0  0  0  0  0  0  0  0  0
  154.4548  137.0361  157.9819 H   0  0  0  0  0  0  0  0  0  0  0  0
  153.3057  136.1644  159.0791 H   0  0  0  0  0  0  0  0  0  0  0  0
  153.2787  138.1676  154.4490 H   0  0  0  0  0  0  0  0  0  0  0  0
  149.3811  141.9469  157.9032 H   0  0  0  0  0  0  0  0  0  0  0  0
  149.1413  142.6198  155.4819 H   0  0  0  0  0  0  0  0  0  0  0  0
  150.4012  142.1085  154.3898 H   0  0  0  0  0  0  0  0  0  0  0  0
  148.3801  140.5000  152.4236 H   0  0  0  0  0  0  0  0  0  0  0  0
  147.0809  141.8037  155.5823 H   0  0  0  0  0  0  0  0  0  0  0  0
  146.4646  141.1013  154.0940 H   0  0  0  0  0  0  0  0  0  0  0  0
  147.4150  139.5995  156.5560 H   0  0  0  0  0  0  0  0  0  0  0  0
  145.9211  139.3605  155.6349 H   0  0  0  0  0  0  0  0  0  0  0  0
  149.3490  138.9386  153.4777 H   0  0  0  0  0  0  0  0  0  0  0  0
  149.6059  139.1280  155.2077 H   0  0  0  0  0  0  0  0  0  0  0  0
  154.7045  139.5118  158.9285 H   0  0  0  0  0  0  0  0  0  0  0  0
  152.7157  139.5563  161.3057 H   0  0  0  0  0  0  0  0  0  0  0  0
  154.7960  140.2874  162.2962 H   0  0  0  0  0  0  0  0  0  0  0  0
  155.3086  141.0598  160.7919 H   0  0  0  0  0  0  0  0  0  0  0  0
  153.0165  141.9072  162.5950 H   0  0  0  0  0  0  0  0  0  0  0  0
  154.3527  142.9189  162.0282 H   0  0  0  0  0  0  0  0  0  0  0  0
  151.9804  142.8827  160.6633 H   0  0  0  0  0  0  0  0  0  0  0  0
  153.5047  142.9134  159.7718 H   0  0  0  0  0  0  0  0  0  0  0  0
  1  2  1  0  0  0  0
  1 28  1  0  0  0  0
  1 29  1  0  0  0  0
  1 30  1  0  0  0  0
  2 22  1  0  0  0  0
  2  3  1  0  0  0  0
  2  4  1  0  0  0  0
  3 31  1  0  0  0  0
  3 32  1  0  0  0  0
  3 33  1  0  0  0  0
  4  5  1  0  0  0  0
  4 34  1  0  0  0  0
  4 35  1  0  0  0  0
  5  6  1  0  0  0  0
  5 22  1  0  0  0  0
  6 11  1  0  0  0  0
  6  7  2  0  0  0  0
  7  8  1  0  0  0  0
  8  9  2  0  0  0  0
  8 36  1  0  0  0  0
  9 10  1  0  0  0  0
 10 14  1  0  0  0  0
 10 11  2  0  0  0  0
 11 12  1  0  0  0  0
 12 13  2  0  0  0  0
 13 14  1  0  0  0  0
 13 37  1  0  0  0  0
 14 15  1  0  0  0  0
 15 16  1  0  0  0  0
 15 38  1  0  0  0  0
 15 39  1  0  0  0  0
 16 21  1  0  0  0  0
 16 17  1  0  0  0  0
 16 18  1  0  0  0  0
 17 40  1  0  0  0  0
 18 19  1  0  0  0  0
 18 41  1  0  0  0  0
 18 42  1  0  0  0  0
 19 20  1  0  0  0  0
 19 43  1  0  0  0  0
 19 44  1  0  0  0  0
 20 21  1  0  0  0  0
 21 45  1  0  0  0  0
 21 46  1  0  0  0  0
 22 23  1  0  0  0  0
 22 47  1  0  0  0  0
 23 27  1  0  0  0  0
 23 24  1  0  0  0  0
 23 48  1  0  0  0  0
 24 25  1  0  0  0  0
 24 49  1  0  0  0  0
 24 50  1  0  0  0  0
 25 26  1  0  0  0  0
 25 51  1  0  0  0  0
 25 52  1  0  0  0  0
 26 27  1  0  0  0  0
 26 53  1  0  0  0  0
 26 54  1  0  0  0  0
M  END
> <s_m_source_file>
AV-unprocessed.smi

> <i_m_source_file_index>
13

> <i_lp_mmshare_version>
43012

> <i_f3d_flags>
0

> <s_epik_input>
TzFbQ0gyXVtDSDJdW0NIMl1bQ0BIXTFbQ0BASF0yTihbQ0gyXUMyKFtDSDNdKVtDSDNdKWMobltjSF1uMyljKGMzNCluW2NIXW40W0NIMl1bQ0BAXTUoW09IXSlbQ0gyXVtDSDJdT1tDSDJdNQ==

> <s_epik_cmdline>
J2VwaWtfcHl0aG9uJywgJy1waCcsICc3LjAnLCAnLXRuJywgJzgnLCAnLW1hJywgJzIwMCcsICctbWV0YWxfYmluZGluZycsICctaW1hZScsICc8aW5maWxlLm1hZT4nLCAnLW9tYWUnLCAnPG91dGZpbGUubWFlPic=

> <r_lp_tautomer_probability>
1

> <r_epik_Ionization_Penalty>
0.00202764

> <r_epik_Ionization_Penalty_Charging>
0

> <r_epik_Ionization_Penalty_Neutral>
0.00202764

> <r_epik_State_Penalty>
0.00134017

> <r_epik_Charging_Adjusted_Penalty>
0.00134017

> <i_epik_Tot_Q>
0

> <i_epik_Tot_abs_Q>
0

> <r_epik_Metal_State_Penalty>
-0

> <b_epik_Metal_Only>
0

> <s_lp_Force_Field>
OPLS_2005

> <r_lp_Energy>
62.8076

> <b_lp_Chiralities_Consistent>
1

> <s_lp_Variant>
AV-unprocessed.smi:13-6

> <Gold.Version>
5.8.1

> <Gold.Id.Protein>
6NUR|6NUR_protein|mol2

> <Gold.PLP.Fitness>
44.2669

> <Gold.PLP.PLP>
-39.6883

> <Gold.PLP.part.hbond>
-3.4056

> <Gold.PLP.part.metal>
0.0000

> <Gold.PLP.part.buried>
-2.7492

> <Gold.PLP.part.nonpolar>
-34.0916

> <Gold.PLP.part.repulsive>
0.1547

> <Gold.PLP.ligand.clash>
0.0000

> <Gold.PLP.ligand.torsion>
1.3542

> <Gold.PLP.Chemscore.Hbond>
2.2877

> <Gold.PLP.Chemscore.CHOScore>
0.0000

> <Gold.PLP.Chemscore.Metal>
0.0000

> <Gold.Chemscore.Hbonds>
donor molecule, donor type, donor heavy atom, donor atom, acceptor molecule, acceptor atom, score
      L1  H    17    40       P1  7957  0.32
      P1  H  7989  7998       L1     9  1.00
      P1  H  7997  8008       L1     7  0.03
      P1  H  8011  8017       L1    17  0.96

> <Gold.PLP.Chemscore.Internal.Correction>
0.4239

> <Gold.Rescore>
     Score         DG    S(hbond)    S(metal)    S(lipo)     H(rot)  DE(clash)    DE(int)     intcor
     10.87     -15.07       1.56        0.00      87.76       2.30       0.63       3.57       ----

> <Gold.Chemscore.Fitness>
10.8747

> <Gold.Chemscore.DG>
-15.0708

> <Gold.Chemscore.ZeroCoef>
-5.4800

> <Gold.Chemscore.Hbond>
1.5599

> <Gold.Chemscore.Metal>
0.0000

> <Gold.Chemscore.Lipo>
87.7582

> <Gold.Chemscore.Internal_Hbond>
0.0000

> <Gold.Chemscore.DEClash>
0.6308

> <Gold.Chemscore.DEInternal>
3.5654

> <Gold.Chemscore.Rot>
2.2996

> <Gold.Chemscore.Internal.Correction>
   9.000000E+99

> <Gold.Chemscore.Hbonds>
donor molecule, donor type, donor heavy atom, donor atom, acceptor molecule, acceptor atom, score
      L1  H    17    40       P1  7957  0.32
      P1  H  7989  7998       L1     9  0.60
      P1  H  8011  8017       L1    17  0.87

> <Gold.Chemscore.Hbond.Weighted>
-5.2101

> <Gold.Chemscore.Metal.Weighted>
-0.0000

> <Gold.Chemscore.Lipo.Weighted>
-10.2677

> <Gold.Chemscore.Internal_Hbond.Weighted>
0.0000

> <Gold.Chemscore.DEClash.Weighted>
0.6308

> <Gold.Chemscore.DEInternal.Weighted>
3.5654

> <Gold.Chemscore.Rot.Weighted>
5.8869

> <Gold.Chemscore.Internal.Correction.Weighted>
   9.000000E+99

> <Gold.Protein.RotatedTorsions>
[ 6907 6896 6895 6894 ] final   21.30 input  -60.11 | X-H torsion
[ 7974 7965 7964 7962 ] final  -46.54 input  175.53 | X-H torsion
[ 8008 7997 7996 7995 ] final  -57.48 input   59.86 | X-H torsion
[ 10167 10162 10161 10158 ] final -149.69 input  -65.29 | X-H torsion
[ 10718 10713 10712 10709 ] final  -39.24 input   66.30 | X-H torsion
[ 10763 10752 10751 10750 ] final -135.90 input  -60.55 | X-H torsion
[ 11005 11000 10999 10996 ] final  -63.28 input  -57.11 | X-H torsion

> <Gold.Protein.ActiveResidues>
 VAL166  LYS551  ARG553  GLY616  TRP617  ASP618  TYR619  PRO620  LYS621  CYS622 
 ASP623  PHE694  ASN695  SER759  ASP760  ASP761  ALA762  ILE779  LEU786  VAL792 
 PHE793  MET794  SER795  GLU796  ALA797  LYS798  CYS799  TRP800  GLU811  SER814 

> <Gold.Protein.RotatedAtoms>
  151.9096  135.0344  160.0513 H   0  0  0  0  0  0  0  0  0  0  0  0  # atno 6907 bound_to 6896
  152.2290  133.5039  159.5213 H   0  0  0  0  0  0  0  0  0  0  0  0  # atno 6908 bound_to 6896
  150.7020  134.1158  159.4059 H   0  0  0  0  0  0  0  0  0  0  0  0  # atno 6909 bound_to 6896
  145.9708  140.7384  142.9411 H   0  0  0  0  0  0  0  0  0  0  0  0  # atno 7974 bound_to 7965
  154.4270  140.1106  156.5804 H   0  0  0  0  0  0  0  0  0  0  0  0  # atno 8008 bound_to 7997
  155.6118  140.3494  155.4606 H   0  0  0  0  0  0  0  0  0  0  0  0  # atno 8009 bound_to 7997
  156.0093  140.1216  157.0459 H   0  0  0  0  0  0  0  0  0  0  0  0  # atno 8010 bound_to 7997
  139.7420  143.8647  152.2565 H   0  0  0  0  0  0  0  0  0  0  0  0  # atno 10167 bound_to 10162
  156.2947  130.4232  149.8203 H   0  0  0  0  0  0  0  0  0  0  0  0  # atno 10718 bound_to 10713
  154.8694  135.3689  154.4973 H   0  0  0  0  0  0  0  0  0  0  0  0  # atno 10763 bound_to 10752
  153.5616  135.7023  153.5550 H   0  0  0  0  0  0  0  0  0  0  0  0  # atno 10764 bound_to 10752
  153.3623  135.4043  155.1691 H   0  0  0  0  0  0  0  0  0  0  0  0  # atno 10765 bound_to 10752
  141.1388  133.6650  156.5656 H   0  0  0  0  0  0  0  0  0  0  0  0  # atno 11005 bound_to 11000
  144.6836  140.2746  143.7301 LP  0  0  0  0  0  0  0  0  0  0  0  0  # atno 17320 bound_to 7965
  145.7908  139.1926  143.2104 LP  0  0  0  0  0  0  0  0  0  0  0  0  # atno 17321 bound_to 7965
  139.8601  144.7121  150.9110 LP  0  0  0  0  0  0  0  0  0  0  0  0  # atno 17342 bound_to 10162
  140.7787  143.3825  151.1451 LP  0  0  0  0  0  0  0  0  0  0  0  0  # atno 17343 bound_to 10162
  156.5603  130.8380  151.3327 LP  0  0  0  0  0  0  0  0  0  0  0  0  # atno 17370 bound_to 10713
  157.7352  130.9758  150.2069 LP  0  0  0  0  0  0  0  0  0  0  0  0  # atno 17371 bound_to 10713
  140.3953  134.7404  157.4747 LP  0  0  0  0  0  0  0  0  0  0  0  0  # atno 17394 bound_to 11000
  140.0536  134.6096  155.8832 LP  0  0  0  0  0  0  0  0  0  0  0  0  # atno 17395 bound_to 11000

$$$$
