AV-unprocessed.smi:1000|AV-procd|sdf|4356|dock7
  -GOLD-   22720 2253D 1   1.00000     0.00000
 Structure written by MMmdl.
 40 41  0  0  0  0  0  0  0  0  1 V2000
  150.2730  134.3181  154.3304 C   0  0  0  0  0  0  0  0  0  0  0  0
  149.3544  135.9186  154.5197 S   0  0  1  0  0  0  0  0  0  0  0  0
  148.9018  136.0073  155.9786 O   0  0  0  0  0  0  0  0  0  0  0  0
  150.8510  136.9648  154.4424 C   0  0  0  0  0  0  0  0  0  0  0  0
  152.0911  136.5066  154.6368 N   0  0  0  0  0  0  0  0  0  0  0  0
  152.9069  137.6127  154.4893 N   0  0  0  0  0  0  0  0  0  0  0  0
  152.0707  138.6175  154.2212 C   0  0  0  0  0  0  0  0  0  0  0  0
  150.7717  138.2819  154.1743 N   0  0  0  0  0  0  0  0  0  0  0  0
  149.6216  139.1284  153.9112 C   0  0  0  0  0  0  0  0  0  0  0  0
  149.6535  140.3823  154.7844 C   0  0  0  0  0  0  0  0  0  0  0  0
  149.5089  141.4902  154.2691 O   0  0  0  0  0  0  0  0  0  0  0  0
  149.8443  140.1912  156.0994 N   0  0  0  0  0  0  0  0  0  0  0  0
  149.9165  141.2418  157.1112 C   0  0  0  0  0  0  0  0  0  0  0  0
  151.2073  142.0738  156.9877 C   0  0  0  0  0  0  0  0  0  0  0  0
  151.7724  142.5265  158.3250 C   0  0  0  0  0  0  0  0  0  0  0  0
  151.9408  143.8297  158.6230 C   0  0  0  0  0  0  0  0  0  0  0  0
  152.4590  144.3388  159.9558 C   0  0  0  0  0  0  0  0  0  0  0  0
  152.4346  143.2522  161.0435 C   0  0  0  0  0  0  0  0  0  0  0  0
  152.9633  141.9184  160.5019 C   0  0  0  0  0  0  0  0  0  0  0  0
  152.1180  141.4201  159.3161 C   0  0  0  0  0  0  0  0  0  0  0  0
  151.2104  134.4612  153.7928 H   0  0  0  0  0  0  0  0  0  0  0  0
  149.6656  133.6042  153.7742 H   0  0  0  0  0  0  0  0  0  0  0  0
  150.4956  133.8937  155.3095 H   0  0  0  0  0  0  0  0  0  0  0  0
  152.4167  139.6272  154.0551 H   0  0  0  0  0  0  0  0  0  0  0  0
  149.6161  139.4041  152.8558 H   0  0  0  0  0  0  0  0  0  0  0  0
  148.7079  138.5627  154.0968 H   0  0  0  0  0  0  0  0  0  0  0  0
  149.9518  139.2421  156.4265 H   0  0  0  0  0  0  0  0  0  0  0  0
  149.0325  141.8805  157.0825 H   0  0  0  0  0  0  0  0  0  0  0  0
  149.9002  140.7543  158.0861 H   0  0  0  0  0  0  0  0  0  0  0  0
  151.9721  141.4901  156.4746 H   0  0  0  0  0  0  0  0  0  0  0  0
  151.0190  142.9427  156.3555 H   0  0  0  0  0  0  0  0  0  0  0  0
  151.6965  144.5841  157.8895 H   0  0  0  0  0  0  0  0  0  0  0  0
  153.4759  144.7033  159.8071 H   0  0  0  0  0  0  0  0  0  0  0  0
  151.8582  145.1918  160.2723 H   0  0  0  0  0  0  0  0  0  0  0  0
  153.0205  143.5728  161.9055 H   0  0  0  0  0  0  0  0  0  0  0  0
  151.4121  143.1136  161.3979 H   0  0  0  0  0  0  0  0  0  0  0  0
  153.9982  142.0480  160.1822 H   0  0  0  0  0  0  0  0  0  0  0  0
  152.9764  141.1661  161.2910 H   0  0  0  0  0  0  0  0  0  0  0  0
  151.1886  140.9876  159.6862 H   0  0  0  0  0  0  0  0  0  0  0  0
  152.6521  140.6214  158.8006 H   0  0  0  0  0  0  0  0  0  0  0  0
  1  2  1  0  0  0  0
  1 21  1  0  0  0  0
  1 22  1  0  0  0  0
  1 23  1  0  0  0  0
  2  3  2  0  0  0  0
  2  4  1  0  0  0  0
  4  8  1  0  0  0  0
  4  5  2  0  0  0  0
  5  6  1  0  0  0  0
  6  7  2  0  0  0  0
  7  8  1  0  0  0  0
  7 24  1  0  0  0  0
  8  9  1  0  0  0  0
  9 10  1  0  0  0  0
  9 25  1  0  0  0  0
  9 26  1  0  0  0  0
 10 11  2  0  0  0  0
 10 12  1  0  0  0  0
 12 13  1  0  0  0  0
 12 27  1  0  0  0  0
 13 14  1  0  0  0  0
 13 28  1  0  0  0  0
 13 29  1  0  0  0  0
 14 15  1  0  0  0  0
 14 30  1  0  0  0  0
 14 31  1  0  0  0  0
 15 20  1  0  0  0  0
 15 16  2  0  0  0  0
 16 17  1  0  0  0  0
 16 32  1  0  0  0  0
 17 18  1  0  0  0  0
 17 33  1  0  0  0  0
 17 34  1  0  0  0  0
 18 19  1  0  0  0  0
 18 35  1  0  0  0  0
 18 36  1  0  0  0  0
 19 20  1  0  0  0  0
 19 37  1  0  0  0  0
 19 38  1  0  0  0  0
 20 39  1  0  0  0  0
 20 40  1  0  0  0  0
M  END
> <s_m_source_file>
AV-unprocessed.smi

> <i_m_source_file_index>
1000

> <i_lp_mmshare_version>
43012

> <i_f3d_flags>
0

> <s_epik_input>
W0NIM11bU0BdKD1PKWMxbm5bY0hdbjFbQ0gyXUMoPU8pW05IXVtDSDJdW0NIMl1DMj1bQ0hdW0NIMl1bQ0gyXVtDSDJdW0NIMl0y

> <s_epik_cmdline>
J2VwaWtfcHl0aG9uJywgJy1waCcsICc3LjAnLCAnLXRuJywgJzgnLCAnLW1hJywgJzIwMCcsICctbWV0YWxfYmluZGluZycsICctaW1hZScsICc8aW5maWxlLm1hZT4nLCAnLW9tYWUnLCAnPG91dGZpbGUubWFlPic=

> <r_lp_tautomer_probability>
1

> <r_epik_Ionization_Penalty>
9.22166e-08

> <r_epik_Ionization_Penalty_Charging>
0

> <r_epik_Ionization_Penalty_Neutral>
9.22166e-08

> <r_epik_State_Penalty>
-0

> <r_epik_Charging_Adjusted_Penalty>
0

> <i_epik_Tot_Q>
0

> <i_epik_Tot_abs_Q>
0

> <r_epik_Metal_State_Penalty>
-0

> <b_epik_Metal_Only>
0

> <s_lp_Force_Field>
OPLS_2005

> <r_lp_Energy>
7.40605

> <b_lp_Chiralities_Consistent>
1

> <s_lp_Variant>
AV-unprocessed.smi:1000-2

> <Gold.Version>
5.8.1

> <Gold.Id.Protein>
6NUR|6NUR_protein|mol2

> <Gold.PLP.Fitness>
50.4630

> <Gold.PLP.PLP>
-46.8189

> <Gold.PLP.part.hbond>
-3.8177

> <Gold.PLP.part.metal>
0.0000

> <Gold.PLP.part.buried>
-4.7297

> <Gold.PLP.part.nonpolar>
-38.6939

> <Gold.PLP.part.repulsive>
0.3155

> <Gold.PLP.ligand.clash>
0.0000

> <Gold.PLP.ligand.torsion>
1.2951

> <Gold.PLP.Chemscore.Hbond>
1.7182

> <Gold.PLP.Chemscore.CHOScore>
0.0000

> <Gold.PLP.Chemscore.Metal>
0.0000

> <Gold.Chemscore.Hbonds>
donor molecule, donor type, donor heavy atom, donor atom, acceptor molecule, acceptor atom, score
      P1  H  8011  8017       L1    11  0.41
      P1  H 10752 10763       L1     5  0.41

> <Gold.PLP.Chemscore.Internal.Correction>
1.0797

> <Gold.Rescore>
     Score         DG    S(hbond)    S(metal)    S(lipo)     H(rot)  DE(clash)    DE(int)     intcor
     13.15     -14.92       1.39        0.00      90.57       2.26       0.23       1.53       ----

> <Gold.Chemscore.Fitness>
13.1524

> <Gold.Chemscore.DG>
-14.9210

> <Gold.Chemscore.ZeroCoef>
-5.4800

> <Gold.Chemscore.Hbond>
1.3891

> <Gold.Chemscore.Metal>
0.0000

> <Gold.Chemscore.Lipo>
90.5746

> <Gold.Chemscore.Internal_Hbond>
0.0000

> <Gold.Chemscore.DEClash>
0.2345

> <Gold.Chemscore.DEInternal>
1.5340

> <Gold.Chemscore.Rot>
2.2640

> <Gold.Chemscore.Internal.Correction>
   9.000000E+99

> <Gold.Chemscore.Hbonds>
donor molecule, donor type, donor heavy atom, donor atom, acceptor molecule, acceptor atom, score
      P1  H  8011  8017       L1    11  0.40
      P1  H 10752 10763       L1     5  0.10

> <Gold.Chemscore.Hbond.Weighted>
-4.6395

> <Gold.Chemscore.Metal.Weighted>
-0.0000

> <Gold.Chemscore.Lipo.Weighted>
-10.5972

> <Gold.Chemscore.Internal_Hbond.Weighted>
0.0000

> <Gold.Chemscore.DEClash.Weighted>
0.2345

> <Gold.Chemscore.DEInternal.Weighted>
1.5340

> <Gold.Chemscore.Rot.Weighted>
5.7957

> <Gold.Chemscore.Internal.Correction.Weighted>
   9.000000E+99

> <Gold.Protein.RotatedTorsions>
[ 6907 6896 6895 6894 ] final  -88.03 input  -60.11 | X-H torsion
[ 7974 7965 7964 7962 ] final  174.06 input  175.53 | X-H torsion
[ 8008 7997 7996 7995 ] final  105.91 input   59.86 | X-H torsion
[ 10167 10162 10161 10158 ] final  -41.94 input  -65.29 | X-H torsion
[ 10718 10713 10712 10709 ] final -128.86 input   66.30 | X-H torsion
[ 10763 10752 10751 10750 ] final   76.80 input  -60.55 | X-H torsion
[ 11005 11000 10999 10996 ] final  133.27 input  -57.11 | X-H torsion

> <Gold.Protein.ActiveResidues>
 VAL166  LYS551  ARG553  GLY616  TRP617  ASP618  TYR619  PRO620  LYS621  CYS622 
 ASP623  PHE694  ASN695  SER759  ASP760  ASP761  ALA762  ILE779  LEU786  VAL792 
 PHE793  MET794  SER795  GLU796  ALA797  LYS798  CYS799  TRP800  GLU811  SER814 

> <Gold.Protein.RotatedAtoms>
  150.6867  134.2805  159.4624 H   0  0  0  0  0  0  0  0  0  0  0  0  # atno 6907 bound_to 6896
  152.0719  134.9525  160.0583 H   0  0  0  0  0  0  0  0  0  0  0  0  # atno 6908 bound_to 6896
  152.0912  133.4166  159.4581 H   0  0  0  0  0  0  0  0  0  0  0  0  # atno 6909 bound_to 6896
  144.7230  139.9740  143.6437 H   0  0  0  0  0  0  0  0  0  0  0  0  # atno 7974 bound_to 7965
  156.1699  140.3122  155.8954 H   0  0  0  0  0  0  0  0  0  0  0  0  # atno 8008 bound_to 7997
  155.3609  140.0476  157.3063 H   0  0  0  0  0  0  0  0  0  0  0  0  # atno 8009 bound_to 7997
  154.5230  140.2204  155.8952 H   0  0  0  0  0  0  0  0  0  0  0  0  # atno 8010 bound_to 7997
  140.6986  143.3066  151.3137 H   0  0  0  0  0  0  0  0  0  0  0  0  # atno 10167 bound_to 10162
  156.1991  130.6846  151.0518 H   0  0  0  0  0  0  0  0  0  0  0  0  # atno 10718 bound_to 10713
  153.0752  135.4938  154.8388 H   0  0  0  0  0  0  0  0  0  0  0  0  # atno 10763 bound_to 10752
  154.7077  135.3014  154.9247 H   0  0  0  0  0  0  0  0  0  0  0  0  # atno 10764 bound_to 10752
  153.9951  135.6773  153.4809 H   0  0  0  0  0  0  0  0  0  0  0  0  # atno 10765 bound_to 10752
  139.9841  134.9538  156.9701 H   0  0  0  0  0  0  0  0  0  0  0  0  # atno 11005 bound_to 11000
  146.0540  139.3539  143.0622 LP  0  0  0  0  0  0  0  0  0  0  0  0  # atno 17320 bound_to 7965
  145.8178  140.9694  143.0915 LP  0  0  0  0  0  0  0  0  0  0  0  0  # atno 17321 bound_to 7965
  139.6474  144.0426  152.2601 LP  0  0  0  0  0  0  0  0  0  0  0  0  # atno 17342 bound_to 10162
  139.9951  144.6334  150.7779 LP  0  0  0  0  0  0  0  0  0  0  0  0  # atno 17343 bound_to 10162
  157.6975  131.0788  150.6923 LP  0  0  0  0  0  0  0  0  0  0  0  0  # atno 17370 bound_to 10713
  156.6980  130.4615  149.5581 LP  0  0  0  0  0  0  0  0  0  0  0  0  # atno 17371 bound_to 10713
  140.5036  134.1072  155.7255 LP  0  0  0  0  0  0  0  0  0  0  0  0  # atno 17394 bound_to 11000
  141.1509  133.8970  157.2100 LP  0  0  0  0  0  0  0  0  0  0  0  0  # atno 17395 bound_to 11000

$$$$
