AV-unprocessed.smi:2093|AV-procd|sdf|8548|dock8
  -GOLD-   2272011273D 1   1.00000     0.00000
 Structure written by MMmdl.
 30 31  0  0  0  0  0  0  0  0  2 V2000
  153.8131  141.5344  160.6397 C   0  0  0  0  0  0  0  0  0  0  0  0
  152.4941  141.3878  159.8593 C   0  0  2  0  0  0  0  0  0  0  0  0
  152.7479  140.7246  158.5818 N   0  0  0  0  0  0  0  0  0  0  0  0
  152.2735  139.5299  158.2003 C   0  0  0  0  0  0  0  0  0  0  0  0
  151.5589  138.8776  158.9650 O   0  0  0  0  0  0  0  0  0  0  0  0
  152.6576  139.1646  156.9559 N   0  5  0  0  0  0  0  0  0  0  0  0
  151.7486  139.0707  155.9718 C   0  0  0  0  0  0  0  0  0  0  0  0
  150.5424  139.6456  156.0376 N   0  0  0  0  0  0  0  0  0  0  0  0
  149.7550  139.4147  154.9082 C   0  0  0  0  0  0  0  0  0  0  0  0
  150.3723  138.6381  153.9641 C   0  0  0  0  0  0  0  0  0  0  0  0
  151.9710  138.1702  154.4689 S   0  0  0  0  0  0  0  0  0  0  0  0
  151.8180  142.7477  159.5961 C   0  0  2  0  0  0  0  0  0  0  0  0
  152.6172  143.6956  158.7008 C   0  0  0  0  0  0  0  0  0  0  0  0
  152.0477  145.0401  159.0908 C   0  0  0  0  0  0  0  0  0  0  0  0
  151.8330  144.8703  160.5921 C   0  0  0  0  0  0  0  0  0  0  0  0
  151.6593  143.4731  160.8139 O   0  0  0  0  0  0  0  0  0  0  0  0
  153.6486  141.9842  161.6189 H   0  0  0  0  0  0  0  0  0  0  0  0
  154.5248  142.1600  160.1001 H   0  0  0  0  0  0  0  0  0  0  0  0
  154.2840  140.5651  160.8072 H   0  0  0  0  0  0  0  0  0  0  0  0
  151.8068  140.7751  160.4456 H   0  0  0  0  0  0  0  0  0  0  0  0
  153.3248  141.2228  157.9200 H   0  0  0  0  0  0  0  0  0  0  0  0
  148.7643  139.8417  154.8620 H   0  0  0  0  0  0  0  0  0  0  0  0
  149.9875  138.3130  153.0096 H   0  0  0  0  0  0  0  0  0  0  0  0
  150.8260  142.6006  159.1650 H   0  0  0  0  0  0  0  0  0  0  0  0
  153.6792  143.6546  158.9470 H   0  0  0  0  0  0  0  0  0  0  0  0
  152.5021  143.4785  157.6386 H   0  0  0  0  0  0  0  0  0  0  0  0
  152.7064  145.8736  158.8457 H   0  0  0  0  0  0  0  0  0  0  0  0
  151.0917  145.1998  158.5899 H   0  0  0  0  0  0  0  0  0  0  0  0
  152.7125  145.2006  161.1458 H   0  0  0  0  0  0  0  0  0  0  0  0
  150.9740  145.4378  160.9509 H   0  0  0  0  0  0  0  0  0  0  0  0
  1  2  1  0  0  0  0
  1 17  1  0  0  0  0
  1 18  1  0  0  0  0
  1 19  1  0  0  0  0
  2  3  1  0  0  0  0
  2 12  1  0  0  0  0
  2 20  1  0  0  0  0
  3  4  1  0  0  0  0
  3 21  1  0  0  0  0
  4  5  2  0  0  0  0
  4  6  1  0  0  0  0
  6  7  1  0  0  0  0
  7 11  1  0  0  0  0
  7  8  2  0  0  0  0
  8  9  1  0  0  0  0
  9 10  2  0  0  0  0
  9 22  1  0  0  0  0
 10 11  1  0  0  0  0
 10 23  1  0  0  0  0
 12 16  1  0  0  0  0
 12 13  1  0  0  0  0
 12 24  1  0  0  0  0
 13 14  1  0  0  0  0
 13 25  1  0  0  0  0
 13 26  1  0  0  0  0
 14 15  1  0  0  0  0
 14 27  1  0  0  0  0
 14 28  1  0  0  0  0
 15 16  1  0  0  0  0
 15 29  1  0  0  0  0
 15 30  1  0  0  0  0
M  CHG  1   6  -1
M  END
> <s_m_source_file>
AV-unprocessed.smi

> <i_m_source_file_index>
2093

> <i_lp_mmshare_version>
43012

> <i_f3d_flags>
0

> <s_epik_input>
TzFbQ0gyXVtDSDJdW0NIMl1bQ0BIXTFbQ0BIXShbQ0gzXSlbTkhdQyg9TylbTkhdYzJuW2NIXVtjSF1zMg==

> <s_epik_cmdline>
J2VwaWtfcHl0aG9uJywgJy1waCcsICc3LjAnLCAnLXRuJywgJzgnLCAnLW1hJywgJzIwMCcsICctbWV0YWxfYmluZGluZycsICctaW1hZScsICc8aW5maWxlLm1hZT4nLCAnLW9tYWUnLCAnPG91dGZpbGUubWFlPic=

> <r_lp_tautomer_probability>
0.999

> <r_epik_Ionization_Penalty>
8.26346

> <r_epik_Ionization_Penalty_Charging>
6.6559

> <r_epik_Ionization_Penalty_Neutral>
1.60756

> <r_epik_State_Penalty>
6.65607

> <r_epik_Charging_Adjusted_Penalty>
13.312

> <i_epik_Tot_Q>
-1

> <i_epik_Tot_abs_Q>
1

> <r_epik_Metal_State_Penalty>
2.5789

> <b_epik_Metal_Only>
1

> <s_lp_Force_Field>
OPLS_2005

> <r_lp_Energy>
13.8271

> <b_lp_Chiralities_Consistent>
1

> <s_lp_Variant>
AV-unprocessed.smi:2093-5

> <Gold.Version>
5.8.1

> <Gold.Id.Protein>
6NUR|6NUR_protein|mol2

> <Gold.PLP.Fitness>
46.0479

> <Gold.PLP.PLP>
-36.1401

> <Gold.PLP.part.hbond>
-1.1629

> <Gold.PLP.part.metal>
0.0000

> <Gold.PLP.part.buried>
-5.2469

> <Gold.PLP.part.nonpolar>
-31.7532

> <Gold.PLP.part.repulsive>
0.2007

> <Gold.PLP.ligand.clash>
0.0000

> <Gold.PLP.ligand.torsion>
0.7440

> <Gold.PLP.Chemscore.Hbond>
2.0000

> <Gold.PLP.Chemscore.CHOScore>
1.7894

> <Gold.PLP.Chemscore.Metal>
0.0000

> <Gold.Chemscore.Hbonds>
donor molecule, donor type, donor heavy atom, donor atom, acceptor molecule, acceptor atom, score
      P1  H  7997  8010       L1     6  2.00
      L1  C    10    23       P1  7948  0.97
      L1  C    10    23       P1  7957  0.79

> <Gold.PLP.Chemscore.Internal.Correction>
0.0276

> <Gold.Rescore>
     Score         DG    S(hbond)    S(metal)    S(lipo)     H(rot)  DE(clash)    DE(int)     intcor
     15.01     -15.74       0.79        0.00      93.09       1.28       0.02       0.71       ----

> <Gold.Chemscore.Fitness>
15.0061

> <Gold.Chemscore.DG>
-15.7425

> <Gold.Chemscore.ZeroCoef>
-5.4800

> <Gold.Chemscore.Hbond>
0.7910

> <Gold.Chemscore.Metal>
0.0000

> <Gold.Chemscore.Lipo>
93.0896

> <Gold.Chemscore.Internal_Hbond>
0.0000

> <Gold.Chemscore.DEClash>
0.0217

> <Gold.Chemscore.DEInternal>
0.7147

> <Gold.Chemscore.Rot>
1.2778

> <Gold.Chemscore.Internal.Correction>
   9.000000E+99

> <Gold.Chemscore.Hbonds>
donor molecule, donor type, donor heavy atom, donor atom, acceptor molecule, acceptor atom, score
      P1  H  7997  8010       L1     6  0.48

> <Gold.Chemscore.Hbond.Weighted>
-2.6421

> <Gold.Chemscore.Metal.Weighted>
-0.0000

> <Gold.Chemscore.Lipo.Weighted>
-10.8915

> <Gold.Chemscore.Internal_Hbond.Weighted>
0.0000

> <Gold.Chemscore.DEClash.Weighted>
0.0217

> <Gold.Chemscore.DEInternal.Weighted>
0.7147

> <Gold.Chemscore.Rot.Weighted>
3.2711

> <Gold.Chemscore.Internal.Correction.Weighted>
   9.000000E+99

> <Gold.Protein.RotatedTorsions>
[ 6907 6896 6895 6894 ] final  179.04 input  -60.11 | X-H torsion
[ 7974 7965 7964 7962 ] final  -91.80 input  175.53 | X-H torsion
[ 8008 7997 7996 7995 ] final   58.82 input   59.86 | X-H torsion
[ 10167 10162 10161 10158 ] final  -56.08 input  -65.29 | X-H torsion
[ 10718 10713 10712 10709 ] final -172.37 input   66.30 | X-H torsion
[ 10763 10752 10751 10750 ] final -110.89 input  -60.55 | X-H torsion
[ 11005 11000 10999 10996 ] final   59.35 input  -57.11 | X-H torsion

> <Gold.Protein.ActiveResidues>
 VAL166  LYS551  ARG553  GLY616  TRP617  ASP618  TYR619  PRO620  LYS621  CYS622 
 ASP623  PHE694  ASN695  SER759  ASP760  ASP761  ALA762  ILE779  LEU786  VAL792 
 PHE793  MET794  SER795  GLU796  ALA797  LYS798  CYS799  TRP800  GLU811  SER814 

> <Gold.Protein.RotatedAtoms>
  151.6781  133.3312  159.3212 H   0  0  0  0  0  0  0  0  0  0  0  0  # atno 6907 bound_to 6896
  150.7836  134.6805  159.6450 H   0  0  0  0  0  0  0  0  0  0  0  0  # atno 6908 bound_to 6896
  152.3900  134.6460  160.0163 H   0  0  0  0  0  0  0  0  0  0  0  0  # atno 6909 bound_to 6896
  145.4083  140.9543  143.2248 H   0  0  0  0  0  0  0  0  0  0  0  0  # atno 7974 bound_to 7965
  155.5562  140.3487  155.4480 H   0  0  0  0  0  0  0  0  0  0  0  0  # atno 8008 bound_to 7997
  156.0547  140.1326  157.0036 H   0  0  0  0  0  0  0  0  0  0  0  0  # atno 8009 bound_to 7997
  154.4451  140.0997  156.6413 H   0  0  0  0  0  0  0  0  0  0  0  0  # atno 8010 bound_to 7997
  140.6338  143.2472  151.5172 H   0  0  0  0  0  0  0  0  0  0  0  0  # atno 10167 bound_to 10162
  156.7545  130.9390  151.3116 H   0  0  0  0  0  0  0  0  0  0  0  0  # atno 10718 bound_to 10713
  154.8272  135.4547  154.0954 H   0  0  0  0  0  0  0  0  0  0  0  0  # atno 10763 bound_to 10752
  153.2259  135.6899  153.7952 H   0  0  0  0  0  0  0  0  0  0  0  0  # atno 10764 bound_to 10752
  153.7353  135.3321  155.3270 H   0  0  0  0  0  0  0  0  0  0  0  0  # atno 10765 bound_to 10752
  140.0310  134.6012  155.9507 H   0  0  0  0  0  0  0  0  0  0  0  0  # atno 11005 bound_to 11000
  144.8326  139.5602  143.6936 LP  0  0  0  0  0  0  0  0  0  0  0  0  # atno 17320 bound_to 7965
  146.2717  139.6653  142.9291 LP  0  0  0  0  0  0  0  0  0  0  0  0  # atno 17321 bound_to 7965
  139.5550  144.2299  152.1596 LP  0  0  0  0  0  0  0  0  0  0  0  0  # atno 17342 bound_to 10162
  140.1550  144.5079  150.6665 LP  0  0  0  0  0  0  0  0  0  0  0  0  # atno 17343 bound_to 10162
  157.6762  130.9097  150.0156 LP  0  0  0  0  0  0  0  0  0  0  0  0  # atno 17370 bound_to 10713
  156.1379  130.3642  149.9628 LP  0  0  0  0  0  0  0  0  0  0  0  0  # atno 17371 bound_to 10713
  141.1831  133.6550  156.5103 LP  0  0  0  0  0  0  0  0  0  0  0  0  # atno 17394 bound_to 11000
  140.4225  134.7174  157.4898 LP  0  0  0  0  0  0  0  0  0  0  0  0  # atno 17395 bound_to 11000

$$$$
