AV-unprocessed.smi:785|AV-procd|sdf|3720|dock4
  -GOLD-   22720 1143D 1   1.00000     0.00000
 Structure written by MMmdl.
 35 36  0  0  0  0  0  0  0  0  1 V2000
  153.5421  140.6167  159.3410 C   0  0  0  0  0  0  0  0  0  0  0  0
  152.8481  141.8031  159.9171 C   0  0  0  0  0  0  0  0  0  0  0  0
  151.9453  142.5273  159.2507 N   0  0  0  0  0  0  0  0  0  0  0  0
  151.4404  143.5903  160.0076 C   0  0  0  0  0  0  0  0  0  0  0  0
  150.4094  144.5093  159.4183 C   0  0  0  0  0  0  0  0  0  0  0  0
  149.2296  144.6735  160.3779 C   0  0  0  0  0  0  0  0  0  0  0  0
  149.2763  144.1758  161.5026 O   0  0  0  0  0  0  0  0  0  0  0  0
  148.1818  145.3810  159.9264 N   0  0  0  0  0  0  0  0  0  0  0  0
  146.9686  145.6569  160.6854 C   0  0  0  0  0  0  0  0  0  0  0  0
  145.9558  146.4631  159.8531 C   0  0  0  0  0  0  0  0  0  0  0  0
  145.8684  147.8450  160.3095 N   0  0  0  0  0  0  0  0  0  0  0  0
  146.0565  148.9264  159.5380 C   0  0  0  0  0  0  0  0  0  0  0  0
  146.3273  148.8559  158.3381 O   0  0  0  0  0  0  0  0  0  0  0  0
  145.9073  150.2228  160.2651 C   0  0  0  0  0  0  0  0  0  0  0  0
  146.1753  151.4981  159.4918 C   0  0  0  0  0  0  0  0  0  0  0  0
  147.1626  151.0289  160.5307 C   0  0  0  0  0  0  0  0  0  0  0  0
  151.9755  143.6541  161.2708 C   0  0  0  0  0  0  0  0  0  0  0  0
  153.1412  142.3898  161.5493 S   0  0  0  0  0  0  0  0  0  0  0  0
  153.0866  140.3274  158.3934 H   0  0  0  0  0  0  0  0  0  0  0  0
  153.4763  139.7749  160.0303 H   0  0  0  0  0  0  0  0  0  0  0  0
  154.5933  140.8478  159.1687 H   0  0  0  0  0  0  0  0  0  0  0  0
  150.8393  145.4897  159.2075 H   0  0  0  0  0  0  0  0  0  0  0  0
  150.0490  144.1227  158.4641 H   0  0  0  0  0  0  0  0  0  0  0  0
  148.2284  145.7544  158.9892 H   0  0  0  0  0  0  0  0  0  0  0  0
  146.5368  144.7005  160.9819 H   0  0  0  0  0  0  0  0  0  0  0  0
  147.2144  146.1855  161.6080 H   0  0  0  0  0  0  0  0  0  0  0  0
  146.2560  146.4769  158.8050 H   0  0  0  0  0  0  0  0  0  0  0  0
  144.9709  145.9941  159.8871 H   0  0  0  0  0  0  0  0  0  0  0  0
  145.6489  147.9900  161.2844 H   0  0  0  0  0  0  0  0  0  0  0  0
  145.1288  150.2674  161.0255 H   0  0  0  0  0  0  0  0  0  0  0  0
  146.4744  151.4219  158.4477 H   0  0  0  0  0  0  0  0  0  0  0  0
  145.5534  152.3586  159.7295 H   0  0  0  0  0  0  0  0  0  0  0  0
  147.2101  151.5717  161.4724 H   0  0  0  0  0  0  0  0  0  0  0  0
  148.1158  150.6411  160.1756 H   0  0  0  0  0  0  0  0  0  0  0  0
  151.7572  144.3680  162.0511 H   0  0  0  0  0  0  0  0  0  0  0  0
  1  2  1  0  0  0  0
  1 19  1  0  0  0  0
  1 20  1  0  0  0  0
  1 21  1  0  0  0  0
  2 18  1  0  0  0  0
  2  3  2  0  0  0  0
  3  4  1  0  0  0  0
  4  5  1  0  0  0  0
  4 17  2  0  0  0  0
  5  6  1  0  0  0  0
  5 22  1  0  0  0  0
  5 23  1  0  0  0  0
  6  7  2  0  0  0  0
  6  8  1  0  0  0  0
  8  9  1  0  0  0  0
  8 24  1  0  0  0  0
  9 10  1  0  0  0  0
  9 25  1  0  0  0  0
  9 26  1  0  0  0  0
 10 11  1  0  0  0  0
 10 27  1  0  0  0  0
 10 28  1  0  0  0  0
 11 12  1  0  0  0  0
 11 29  1  0  0  0  0
 12 13  2  0  0  0  0
 12 14  1  0  0  0  0
 14 16  1  0  0  0  0
 14 15  1  0  0  0  0
 14 30  1  0  0  0  0
 15 16  1  0  0  0  0
 15 31  1  0  0  0  0
 15 32  1  0  0  0  0
 16 33  1  0  0  0  0
 16 34  1  0  0  0  0
 17 18  1  0  0  0  0
 17 35  1  0  0  0  0
M  END
> <s_m_source_file>
AV-unprocessed.smi

> <i_m_source_file_index>
785

> <i_lp_mmshare_version>
43012

> <i_f3d_flags>
0

> <s_epik_input>
W0NIM11jMW5jKFtjSF1zMSlbQ0gyXUMoPU8pW05IXVtDSDJdW0NIMl1bTkhdQyg9TylbQ0hdMltDSDJdW0NIMl0y

> <s_epik_cmdline>
J2VwaWtfcHl0aG9uJywgJy1waCcsICc3LjAnLCAnLXRuJywgJzgnLCAnLW1hJywgJzIwMCcsICctbWV0YWxfYmluZGluZycsICctaW1hZScsICc8aW5maWxlLm1hZT4nLCAnLW9tYWUnLCAnPG91dGZpbGUubWFlPic=

> <r_lp_tautomer_probability>
1

> <r_epik_Ionization_Penalty>
4.93122e-05

> <r_epik_Ionization_Penalty_Charging>
0

> <r_epik_Ionization_Penalty_Neutral>
4.93122e-05

> <r_epik_State_Penalty>
-0

> <r_epik_Charging_Adjusted_Penalty>
0

> <i_epik_Tot_Q>
0

> <i_epik_Tot_abs_Q>
0

> <r_epik_Metal_State_Penalty>
-0

> <b_epik_Metal_Only>
0

> <s_lp_Force_Field>
OPLS_2005

> <r_lp_Energy>
2.28636

> <b_lp_Chiralities_Consistent>
1

> <s_lp_Variant>
AV-unprocessed.smi:785-1

> <Gold.Version>
5.8.1

> <Gold.Id.Protein>
6NUR|6NUR_protein|mol2

> <Gold.PLP.Fitness>
49.6195

> <Gold.PLP.PLP>
-46.5511

> <Gold.PLP.part.hbond>
-4.1352

> <Gold.PLP.part.metal>
0.0000

> <Gold.PLP.part.buried>
-8.4333

> <Gold.PLP.part.nonpolar>
-34.5907

> <Gold.PLP.part.repulsive>
1.4173

> <Gold.PLP.ligand.clash>
0.0000

> <Gold.PLP.ligand.torsion>
0.6172

> <Gold.PLP.Chemscore.Hbond>
1.4000

> <Gold.PLP.Chemscore.CHOScore>
0.0000

> <Gold.PLP.Chemscore.Metal>
0.0000

> <Gold.Chemscore.Hbonds>
donor molecule, donor type, donor heavy atom, donor atom, acceptor molecule, acceptor atom, score
      L1  H     8    24       P1  8029  1.00
      P1  H  6933  6944       L1     7  0.40

> <Gold.PLP.Chemscore.Internal.Correction>
0.1029

> <Gold.Rescore>
     Score         DG    S(hbond)    S(metal)    S(lipo)     H(rot)  DE(clash)    DE(int)     intcor
     11.98     -15.88       1.14        0.00     103.65       2.16       1.87       2.03       ----

> <Gold.Chemscore.Fitness>
11.9815

> <Gold.Chemscore.DG>
-15.8806

> <Gold.Chemscore.ZeroCoef>
-5.4800

> <Gold.Chemscore.Hbond>
1.1367

> <Gold.Chemscore.Metal>
0.0000

> <Gold.Chemscore.Lipo>
103.6472

> <Gold.Chemscore.Internal_Hbond>
0.0000

> <Gold.Chemscore.DEClash>
1.8700

> <Gold.Chemscore.DEInternal>
2.0291

> <Gold.Chemscore.Rot>
2.1573

> <Gold.Chemscore.Internal.Correction>
   9.000000E+99

> <Gold.Chemscore.Hbonds>
donor molecule, donor type, donor heavy atom, donor atom, acceptor molecule, acceptor atom, score
      L1  H     8    24       P1  8029  1.00
      P1  H  6933  6944       L1     7  0.30

> <Gold.Chemscore.Hbond.Weighted>
-3.7967

> <Gold.Chemscore.Metal.Weighted>
-0.0000

> <Gold.Chemscore.Lipo.Weighted>
-12.1267

> <Gold.Chemscore.Internal_Hbond.Weighted>
0.0000

> <Gold.Chemscore.DEClash.Weighted>
1.8700

> <Gold.Chemscore.DEInternal.Weighted>
2.0291

> <Gold.Chemscore.Rot.Weighted>
5.5228

> <Gold.Chemscore.Internal.Correction.Weighted>
   9.000000E+99

> <Gold.Protein.RotatedTorsions>
[ 6907 6896 6895 6894 ] final  131.14 input  -60.11 | X-H torsion
[ 7974 7965 7964 7962 ] final  -74.20 input  175.53 | X-H torsion
[ 8008 7997 7996 7995 ] final  -60.52 input   59.86 | X-H torsion
[ 10167 10162 10161 10158 ] final  -43.10 input  -65.29 | X-H torsion
[ 10718 10713 10712 10709 ] final   50.69 input   66.30 | X-H torsion
[ 10763 10752 10751 10750 ] final  152.65 input  -60.55 | X-H torsion
[ 11005 11000 10999 10996 ] final  -35.55 input  -57.11 | X-H torsion

> <Gold.Protein.ActiveResidues>
 VAL166  LYS551  ARG553  GLY616  TRP617  ASP618  TYR619  PRO620  LYS621  CYS622 
 ASP623  PHE694  ASN695  SER759  ASP760  ASP761  ALA762  ILE779  LEU786  VAL792 
 PHE793  MET794  SER795  GLU796  ALA797  LYS798  CYS799  TRP800  GLU811  SER814 

> <Gold.Protein.RotatedAtoms>
  152.3456  133.6118  159.5907 H   0  0  0  0  0  0  0  0  0  0  0  0  # atno 6907 bound_to 6896
  150.7505  133.9655  159.3538 H   0  0  0  0  0  0  0  0  0  0  0  0  # atno 6908 bound_to 6896
  151.7513  135.0832  160.0382 H   0  0  0  0  0  0  0  0  0  0  0  0  # atno 6909 bound_to 6896
  145.6423  140.9307  143.1029 H   0  0  0  0  0  0  0  0  0  0  0  0  # atno 7974 bound_to 7965
  154.4402  140.1038  156.6286 H   0  0  0  0  0  0  0  0  0  0  0  0  # atno 8008 bound_to 7997
  155.5629  140.3488  155.4477 H   0  0  0  0  0  0  0  0  0  0  0  0  # atno 8009 bound_to 7997
  156.0446  140.1290  157.0107 H   0  0  0  0  0  0  0  0  0  0  0  0  # atno 8010 bound_to 7997
  140.6946  143.3001  151.3304 H   0  0  0  0  0  0  0  0  0  0  0  0  # atno 10167 bound_to 10162
  157.4909  130.8375  149.8201 H   0  0  0  0  0  0  0  0  0  0  0  0  # atno 10718 bound_to 10713
  154.1234  135.2831  155.3203 H   0  0  0  0  0  0  0  0  0  0  0  0  # atno 10763 bound_to 10752
  154.6407  135.5403  153.7789 H   0  0  0  0  0  0  0  0  0  0  0  0  # atno 10764 bound_to 10752
  153.0305  135.6485  154.1387 H   0  0  0  0  0  0  0  0  0  0  0  0  # atno 10765 bound_to 10752
  140.9805  133.7059  156.1675 H   0  0  0  0  0  0  0  0  0  0  0  0  # atno 11005 bound_to 11000
  144.7153  139.8220  143.7401 LP  0  0  0  0  0  0  0  0  0  0  0  0  # atno 17320 bound_to 7965
  146.1271  139.4299  143.0192 LP  0  0  0  0  0  0  0  0  0  0  0  0  # atno 17321 bound_to 7965
  139.6385  144.0584  152.2536 LP  0  0  0  0  0  0  0  0  0  0  0  0  # atno 17342 bound_to 10162
  140.0081  144.6244  150.7671 LP  0  0  0  0  0  0  0  0  0  0  0  0  # atno 17343 bound_to 10162
  156.0173  130.3809  150.2072 LP  0  0  0  0  0  0  0  0  0  0  0  0  # atno 17370 bound_to 10713
  157.0260  130.9993  151.3326 LP  0  0  0  0  0  0  0  0  0  0  0  0  # atno 17371 bound_to 10713
  140.7194  134.4375  157.5576 LP  0  0  0  0  0  0  0  0  0  0  0  0  # atno 17394 bound_to 11000
  139.8948  134.8698  156.2160 LP  0  0  0  0  0  0  0  0  0  0  0  0  # atno 17395 bound_to 11000

$$$$
