AV-unprocessed.smi:91|AV-procd|sdf|834|dock3
  -GOLD-   2262017263D 1   1.00000     0.00000
 Structure written by MMmdl.
 60 63  0  0  0  0  0  0  0  0  1 V2000
  147.7439  127.8542  150.6460 C   0  0  0  0  0  0  0  0  0  0  0  0
  147.2578  128.1730  151.9403 O   0  0  0  0  0  0  0  0  0  0  0  0
  145.9679  128.7710  151.9489 C   0  0  0  0  0  0  0  0  0  0  0  0
  146.0139  130.2750  152.2727 C   0  0  1  0  0  0  0  0  0  0  0  0
  147.4232  130.7338  152.6883 C   0  0  0  0  0  0  0  0  0  0  0  0
  147.4626  132.1860  152.8178 N   0  0  0  0  0  0  0  0  0  0  0  0
  148.4947  132.6944  153.5394 C   0  0  0  0  0  0  0  0  0  0  0  0
  149.5751  131.8913  153.7228 N   0  0  0  0  0  0  0  0  0  0  0  0
  150.6253  132.3153  154.4306 C   0  0  0  0  0  0  0  0  0  0  0  0
  150.8048  133.4918  155.0317 N   0  0  0  0  0  0  0  0  0  0  0  0
  149.7299  134.3096  154.8474 C   0  0  0  0  0  0  0  0  0  0  0  0
  148.5405  133.9955  154.1271 C   0  0  0  0  0  0  0  0  0  0  0  0
  147.6771  135.0866  154.1632 N   0  0  0  0  0  0  0  0  0  0  0  0
  148.3126  135.9838  154.8645 C   0  0  0  0  0  0  0  0  0  0  0  0
  149.5627  135.6075  155.2979 N   0  0  0  0  0  0  0  0  0  0  0  0
  150.4810  136.4042  156.0925 C   0  0  0  0  0  0  0  0  0  0  0  0
  151.8123  136.7755  155.3856 C   0  0  2  0  0  0  0  0  0  0  0  0
  152.9618  136.5300  156.3932 C   0  0  0  0  0  0  0  0  0  0  0  0
  153.4588  135.2096  156.3208 O   0  0  0  0  0  0  0  0  0  0  0  0
  151.8187  138.2268  154.8125 C   0  0  2  0  0  0  0  0  0  0  0  0
  151.9019  139.3506  155.8481 C   0  0  0  0  0  0  0  0  0  0  0  0
  151.0616  140.4937  155.2715 C   0  0  0  0  0  0  0  0  0  0  0  0
  150.6662  140.0537  153.9828 O   0  0  0  0  0  0  0  0  0  0  0  0
  150.5642  138.6431  154.0386 C   0  0  0  0  0  0  0  0  0  0  0  0
  147.0138  132.8878  151.6220 C   0  0  0  0  0  0  0  0  0  0  0  0
  145.6122  132.4063  151.1879 C   0  0  0  0  0  0  0  0  0  0  0  0
  144.5092  132.9042  152.1467 C   0  0  0  0  0  0  0  0  0  0  0  0
  145.3093  132.9085  149.7680 C   0  0  0  0  0  0  0  0  0  0  0  0
  145.6137  130.9772  151.0948 O   0  0  0  0  0  0  0  0  0  0  0  0
  148.7583  127.4641  150.7275 H   0  0  0  0  0  0  0  0  0  0  0  0
  147.7770  128.7372  150.0065 H   0  0  0  0  0  0  0  0  0  0  0  0
  147.1366  127.0909  150.1601 H   0  0  0  0  0  0  0  0  0  0  0  0
  145.5340  128.6322  150.9583 H   0  0  0  0  0  0  0  0  0  0  0  0
  145.3116  128.2454  152.6442 H   0  0  0  0  0  0  0  0  0  0  0  0
  145.3056  130.4880  153.0714 H   0  0  0  0  0  0  0  0  0  0  0  0
  147.7037  130.2410  153.6194 H   0  0  0  0  0  0  0  0  0  0  0  0
  148.1548  130.4312  151.9378 H   0  0  0  0  0  0  0  0  0  0  0  0
  151.4378  131.6106  154.5289 H   0  0  0  0  0  0  0  0  0  0  0  0
  147.8897  136.9560  155.0730 H   0  0  0  0  0  0  0  0  0  0  0  0
  149.9654  137.3115  156.4102 H   0  0  0  0  0  0  0  0  0  0  0  0
  150.6862  135.8368  157.0013 H   0  0  0  0  0  0  0  0  0  0  0  0
  151.9525  136.0780  154.5587 H   0  0  0  0  0  0  0  0  0  0  0  0
  153.7744  137.2406  156.2388 H   0  0  0  0  0  0  0  0  0  0  0  0
  152.6142  136.6702  157.4170 H   0  0  0  0  0  0  0  0  0  0  0  0
  154.1720  135.1223  156.9347 H   0  0  0  0  0  0  0  0  0  0  0  0
  152.6644  138.3296  154.1306 H   0  0  0  0  0  0  0  0  0  0  0  0
  151.4893  139.0446  156.8099 H   0  0  0  0  0  0  0  0  0  0  0  0
  152.9313  139.6683  156.0102 H   0  0  0  0  0  0  0  0  0  0  0  0
  150.1751  140.6652  155.8839 H   0  0  0  0  0  0  0  0  0  0  0  0
  151.6170  141.4296  155.2075 H   0  0  0  0  0  0  0  0  0  0  0  0
  150.5223  138.2159  153.0364 H   0  0  0  0  0  0  0  0  0  0  0  0
  149.6535  138.3685  154.5739 H   0  0  0  0  0  0  0  0  0  0  0  0
  146.9940  133.9642  151.7973 H   0  0  0  0  0  0  0  0  0  0  0  0
  147.7323  132.7003  150.8228 H   0  0  0  0  0  0  0  0  0  0  0  0
  144.4300  133.9912  152.1173 H   0  0  0  0  0  0  0  0  0  0  0  0
  144.7021  132.6314  153.1838 H   0  0  0  0  0  0  0  0  0  0  0  0
  143.5363  132.4960  151.8721 H   0  0  0  0  0  0  0  0  0  0  0  0
  145.3089  133.9981  149.7240 H   0  0  0  0  0  0  0  0  0  0  0  0
  144.3335  132.5619  149.4262 H   0  0  0  0  0  0  0  0  0  0  0  0
  146.0524  132.5495  149.0551 H   0  0  0  0  0  0  0  0  0  0  0  0
  1  2  1  0  0  0  0
  1 30  1  0  0  0  0
  1 31  1  0  0  0  0
  1 32  1  0  0  0  0
  2  3  1  0  0  0  0
  3  4  1  0  0  0  0
  3 33  1  0  0  0  0
  3 34  1  0  0  0  0
  4 29  1  0  0  0  0
  4  5  1  0  0  0  0
  4 35  1  0  0  0  0
  5  6  1  0  0  0  0
  5 36  1  0  0  0  0
  5 37  1  0  0  0  0
  6  7  1  0  0  0  0
  6 25  1  0  0  0  0
  7 12  1  0  0  0  0
  7  8  2  0  0  0  0
  8  9  1  0  0  0  0
  9 10  2  0  0  0  0
  9 38  1  0  0  0  0
 10 11  1  0  0  0  0
 11 15  1  0  0  0  0
 11 12  2  0  0  0  0
 12 13  1  0  0  0  0
 13 14  2  0  0  0  0
 14 15  1  0  0  0  0
 14 39  1  0  0  0  0
 15 16  1  0  0  0  0
 16 17  1  0  0  0  0
 16 40  1  0  0  0  0
 16 41  1  0  0  0  0
 17 18  1  0  0  0  0
 17 20  1  0  0  0  0
 17 42  1  0  0  0  0
 18 19  1  0  0  0  0
 18 43  1  0  0  0  0
 18 44  1  0  0  0  0
 19 45  1  0  0  0  0
 20 24  1  0  0  0  0
 20 21  1  0  0  0  0
 20 46  1  0  0  0  0
 21 22  1  0  0  0  0
 21 47  1  0  0  0  0
 21 48  1  0  0  0  0
 22 23  1  0  0  0  0
 22 49  1  0  0  0  0
 22 50  1  0  0  0  0
 23 24  1  0  0  0  0
 24 51  1  0  0  0  0
 24 52  1  0  0  0  0
 25 26  1  0  0  0  0
 25 53  1  0  0  0  0
 25 54  1  0  0  0  0
 26 27  1  0  0  0  0
 26 28  1  0  0  0  0
 26 29  1  0  0  0  0
 27 55  1  0  0  0  0
 27 56  1  0  0  0  0
 27 57  1  0  0  0  0
 28 58  1  0  0  0  0
 28 59  1  0  0  0  0
 28 60  1  0  0  0  0
M  END
> <s_m_source_file>
AV-unprocessed.smi

> <i_m_source_file_index>
91

> <i_lp_mmshare_version>
43012

> <i_f3d_flags>
0

> <s_epik_input>
W0NIM11PW0NIMl1bQ0BASF0oTzEpW0NIMl1OKFtDSDJdQzEoW0NIM10pW0NIM10pYyhuW2NIXW4yKWMoYzIzKW5bY0hdbjNbQ0gyXVtDQEhdKFtDSDJdW09IXSlbQ0BASF00W0NIMl1bQ0gyXU9bQ0gyXTQ=

> <s_epik_cmdline>
J2VwaWtfcHl0aG9uJywgJy1waCcsICc3LjAnLCAnLXRuJywgJzgnLCAnLW1hJywgJzIwMCcsICctbWV0YWxfYmluZGluZycsICctaW1hZScsICc8aW5maWxlLm1hZT4nLCAnLW9tYWUnLCAnPG91dGZpbGUubWFlPic=

> <r_lp_tautomer_probability>
1

> <r_epik_Ionization_Penalty>
8.63591e-05

> <r_epik_Ionization_Penalty_Charging>
0

> <r_epik_Ionization_Penalty_Neutral>
8.63591e-05

> <r_epik_State_Penalty>
-0

> <r_epik_Charging_Adjusted_Penalty>
0

> <i_epik_Tot_Q>
0

> <i_epik_Tot_abs_Q>
0

> <r_epik_Metal_State_Penalty>
-0

> <b_epik_Metal_Only>
0

> <s_lp_Force_Field>
OPLS_2005

> <r_lp_Energy>
49.706

> <b_lp_Chiralities_Consistent>
1

> <s_lp_Variant>
AV-unprocessed.smi:91-2

> <Gold.Version>
5.8.1

> <Gold.Id.Protein>
6NUR|6NUR_protein|mol2

> <Gold.PLP.Fitness>
45.9878

> <Gold.PLP.PLP>
-44.3763

> <Gold.PLP.part.hbond>
-2.0000

> <Gold.PLP.part.metal>
0.0000

> <Gold.PLP.part.buried>
-5.8009

> <Gold.PLP.part.nonpolar>
-36.4168

> <Gold.PLP.part.repulsive>
0.9029

> <Gold.PLP.ligand.clash>
0.0000

> <Gold.PLP.ligand.torsion>
2.5120

> <Gold.PLP.Chemscore.Hbond>
2.0000

> <Gold.PLP.Chemscore.CHOScore>
0.0000

> <Gold.PLP.Chemscore.Metal>
0.0000

> <Gold.Chemscore.Hbonds>
donor molecule, donor type, donor heavy atom, donor atom, acceptor molecule, acceptor atom, score
      P1  H  7989  7998       L1    23  0.21

> <Gold.PLP.Chemscore.Internal.Correction>
0.6355

> <Gold.Rescore>
     Score         DG    S(hbond)    S(metal)    S(lipo)     H(rot)  DE(clash)    DE(int)     intcor
     10.41     -13.12       0.98        0.00     103.50       3.03       0.32       2.38       ----

> <Gold.Chemscore.Fitness>
10.4110

> <Gold.Chemscore.DG>
-13.1168

> <Gold.Chemscore.ZeroCoef>
-5.4800

> <Gold.Chemscore.Hbond>
0.9821

> <Gold.Chemscore.Metal>
0.0000

> <Gold.Chemscore.Lipo>
103.4989

> <Gold.Chemscore.Internal_Hbond>
0.0000

> <Gold.Chemscore.DEClash>
0.3236

> <Gold.Chemscore.DEInternal>
2.3822

> <Gold.Chemscore.Rot>
3.0284

> <Gold.Chemscore.Internal.Correction>
   9.000000E+99

> <Gold.Chemscore.Hbonds>
donor molecule, donor type, donor heavy atom, donor atom, acceptor molecule, acceptor atom, score
      P1  H  7989  7998       L1    23  0.01

> <Gold.Chemscore.Hbond.Weighted>
-3.2802

> <Gold.Chemscore.Metal.Weighted>
-0.0000

> <Gold.Chemscore.Lipo.Weighted>
-12.1094

> <Gold.Chemscore.Internal_Hbond.Weighted>
0.0000

> <Gold.Chemscore.DEClash.Weighted>
0.3236

> <Gold.Chemscore.DEInternal.Weighted>
2.3822

> <Gold.Chemscore.Rot.Weighted>
7.7528

> <Gold.Chemscore.Internal.Correction.Weighted>
   9.000000E+99

> <Gold.Protein.RotatedTorsions>
[ 6907 6896 6895 6894 ] final   42.36 input  -60.11 | X-H torsion
[ 7974 7965 7964 7962 ] final   19.56 input  175.53 | X-H torsion
[ 8008 7997 7996 7995 ] final  -88.55 input   59.86 | X-H torsion
[ 10167 10162 10161 10158 ] final  152.18 input  -65.29 | X-H torsion
[ 10718 10713 10712 10709 ] final  178.59 input   66.30 | X-H torsion
[ 10763 10752 10751 10750 ] final -104.24 input  -60.55 | X-H torsion
[ 11005 11000 10999 10996 ] final   86.70 input  -57.11 | X-H torsion

> <Gold.Protein.ActiveResidues>
 VAL166  LYS551  ARG553  GLY616  TRP617  ASP618  TYR619  PRO620  LYS621  CYS622 
 ASP623  PHE694  ASN695  SER759  ASP760  ASP761  ALA762  ILE779  LEU786  VAL792 
 PHE793  MET794  SER795  GLU796  ALA797  LYS798  CYS799  TRP800  GLU811  SER814 

> <Gold.Protein.RotatedAtoms>
  152.2069  134.8537  160.0501 H   0  0  0  0  0  0  0  0  0  0  0  0  # atno 6907 bound_to 6896
  151.9370  133.3622  159.3959 H   0  0  0  0  0  0  0  0  0  0  0  0  # atno 6908 bound_to 6896
  150.6967  134.4403  159.5333 H   0  0  0  0  0  0  0  0  0  0  0  0  # atno 6909 bound_to 6896
  146.2144  139.8295  142.8663 H   0  0  0  0  0  0  0  0  0  0  0  0  # atno 7974 bound_to 7965
  154.6762  140.0552  157.0218 H   0  0  0  0  0  0  0  0  0  0  0  0  # atno 8008 bound_to 7997
  155.1017  140.3229  155.4526 H   0  0  0  0  0  0  0  0  0  0  0  0  # atno 8009 bound_to 7997
  156.2676  140.2030  156.6143 H   0  0  0  0  0  0  0  0  0  0  0  0  # atno 8010 bound_to 7997
  139.4835  144.5380  151.7613 H   0  0  0  0  0  0  0  0  0  0  0  0  # atno 10167 bound_to 10162
  156.8883  130.9839  151.3053 H   0  0  0  0  0  0  0  0  0  0  0  0  # atno 10718 bound_to 10713
  154.7864  135.4793  153.9955 H   0  0  0  0  0  0  0  0  0  0  0  0  # atno 10763 bound_to 10752
  153.1566  135.6801  153.8810 H   0  0  0  0  0  0  0  0  0  0  0  0  # atno 10764 bound_to 10752
  153.8437  135.3176  155.3406 H   0  0  0  0  0  0  0  0  0  0  0  0  # atno 10765 bound_to 10752
  139.8938  134.8373  156.2758 H   0  0  0  0  0  0  0  0  0  0  0  0  # atno 11005 bound_to 11000
  145.3012  141.0195  143.3607 LP  0  0  0  0  0  0  0  0  0  0  0  0  # atno 17320 bound_to 7965
  144.9004  139.4656  143.6635 LP  0  0  0  0  0  0  0  0  0  0  0  0  # atno 17321 bound_to 7965
  140.4915  144.1303  150.5951 LP  0  0  0  0  0  0  0  0  0  0  0  0  # atno 17342 bound_to 10162
  140.4166  143.2631  151.9768 LP  0  0  0  0  0  0  0  0  0  0  0  0  # atno 17343 bound_to 10162
  157.6099  130.8575  149.8935 LP  0  0  0  0  0  0  0  0  0  0  0  0  # atno 17370 bound_to 10713
  156.0642  130.3695  150.0915 LP  0  0  0  0  0  0  0  0  0  0  0  0  # atno 17371 bound_to 10713
  141.0071  133.7117  156.1052 LP  0  0  0  0  0  0  0  0  0  0  0  0  # atno 17394 bound_to 11000
  140.7418  134.4141  157.5553 LP  0  0  0  0  0  0  0  0  0  0  0  0  # atno 17395 bound_to 11000

$$$$
