AV-unprocessed.smi:2053|AV-procd|sdf|8331|dock5
  -GOLD-   2272010593D 1   1.00000     0.00000
 Structure written by MMmdl.
 44 45  0  0  0  0  0  0  0  0  1 V2000
  148.6957  126.6615  151.0264 C   0  0  0  0  0  0  0  0  0  0  0  0
  148.0557  127.9248  150.9858 O   0  0  0  0  0  0  0  0  0  0  0  0
  147.1414  128.1044  152.0546 C   0  0  0  0  0  0  0  0  0  0  0  0
  147.1600  129.5718  152.4927 C   0  0  0  0  0  0  0  0  0  0  0  0
  148.2366  129.7636  153.4055 O   0  0  0  0  0  0  0  0  0  0  0  0
  148.6421  131.0521  153.6862 C   0  0  0  0  0  0  0  0  0  0  0  0
  149.5729  131.2527  154.7244 C   0  0  0  0  0  0  0  0  0  0  0  0
  149.9921  132.5637  155.0205 C   0  0  0  0  0  0  0  0  0  0  0  0
  149.4572  133.6383  154.2708 C   0  0  0  0  0  0  0  0  0  0  0  0
  149.8120  135.0020  154.4532 N   0  0  0  0  0  0  0  0  0  0  0  0
  150.3644  135.6002  155.5247 C   0  0  0  0  0  0  0  0  0  0  0  0
  150.6224  135.0289  156.5842 O   0  0  0  0  0  0  0  0  0  0  0  0
  150.6525  137.1012  155.3555 C   0  0  1  0  0  0  0  0  0  0  0  0
  149.4163  137.9440  154.9935 C   0  0  0  0  0  0  0  0  0  0  0  0
  148.9124  138.4438  156.3400 C   0  0  0  0  0  0  0  0  0  0  0  0
  150.2026  138.6763  157.1233 C   0  0  0  0  0  0  0  0  0  0  0  0
  151.1778  137.7150  156.5869 N   0  0  0  0  0  0  0  0  0  0  0  0
  152.8613  138.1122  156.6620 S   0  0  0  0  0  0  0  0  0  0  0  0
  153.5328  136.8258  157.7911 C   0  0  0  0  0  0  0  0  0  0  0  0
  153.4306  137.8916  155.3237 O   0  0  0  0  0  0  0  0  0  0  0  0
  152.9843  139.4306  157.3022 O   0  0  0  0  0  0  0  0  0  0  0  0
  148.5417  133.3292  153.2436 C   0  0  0  0  0  0  0  0  0  0  0  0
  148.1355  132.0750  152.9547 N   0  0  0  0  0  0  0  0  0  0  0  0
  149.3846  126.5724  150.1864 H   0  0  0  0  0  0  0  0  0  0  0  0
  147.9713  125.8492  150.9548 H   0  0  0  0  0  0  0  0  0  0  0  0
  149.2689  126.5395  151.9464 H   0  0  0  0  0  0  0  0  0  0  0  0
  146.1388  127.8393  151.7155 H   0  0  0  0  0  0  0  0  0  0  0  0
  147.3869  127.4527  152.8947 H   0  0  0  0  0  0  0  0  0  0  0  0
  147.2550  130.2247  151.6233 H   0  0  0  0  0  0  0  0  0  0  0  0
  146.2168  129.8072  152.9885 H   0  0  0  0  0  0  0  0  0  0  0  0
  149.9638  130.4140  155.2814 H   0  0  0  0  0  0  0  0  0  0  0  0
  150.7206  132.7120  155.8018 H   0  0  0  0  0  0  0  0  0  0  0  0
  149.5889  135.6122  153.6794 H   0  0  0  0  0  0  0  0  0  0  0  0
  151.3852  137.2073  154.5537 H   0  0  0  0  0  0  0  0  0  0  0  0
  149.7208  138.7916  154.3776 H   0  0  0  0  0  0  0  0  0  0  0  0
  148.6509  137.4028  154.4357 H   0  0  0  0  0  0  0  0  0  0  0  0
  148.3003  139.3423  156.2568 H   0  0  0  0  0  0  0  0  0  0  0  0
  148.3142  137.6717  156.8258 H   0  0  0  0  0  0  0  0  0  0  0  0
  150.5621  139.6922  156.9554 H   0  0  0  0  0  0  0  0  0  0  0  0
  150.0690  138.5352  158.1960 H   0  0  0  0  0  0  0  0  0  0  0  0
  154.6100  136.9583  157.8901 H   0  0  0  0  0  0  0  0  0  0  0  0
  153.3262  135.8379  157.3801 H   0  0  0  0  0  0  0  0  0  0  0  0
  153.0673  136.9173  158.7719 H   0  0  0  0  0  0  0  0  0  0  0  0
  148.1174  134.1138  152.6342 H   0  0  0  0  0  0  0  0  0  0  0  0
  1  2  1  0  0  0  0
  1 24  1  0  0  0  0
  1 25  1  0  0  0  0
  1 26  1  0  0  0  0
  2  3  1  0  0  0  0
  3  4  1  0  0  0  0
  3 27  1  0  0  0  0
  3 28  1  0  0  0  0
  4  5  1  0  0  0  0
  4 29  1  0  0  0  0
  4 30  1  0  0  0  0
  5  6  1  0  0  0  0
  6 23  1  0  0  0  0
  6  7  2  0  0  0  0
  7  8  1  0  0  0  0
  7 31  1  0  0  0  0
  8  9  2  0  0  0  0
  8 32  1  0  0  0  0
  9 10  1  0  0  0  0
  9 22  1  0  0  0  0
 10 11  1  0  0  0  0
 10 33  1  0  0  0  0
 11 12  2  0  0  0  0
 11 13  1  0  0  0  0
 13 17  1  0  0  0  0
 13 14  1  0  0  0  0
 13 34  1  0  0  0  0
 14 15  1  0  0  0  0
 14 35  1  0  0  0  0
 14 36  1  0  0  0  0
 15 16  1  0  0  0  0
 15 37  1  0  0  0  0
 15 38  1  0  0  0  0
 16 17  1  0  0  0  0
 16 39  1  0  0  0  0
 16 40  1  0  0  0  0
 17 18  1  0  0  0  0
 18 19  1  0  0  0  0
 18 20  2  0  0  0  0
 18 21  2  0  0  0  0
 19 41  1  0  0  0  0
 19 42  1  0  0  0  0
 19 43  1  0  0  0  0
 22 23  2  0  0  0  0
 22 44  1  0  0  0  0
M  END
> <s_m_source_file>
AV-unprocessed.smi

> <i_m_source_file_index>
2053

> <i_lp_mmshare_version>
43012

> <i_f3d_flags>
0

> <s_epik_input>
W0NIM11PW0NIMl1bQ0gyXU9jMVtjSF1bY0hdYyhbY0hdbjEpW05IXUMoPU8pW0NAQEhdMltDSDJdW0NIMl1bQ0gyXU4yUyg9TykoPU8pW0NIM10=

> <s_epik_cmdline>
J2VwaWtfcHl0aG9uJywgJy1waCcsICc3LjAnLCAnLXRuJywgJzgnLCAnLW1hJywgJzIwMCcsICctbWV0YWxfYmluZGluZycsICctaW1hZScsICc8aW5maWxlLm1hZT4nLCAnLW9tYWUnLCAnPG91dGZpbGUubWFlPic=

> <r_lp_tautomer_probability>
1

> <r_epik_Ionization_Penalty>
1.28704e-05

> <r_epik_Ionization_Penalty_Charging>
0

> <r_epik_Ionization_Penalty_Neutral>
1.28704e-05

> <r_epik_State_Penalty>
-0

> <r_epik_Charging_Adjusted_Penalty>
0

> <i_epik_Tot_Q>
0

> <i_epik_Tot_abs_Q>
0

> <r_epik_Metal_State_Penalty>
-0

> <b_epik_Metal_Only>
0

> <s_lp_Force_Field>
OPLS_2005

> <r_lp_Energy>
12.3258

> <b_lp_Chiralities_Consistent>
1

> <s_lp_Variant>
AV-unprocessed.smi:2053-2

> <Gold.Version>
5.8.1

> <Gold.Id.Protein>
6NUR|6NUR_protein|mol2

> <Gold.PLP.Fitness>
41.4691

> <Gold.PLP.PLP>
-33.6358

> <Gold.PLP.part.hbond>
-3.0000

> <Gold.PLP.part.metal>
0.0000

> <Gold.PLP.part.buried>
-5.5958

> <Gold.PLP.part.nonpolar>
-25.5644

> <Gold.PLP.part.repulsive>
0.8701

> <Gold.PLP.ligand.clash>
0.0000

> <Gold.PLP.ligand.torsion>
0.8835

> <Gold.PLP.Chemscore.Hbond>
2.0364

> <Gold.PLP.Chemscore.CHOScore>
0.9711

> <Gold.PLP.Chemscore.Metal>
0.0000

> <Gold.Chemscore.Hbonds>
donor molecule, donor type, donor heavy atom, donor atom, acceptor molecule, acceptor atom, score
      L1  H    10    33       P1  7948  0.90
      P1  H  7997  8010       L1    21  1.00
      P1  H 10752 10764       L1    20  0.01
      L1  C    22    44       P1  7948  0.91

> <Gold.PLP.Chemscore.Internal.Correction>
0.5777

> <Gold.Rescore>
     Score         DG    S(hbond)    S(metal)    S(lipo)     H(rot)  DE(clash)    DE(int)     intcor
     12.76     -14.72       2.23        0.00      64.56       2.26       0.03       1.92       ----

> <Gold.Chemscore.Fitness>
12.7629

> <Gold.Chemscore.DG>
-14.7168

> <Gold.Chemscore.ZeroCoef>
-5.4800

> <Gold.Chemscore.Hbond>
2.2343

> <Gold.Chemscore.Metal>
0.0000

> <Gold.Chemscore.Lipo>
64.5629

> <Gold.Chemscore.Internal_Hbond>
0.0000

> <Gold.Chemscore.DEClash>
0.0348

> <Gold.Chemscore.DEInternal>
1.9191

> <Gold.Chemscore.Rot>
2.2576

> <Gold.Chemscore.Internal.Correction>
   9.000000E+99

> <Gold.Chemscore.Hbonds>
donor molecule, donor type, donor heavy atom, donor atom, acceptor molecule, acceptor atom, score
      L1  H    10    33       P1  7948  0.17
      P1  H  7997  8010       L1    21  0.50
      P1  H 10752 10764       L1    20  0.01

> <Gold.Chemscore.Hbond.Weighted>
-7.4625

> <Gold.Chemscore.Metal.Weighted>
-0.0000

> <Gold.Chemscore.Lipo.Weighted>
-7.5539

> <Gold.Chemscore.Internal_Hbond.Weighted>
0.0000

> <Gold.Chemscore.DEClash.Weighted>
0.0348

> <Gold.Chemscore.DEInternal.Weighted>
1.9191

> <Gold.Chemscore.Rot.Weighted>
5.7796

> <Gold.Chemscore.Internal.Correction.Weighted>
   9.000000E+99

> <Gold.Protein.RotatedTorsions>
[ 6907 6896 6895 6894 ] final  -45.66 input  -60.11 | X-H torsion
[ 7974 7965 7964 7962 ] final  -69.33 input  175.53 | X-H torsion
[ 8008 7997 7996 7995 ] final   54.91 input   59.86 | X-H torsion
[ 10167 10162 10161 10158 ] final   56.59 input  -65.29 | X-H torsion
[ 10718 10713 10712 10709 ] final -102.77 input   66.30 | X-H torsion
[ 10763 10752 10751 10750 ] final  -48.33 input  -60.55 | X-H torsion
[ 11005 11000 10999 10996 ] final  128.35 input  -57.11 | X-H torsion

> <Gold.Protein.ActiveResidues>
 VAL166  LYS551  ARG553  GLY616  TRP617  ASP618  TYR619  PRO620  LYS621  CYS622 
 ASP623  PHE694  ASN695  SER759  ASP760  ASP761  ALA762  ILE779  LEU786  VAL792 
 PHE793  MET794  SER795  GLU796  ALA797  LYS798  CYS799  TRP800  GLU811  SER814 

> <Gold.Protein.RotatedAtoms>
  150.9195  134.8613  159.7479 H   0  0  0  0  0  0  0  0  0  0  0  0  # atno 6907 bound_to 6896
  152.4985  134.4239  159.9499 H   0  0  0  0  0  0  0  0  0  0  0  0  # atno 6908 bound_to 6896
  151.4274  133.3640  159.2799 H   0  0  0  0  0  0  0  0  0  0  0  0  # atno 6909 bound_to 6896
  145.7052  140.9101  143.0710 H   0  0  0  0  0  0  0  0  0  0  0  0  # atno 7974 bound_to 7965
  155.4925  140.3472  155.4357 H   0  0  0  0  0  0  0  0  0  0  0  0  # atno 8008 bound_to 7997
  156.0967  140.1425  156.9549 H   0  0  0  0  0  0  0  0  0  0  0  0  # atno 8009 bound_to 7997
  154.4668  140.0915  156.7019 H   0  0  0  0  0  0  0  0  0  0  0  0  # atno 8010 bound_to 7997
  140.2071  144.3928  150.6504 H   0  0  0  0  0  0  0  0  0  0  0  0  # atno 10167 bound_to 10162
  156.0240  130.5435  150.7156 H   0  0  0  0  0  0  0  0  0  0  0  0  # atno 10718 bound_to 10713
  154.0760  135.6598  153.4831 H   0  0  0  0  0  0  0  0  0  0  0  0  # atno 10763 bound_to 10752
  153.0373  135.5168  154.7521 H   0  0  0  0  0  0  0  0  0  0  0  0  # atno 10764 bound_to 10752
  154.6601  135.3013  154.9845 H   0  0  0  0  0  0  0  0  0  0  0  0  # atno 10765 bound_to 10752
  139.9556  134.9613  156.8989 H   0  0  0  0  0  0  0  0  0  0  0  0  # atno 11005 bound_to 11000
  144.6957  139.9000  143.7458 LP  0  0  0  0  0  0  0  0  0  0  0  0  # atno 17320 bound_to 7965
  146.0762  139.3750  143.0492 LP  0  0  0  0  0  0  0  0  0  0  0  0  # atno 17321 bound_to 7965
  140.6350  143.2193  151.6415 LP  0  0  0  0  0  0  0  0  0  0  0  0  # atno 17342 bound_to 10162
  139.5194  144.3254  152.0874 LP  0  0  0  0  0  0  0  0  0  0  0  0  # atno 17343 bound_to 10162
  157.4784  131.0900  151.0564 LP  0  0  0  0  0  0  0  0  0  0  0  0  # atno 17370 bound_to 10713
  157.1005  130.5979  149.5459 LP  0  0  0  0  0  0  0  0  0  0  0  0  # atno 17371 bound_to 10713
  140.5617  134.0528  155.7401 LP  0  0  0  0  0  0  0  0  0  0  0  0  # atno 17394 bound_to 11000
  141.1227  133.9435  157.2698 LP  0  0  0  0  0  0  0  0  0  0  0  0  # atno 17395 bound_to 11000

$$$$
