AV-unprocessed.smi:1060|AV-procd|sdf|4659|dock1
  -GOLD-   22720 3173D 1   1.00000     0.00000
 Structure written by MMmdl.
 36 37  0  0  0  0  0  0  0  0  2 V2000
  150.8755  137.7774  158.1717 O   0  0  0  0  0  0  0  0  0  0  0  0
  149.7646  138.2574  158.3932 C   0  0  0  0  0  0  0  0  0  0  0  0
  149.4723  139.6904  157.9544 C   0  0  0  0  0  0  0  0  0  0  0  0
  150.6045  140.4969  158.2366 O   0  0  0  0  0  0  0  0  0  0  0  0
  150.3018  141.8819  158.2225 C   0  0  0  0  0  0  0  0  0  0  0  0
  151.5130  142.6674  158.7409 C   0  0  1  0  0  0  0  0  0  0  0  0
  151.1752  144.0821  159.2005 C   0  0  0  0  0  0  0  0  0  0  0  0
  152.3414  144.4179  160.1101 C   0  0  0  0  0  0  0  0  0  0  0  0
  152.8095  143.0501  160.6168 C   0  0  0  0  0  0  0  0  0  0  0  0
  152.0177  142.0840  159.9329 O   0  0  0  0  0  0  0  0  0  0  0  0
  148.7559  137.6349  159.0345 N   0  0  0  0  0  0  0  0  0  0  0  0
  148.7036  136.3373  159.5726 C   0  0  0  0  0  0  0  0  0  0  0  0
  148.4337  136.0455  160.8752 C   0  0  0  0  0  0  0  0  0  0  0  0
  148.3968  134.6777  161.3773 C   0  0  0  0  0  0  0  0  0  0  0  0
  148.1725  134.3229  162.8368 C   0  0  0  0  0  0  0  0  0  0  0  0
  146.9705  134.7244  163.2504 F   0  0  0  0  0  0  0  0  0  0  0  0
  148.2644  133.0066  163.0273 F   0  0  0  0  0  0  0  0  0  0  0  0
  149.0929  134.9171  163.5947 F   0  0  0  0  0  0  0  0  0  0  0  0
  148.6943  133.7511  160.3967 C   0  0  0  0  0  0  0  0  0  0  0  0
  148.9668  133.9540  159.0892 N   0  5  0  0  0  0  0  0  0  0  0  0
  148.9909  135.2368  158.6289 C   0  0  0  0  0  0  0  0  0  0  0  0
  149.2439  135.4935  157.4513 O   0  0  0  0  0  0  0  0  0  0  0  0
  149.2480  139.7007  156.8865 H   0  0  0  0  0  0  0  0  0  0  0  0
  148.5953  140.0690  158.4826 H   0  0  0  0  0  0  0  0  0  0  0  0
  150.0806  142.1838  157.1975 H   0  0  0  0  0  0  0  0  0  0  0  0
  149.4189  142.0974  158.8266 H   0  0  0  0  0  0  0  0  0  0  0  0
  152.3018  142.7041  157.9872 H   0  0  0  0  0  0  0  0  0  0  0  0
  151.0639  144.7839  158.3733 H   0  0  0  0  0  0  0  0  0  0  0  0
  150.2470  144.0818  159.7743 H   0  0  0  0  0  0  0  0  0  0  0  0
  153.1390  144.8977  159.5413 H   0  0  0  0  0  0  0  0  0  0  0  0
  152.0527  145.0893  160.9194 H   0  0  0  0  0  0  0  0  0  0  0  0
  153.8646  142.8930  160.3900 H   0  0  0  0  0  0  0  0  0  0  0  0
  152.6745  142.9446  161.6935 H   0  0  0  0  0  0  0  0  0  0  0  0
  147.9256  138.1859  159.1983 H   0  0  0  0  0  0  0  0  0  0  0  0
  148.2484  136.8293  161.5908 H   0  0  0  0  0  0  0  0  0  0  0  0
  148.7218  132.6860  160.7113 H   0  0  0  0  0  0  0  0  0  0  0  0
  1  2  2  0  0  0  0
  2  3  1  0  0  0  0
  2 11  1  0  0  0  0
  3  4  1  0  0  0  0
  3 23  1  0  0  0  0
  3 24  1  0  0  0  0
  4  5  1  0  0  0  0
  5  6  1  0  0  0  0
  5 25  1  0  0  0  0
  5 26  1  0  0  0  0
  6 10  1  0  0  0  0
  6  7  1  0  0  0  0
  6 27  1  0  0  0  0
  7  8  1  0  0  0  0
  7 28  1  0  0  0  0
  7 29  1  0  0  0  0
  8  9  1  0  0  0  0
  8 30  1  0  0  0  0
  8 31  1  0  0  0  0
  9 10  1  0  0  0  0
  9 32  1  0  0  0  0
  9 33  1  0  0  0  0
 11 12  1  0  0  0  0
 11 34  1  0  0  0  0
 12 21  1  0  0  0  0
 12 13  2  0  0  0  0
 13 14  1  0  0  0  0
 13 35  1  0  0  0  0
 14 15  1  0  0  0  0
 14 19  2  0  0  0  0
 15 16  1  0  0  0  0
 15 17  1  0  0  0  0
 15 18  1  0  0  0  0
 19 20  1  0  0  0  0
 19 36  1  0  0  0  0
 20 21  1  0  0  0  0
 21 22  2  0  0  0  0
M  CHG  1  20  -1
M  END
> <s_m_source_file>
AV-unprocessed.smi

> <i_m_source_file_index>
1060

> <i_lp_mmshare_version>
43012

> <i_f3d_flags>
0

> <s_epik_input>
Tz1jMVtuSF1bY0hdYyhDKEYpKEYpRilbY0hdYzFbTkhdQyg9TylbQ0gyXU9bQ0gyXVtDQEBIXTJbQ0gyXVtDSDJdW0NIMl1PMg==

> <s_epik_cmdline>
J2VwaWtfcHl0aG9uJywgJy1waCcsICc3LjAnLCAnLXRuJywgJzgnLCAnLW1hJywgJzIwMCcsICctbWV0YWxfYmluZGluZycsICctaW1hZScsICc8aW5maWxlLm1hZT4nLCAnLW9tYWUnLCAnPG91dGZpbGUubWFlPic=

> <r_epik_Ionization_Penalty>
2.50578

> <r_epik_Ionization_Penalty_Charging>
0.0523173

> <r_epik_Ionization_Penalty_Neutral>
2.45346

> <r_epik_State_Penalty>
2.61512

> <r_epik_Charging_Adjusted_Penalty>
2.66744

> <i_epik_Tot_Q>
-1

> <i_epik_Tot_abs_Q>
1

> <r_epik_Metal_State_Penalty>
0.513209

> <b_epik_Metal_Only>
0

> <s_lp_Force_Field>
OPLS_2005

> <r_lp_Energy>
36.6163

> <b_lp_Chiralities_Consistent>
1

> <s_lp_Variant>
AV-unprocessed.smi:1060-4

> <Gold.Version>
5.8.1

> <Gold.Id.Protein>
6NUR|6NUR_protein|mol2

> <Gold.PLP.Fitness>
46.1695

> <Gold.PLP.PLP>
-41.9754

> <Gold.PLP.part.hbond>
-1.0000

> <Gold.PLP.part.metal>
0.0000

> <Gold.PLP.part.buried>
-5.9560

> <Gold.PLP.part.nonpolar>
-35.5571

> <Gold.PLP.part.repulsive>
0.1408

> <Gold.PLP.ligand.clash>
0.0000

> <Gold.PLP.ligand.torsion>
1.0087

> <Gold.PLP.Chemscore.Hbond>
2.0000

> <Gold.PLP.Chemscore.CHOScore>
0.0000

> <Gold.PLP.Chemscore.Metal>
0.0000

> <Gold.Chemscore.Hbonds>
donor molecule, donor type, donor heavy atom, donor atom, acceptor molecule, acceptor atom, score
      P1  H  6896  6907       L1    20  0.42

> <Gold.PLP.Chemscore.Internal.Correction>
0.2115

> <Gold.Rescore>
     Score         DG    S(hbond)    S(metal)    S(lipo)     H(rot)  DE(clash)    DE(int)     intcor
      7.79     -11.63       0.42        0.00      82.51       1.92       0.10       3.73       ----

> <Gold.Chemscore.Fitness>
7.7942

> <Gold.Chemscore.DG>
-11.6305

> <Gold.Chemscore.ZeroCoef>
-5.4800

> <Gold.Chemscore.Hbond>
0.4220

> <Gold.Chemscore.Metal>
0.0000

> <Gold.Chemscore.Lipo>
82.5095

> <Gold.Chemscore.Internal_Hbond>
0.0000

> <Gold.Chemscore.DEClash>
0.1016

> <Gold.Chemscore.DEInternal>
3.7347

> <Gold.Chemscore.Rot>
1.9190

> <Gold.Chemscore.Internal.Correction>
   9.000000E+99

> <Gold.Chemscore.Hbond.Weighted>
-1.4095

> <Gold.Chemscore.Metal.Weighted>
-0.0000

> <Gold.Chemscore.Lipo.Weighted>
-9.6536

> <Gold.Chemscore.Internal_Hbond.Weighted>
0.0000

> <Gold.Chemscore.DEClash.Weighted>
0.1016

> <Gold.Chemscore.DEInternal.Weighted>
3.7347

> <Gold.Chemscore.Rot.Weighted>
4.9126

> <Gold.Chemscore.Internal.Correction.Weighted>
   9.000000E+99

> <Gold.Protein.RotatedTorsions>
[ 6907 6896 6895 6894 ] final  -97.71 input  -60.11 | X-H torsion
[ 7974 7965 7964 7962 ] final   30.29 input  175.53 | X-H torsion
[ 8008 7997 7996 7995 ] final  -13.62 input   59.86 | X-H torsion
[ 10167 10162 10161 10158 ] final   12.25 input  -65.29 | X-H torsion
[ 10718 10713 10712 10709 ] final -123.23 input   66.30 | X-H torsion
[ 10763 10752 10751 10750 ] final  178.23 input  -60.55 | X-H torsion
[ 11005 11000 10999 10996 ] final   98.72 input  -57.11 | X-H torsion

> <Gold.Protein.ActiveResidues>
 VAL166  LYS551  ARG553  GLY616  TRP617  ASP618  TYR619  PRO620  LYS621  CYS622 
 ASP623  PHE694  ASN695  SER759  ASP760  ASP761  ALA762  ILE779  LEU786  VAL792 
 PHE793  MET794  SER795  GLU796  ALA797  LYS798  CYS799  TRP800  GLU811  SER814 

> <Gold.Protein.RotatedAtoms>
  150.7024  134.1306  159.4068 H   0  0  0  0  0  0  0  0  0  0  0  0  # atno 6907 bound_to 6896
  151.9292  135.0262  160.0537 H   0  0  0  0  0  0  0  0  0  0  0  0  # atno 6908 bound_to 6896
  152.2190  133.4933  159.5188 H   0  0  0  0  0  0  0  0  0  0  0  0  # atno 6909 bound_to 6896
  146.1621  139.6808  142.9026 H   0  0  0  0  0  0  0  0  0  0  0  0  # atno 7974 bound_to 7965
  154.5278  140.2245  155.8859 H   0  0  0  0  0  0  0  0  0  0  0  0  # atno 8008 bound_to 7997
  156.1731  140.3117  155.8974 H   0  0  0  0  0  0  0  0  0  0  0  0  # atno 8009 bound_to 7997
  155.3516  140.0456  157.3037 H   0  0  0  0  0  0  0  0  0  0  0  0  # atno 8010 bound_to 7997
  140.6080  143.8468  150.7034 H   0  0  0  0  0  0  0  0  0  0  0  0  # atno 10167 bound_to 10162
  156.1484  130.6517  150.9877 H   0  0  0  0  0  0  0  0  0  0  0  0  # atno 10718 bound_to 10713
  154.5049  135.2785  155.1391 H   0  0  0  0  0  0  0  0  0  0  0  0  # atno 10763 bound_to 10752
  154.3009  135.6248  153.5428 H   0  0  0  0  0  0  0  0  0  0  0  0  # atno 10764 bound_to 10752
  152.9908  135.5696  154.5500 H   0  0  0  0  0  0  0  0  0  0  0  0  # atno 10765 bound_to 10752
  139.8772  134.9062  156.4498 H   0  0  0  0  0  0  0  0  0  0  0  0  # atno 11005 bound_to 11000
  145.4562  141.0431  143.2777 LP  0  0  0  0  0  0  0  0  0  0  0  0  # atno 17320 bound_to 7965
  144.8041  139.6085  143.7059 LP  0  0  0  0  0  0  0  0  0  0  0  0  # atno 17321 bound_to 7965
  140.2029  143.3944  152.1777 LP  0  0  0  0  0  0  0  0  0  0  0  0  # atno 17342 bound_to 10162
  139.5339  144.7189  151.4959 LP  0  0  0  0  0  0  0  0  0  0  0  0  # atno 17343 bound_to 10162
  157.6636  131.0876  150.7780 LP  0  0  0  0  0  0  0  0  0  0  0  0  # atno 17370 bound_to 10713
  156.7850  130.4871  149.5394 LP  0  0  0  0  0  0  0  0  0  0  0  0  # atno 17371 bound_to 10713
  140.8940  133.7827  155.9604 LP  0  0  0  0  0  0  0  0  0  0  0  0  # atno 17394 bound_to 11000
  140.8723  134.2711  157.5185 LP  0  0  0  0  0  0  0  0  0  0  0  0  # atno 17395 bound_to 11000

$$$$
