AV-unprocessed.smi:2186|AV-procd|sdf|8877|dock4
  -GOLD-   2272012 73D 1   1.00000     0.00000
 Structure written by MMmdl.
 44 45  0  0  0  0  0  0  0  0  2 V2000
  154.0845  141.3217  161.3030 C   0  0  0  0  0  0  0  0  0  0  0  0
  153.3445  142.3212  160.4028 C   0  0  0  0  0  0  0  0  0  0  0  0
  152.4860  143.3220  161.1912 C   0  0  0  0  0  0  0  0  0  0  0  0
  152.5575  141.6384  159.3294 C   0  0  0  0  0  0  0  0  0  0  0  0
  151.9205  142.2902  158.3531 N   0  0  0  0  0  0  0  0  0  0  0  0
  151.2943  141.4315  157.4419 C   0  0  0  0  0  0  0  0  0  0  0  0
  150.5673  141.9901  156.2484 C   0  0  0  0  0  0  0  0  0  0  0  0
  150.0648  140.8627  155.3404 C   0  0  0  0  0  0  0  0  0  0  0  0
  150.8622  140.2165  154.6611 O   0  0  0  0  0  0  0  0  0  0  0  0
  148.7447  140.6165  155.3581 N   0  0  0  0  0  0  0  0  0  0  0  0
  148.0993  139.4862  154.7040 C   0  0  0  0  0  0  0  0  0  0  0  0
  147.1640  139.9722  153.5795 C   0  0  0  0  0  0  0  0  0  0  0  0
  146.1476  140.9426  154.0557 N   0  3  0  0  0  0  0  0  0  0  0  0
  145.6941  140.6444  155.4355 C   0  0  0  0  0  0  0  0  0  0  0  0
  144.6078  141.6403  155.8746 C   0  0  0  0  0  0  0  0  0  0  0  0
  145.1135  142.9657  155.7794 O   0  0  0  0  0  0  0  0  0  0  0  0
  145.4702  143.3025  154.4449 C   0  0  0  0  0  0  0  0  0  0  0  0
  146.5795  142.3587  153.9484 C   0  0  0  0  0  0  0  0  0  0  0  0
  151.4424  140.1056  157.7665 C   0  0  0  0  0  0  0  0  0  0  0  0
  152.3933  139.8903  159.2108 S   0  0  0  0  0  0  0  0  0  0  0  0
  154.7423  140.6788  160.7169 H   0  0  0  0  0  0  0  0  0  0  0  0
  153.3865  140.6806  161.8424 H   0  0  0  0  0  0  0  0  0  0  0  0
  154.6990  141.8379  162.0409 H   0  0  0  0  0  0  0  0  0  0  0  0
  154.1128  142.9064  159.8959 H   0  0  0  0  0  0  0  0  0  0  0  0
  152.0426  144.0659  160.5284 H   0  0  0  0  0  0  0  0  0  0  0  0
  153.0831  143.8530  161.9328 H   0  0  0  0  0  0  0  0  0  0  0  0
  151.6736  142.8195  161.7175 H   0  0  0  0  0  0  0  0  0  0  0  0
  149.7147  142.5944  156.5600 H   0  0  0  0  0  0  0  0  0  0  0  0
  151.2238  142.6504  155.6802 H   0  0  0  0  0  0  0  0  0  0  0  0
  148.1621  141.2049  155.9365 H   0  0  0  0  0  0  0  0  0  0  0  0
  148.8883  138.8487  154.3069 H   0  0  0  0  0  0  0  0  0  0  0  0
  147.5501  138.8883  155.4333 H   0  0  0  0  0  0  0  0  0  0  0  0
  147.7706  140.4540  152.8109 H   0  0  0  0  0  0  0  0  0  0  0  0
  146.6713  139.1274  153.0949 H   0  0  0  0  0  0  0  0  0  0  0  0
  145.3002  139.6286  155.4861 H   0  0  0  0  0  0  0  0  0  0  0  0
  146.5434  140.6938  156.1189 H   0  0  0  0  0  0  0  0  0  0  0  0
  143.7097  141.5341  155.2636 H   0  0  0  0  0  0  0  0  0  0  0  0
  144.3153  141.4469  156.9068 H   0  0  0  0  0  0  0  0  0  0  0  0
  144.5938  143.2505  153.7968 H   0  0  0  0  0  0  0  0  0  0  0  0
  145.8199  144.3349  154.4244 H   0  0  0  0  0  0  0  0  0  0  0  0
  147.4859  142.5103  154.5366 H   0  0  0  0  0  0  0  0  0  0  0  0
  146.8220  142.6078  152.9162 H   0  0  0  0  0  0  0  0  0  0  0  0
  151.0588  139.2439  157.2403 H   0  0  0  0  0  0  0  0  0  0  0  0
  145.3388  140.8310  153.4609 H   0  0  0  0  0  0  0  0  0  0  0  0
  1  2  1  0  0  0  0
  1 21  1  0  0  0  0
  1 22  1  0  0  0  0
  1 23  1  0  0  0  0
  2  3  1  0  0  0  0
  2  4  1  0  0  0  0
  2 24  1  0  0  0  0
  3 25  1  0  0  0  0
  3 26  1  0  0  0  0
  3 27  1  0  0  0  0
  4 20  1  0  0  0  0
  4  5  2  0  0  0  0
  5  6  1  0  0  0  0
  6  7  1  0  0  0  0
  6 19  2  0  0  0  0
  7  8  1  0  0  0  0
  7 28  1  0  0  0  0
  7 29  1  0  0  0  0
  8  9  2  0  0  0  0
  8 10  1  0  0  0  0
 10 11  1  0  0  0  0
 10 30  1  0  0  0  0
 11 12  1  0  0  0  0
 11 31  1  0  0  0  0
 11 32  1  0  0  0  0
 12 13  1  0  0  0  0
 12 33  1  0  0  0  0
 12 34  1  0  0  0  0
 13 18  1  0  0  0  0
 13 14  1  0  0  0  0
 13 44  1  0  0  0  0
 14 15  1  0  0  0  0
 14 35  1  0  0  0  0
 14 36  1  0  0  0  0
 15 16  1  0  0  0  0
 15 37  1  0  0  0  0
 15 38  1  0  0  0  0
 16 17  1  0  0  0  0
 17 18  1  0  0  0  0
 17 39  1  0  0  0  0
 17 40  1  0  0  0  0
 18 41  1  0  0  0  0
 18 42  1  0  0  0  0
 19 20  1  0  0  0  0
 19 43  1  0  0  0  0
M  CHG  1  13   1
M  END
> <s_m_source_file>
AV-unprocessed.smi

> <i_m_source_file_index>
2186

> <i_lp_mmshare_version>
43012

> <i_f3d_flags>
0

> <s_epik_input>
W0NIM11bQ0hdKFtDSDNdKWMxbmMoW2NIXXMxKVtDSDJdQyg9TylbTkhdW0NIMl1bQ0gyXU4yW0NIMl1bQ0gyXU9bQ0gyXVtDSDJdMg==

> <s_epik_cmdline>
J2VwaWtfcHl0aG9uJywgJy1waCcsICc3LjAnLCAnLXRuJywgJzgnLCAnLW1hJywgJzIwMCcsICctbWV0YWxfYmluZGluZycsICctaW1hZScsICc8aW5maWxlLm1hZT4nLCAnLW9tYWUnLCAnPG91dGZpbGUubWFlPic=

> <r_epik_Ionization_Penalty>
0.678862

> <r_epik_Ionization_Penalty_Charging>
0.678842

> <r_epik_Ionization_Penalty_Neutral>
2.00527e-05

> <r_epik_State_Penalty>
0.699693

> <r_epik_Charging_Adjusted_Penalty>
1.37854

> <i_epik_Tot_Q>
1

> <i_epik_Tot_abs_Q>
1

> <r_epik_Metal_State_Penalty>
0.699708

> <b_epik_Metal_Only>
0

> <s_lp_Force_Field>
OPLS_2005

> <r_lp_Energy>
6.68048

> <b_lp_Chiralities_Consistent>
1

> <s_lp_Variant>
AV-unprocessed.smi:2186-2

> <Gold.Version>
5.8.1

> <Gold.Id.Protein>
6NUR|6NUR_protein|mol2

> <Gold.PLP.Fitness>
47.7587

> <Gold.PLP.PLP>
-39.7561

> <Gold.PLP.part.hbond>
-1.9660

> <Gold.PLP.part.metal>
0.0000

> <Gold.PLP.part.buried>
-5.9692

> <Gold.PLP.part.nonpolar>
-31.3146

> <Gold.PLP.part.repulsive>
0.3412

> <Gold.PLP.ligand.clash>
0.0000

> <Gold.PLP.ligand.torsion>
0.5602

> <Gold.PLP.Chemscore.Hbond>
3.0000

> <Gold.PLP.Chemscore.CHOScore>
0.0000

> <Gold.PLP.Chemscore.Metal>
0.0000

> <Gold.Chemscore.Hbonds>
donor molecule, donor type, donor heavy atom, donor atom, acceptor molecule, acceptor atom, score
      L1  H    13    44       P1 10175  2.00
      P1  H  7989  7998       L1     9  1.00

> <Gold.PLP.Chemscore.Internal.Correction>
0.1231

> <Gold.Rescore>
     Score         DG    S(hbond)    S(metal)    S(lipo)     H(rot)  DE(clash)    DE(int)     intcor
     17.59     -18.20       1.93        0.00      93.51       1.82       0.04       0.57       ----

> <Gold.Chemscore.Fitness>
17.5915

> <Gold.Chemscore.DG>
-18.2031

> <Gold.Chemscore.ZeroCoef>
-5.4800

> <Gold.Chemscore.Hbond>
1.9298

> <Gold.Chemscore.Metal>
0.0000

> <Gold.Chemscore.Lipo>
93.5147

> <Gold.Chemscore.Internal_Hbond>
0.0000

> <Gold.Chemscore.DEClash>
0.0429

> <Gold.Chemscore.DEInternal>
0.5688

> <Gold.Chemscore.Rot>
1.8217

> <Gold.Chemscore.Internal.Correction>
   9.000000E+99

> <Gold.Chemscore.Hbonds>
donor molecule, donor type, donor heavy atom, donor atom, acceptor molecule, acceptor atom, score
      L1  H    13    44       P1 10175  0.81
      P1  H  7989  7998       L1     9  0.93

> <Gold.Chemscore.Hbond.Weighted>
-6.4455

> <Gold.Chemscore.Metal.Weighted>
-0.0000

> <Gold.Chemscore.Lipo.Weighted>
-10.9412

> <Gold.Chemscore.Internal_Hbond.Weighted>
0.0000

> <Gold.Chemscore.DEClash.Weighted>
0.0429

> <Gold.Chemscore.DEInternal.Weighted>
0.5688

> <Gold.Chemscore.Rot.Weighted>
4.6635

> <Gold.Chemscore.Internal.Correction.Weighted>
   9.000000E+99

> <Gold.Protein.RotatedTorsions>
[ 6907 6896 6895 6894 ] final  -99.62 input  -60.11 | X-H torsion
[ 7974 7965 7964 7962 ] final  101.90 input  175.53 | X-H torsion
[ 8008 7997 7996 7995 ] final  -86.21 input   59.86 | X-H torsion
[ 10167 10162 10161 10158 ] final   -1.16 input  -65.29 | X-H torsion
[ 10718 10713 10712 10709 ] final  -23.71 input   66.30 | X-H torsion
[ 10763 10752 10751 10750 ] final   47.42 input  -60.55 | X-H torsion
[ 11005 11000 10999 10996 ] final  -62.04 input  -57.11 | X-H torsion

> <Gold.Protein.ActiveResidues>
 VAL166  LYS551  ARG553  GLY616  TRP617  ASP618  TYR619  PRO620  LYS621  CYS622 
 ASP623  PHE694  ASN695  SER759  ASP760  ASP761  ALA762  ILE779  LEU786  VAL792 
 PHE793  MET794  SER795  GLU796  ALA797  LYS798  CYS799  TRP800  GLU811  SER814 

> <Gold.Protein.RotatedAtoms>
  150.7086  134.1012  159.3966 H   0  0  0  0  0  0  0  0  0  0  0  0  # atno 6907 bound_to 6896
  151.8998  135.0380  160.0514 H   0  0  0  0  0  0  0  0  0  0  0  0  # atno 6908 bound_to 6896
  152.2423  133.5110  159.5314 H   0  0  0  0  0  0  0  0  0  0  0  0  # atno 6909 bound_to 6896
  145.3662  139.2407  143.3480 H   0  0  0  0  0  0  0  0  0  0  0  0  # atno 7974 bound_to 7965
  154.6493  140.0581  156.9937 H   0  0  0  0  0  0  0  0  0  0  0  0  # atno 8008 bound_to 7997
  155.1396  140.3264  155.4436 H   0  0  0  0  0  0  0  0  0  0  0  0  # atno 8009 bound_to 7997
  156.2568  140.1966  156.6512 H   0  0  0  0  0  0  0  0  0  0  0  0  # atno 8010 bound_to 7997
  140.6798  143.6808  150.8107 H   0  0  0  0  0  0  0  0  0  0  0  0  # atno 10167 bound_to 10162
  156.4874  130.4559  149.6775 H   0  0  0  0  0  0  0  0  0  0  0  0  # atno 10718 bound_to 10713
  152.9800  135.5977  154.3759 H   0  0  0  0  0  0  0  0  0  0  0  0  # atno 10763 bound_to 10752
  154.3428  135.2767  155.2415 H   0  0  0  0  0  0  0  0  0  0  0  0  # atno 10764 bound_to 10752
  154.4489  135.5994  153.6233 H   0  0  0  0  0  0  0  0  0  0  0  0  # atno 10765 bound_to 10752
  141.1346  133.6636  156.5466 H   0  0  0  0  0  0  0  0  0  0  0  0  # atno 11005 bound_to 11000
  146.2906  140.4305  142.8741 LP  0  0  0  0  0  0  0  0  0  0  0  0  # atno 17320 bound_to 7965
  144.8610  140.7139  143.6107 LP  0  0  0  0  0  0  0  0  0  0  0  0  # atno 17321 bound_to 7965
  140.0507  143.5253  152.2675 LP  0  0  0  0  0  0  0  0  0  0  0  0  # atno 17342 bound_to 10162
  139.6114  144.7609  151.2944 LP  0  0  0  0  0  0  0  0  0  0  0  0  # atno 17343 bound_to 10162
  156.3461  130.7407  151.2360 LP  0  0  0  0  0  0  0  0  0  0  0  0  # atno 17370 bound_to 10713
  157.7477  131.0390  150.4530 LP  0  0  0  0  0  0  0  0  0  0  0  0  # atno 17371 bound_to 10713
  140.4097  134.7283  157.4828 LP  0  0  0  0  0  0  0  0  0  0  0  0  # atno 17394 bound_to 11000
  140.0436  134.6231  155.8949 LP  0  0  0  0  0  0  0  0  0  0  0  0  # atno 17395 bound_to 11000

$$$$
