AV-unprocessed.smi:45|AV-procd|sdf|415|dock6
  -GOLD-   2262016283D 1   1.00000     0.00000
 Structure written by MMmdl.
 60 63  0  0  0  0  0  0  0  0  3 V2000
  152.2400  140.4058  158.6955 C   0  0  0  0  0  0  0  0  0  0  0  0
  152.5070  140.0203  157.3551 O   0  0  0  0  0  0  0  0  0  0  0  0
  151.7815  138.9765  156.8190 C   0  0  0  0  0  0  0  0  0  0  0  0
  150.8047  138.2428  157.5394 C   0  0  0  0  0  0  0  0  0  0  0  0
  150.1018  137.1898  156.9232 C   0  0  0  0  0  0  0  0  0  0  0  0
  150.3611  136.8519  155.5802 C   0  0  0  0  0  0  0  0  0  0  0  0
  149.6018  135.7200  154.9179 C   0  0  0  0  0  0  0  0  0  0  0  0
  150.2354  134.4229  155.1041 N   0  0  0  0  0  0  0  0  0  0  0  0
  149.5590  133.2254  154.8138 C   0  0  0  0  0  0  0  0  0  0  0  0
  148.6799  133.2312  153.7860 N   0  0  0  0  0  0  0  0  0  0  0  0
  148.0140  132.1174  153.4536 C   0  0  0  0  0  0  0  0  0  0  0  0
  147.1210  132.1493  152.3834 N   0  0  0  0  0  0  0  0  0  0  0  0
  147.0027  133.3257  151.5287 C   0  0  0  0  0  0  0  0  0  0  0  0
  145.5399  133.3832  151.0918 C   0  0  0  0  0  0  0  0  0  0  0  0
  145.1232  131.9183  151.1043 C   0  0  0  0  0  0  0  0  0  0  0  0
  145.9088  131.3335  152.2873 C   0  0  1  0  0  0  0  0  0  0  0  0
  146.1986  129.8267  152.1190 C   0  0  0  0  0  0  0  0  0  0  0  0
  146.9785  129.6108  150.9618 O   0  0  0  0  0  0  0  0  0  0  0  0
  148.1894  130.9622  154.1137 N   0  3  0  0  0  0  0  0  0  0  0  0
  149.0591  130.9012  155.1511 C   0  0  0  0  0  0  0  0  0  0  0  0
  149.7941  132.0387  155.5517 C   0  0  0  0  0  0  0  0  0  0  0  0
  150.7365  131.9693  156.7268 C   0  0  0  0  0  0  0  0  0  0  0  0
  151.1283  133.0271  157.2315 O   0  0  0  0  0  0  0  0  0  0  0  0
  151.0423  130.6825  157.0528 N   0  5  0  0  0  0  0  0  0  0  0  0
  152.3907  130.2177  157.3835 C   0  0  0  0  0  0  0  0  0  0  0  0
  153.2888  130.1127  156.1560 C   0  0  0  0  0  0  0  0  0  0  0  0
  152.9892  129.1566  155.2675 N   0  0  0  0  0  0  0  0  0  0  0  0
  153.7879  129.0547  154.1829 C   0  0  0  0  0  0  0  0  0  0  0  0
  154.8884  129.9134  153.9882 C   0  0  0  0  0  0  0  0  0  0  0  0
  155.1070  130.8816  154.9887 C   0  0  0  0  0  0  0  0  0  0  0  0
  154.3051  130.9799  156.0711 N   0  0  0  0  0  0  0  0  0  0  0  0
  151.3308  137.5749  154.8585 C   0  0  0  0  0  0  0  0  0  0  0  0
  152.0363  138.6277  155.4736 C   0  0  0  0  0  0  0  0  0  0  0  0
  153.2201  139.4929  154.5602 Cl  0  0  0  0  0  0  0  0  0  0  0  0
  145.3371  131.4939  153.2030 H   0  0  0  0  0  0  0  0  0  0  0  0
  152.8823  141.2449  158.9626 H   0  0  0  0  0  0  0  0  0  0  0  0
  152.4506  139.5945  159.3935 H   0  0  0  0  0  0  0  0  0  0  0  0
  151.2060  140.7308  158.8188 H   0  0  0  0  0  0  0  0  0  0  0  0
  150.5749  138.4676  158.5699 H   0  0  0  0  0  0  0  0  0  0  0  0
  149.3609  136.6403  157.4858 H   0  0  0  0  0  0  0  0  0  0  0  0
  148.5936  135.6921  155.3331 H   0  0  0  0  0  0  0  0  0  0  0  0
  149.5034  135.9222  153.8505 H   0  0  0  0  0  0  0  0  0  0  0  0
  151.1981  134.3874  155.4096 H   0  0  0  0  0  0  0  0  0  0  0  0
  147.2919  134.2437  152.0420 H   0  0  0  0  0  0  0  0  0  0  0  0
  147.6580  133.1971  150.6667 H   0  0  0  0  0  0  0  0  0  0  0  0
  144.9547  133.9379  151.8268 H   0  0  0  0  0  0  0  0  0  0  0  0
  145.4038  133.8600  150.1207 H   0  0  0  0  0  0  0  0  0  0  0  0
  144.0456  131.7848  151.2055 H   0  0  0  0  0  0  0  0  0  0  0  0
  145.4318  131.4484  150.1691 H   0  0  0  0  0  0  0  0  0  0  0  0
  146.7267  129.4327  152.9881 H   0  0  0  0  0  0  0  0  0  0  0  0
  145.2819  129.2480  152.0144 H   0  0  0  0  0  0  0  0  0  0  0  0
  147.6738  130.2510  150.9419 H   0  0  0  0  0  0  0  0  0  0  0  0
  149.1347  129.9372  155.6338 H   0  0  0  0  0  0  0  0  0  0  0  0
  152.8706  130.8969  158.0893 H   0  0  0  0  0  0  0  0  0  0  0  0
  152.3751  129.2544  157.8970 H   0  0  0  0  0  0  0  0  0  0  0  0
  153.5469  128.2841  153.4658 H   0  0  0  0  0  0  0  0  0  0  0  0
  155.5275  129.8341  153.1215 H   0  0  0  0  0  0  0  0  0  0  0  0
  155.9272  131.5806  154.9196 H   0  0  0  0  0  0  0  0  0  0  0  0
  151.5387  137.3228  153.8288 H   0  0  0  0  0  0  0  0  0  0  0  0
  147.6738  130.1241  153.8457 H   0  0  0  0  0  0  0  0  0  0  0  0
  1  2  1  0  0  0  0
  1 36  1  0  0  0  0
  1 37  1  0  0  0  0
  1 38  1  0  0  0  0
  2  3  1  0  0  0  0
  3 33  1  0  0  0  0
  3  4  2  0  0  0  0
  4  5  1  0  0  0  0
  4 39  1  0  0  0  0
  5  6  2  0  0  0  0
  5 40  1  0  0  0  0
  6  7  1  0  0  0  0
  6 32  1  0  0  0  0
  7  8  1  0  0  0  0
  7 41  1  0  0  0  0
  7 42  1  0  0  0  0
  8  9  1  0  0  0  0
  8 43  1  0  0  0  0
  9 21  1  0  0  0  0
  9 10  2  0  0  0  0
 10 11  1  0  0  0  0
 11 12  1  0  0  0  0
 11 19  2  0  0  0  0
 12 16  1  0  0  0  0
 12 13  1  0  0  0  0
 13 14  1  0  0  0  0
 13 44  1  0  0  0  0
 13 45  1  0  0  0  0
 14 15  1  0  0  0  0
 14 46  1  0  0  0  0
 14 47  1  0  0  0  0
 15 16  1  0  0  0  0
 15 48  1  0  0  0  0
 15 49  1  0  0  0  0
 16 35  1  0  0  0  0
 16 17  1  0  0  0  0
 17 18  1  0  0  0  0
 17 50  1  0  0  0  0
 17 51  1  0  0  0  0
 18 52  1  0  0  0  0
 19 20  1  0  0  0  0
 19 60  1  0  0  0  0
 20 21  2  0  0  0  0
 20 53  1  0  0  0  0
 21 22  1  0  0  0  0
 22 23  2  0  0  0  0
 22 24  1  0  0  0  0
 24 25  1  0  0  0  0
 25 26  1  0  0  0  0
 25 54  1  0  0  0  0
 25 55  1  0  0  0  0
 26 31  1  0  0  0  0
 26 27  2  0  0  0  0
 27 28  1  0  0  0  0
 28 29  2  0  0  0  0
 28 56  1  0  0  0  0
 29 30  1  0  0  0  0
 29 57  1  0  0  0  0
 30 31  2  0  0  0  0
 30 58  1  0  0  0  0
 32 33  2  0  0  0  0
 32 59  1  0  0  0  0
 33 34  1  0  0  0  0
M  CHG  1  19   1
M  CHG  1  24  -1
M  END
> <s_m_source_file>
AV-unprocessed.smi

> <i_m_source_file_index>
45

> <i_lp_mmshare_version>
43012

> <i_f3d_flags>
0

> <s_epik_input>
W0NIM11PYzFbY0hdW2NIXWMoW2NIXWMxQ2wpW0NIMl1bTkhdYzJuYyhOM1tDSDJdW0NIMl1bQ0gyXVtDQEhdM1tDSDJdW09IXSluW2NIXWMyQyg9TylbTkhdW0NIMl1jNG5bY0hdW2NIXVtjSF1uNA==

> <s_epik_cmdline>
J2VwaWtfcHl0aG9uJywgJy1waCcsICc3LjAnLCAnLXRuJywgJzgnLCAnLW1hJywgJzIwMCcsICctbWV0YWxfYmluZGluZycsICctaW1hZScsICc8aW5maWxlLm1hZT4nLCAnLW9tYWUnLCAnPG91dGZpbGUubWFlPic=

> <r_lp_tautomer_probability>
0.575011

> <r_epik_Ionization_Penalty>
6.73124

> <r_epik_Ionization_Penalty_Charging>
6.73106

> <r_epik_Ionization_Penalty_Neutral>
0.000179426

> <r_epik_State_Penalty>
8.26145

> <r_epik_Charging_Adjusted_Penalty>
14.9925

> <i_epik_Tot_Q>
0

> <i_epik_Tot_abs_Q>
2

> <r_epik_Metal_State_Penalty>
4.22532

> <b_epik_Metal_Only>
1

> <s_epik_Chemistry_Notes>
This compound contains an electron-poor aromatic ring that is susceptible to covalent hydrolysis at low pH, typically resulting in measured values for nitrogen ring protonation that are around two units higher than predicted values.

> <s_lp_Force_Field>
OPLS_2005

> <r_lp_Energy>
44.6193

> <b_lp_Chiralities_Consistent>
1

> <s_lp_Variant>
AV-unprocessed.smi:45-9

> <Gold.Version>
5.8.1

> <Gold.Id.Protein>
6NUR|6NUR_protein|mol2

> <Gold.PLP.Fitness>
55.1860

> <Gold.PLP.PLP>
-45.4217

> <Gold.PLP.part.hbond>
-3.0000

> <Gold.PLP.part.metal>
0.0000

> <Gold.PLP.part.buried>
-3.7627

> <Gold.PLP.part.nonpolar>
-40.6643

> <Gold.PLP.part.repulsive>
0.2500

> <Gold.PLP.ligand.clash>
0.0000

> <Gold.PLP.ligand.torsion>
1.5021

> <Gold.PLP.Chemscore.Hbond>
2.9600

> <Gold.PLP.Chemscore.CHOScore>
0.9985

> <Gold.PLP.Chemscore.Metal>
0.0000

> <Gold.Chemscore.Hbonds>
donor molecule, donor type, donor heavy atom, donor atom, acceptor molecule, acceptor atom, score
      L1  H    18    52       P1 10747  0.99
      P1  H  6896  6907       L1    23  0.91
      P1  H  7997  8008       L1     2  1.00
      L1  C    28    56       P1 10737  0.42

> <Gold.PLP.Chemscore.Internal.Correction>
0.8929

> <Gold.Rescore>
     Score         DG    S(hbond)    S(metal)    S(lipo)     H(rot)  DE(clash)    DE(int)     intcor
     16.44     -21.68       2.90        0.00     119.25       2.90       1.44       3.80       ----

> <Gold.Chemscore.Fitness>
16.4398

> <Gold.Chemscore.DG>
-21.6816

> <Gold.Chemscore.ZeroCoef>
-5.4800

> <Gold.Chemscore.Hbond>
2.8955

> <Gold.Chemscore.Metal>
0.0000

> <Gold.Chemscore.Lipo>
119.2452

> <Gold.Chemscore.Internal_Hbond>
0.0000

> <Gold.Chemscore.DEClash>
1.4381

> <Gold.Chemscore.DEInternal>
3.8037

> <Gold.Chemscore.Rot>
2.8988

> <Gold.Chemscore.Internal.Correction>
   9.000000E+99

> <Gold.Chemscore.Hbonds>
donor molecule, donor type, donor heavy atom, donor atom, acceptor molecule, acceptor atom, score
      L1  H    18    52       P1 10747  0.90
      P1  H  6896  6907       L1    23  0.86
      P1  H  7997  8008       L1     2  0.79

> <Gold.Chemscore.Hbond.Weighted>
-9.6708

> <Gold.Chemscore.Metal.Weighted>
-0.0000

> <Gold.Chemscore.Lipo.Weighted>
-13.9517

> <Gold.Chemscore.Internal_Hbond.Weighted>
0.0000

> <Gold.Chemscore.DEClash.Weighted>
1.4381

> <Gold.Chemscore.DEInternal.Weighted>
3.8037

> <Gold.Chemscore.Rot.Weighted>
7.4209

> <Gold.Chemscore.Internal.Correction.Weighted>
   9.000000E+99

> <Gold.Protein.RotatedTorsions>
[ 6907 6896 6895 6894 ] final -150.64 input  -60.11 | X-H torsion
[ 7974 7965 7964 7962 ] final -107.29 input  175.53 | X-H torsion
[ 8008 7997 7996 7995 ] final  -62.30 input   59.86 | X-H torsion
[ 10167 10162 10161 10158 ] final -139.58 input  -65.29 | X-H torsion
[ 10718 10713 10712 10709 ] final   38.71 input   66.30 | X-H torsion
[ 10763 10752 10751 10750 ] final   98.08 input  -60.55 | X-H torsion
[ 11005 11000 10999 10996 ] final  -69.40 input  -57.11 | X-H torsion

> <Gold.Protein.ActiveResidues>
 VAL166  LYS551  ARG553  GLY616  TRP617  ASP618  TYR619  PRO620  LYS621  CYS622 
 ASP623  PHE694  ASN695  SER759  ASP760  ASP761  ALA762  ILE779  LEU786  VAL792 
 PHE793  MET794  SER795  GLU796  ALA797  LYS798  CYS799  TRP800  GLU811  SER814 

> <Gold.Protein.RotatedAtoms>
  151.2015  133.4608  159.2596 H   0  0  0  0  0  0  0  0  0  0  0  0  # atno 6907 bound_to 6896
  151.1064  135.0002  159.8483 H   0  0  0  0  0  0  0  0  0  0  0  0  # atno 6908 bound_to 6896
  152.5447  134.1938  159.8737 H   0  0  0  0  0  0  0  0  0  0  0  0  # atno 6909 bound_to 6896
  145.2072  140.9081  143.3335 H   0  0  0  0  0  0  0  0  0  0  0  0  # atno 7974 bound_to 7965
  154.4492  140.0999  156.6565 H   0  0  0  0  0  0  0  0  0  0  0  0  # atno 8008 bound_to 7997
  155.5340  140.3482  155.4414 H   0  0  0  0  0  0  0  0  0  0  0  0  # atno 8009 bound_to 7997
  156.0644  140.1334  156.9892 H   0  0  0  0  0  0  0  0  0  0  0  0  # atno 8010 bound_to 7997
  139.8365  143.7378  152.2664 H   0  0  0  0  0  0  0  0  0  0  0  0  # atno 10167 bound_to 10162
  157.3621  130.7655  149.7055 H   0  0  0  0  0  0  0  0  0  0  0  0  # atno 10718 bound_to 10713
  153.2846  135.4161  155.1111 H   0  0  0  0  0  0  0  0  0  0  0  0  # atno 10763 bound_to 10752
  154.8501  135.3503  154.6064 H   0  0  0  0  0  0  0  0  0  0  0  0  # atno 10764 bound_to 10752
  153.6485  135.7054  153.5274 H   0  0  0  0  0  0  0  0  0  0  0  0  # atno 10765 bound_to 10752
  141.1553  133.6763  156.6593 H   0  0  0  0  0  0  0  0  0  0  0  0  # atno 11005 bound_to 11000
  144.9891  139.3707  143.6224 LP  0  0  0  0  0  0  0  0  0  0  0  0  # atno 17320 bound_to 7965
  146.3405  139.9065  142.8786 LP  0  0  0  0  0  0  0  0  0  0  0  0  # atno 17321 bound_to 7965
  139.7601  144.7509  151.0376 LP  0  0  0  0  0  0  0  0  0  0  0  0  # atno 17342 bound_to 10162
  140.7802  143.4760  151.0082 LP  0  0  0  0  0  0  0  0  0  0  0  0  # atno 17343 bound_to 10162
  155.9739  130.4111  150.3963 LP  0  0  0  0  0  0  0  0  0  0  0  0  # atno 17370 bound_to 10713
  157.2042  131.0445  151.2634 LP  0  0  0  0  0  0  0  0  0  0  0  0  # atno 17371 bound_to 10713
  140.3259  134.7969  157.4289 LP  0  0  0  0  0  0  0  0  0  0  0  0  # atno 17394 bound_to 11000
  140.1057  134.5413  155.8311 LP  0  0  0  0  0  0  0  0  0  0  0  0  # atno 17395 bound_to 11000

$$$$
