AV-unprocessed.smi:2693|AV-procd|sdf|10404|dock6
  -GOLD-   2272014433D 1   1.00000     0.00000
 Structure written by MMmdl.
 45 47  0  0  0  0  0  0  0  0  1 V2000
  148.6985  128.3871  154.0085 C   0  0  0  0  0  0  0  0  0  0  0  0
  149.5590  129.2929  154.7639 N   0  0  0  0  0  0  0  0  0  0  0  0
  150.5959  128.6975  155.6020 C   0  0  0  0  0  0  0  0  0  0  0  0
  149.4036  130.6797  154.6794 C   0  0  0  0  0  0  0  0  0  0  0  0
  150.0860  131.4309  155.5536 N   0  0  0  0  0  0  0  0  0  0  0  0
  149.9410  132.7711  155.4807 C   0  0  0  0  0  0  0  0  0  0  0  0
  149.0957  133.3751  154.5195 C   0  0  0  0  0  0  0  0  0  0  0  0
  148.9042  134.7738  154.3626 N   0  0  0  0  0  0  0  0  0  0  0  0
  148.9744  135.7338  155.3000 C   0  0  0  0  0  0  0  0  0  0  0  0
  149.1873  135.5461  156.4974 O   0  0  0  0  0  0  0  0  0  0  0  0
  148.7533  136.9439  154.7709 N   0  0  0  0  0  0  0  0  0  0  0  0
  148.7288  138.1940  155.5377 C   0  0  1  0  0  0  0  0  0  0  0  0
  150.1282  138.6728  155.9304 C   0  0  1  0  0  0  0  0  0  0  0  0
  151.4773  138.0576  156.0237 C   0  0  0  0  0  0  0  0  0  0  0  0
  152.2721  139.2447  155.4150 C   0  0  0  0  0  0  0  0  0  0  0  0
  151.2799  140.1565  154.8770 O   0  0  0  0  0  0  0  0  0  0  0  0
  150.1837  139.3211  154.5624 C   0  0  2  0  0  0  0  0  0  0  0  0
  148.6550  139.5166  154.6756 C   0  0  0  0  0  0  0  0  0  0  0  0
  147.8823  139.4451  153.3535 C   0  0  0  0  0  0  0  0  0  0  0  0
  148.1605  140.7922  155.3811 C   0  0  0  0  0  0  0  0  0  0  0  0
  148.4356  132.4912  153.6431 C   0  0  0  0  0  0  0  0  0  0  0  0
  148.5879  131.1528  153.7279 N   0  0  0  0  0  0  0  0  0  0  0  0
  148.8736  128.5035  152.9386 H   0  0  0  0  0  0  0  0  0  0  0  0
  147.6481  128.5979  154.2112 H   0  0  0  0  0  0  0  0  0  0  0  0
  148.8803  127.3440  154.2670 H   0  0  0  0  0  0  0  0  0  0  0  0
  151.5751  129.1025  155.3445 H   0  0  0  0  0  0  0  0  0  0  0  0
  150.6452  127.6152  155.4812 H   0  0  0  0  0  0  0  0  0  0  0  0
  150.4012  128.9097  156.6538 H   0  0  0  0  0  0  0  0  0  0  0  0
  150.5251  133.3402  156.1865 H   0  0  0  0  0  0  0  0  0  0  0  0
  148.6397  135.0743  153.4359 H   0  0  0  0  0  0  0  0  0  0  0  0
  148.5807  137.0105  153.7787 H   0  0  0  0  0  0  0  0  0  0  0  0
  148.0347  138.1859  156.3799 H   0  0  0  0  0  0  0  0  0  0  0  0
  150.0242  139.4001  156.7394 H   0  0  0  0  0  0  0  0  0  0  0  0
  151.7737  137.8344  157.0490 H   0  0  0  0  0  0  0  0  0  0  0  0
  151.5630  137.1541  155.4186 H   0  0  0  0  0  0  0  0  0  0  0  0
  152.8725  139.7600  156.1650 H   0  0  0  0  0  0  0  0  0  0  0  0
  152.9400  138.8993  154.6250 H   0  0  0  0  0  0  0  0  0  0  0  0
  150.4506  138.6337  153.7530 H   0  0  0  0  0  0  0  0  0  0  0  0
  147.9752  140.3698  152.7830 H   0  0  0  0  0  0  0  0  0  0  0  0
  146.8199  139.2674  153.5234 H   0  0  0  0  0  0  0  0  0  0  0  0
  148.2446  138.6432  152.7101 H   0  0  0  0  0  0  0  0  0  0  0  0
  148.4107  141.6835  154.8048 H   0  0  0  0  0  0  0  0  0  0  0  0
  148.5841  140.9332  156.3739 H   0  0  0  0  0  0  0  0  0  0  0  0
  147.0772  140.7794  155.5060 H   0  0  0  0  0  0  0  0  0  0  0  0
  147.7770  132.8571  152.8690 H   0  0  0  0  0  0  0  0  0  0  0  0
  1  2  1  0  0  0  0
  1 23  1  0  0  0  0
  1 24  1  0  0  0  0
  1 25  1  0  0  0  0
  2  3  1  0  0  0  0
  2  4  1  0  0  0  0
  3 26  1  0  0  0  0
  3 27  1  0  0  0  0
  3 28  1  0  0  0  0
  4 22  1  0  0  0  0
  4  5  2  0  0  0  0
  5  6  1  0  0  0  0
  6  7  2  0  0  0  0
  6 29  1  0  0  0  0
  7  8  1  0  0  0  0
  7 21  1  0  0  0  0
  8  9  1  0  0  0  0
  8 30  1  0  0  0  0
  9 10  2  0  0  0  0
  9 11  1  0  0  0  0
 11 12  1  0  0  0  0
 11 31  1  0  0  0  0
 12 18  1  0  0  0  0
 12 13  1  0  0  0  0
 12 32  1  0  0  0  0
 13 17  1  0  0  0  0
 13 14  1  0  0  0  0
 13 33  1  0  0  0  0
 14 15  1  0  0  0  0
 14 34  1  0  0  0  0
 14 35  1  0  0  0  0
 15 16  1  0  0  0  0
 15 36  1  0  0  0  0
 15 37  1  0  0  0  0
 16 17  1  0  0  0  0
 17 18  1  0  0  0  0
 17 38  1  0  0  0  0
 18 19  1  0  0  0  0
 18 20  1  0  0  0  0
 19 39  1  0  0  0  0
 19 40  1  0  0  0  0
 19 41  1  0  0  0  0
 20 42  1  0  0  0  0
 20 43  1  0  0  0  0
 20 44  1  0  0  0  0
 21 22  2  0  0  0  0
 21 45  1  0  0  0  0
M  END
> <s_m_source_file>
AV-unprocessed.smi

> <i_m_source_file_index>
2693

> <i_lp_mmshare_version>
43012

> <i_f3d_flags>
0

> <s_epik_input>
W0NIM11OKFtDSDNdKWMxbltjSF1jKFtjSF1uMSlbTkhdQyg9TylbTkhdW0NASF0yQyhbQ0gzXSkoW0NIM10pW0NAQEhdKFtDQEhdMjMpT1tDSDJdW0NIMl0z

> <s_epik_cmdline>
J2VwaWtfcHl0aG9uJywgJy1waCcsICc3LjAnLCAnLXRuJywgJzgnLCAnLW1hJywgJzIwMCcsICctbWV0YWxfYmluZGluZycsICctaW1hZScsICc8aW5maWxlLm1hZT4nLCAnLW9tYWUnLCAnPG91dGZpbGUubWFlPic=

> <r_lp_tautomer_probability>
1

> <r_epik_Ionization_Penalty>
0.00031779

> <r_epik_Ionization_Penalty_Charging>
0

> <r_epik_Ionization_Penalty_Neutral>
0.00031779

> <r_epik_State_Penalty>
-0

> <r_epik_Charging_Adjusted_Penalty>
0

> <i_epik_Tot_Q>
0

> <i_epik_Tot_abs_Q>
0

> <r_epik_Metal_State_Penalty>
-0

> <b_epik_Metal_Only>
0

> <s_lp_Force_Field>
OPLS_2005

> <r_lp_Energy>
57.3202

> <b_lp_Chiralities_Consistent>
1

> <s_lp_Variant>
AV-unprocessed.smi:2693-8

> <Gold.Version>
5.8.1

> <Gold.Id.Protein>
6NUR|6NUR_protein|mol2

> <Gold.PLP.Fitness>
39.7137

> <Gold.PLP.PLP>
-31.4566

> <Gold.PLP.part.hbond>
-2.9026

> <Gold.PLP.part.metal>
0.0000

> <Gold.PLP.part.buried>
-1.9180

> <Gold.PLP.part.nonpolar>
-25.9370

> <Gold.PLP.part.repulsive>
0.2025

> <Gold.PLP.ligand.clash>
0.0000

> <Gold.PLP.ligand.torsion>
0.3589

> <Gold.PLP.Chemscore.Hbond>
2.9040

> <Gold.PLP.Chemscore.CHOScore>
0.0000

> <Gold.PLP.Chemscore.Metal>
0.0000

> <Gold.Chemscore.Hbonds>
donor molecule, donor type, donor heavy atom, donor atom, acceptor molecule, acceptor atom, score
      L1  H     8    30       P1  7948  0.99
      L1  H    11    31       P1  7948  0.80
      P1  H  7989  7998       L1    16  1.00

> <Gold.PLP.Chemscore.Internal.Correction>
0.2629

> <Gold.Rescore>
     Score         DG    S(hbond)    S(metal)    S(lipo)     H(rot)  DE(clash)    DE(int)     intcor
     15.25     -16.99       1.82        0.00      68.44       1.00       1.32       0.43       ----

> <Gold.Chemscore.Fitness>
15.2464

> <Gold.Chemscore.DG>
-16.9917

> <Gold.Chemscore.ZeroCoef>
-5.4800

> <Gold.Chemscore.Hbond>
1.8158

> <Gold.Chemscore.Metal>
0.0000

> <Gold.Chemscore.Lipo>
68.4364

> <Gold.Chemscore.Internal_Hbond>
0.0000

> <Gold.Chemscore.DEClash>
1.3182

> <Gold.Chemscore.DEInternal>
0.4271

> <Gold.Chemscore.Rot>
1.0000

> <Gold.Chemscore.Internal.Correction>
   9.000000E+99

> <Gold.Chemscore.Hbonds>
donor molecule, donor type, donor heavy atom, donor atom, acceptor molecule, acceptor atom, score
      L1  H     8    30       P1  7948  0.70
      L1  H    11    31       P1  7948  0.75
      P1  H  7989  7998       L1    16  0.45

> <Gold.Chemscore.Hbond.Weighted>
-6.0647

> <Gold.Chemscore.Metal.Weighted>
-0.0000

> <Gold.Chemscore.Lipo.Weighted>
-8.0071

> <Gold.Chemscore.Internal_Hbond.Weighted>
0.0000

> <Gold.Chemscore.DEClash.Weighted>
1.3182

> <Gold.Chemscore.DEInternal.Weighted>
0.4271

> <Gold.Chemscore.Rot.Weighted>
2.5600

> <Gold.Chemscore.Internal.Correction.Weighted>
   9.000000E+99

> <Gold.Protein.RotatedTorsions>
[ 6907 6896 6895 6894 ] final  136.44 input  -60.11 | X-H torsion
[ 7974 7965 7964 7962 ] final  -53.98 input  175.53 | X-H torsion
[ 8008 7997 7996 7995 ] final  -16.23 input   59.86 | X-H torsion
[ 10167 10162 10161 10158 ] final  162.54 input  -65.29 | X-H torsion
[ 10718 10713 10712 10709 ] final  -11.55 input   66.30 | X-H torsion
[ 10763 10752 10751 10750 ] final   43.58 input  -60.55 | X-H torsion
[ 11005 11000 10999 10996 ] final  -84.40 input  -57.11 | X-H torsion

> <Gold.Protein.ActiveResidues>
 VAL166  LYS551  ARG553  GLY616  TRP617  ASP618  TYR619  PRO620  LYS621  CYS622 
 ASP623  PHE694  ASN695  SER759  ASP760  ASP761  ALA762  ILE779  LEU786  VAL792 
 PHE793  MET794  SER795  GLU796  ALA797  LYS798  CYS799  TRP800  GLU811  SER814 

> <Gold.Protein.RotatedAtoms>
  152.2893  133.5546  159.5547 H   0  0  0  0  0  0  0  0  0  0  0  0  # atno 6907 bound_to 6896
  150.7228  134.0451  159.3788 H   0  0  0  0  0  0  0  0  0  0  0  0  # atno 6908 bound_to 6896
  151.8358  135.0607  160.0493 H   0  0  0  0  0  0  0  0  0  0  0  0  # atno 6909 bound_to 6896
  145.8907  140.8073  142.9793 H   0  0  0  0  0  0  0  0  0  0  0  0  # atno 7974 bound_to 7965
  154.5069  140.2175  155.9234 H   0  0  0  0  0  0  0  0  0  0  0  0  # atno 8008 bound_to 7997
  156.1504  140.3162  155.8605 H   0  0  0  0  0  0  0  0  0  0  0  0  # atno 8009 bound_to 7997
  155.3949  140.0480  157.3030 H   0  0  0  0  0  0  0  0  0  0  0  0  # atno 8010 bound_to 7997
  139.4862  144.4427  151.8931 H   0  0  0  0  0  0  0  0  0  0  0  0  # atno 10167 bound_to 10162
  156.6574  130.4972  149.6041 H   0  0  0  0  0  0  0  0  0  0  0  0  # atno 10718 bound_to 10713
  152.9858  135.6097  154.3135 H   0  0  0  0  0  0  0  0  0  0  0  0  # atno 10763 bound_to 10752
  154.2849  135.2776  155.2683 H   0  0  0  0  0  0  0  0  0  0  0  0  # atno 10764 bound_to 10752
  154.5005  135.5868  153.6584 H   0  0  0  0  0  0  0  0  0  0  0  0  # atno 10765 bound_to 10752
  141.1651  133.7344  156.8862 H   0  0  0  0  0  0  0  0  0  0  0  0  # atno 11005 bound_to 11000
  144.6730  140.1525  143.7429 LP  0  0  0  0  0  0  0  0  0  0  0  0  # atno 17320 bound_to 7965
  145.8912  139.2377  143.1548 LP  0  0  0  0  0  0  0  0  0  0  0  0  # atno 17321 bound_to 7965
  140.3880  144.2652  150.5902 LP  0  0  0  0  0  0  0  0  0  0  0  0  # atno 17342 bound_to 10162
  140.5173  143.2275  151.8444 LP  0  0  0  0  0  0  0  0  0  0  0  0  # atno 17343 bound_to 10162
  156.2037  130.6636  151.1195 LP  0  0  0  0  0  0  0  0  0  0  0  0  # atno 17370 bound_to 10713
  157.7121  131.0729  150.6463 LP  0  0  0  0  0  0  0  0  0  0  0  0  # atno 17371 bound_to 10713
  140.1680  134.9119  157.2798 LP  0  0  0  0  0  0  0  0  0  0  0  0  # atno 17394 bound_to 11000
  140.2534  134.3656  155.7433 LP  0  0  0  0  0  0  0  0  0  0  0  0  # atno 17395 bound_to 11000

$$$$
