AV-unprocessed.smi:652|AV-procd|sdf|3200|dock9
  -GOLD-   22720 0133D 1   1.00000     0.00000
 Structure written by MMmdl.
 49 50  0  0  0  0  0  0  0  0  3 V2000
  147.2272  132.2439  153.2240 C   0  0  0  0  0  0  0  0  0  0  0  0
  148.3522  133.2786  153.3596 C   0  0  0  0  0  0  0  0  0  0  0  0
  149.2605  132.9727  154.5614 C   0  0  0  0  0  0  0  0  0  0  0  0
  147.7716  134.6129  153.4829 N   0  0  0  0  0  0  0  0  0  0  0  0
  147.0285  135.0461  154.5135 C   0  0  0  0  0  0  0  0  0  0  0  0
  146.7539  134.3502  155.4912 O   0  0  0  0  0  0  0  0  0  0  0  0
  146.5189  136.4874  154.4297 C   0  0  0  0  0  0  0  0  0  0  0  0
  147.5141  137.4934  155.0411 C   0  0  0  0  0  0  0  0  0  0  0  0
  148.3319  138.1797  154.0059 N   0  3  1  0  0  0  0  0  0  0  0  0
  147.5574  139.1340  153.1760 C   0  0  0  0  0  0  0  0  0  0  0  0
  147.3073  140.4507  153.9320 C   0  0  0  0  0  0  0  0  0  0  0  0
  148.5543  141.0069  154.3313 O   0  0  0  0  0  0  0  0  0  0  0  0
  149.2691  140.1632  155.2294 C   0  0  2  0  0  0  0  0  0  0  0  0
  150.5602  140.8891  155.6355 C   0  0  0  0  0  0  0  0  0  0  0  0
  150.2819  142.1850  156.2368 N   0  0  0  0  0  0  0  0  0  0  0  0
  150.8730  142.5415  157.4562 C   0  0  0  0  0  0  0  0  0  0  0  0
  151.7580  141.7107  158.1821 C   0  0  0  0  0  0  0  0  0  0  0  0
  152.2845  142.1940  159.3920 C   0  0  0  0  0  0  0  0  0  0  0  0
  151.8943  143.4804  159.8045 C   0  0  0  0  0  0  0  0  0  0  0  0
  151.0453  144.2588  159.0971 N   0  0  0  0  0  0  0  0  0  0  0  0
  150.5580  143.7678  157.9438 N   0  3  0  0  0  0  0  0  0  0  0  0
  149.5695  138.8243  154.5172 C   0  0  0  0  0  0  0  0  0  0  0  0
  147.6326  131.2393  153.0995 H   0  0  0  0  0  0  0  0  0  0  0  0
  146.6005  132.4549  152.3567 H   0  0  0  0  0  0  0  0  0  0  0  0
  146.5851  132.2359  154.1055 H   0  0  0  0  0  0  0  0  0  0  0  0
  148.9536  133.2361  152.4495 H   0  0  0  0  0  0  0  0  0  0  0  0
  149.6987  131.9779  154.4766 H   0  0  0  0  0  0  0  0  0  0  0  0
  148.7055  133.0118  155.4993 H   0  0  0  0  0  0  0  0  0  0  0  0
  150.0824  133.6859  154.6304 H   0  0  0  0  0  0  0  0  0  0  0  0
  147.9492  135.2542  152.7233 H   0  0  0  0  0  0  0  0  0  0  0  0
  146.3310  136.7128  153.3801 H   0  0  0  0  0  0  0  0  0  0  0  0
  145.5593  136.5623  154.9442 H   0  0  0  0  0  0  0  0  0  0  0  0
  146.9407  138.2446  155.5870 H   0  0  0  0  0  0  0  0  0  0  0  0
  148.1554  137.0085  155.7772 H   0  0  0  0  0  0  0  0  0  0  0  0
  148.1282  139.3426  152.2701 H   0  0  0  0  0  0  0  0  0  0  0  0
  146.6175  138.6890  152.8480 H   0  0  0  0  0  0  0  0  0  0  0  0
  146.7969  141.1629  153.2835 H   0  0  0  0  0  0  0  0  0  0  0  0
  146.6648  140.2958  154.8000 H   0  0  0  0  0  0  0  0  0  0  0  0
  148.6699  139.9850  156.1238 H   0  0  0  0  0  0  0  0  0  0  0  0
  151.1043  140.2841  156.3620 H   0  0  0  0  0  0  0  0  0  0  0  0
  151.2081  141.0148  154.7671 H   0  0  0  0  0  0  0  0  0  0  0  0
  149.8413  142.8965  155.6710 H   0  0  0  0  0  0  0  0  0  0  0  0
  152.0334  140.7264  157.8340 H   0  0  0  0  0  0  0  0  0  0  0  0
  152.9646  141.6004  159.9850 H   0  0  0  0  0  0  0  0  0  0  0  0
  152.2719  143.8975  160.7267 H   0  0  0  0  0  0  0  0  0  0  0  0
  150.1157  138.1510  155.1767 H   0  0  0  0  0  0  0  0  0  0  0  0
  150.2256  139.0087  153.6655 H   0  0  0  0  0  0  0  0  0  0  0  0
  148.6261  137.4464  153.3762 H   0  0  0  0  0  0  0  0  0  0  0  0
  149.9169  144.3501  157.4046 H   0  0  0  0  0  0  0  0  0  0  0  0
  1  2  1  0  0  0  0
  1 23  1  0  0  0  0
  1 24  1  0  0  0  0
  1 25  1  0  0  0  0
  2  3  1  0  0  0  0
  2  4  1  0  0  0  0
  2 26  1  0  0  0  0
  3 27  1  0  0  0  0
  3 28  1  0  0  0  0
  3 29  1  0  0  0  0
  4  5  1  0  0  0  0
  4 30  1  0  0  0  0
  5  6  2  0  0  0  0
  5  7  1  0  0  0  0
  7  8  1  0  0  0  0
  7 31  1  0  0  0  0
  7 32  1  0  0  0  0
  8  9  1  0  0  0  0
  8 33  1  0  0  0  0
  8 34  1  0  0  0  0
  9 22  1  0  0  0  0
  9 10  1  0  0  0  0
  9 48  1  0  0  0  0
 10 11  1  0  0  0  0
 10 35  1  0  0  0  0
 10 36  1  0  0  0  0
 11 12  1  0  0  0  0
 11 37  1  0  0  0  0
 11 38  1  0  0  0  0
 12 13  1  0  0  0  0
 13 14  1  0  0  0  0
 13 22  1  0  0  0  0
 13 39  1  0  0  0  0
 14 15  1  0  0  0  0
 14 40  1  0  0  0  0
 14 41  1  0  0  0  0
 15 16  1  0  0  0  0
 15 42  1  0  0  0  0
 16 21  1  0  0  0  0
 16 17  2  0  0  0  0
 17 18  1  0  0  0  0
 17 43  1  0  0  0  0
 18 19  2  0  0  0  0
 18 44  1  0  0  0  0
 19 20  1  0  0  0  0
 19 45  1  0  0  0  0
 20 21  2  0  0  0  0
 21 49  1  0  0  0  0
 22 46  1  0  0  0  0
 22 47  1  0  0  0  0
M  CHG  1   9   1
M  CHG  1  21   1
M  END
> <s_m_source_file>
AV-unprocessed.smi

> <i_m_source_file_index>
652

> <i_lp_mmshare_version>
43012

> <i_f3d_flags>
0

> <s_epik_input>
W0NIM11bQ0hdKFtDSDNdKVtOSF1DKD1PKVtDSDJdW0NIMl1OMVtDSDJdW0NIMl1PW0NASF0oW0NIMl0xKVtDSDJdW05IXWMyW2NIXVtjSF1bY0hdbm4y

> <s_epik_cmdline>
J2VwaWtfcHl0aG9uJywgJy1waCcsICc3LjAnLCAnLXRuJywgJzgnLCAnLW1hJywgJzIwMCcsICctbWV0YWxfYmluZGluZycsICctaW1hZScsICc8aW5maWxlLm1hZT4nLCAnLW9tYWUnLCAnPG91dGZpbGUubWFlPic=

> <r_lp_tautomer_probability>
0.966961

> <r_epik_Ionization_Penalty>
2.79885

> <r_epik_Ionization_Penalty_Charging>
2.79884

> <r_epik_Ionization_Penalty_Neutral>
3.2567e-06

> <r_epik_State_Penalty>
2.43203

> <r_epik_Charging_Adjusted_Penalty>
5.23087

> <i_epik_Tot_Q>
2

> <i_epik_Tot_abs_Q>
2

> <r_epik_Metal_State_Penalty>
2.43963

> <b_epik_Metal_Only>
0

> <s_lp_Force_Field>
OPLS_2005

> <r_lp_Energy>
31.8364

> <b_lp_Chiralities_Consistent>
1

> <s_lp_Variant>
AV-unprocessed.smi:652-9

> <Gold.Version>
5.8.1

> <Gold.Id.Protein>
6NUR|6NUR_protein|mol2

> <Gold.PLP.Fitness>
54.6428

> <Gold.PLP.PLP>
-35.5237

> <Gold.PLP.part.hbond>
-3.8218

> <Gold.PLP.part.metal>
0.0000

> <Gold.PLP.part.buried>
-3.3705

> <Gold.PLP.part.nonpolar>
-28.0481

> <Gold.PLP.part.repulsive>
0.3830

> <Gold.PLP.ligand.clash>
0.0000

> <Gold.PLP.ligand.torsion>
0.8342

> <Gold.PLP.Chemscore.Hbond>
6.9040

> <Gold.PLP.Chemscore.CHOScore>
0.0000

> <Gold.PLP.Chemscore.Metal>
0.0000

> <Gold.Chemscore.Hbonds>
donor molecule, donor type, donor heavy atom, donor atom, acceptor molecule, acceptor atom, score
      L1  H     4    30       P1  7948  1.00
      L1  H     9    48       P1  7948  2.00
      L1  H    15    42       P1  8028  1.75
      L1  H    21    49       P1  8028  2.00

> <Gold.PLP.Chemscore.Internal.Correction>
0.0755

> <Gold.Rescore>
     Score         DG    S(hbond)    S(metal)    S(lipo)     H(rot)  DE(clash)    DE(int)     intcor
     17.81     -19.64       3.18        0.00      81.25       2.33       0.09       1.73       ----

> <Gold.Chemscore.Fitness>
17.8149

> <Gold.Chemscore.DG>
-19.6369

> <Gold.Chemscore.ZeroCoef>
-5.4800

> <Gold.Chemscore.Hbond>
3.1803

> <Gold.Chemscore.Metal>
0.0000

> <Gold.Chemscore.Lipo>
81.2495

> <Gold.Chemscore.Internal_Hbond>
0.0000

> <Gold.Chemscore.DEClash>
0.0940

> <Gold.Chemscore.DEInternal>
1.7280

> <Gold.Chemscore.Rot>
2.3326

> <Gold.Chemscore.Internal.Correction>
   9.000000E+99

> <Gold.Chemscore.Hbonds>
donor molecule, donor type, donor heavy atom, donor atom, acceptor molecule, acceptor atom, score
      L1  H     4    30       P1  7948  0.94
      L1  H     9    48       P1  7948  0.99
      L1  H    15    42       P1  8028  0.81
      L1  H    21    49       P1  8028  0.31

> <Gold.Chemscore.Hbond.Weighted>
-10.6221

> <Gold.Chemscore.Metal.Weighted>
-0.0000

> <Gold.Chemscore.Lipo.Weighted>
-9.5062

> <Gold.Chemscore.Internal_Hbond.Weighted>
0.0000

> <Gold.Chemscore.DEClash.Weighted>
0.0940

> <Gold.Chemscore.DEInternal.Weighted>
1.7280

> <Gold.Chemscore.Rot.Weighted>
5.9714

> <Gold.Chemscore.Internal.Correction.Weighted>
   9.000000E+99

> <Gold.Protein.RotatedTorsions>
[ 6907 6896 6895 6894 ] final  -95.49 input  -60.11 | X-H torsion
[ 7974 7965 7964 7962 ] final  -90.25 input  175.53 | X-H torsion
[ 8008 7997 7996 7995 ] final  138.27 input   59.86 | X-H torsion
[ 10167 10162 10161 10158 ] final  -62.58 input  -65.29 | X-H torsion
[ 10718 10713 10712 10709 ] final  -15.26 input   66.30 | X-H torsion
[ 10763 10752 10751 10750 ] final  140.69 input  -60.55 | X-H torsion
[ 11005 11000 10999 10996 ] final  -61.18 input  -57.11 | X-H torsion

> <Gold.Protein.ActiveResidues>
 VAL166  LYS551  ARG553  GLY616  TRP617  ASP618  TYR619  PRO620  LYS621  CYS622 
 ASP623  PHE694  ASN695  SER759  ASP760  ASP761  ALA762  ILE779  LEU786  VAL792 
 PHE793  MET794  SER795  GLU796  ALA797  LYS798  CYS799  TRP800  GLU811  SER814 

> <Gold.Protein.RotatedAtoms>
  150.6965  134.1649  159.4190 H   0  0  0  0  0  0  0  0  0  0  0  0  # atno 6907 bound_to 6896
  151.9629  135.0112  160.0558 H   0  0  0  0  0  0  0  0  0  0  0  0  # atno 6908 bound_to 6896
  152.1911  133.4738  159.5045 H   0  0  0  0  0  0  0  0  0  0  0  0  # atno 6909 bound_to 6896
  145.4290  140.9555  143.2138 H   0  0  0  0  0  0  0  0  0  0  0  0  # atno 7974 bound_to 7965
  156.2998  140.2398  156.4046 H   0  0  0  0  0  0  0  0  0  0  0  0  # atno 8008 bound_to 7997
  154.8496  140.0424  157.1615 H   0  0  0  0  0  0  0  0  0  0  0  0  # atno 8009 bound_to 7997
  154.9013  140.2977  155.5320 H   0  0  0  0  0  0  0  0  0  0  0  0  # atno 8010 bound_to 7997
  140.5929  143.2345  151.6099 H   0  0  0  0  0  0  0  0  0  0  0  0  # atno 10167 bound_to 10162
  156.6042  130.4832  149.6227 H   0  0  0  0  0  0  0  0  0  0  0  0  # atno 10718 bound_to 10713
  153.9269  135.2994  155.3446 H   0  0  0  0  0  0  0  0  0  0  0  0  # atno 10763 bound_to 10752
  154.7547  135.4963  153.9355 H   0  0  0  0  0  0  0  0  0  0  0  0  # atno 10764 bound_to 10752
  153.1112  135.6759  153.9601 H   0  0  0  0  0  0  0  0  0  0  0  0  # atno 10765 bound_to 10752
  141.1315  133.6628  156.5336 H   0  0  0  0  0  0  0  0  0  0  0  0  # atno 11005 bound_to 11000
  144.8195  139.5817  143.6993 LP  0  0  0  0  0  0  0  0  0  0  0  0  # atno 17320 bound_to 7965
  146.2617  139.6425  142.9357 LP  0  0  0  0  0  0  0  0  0  0  0  0  # atno 17321 bound_to 7965
  139.5239  144.3119  152.0986 LP  0  0  0  0  0  0  0  0  0  0  0  0  # atno 17342 bound_to 10162
  140.2286  144.4392  150.6310 LP  0  0  0  0  0  0  0  0  0  0  0  0  # atno 17343 bound_to 10162
  156.2443  130.6870  151.1585 LP  0  0  0  0  0  0  0  0  0  0  0  0  # atno 17370 bound_to 10713
  157.7271  131.0641  150.5879 LP  0  0  0  0  0  0  0  0  0  0  0  0  # atno 17371 bound_to 10713
  140.4196  134.7199  157.4882 LP  0  0  0  0  0  0  0  0  0  0  0  0  # atno 17394 bound_to 11000
  140.0369  134.6323  155.9031 LP  0  0  0  0  0  0  0  0  0  0  0  0  # atno 17395 bound_to 11000

$$$$
