AV-unprocessed.smi:1205|AV-procd|sdf|5039|dock7
  -GOLD-   22720 4 63D 1   1.00000     0.00000
 Structure written by MMmdl.
 49 50  0  0  0  0  0  0  0  0  2 V2000
  146.9732  139.0691  152.9082 C   0  0  0  0  0  0  0  0  0  0  0  0
  147.8941  139.7561  153.8730 C   0  0  0  0  0  0  0  0  0  0  0  0
  147.7317  141.0342  154.4825 C   0  0  0  0  0  0  0  0  0  0  0  0
  148.8559  141.1447  155.2546 C   0  0  0  0  0  0  0  0  0  0  0  0
  149.2408  142.1681  156.0629 N   0  0  0  0  0  0  0  0  0  0  0  0
  149.4739  142.1504  157.3869 C   0  0  0  0  0  0  0  0  0  0  0  0
  149.3743  141.1652  158.1187 O   0  0  0  0  0  0  0  0  0  0  0  0
  149.8330  143.3626  157.8334 N   0  0  0  0  0  0  0  0  0  0  0  0
  150.1513  143.6789  159.2227 C   0  0  0  0  0  0  0  0  0  0  0  0
  151.5618  144.2928  159.3878 C   0  0  2  0  0  0  0  0  0  0  0  0
  152.3265  144.4038  158.0505 C   0  0  0  0  0  0  0  0  0  0  0  0
  152.3316  143.5696  160.4421 N   0  3  1  0  0  0  0  0  0  0  0  0
  151.7817  143.6774  161.8214 C   0  0  0  0  0  0  0  0  0  0  0  0
  152.7733  143.1070  162.8474 C   0  0  0  0  0  0  0  0  0  0  0  0
  153.1309  141.6526  162.5131 C   0  0  0  0  0  0  0  0  0  0  0  0
  153.6597  141.5478  161.0718 C   0  0  1  0  0  0  0  0  0  0  0  0
  153.9992  140.0972  160.7019 C   0  0  0  0  0  0  0  0  0  0  0  0
  152.6461  142.1602  160.0842 C   0  0  0  0  0  0  0  0  0  0  0  0
  149.6155  140.0064  155.0999 N   0  0  0  0  0  0  0  0  0  0  0  0
  150.8870  139.6575  155.7034 C   0  0  0  0  0  0  0  0  0  0  0  0
  149.0167  139.1506  154.2437 N   0  0  0  0  0  0  0  0  0  0  0  0
  146.0991  139.6839  152.6927 H   0  0  0  0  0  0  0  0  0  0  0  0
  146.6192  138.1199  153.3114 H   0  0  0  0  0  0  0  0  0  0  0  0
  147.4759  138.8649  151.9627 H   0  0  0  0  0  0  0  0  0  0  0  0
  146.9197  141.7344  154.3581 H   0  0  0  0  0  0  0  0  0  0  0  0
  149.3700  143.0551  155.5989 H   0  0  0  0  0  0  0  0  0  0  0  0
  149.8952  144.1182  157.1664 H   0  0  0  0  0  0  0  0  0  0  0  0
  149.3935  144.3543  159.6242 H   0  0  0  0  0  0  0  0  0  0  0  0
  150.0653  142.7521  159.7889 H   0  0  0  0  0  0  0  0  0  0  0  0
  151.4124  145.3092  159.7546 H   0  0  0  0  0  0  0  0  0  0  0  0
  151.8051  145.0601  157.3533 H   0  0  0  0  0  0  0  0  0  0  0  0
  152.4333  143.4351  157.5620 H   0  0  0  0  0  0  0  0  0  0  0  0
  153.3234  144.8213  158.1901 H   0  0  0  0  0  0  0  0  0  0  0  0
  151.5730  144.7171  162.0706 H   0  0  0  0  0  0  0  0  0  0  0  0
  150.8367  143.1372  161.8911 H   0  0  0  0  0  0  0  0  0  0  0  0
  153.6787  143.7153  162.8613 H   0  0  0  0  0  0  0  0  0  0  0  0
  152.3469  143.1636  163.8495 H   0  0  0  0  0  0  0  0  0  0  0  0
  153.8756  141.2822  163.2185 H   0  0  0  0  0  0  0  0  0  0  0  0
  152.2483  141.0221  162.6324 H   0  0  0  0  0  0  0  0  0  0  0  0
  154.5828  142.1262  161.0085 H   0  0  0  0  0  0  0  0  0  0  0  0
  153.1172  139.4579  160.7506 H   0  0  0  0  0  0  0  0  0  0  0  0
  154.7471  139.6840  161.3791 H   0  0  0  0  0  0  0  0  0  0  0  0
  154.4009  140.0336  159.6903 H   0  0  0  0  0  0  0  0  0  0  0  0
  151.7293  141.5692  160.0703 H   0  0  0  0  0  0  0  0  0  0  0  0
  153.0634  142.1210  159.0771 H   0  0  0  0  0  0  0  0  0  0  0  0
  150.8383  139.8143  156.7813 H   0  0  0  0  0  0  0  0  0  0  0  0
  151.6740  140.2859  155.2860 H   0  0  0  0  0  0  0  0  0  0  0  0
  151.1284  138.6112  155.5116 H   0  0  0  0  0  0  0  0  0  0  0  0
  153.2286  144.0335  160.4683 H   0  0  0  0  0  0  0  0  0  0  0  0
  1  2  1  0  0  0  0
  1 22  1  0  0  0  0
  1 23  1  0  0  0  0
  1 24  1  0  0  0  0
  2 21  2  0  0  0  0
  2  3  1  0  0  0  0
  3  4  2  0  0  0  0
  3 25  1  0  0  0  0
  4  5  1  0  0  0  0
  4 19  1  0  0  0  0
  5  6  1  0  0  0  0
  5 26  1  0  0  0  0
  6  7  2  0  0  0  0
  6  8  1  0  0  0  0
  8  9  1  0  0  0  0
  8 27  1  0  0  0  0
  9 10  1  0  0  0  0
  9 28  1  0  0  0  0
  9 29  1  0  0  0  0
 10 11  1  0  0  0  0
 10 12  1  0  0  0  0
 10 30  1  0  0  0  0
 11 31  1  0  0  0  0
 11 32  1  0  0  0  0
 11 33  1  0  0  0  0
 12 18  1  0  0  0  0
 12 13  1  0  0  0  0
 12 49  1  0  0  0  0
 13 14  1  0  0  0  0
 13 34  1  0  0  0  0
 13 35  1  0  0  0  0
 14 15  1  0  0  0  0
 14 36  1  0  0  0  0
 14 37  1  0  0  0  0
 15 16  1  0  0  0  0
 15 38  1  0  0  0  0
 15 39  1  0  0  0  0
 16 17  1  0  0  0  0
 16 18  1  0  0  0  0
 16 40  1  0  0  0  0
 17 41  1  0  0  0  0
 17 42  1  0  0  0  0
 17 43  1  0  0  0  0
 18 44  1  0  0  0  0
 18 45  1  0  0  0  0
 19 20  1  0  0  0  0
 19 21  1  0  0  0  0
 20 46  1  0  0  0  0
 20 47  1  0  0  0  0
 20 48  1  0  0  0  0
M  CHG  1  12   1
M  END
> <s_m_source_file>
AV-unprocessed.smi

> <i_m_source_file_index>
1205

> <i_lp_mmshare_version>
43012

> <i_f3d_flags>
0

> <s_epik_input>
W0NIM11jMVtjSF1jKG4objEpW0NIM10pW05IXUMoPU8pW05IXVtDSDJdW0NASF0oW0NIM10pTjJbQ0gyXVtDSDJdW0NIMl1bQ0BASF0oW0NIM10pW0NIMl0y

> <s_epik_cmdline>
J2VwaWtfcHl0aG9uJywgJy1waCcsICc3LjAnLCAnLXRuJywgJzgnLCAnLW1hJywgJzIwMCcsICctbWV0YWxfYmluZGluZycsICctaW1hZScsICc8aW5maWxlLm1hZT4nLCAnLW9tYWUnLCAnPG91dGZpbGUubWFlPic=

> <r_lp_tautomer_probability>
1

> <r_epik_Ionization_Penalty>
0.0020309

> <r_epik_Ionization_Penalty_Charging>
0.00195276

> <r_epik_Ionization_Penalty_Neutral>
7.81448e-05

> <r_epik_State_Penalty>
0.00133177

> <r_epik_Charging_Adjusted_Penalty>
0.00328452

> <i_epik_Tot_Q>
1

> <i_epik_Tot_abs_Q>
1

> <r_epik_Metal_State_Penalty>
-0

> <b_epik_Metal_Only>
0

> <s_lp_Force_Field>
OPLS_2005

> <r_lp_Energy>
21.646

> <b_lp_Chiralities_Consistent>
1

> <s_lp_Variant>
AV-unprocessed.smi:1205-1

> <Gold.Version>
5.8.1

> <Gold.Id.Protein>
6NUR|6NUR_protein|mol2

> <Gold.PLP.Fitness>
49.8297

> <Gold.PLP.PLP>
-48.5533

> <Gold.PLP.part.hbond>
-2.0000

> <Gold.PLP.part.metal>
0.0000

> <Gold.PLP.part.buried>
-4.6697

> <Gold.PLP.part.nonpolar>
-42.2008

> <Gold.PLP.part.repulsive>
0.9249

> <Gold.PLP.ligand.clash>
1.4152

> <Gold.PLP.ligand.torsion>
1.3520

> <Gold.PLP.Chemscore.Hbond>
1.7600

> <Gold.PLP.Chemscore.CHOScore>
0.0000

> <Gold.PLP.Chemscore.Metal>
0.0000

> <Gold.Chemscore.Hbonds>
donor molecule, donor type, donor heavy atom, donor atom, acceptor molecule, acceptor atom, score
      L1  H     5    26       P1  8028  0.85
      L1  H     8    27       P1  8028  0.75

> <Gold.PLP.Chemscore.Internal.Correction>
0.1156

> <Gold.Rescore>
     Score         DG    S(hbond)    S(metal)    S(lipo)     H(rot)  DE(clash)    DE(int)     intcor
     19.41     -22.06       1.65        0.00     126.70       1.47       1.28       1.37       ----

> <Gold.Chemscore.Fitness>
19.4114

> <Gold.Chemscore.DG>
-22.0562

> <Gold.Chemscore.ZeroCoef>
-5.4800

> <Gold.Chemscore.Hbond>
1.6482

> <Gold.Chemscore.Metal>
0.0000

> <Gold.Chemscore.Lipo>
126.6981

> <Gold.Chemscore.Internal_Hbond>
0.0000

> <Gold.Chemscore.DEClash>
1.2768

> <Gold.Chemscore.DEInternal>
1.3680

> <Gold.Chemscore.Rot>
1.4658

> <Gold.Chemscore.Internal.Correction>
   9.000000E+99

> <Gold.Chemscore.Hbonds>
donor molecule, donor type, donor heavy atom, donor atom, acceptor molecule, acceptor atom, score
      L1  H     5    26       P1  8028  0.85
      L1  H     8    27       P1  8028  0.55

> <Gold.Chemscore.Hbond.Weighted>
-5.5051

> <Gold.Chemscore.Metal.Weighted>
-0.0000

> <Gold.Chemscore.Lipo.Weighted>
-14.8237

> <Gold.Chemscore.Internal_Hbond.Weighted>
0.0000

> <Gold.Chemscore.DEClash.Weighted>
1.2768

> <Gold.Chemscore.DEInternal.Weighted>
1.3680

> <Gold.Chemscore.Rot.Weighted>
3.7526

> <Gold.Chemscore.Internal.Correction.Weighted>
   9.000000E+99

> <Gold.Protein.RotatedTorsions>
[ 6907 6896 6895 6894 ] final  -32.71 input  -60.11 | X-H torsion
[ 7974 7965 7964 7962 ] final   -9.37 input  175.53 | X-H torsion
[ 8008 7997 7996 7995 ] final  -11.12 input   59.86 | X-H torsion
[ 10167 10162 10161 10158 ] final  -82.33 input  -65.29 | X-H torsion
[ 10718 10713 10712 10709 ] final -157.12 input   66.30 | X-H torsion
[ 10763 10752 10751 10750 ] final  -59.26 input  -60.55 | X-H torsion
[ 11005 11000 10999 10996 ] final    3.02 input  -57.11 | X-H torsion

> <Gold.Protein.ActiveResidues>
 VAL166  LYS551  ARG553  GLY616  TRP617  ASP618  TYR619  PRO620  LYS621  CYS622 
 ASP623  PHE694  ASN695  SER759  ASP760  ASP761  ALA762  ILE779  LEU786  VAL792 
 PHE793  MET794  SER795  GLU796  ALA797  LYS798  CYS799  TRP800  GLU811  SER814 

> <Gold.Protein.RotatedAtoms>
  151.0752  134.9824  159.8328 H   0  0  0  0  0  0  0  0  0  0  0  0  # atno 6907 bound_to 6896
  152.5413  134.2249  159.8812 H   0  0  0  0  0  0  0  0  0  0  0  0  # atno 6908 bound_to 6896
  151.2276  133.4424  159.2636 H   0  0  0  0  0  0  0  0  0  0  0  0  # atno 6909 bound_to 6896
  146.2254  140.2606  142.8351 H   0  0  0  0  0  0  0  0  0  0  0  0  # atno 7974 bound_to 7965
  154.5493  140.2311  155.8511 H   0  0  0  0  0  0  0  0  0  0  0  0  # atno 8008 bound_to 7997
  156.1932  140.3072  155.9335 H   0  0  0  0  0  0  0  0  0  0  0  0  # atno 8009 bound_to 7997
  155.3102  140.0435  157.3025 H   0  0  0  0  0  0  0  0  0  0  0  0  # atno 8010 bound_to 7997
  140.4329  143.2542  151.8733 H   0  0  0  0  0  0  0  0  0  0  0  0  # atno 10167 bound_to 10162
  156.5359  130.8541  151.2732 H   0  0  0  0  0  0  0  0  0  0  0  0  # atno 10718 bound_to 10713
  154.2510  135.6326  153.5240 H   0  0  0  0  0  0  0  0  0  0  0  0  # atno 10763 bound_to 10752
  152.9912  135.5565  154.5807 H   0  0  0  0  0  0  0  0  0  0  0  0  # atno 10764 bound_to 10752
  154.5335  135.2890  155.1134 H   0  0  0  0  0  0  0  0  0  0  0  0  # atno 10765 bound_to 10752
  140.5978  133.9864  155.8118 H   0  0  0  0  0  0  0  0  0  0  0  0  # atno 11005 bound_to 11000
  144.9342  140.8009  143.5670 LP  0  0  0  0  0  0  0  0  0  0  0  0  # atno 17320 bound_to 7965
  145.2552  139.2015  143.4921 LP  0  0  0  0  0  0  0  0  0  0  0  0  # atno 17321 bound_to 7965
  139.4785  144.5314  151.8661 LP  0  0  0  0  0  0  0  0  0  0  0  0  # atno 17342 bound_to 10162
  140.4406  144.1991  150.5891 LP  0  0  0  0  0  0  0  0  0  0  0  0  # atno 17343 bound_to 10162
  157.7414  130.9869  150.2441 LP  0  0  0  0  0  0  0  0  0  0  0  0  # atno 17370 bound_to 10713
  156.3017  130.3759  149.7744 LP  0  0  0  0  0  0  0  0  0  0  0  0  # atno 17371 bound_to 10713
  141.0892  133.9943  157.3264 LP  0  0  0  0  0  0  0  0  0  0  0  0  # atno 17394 bound_to 11000
  139.9246  135.0201  156.8187 LP  0  0  0  0  0  0  0  0  0  0  0  0  # atno 17395 bound_to 11000

$$$$
