AV-unprocessed.smi:1032|AV-procd|sdf|4482|dock7
  -GOLD-   22720 2463D 1   1.00000     0.00000
 Structure written by MMmdl.
 46 47  0  0  0  0  0  0  0  0  2 V2000
  151.0705  142.7842  158.8259 C   0  0  0  0  0  0  0  0  0  0  0  0
  150.2832  141.9716  157.7882 C   0  0  2  0  0  0  0  0  0  0  0  0
  150.8483  142.1623  156.3705 C   0  0  0  0  0  0  0  0  0  0  0  0
  150.0318  141.3770  155.3304 C   0  0  0  0  0  0  0  0  0  0  0  0
  148.5970  141.7655  155.3729 N   0  3  1  0  0  0  0  0  0  0  0  0
  147.7847  141.1400  154.2976 C   0  0  0  0  0  0  0  0  0  0  0  0
  147.8817  139.6006  154.3036 C   0  0  2  0  0  0  0  0  0  0  0  0
  148.9332  139.2343  153.4320 O   0  0  0  0  0  0  0  0  0  0  0  0
  146.5820  138.9494  153.7866 C   0  0  0  0  0  0  0  0  0  0  0  0
  146.8398  137.7242  153.0354 N   0  0  0  0  0  0  0  0  0  0  0  0
  145.9044  136.8358  152.6681 C   0  0  0  0  0  0  0  0  0  0  0  0
  144.7136  136.9541  152.9572 O   0  0  0  0  0  0  0  0  0  0  0  0
  146.4450  135.8171  151.9769 N   0  0  0  0  0  0  0  0  0  0  0  0
  145.8026  134.6842  151.4060 C   0  0  0  0  0  0  0  0  0  0  0  0
  146.6204  133.6280  150.9534 C   0  0  0  0  0  0  0  0  0  0  0  0
  146.0122  132.4992  150.3686 C   0  0  0  0  0  0  0  0  0  0  0  0
  144.6780  132.3750  150.2088 N   0  0  0  0  0  0  0  0  0  0  0  0
  143.8970  133.3920  150.6301 C   0  0  0  0  0  0  0  0  0  0  0  0
  144.4027  134.5639  151.2282 C   0  0  0  0  0  0  0  0  0  0  0  0
  148.0163  141.5469  156.7225 C   0  0  0  0  0  0  0  0  0  0  0  0
  148.7890  142.3369  157.7924 C   0  0  0  0  0  0  0  0  0  0  0  0
  151.0131  143.8536  158.6204 H   0  0  0  0  0  0  0  0  0  0  0  0
  152.1240  142.5025  158.8275 H   0  0  0  0  0  0  0  0  0  0  0  0
  150.6840  142.6176  159.8318 H   0  0  0  0  0  0  0  0  0  0  0  0
  150.3766  140.9171  158.0525 H   0  0  0  0  0  0  0  0  0  0  0  0
  150.8453  143.2217  156.1098 H   0  0  0  0  0  0  0  0  0  0  0  0
  151.8894  141.8395  156.3377 H   0  0  0  0  0  0  0  0  0  0  0  0
  150.4495  141.5642  154.3420 H   0  0  0  0  0  0  0  0  0  0  0  0
  150.1258  140.3053  155.5121 H   0  0  0  0  0  0  0  0  0  0  0  0
  146.7473  141.4609  154.4038 H   0  0  0  0  0  0  0  0  0  0  0  0
  148.1139  141.5031  153.3224 H   0  0  0  0  0  0  0  0  0  0  0  0
  148.1074  139.2402  155.3064 H   0  0  0  0  0  0  0  0  0  0  0  0
  149.3118  140.0223  153.0718 H   0  0  0  0  0  0  0  0  0  0  0  0
  145.9290  138.7021  154.6255 H   0  0  0  0  0  0  0  0  0  0  0  0
  146.0180  139.6445  153.1633 H   0  0  0  0  0  0  0  0  0  0  0  0
  147.7959  137.5509  152.7605 H   0  0  0  0  0  0  0  0  0  0  0  0
  147.4500  135.8311  151.8840 H   0  0  0  0  0  0  0  0  0  0  0  0
  147.6951  133.6743  151.0537 H   0  0  0  0  0  0  0  0  0  0  0  0
  146.6153  131.6750  150.0174 H   0  0  0  0  0  0  0  0  0  0  0  0
  142.8341  133.2713  150.4801 H   0  0  0  0  0  0  0  0  0  0  0  0
  143.7130  135.3399  151.5209 H   0  0  0  0  0  0  0  0  0  0  0  0
  146.9727  141.8640  156.7318 H   0  0  0  0  0  0  0  0  0  0  0  0
  148.0262  140.4813  156.9577 H   0  0  0  0  0  0  0  0  0  0  0  0
  148.3592  142.1404  158.7752 H   0  0  0  0  0  0  0  0  0  0  0  0
  148.6686  143.4061  157.6113 H   0  0  0  0  0  0  0  0  0  0  0  0
  148.5542  142.7615  155.2087 H   0  0  0  0  0  0  0  0  0  0  0  0
  1  2  1  0  0  0  0
  1 22  1  0  0  0  0
  1 23  1  0  0  0  0
  1 24  1  0  0  0  0
  2 21  1  0  0  0  0
  2  3  1  0  0  0  0
  2 25  1  0  0  0  0
  3  4  1  0  0  0  0
  3 26  1  0  0  0  0
  3 27  1  0  0  0  0
  4  5  1  0  0  0  0
  4 28  1  0  0  0  0
  4 29  1  0  0  0  0
  5  6  1  0  0  0  0
  5 20  1  0  0  0  0
  5 46  1  0  0  0  0
  6  7  1  0  0  0  0
  6 30  1  0  0  0  0
  6 31  1  0  0  0  0
  7  8  1  0  0  0  0
  7  9  1  0  0  0  0
  7 32  1  0  0  0  0
  8 33  1  0  0  0  0
  9 10  1  0  0  0  0
  9 34  1  0  0  0  0
  9 35  1  0  0  0  0
 10 11  1  0  0  0  0
 10 36  1  0  0  0  0
 11 12  2  0  0  0  0
 11 13  1  0  0  0  0
 13 14  1  0  0  0  0
 13 37  1  0  0  0  0
 14 19  1  0  0  0  0
 14 15  2  0  0  0  0
 15 16  1  0  0  0  0
 15 38  1  0  0  0  0
 16 17  2  0  0  0  0
 16 39  1  0  0  0  0
 17 18  1  0  0  0  0
 18 19  2  0  0  0  0
 18 40  1  0  0  0  0
 19 41  1  0  0  0  0
 20 21  1  0  0  0  0
 20 42  1  0  0  0  0
 20 43  1  0  0  0  0
 21 44  1  0  0  0  0
 21 45  1  0  0  0  0
M  CHG  1   5   1
M  END
> <s_m_source_file>
AV-unprocessed.smi

> <i_m_source_file_index>
1032

> <i_lp_mmshare_version>
43012

> <i_f3d_flags>
0

> <s_epik_input>
W0NIM11bQ0hdMVtDSDJdW0NIMl1OKFtDSDJdW0NIMl0xKVtDSDJdW0NASF0oW09IXSlbQ0gyXVtOSF1DKD1PKVtOSF1jMltjSF1bY0hdbltjSF1bY0hdMg==

> <s_epik_cmdline>
J2VwaWtfcHl0aG9uJywgJy1waCcsICc3LjAnLCAnLXRuJywgJzgnLCAnLW1hJywgJzIwMCcsICctbWV0YWxfYmluZGluZycsICctaW1hZScsICc8aW5maWxlLm1hZT4nLCAnLW9tYWUnLCAnPG91dGZpbGUubWFlPic=

> <r_epik_Ionization_Penalty>
0.11743

> <r_epik_Ionization_Penalty_Charging>
0.00147689

> <r_epik_Ionization_Penalty_Neutral>
0.115954

> <r_epik_State_Penalty>
0.105552

> <r_epik_Charging_Adjusted_Penalty>
0.107029

> <i_epik_Tot_Q>
1

> <i_epik_Tot_abs_Q>
1

> <r_epik_Metal_State_Penalty>
0.0881315

> <b_epik_Metal_Only>
0

> <s_lp_Force_Field>
OPLS_2005

> <r_lp_Energy>
24.9442

> <b_lp_Chiralities_Consistent>
1

> <s_lp_Variant>
AV-unprocessed.smi:1032-1

> <Gold.Version>
5.8.1

> <Gold.Id.Protein>
6NUR|6NUR_protein|mol2

> <Gold.PLP.Fitness>
50.3613

> <Gold.PLP.PLP>
-33.5652

> <Gold.PLP.part.hbond>
-4.0000

> <Gold.PLP.part.metal>
0.0000

> <Gold.PLP.part.buried>
-6.0997

> <Gold.PLP.part.nonpolar>
-24.2054

> <Gold.PLP.part.repulsive>
0.5065

> <Gold.PLP.ligand.clash>
0.0000

> <Gold.PLP.ligand.torsion>
0.9890

> <Gold.PLP.Chemscore.Hbond>
4.2480

> <Gold.PLP.Chemscore.CHOScore>
2.0000

> <Gold.PLP.Chemscore.Metal>
0.0000

> <Gold.Chemscore.Hbonds>
donor molecule, donor type, donor heavy atom, donor atom, acceptor molecule, acceptor atom, score
      L1  H     5    46       P1  8028  2.00
      L1  H     8    33       P1  7957  0.34
      L1  H    10    36       P1  7948  0.86
      L1  H    13    37       P1  7948  0.99
      L1  C    16    39       P1 10747  1.00
      L1  C    18    40       P1 10186  1.00

> <Gold.PLP.Chemscore.Internal.Correction>
0.0302

> <Gold.Rescore>
     Score         DG    S(hbond)    S(metal)    S(lipo)     H(rot)  DE(clash)    DE(int)     intcor
     17.94     -20.15       3.18        0.00      84.80       2.29       0.05       2.16       ----

> <Gold.Chemscore.Fitness>
17.9400

> <Gold.Chemscore.DG>
-20.1529

> <Gold.Chemscore.ZeroCoef>
-5.4800

> <Gold.Chemscore.Hbond>
3.1752

> <Gold.Chemscore.Metal>
0.0000

> <Gold.Chemscore.Lipo>
84.7979

> <Gold.Chemscore.Internal_Hbond>
0.0000

> <Gold.Chemscore.DEClash>
0.0480

> <Gold.Chemscore.DEInternal>
2.1649

> <Gold.Chemscore.Rot>
2.2865

> <Gold.Chemscore.Internal.Correction>
   9.000000E+99

> <Gold.Chemscore.Hbonds>
donor molecule, donor type, donor heavy atom, donor atom, acceptor molecule, acceptor atom, score
      L1  H     5    46       P1  8028  0.93
      L1  H     8    33       P1  7957  0.34
      L1  H    10    36       P1  7948  0.84
      L1  H    13    37       P1  7948  0.92

> <Gold.Chemscore.Hbond.Weighted>
-10.6051

> <Gold.Chemscore.Metal.Weighted>
-0.0000

> <Gold.Chemscore.Lipo.Weighted>
-9.9214

> <Gold.Chemscore.Internal_Hbond.Weighted>
0.0000

> <Gold.Chemscore.DEClash.Weighted>
0.0480

> <Gold.Chemscore.DEInternal.Weighted>
2.1649

> <Gold.Chemscore.Rot.Weighted>
5.8536

> <Gold.Chemscore.Internal.Correction.Weighted>
   9.000000E+99

> <Gold.Protein.RotatedTorsions>
[ 6907 6896 6895 6894 ] final  166.42 input  -60.11 | X-H torsion
[ 7974 7965 7964 7962 ] final   20.72 input  175.53 | X-H torsion
[ 8008 7997 7996 7995 ] final   14.07 input   59.86 | X-H torsion
[ 10167 10162 10161 10158 ] final  144.40 input  -65.29 | X-H torsion
[ 10718 10713 10712 10709 ] final  -69.67 input   66.30 | X-H torsion
[ 10763 10752 10751 10750 ] final   19.98 input  -60.55 | X-H torsion
[ 11005 11000 10999 10996 ] final -173.56 input  -57.11 | X-H torsion

> <Gold.Protein.ActiveResidues>
 VAL166  LYS551  ARG553  GLY616  TRP617  ASP618  TYR619  PRO620  LYS621  CYS622 
 ASP623  PHE694  ASN695  SER759  ASP760  ASP761  ALA762  ILE779  LEU786  VAL792 
 PHE793  MET794  SER795  GLU796  ALA797  LYS798  CYS799  TRP800  GLU811  SER814 

> <Gold.Protein.RotatedAtoms>
  151.8792  133.3492  159.3760 H   0  0  0  0  0  0  0  0  0  0  0  0  # atno 6907 bound_to 6896
  150.7132  134.5035  159.5582 H   0  0  0  0  0  0  0  0  0  0  0  0  # atno 6908 bound_to 6896
  152.2583  134.8061  160.0486 H   0  0  0  0  0  0  0  0  0  0  0  0  # atno 6909 bound_to 6896
  146.2100  139.8129  142.8696 H   0  0  0  0  0  0  0  0  0  0  0  0  # atno 7974 bound_to 7965
  154.8433  140.2918  155.5645 H   0  0  0  0  0  0  0  0  0  0  0  0  # atno 8008 bound_to 7997
  156.3013  140.2510  156.3311 H   0  0  0  0  0  0  0  0  0  0  0  0  # atno 8009 bound_to 7997
  154.9101  140.0389  157.1930 H   0  0  0  0  0  0  0  0  0  0  0  0  # atno 8010 bound_to 7997
  139.4948  144.5974  151.6553 H   0  0  0  0  0  0  0  0  0  0  0  0  # atno 10167 bound_to 10162
  156.0444  130.4317  150.2182 H   0  0  0  0  0  0  0  0  0  0  0  0  # atno 10718 bound_to 10713
  153.1116  135.6698  153.9491 H   0  0  0  0  0  0  0  0  0  0  0  0  # atno 10763 bound_to 10752
  153.9033  135.3033  155.3450 H   0  0  0  0  0  0  0  0  0  0  0  0  # atno 10764 bound_to 10752
  154.7535  135.5023  153.9409 H   0  0  0  0  0  0  0  0  0  0  0  0  # atno 10765 bound_to 10752
  140.4844  134.6044  157.4931 H   0  0  0  0  0  0  0  0  0  0  0  0  # atno 11005 bound_to 11000
  145.3177  141.0236  143.3518 LP  0  0  0  0  0  0  0  0  0  0  0  0  # atno 17320 bound_to 7965
  144.8889  139.4801  143.6687 LP  0  0  0  0  0  0  0  0  0  0  0  0  # atno 17321 bound_to 7965
  140.5616  144.0260  150.6172 LP  0  0  0  0  0  0  0  0  0  0  0  0  # atno 17342 bound_to 10162
  140.3347  143.3056  152.0650 LP  0  0  0  0  0  0  0  0  0  0  0  0  # atno 17343 bound_to 10162
  157.0274  130.9997  151.3322 LP  0  0  0  0  0  0  0  0  0  0  0  0  # atno 17370 bound_to 10713
  157.5302  130.8053  149.7908 LP  0  0  0  0  0  0  0  0  0  0  0  0  # atno 17371 bound_to 10713
  139.9807  134.7142  155.9865 LP  0  0  0  0  0  0  0  0  0  0  0  0  # atno 17394 bound_to 11000
  141.1515  133.6548  156.4028 LP  0  0  0  0  0  0  0  0  0  0  0  0  # atno 17395 bound_to 11000

$$$$
