AV-unprocessed.smi:2397|AV-procd|sdf|9494|dock7
  -GOLD-   2272013123D 1   1.00000     0.00000
 Structure written by MMmdl.
 36 37  0  0  0  0  0  0  0  0  1 V2000
  153.7281  140.1453  160.5745 C   0  0  0  0  0  0  0  0  0  0  0  0
  153.2589  141.5559  160.1855 C   0  0  0  0  0  0  0  0  0  0  0  0
  152.5848  142.3051  161.3457 C   0  0  0  0  0  0  0  0  0  0  0  0
  152.3878  141.5417  158.9361 C   0  0  0  0  0  0  0  0  0  0  0  0
  151.8552  142.7064  158.5542 N   0  0  0  0  0  0  0  0  0  0  0  0
  151.0779  142.6892  157.4509 C   0  0  0  0  0  0  0  0  0  0  0  0
  150.8314  141.5015  156.7336 C   0  0  0  0  0  0  0  0  0  0  0  0
  151.4390  140.3244  157.2247 C   0  0  0  0  0  0  0  0  0  0  0  0
  151.2422  139.0970  156.5559 N   0  0  0  0  0  0  0  0  0  0  0  0
  151.7562  139.1758  155.1890 C   0  0  0  0  0  0  0  0  0  0  0  0
  151.4173  137.9052  154.3989 C   0  0  0  0  0  0  0  0  0  0  0  0
  151.9353  136.7802  155.0928 O   0  0  0  0  0  0  0  0  0  0  0  0
  151.3215  136.6292  156.3662 C   0  0  0  0  0  0  0  0  0  0  0  0
  151.6049  137.8555  157.2675 C   0  0  2  0  0  0  0  0  0  0  0  0
  150.9005  137.6081  158.6196 C   0  0  0  0  0  0  0  0  0  0  0  0
  149.6014  137.9063  158.7290 N   0  0  0  0  0  0  0  0  0  0  0  0
  151.5383  137.1561  159.5682 O   0  0  0  0  0  0  0  0  0  0  0  0
  152.2253  140.3629  158.3273 N   0  0  0  0  0  0  0  0  0  0  0  0
  154.2643  139.6702  159.7525 H   0  0  0  0  0  0  0  0  0  0  0  0
  152.8862  139.5045  160.8385 H   0  0  0  0  0  0  0  0  0  0  0  0
  154.4005  140.1783  161.4321 H   0  0  0  0  0  0  0  0  0  0  0  0
  154.1609  142.1205  159.9426 H   0  0  0  0  0  0  0  0  0  0  0  0
  152.3311  143.3256  161.0579 H   0  0  0  0  0  0  0  0  0  0  0  0
  153.2438  142.3600  162.2125 H   0  0  0  0  0  0  0  0  0  0  0  0
  151.6653  141.8099  161.6599 H   0  0  0  0  0  0  0  0  0  0  0  0
  150.6470  143.6288  157.1386 H   0  0  0  0  0  0  0  0  0  0  0  0
  150.2031  141.4966  155.8551 H   0  0  0  0  0  0  0  0  0  0  0  0
  151.3410  140.0376  154.6652 H   0  0  0  0  0  0  0  0  0  0  0  0
  152.8386  139.3137  155.2186 H   0  0  0  0  0  0  0  0  0  0  0  0
  150.3400  137.8043  154.2566 H   0  0  0  0  0  0  0  0  0  0  0  0
  151.8675  137.9477  153.4071 H   0  0  0  0  0  0  0  0  0  0  0  0
  150.2486  136.4734  156.2364 H   0  0  0  0  0  0  0  0  0  0  0  0
  151.7156  135.7208  156.8238 H   0  0  0  0  0  0  0  0  0  0  0  0
  152.6797  137.8813  157.4572 H   0  0  0  0  0  0  0  0  0  0  0  0
  149.1221  137.7487  159.6036 H   0  0  0  0  0  0  0  0  0  0  0  0
  149.1049  138.2847  157.9353 H   0  0  0  0  0  0  0  0  0  0  0  0
  1  2  1  0  0  0  0
  1 19  1  0  0  0  0
  1 20  1  0  0  0  0
  1 21  1  0  0  0  0
  2  3  1  0  0  0  0
  2  4  1  0  0  0  0
  2 22  1  0  0  0  0
  3 23  1  0  0  0  0
  3 24  1  0  0  0  0
  3 25  1  0  0  0  0
  4 18  1  0  0  0  0
  4  5  2  0  0  0  0
  5  6  1  0  0  0  0
  6  7  2  0  0  0  0
  6 26  1  0  0  0  0
  7  8  1  0  0  0  0
  7 27  1  0  0  0  0
  8  9  1  0  0  0  0
  8 18  2  0  0  0  0
  9 14  1  0  0  0  0
  9 10  1  0  0  0  0
 10 11  1  0  0  0  0
 10 28  1  0  0  0  0
 10 29  1  0  0  0  0
 11 12  1  0  0  0  0
 11 30  1  0  0  0  0
 11 31  1  0  0  0  0
 12 13  1  0  0  0  0
 13 14  1  0  0  0  0
 13 32  1  0  0  0  0
 13 33  1  0  0  0  0
 14 15  1  0  0  0  0
 14 34  1  0  0  0  0
 15 16  1  0  0  0  0
 15 17  2  0  0  0  0
 16 35  1  0  0  0  0
 16 36  1  0  0  0  0
M  END
> <s_m_source_file>
AV-unprocessed.smi

> <i_m_source_file_index>
2397

> <i_lp_mmshare_version>
43012

> <i_f3d_flags>
0

> <s_epik_input>
W0NIM11bQ0hdKFtDSDNdKWMxbltjSF1bY0hdYyhuMSlOMltDSDJdW0NIMl1PW0NIMl1bQ0BIXTJDKD1PKVtOSDJd

> <s_epik_cmdline>
J2VwaWtfcHl0aG9uJywgJy1waCcsICc3LjAnLCAnLXRuJywgJzgnLCAnLW1hJywgJzIwMCcsICctbWV0YWxfYmluZGluZycsICctaW1hZScsICc8aW5maWxlLm1hZT4nLCAnLW9tYWUnLCAnPG91dGZpbGUubWFlPic=

> <r_lp_tautomer_probability>
1

> <r_epik_Ionization_Penalty>
0.0323151

> <r_epik_Ionization_Penalty_Charging>
0

> <r_epik_Ionization_Penalty_Neutral>
0.0323151

> <r_epik_State_Penalty>
0.0267324

> <r_epik_Charging_Adjusted_Penalty>
0.0267324

> <i_epik_Tot_Q>
0

> <i_epik_Tot_abs_Q>
0

> <r_epik_Metal_State_Penalty>
0.0253461

> <b_epik_Metal_Only>
0

> <s_lp_Force_Field>
OPLS_2005

> <r_lp_Energy>
6.15108

> <b_lp_Chiralities_Consistent>
1

> <s_lp_Variant>
AV-unprocessed.smi:2397-2

> <Gold.Version>
5.8.1

> <Gold.Id.Protein>
6NUR|6NUR_protein|mol2

> <Gold.PLP.Fitness>
39.3183

> <Gold.PLP.PLP>
-31.9528

> <Gold.PLP.part.hbond>
-2.0000

> <Gold.PLP.part.metal>
0.0000

> <Gold.PLP.part.buried>
-6.2049

> <Gold.PLP.part.nonpolar>
-25.6227

> <Gold.PLP.part.repulsive>
0.3176

> <Gold.PLP.ligand.clash>
0.0000

> <Gold.PLP.ligand.torsion>
0.9362

> <Gold.PLP.Chemscore.Hbond>
1.9913

> <Gold.PLP.Chemscore.CHOScore>
1.0000

> <Gold.PLP.Chemscore.Metal>
0.0000

> <Gold.Chemscore.Hbonds>
donor molecule, donor type, donor heavy atom, donor atom, acceptor molecule, acceptor atom, score
      P1  H  6896  6908       L1    17  1.00
      P1  H 10752 10765       L1    12  1.00
      L1  C     6    26       P1  8028  1.00

> <Gold.PLP.Chemscore.Internal.Correction>
0.2641

> <Gold.Rescore>
     Score         DG    S(hbond)    S(metal)    S(lipo)     H(rot)  DE(clash)    DE(int)     intcor
     15.16     -15.90       1.98        0.00      70.84       1.74       0.02       0.73       ----

> <Gold.Chemscore.Fitness>
15.1594

> <Gold.Chemscore.DG>
-15.9038

> <Gold.Chemscore.ZeroCoef>
-5.4800

> <Gold.Chemscore.Hbond>
1.9750

> <Gold.Chemscore.Metal>
0.0000

> <Gold.Chemscore.Lipo>
70.8390

> <Gold.Chemscore.Internal_Hbond>
0.0000

> <Gold.Chemscore.DEClash>
0.0163

> <Gold.Chemscore.DEInternal>
0.7280

> <Gold.Chemscore.Rot>
1.7426

> <Gold.Chemscore.Internal.Correction>
   9.000000E+99

> <Gold.Chemscore.Hbonds>
donor molecule, donor type, donor heavy atom, donor atom, acceptor molecule, acceptor atom, score
      P1  H  6896  6908       L1    17  0.92
      P1  H 10752 10765       L1    12  0.91

> <Gold.Chemscore.Hbond.Weighted>
-6.5966

> <Gold.Chemscore.Metal.Weighted>
-0.0000

> <Gold.Chemscore.Lipo.Weighted>
-8.2882

> <Gold.Chemscore.Internal_Hbond.Weighted>
0.0000

> <Gold.Chemscore.DEClash.Weighted>
0.0163

> <Gold.Chemscore.DEInternal.Weighted>
0.7280

> <Gold.Chemscore.Rot.Weighted>
4.4610

> <Gold.Chemscore.Internal.Correction.Weighted>
   9.000000E+99

> <Gold.Protein.RotatedTorsions>
[ 6907 6896 6895 6894 ] final -119.31 input  -60.11 | X-H torsion
[ 7974 7965 7964 7962 ] final  -77.22 input  175.53 | X-H torsion
[ 8008 7997 7996 7995 ] final  -49.09 input   59.86 | X-H torsion
[ 10167 10162 10161 10158 ] final   68.19 input  -65.29 | X-H torsion
[ 10718 10713 10712 10709 ] final   34.80 input   66.30 | X-H torsion
[ 10763 10752 10751 10750 ] final -176.17 input  -60.55 | X-H torsion
[ 11005 11000 10999 10996 ] final -114.32 input  -57.11 | X-H torsion

> <Gold.Protein.ActiveResidues>
 VAL166  LYS551  ARG553  GLY616  TRP617  ASP618  TYR619  PRO620  LYS621  CYS622 
 ASP623  PHE694  ASN695  SER759  ASP760  ASP761  ALA762  ILE779  LEU786  VAL792 
 PHE793  MET794  SER795  GLU796  ALA797  LYS798  CYS799  TRP800  GLU811  SER814 

> <Gold.Protein.RotatedAtoms>
  150.8294  133.8117  159.3104 H   0  0  0  0  0  0  0  0  0  0  0  0  # atno 6907 bound_to 6896
  151.5851  135.1055  160.0036 H   0  0  0  0  0  0  0  0  0  0  0  0  # atno 6908 bound_to 6896
  152.4375  133.7346  159.6663 H   0  0  0  0  0  0  0  0  0  0  0  0  # atno 6909 bound_to 6896
  145.6026  140.9405  143.1232 H   0  0  0  0  0  0  0  0  0  0  0  0  # atno 7974 bound_to 7965
  154.4038  140.1305  156.4446 H   0  0  0  0  0  0  0  0  0  0  0  0  # atno 8008 bound_to 7997
  155.7425  140.3489  155.5091 H   0  0  0  0  0  0  0  0  0  0  0  0  # atno 8009 bound_to 7997
  155.9025  140.1022  157.1329 H   0  0  0  0  0  0  0  0  0  0  0  0  # atno 8010 bound_to 7997
  140.0813  144.5068  150.7160 H   0  0  0  0  0  0  0  0  0  0  0  0  # atno 10167 bound_to 10162
  157.3148  130.7417  149.6747 H   0  0  0  0  0  0  0  0  0  0  0  0  # atno 10718 bound_to 10713
  154.5756  135.2831  155.0784 H   0  0  0  0  0  0  0  0  0  0  0  0  # atno 10763 bound_to 10752
  154.2139  135.6403  153.5127 H   0  0  0  0  0  0  0  0  0  0  0  0  # atno 10764 bound_to 10752
  153.0071  135.5498  154.6394 H   0  0  0  0  0  0  0  0  0  0  0  0  # atno 10765 bound_to 10752
  141.0559  133.9613  157.2754 H   0  0  0  0  0  0  0  0  0  0  0  0  # atno 11005 bound_to 11000
  144.7303  139.7745  143.7349 LP  0  0  0  0  0  0  0  0  0  0  0  0  # atno 17320 bound_to 7965
  146.1565  139.4664  143.0016 LP  0  0  0  0  0  0  0  0  0  0  0  0  # atno 17321 bound_to 7965
  140.7076  143.2480  151.4679 LP  0  0  0  0  0  0  0  0  0  0  0  0  # atno 17342 bound_to 10162
  139.5778  144.1780  152.1926 LP  0  0  0  0  0  0  0  0  0  0  0  0  # atno 17343 bound_to 10162
  155.9680  130.4240  150.4591 LP  0  0  0  0  0  0  0  0  0  0  0  0  # atno 17370 bound_to 10713
  157.2596  131.0564  151.2329 LP  0  0  0  0  0  0  0  0  0  0  0  0  # atno 17371 bound_to 10713
  139.9390  135.0193  156.8648 LP  0  0  0  0  0  0  0  0  0  0  0  0  # atno 17394 bound_to 11000
  140.5964  134.0213  155.7520 LP  0  0  0  0  0  0  0  0  0  0  0  0  # atno 17395 bound_to 11000

$$$$
