AV-unprocessed.smi:439|AV-procd|sdf|2580|dock1
  -GOLD-   2262022563D 1   1.00000     0.00000
 Structure written by MMmdl.
 45 46  0  0  0  0  0  0  0  0  2 V2000
  145.2048  131.6655  151.7372 C   0  0  0  0  0  0  0  0  0  0  0  0
  146.5750  132.3497  151.6402 C   0  0  0  0  0  0  0  0  0  0  0  0
  147.2810  132.5147  152.9956 C   0  0  0  0  0  0  0  0  0  0  0  0
  148.7148  133.0665  152.8829 C   0  0  0  0  0  0  0  0  0  0  0  0
  149.4450  132.9311  154.1615 N   0  0  0  0  0  0  0  0  0  0  0  0
  149.7311  134.0976  154.9206 C   0  0  0  0  0  0  0  0  0  0  0  0
  149.3176  135.3324  154.4401 N   0  0  0  0  0  0  0  0  0  0  0  0
  150.3784  133.9925  156.1127 C   0  0  0  0  0  0  0  0  0  0  0  0
  150.7007  135.1245  156.8948 N   0  0  0  0  0  0  0  0  0  0  0  0
  149.5570  135.9213  157.3732 C   0  0  0  0  0  0  0  0  0  0  0  0
  148.6832  135.1329  158.3617 C   0  0  0  0  0  0  0  0  0  0  0  0
  151.9766  135.5492  157.1471 C   0  0  0  0  0  0  0  0  0  0  0  0
  152.9468  134.8333  156.8866 O   0  0  0  0  0  0  0  0  0  0  0  0
  152.1410  136.8960  157.7045 C   0  0  0  0  0  0  0  0  0  0  0  0
  152.9570  137.7671  157.0673 C   0  0  0  0  0  0  0  0  0  0  0  0
  153.1483  139.0676  157.4636 O   0  0  0  0  0  0  0  0  0  0  0  0
  152.2462  139.5259  158.4640 C   0  0  0  0  0  0  0  0  0  0  0  0
  151.9868  138.4238  159.5002 C   0  0  0  0  0  0  0  0  0  0  0  0
  151.4758  137.2664  158.8517 O   0  0  0  0  0  0  0  0  0  0  0  0
  150.8086  132.6635  156.5692 C   0  0  0  0  0  0  0  0  0  0  0  0
  151.4200  132.5397  157.6308 O   0  0  0  0  0  0  0  0  0  0  0  0
  150.5138  131.5972  155.7805 N   0  5  0  0  0  0  0  0  0  0  0  0
  149.8546  131.6983  154.5915 C   0  0  0  0  0  0  0  0  0  0  0  0
  149.6232  130.7081  153.8961 O   0  0  0  0  0  0  0  0  0  0  0  0
  144.7184  131.6370  150.7620 H   0  0  0  0  0  0  0  0  0  0  0  0
  144.5457  132.2002  152.4216 H   0  0  0  0  0  0  0  0  0  0  0  0
  145.2926  130.6375  152.0883 H   0  0  0  0  0  0  0  0  0  0  0  0
  147.2164  131.7970  150.9529 H   0  0  0  0  0  0  0  0  0  0  0  0
  146.4370  133.3365  151.1973 H   0  0  0  0  0  0  0  0  0  0  0  0
  146.6914  133.1942  153.6122 H   0  0  0  0  0  0  0  0  0  0  0  0
  147.2861  131.5600  153.5230 H   0  0  0  0  0  0  0  0  0  0  0  0
  149.2561  132.5710  152.0778 H   0  0  0  0  0  0  0  0  0  0  0  0
  148.6782  134.1070  152.5564 H   0  0  0  0  0  0  0  0  0  0  0  0
  148.8195  135.4243  153.5667 H   0  0  0  0  0  0  0  0  0  0  0  0
  149.5502  136.1913  154.9176 H   0  0  0  0  0  0  0  0  0  0  0  0
  149.9056  136.8269  157.8708 H   0  0  0  0  0  0  0  0  0  0  0  0
  148.9529  136.2701  156.5340 H   0  0  0  0  0  0  0  0  0  0  0  0
  147.8503  135.7428  158.7115 H   0  0  0  0  0  0  0  0  0  0  0  0
  149.2580  134.8257  159.2360 H   0  0  0  0  0  0  0  0  0  0  0  0
  148.2666  134.2354  157.9044 H   0  0  0  0  0  0  0  0  0  0  0  0
  153.5155  137.5405  156.1702 H   0  0  0  0  0  0  0  0  0  0  0  0
  152.6645  140.4107  158.9446 H   0  0  0  0  0  0  0  0  0  0  0  0
  151.3113  139.8292  157.9909 H   0  0  0  0  0  0  0  0  0  0  0  0
  152.9064  138.1652  160.0275 H   0  0  0  0  0  0  0  0  0  0  0  0
  151.2691  138.7596  160.2487 H   0  0  0  0  0  0  0  0  0  0  0  0
  1  2  1  0  0  0  0
  1 25  1  0  0  0  0
  1 26  1  0  0  0  0
  1 27  1  0  0  0  0
  2  3  1  0  0  0  0
  2 28  1  0  0  0  0
  2 29  1  0  0  0  0
  3  4  1  0  0  0  0
  3 30  1  0  0  0  0
  3 31  1  0  0  0  0
  4  5  1  0  0  0  0
  4 32  1  0  0  0  0
  4 33  1  0  0  0  0
  5 23  1  0  0  0  0
  5  6  1  0  0  0  0
  6  7  1  0  0  0  0
  6  8  2  0  0  0  0
  7 34  1  0  0  0  0
  7 35  1  0  0  0  0
  8  9  1  0  0  0  0
  8 20  1  0  0  0  0
  9 10  1  0  0  0  0
  9 12  1  0  0  0  0
 10 11  1  0  0  0  0
 10 36  1  0  0  0  0
 10 37  1  0  0  0  0
 11 38  1  0  0  0  0
 11 39  1  0  0  0  0
 11 40  1  0  0  0  0
 12 13  2  0  0  0  0
 12 14  1  0  0  0  0
 14 19  1  0  0  0  0
 14 15  2  0  0  0  0
 15 16  1  0  0  0  0
 15 41  1  0  0  0  0
 16 17  1  0  0  0  0
 17 18  1  0  0  0  0
 17 42  1  0  0  0  0
 17 43  1  0  0  0  0
 18 19  1  0  0  0  0
 18 44  1  0  0  0  0
 18 45  1  0  0  0  0
 20 21  2  0  0  0  0
 20 22  1  0  0  0  0
 22 23  1  0  0  0  0
 23 24  2  0  0  0  0
M  CHG  1  22  -1
M  END
> <s_m_source_file>
AV-unprocessed.smi

> <i_m_source_file_index>
439

> <i_lp_mmshare_version>
43012

> <i_f3d_flags>
0

> <s_epik_input>
W0NIM11bQ0gyXVtDSDJdW0NIMl1uMWMoW05IMl0pYyhjKD1PKVtuSF1jMT1PKU4oW0NIMl1bQ0gzXSlDKD1PKUMyPVtDSF1PW0NIMl1bQ0gyXU8y

> <s_epik_cmdline>
J2VwaWtfcHl0aG9uJywgJy1waCcsICc3LjAnLCAnLXRuJywgJzgnLCAnLW1hJywgJzIwMCcsICctbWV0YWxfYmluZGluZycsICctaW1hZScsICc8aW5maWxlLm1hZT4nLCAnLW9tYWUnLCAnPG91dGZpbGUubWFlPic=

> <r_lp_tautomer_probability>
1

> <r_epik_Ionization_Penalty>
6.21372

> <r_epik_Ionization_Penalty_Charging>
0.188923

> <r_epik_Ionization_Penalty_Neutral>
6.0248

> <r_epik_State_Penalty>
6.02477

> <r_epik_Charging_Adjusted_Penalty>
6.2137

> <i_epik_Tot_Q>
-1

> <i_epik_Tot_abs_Q>
1

> <r_epik_Metal_State_Penalty>
1.95433

> <b_epik_Metal_Only>
1

> <s_epik_Chemistry_Notes>
This compound has an imine and may undergo hydrolysis.

> <s_lp_Force_Field>
OPLS_2005

> <r_lp_Energy>
37.3971

> <b_lp_Chiralities_Consistent>
1

> <s_lp_Variant>
AV-unprocessed.smi:439-2

> <Gold.Version>
5.8.1

> <Gold.Id.Protein>
6NUR|6NUR_protein|mol2

> <Gold.PLP.Fitness>
41.6636

> <Gold.PLP.PLP>
-31.2143

> <Gold.PLP.part.hbond>
-4.0217

> <Gold.PLP.part.metal>
0.0000

> <Gold.PLP.part.buried>
-2.2879

> <Gold.PLP.part.nonpolar>
-25.0416

> <Gold.PLP.part.repulsive>
0.1120

> <Gold.PLP.ligand.clash>
0.0000

> <Gold.PLP.ligand.torsion>
2.3858

> <Gold.PLP.Chemscore.Hbond>
3.7680

> <Gold.PLP.Chemscore.CHOScore>
0.0000

> <Gold.PLP.Chemscore.Metal>
0.0000

> <Gold.Chemscore.Hbonds>
donor molecule, donor type, donor heavy atom, donor atom, acceptor molecule, acceptor atom, score
      L1  H     7    34       P1  7948  0.82
      P1  H  6896  6907       L1    21  1.00
      P1  H  7997  8008       L1    16  0.99
      P1  H 10752 10764       L1    13  0.86

> <Gold.PLP.Chemscore.Internal.Correction>
3.9169

> <Gold.Rescore>
     Score         DG    S(hbond)    S(metal)    S(lipo)     H(rot)  DE(clash)    DE(int)     intcor
     15.09     -20.04       3.74        0.00      53.49       1.63       0.86       4.10       ----

> <Gold.Chemscore.Fitness>
15.0926

> <Gold.Chemscore.DG>
-20.0450

> <Gold.Chemscore.ZeroCoef>
-5.4800

> <Gold.Chemscore.Hbond>
3.7383

> <Gold.Chemscore.Metal>
0.0000

> <Gold.Chemscore.Lipo>
53.4892

> <Gold.Chemscore.Internal_Hbond>
0.0000

> <Gold.Chemscore.DEClash>
0.8555

> <Gold.Chemscore.DEInternal>
4.0969

> <Gold.Chemscore.Rot>
1.6325

> <Gold.Chemscore.Internal.Correction>
   9.000000E+99

> <Gold.Chemscore.Hbonds>
donor molecule, donor type, donor heavy atom, donor atom, acceptor molecule, acceptor atom, score
      L1  H     7    34       P1  7948  0.69
      P1  H  6896  6907       L1    21  0.99
      P1  H  7997  8008       L1    16  0.91
      P1  H 10752 10764       L1    13  0.25

> <Gold.Chemscore.Hbond.Weighted>
-12.4861

> <Gold.Chemscore.Metal.Weighted>
-0.0000

> <Gold.Chemscore.Lipo.Weighted>
-6.2582

> <Gold.Chemscore.Internal_Hbond.Weighted>
0.0000

> <Gold.Chemscore.DEClash.Weighted>
0.8555

> <Gold.Chemscore.DEInternal.Weighted>
4.0969

> <Gold.Chemscore.Rot.Weighted>
4.1793

> <Gold.Chemscore.Internal.Correction.Weighted>
   9.000000E+99

> <Gold.Protein.RotatedTorsions>
[ 6907 6896 6895 6894 ] final -163.07 input  -60.11 | X-H torsion
[ 7974 7965 7964 7962 ] final -120.87 input  175.53 | X-H torsion
[ 8008 7997 7996 7995 ] final  -94.00 input   59.86 | X-H torsion
[ 10167 10162 10161 10158 ] final   37.69 input  -65.29 | X-H torsion
[ 10718 10713 10712 10709 ] final  164.95 input   66.30 | X-H torsion
[ 10763 10752 10751 10750 ] final  -15.49 input  -60.55 | X-H torsion
[ 11005 11000 10999 10996 ] final -161.73 input  -57.11 | X-H torsion

> <Gold.Protein.ActiveResidues>
 VAL166  LYS551  ARG553  GLY616  TRP617  ASP618  TYR619  PRO620  LYS621  CYS622 
 ASP623  PHE694  ASN695  SER759  ASP760  ASP761  ALA762  ILE779  LEU786  VAL792 
 PHE793  MET794  SER795  GLU796  ALA797  LYS798  CYS799  TRP800  GLU811  SER814 

> <Gold.Protein.RotatedAtoms>
  151.3903  133.3791  159.2719 H   0  0  0  0  0  0  0  0  0  0  0  0  # atno 6907 bound_to 6896
  150.9510  134.8911  159.7682 H   0  0  0  0  0  0  0  0  0  0  0  0  # atno 6908 bound_to 6896
  152.5112  134.3858  159.9419 H   0  0  0  0  0  0  0  0  0  0  0  0  # atno 6909 bound_to 6896
  145.0465  140.8186  143.4235 H   0  0  0  0  0  0  0  0  0  0  0  0  # atno 7974 bound_to 7965
  154.7428  140.0493  157.0826 H   0  0  0  0  0  0  0  0  0  0  0  0  # atno 8008 bound_to 7997
  155.0157  140.3141  155.4793 H   0  0  0  0  0  0  0  0  0  0  0  0  # atno 8009 bound_to 7997
  156.2868  140.2176  156.5273 H   0  0  0  0  0  0  0  0  0  0  0  0  # atno 8010 bound_to 7997
  140.4008  144.1726  150.6133 H   0  0  0  0  0  0  0  0  0  0  0  0  # atno 10167 bound_to 10162
  157.0871  131.0407  151.2552 H   0  0  0  0  0  0  0  0  0  0  0  0  # atno 10718 bound_to 10713
  153.5441  135.7013  153.5622 H   0  0  0  0  0  0  0  0  0  0  0  0  # atno 10763 bound_to 10752
  153.3575  135.3978  155.1693 H   0  0  0  0  0  0  0  0  0  0  0  0  # atno 10764 bound_to 10752
  154.8670  135.3780  154.4948 H   0  0  0  0  0  0  0  0  0  0  0  0  # atno 10765 bound_to 10752
  140.6171  134.4789  157.5220 H   0  0  0  0  0  0  0  0  0  0  0  0  # atno 11005 bound_to 11000
  145.1581  139.2475  143.5406 LP  0  0  0  0  0  0  0  0  0  0  0  0  # atno 17320 bound_to 7965
  146.3514  140.1301  142.8597 LP  0  0  0  0  0  0  0  0  0  0  0  0  # atno 17321 bound_to 7965
  140.4742  143.2402  151.9046 LP  0  0  0  0  0  0  0  0  0  0  0  0  # atno 17342 bound_to 10162
  139.4785  144.5338  151.8628 LP  0  0  0  0  0  0  0  0  0  0  0  0  # atno 17343 bound_to 10162
  157.4752  130.7732  149.7361 LP  0  0  0  0  0  0  0  0  0  0  0  0  # atno 17370 bound_to 10713
  155.9908  130.3942  150.3013 LP  0  0  0  0  0  0  0  0  0  0  0  0  # atno 17371 bound_to 10713
  139.9168  134.8229  156.1339 LP  0  0  0  0  0  0  0  0  0  0  0  0  # atno 17394 bound_to 11000
  141.0768  133.6772  156.2253 LP  0  0  0  0  0  0  0  0  0  0  0  0  # atno 17395 bound_to 11000

$$$$
