AV-unprocessed.smi:1222|AV-procd|sdf|5124|dock1
  -GOLD-   22720 4183D 1   1.00000     0.00000
 Structure written by MMmdl.
 36 38  0  0  0  0  0  0  0  0  3 V2000
  149.7568  137.7205  159.2785 O   0  0  0  0  0  0  0  0  0  0  0  0
  148.6236  137.2649  159.4480 C   0  0  0  0  0  0  0  0  0  0  0  0
  147.9703  137.1631  160.6271 N   0  5  0  0  0  0  0  0  0  0  0  0
  147.7388  135.9538  161.1633 C   0  0  0  0  0  0  0  0  0  0  0  0
  147.8328  134.8151  160.4666 N   0  0  0  0  0  0  0  0  0  0  0  0
  147.5524  133.6766  161.2243 C   0  0  0  0  0  0  0  0  0  0  0  0
  147.2496  133.9539  162.5310 C   0  0  0  0  0  0  0  0  0  0  0  0
  147.3032  135.6640  162.8497 S   0  0  0  0  0  0  0  0  0  0  0  0
  147.9164  136.8085  158.4040 N   0  0  0  0  0  0  0  0  0  0  0  0
  148.3392  136.7844  157.0061 C   0  0  2  0  0  0  0  0  0  0  0  0
  147.4427  137.7135  156.1712 C   0  0  0  0  0  0  0  0  0  0  0  0
  147.7868  137.6199  154.6731 C   0  0  0  0  0  0  0  0  0  0  0  0
  147.7275  136.2228  154.1707 N   0  3  2  0  0  0  0  0  0  0  0  0
  146.3449  135.7191  153.9972 C   0  0  0  0  0  0  0  0  0  0  0  0
  146.1669  134.8465  152.7765 C   0  0  0  0  0  0  0  0  0  0  0  0
  145.6491  136.2674  152.7731 C   0  0  0  0  0  0  0  0  0  0  0  0
  148.5922  135.3071  154.9587 C   0  0  0  0  0  0  0  0  0  0  0  0
  148.2620  135.3487  156.4622 C   0  0  0  0  0  0  0  0  0  0  0  0
  147.5945  132.7065  160.7519 H   0  0  0  0  0  0  0  0  0  0  0  0
  146.9998  133.2621  163.3210 H   0  0  0  0  0  0  0  0  0  0  0  0
  146.9952  136.4472  158.6045 H   0  0  0  0  0  0  0  0  0  0  0  0
  149.3709  137.1264  156.9080 H   0  0  0  0  0  0  0  0  0  0  0  0
  146.3933  137.4595  156.3263 H   0  0  0  0  0  0  0  0  0  0  0  0
  147.5595  138.7437  156.5099 H   0  0  0  0  0  0  0  0  0  0  0  0
  147.1200  138.2553  154.0890 H   0  0  0  0  0  0  0  0  0  0  0  0
  148.7955  138.0012  154.5085 H   0  0  0  0  0  0  0  0  0  0  0  0
  145.7786  135.5149  154.9040 H   0  0  0  0  0  0  0  0  0  0  0  0
  147.0413  134.6290  152.1656 H   0  0  0  0  0  0  0  0  0  0  0  0
  145.4296  134.0482  152.8329 H   0  0  0  0  0  0  0  0  0  0  0  0
  144.5714  136.4054  152.8294 H   0  0  0  0  0  0  0  0  0  0  0  0
  146.1791  136.9931  152.1587 H   0  0  0  0  0  0  0  0  0  0  0  0
  148.5027  134.2894  154.5774 H   0  0  0  0  0  0  0  0  0  0  0  0
  149.6316  135.6014  154.8076 H   0  0  0  0  0  0  0  0  0  0  0  0
  148.9562  134.7079  157.0074 H   0  0  0  0  0  0  0  0  0  0  0  0
  147.2673  134.9362  156.6349 H   0  0  0  0  0  0  0  0  0  0  0  0
  148.1194  136.2447  153.2401 H   0  0  0  0  0  0  0  0  0  0  0  0
  1  2  2  0  0  0  0
  2  3  1  0  0  0  0
  2  9  1  0  0  0  0
  3  4  1  0  0  0  0
  4  8  1  0  0  0  0
  4  5  2  0  0  0  0
  5  6  1  0  0  0  0
  6  7  2  0  0  0  0
  6 19  1  0  0  0  0
  7  8  1  0  0  0  0
  7 20  1  0  0  0  0
  9 10  1  0  0  0  0
  9 21  1  0  0  0  0
 10 18  1  0  0  0  0
 10 11  1  0  0  0  0
 10 22  1  0  0  0  0
 11 12  1  0  0  0  0
 11 23  1  0  0  0  0
 11 24  1  0  0  0  0
 12 13  1  0  0  0  0
 12 25  1  0  0  0  0
 12 26  1  0  0  0  0
 13 14  1  0  0  0  0
 13 17  1  0  0  0  0
 13 36  1  0  0  0  0
 14 16  1  0  0  0  0
 14 15  1  0  0  0  0
 14 27  1  0  0  0  0
 15 16  1  0  0  0  0
 15 28  1  0  0  0  0
 15 29  1  0  0  0  0
 16 30  1  0  0  0  0
 16 31  1  0  0  0  0
 17 18  1  0  0  0  0
 17 32  1  0  0  0  0
 17 33  1  0  0  0  0
 18 34  1  0  0  0  0
 18 35  1  0  0  0  0
M  CHG  1   3  -1
M  CHG  1  13   1
M  END
> <s_m_source_file>
AV-unprocessed.smi

> <i_m_source_file_index>
1222

> <i_lp_mmshare_version>
43012

> <i_f3d_flags>
0

> <s_epik_input>
czFbY0hdW2NIXW5jMVtOSF1DKD1PKVtOSF1bQ0hdMltDSDJdW0NIMl1OKFtDSDJdW0NIMl0yKVtDSF0zW0NIMl1bQ0gyXTM=

> <s_epik_cmdline>
J2VwaWtfcHl0aG9uJywgJy1waCcsICc3LjAnLCAnLXRuJywgJzgnLCAnLW1hJywgJzIwMCcsICctbWV0YWxfYmluZGluZycsICctaW1hZScsICc8aW5maWxlLm1hZT4nLCAnLW9tYWUnLCAnPG91dGZpbGUubWFlPic=

> <r_lp_tautomer_probability>
0.999

> <r_epik_Ionization_Penalty>
6.4609

> <r_epik_Ionization_Penalty_Charging>
5.58663

> <r_epik_Ionization_Penalty_Neutral>
0.874262

> <r_epik_State_Penalty>
5.57752

> <r_epik_Charging_Adjusted_Penalty>
11.1642

> <i_epik_Tot_Q>
0

> <i_epik_Tot_abs_Q>
2

> <r_epik_Metal_State_Penalty>
1.58738

> <b_epik_Metal_Only>
1

> <s_lp_Force_Field>
OPLS_2005

> <r_lp_Energy>
18.4685

> <b_lp_Chiralities_Consistent>
1

> <s_lp_Variant>
AV-unprocessed.smi:1222-5

> <Gold.Version>
5.8.1

> <Gold.Id.Protein>
6NUR|6NUR_protein|mol2

> <Gold.PLP.Fitness>
37.8616

> <Gold.PLP.PLP>
-23.3964

> <Gold.PLP.part.hbond>
-3.8451

> <Gold.PLP.part.metal>
0.0000

> <Gold.PLP.part.buried>
-1.9992

> <Gold.PLP.part.nonpolar>
-17.8844

> <Gold.PLP.part.repulsive>
0.0730

> <Gold.PLP.ligand.clash>
0.0000

> <Gold.PLP.ligand.torsion>
1.3724

> <Gold.PLP.Chemscore.Hbond>
5.2640

> <Gold.PLP.Chemscore.CHOScore>
0.0000

> <Gold.PLP.Chemscore.Metal>
0.0000

> <Gold.Chemscore.Hbonds>
donor molecule, donor type, donor heavy atom, donor atom, acceptor molecule, acceptor atom, score
      L1  H    13    36       P1  7948  2.00
      P1  H  6931  6943       L1     3  1.63
      P1  H  6934  6947       L1     3  1.55

> <Gold.PLP.Chemscore.Internal.Correction>
1.4181

> <Gold.Rescore>
     Score         DG    S(hbond)    S(metal)    S(lipo)     H(rot)  DE(clash)    DE(int)     intcor
     15.86     -17.29       3.02        0.00      42.02       1.25       0.01       1.42       ----

> <Gold.Chemscore.Fitness>
15.8629

> <Gold.Chemscore.DG>
-17.2885

> <Gold.Chemscore.ZeroCoef>
-5.4800

> <Gold.Chemscore.Hbond>
3.0194

> <Gold.Chemscore.Metal>
0.0000

> <Gold.Chemscore.Lipo>
42.0170

> <Gold.Chemscore.Internal_Hbond>
0.0000

> <Gold.Chemscore.DEClash>
0.0086

> <Gold.Chemscore.DEInternal>
1.4169

> <Gold.Chemscore.Rot>
1.2470

> <Gold.Chemscore.Internal.Correction>
   9.000000E+99

> <Gold.Chemscore.Hbonds>
donor molecule, donor type, donor heavy atom, donor atom, acceptor molecule, acceptor atom, score
      L1  H    13    36       P1  7948  0.99
      P1  H  6931  6943       L1     3  0.29
      P1  H  6934  6947       L1     3  0.32

> <Gold.Chemscore.Hbond.Weighted>
-10.0849

> <Gold.Chemscore.Metal.Weighted>
-0.0000

> <Gold.Chemscore.Lipo.Weighted>
-4.9160

> <Gold.Chemscore.Internal_Hbond.Weighted>
0.0000

> <Gold.Chemscore.DEClash.Weighted>
0.0086

> <Gold.Chemscore.DEInternal.Weighted>
1.4169

> <Gold.Chemscore.Rot.Weighted>
3.1924

> <Gold.Chemscore.Internal.Correction.Weighted>
   9.000000E+99

> <Gold.Protein.RotatedTorsions>
[ 6907 6896 6895 6894 ] final  173.84 input  -60.11 | X-H torsion
[ 7974 7965 7964 7962 ] final  123.80 input  175.53 | X-H torsion
[ 8008 7997 7996 7995 ] final  -41.00 input   59.86 | X-H torsion
[ 10167 10162 10161 10158 ] final  -99.19 input  -65.29 | X-H torsion
[ 10718 10713 10712 10709 ] final   61.76 input   66.30 | X-H torsion
[ 10763 10752 10751 10750 ] final   13.65 input  -60.55 | X-H torsion
[ 11005 11000 10999 10996 ] final  161.56 input  -57.11 | X-H torsion

> <Gold.Protein.ActiveResidues>
 VAL166  LYS551  ARG553  GLY616  TRP617  ASP618  TYR619  PRO620  LYS621  CYS622 
 ASP623  PHE694  ASN695  SER759  ASP760  ASP761  ALA762  ILE779  LEU786  VAL792 
 PHE793  MET794  SER795  GLU796  ALA797  LYS798  CYS799  TRP800  GLU811  SER814 

> <Gold.Protein.RotatedAtoms>
  151.7618  133.3334  159.3419 H   0  0  0  0  0  0  0  0  0  0  0  0  # atno 6907 bound_to 6896
  150.7495  134.6099  159.6090 H   0  0  0  0  0  0  0  0  0  0  0  0  # atno 6908 bound_to 6896
  152.3400  134.7149  160.0318 H   0  0  0  0  0  0  0  0  0  0  0  0  # atno 6909 bound_to 6896
  145.0917  139.3582  143.4857 H   0  0  0  0  0  0  0  0  0  0  0  0  # atno 7974 bound_to 7965
  154.4007  140.1511  156.3118 H   0  0  0  0  0  0  0  0  0  0  0  0  # atno 8008 bound_to 7997
  155.8608  140.3453  155.5734 H   0  0  0  0  0  0  0  0  0  0  0  0  # atno 8009 bound_to 7997
  155.7882  140.0853  157.2013 H   0  0  0  0  0  0  0  0  0  0  0  0  # atno 8010 bound_to 7997
  140.2651  143.3381  152.0589 H   0  0  0  0  0  0  0  0  0  0  0  0  # atno 10167 bound_to 10162
  157.5852  130.9013  149.9502 H   0  0  0  0  0  0  0  0  0  0  0  0  # atno 10718 bound_to 10713
  153.1700  135.6810  153.8621 H   0  0  0  0  0  0  0  0  0  0  0  0  # atno 10763 bound_to 10752
  153.7988  135.3158  155.3389 H   0  0  0  0  0  0  0  0  0  0  0  0  # atno 10764 bound_to 10752
  154.7991  135.4789  154.0325 H   0  0  0  0  0  0  0  0  0  0  0  0  # atno 10765 bound_to 10752
  140.2170  134.8224  157.3181 H   0  0  0  0  0  0  0  0  0  0  0  0  # atno 11005 bound_to 11000
  146.3531  140.0754  142.8621 LP  0  0  0  0  0  0  0  0  0  0  0  0  # atno 17320 bound_to 7965
  145.1058  140.9374  143.4686 LP  0  0  0  0  0  0  0  0  0  0  0  0  # atno 17321 bound_to 7965
  139.5005  144.6693  151.6280 LP  0  0  0  0  0  0  0  0  0  0  0  0  # atno 17342 bound_to 10162
  140.5935  143.9738  150.6339 LP  0  0  0  0  0  0  0  0  0  0  0  0  # atno 17343 bound_to 10162
  156.0900  130.3664  150.0413 LP  0  0  0  0  0  0  0  0  0  0  0  0  # atno 17370 bound_to 10713
  156.8546  130.9470  151.3623 LP  0  0  0  0  0  0  0  0  0  0  0  0  # atno 17371 bound_to 10713
  140.1890  134.4396  155.7727 LP  0  0  0  0  0  0  0  0  0  0  0  0  # atno 17394 bound_to 11000
  141.2224  133.7018  156.7995 LP  0  0  0  0  0  0  0  0  0  0  0  0  # atno 17395 bound_to 11000

$$$$
