AV-unprocessed.smi:2857|AV-procd|sdf|10998|dock2
  -GOLD-   2272015453D 1   1.00000     0.00000
 Structure written by MMmdl.
 44 46  0  0  0  0  0  0  0  0  1 V2000
  151.9109  145.1874  160.7590 C   0  0  0  0  0  0  0  0  0  0  0  0
  152.2635  143.7979  160.2691 C   0  0  0  0  0  0  0  0  0  0  0  0
  153.1433  142.9837  161.0080 C   0  0  0  0  0  0  0  0  0  0  0  0
  153.4639  141.6953  160.5442 C   0  0  0  0  0  0  0  0  0  0  0  0
  152.9096  141.2136  159.3401 C   0  0  0  0  0  0  0  0  0  0  0  0
  153.2653  139.8206  158.8556 C   0  0  0  0  0  0  0  0  0  0  0  0
  152.0269  142.0216  158.5866 C   0  0  0  0  0  0  0  0  0  0  0  0
  151.5232  141.4916  157.4158 O   0  0  0  0  0  0  0  0  0  0  0  0
  150.5876  142.2625  156.6755 C   0  0  0  0  0  0  0  0  0  0  0  0
  150.1105  141.4519  155.4566 C   0  0  1  0  0  0  0  0  0  0  0  0
  151.1216  140.5266  155.1123 O   0  0  0  0  0  0  0  0  0  0  0  0
  148.8219  140.6420  155.7114 C   0  0  0  0  0  0  0  0  0  0  0  0
  147.6377  141.2591  155.1326 N   0  0  0  0  0  0  0  0  0  0  0  0
  147.4825  141.2697  153.7837 N   0  0  0  0  0  0  0  0  0  0  0  0
  146.3308  141.8975  153.5553 C   0  0  0  0  0  0  0  0  0  0  0  0
  145.7045  142.3172  154.7608 C   0  0  0  0  0  0  0  0  0  0  0  0
  144.4759  143.0312  155.0941 C   0  0  0  0  0  0  0  0  0  0  0  0
  144.2179  143.2582  156.3441 N   0  0  0  0  0  0  0  0  0  0  0  0
  145.0885  142.8353  157.3551 N   0  0  0  0  0  0  0  0  0  0  0  0
  144.6623  143.1738  158.7111 C   0  0  0  0  0  0  0  0  0  0  0  0
  146.2588  142.1594  157.1503 C   0  0  0  0  0  0  0  0  0  0  0  0
  147.0159  141.8036  158.0534 O   0  0  0  0  0  0  0  0  0  0  0  0
  146.5602  141.8916  155.7227 C   0  0  0  0  0  0  0  0  0  0  0  0
  151.7095  143.3191  159.0652 C   0  0  0  0  0  0  0  0  0  0  0  0
  152.2980  145.3662  161.7625 H   0  0  0  0  0  0  0  0  0  0  0  0
  150.8285  145.3173  160.7853 H   0  0  0  0  0  0  0  0  0  0  0  0
  152.3312  145.9397  160.0910 H   0  0  0  0  0  0  0  0  0  0  0  0
  153.5751  143.3421  161.9310 H   0  0  0  0  0  0  0  0  0  0  0  0
  154.1388  141.0775  161.1182 H   0  0  0  0  0  0  0  0  0  0  0  0
  153.7003  139.8656  157.8568 H   0  0  0  0  0  0  0  0  0  0  0  0
  152.3720  139.1970  158.8130 H   0  0  0  0  0  0  0  0  0  0  0  0
  153.9857  139.3383  159.5168 H   0  0  0  0  0  0  0  0  0  0  0  0
  149.7410  142.5690  157.2928 H   0  0  0  0  0  0  0  0  0  0  0  0
  151.1018  143.1622  156.3396 H   0  0  0  0  0  0  0  0  0  0  0  0
  149.9461  142.1227  154.6122 H   0  0  0  0  0  0  0  0  0  0  0  0
  150.7137  139.7015  154.8987 H   0  0  0  0  0  0  0  0  0  0  0  0
  148.9238  139.6418  155.2868 H   0  0  0  0  0  0  0  0  0  0  0  0
  148.6623  140.4970  156.7794 H   0  0  0  0  0  0  0  0  0  0  0  0
  145.9961  142.0283  152.5368 H   0  0  0  0  0  0  0  0  0  0  0  0
  143.7977  143.3629  154.3081 H   0  0  0  0  0  0  0  0  0  0  0  0
  144.4769  142.2684  159.2905 H   0  0  0  0  0  0  0  0  0  0  0  0
  143.7445  143.7639  158.7156 H   0  0  0  0  0  0  0  0  0  0  0  0
  145.4290  143.7570  159.2233 H   0  0  0  0  0  0  0  0  0  0  0  0
  151.0405  143.9707  158.5235 H   0  0  0  0  0  0  0  0  0  0  0  0
  1  2  1  0  0  0  0
  1 25  1  0  0  0  0
  1 26  1  0  0  0  0
  1 27  1  0  0  0  0
  2 24  1  0  0  0  0
  2  3  2  0  0  0  0
  3  4  1  0  0  0  0
  3 28  1  0  0  0  0
  4  5  2  0  0  0  0
  4 29  1  0  0  0  0
  5  6  1  0  0  0  0
  5  7  1  0  0  0  0
  6 30  1  0  0  0  0
  6 31  1  0  0  0  0
  6 32  1  0  0  0  0
  7  8  1  0  0  0  0
  7 24  2  0  0  0  0
  8  9  1  0  0  0  0
  9 10  1  0  0  0  0
  9 33  1  0  0  0  0
  9 34  1  0  0  0  0
 10 11  1  0  0  0  0
 10 12  1  0  0  0  0
 10 35  1  0  0  0  0
 11 36  1  0  0  0  0
 12 13  1  0  0  0  0
 12 37  1  0  0  0  0
 12 38  1  0  0  0  0
 13 23  1  0  0  0  0
 13 14  1  0  0  0  0
 14 15  2  0  0  0  0
 15 16  1  0  0  0  0
 15 39  1  0  0  0  0
 16 23  2  0  0  0  0
 16 17  1  0  0  0  0
 17 18  2  0  0  0  0
 17 40  1  0  0  0  0
 18 19  1  0  0  0  0
 19 20  1  0  0  0  0
 19 21  1  0  0  0  0
 20 41  1  0  0  0  0
 20 42  1  0  0  0  0
 20 43  1  0  0  0  0
 21 22  2  0  0  0  0
 21 23  1  0  0  0  0
 24 44  1  0  0  0  0
M  END
> <s_m_source_file>
AV-unprocessed.smi

> <i_m_source_file_index>
2857

> <i_lp_mmshare_version>
43012

> <i_f3d_flags>
0

> <s_epik_input>
W0NIM11jMVtjSF1bY0hdYyhbQ0gzXSljKFtjSF0xKU9bQ0gyXVtDQEhdKFtPSF0pW0NIMl1uKG5bY0hdMiljKGMyMyljKD1PKW4oW0NIM10pbltjSF0z

> <s_epik_cmdline>
J2VwaWtfcHl0aG9uJywgJy1waCcsICc3LjAnLCAnLXRuJywgJzgnLCAnLW1hJywgJzIwMCcsICctbWV0YWxfYmluZGluZycsICctaW1hZScsICc8aW5maWxlLm1hZT4nLCAnLW9tYWUnLCAnPG91dGZpbGUubWFlPic=

> <r_lp_tautomer_probability>
1

> <r_epik_Ionization_Penalty>
2.24607e-06

> <r_epik_Ionization_Penalty_Charging>
1.42095e-10

> <r_epik_Ionization_Penalty_Neutral>
2.24593e-06

> <r_epik_State_Penalty>
-0

> <r_epik_Charging_Adjusted_Penalty>
1.42095e-10

> <i_epik_Tot_Q>
0

> <i_epik_Tot_abs_Q>
0

> <r_epik_Metal_State_Penalty>
-0

> <b_epik_Metal_Only>
0

> <s_lp_Force_Field>
OPLS_2005

> <r_lp_Energy>
31.6427

> <b_lp_Chiralities_Consistent>
1

> <s_lp_Variant>
AV-unprocessed.smi:2857-2

> <Gold.Version>
5.8.1

> <Gold.Id.Protein>
6NUR|6NUR_protein|mol2

> <Gold.PLP.Fitness>
46.5239

> <Gold.PLP.PLP>
-43.1341

> <Gold.PLP.part.hbond>
-1.0000

> <Gold.PLP.part.metal>
0.0000

> <Gold.PLP.part.buried>
-7.0322

> <Gold.PLP.part.nonpolar>
-37.0706

> <Gold.PLP.part.repulsive>
0.4033

> <Gold.PLP.ligand.clash>
0.0000

> <Gold.PLP.ligand.torsion>
1.1683

> <Gold.PLP.Chemscore.Hbond>
0.9000

> <Gold.PLP.Chemscore.CHOScore>
0.9761

> <Gold.PLP.Chemscore.Metal>
0.0000

> <Gold.Chemscore.Hbonds>
donor molecule, donor type, donor heavy atom, donor atom, acceptor molecule, acceptor atom, score
      P1  H  7989  7998       L1    11  0.77
      L1  C    17    40       P1 10174  0.83

> <Gold.PLP.Chemscore.Internal.Correction>
0.0980

> <Gold.Rescore>
     Score         DG    S(hbond)    S(metal)    S(lipo)     H(rot)  DE(clash)    DE(int)     intcor
     13.19     -14.49       0.19        0.00     122.46       2.32       0.13       1.16       ----

> <Gold.Chemscore.Fitness>
13.1881

> <Gold.Chemscore.DG>
-14.4865

> <Gold.Chemscore.ZeroCoef>
-5.4800

> <Gold.Chemscore.Hbond>
0.1879

> <Gold.Chemscore.Metal>
0.0000

> <Gold.Chemscore.Lipo>
122.4558

> <Gold.Chemscore.Internal_Hbond>
0.0000

> <Gold.Chemscore.DEClash>
0.1348

> <Gold.Chemscore.DEInternal>
1.1635

> <Gold.Chemscore.Rot>
2.3236

> <Gold.Chemscore.Internal.Correction>
   9.000000E+99

> <Gold.Chemscore.Hbonds>
donor molecule, donor type, donor heavy atom, donor atom, acceptor molecule, acceptor atom, score
      P1  H  7989  7998       L1    11  0.07

> <Gold.Chemscore.Hbond.Weighted>
-0.6276

> <Gold.Chemscore.Metal.Weighted>
-0.0000

> <Gold.Chemscore.Lipo.Weighted>
-14.3273

> <Gold.Chemscore.Internal_Hbond.Weighted>
0.0000

> <Gold.Chemscore.DEClash.Weighted>
0.1348

> <Gold.Chemscore.DEInternal.Weighted>
1.1635

> <Gold.Chemscore.Rot.Weighted>
5.9484

> <Gold.Chemscore.Internal.Correction.Weighted>
   9.000000E+99

> <Gold.Protein.RotatedTorsions>
[ 6907 6896 6895 6894 ] final   22.92 input  -60.11 | X-H torsion
[ 7974 7965 7964 7962 ] final  106.48 input  175.53 | X-H torsion
[ 8008 7997 7996 7995 ] final  153.99 input   59.86 | X-H torsion
[ 10167 10162 10161 10158 ] final  126.26 input  -65.29 | X-H torsion
[ 10718 10713 10712 10709 ] final  -85.40 input   66.30 | X-H torsion
[ 10763 10752 10751 10750 ] final -110.85 input  -60.55 | X-H torsion
[ 11005 11000 10999 10996 ] final   46.78 input  -57.11 | X-H torsion

> <Gold.Protein.ActiveResidues>
 VAL166  LYS551  ARG553  GLY616  TRP617  ASP618  TYR619  PRO620  LYS621  CYS622 
 ASP623  PHE694  ASN695  SER759  ASP760  ASP761  ALA762  ILE779  LEU786  VAL792 
 PHE793  MET794  SER795  GLU796  ALA797  LYS798  CYS799  TRP800  GLU811  SER814 

> <Gold.Protein.RotatedAtoms>
  151.9346  135.0241  160.0531 H   0  0  0  0  0  0  0  0  0  0  0  0  # atno 6907 bound_to 6896
  152.2089  133.4892  159.5107 H   0  0  0  0  0  0  0  0  0  0  0  0  # atno 6908 bound_to 6896
  150.6971  134.1409  159.4147 H   0  0  0  0  0  0  0  0  0  0  0  0  # atno 6909 bound_to 6896
  145.3060  139.2555  143.3788 H   0  0  0  0  0  0  0  0  0  0  0  0  # atno 7974 bound_to 7965
  156.2554  140.1979  156.6576 H   0  0  0  0  0  0  0  0  0  0  0  0  # atno 8008 bound_to 7997
  154.6489  140.0574  156.9958 H   0  0  0  0  0  0  0  0  0  0  0  0  # atno 8009 bound_to 7997
  155.1448  140.3246  155.4447 H   0  0  0  0  0  0  0  0  0  0  0  0  # atno 8010 bound_to 7997
  139.5641  144.6900  151.3961 H   0  0  0  0  0  0  0  0  0  0  0  0  # atno 10167 bound_to 10162
  155.9997  130.4730  150.4556 H   0  0  0  0  0  0  0  0  0  0  0  0  # atno 10718 bound_to 10713
  154.8269  135.4549  154.0948 H   0  0  0  0  0  0  0  0  0  0  0  0  # atno 10763 bound_to 10752
  153.2254  135.6899  153.7957 H   0  0  0  0  0  0  0  0  0  0  0  0  # atno 10764 bound_to 10752
  153.7359  135.3320  155.3271 H   0  0  0  0  0  0  0  0  0  0  0  0  # atno 10765 bound_to 10752
  140.1338  134.4671  155.8501 H   0  0  0  0  0  0  0  0  0  0  0  0  # atno 11005 bound_to 11000
  146.3135  140.3585  142.8662 LP  0  0  0  0  0  0  0  0  0  0  0  0  # atno 17320 bound_to 7965
  144.9054  140.7694  143.5840 LP  0  0  0  0  0  0  0  0  0  0  0  0  # atno 17321 bound_to 7965
  140.6923  143.7832  150.7273 LP  0  0  0  0  0  0  0  0  0  0  0  0  # atno 17342 bound_to 10162
  140.1318  143.4519  152.2249 LP  0  0  0  0  0  0  0  0  0  0  0  0  # atno 17343 bound_to 10162
  157.2585  131.0562  151.2335 LP  0  0  0  0  0  0  0  0  0  0  0  0  # atno 17370 bound_to 10713
  157.3458  130.7057  149.6410 LP  0  0  0  0  0  0  0  0  0  0  0  0  # atno 17371 bound_to 10713
  141.2175  133.6806  156.7119 LP  0  0  0  0  0  0  0  0  0  0  0  0  # atno 17394 bound_to 11000
  140.2808  134.8318  157.3931 LP  0  0  0  0  0  0  0  0  0  0  0  0  # atno 17395 bound_to 11000

$$$$
