AV-unprocessed.smi:3303|AV-procd|sdf|12667|dock8
  -GOLD-   2272019 03D 1   1.00000     0.00000
 Structure written by MMmdl.
 45 46  0  0  0  0  0  0  0  0  3 V2000
  148.0850  141.6734  155.9457 C   0  0  0  0  0  0  0  0  0  0  0  0
  149.4578  141.6721  155.2402 C   0  0  2  0  0  0  0  0  0  0  0  0
  149.6584  140.3806  154.4200 C   0  0  0  0  0  0  0  0  0  0  0  0
  149.8678  139.2024  155.3017 N   0  3  1  0  0  0  0  0  0  0  0  0
  149.8448  137.9205  154.5610 C   0  0  0  0  0  0  0  0  0  0  0  0
  151.0229  139.3513  156.2345 C   0  0  1  0  0  0  0  0  0  0  0  0
  152.3969  139.2612  155.5352 C   0  0  0  0  0  0  0  0  0  0  0  0
  150.8777  140.6406  157.0729 C   0  0  0  0  0  0  0  0  0  0  0  0
  150.6601  141.8885  156.1892 C   0  0  2  0  0  0  0  0  0  0  0  0
  150.4953  143.1267  156.9868 N   0  3  0  0  0  0  0  0  0  0  0  0
  151.7507  143.7777  157.4162 C   0  0  0  0  0  0  0  0  0  0  0  0
  151.6234  144.3222  158.8457 C   0  0  0  0  0  0  0  0  0  0  0  0
  152.2946  143.4217  159.8652 C   0  0  0  0  0  0  0  0  0  0  0  0
  152.9548  142.2413  159.4626 C   0  0  0  0  0  0  0  0  0  0  0  0
  153.5606  141.4417  160.4513 C   0  0  0  0  0  0  0  0  0  0  0  0
  153.4811  141.8501  161.7965 C   0  0  0  0  0  0  0  0  0  0  0  0
  152.7973  143.0454  162.0951 C   0  0  0  0  0  0  0  0  0  0  0  0
  152.2133  143.8197  161.1548 N   0  0  0  0  0  0  0  0  0  0  0  0
  147.9941  140.8640  156.6696 H   0  0  0  0  0  0  0  0  0  0  0  0
  147.2782  141.5525  155.2222 H   0  0  0  0  0  0  0  0  0  0  0  0
  147.9012  142.6104  156.4709 H   0  0  0  0  0  0  0  0  0  0  0  0
  149.4430  142.5035  154.5336 H   0  0  0  0  0  0  0  0  0  0  0  0
  148.7867  140.2107  153.7863 H   0  0  0  0  0  0  0  0  0  0  0  0
  150.5067  140.4903  153.7434 H   0  0  0  0  0  0  0  0  0  0  0  0
  150.6264  137.8815  153.8015 H   0  0  0  0  0  0  0  0  0  0  0  0
  148.8854  137.7911  154.0591 H   0  0  0  0  0  0  0  0  0  0  0  0
  149.9783  137.0774  155.2396 H   0  0  0  0  0  0  0  0  0  0  0  0
  150.9721  138.5146  156.9329 H   0  0  0  0  0  0  0  0  0  0  0  0
  153.2042  139.3838  156.2575 H   0  0  0  0  0  0  0  0  0  0  0  0
  152.5282  140.0263  154.7708 H   0  0  0  0  0  0  0  0  0  0  0  0
  152.5469  138.2908  155.0623 H   0  0  0  0  0  0  0  0  0  0  0  0
  150.0409  140.5292  157.7633 H   0  0  0  0  0  0  0  0  0  0  0  0
  151.7613  140.7601  157.6997 H   0  0  0  0  0  0  0  0  0  0  0  0
  151.5431  142.0304  155.5647 H   0  0  0  0  0  0  0  0  0  0  0  0
  149.9947  143.7939  156.4169 H   0  0  0  0  0  0  0  0  0  0  0  0
  152.5722  143.0631  157.3678 H   0  0  0  0  0  0  0  0  0  0  0  0
  151.9892  144.5922  156.7308 H   0  0  0  0  0  0  0  0  0  0  0  0
  152.0610  145.3199  158.9051 H   0  0  0  0  0  0  0  0  0  0  0  0
  150.5714  144.4325  159.1134 H   0  0  0  0  0  0  0  0  0  0  0  0
  153.0003  141.9530  158.4227 H   0  0  0  0  0  0  0  0  0  0  0  0
  154.0771  140.5321  160.1825 H   0  0  0  0  0  0  0  0  0  0  0  0
  153.9347  141.2623  162.5808 H   0  0  0  0  0  0  0  0  0  0  0  0
  152.7169  143.3882  163.1160 H   0  0  0  0  0  0  0  0  0  0  0  0
  149.9341  142.9208  157.8012 H   0  0  0  0  0  0  0  0  0  0  0  0
  149.0532  139.1710  155.8985 H   0  0  0  0  0  0  0  0  0  0  0  0
  1  2  1  0  0  0  0
  1 19  1  0  0  0  0
  1 20  1  0  0  0  0
  1 21  1  0  0  0  0
  2  9  1  0  0  0  0
  2  3  1  0  0  0  0
  2 22  1  0  0  0  0
  3  4  1  0  0  0  0
  3 23  1  0  0  0  0
  3 24  1  0  0  0  0
  4  5  1  0  0  0  0
  4  6  1  0  0  0  0
  4 45  1  0  0  0  0
  5 25  1  0  0  0  0
  5 26  1  0  0  0  0
  5 27  1  0  0  0  0
  6  7  1  0  0  0  0
  6  8  1  0  0  0  0
  6 28  1  0  0  0  0
  7 29  1  0  0  0  0
  7 30  1  0  0  0  0
  7 31  1  0  0  0  0
  8  9  1  0  0  0  0
  8 32  1  0  0  0  0
  8 33  1  0  0  0  0
  9 10  1  0  0  0  0
  9 34  1  0  0  0  0
 10 11  1  0  0  0  0
 10 35  1  0  0  0  0
 10 44  1  0  0  0  0
 11 12  1  0  0  0  0
 11 36  1  0  0  0  0
 11 37  1  0  0  0  0
 12 13  1  0  0  0  0
 12 38  1  0  0  0  0
 12 39  1  0  0  0  0
 13 18  1  0  0  0  0
 13 14  2  0  0  0  0
 14 15  1  0  0  0  0
 14 40  1  0  0  0  0
 15 16  2  0  0  0  0
 15 41  1  0  0  0  0
 16 17  1  0  0  0  0
 16 42  1  0  0  0  0
 17 18  2  0  0  0  0
 17 43  1  0  0  0  0
M  CHG  1   4   1
M  CHG  1  10   1
M  END
> <s_m_source_file>
AV-unprocessed.smi

> <i_m_source_file_index>
3303

> <i_lp_mmshare_version>
43012

> <i_f3d_flags>
0

> <s_epik_input>
W0NIM11bQ0BASF0xW0NIMl1OKFtDSDNdKVtDQEBIXShbQ0gzXSlbQ0gyXVtDQEhdMVtOSF1bQ0gyXVtDSDJdYzJbY0hdW2NIXVtjSF1bY0hdbjI=

> <s_epik_cmdline>
J2VwaWtfcHl0aG9uJywgJy1waCcsICc3LjAnLCAnLXRuJywgJzgnLCAnLW1hJywgJzIwMCcsICctbWV0YWxfYmluZGluZycsICctaW1hZScsICc8aW5maWxlLm1hZT4nLCAnLW9tYWUnLCAnPG91dGZpbGUubWFlPic=

> <r_epik_Ionization_Penalty>
0.0769462

> <r_epik_Ionization_Penalty_Charging>
0.0759813

> <r_epik_Ionization_Penalty_Neutral>
0.000964829

> <r_epik_State_Penalty>
0.0654373

> <r_epik_Charging_Adjusted_Penalty>
0.141419

> <i_epik_Tot_Q>
2

> <i_epik_Tot_abs_Q>
2

> <r_epik_Metal_State_Penalty>
0.0656439

> <b_epik_Metal_Only>
0

> <s_lp_Force_Field>
OPLS_2005

> <r_lp_Energy>
31.612

> <b_lp_Chiralities_Consistent>
1

> <s_lp_Variant>
AV-unprocessed.smi:3303-11

> <Gold.Version>
5.8.1

> <Gold.Id.Protein>
6NUR|6NUR_protein|mol2

> <Gold.PLP.Fitness>
49.5987

> <Gold.PLP.PLP>
-45.3008

> <Gold.PLP.part.hbond>
-1.0000

> <Gold.PLP.part.metal>
0.0000

> <Gold.PLP.part.buried>
-1.8771

> <Gold.PLP.part.nonpolar>
-42.0394

> <Gold.PLP.part.repulsive>
0.1951

> <Gold.PLP.ligand.clash>
0.0000

> <Gold.PLP.ligand.torsion>
0.8594

> <Gold.PLP.Chemscore.Hbond>
2.0000

> <Gold.PLP.Chemscore.CHOScore>
0.0000

> <Gold.PLP.Chemscore.Metal>
0.0000

> <Gold.Chemscore.Hbonds>
donor molecule, donor type, donor heavy atom, donor atom, acceptor molecule, acceptor atom, score
      L1  H    10    35       P1  8028  2.00

> <Gold.PLP.Chemscore.Internal.Correction>
0.0166

> <Gold.Rescore>
     Score         DG    S(hbond)    S(metal)    S(lipo)     H(rot)  DE(clash)    DE(int)     intcor
     19.44     -20.40       1.00        0.00     129.09       1.37       0.06       0.90       ----

> <Gold.Chemscore.Fitness>
19.4404

> <Gold.Chemscore.DG>
-20.4003

> <Gold.Chemscore.ZeroCoef>
-5.4800

> <Gold.Chemscore.Hbond>
0.9985

> <Gold.Chemscore.Metal>
0.0000

> <Gold.Chemscore.Lipo>
129.0931

> <Gold.Chemscore.Internal_Hbond>
0.0000

> <Gold.Chemscore.DEClash>
0.0573

> <Gold.Chemscore.DEInternal>
0.9025

> <Gold.Chemscore.Rot>
1.3744

> <Gold.Chemscore.Internal.Correction>
   9.000000E+99

> <Gold.Chemscore.Hbonds>
donor molecule, donor type, donor heavy atom, donor atom, acceptor molecule, acceptor atom, score
      L1  H    10    35       P1  8028  0.99

> <Gold.Chemscore.Hbond.Weighted>
-3.3348

> <Gold.Chemscore.Metal.Weighted>
-0.0000

> <Gold.Chemscore.Lipo.Weighted>
-15.1039

> <Gold.Chemscore.Internal_Hbond.Weighted>
0.0000

> <Gold.Chemscore.DEClash.Weighted>
0.0573

> <Gold.Chemscore.DEInternal.Weighted>
0.9025

> <Gold.Chemscore.Rot.Weighted>
3.5185

> <Gold.Chemscore.Internal.Correction.Weighted>
   9.000000E+99

> <Gold.Protein.RotatedTorsions>
[ 6907 6896 6895 6894 ] final  127.66 input  -60.11 | X-H torsion
[ 7974 7965 7964 7962 ] final   91.54 input  175.53 | X-H torsion
[ 8008 7997 7996 7995 ] final   46.02 input   59.86 | X-H torsion
[ 10167 10162 10161 10158 ] final   65.43 input  -65.29 | X-H torsion
[ 10718 10713 10712 10709 ] final   36.55 input   66.30 | X-H torsion
[ 10763 10752 10751 10750 ] final   49.33 input  -60.55 | X-H torsion
[ 11005 11000 10999 10996 ] final  168.50 input  -57.11 | X-H torsion

> <Gold.Protein.ActiveResidues>
 VAL166  LYS551  ARG553  GLY616  TRP617  ASP618  TYR619  PRO620  LYS621  CYS622 
 ASP623  PHE694  ASN695  SER759  ASP760  ASP761  ALA762  ILE779  LEU786  VAL792 
 PHE793  MET794  SER795  GLU796  ALA797  LYS798  CYS799  TRP800  GLU811  SER814 

> <Gold.Protein.RotatedAtoms>
  152.3792  133.6523  159.6147 H   0  0  0  0  0  0  0  0  0  0  0  0  # atno 6907 bound_to 6896
  150.7728  133.9142  159.3387 H   0  0  0  0  0  0  0  0  0  0  0  0  # atno 6908 bound_to 6896
  151.6951  135.0941  160.0292 H   0  0  0  0  0  0  0  0  0  0  0  0  # atno 6909 bound_to 6896
  145.5043  139.2276  143.2760 H   0  0  0  0  0  0  0  0  0  0  0  0  # atno 7974 bound_to 7965
  155.3456  140.3410  155.4239 H   0  0  0  0  0  0  0  0  0  0  0  0  # atno 8008 bound_to 7997
  156.1791  140.1657  156.8344 H   0  0  0  0  0  0  0  0  0  0  0  0  # atno 8009 bound_to 7997
  154.5313  140.0744  156.8333 H   0  0  0  0  0  0  0  0  0  0  0  0  # atno 8010 bound_to 7997
  140.1114  144.4814  150.6975 H   0  0  0  0  0  0  0  0  0  0  0  0  # atno 10167 bound_to 10162
  157.3362  130.7523  149.6880 H   0  0  0  0  0  0  0  0  0  0  0  0  # atno 10718 bound_to 10713
  152.9787  135.5915  154.4071 H   0  0  0  0  0  0  0  0  0  0  0  0  # atno 10763 bound_to 10752
  154.3711  135.2767  155.2268 H   0  0  0  0  0  0  0  0  0  0  0  0  # atno 10764 bound_to 10752
  154.4223  135.6056  153.6072 H   0  0  0  0  0  0  0  0  0  0  0  0  # atno 10765 bound_to 10752
  140.2879  134.7697  157.3813 H   0  0  0  0  0  0  0  0  0  0  0  0  # atno 11005 bound_to 11000
  146.2206  140.5846  142.9019 LP  0  0  0  0  0  0  0  0  0  0  0  0  # atno 17320 bound_to 7965
  144.7762  140.5745  143.6636 LP  0  0  0  0  0  0  0  0  0  0  0  0  # atno 17321 bound_to 7965
  140.6923  143.2383  151.5096 LP  0  0  0  0  0  0  0  0  0  0  0  0  # atno 17342 bound_to 10162
  139.5617  144.2140  152.1702 LP  0  0  0  0  0  0  0  0  0  0  0  0  # atno 17343 bound_to 10162
  155.9702  130.4181  150.4310 LP  0  0  0  0  0  0  0  0  0  0  0  0  # atno 17370 bound_to 10713
  157.2351  131.0513  151.2470 LP  0  0  0  0  0  0  0  0  0  0  0  0  # atno 17371 bound_to 10713
  140.1223  134.5204  155.8174 LP  0  0  0  0  0  0  0  0  0  0  0  0  # atno 17394 bound_to 11000
  141.2151  133.6760  156.6888 LP  0  0  0  0  0  0  0  0  0  0  0  0  # atno 17395 bound_to 11000

$$$$
