AV-unprocessed.smi:1165|AV-procd|sdf|4932|dock8
  -GOLD-   22720 3513D 1   1.00000     0.00000
 Structure written by MMmdl.
 40 41  0  0  0  0  0  0  0  0  2 V2000
  156.9351  135.7059  160.6033 C   0  0  0  0  0  0  0  0  0  0  0  0
  155.6275  136.5003  160.6931 C   0  0  1  0  0  0  0  0  0  0  0  0
  154.8123  136.4203  159.3896 C   0  0  0  0  0  0  0  0  0  0  0  0
  153.5042  137.0810  159.5311 N   0  0  0  0  0  0  0  0  0  0  0  0
  152.5735  137.2727  158.0773 S   0  0  0  0  0  0  0  0  0  0  0  0
  153.2271  136.4478  157.0483 O   0  0  0  0  0  0  0  0  0  0  0  0
  151.1887  136.9345  158.4458 O   0  0  0  0  0  0  0  0  0  0  0  0
  152.8411  138.8588  157.8615 N   0  5  0  0  0  0  0  0  0  0  0  0
  151.9040  139.8234  158.4155 C   0  0  0  0  0  0  0  0  0  0  0  0
  151.8424  141.0936  157.5356 C   0  0  0  0  0  0  0  0  0  0  0  0
  151.8164  142.4133  158.2998 C   0  0  0  0  0  0  0  0  0  0  0  0
  152.2608  142.4968  159.6376 C   0  0  0  0  0  0  0  0  0  0  0  0
  152.2194  143.7428  160.2919 C   0  0  0  0  0  0  0  0  0  0  0  0
  151.7312  144.8569  159.5808 C   0  0  0  0  0  0  0  0  0  0  0  0
  151.2920  144.7906  158.3060 N   0  0  0  0  0  0  0  0  0  0  0  0
  151.3353  143.5916  157.6866 C   0  0  0  0  0  0  0  0  0  0  0  0
  152.7787  136.6659  160.7482 C   0  0  0  0  0  0  0  0  0  0  0  0
  153.6803  136.7258  161.9937 C   0  0  1  0  0  0  0  0  0  0  0  0
  152.9813  136.1567  163.2332 C   0  0  0  0  0  0  0  0  0  0  0  0
  154.8618  135.9718  161.7657 O   0  0  0  0  0  0  0  0  0  0  0  0
  157.5698  136.0845  159.8015 H   0  0  0  0  0  0  0  0  0  0  0  0
  156.7433  134.6506  160.4084 H   0  0  0  0  0  0  0  0  0  0  0  0
  157.4979  135.7763  161.5341 H   0  0  0  0  0  0  0  0  0  0  0  0
  155.8736  137.5423  160.9059 H   0  0  0  0  0  0  0  0  0  0  0  0
  155.3743  136.8877  158.5811 H   0  0  0  0  0  0  0  0  0  0  0  0
  154.6482  135.3799  159.1062 H   0  0  0  0  0  0  0  0  0  0  0  0
  150.9020  139.3982  158.4731 H   0  0  0  0  0  0  0  0  0  0  0  0
  152.1559  140.1075  159.4380 H   0  0  0  0  0  0  0  0  0  0  0  0
  152.6869  141.1017  156.8452 H   0  0  0  0  0  0  0  0  0  0  0  0
  150.9504  141.0489  156.9102 H   0  0  0  0  0  0  0  0  0  0  0  0
  152.6341  141.6229  160.1507 H   0  0  0  0  0  0  0  0  0  0  0  0
  152.5574  143.8425  161.3124 H   0  0  0  0  0  0  0  0  0  0  0  0
  151.6877  145.8281  160.0513 H   0  0  0  0  0  0  0  0  0  0  0  0
  150.9778  143.5726  156.6679 H   0  0  0  0  0  0  0  0  0  0  0  0
  151.9108  137.3045  160.9055 H   0  0  0  0  0  0  0  0  0  0  0  0
  152.4031  135.6523  160.6018 H   0  0  0  0  0  0  0  0  0  0  0  0
  153.9499  137.7636  162.1977 H   0  0  0  0  0  0  0  0  0  0  0  0
  152.0699  136.7110  163.4582 H   0  0  0  0  0  0  0  0  0  0  0  0
  153.6298  136.2136  164.1077 H   0  0  0  0  0  0  0  0  0  0  0  0
  152.7091  135.1109  163.0870 H   0  0  0  0  0  0  0  0  0  0  0  0
  1  2  1  0  0  0  0
  1 21  1  0  0  0  0
  1 22  1  0  0  0  0
  1 23  1  0  0  0  0
  2 20  1  0  0  0  0
  2  3  1  0  0  0  0
  2 24  1  0  0  0  0
  3  4  1  0  0  0  0
  3 25  1  0  0  0  0
  3 26  1  0  0  0  0
  4  5  1  0  0  0  0
  4 17  1  0  0  0  0
  5  6  2  0  0  0  0
  5  7  2  0  0  0  0
  5  8  1  0  0  0  0
  8  9  1  0  0  0  0
  9 10  1  0  0  0  0
  9 27  1  0  0  0  0
  9 28  1  0  0  0  0
 10 11  1  0  0  0  0
 10 29  1  0  0  0  0
 10 30  1  0  0  0  0
 11 16  1  0  0  0  0
 11 12  2  0  0  0  0
 12 13  1  0  0  0  0
 12 31  1  0  0  0  0
 13 14  2  0  0  0  0
 13 32  1  0  0  0  0
 14 15  1  0  0  0  0
 14 33  1  0  0  0  0
 15 16  2  0  0  0  0
 16 34  1  0  0  0  0
 17 18  1  0  0  0  0
 17 35  1  0  0  0  0
 17 36  1  0  0  0  0
 18 19  1  0  0  0  0
 18 20  1  0  0  0  0
 18 37  1  0  0  0  0
 19 38  1  0  0  0  0
 19 39  1  0  0  0  0
 19 40  1  0  0  0  0
M  CHG  1   8  -1
M  END
> <s_m_source_file>
AV-unprocessed.smi

> <i_m_source_file_index>
1165

> <i_lp_mmshare_version>
43012

> <i_f3d_flags>
0

> <s_epik_input>
W0NIM11bQ0BASF0xW0NIMl1OKFtDSDJdW0NASF0oTzEpW0NIM10pUyg9TykoPU8pW05IXVtDSDJdW0NIMl1jMltjSF1bY0hdW2NIXW5bY0hdMg==

> <s_epik_cmdline>
J2VwaWtfcHl0aG9uJywgJy1waCcsICc3LjAnLCAnLXRuJywgJzgnLCAnLW1hJywgJzIwMCcsICctbWV0YWxfYmluZGluZycsICctaW1hZScsICc8aW5maWxlLm1hZT4nLCAnLW9tYWUnLCAnPG91dGZpbGUubWFlPic=

> <r_epik_Ionization_Penalty>
1.23471

> <r_epik_Ionization_Penalty_Charging>
1.20871

> <r_epik_Ionization_Penalty_Neutral>
0.025996

> <r_epik_State_Penalty>
1.46261

> <r_epik_Charging_Adjusted_Penalty>
2.67132

> <i_epik_Tot_Q>
-1

> <i_epik_Tot_abs_Q>
1

> <r_epik_Metal_State_Penalty>
0.521406

> <b_epik_Metal_Only>
0

> <s_lp_Force_Field>
OPLS_2005

> <r_lp_Energy>
1.53282

> <b_lp_Chiralities_Consistent>
1

> <s_lp_Variant>
AV-unprocessed.smi:1165-5

> <Gold.Version>
5.8.1

> <Gold.Id.Protein>
6NUR|6NUR_protein|mol2

> <Gold.PLP.Fitness>
44.2804

> <Gold.PLP.PLP>
-31.8351

> <Gold.PLP.part.hbond>
-2.9947

> <Gold.PLP.part.metal>
0.0000

> <Gold.PLP.part.buried>
-4.9807

> <Gold.PLP.part.nonpolar>
-24.3995

> <Gold.PLP.part.repulsive>
0.1511

> <Gold.PLP.ligand.clash>
0.0000

> <Gold.PLP.ligand.torsion>
1.5526

> <Gold.PLP.Chemscore.Hbond>
3.7020

> <Gold.PLP.Chemscore.CHOScore>
0.9952

> <Gold.PLP.Chemscore.Metal>
0.0000

> <Gold.Chemscore.Hbonds>
donor molecule, donor type, donor heavy atom, donor atom, acceptor molecule, acceptor atom, score
      P1  H  6896  6907       L1     7  0.24
      P1  H  7997  8008       L1     8  0.91
      P1  H 10752 10765       L1     6  0.96
      L1  C    16    34       P1  8028  0.86

> <Gold.PLP.Chemscore.Internal.Correction>
1.4590

> <Gold.Rescore>
     Score         DG    S(hbond)    S(metal)    S(lipo)     H(rot)  DE(clash)    DE(int)     intcor
     18.68     -20.31       2.41        0.00      90.31       1.47       0.06       1.58       ----

> <Gold.Chemscore.Fitness>
18.6755

> <Gold.Chemscore.DG>
-20.3105

> <Gold.Chemscore.ZeroCoef>
-5.4800

> <Gold.Chemscore.Hbond>
2.4059

> <Gold.Chemscore.Metal>
0.0000

> <Gold.Chemscore.Lipo>
90.3074

> <Gold.Chemscore.Internal_Hbond>
0.0000

> <Gold.Chemscore.DEClash>
0.0576

> <Gold.Chemscore.DEInternal>
1.5773

> <Gold.Chemscore.Rot>
1.4731

> <Gold.Chemscore.Internal.Correction>
   9.000000E+99

> <Gold.Chemscore.Hbonds>
donor molecule, donor type, donor heavy atom, donor atom, acceptor molecule, acceptor atom, score
      P1  H  6896  6907       L1     7  0.12
      P1  H  7997  8008       L1     8  0.28
      P1  H 10752 10765       L1     6  0.90

> <Gold.Chemscore.Hbond.Weighted>
-8.0357

> <Gold.Chemscore.Metal.Weighted>
-0.0000

> <Gold.Chemscore.Lipo.Weighted>
-10.5660

> <Gold.Chemscore.Internal_Hbond.Weighted>
0.0000

> <Gold.Chemscore.DEClash.Weighted>
0.0576

> <Gold.Chemscore.DEInternal.Weighted>
1.5773

> <Gold.Chemscore.Rot.Weighted>
3.7712

> <Gold.Chemscore.Internal.Correction.Weighted>
   9.000000E+99

> <Gold.Protein.RotatedTorsions>
[ 6907 6896 6895 6894 ] final  -12.59 input  -60.11 | X-H torsion
[ 7974 7965 7964 7962 ] final -150.55 input  175.53 | X-H torsion
[ 8008 7997 7996 7995 ] final  -77.84 input   59.86 | X-H torsion
[ 10167 10162 10161 10158 ] final    2.07 input  -65.29 | X-H torsion
[ 10718 10713 10712 10709 ] final  164.84 input   66.30 | X-H torsion
[ 10763 10752 10751 10750 ] final -110.68 input  -60.55 | X-H torsion
[ 11005 11000 10999 10996 ] final -130.22 input  -57.11 | X-H torsion

> <Gold.Protein.ActiveResidues>
 VAL166  LYS551  ARG553  GLY616  TRP617  ASP618  TYR619  PRO620  LYS621  CYS622 
 ASP623  PHE694  ASN695  SER759  ASP760  ASP761  ALA762  ILE779  LEU786  VAL792 
 PHE793  MET794  SER795  GLU796  ALA797  LYS798  CYS799  TRP800  GLU811  SER814 

> <Gold.Protein.RotatedAtoms>
  151.3681  135.0917  159.9456 H   0  0  0  0  0  0  0  0  0  0  0  0  # atno 6907 bound_to 6896
  152.5143  133.9191  159.7536 H   0  0  0  0  0  0  0  0  0  0  0  0  # atno 6908 bound_to 6896
  150.9599  133.6401  159.2785 H   0  0  0  0  0  0  0  0  0  0  0  0  # atno 6909 bound_to 6896
  144.7901  140.4917  143.5779 H   0  0  0  0  0  0  0  0  0  0  0  0  # atno 7974 bound_to 7965
  154.5633  140.0704  156.8853 H   0  0  0  0  0  0  0  0  0  0  0  0  # atno 8008 bound_to 7997
  155.2769  140.3369  155.4243 H   0  0  0  0  0  0  0  0  0  0  0  0  # atno 8009 bound_to 7997
  156.2060  140.1740  156.7784 H   0  0  0  0  0  0  0  0  0  0  0  0  # atno 8010 bound_to 7997
  140.6652  143.7197  150.7814 H   0  0  0  0  0  0  0  0  0  0  0  0  # atno 10167 bound_to 10162
  157.0887  131.0412  151.2546 H   0  0  0  0  0  0  0  0  0  0  0  0  # atno 10718 bound_to 10713
  154.8260  135.4555  154.0922 H   0  0  0  0  0  0  0  0  0  0  0  0  # atno 10763 bound_to 10752
  153.2235  135.6897  153.7979 H   0  0  0  0  0  0  0  0  0  0  0  0  # atno 10764 bound_to 10752
  153.7387  135.3316  155.3276 H   0  0  0  0  0  0  0  0  0  0  0  0  # atno 10765 bound_to 10752
  140.9364  134.1251  157.4190 H   0  0  0  0  0  0  0  0  0  0  0  0  # atno 11005 bound_to 11000
  145.5817  139.1489  143.3231 LP  0  0  0  0  0  0  0  0  0  0  0  0  # atno 17320 bound_to 7965
  146.2149  140.5947  142.9043 LP  0  0  0  0  0  0  0  0  0  0  0  0  # atno 17321 bound_to 7965
  140.0873  143.4911  152.2498 LP  0  0  0  0  0  0  0  0  0  0  0  0  # atno 17342 bound_to 10162
  139.5899  144.7546  151.3427 LP  0  0  0  0  0  0  0  0  0  0  0  0  # atno 17343 bound_to 10162
  157.4739  130.7725  149.7350 LP  0  0  0  0  0  0  0  0  0  0  0  0  # atno 17370 bound_to 10713
  155.9904  130.3945  150.3031 LP  0  0  0  0  0  0  0  0  0  0  0  0  # atno 17371 bound_to 10713
  139.8809  135.0022  156.6114 LP  0  0  0  0  0  0  0  0  0  0  0  0  # atno 17394 bound_to 11000
  140.7793  133.8673  155.8555 LP  0  0  0  0  0  0  0  0  0  0  0  0  # atno 17395 bound_to 11000

$$$$
