AV-unprocessed.smi:2669|AV-procd|sdf|10343|dock10
  -GOLD-   2272014363D 1   1.00000     0.00000
 Structure written by MMmdl.
 39 41  0  0  0  0  0  0  0  0  1 V2000
  150.1709  143.2978  158.3726 C   0  0  0  0  0  0  0  0  0  0  0  0
  149.8696  142.0962  157.6107 N   0  0  0  0  0  0  0  0  0  0  0  0
  150.8697  141.1492  157.3500 C   0  0  0  0  0  0  0  0  0  0  0  0
  151.8343  140.9172  158.2707 N   0  0  0  0  0  0  0  0  0  0  0  0
  152.7729  140.0076  157.9795 C   0  0  0  0  0  0  0  0  0  0  0  0
  152.9118  139.2598  156.8740 N   0  0  0  0  0  0  0  0  0  0  0  0
  151.9596  139.4794  155.9572 C   0  0  0  0  0  0  0  0  0  0  0  0
  151.8569  138.8501  154.7285 N   0  0  0  0  0  0  0  0  0  0  0  0
  150.7639  139.4177  154.2252 C   0  0  0  0  0  0  0  0  0  0  0  0
  150.1384  140.3428  154.9791 N   0  0  0  0  0  0  0  0  0  0  0  0
  148.9351  141.0729  154.6165 C   0  0  0  0  0  0  0  0  0  0  0  0
  147.7236  140.1461  154.3925 C   0  0  2  0  0  0  0  0  0  0  0  0
  147.8005  139.5460  153.1145 O   0  0  0  0  0  0  0  0  0  0  0  0
  146.3865  140.8942  154.4966 C   0  0  0  0  0  0  0  0  0  0  0  0
  146.4436  142.0579  153.6822 O   0  0  0  0  0  0  0  0  0  0  0  0
  145.5705  143.0889  153.9539 C   0  0  0  0  0  0  0  0  0  0  0  0
  145.4310  144.0857  152.9661 C   0  0  0  0  0  0  0  0  0  0  0  0
  144.5600  145.1753  153.1586 C   0  0  0  0  0  0  0  0  0  0  0  0
  143.8157  145.2789  154.3485 C   0  0  0  0  0  0  0  0  0  0  0  0
  142.7464  146.6116  154.5874 Cl  0  0  0  0  0  0  0  0  0  0  0  0
  143.9460  144.2921  155.3435 C   0  0  0  0  0  0  0  0  0  0  0  0
  144.8178  143.2027  155.1504 C   0  0  0  0  0  0  0  0  0  0  0  0
  150.9017  140.4200  156.1438 C   0  0  0  0  0  0  0  0  0  0  0  0
  149.2942  143.9442  158.4099 H   0  0  0  0  0  0  0  0  0  0  0  0
  150.9862  143.8560  157.9112 H   0  0  0  0  0  0  0  0  0  0  0  0
  150.4529  143.0454  159.3952 H   0  0  0  0  0  0  0  0  0  0  0  0
  148.9819  142.0276  157.1339 H   0  0  0  0  0  0  0  0  0  0  0  0
  153.5235  139.8549  158.7406 H   0  0  0  0  0  0  0  0  0  0  0  0
  150.3937  139.1438  153.2480 H   0  0  0  0  0  0  0  0  0  0  0  0
  148.7178  141.7806  155.4177 H   0  0  0  0  0  0  0  0  0  0  0  0
  149.1346  141.6748  153.7306 H   0  0  0  0  0  0  0  0  0  0  0  0
  147.7397  139.3429  155.1306 H   0  0  0  0  0  0  0  0  0  0  0  0
  148.4741  139.9836  152.6164 H   0  0  0  0  0  0  0  0  0  0  0  0
  145.5682  140.2421  154.1857 H   0  0  0  0  0  0  0  0  0  0  0  0
  146.2105  141.1886  155.5328 H   0  0  0  0  0  0  0  0  0  0  0  0
  145.9977  144.0138  152.0492 H   0  0  0  0  0  0  0  0  0  0  0  0
  144.4642  145.9300  152.3918 H   0  0  0  0  0  0  0  0  0  0  0  0
  143.3767  144.3687  156.2582 H   0  0  0  0  0  0  0  0  0  0  0  0
  144.8907  142.4673  155.9369 H   0  0  0  0  0  0  0  0  0  0  0  0
  1  2  1  0  0  0  0
  1 24  1  0  0  0  0
  1 25  1  0  0  0  0
  1 26  1  0  0  0  0
  2  3  1  0  0  0  0
  2 27  1  0  0  0  0
  3 23  1  0  0  0  0
  3  4  2  0  0  0  0
  4  5  1  0  0  0  0
  5  6  2  0  0  0  0
  5 28  1  0  0  0  0
  6  7  1  0  0  0  0
  7 23  2  0  0  0  0
  7  8  1  0  0  0  0
  8  9  2  0  0  0  0
  9 10  1  0  0  0  0
  9 29  1  0  0  0  0
 10 11  1  0  0  0  0
 10 23  1  0  0  0  0
 11 12  1  0  0  0  0
 11 30  1  0  0  0  0
 11 31  1  0  0  0  0
 12 13  1  0  0  0  0
 12 14  1  0  0  0  0
 12 32  1  0  0  0  0
 13 33  1  0  0  0  0
 14 15  1  0  0  0  0
 14 34  1  0  0  0  0
 14 35  1  0  0  0  0
 15 16  1  0  0  0  0
 16 22  1  0  0  0  0
 16 17  2  0  0  0  0
 17 18  1  0  0  0  0
 17 36  1  0  0  0  0
 18 19  2  0  0  0  0
 18 37  1  0  0  0  0
 19 20  1  0  0  0  0
 19 21  1  0  0  0  0
 21 22  2  0  0  0  0
 21 38  1  0  0  0  0
 22 39  1  0  0  0  0
M  END
> <s_m_source_file>
AV-unprocessed.smi

> <i_m_source_file_index>
2669

> <i_lp_mmshare_version>
43012

> <i_f3d_flags>
0

> <s_epik_input>
bjFbY0hdbmMoW05IXVtDSDNdKWMoYzEyKW4oW2NIXW4yKVtDSDJdW0NASF0oW09IXSlbQ0gyXU9jM1tjSF1bY0hdYyhDbClbY0hdW2NIXTM=

> <s_epik_cmdline>
J2VwaWtfcHl0aG9uJywgJy1waCcsICc3LjAnLCAnLXRuJywgJzgnLCAnLW1hJywgJzIwMCcsICctbWV0YWxfYmluZGluZycsICctaW1hZScsICc8aW5maWxlLm1hZT4nLCAnLW9tYWUnLCAnPG91dGZpbGUubWFlPic=

> <r_lp_tautomer_probability>
1

> <r_epik_Ionization_Penalty>
0.00733592

> <r_epik_Ionization_Penalty_Charging>
0

> <r_epik_Ionization_Penalty_Neutral>
0.00733592

> <r_epik_State_Penalty>
-0

> <r_epik_Charging_Adjusted_Penalty>
0

> <i_epik_Tot_Q>
0

> <i_epik_Tot_abs_Q>
0

> <r_epik_Metal_State_Penalty>
-0

> <b_epik_Metal_Only>
0

> <s_lp_Force_Field>
OPLS_2005

> <r_lp_Energy>
12.7517

> <b_lp_Chiralities_Consistent>
1

> <s_lp_Variant>
AV-unprocessed.smi:2669-1

> <Gold.Version>
5.8.1

> <Gold.Id.Protein>
6NUR|6NUR_protein|mol2

> <Gold.PLP.Fitness>
48.2523

> <Gold.PLP.PLP>
-41.2460

> <Gold.PLP.part.hbond>
-2.0000

> <Gold.PLP.part.metal>
0.0000

> <Gold.PLP.part.buried>
-3.7921

> <Gold.PLP.part.nonpolar>
-35.5417

> <Gold.PLP.part.repulsive>
0.3248

> <Gold.PLP.ligand.clash>
0.0000

> <Gold.PLP.ligand.torsion>
0.7631

> <Gold.PLP.Chemscore.Hbond>
1.8640

> <Gold.PLP.Chemscore.CHOScore>
0.9723

> <Gold.PLP.Chemscore.Metal>
0.0000

> <Gold.Chemscore.Hbonds>
donor molecule, donor type, donor heavy atom, donor atom, acceptor molecule, acceptor atom, score
      L1  H    13    33       P1  7957  0.99
      P1  H  7997  8009       L1     6  0.60
      L1  C     9    29       P1  7957  1.00

> <Gold.PLP.Chemscore.Internal.Correction>
0.0237

> <Gold.Rescore>
     Score         DG    S(hbond)    S(metal)    S(lipo)     H(rot)  DE(clash)    DE(int)     intcor
      8.51     -10.18       0.97        0.00      77.61       2.97       0.75       0.91       ----

> <Gold.Chemscore.Fitness>
8.5106

> <Gold.Chemscore.DG>
-10.1779

> <Gold.Chemscore.ZeroCoef>
-5.4800

> <Gold.Chemscore.Hbond>
0.9677

> <Gold.Chemscore.Metal>
0.0000

> <Gold.Chemscore.Lipo>
77.6140

> <Gold.Chemscore.Internal_Hbond>
0.0000

> <Gold.Chemscore.DEClash>
0.7539

> <Gold.Chemscore.DEInternal>
0.9134

> <Gold.Chemscore.Rot>
2.9746

> <Gold.Chemscore.Internal.Correction>
   9.000000E+99

> <Gold.Chemscore.Hbonds>
donor molecule, donor type, donor heavy atom, donor atom, acceptor molecule, acceptor atom, score
      L1  H    13    33       P1  7957  0.94
      P1  H  7997  8009       L1     6  0.03

> <Gold.Chemscore.Hbond.Weighted>
-3.2321

> <Gold.Chemscore.Metal.Weighted>
-0.0000

> <Gold.Chemscore.Lipo.Weighted>
-9.0808

> <Gold.Chemscore.Internal_Hbond.Weighted>
0.0000

> <Gold.Chemscore.DEClash.Weighted>
0.7539

> <Gold.Chemscore.DEInternal.Weighted>
0.9134

> <Gold.Chemscore.Rot.Weighted>
7.6150

> <Gold.Chemscore.Internal.Correction.Weighted>
   9.000000E+99

> <Gold.Protein.RotatedTorsions>
[ 6907 6896 6895 6894 ] final   44.07 input  -60.11 | X-H torsion
[ 7974 7965 7964 7962 ] final   -3.21 input  175.53 | X-H torsion
[ 8008 7997 7996 7995 ] final -164.81 input   59.86 | X-H torsion
[ 10167 10162 10161 10158 ] final   20.80 input  -65.29 | X-H torsion
[ 10718 10713 10712 10709 ] final  -52.79 input   66.30 | X-H torsion
[ 10763 10752 10751 10750 ] final   -7.27 input  -60.55 | X-H torsion
[ 11005 11000 10999 10996 ] final   47.03 input  -57.11 | X-H torsion

> <Gold.Protein.ActiveResidues>
 VAL166  LYS551  ARG553  GLY616  TRP617  ASP618  TYR619  PRO620  LYS621  CYS622 
 ASP623  PHE694  ASN695  SER759  ASP760  ASP761  ALA762  ILE779  LEU786  VAL792 
 PHE793  MET794  SER795  GLU796  ALA797  LYS798  CYS799  TRP800  GLU811  SER814 

> <Gold.Protein.RotatedAtoms>
  152.2281  134.8349  160.0477 H   0  0  0  0  0  0  0  0  0  0  0  0  # atno 6907 bound_to 6896
  151.9108  133.3555  159.3871 H   0  0  0  0  0  0  0  0  0  0  0  0  # atno 6908 bound_to 6896
  150.7018  134.4660  159.5447 H   0  0  0  0  0  0  0  0  0  0  0  0  # atno 6909 bound_to 6896
  146.2393  140.1686  142.8332 H   0  0  0  0  0  0  0  0  0  0  0  0  # atno 7974 bound_to 7965
  155.8409  140.0948  157.1735 H   0  0  0  0  0  0  0  0  0  0  0  0  # atno 8008 bound_to 7997
  154.3982  140.1401  156.3789 H   0  0  0  0  0  0  0  0  0  0  0  0  # atno 8009 bound_to 7997
  155.8065  140.3451  155.5435 H   0  0  0  0  0  0  0  0  0  0  0  0  # atno 8010 bound_to 7997
  140.5476  143.9567  150.6557 H   0  0  0  0  0  0  0  0  0  0  0  0  # atno 10167 bound_to 10162
  156.1591  130.4150  149.9821 H   0  0  0  0  0  0  0  0  0  0  0  0  # atno 10718 bound_to 10713
  153.4240  135.7010  153.6275 H   0  0  0  0  0  0  0  0  0  0  0  0  # atno 10763 bound_to 10752
  153.4718  135.3713  155.2395 H   0  0  0  0  0  0  0  0  0  0  0  0  # atno 10764 bound_to 10752
  154.8723  135.4045  154.3613 H   0  0  0  0  0  0  0  0  0  0  0  0  # atno 10765 bound_to 10752
  140.1315  134.4699  155.8518 H   0  0  0  0  0  0  0  0  0  0  0  0  # atno 11005 bound_to 11000
  145.0030  140.8648  143.5270 LP  0  0  0  0  0  0  0  0  0  0  0  0  # atno 17320 bound_to 7965
  145.1708  139.2405  143.5343 LP  0  0  0  0  0  0  0  0  0  0  0  0  # atno 17321 bound_to 7965
  140.2984  143.3277  152.0995 LP  0  0  0  0  0  0  0  0  0  0  0  0  # atno 17342 bound_to 10162
  139.5013  144.6712  151.6239 LP  0  0  0  0  0  0  0  0  0  0  0  0  # atno 17343 bound_to 10162
  156.7656  130.9167  151.3643 LP  0  0  0  0  0  0  0  0  0  0  0  0  # atno 17370 bound_to 10713
  157.6718  130.9058  150.0059 LP  0  0  0  0  0  0  0  0  0  0  0  0  # atno 17371 bound_to 10713
  141.2171  133.6798  156.7078 LP  0  0  0  0  0  0  0  0  0  0  0  0  # atno 17394 bound_to 11000
  140.2836  134.8297  157.3955 LP  0  0  0  0  0  0  0  0  0  0  0  0  # atno 17395 bound_to 11000

$$$$
