AV-unprocessed.smi:1629|AV-procd|sdf|6521|dock4
  -GOLD-   22720 7193D 1   1.00000     0.00000
 Structure written by MMmdl.
 44 45  0  0  0  0  0  0  0  0  1 V2000
  146.5238  138.6658  151.9547 C   0  0  0  0  0  0  0  0  0  0  0  0
  147.0869  139.3122  153.5799 S   0  0  0  0  0  0  0  0  0  0  0  0
  147.4866  140.7187  153.4213 O   0  0  0  0  0  0  0  0  0  0  0  0
  146.0975  138.9313  154.5995 O   0  0  0  0  0  0  0  0  0  0  0  0
  148.5206  138.3945  153.8637 N   0  0  0  0  0  0  0  0  0  0  0  0
  149.8054  139.0872  154.0046 C   0  0  0  0  0  0  0  0  0  0  0  0
  150.9402  138.0730  154.2917 C   0  0  0  0  0  0  0  0  0  0  0  0
  152.2343  138.7743  154.7411 C   0  0  0  0  0  0  0  0  0  0  0  0
  151.9222  139.6264  155.8983 N   0  0  0  0  0  0  0  0  0  0  0  0
  152.1212  139.3120  157.2033 C   0  0  0  0  0  0  0  0  0  0  0  0
  152.4914  138.1975  157.5748 O   0  0  0  0  0  0  0  0  0  0  0  0
  151.9155  140.3249  158.0647 N   0  0  0  0  0  0  0  0  0  0  0  0
  152.2309  140.3024  159.4925 C   0  0  0  0  0  0  0  0  0  0  0  0
  153.1208  141.4910  159.9131 C   0  0  0  0  0  0  0  0  0  0  0  0
  152.5026  142.8532  159.6396 C   0  0  0  0  0  0  0  0  0  0  0  0
  152.4399  143.8313  160.6553 C   0  0  0  0  0  0  0  0  0  0  0  0
  151.8090  145.0572  160.3705 C   0  0  0  0  0  0  0  0  0  0  0  0
  151.2744  145.2605  159.0843 C   0  0  0  0  0  0  0  0  0  0  0  0
  151.4020  144.2273  158.1345 C   0  0  0  0  0  0  0  0  0  0  0  0
  152.0051  143.0479  158.3978 N   0  0  0  0  0  0  0  0  0  0  0  0
  151.0513  140.7366  155.5006 C   0  0  0  0  0  0  0  0  0  0  0  0
  149.6796  140.1514  155.1186 C   0  0  0  0  0  0  0  0  0  0  0  0
  145.6037  139.1717  151.6626 H   0  0  0  0  0  0  0  0  0  0  0  0
  146.3381  137.5948  152.0335 H   0  0  0  0  0  0  0  0  0  0  0  0
  147.2915  138.8479  151.2031 H   0  0  0  0  0  0  0  0  0  0  0  0
  148.5952  137.6227  153.2016 H   0  0  0  0  0  0  0  0  0  0  0  0
  150.0292  139.6014  153.0693 H   0  0  0  0  0  0  0  0  0  0  0  0
  150.6262  137.3786  155.0691 H   0  0  0  0  0  0  0  0  0  0  0  0
  151.1409  137.4693  153.4062 H   0  0  0  0  0  0  0  0  0  0  0  0
  153.0160  138.0403  154.9375 H   0  0  0  0  0  0  0  0  0  0  0  0
  152.6206  139.3925  153.9296 H   0  0  0  0  0  0  0  0  0  0  0  0
  151.5970  141.2042  157.6849 H   0  0  0  0  0  0  0  0  0  0  0  0
  151.2983  140.3224  160.0567 H   0  0  0  0  0  0  0  0  0  0  0  0
  152.7232  139.3668  159.7619 H   0  0  0  0  0  0  0  0  0  0  0  0
  153.3395  141.4148  160.9789 H   0  0  0  0  0  0  0  0  0  0  0  0
  154.0838  141.4291  159.4045 H   0  0  0  0  0  0  0  0  0  0  0  0
  152.8478  143.6417  161.6372 H   0  0  0  0  0  0  0  0  0  0  0  0
  151.7308  145.8240  161.1270 H   0  0  0  0  0  0  0  0  0  0  0  0
  150.7806  146.1865  158.8302 H   0  0  0  0  0  0  0  0  0  0  0  0
  151.0067  144.3503  157.1372 H   0  0  0  0  0  0  0  0  0  0  0  0
  150.9380  141.4845  156.2869 H   0  0  0  0  0  0  0  0  0  0  0  0
  151.4865  141.2656  154.6516 H   0  0  0  0  0  0  0  0  0  0  0  0
  149.0087  140.9500  154.7999 H   0  0  0  0  0  0  0  0  0  0  0  0
  149.2269  139.7059  156.0064 H   0  0  0  0  0  0  0  0  0  0  0  0
  1  2  1  0  0  0  0
  1 23  1  0  0  0  0
  1 24  1  0  0  0  0
  1 25  1  0  0  0  0
  2  3  2  0  0  0  0
  2  4  2  0  0  0  0
  2  5  1  0  0  0  0
  5  6  1  0  0  0  0
  5 26  1  0  0  0  0
  6 22  1  0  0  0  0
  6  7  1  0  0  0  0
  6 27  1  0  0  0  0
  7  8  1  0  0  0  0
  7 28  1  0  0  0  0
  7 29  1  0  0  0  0
  8  9  1  0  0  0  0
  8 30  1  0  0  0  0
  8 31  1  0  0  0  0
  9 10  1  0  0  0  0
  9 21  1  0  0  0  0
 10 11  2  0  0  0  0
 10 12  1  0  0  0  0
 12 13  1  0  0  0  0
 12 32  1  0  0  0  0
 13 14  1  0  0  0  0
 13 33  1  0  0  0  0
 13 34  1  0  0  0  0
 14 15  1  0  0  0  0
 14 35  1  0  0  0  0
 14 36  1  0  0  0  0
 15 20  1  0  0  0  0
 15 16  2  0  0  0  0
 16 17  1  0  0  0  0
 16 37  1  0  0  0  0
 17 18  2  0  0  0  0
 17 38  1  0  0  0  0
 18 19  1  0  0  0  0
 18 39  1  0  0  0  0
 19 20  2  0  0  0  0
 19 40  1  0  0  0  0
 21 22  1  0  0  0  0
 21 41  1  0  0  0  0
 21 42  1  0  0  0  0
 22 43  1  0  0  0  0
 22 44  1  0  0  0  0
M  END
> <s_m_source_file>
AV-unprocessed.smi

> <i_m_source_file_index>
1629

> <i_lp_mmshare_version>
43012

> <i_f3d_flags>
0

> <s_epik_input>
W0NIM11TKD1PKSg9TylbTkhdW0NIXTFbQ0gyXVtDSDJdTihbQ0gyXVtDSDJdMSlDKD1PKVtOSF1bQ0gyXVtDSDJdYzJbY0hdW2NIXVtjSF1bY0hdbjI=

> <s_epik_cmdline>
J2VwaWtfcHl0aG9uJywgJy1waCcsICc3LjAnLCAnLXRuJywgJzgnLCAnLW1hJywgJzIwMCcsICctbWV0YWxfYmluZGluZycsICctaW1hZScsICc8aW5maWxlLm1hZT4nLCAnLW9tYWUnLCAnPG91dGZpbGUubWFlPic=

> <r_epik_Ionization_Penalty>
0.044864

> <r_epik_Ionization_Penalty_Charging>
0

> <r_epik_Ionization_Penalty_Neutral>
0.044864

> <r_epik_State_Penalty>
0.0379889

> <r_epik_Charging_Adjusted_Penalty>
0.0379889

> <i_epik_Tot_Q>
0

> <i_epik_Tot_abs_Q>
0

> <r_epik_Metal_State_Penalty>
0.04187

> <b_epik_Metal_Only>
0

> <s_lp_Force_Field>
OPLS_2005

> <r_lp_Energy>
21.9129

> <b_lp_Chiralities_Consistent>
1

> <s_lp_Variant>
AV-unprocessed.smi:1629-1

> <Gold.Version>
5.8.1

> <Gold.Id.Protein>
6NUR|6NUR_protein|mol2

> <Gold.PLP.Fitness>
54.3329

> <Gold.PLP.PLP>
-49.1741

> <Gold.PLP.part.hbond>
-1.0000

> <Gold.PLP.part.metal>
0.0000

> <Gold.PLP.part.buried>
-3.4791

> <Gold.PLP.part.nonpolar>
-45.3364

> <Gold.PLP.part.repulsive>
0.3605

> <Gold.PLP.ligand.clash>
0.4731

> <Gold.PLP.ligand.torsion>
0.2805

> <Gold.PLP.Chemscore.Hbond>
1.0000

> <Gold.PLP.Chemscore.CHOScore>
0.9993

> <Gold.PLP.Chemscore.Metal>
0.0000

> <Gold.Chemscore.Hbonds>
donor molecule, donor type, donor heavy atom, donor atom, acceptor molecule, acceptor atom, score
      L1  H     5    26       P1  7948  1.00
      L1  C    19    40       P1  8028  0.88

> <Gold.PLP.Chemscore.Internal.Correction>
0.1949

> <Gold.Rescore>
     Score         DG    S(hbond)    S(metal)    S(lipo)     H(rot)  DE(clash)    DE(int)     intcor
     15.09     -18.06       0.99        0.00     123.68       2.03       0.28       2.68       ----

> <Gold.Chemscore.Fitness>
15.0919

> <Gold.Chemscore.DG>
-18.0553

> <Gold.Chemscore.ZeroCoef>
-5.4800

> <Gold.Chemscore.Hbond>
0.9915

> <Gold.Chemscore.Metal>
0.0000

> <Gold.Chemscore.Lipo>
123.6831

> <Gold.Chemscore.Internal_Hbond>
0.0000

> <Gold.Chemscore.DEClash>
0.2822

> <Gold.Chemscore.DEInternal>
2.6812

> <Gold.Chemscore.Rot>
2.0340

> <Gold.Chemscore.Internal.Correction>
   9.000000E+99

> <Gold.Chemscore.Hbonds>
donor molecule, donor type, donor heavy atom, donor atom, acceptor molecule, acceptor atom, score
      L1  H     5    26       P1  7948  0.99

> <Gold.Chemscore.Hbond.Weighted>
-3.3115

> <Gold.Chemscore.Metal.Weighted>
-0.0000

> <Gold.Chemscore.Lipo.Weighted>
-14.4709

> <Gold.Chemscore.Internal_Hbond.Weighted>
0.0000

> <Gold.Chemscore.DEClash.Weighted>
0.2822

> <Gold.Chemscore.DEInternal.Weighted>
2.6812

> <Gold.Chemscore.Rot.Weighted>
5.2071

> <Gold.Chemscore.Internal.Correction.Weighted>
   9.000000E+99

> <Gold.Protein.RotatedTorsions>
[ 6907 6896 6895 6894 ] final -143.70 input  -60.11 | X-H torsion
[ 7974 7965 7964 7962 ] final  125.65 input  175.53 | X-H torsion
[ 8008 7997 7996 7995 ] final  121.12 input   59.86 | X-H torsion
[ 10167 10162 10161 10158 ] final  128.22 input  -65.29 | X-H torsion
[ 10718 10713 10712 10709 ] final  -57.27 input   66.30 | X-H torsion
[ 10763 10752 10751 10750 ] final  105.68 input  -60.55 | X-H torsion
[ 11005 11000 10999 10996 ] final   51.46 input  -57.11 | X-H torsion

> <Gold.Protein.ActiveResidues>
 VAL166  LYS551  ARG553  GLY616  TRP617  ASP618  TYR619  PRO620  LYS621  CYS622 
 ASP623  PHE694  ASN695  SER759  ASP760  ASP761  ALA762  ILE779  LEU786  VAL792 
 PHE793  MET794  SER795  GLU796  ALA797  LYS798  CYS799  TRP800  GLU811  SER814 

> <Gold.Protein.RotatedAtoms>
  151.1040  133.5222  159.2608 H   0  0  0  0  0  0  0  0  0  0  0  0  # atno 6907 bound_to 6896
  151.2042  135.0454  159.8894 H   0  0  0  0  0  0  0  0  0  0  0  0  # atno 6908 bound_to 6896
  152.5445  134.0864  159.8311 H   0  0  0  0  0  0  0  0  0  0  0  0  # atno 6909 bound_to 6896
  145.0706  139.3733  143.4959 H   0  0  0  0  0  0  0  0  0  0  0  0  # atno 7974 bound_to 7965
  156.2672  140.2815  156.1257 H   0  0  0  0  0  0  0  0  0  0  0  0  # atno 8008 bound_to 7997
  155.1108  140.0391  157.2741 H   0  0  0  0  0  0  0  0  0  0  0  0  # atno 8009 bound_to 7997
  154.6744  140.2595  155.6979 H   0  0  0  0  0  0  0  0  0  0  0  0  # atno 8010 bound_to 7997
  139.5538  144.6833  151.4243 H   0  0  0  0  0  0  0  0  0  0  0  0  # atno 10167 bound_to 10162
  156.1224  130.4165  150.0418 H   0  0  0  0  0  0  0  0  0  0  0  0  # atno 10718 bound_to 10713
  153.3826  135.3902  155.1867 H   0  0  0  0  0  0  0  0  0  0  0  0  # atno 10763 bound_to 10752
  154.8709  135.3729  154.4838 H   0  0  0  0  0  0  0  0  0  0  0  0  # atno 10764 bound_to 10752
  153.5316  135.7085  153.5741 H   0  0  0  0  0  0  0  0  0  0  0  0  # atno 10765 bound_to 10752
  140.0931  134.5182  155.8833 H   0  0  0  0  0  0  0  0  0  0  0  0  # atno 11005 bound_to 11000
  146.3528  140.0449  142.8640 LP  0  0  0  0  0  0  0  0  0  0  0  0  # atno 17320 bound_to 7965
  145.1297  140.9511  143.4551 LP  0  0  0  0  0  0  0  0  0  0  0  0  # atno 17321 bound_to 7965
  140.6807  143.8088  150.7117 LP  0  0  0  0  0  0  0  0  0  0  0  0  # atno 17342 bound_to 10162
  140.1541  143.4332  152.2111 LP  0  0  0  0  0  0  0  0  0  0  0  0  # atno 17343 bound_to 10162
  156.8353  130.9406  151.3635 LP  0  0  0  0  0  0  0  0  0  0  0  0  # atno 17370 bound_to 10713
  157.6407  130.8803  149.9442 LP  0  0  0  0  0  0  0  0  0  0  0  0  # atno 17371 bound_to 10713
  141.2084  133.6673  156.6368 LP  0  0  0  0  0  0  0  0  0  0  0  0  # atno 17394 bound_to 11000
  140.3324  134.7917  157.4336 LP  0  0  0  0  0  0  0  0  0  0  0  0  # atno 17395 bound_to 11000

$$$$
