AV-unprocessed.smi:2796|AV-procd|sdf|10782|dock10
  -GOLD-   2272015213D 1   1.00000     0.00000
 Structure written by MMmdl.
 27 28  0  0  0  0  0  0  0  0  1 V2000
  151.6115  137.2074  154.4815 N   0  0  0  0  0  0  0  0  0  0  0  0
  151.4653  138.2232  155.0162 C   0  0  0  0  0  0  0  0  0  0  0  0
  151.2811  139.4991  155.6867 C   0  0  0  0  0  0  0  0  0  0  0  0
  151.8175  139.6901  156.9772 C   0  0  0  0  0  0  0  0  0  0  0  0
  151.6271  140.9325  157.6122 C   0  0  0  0  0  0  0  0  0  0  0  0
  150.9064  141.9446  156.9367 C   0  0  0  0  0  0  0  0  0  0  0  0
  150.6591  143.2120  157.4828 N   0  0  0  0  0  0  0  0  0  0  0  0
  151.7175  143.9494  158.1572 C   0  0  0  0  0  0  0  0  0  0  0  0
  151.9106  143.5239  159.5992 C   0  0  0  0  0  0  0  0  0  0  0  0
  151.4393  144.2092  160.6613 C   0  0  0  0  0  0  0  0  0  0  0  0
  151.5549  143.7724  161.9566 O   0  0  0  0  0  0  0  0  0  0  0  0
  151.9409  142.4080  162.0826 C   0  0  0  0  0  0  0  0  0  0  0  0
  153.0460  142.0645  161.0706 C   0  0  0  0  0  0  0  0  0  0  0  0
  152.6268  142.3584  159.7410 O   0  0  0  0  0  0  0  0  0  0  0  0
  150.4142  141.6485  155.6480 C   0  0  0  0  0  0  0  0  0  0  0  0
  150.5927  140.4599  155.0329 N   0  0  0  0  0  0  0  0  0  0  0  0
  152.3645  138.9027  157.4760 H   0  0  0  0  0  0  0  0  0  0  0  0
  152.0334  141.0870  158.6004 H   0  0  0  0  0  0  0  0  0  0  0  0
  149.8383  143.7211  157.1865 H   0  0  0  0  0  0  0  0  0  0  0  0
  152.6615  143.7938  157.6341 H   0  0  0  0  0  0  0  0  0  0  0  0
  151.4935  145.0163  158.1233 H   0  0  0  0  0  0  0  0  0  0  0  0
  150.8820  145.1316  160.5916 H   0  0  0  0  0  0  0  0  0  0  0  0
  152.2860  142.2262  163.1007 H   0  0  0  0  0  0  0  0  0  0  0  0
  151.0683  141.7735  161.9216 H   0  0  0  0  0  0  0  0  0  0  0  0
  153.9502  142.6334  161.2908 H   0  0  0  0  0  0  0  0  0  0  0  0
  153.3085  141.0086  161.1366 H   0  0  0  0  0  0  0  0  0  0  0  0
  149.8582  142.3879  155.0903 H   0  0  0  0  0  0  0  0  0  0  0  0
  1  2  3  0  0  0  0
  2  3  1  0  0  0  0
  3 16  1  0  0  0  0
  3  4  2  0  0  0  0
  4  5  1  0  0  0  0
  4 17  1  0  0  0  0
  5  6  2  0  0  0  0
  5 18  1  0  0  0  0
  6  7  1  0  0  0  0
  6 15  1  0  0  0  0
  7  8  1  0  0  0  0
  7 19  1  0  0  0  0
  8  9  1  0  0  0  0
  8 20  1  0  0  0  0
  8 21  1  0  0  0  0
  9 14  1  0  0  0  0
  9 10  2  0  0  0  0
 10 11  1  0  0  0  0
 10 22  1  0  0  0  0
 11 12  1  0  0  0  0
 12 13  1  0  0  0  0
 12 23  1  0  0  0  0
 12 24  1  0  0  0  0
 13 14  1  0  0  0  0
 13 25  1  0  0  0  0
 13 26  1  0  0  0  0
 15 16  2  0  0  0  0
 15 27  1  0  0  0  0
M  END
> <s_m_source_file>
AV-unprocessed.smi

> <i_m_source_file_index>
2796

> <i_lp_mmshare_version>
43012

> <i_f3d_flags>
0

> <s_epik_input>
TiNDYzFbY0hdW2NIXWMoW2NIXW4xKVtOSF1bQ0gyXUMyPVtDSF1PW0NIMl1bQ0gyXU8y

> <s_epik_cmdline>
J2VwaWtfcHl0aG9uJywgJy1waCcsICc3LjAnLCAnLXRuJywgJzgnLCAnLW1hJywgJzIwMCcsICctbWV0YWxfYmluZGluZycsICctaW1hZScsICc8aW5maWxlLm1hZT4nLCAnLW9tYWUnLCAnPG91dGZpbGUubWFlPic=

> <r_lp_tautomer_probability>
1

> <r_epik_Ionization_Penalty>
1.57619e-06

> <r_epik_Ionization_Penalty_Charging>
0

> <r_epik_Ionization_Penalty_Neutral>
1.57619e-06

> <r_epik_State_Penalty>
-0

> <r_epik_Charging_Adjusted_Penalty>
0

> <i_epik_Tot_Q>
0

> <i_epik_Tot_abs_Q>
0

> <r_epik_Metal_State_Penalty>
-0

> <b_epik_Metal_Only>
0

> <s_lp_Force_Field>
OPLS_2005

> <r_lp_Energy>
3.17898

> <b_lp_Chiralities_Consistent>
1

> <s_lp_Variant>
AV-unprocessed.smi:2796-1

> <Gold.Version>
5.8.1

> <Gold.Id.Protein>
6NUR|6NUR_protein|mol2

> <Gold.PLP.Fitness>
50.0589

> <Gold.PLP.PLP>
-40.3278

> <Gold.PLP.part.hbond>
-3.0000

> <Gold.PLP.part.metal>
0.0000

> <Gold.PLP.part.buried>
-7.2335

> <Gold.PLP.part.nonpolar>
-30.0793

> <Gold.PLP.part.repulsive>
0.4168

> <Gold.PLP.ligand.clash>
0.0000

> <Gold.PLP.ligand.torsion>
0.7901

> <Gold.PLP.Chemscore.Hbond>
2.8225

> <Gold.PLP.Chemscore.CHOScore>
0.9479

> <Gold.PLP.Chemscore.Metal>
0.0000

> <Gold.Chemscore.Hbonds>
donor molecule, donor type, donor heavy atom, donor atom, acceptor molecule, acceptor atom, score
      L1  H     7    19       P1  8028  0.92
      P1  H  7989  7998       L1    16  1.00
      P1  H 10752 10764       L1     1  0.96
      L1  C    15    27       P1  8028  0.87

> <Gold.PLP.Chemscore.Internal.Correction>
0.0002

> <Gold.Rescore>
     Score         DG    S(hbond)    S(metal)    S(lipo)     H(rot)  DE(clash)    DE(int)     intcor
     17.69     -19.93       2.00        0.00      93.96       1.26       0.03       2.21       ----

> <Gold.Chemscore.Fitness>
17.6884

> <Gold.Chemscore.DG>
-19.9265

> <Gold.Chemscore.ZeroCoef>
-5.4800

> <Gold.Chemscore.Hbond>
1.9962

> <Gold.Chemscore.Metal>
0.0000

> <Gold.Chemscore.Lipo>
93.9581

> <Gold.Chemscore.Internal_Hbond>
0.0000

> <Gold.Chemscore.DEClash>
0.0310

> <Gold.Chemscore.DEInternal>
2.2070

> <Gold.Chemscore.Rot>
1.2554

> <Gold.Chemscore.Internal.Correction>
   9.000000E+99

> <Gold.Chemscore.Hbonds>
donor molecule, donor type, donor heavy atom, donor atom, acceptor molecule, acceptor atom, score
      L1  H     7    19       P1  8028  0.75
      P1  H  7989  7998       L1    16  0.24
      P1  H 10752 10764       L1     1  0.90

> <Gold.Chemscore.Hbond.Weighted>
-6.6673

> <Gold.Chemscore.Metal.Weighted>
-0.0000

> <Gold.Chemscore.Lipo.Weighted>
-10.9931

> <Gold.Chemscore.Internal_Hbond.Weighted>
0.0000

> <Gold.Chemscore.DEClash.Weighted>
0.0310

> <Gold.Chemscore.DEInternal.Weighted>
2.2070

> <Gold.Chemscore.Rot.Weighted>
3.2139

> <Gold.Chemscore.Internal.Correction.Weighted>
   9.000000E+99

> <Gold.Protein.RotatedTorsions>
[ 6907 6896 6895 6894 ] final  -83.05 input  -60.11 | X-H torsion
[ 7974 7965 7964 7962 ] final  -13.19 input  175.53 | X-H torsion
[ 8008 7997 7996 7995 ] final    0.25 input   59.86 | X-H torsion
[ 10167 10162 10161 10158 ] final  161.61 input  -65.29 | X-H torsion
[ 10718 10713 10712 10709 ] final  168.02 input   66.30 | X-H torsion
[ 10763 10752 10751 10750 ] final  -71.91 input  -60.55 | X-H torsion
[ 11005 11000 10999 10996 ] final   88.89 input  -57.11 | X-H torsion

> <Gold.Protein.ActiveResidues>
 VAL166  LYS551  ARG553  GLY616  TRP617  ASP618  TYR619  PRO620  LYS621  CYS622 
 ASP623  PHE694  ASN695  SER759  ASP760  ASP761  ALA762  ILE779  LEU786  VAL792 
 PHE793  MET794  SER795  GLU796  ALA797  LYS798  CYS799  TRP800  GLU811  SER814 

> <Gold.Protein.RotatedAtoms>
  150.6890  134.3572  159.4934 H   0  0  0  0  0  0  0  0  0  0  0  0  # atno 6907 bound_to 6896
  152.1405  134.9063  160.0563 H   0  0  0  0  0  0  0  0  0  0  0  0  # atno 6908 bound_to 6896
  152.0198  133.3859  159.4290 H   0  0  0  0  0  0  0  0  0  0  0  0  # atno 6909 bound_to 6896
  146.2124  140.3167  142.8387 H   0  0  0  0  0  0  0  0  0  0  0  0  # atno 7974 bound_to 7965
  154.6659  140.2601  155.7058 H   0  0  0  0  0  0  0  0  0  0  0  0  # atno 8008 bound_to 7997
  156.2639  140.2839  156.1072 H   0  0  0  0  0  0  0  0  0  0  0  0  # atno 8009 bound_to 7997
  155.1239  140.0377  157.2747 H   0  0  0  0  0  0  0  0  0  0  0  0  # atno 8010 bound_to 7997
  139.4851  144.4519  151.8818 H   0  0  0  0  0  0  0  0  0  0  0  0  # atno 10167 bound_to 10162
  157.0431  131.0292  151.2706 H   0  0  0  0  0  0  0  0  0  0  0  0  # atno 10718 bound_to 10713
  154.4383  135.5947  153.6113 H   0  0  0  0  0  0  0  0  0  0  0  0  # atno 10763 bound_to 10752
  152.9803  135.5992  154.3753 H   0  0  0  0  0  0  0  0  0  0  0  0  # atno 10764 bound_to 10752
  154.3600  135.2841  155.2304 H   0  0  0  0  0  0  0  0  0  0  0  0  # atno 10765 bound_to 10752
  139.8887  134.8517  156.3065 H   0  0  0  0  0  0  0  0  0  0  0  0  # atno 11005 bound_to 11000
  144.8949  140.7571  143.5903 LP  0  0  0  0  0  0  0  0  0  0  0  0  # atno 17320 bound_to 7965
  145.3090  139.1825  143.4649 LP  0  0  0  0  0  0  0  0  0  0  0  0  # atno 17321 bound_to 7965
  140.3976  144.2534  150.5895 LP  0  0  0  0  0  0  0  0  0  0  0  0  # atno 17342 bound_to 10162
  140.5087  143.2297  151.8568 LP  0  0  0  0  0  0  0  0  0  0  0  0  # atno 17343 bound_to 10162
  157.5089  130.7926  149.7684 LP  0  0  0  0  0  0  0  0  0  0  0  0  # atno 17370 bound_to 10713
  156.0031  130.3869  150.2529 LP  0  0  0  0  0  0  0  0  0  0  0  0  # atno 17371 bound_to 10713
  140.9879  133.7227  156.0769 LP  0  0  0  0  0  0  0  0  0  0  0  0  # atno 17394 bound_to 11000
  140.7664  134.3882  157.5516 LP  0  0  0  0  0  0  0  0  0  0  0  0  # atno 17395 bound_to 11000

$$$$
