AV-unprocessed.smi:1362|AV-procd|sdf|5563|dock9
  -GOLD-   22720 5153D 1   1.00000     0.00000
 Structure written by MMmdl.
 38 38  0  0  0  0  0  0  0  0  2 V2000
  154.3614  141.0227  161.8746 C   0  0  0  0  0  0  0  0  0  0  0  0
  153.5469  141.4519  160.6730 C   0  0  0  0  0  0  0  0  0  0  0  0
  153.0412  142.6259  160.6479 N   0  0  0  0  0  0  0  0  0  0  0  0
  152.2835  143.0285  159.5349 C   0  0  0  0  0  0  0  0  0  0  0  0
  151.7172  144.4370  159.5914 C   0  0  0  0  0  0  0  0  0  0  0  0
  152.0800  142.1896  158.4788 C   0  0  0  0  0  0  0  0  0  0  0  0
  151.2605  142.5802  157.2491 C   0  0  0  0  0  0  0  0  0  0  0  0
  150.0402  141.7055  156.9516 C   0  0  0  0  0  0  0  0  0  0  0  0
  149.9609  140.5647  157.4081 O   0  0  0  0  0  0  0  0  0  0  0  0
  149.0945  142.2575  156.1758 N   0  0  0  0  0  0  0  0  0  0  0  0
  147.8657  141.6016  155.7308 C   0  0  1  0  0  0  0  0  0  0  0  0
  146.7169  142.0008  156.6766 C   0  0  0  0  0  0  0  0  0  0  0  0
  147.5867  141.9473  154.2438 C   0  0  0  0  0  0  0  0  0  0  0  0
  146.4664  142.9910  154.0836 C   0  0  0  0  0  0  0  0  0  0  0  0
  147.2454  140.6978  153.4076 C   0  0  0  0  0  0  0  0  0  0  0  0
  152.6850  140.8472  158.5446 C   0  0  0  0  0  0  0  0  0  0  0  0
  152.5448  140.0559  157.6128 O   0  0  0  0  0  0  0  0  0  0  0  0
  153.3972  140.5285  159.6629 N   0  5  0  0  0  0  0  0  0  0  0  0
  154.6121  141.8776  162.5041 H   0  0  0  0  0  0  0  0  0  0  0  0
  155.2918  140.5508  161.5567 H   0  0  0  0  0  0  0  0  0  0  0  0
  153.7977  140.3075  162.4741 H   0  0  0  0  0  0  0  0  0  0  0  0
  150.6274  144.4113  159.5908 H   0  0  0  0  0  0  0  0  0  0  0  0
  152.0522  145.0216  158.7342 H   0  0  0  0  0  0  0  0  0  0  0  0
  152.0396  144.9556  160.4951 H   0  0  0  0  0  0  0  0  0  0  0  0
  150.9281  143.6163  157.3167 H   0  0  0  0  0  0  0  0  0  0  0  0
  151.9221  142.5596  156.3826 H   0  0  0  0  0  0  0  0  0  0  0  0
  149.2477  143.2006  155.8498 H   0  0  0  0  0  0  0  0  0  0  0  0
  148.0036  140.5207  155.8007 H   0  0  0  0  0  0  0  0  0  0  0  0
  145.8046  141.4452  156.4622 H   0  0  0  0  0  0  0  0  0  0  0  0
  146.4897  143.0645  156.5993 H   0  0  0  0  0  0  0  0  0  0  0  0
  146.9723  141.7923  157.7160 H   0  0  0  0  0  0  0  0  0  0  0  0
  148.4954  142.3789  153.8215 H   0  0  0  0  0  0  0  0  0  0  0  0
  145.5395  142.6519  154.5474 H   0  0  0  0  0  0  0  0  0  0  0  0
  146.2576  143.1832  153.0308 H   0  0  0  0  0  0  0  0  0  0  0  0
  146.7349  143.9480  154.5296 H   0  0  0  0  0  0  0  0  0  0  0  0
  146.3649  140.1888  153.8011 H   0  0  0  0  0  0  0  0  0  0  0  0
  148.0648  139.9791  153.3915 H   0  0  0  0  0  0  0  0  0  0  0  0
  147.0383  140.9643  152.3708 H   0  0  0  0  0  0  0  0  0  0  0  0
  1  2  1  0  0  0  0
  1 19  1  0  0  0  0
  1 20  1  0  0  0  0
  1 21  1  0  0  0  0
  2 18  1  0  0  0  0
  2  3  2  0  0  0  0
  3  4  1  0  0  0  0
  4  5  1  0  0  0  0
  4  6  2  0  0  0  0
  5 22  1  0  0  0  0
  5 23  1  0  0  0  0
  5 24  1  0  0  0  0
  6  7  1  0  0  0  0
  6 16  1  0  0  0  0
  7  8  1  0  0  0  0
  7 25  1  0  0  0  0
  7 26  1  0  0  0  0
  8  9  2  0  0  0  0
  8 10  1  0  0  0  0
 10 11  1  0  0  0  0
 10 27  1  0  0  0  0
 11 12  1  0  0  0  0
 11 13  1  0  0  0  0
 11 28  1  0  0  0  0
 12 29  1  0  0  0  0
 12 30  1  0  0  0  0
 12 31  1  0  0  0  0
 13 14  1  0  0  0  0
 13 15  1  0  0  0  0
 13 32  1  0  0  0  0
 14 33  1  0  0  0  0
 14 34  1  0  0  0  0
 14 35  1  0  0  0  0
 15 36  1  0  0  0  0
 15 37  1  0  0  0  0
 15 38  1  0  0  0  0
 16 17  2  0  0  0  0
 16 18  1  0  0  0  0
M  CHG  1  18  -1
M  END
> <s_m_source_file>
AV-unprocessed.smi

> <i_m_source_file_index>
1362

> <i_lp_mmshare_version>
43012

> <i_f3d_flags>
0

> <s_epik_input>
W0NIM11jMW5jKFtDSDNdKWMoYyg9TylbbkhdMSlbQ0gyXUMoPU8pW05IXVtDQEhdKFtDSDNdKVtDSF0oW0NIM10pW0NIM10=

> <s_epik_cmdline>
J2VwaWtfcHl0aG9uJywgJy1waCcsICc3LjAnLCAnLXRuJywgJzgnLCAnLW1hJywgJzIwMCcsICctbWV0YWxfYmluZGluZycsICctaW1hZScsICc8aW5maWxlLm1hZT4nLCAnLW9tYWUnLCAnPG91dGZpbGUubWFlPic=

> <r_lp_tautomer_probability>
0.839158

> <r_epik_Ionization_Penalty>
6.62204

> <r_epik_Ionization_Penalty_Charging>
7.30593e-08

> <r_epik_Ionization_Penalty_Neutral>
6.62204

> <r_epik_State_Penalty>
4.44062

> <r_epik_Charging_Adjusted_Penalty>
4.44062

> <i_epik_Tot_Q>
-1

> <i_epik_Tot_abs_Q>
1

> <r_epik_Metal_State_Penalty>
0.802984

> <b_epik_Metal_Only>
1

> <s_lp_Force_Field>
OPLS_2005

> <r_lp_Energy>
10.9313

> <b_lp_Chiralities_Consistent>
1

> <s_lp_Variant>
AV-unprocessed.smi:1362-6

> <Gold.Version>
5.8.1

> <Gold.Id.Protein>
6NUR|6NUR_protein|mol2

> <Gold.PLP.Fitness>
39.4589

> <Gold.PLP.PLP>
-37.1548

> <Gold.PLP.part.hbond>
-2.0000

> <Gold.PLP.part.metal>
0.0000

> <Gold.PLP.part.buried>
-5.1792

> <Gold.PLP.part.nonpolar>
-30.5819

> <Gold.PLP.part.repulsive>
0.0970

> <Gold.PLP.ligand.clash>
0.0000

> <Gold.PLP.ligand.torsion>
1.8597

> <Gold.PLP.Chemscore.Hbond>
2.0000

> <Gold.PLP.Chemscore.CHOScore>
0.0000

> <Gold.PLP.Chemscore.Metal>
0.0000

> <Gold.Chemscore.Hbonds>
donor molecule, donor type, donor heavy atom, donor atom, acceptor molecule, acceptor atom, score
      L1  H    10    27       P1  8028  1.00
      P1  H  7997  8010       L1    17  0.93

> <Gold.PLP.Chemscore.Internal.Correction>
0.0236

> <Gold.Rescore>
     Score         DG    S(hbond)    S(metal)    S(lipo)     H(rot)  DE(clash)    DE(int)     intcor
     13.31     -16.36       1.88        0.00      75.27       1.64       0.13       2.91       ----

> <Gold.Chemscore.Fitness>
13.3150

> <Gold.Chemscore.DG>
-16.3567

> <Gold.Chemscore.ZeroCoef>
-5.4800

> <Gold.Chemscore.Hbond>
1.8793

> <Gold.Chemscore.Metal>
0.0000

> <Gold.Chemscore.Lipo>
75.2701

> <Gold.Chemscore.Internal_Hbond>
0.0000

> <Gold.Chemscore.DEClash>
0.1318

> <Gold.Chemscore.DEInternal>
2.9099

> <Gold.Chemscore.Rot>
1.6433

> <Gold.Chemscore.Internal.Correction>
   9.000000E+99

> <Gold.Chemscore.Hbonds>
donor molecule, donor type, donor heavy atom, donor atom, acceptor molecule, acceptor atom, score
      L1  H    10    27       P1  8028  0.95
      P1  H  7997  8010       L1    17  0.22

> <Gold.Chemscore.Hbond.Weighted>
-6.2770

> <Gold.Chemscore.Metal.Weighted>
-0.0000

> <Gold.Chemscore.Lipo.Weighted>
-8.8066

> <Gold.Chemscore.Internal_Hbond.Weighted>
0.0000

> <Gold.Chemscore.DEClash.Weighted>
0.1318

> <Gold.Chemscore.DEInternal.Weighted>
2.9099

> <Gold.Chemscore.Rot.Weighted>
4.2069

> <Gold.Chemscore.Internal.Correction.Weighted>
   9.000000E+99

> <Gold.Protein.RotatedTorsions>
[ 6907 6896 6895 6894 ] final  -71.57 input  -60.11 | X-H torsion
[ 7974 7965 7964 7962 ] final  -68.38 input  175.53 | X-H torsion
[ 8008 7997 7996 7995 ] final   47.76 input   59.86 | X-H torsion
[ 10167 10162 10161 10158 ] final   46.10 input  -65.29 | X-H torsion
[ 10718 10713 10712 10709 ] final   71.21 input   66.30 | X-H torsion
[ 10763 10752 10751 10750 ] final -141.09 input  -60.55 | X-H torsion
[ 11005 11000 10999 10996 ] final  -14.94 input  -57.11 | X-H torsion

> <Gold.Protein.ActiveResidues>
 VAL166  LYS551  ARG553  GLY616  TRP617  ASP618  TYR619  PRO620  LYS621  CYS622 
 ASP623  PHE694  ASN695  SER759  ASP760  ASP761  ALA762  ILE779  LEU786  VAL792 
 PHE793  MET794  SER795  GLU796  ALA797  LYS798  CYS799  TRP800  GLU811  SER814 

> <Gold.Protein.RotatedAtoms>
  150.7207  134.5289  159.5690 H   0  0  0  0  0  0  0  0  0  0  0  0  # atno 6907 bound_to 6896
  152.2827  134.7807  160.0402 H   0  0  0  0  0  0  0  0  0  0  0  0  # atno 6908 bound_to 6896
  151.8448  133.3394  159.3691 H   0  0  0  0  0  0  0  0  0  0  0  0  # atno 6909 bound_to 6896
  145.7173  140.9053  143.0649 H   0  0  0  0  0  0  0  0  0  0  0  0  # atno 7974 bound_to 7965
  155.3744  140.3425  155.4244 H   0  0  0  0  0  0  0  0  0  0  0  0  # atno 8008 bound_to 7997
  156.1645  140.1611  156.8589 H   0  0  0  0  0  0  0  0  0  0  0  0  # atno 8009 bound_to 7997
  154.5171  140.0776  156.8084 H   0  0  0  0  0  0  0  0  0  0  0  0  # atno 8010 bound_to 7997
  140.3174  144.2747  150.6188 H   0  0  0  0  0  0  0  0  0  0  0  0  # atno 10167 bound_to 10162
  157.6440  130.9516  150.0757 H   0  0  0  0  0  0  0  0  0  0  0  0  # atno 10718 bound_to 10713
  154.8557  135.3534  154.5812 H   0  0  0  0  0  0  0  0  0  0  0  0  # atno 10763 bound_to 10752
  153.6423  135.6998  153.5242 H   0  0  0  0  0  0  0  0  0  0  0  0  # atno 10764 bound_to 10752
  153.2961  135.4220  155.1169 H   0  0  0  0  0  0  0  0  0  0  0  0  # atno 10765 bound_to 10752
  140.7915  133.8284  155.9384 H   0  0  0  0  0  0  0  0  0  0  0  0  # atno 11005 bound_to 11000
  144.6926  139.9154  143.7465 LP  0  0  0  0  0  0  0  0  0  0  0  0  # atno 17320 bound_to 7965
  146.0658  139.3649  143.0553 LP  0  0  0  0  0  0  0  0  0  0  0  0  # atno 17321 bound_to 7965
  140.5514  143.2206  151.7921 LP  0  0  0  0  0  0  0  0  0  0  0  0  # atno 17342 bound_to 10162
  139.4881  144.4471  151.9697 LP  0  0  0  0  0  0  0  0  0  0  0  0  # atno 17343 bound_to 10162
  156.1748  130.3648  149.9115 LP  0  0  0  0  0  0  0  0  0  0  0  0  # atno 17370 bound_to 10713
  156.7082  130.8959  151.3606 LP  0  0  0  0  0  0  0  0  0  0  0  0  # atno 17371 bound_to 10713
  140.9384  134.1932  157.4815 LP  0  0  0  0  0  0  0  0  0  0  0  0  # atno 17394 bound_to 11000
  139.8730  134.9862  156.5313 LP  0  0  0  0  0  0  0  0  0  0  0  0  # atno 17395 bound_to 11000

$$$$
