AV-unprocessed.smi:2095|AV-procd|sdf|8558|dock5
  -GOLD-   2272011283D 1   1.00000     0.00000
 Structure written by MMmdl.
 42 43  0  0  0  0  0  0  0  0  2 V2000
  144.6422  135.4078  150.5986 C   0  0  0  0  0  0  0  0  0  0  0  0
  145.7013  135.4083  151.7099 C   0  0  2  0  0  0  0  0  0  0  0  0
  145.5538  134.1817  152.6218 C   0  0  0  0  0  0  0  0  0  0  0  0
  146.6125  134.2227  153.7275 C   0  0  0  0  0  0  0  0  0  0  0  0
  146.5479  135.5422  154.5146 C   0  0  0  0  0  0  0  0  0  0  0  0
  146.6863  136.7234  153.6134 N   0  3  2  0  0  0  0  0  0  0  0  0
  146.7732  138.0630  154.2842 C   0  0  1  0  0  0  0  0  0  0  0  0
  147.1306  137.9961  155.7896 C   0  0  0  0  0  0  0  0  0  0  0  0
  147.7871  138.9565  153.5295 C   0  0  0  0  0  0  0  0  0  0  0  0
  149.1311  138.3911  153.5356 N   0  0  0  0  0  0  0  0  0  0  0  0
  150.2222  139.0317  153.9798 C   0  0  0  0  0  0  0  0  0  0  0  0
  150.1976  140.1749  154.4343 O   0  0  0  0  0  0  0  0  0  0  0  0
  151.5429  138.2659  153.9029 C   0  0  0  0  0  0  0  0  0  0  0  0
  152.3547  138.5165  155.0782 N   0  0  0  0  0  0  0  0  0  0  0  0
  152.1060  139.2247  156.1817 C   0  0  0  0  0  0  0  0  0  0  0  0
  153.1237  139.1830  157.0282 N   0  0  0  0  0  0  0  0  0  0  0  0
  154.0473  138.3865  156.3719 N   0  0  0  0  0  0  0  0  0  0  0  0
  153.5964  137.9872  155.2145 N   0  0  0  0  0  0  0  0  0  0  0  0
  145.6412  136.6995  152.5495 C   0  0  0  0  0  0  0  0  0  0  0  0
  143.6338  135.4548  151.0109 H   0  0  0  0  0  0  0  0  0  0  0  0
  144.7113  134.5046  149.9916 H   0  0  0  0  0  0  0  0  0  0  0  0
  144.7698  136.2616  149.9325 H   0  0  0  0  0  0  0  0  0  0  0  0
  146.6802  135.3611  151.2301 H   0  0  0  0  0  0  0  0  0  0  0  0
  144.5579  134.1626  153.0668 H   0  0  0  0  0  0  0  0  0  0  0  0
  145.6559  133.2630  152.0429 H   0  0  0  0  0  0  0  0  0  0  0  0
  146.4753  133.3787  154.4042 H   0  0  0  0  0  0  0  0  0  0  0  0
  147.6043  134.1070  153.2881 H   0  0  0  0  0  0  0  0  0  0  0  0
  145.6092  135.6085  155.0669 H   0  0  0  0  0  0  0  0  0  0  0  0
  147.3552  135.5124  155.2455 H   0  0  0  0  0  0  0  0  0  0  0  0
  145.7882  138.5294  154.2236 H   0  0  0  0  0  0  0  0  0  0  0  0
  147.1854  138.9888  156.2358 H   0  0  0  0  0  0  0  0  0  0  0  0
  148.0966  137.5159  155.9504 H   0  0  0  0  0  0  0  0  0  0  0  0
  146.3779  137.4567  156.3650 H   0  0  0  0  0  0  0  0  0  0  0  0
  147.4573  139.0914  152.4976 H   0  0  0  0  0  0  0  0  0  0  0  0
  147.8465  139.9516  153.9694 H   0  0  0  0  0  0  0  0  0  0  0  0
  149.2394  137.4508  153.1833 H   0  0  0  0  0  0  0  0  0  0  0  0
  151.3576  137.1945  153.8109 H   0  0  0  0  0  0  0  0  0  0  0  0
  152.1015  138.5738  153.0180 H   0  0  0  0  0  0  0  0  0  0  0  0
  151.1868  139.7613  156.3646 H   0  0  0  0  0  0  0  0  0  0  0  0
  145.7559  137.5538  151.8836 H   0  0  0  0  0  0  0  0  0  0  0  0
  144.6568  136.7993  153.0105 H   0  0  0  0  0  0  0  0  0  0  0  0
  147.5737  136.5970  153.1480 H   0  0  0  0  0  0  0  0  0  0  0  0
  1  2  1  0  0  0  0
  1 20  1  0  0  0  0
  1 21  1  0  0  0  0
  1 22  1  0  0  0  0
  2 19  1  0  0  0  0
  2  3  1  0  0  0  0
  2 23  1  0  0  0  0
  3  4  1  0  0  0  0
  3 24  1  0  0  0  0
  3 25  1  0  0  0  0
  4  5  1  0  0  0  0
  4 26  1  0  0  0  0
  4 27  1  0  0  0  0
  5  6  1  0  0  0  0
  5 28  1  0  0  0  0
  5 29  1  0  0  0  0
  6  7  1  0  0  0  0
  6 19  1  0  0  0  0
  6 42  1  0  0  0  0
  7  8  1  0  0  0  0
  7  9  1  0  0  0  0
  7 30  1  0  0  0  0
  8 31  1  0  0  0  0
  8 32  1  0  0  0  0
  8 33  1  0  0  0  0
  9 10  1  0  0  0  0
  9 34  1  0  0  0  0
  9 35  1  0  0  0  0
 10 11  1  0  0  0  0
 10 36  1  0  0  0  0
 11 12  2  0  0  0  0
 11 13  1  0  0  0  0
 13 14  1  0  0  0  0
 13 37  1  0  0  0  0
 13 38  1  0  0  0  0
 14 18  1  0  0  0  0
 14 15  1  0  0  0  0
 15 16  2  0  0  0  0
 15 39  1  0  0  0  0
 16 17  1  0  0  0  0
 17 18  2  0  0  0  0
 19 40  1  0  0  0  0
 19 41  1  0  0  0  0
M  CHG  1   6   1
M  END
> <s_m_source_file>
AV-unprocessed.smi

> <i_m_source_file_index>
2095

> <i_lp_mmshare_version>
43012

> <i_f3d_flags>
0

> <s_epik_input>
W0NIM11bQ0BASF0xW0NIMl1bQ0gyXVtDSDJdTihbQ0gyXTEpW0NASF0oW0NIM10pW0NIMl1bTkhdQyg9TylbQ0gyXW4yW2NIXW5ubjI=

> <s_epik_cmdline>
J2VwaWtfcHl0aG9uJywgJy1waCcsICc3LjAnLCAnLXRuJywgJzgnLCAnLW1hJywgJzIwMCcsICctbWV0YWxfYmluZGluZycsICctaW1hZScsICc8aW5maWxlLm1hZT4nLCAnLW9tYWUnLCAnPG91dGZpbGUubWFlPic=

> <r_lp_tautomer_probability>
1

> <r_epik_Ionization_Penalty>
0.00268321

> <r_epik_Ionization_Penalty_Charging>
0.00267875

> <r_epik_Ionization_Penalty_Neutral>
4.46125e-06

> <r_epik_State_Penalty>
0.00186642

> <r_epik_Charging_Adjusted_Penalty>
0.00454517

> <i_epik_Tot_Q>
1

> <i_epik_Tot_abs_Q>
1

> <r_epik_Metal_State_Penalty>
-0

> <b_epik_Metal_Only>
0

> <s_lp_Force_Field>
OPLS_2005

> <r_lp_Energy>
25.5327

> <b_lp_Chiralities_Consistent>
1

> <s_lp_Variant>
AV-unprocessed.smi:2095-5

> <Gold.Version>
5.8.1

> <Gold.Id.Protein>
6NUR|6NUR_protein|mol2

> <Gold.PLP.Fitness>
38.0363

> <Gold.PLP.PLP>
-28.9288

> <Gold.PLP.part.hbond>
-7.3179

> <Gold.PLP.part.metal>
0.0000

> <Gold.PLP.part.buried>
-3.2088

> <Gold.PLP.part.nonpolar>
-18.5576

> <Gold.PLP.part.repulsive>
0.1546

> <Gold.PLP.ligand.clash>
0.0000

> <Gold.PLP.ligand.torsion>
1.3014

> <Gold.PLP.Chemscore.Hbond>
3.8803

> <Gold.PLP.Chemscore.CHOScore>
0.0000

> <Gold.PLP.Chemscore.Metal>
0.0000

> <Gold.Chemscore.Hbonds>
donor molecule, donor type, donor heavy atom, donor atom, acceptor molecule, acceptor atom, score
      L1  H     6    42       P1  7948  2.00
      L1  H    10    36       P1  7948  0.99
      P1  H  7989  7998       L1    12  0.95

> <Gold.PLP.Chemscore.Internal.Correction>
0.0694

> <Gold.Rescore>
     Score         DG    S(hbond)    S(metal)    S(lipo)     H(rot)  DE(clash)    DE(int)     intcor
     10.73     -13.39       2.97        0.00      40.73       2.64       0.25       2.41       ----

> <Gold.Chemscore.Fitness>
10.7301

> <Gold.Chemscore.DG>
-13.3861

> <Gold.Chemscore.ZeroCoef>
-5.4800

> <Gold.Chemscore.Hbond>
2.9670

> <Gold.Chemscore.Metal>
0.0000

> <Gold.Chemscore.Lipo>
40.7259

> <Gold.Chemscore.Internal_Hbond>
0.0000

> <Gold.Chemscore.DEClash>
0.2451

> <Gold.Chemscore.DEInternal>
2.4110

> <Gold.Chemscore.Rot>
2.6439

> <Gold.Chemscore.Internal.Correction>
   9.000000E+99

> <Gold.Chemscore.Hbonds>
donor molecule, donor type, donor heavy atom, donor atom, acceptor molecule, acceptor atom, score
      L1  H     6    42       P1  7948  1.00
      L1  H    10    36       P1  7948  0.92
      P1  H  7989  7998       L1    12  0.21

> <Gold.Chemscore.Hbond.Weighted>
-9.9096

> <Gold.Chemscore.Metal.Weighted>
-0.0000

> <Gold.Chemscore.Lipo.Weighted>
-4.7649

> <Gold.Chemscore.Internal_Hbond.Weighted>
0.0000

> <Gold.Chemscore.DEClash.Weighted>
0.2451

> <Gold.Chemscore.DEInternal.Weighted>
2.4110

> <Gold.Chemscore.Rot.Weighted>
6.7685

> <Gold.Chemscore.Internal.Correction.Weighted>
   9.000000E+99

> <Gold.Protein.RotatedTorsions>
[ 6907 6896 6895 6894 ] final  171.79 input  -60.11 | X-H torsion
[ 7974 7965 7964 7962 ] final  116.47 input  175.53 | X-H torsion
[ 8008 7997 7996 7995 ] final   -5.89 input   59.86 | X-H torsion
[ 10167 10162 10161 10158 ] final   59.34 input  -65.29 | X-H torsion
[ 10718 10713 10712 10709 ] final  -23.24 input   66.30 | X-H torsion
[ 10763 10752 10751 10750 ] final -143.45 input  -60.55 | X-H torsion
[ 11005 11000 10999 10996 ] final  -65.10 input  -57.11 | X-H torsion

> <Gold.Protein.ActiveResidues>
 VAL166  LYS551  ARG553  GLY616  TRP617  ASP618  TYR619  PRO620  LYS621  CYS622 
 ASP623  PHE694  ASN695  SER759  ASP760  ASP761  ALA762  ILE779  LEU786  VAL792 
 PHE793  MET794  SER795  GLU796  ALA797  LYS798  CYS799  TRP800  GLU811  SER814 

> <Gold.Protein.RotatedAtoms>
  151.7947  133.3363  159.3508 H   0  0  0  0  0  0  0  0  0  0  0  0  # atno 6907 bound_to 6896
  150.7379  134.5810  159.5948 H   0  0  0  0  0  0  0  0  0  0  0  0  # atno 6908 bound_to 6896
  152.3185  134.7410  160.0370 H   0  0  0  0  0  0  0  0  0  0  0  0  # atno 6909 bound_to 6896
  145.1793  139.3059  143.4426 H   0  0  0  0  0  0  0  0  0  0  0  0  # atno 7974 bound_to 7965
  154.5993  140.2447  155.7814 H   0  0  0  0  0  0  0  0  0  0  0  0  # atno 8008 bound_to 7997
  156.2300  140.2970  156.0117 H   0  0  0  0  0  0  0  0  0  0  0  0  # atno 8009 bound_to 7997
  155.2239  140.0401  157.2943 H   0  0  0  0  0  0  0  0  0  0  0  0  # atno 8010 bound_to 7997
  140.1775  144.4215  150.6631 H   0  0  0  0  0  0  0  0  0  0  0  0  # atno 10167 bound_to 10162
  156.4936  130.4572  149.6741 H   0  0  0  0  0  0  0  0  0  0  0  0  # atno 10718 bound_to 10713
  154.8469  135.3467  154.6189 H   0  0  0  0  0  0  0  0  0  0  0  0  # atno 10763 bound_to 10752
  153.6798  135.6980  153.5126 H   0  0  0  0  0  0  0  0  0  0  0  0  # atno 10764 bound_to 10752
  153.2677  135.4303  155.0913 H   0  0  0  0  0  0  0  0  0  0  0  0  # atno 10765 bound_to 10752
  141.1444  133.6676  156.5934 H   0  0  0  0  0  0  0  0  0  0  0  0  # atno 11005 bound_to 11000
  146.3456  140.1966  142.8589 LP  0  0  0  0  0  0  0  0  0  0  0  0  # atno 17320 bound_to 7965
  145.0153  140.8748  143.5199 LP  0  0  0  0  0  0  0  0  0  0  0  0  # atno 17321 bound_to 7965
  140.6542  143.2233  151.6008 LP  0  0  0  0  0  0  0  0  0  0  0  0  # atno 17342 bound_to 10162
  139.5311  144.2915  152.1148 LP  0  0  0  0  0  0  0  0  0  0  0  0  # atno 17343 bound_to 10162
  156.3402  130.7378  151.2321 LP  0  0  0  0  0  0  0  0  0  0  0  0  # atno 17370 bound_to 10713
  157.7471  131.0406  150.4605 LP  0  0  0  0  0  0  0  0  0  0  0  0  # atno 17371 bound_to 10713
  140.3745  134.7577  157.4620 LP  0  0  0  0  0  0  0  0  0  0  0  0  # atno 17394 bound_to 11000
  140.0685  134.5896  155.8668 LP  0  0  0  0  0  0  0  0  0  0  0  0  # atno 17395 bound_to 11000

$$$$
