AV-unprocessed.smi:942|AV-procd|sdf|4228|dock6
  -GOLD-   22720 2133D 1   1.00000     0.00000
 Structure written by MMmdl.
 42 44  0  0  0  0  0  0  0  0  1 V2000
  151.2831  139.7015  157.8177 O   0  0  0  0  0  0  0  0  0  0  0  0
  151.6752  140.7494  157.3036 C   0  0  0  0  0  0  0  0  0  0  0  0
  151.6478  140.9756  155.9815 N   0  0  0  0  0  0  0  0  0  0  0  0
  151.1777  140.0307  154.9726 C   0  0  1  0  0  0  0  0  0  0  0  0
  152.0661  138.7700  154.9182 C   0  0  0  0  0  0  0  0  0  0  0  0
  151.2081  137.6158  155.4411 C   0  0  0  0  0  0  0  0  0  0  0  0
  149.7800  138.0159  155.0844 C   0  0  0  0  0  0  0  0  0  0  0  0
  149.7581  139.5301  155.3205 C   0  0  2  0  0  0  0  0  0  0  0  0
  148.7069  140.2134  154.5830 N   0  0  0  0  0  0  0  0  0  0  0  0
  147.7921  139.6600  153.6942 C   0  0  0  0  0  0  0  0  0  0  0  0
  147.0025  140.6939  153.2446 C   0  0  0  0  0  0  0  0  0  0  0  0
  147.4109  141.8864  153.8363 N   0  0  0  0  0  0  0  0  0  0  0  0
  148.4233  141.5233  154.6131 C   0  0  0  0  0  0  0  0  0  0  0  0
  152.2307  141.8828  158.1761 C   0  0  0  0  0  0  0  0  0  0  0  0
  152.2298  141.4892  159.6686 C   0  0  0  0  0  0  0  0  0  0  0  0
  152.7867  142.6239  160.5443 C   0  0  0  0  0  0  0  0  0  0  0  0
  152.0093  143.9316  160.3242 C   0  0  0  0  0  0  0  0  0  0  0  0
  151.9888  144.3252  158.8386 C   0  0  0  0  0  0  0  0  0  0  0  0
  151.4323  143.1868  157.9673 C   0  0  0  0  0  0  0  0  0  0  0  0
  151.9852  141.8670  155.6481 H   0  0  0  0  0  0  0  0  0  0  0  0
  151.1871  140.5125  153.9927 H   0  0  0  0  0  0  0  0  0  0  0  0
  152.3411  138.5726  153.8814 H   0  0  0  0  0  0  0  0  0  0  0  0
  152.9962  138.8679  155.4797 H   0  0  0  0  0  0  0  0  0  0  0  0
  151.4942  136.6536  155.0152 H   0  0  0  0  0  0  0  0  0  0  0  0
  151.3092  137.5448  156.5250 H   0  0  0  0  0  0  0  0  0  0  0  0
  149.5918  137.7807  154.0360 H   0  0  0  0  0  0  0  0  0  0  0  0
  149.0359  137.4889  155.6824 H   0  0  0  0  0  0  0  0  0  0  0  0
  149.5753  139.6842  156.3860 H   0  0  0  0  0  0  0  0  0  0  0  0
  147.7793  138.6056  153.4603 H   0  0  0  0  0  0  0  0  0  0  0  0
  146.1796  140.6716  152.5453 H   0  0  0  0  0  0  0  0  0  0  0  0
  148.9719  142.2293  155.2195 H   0  0  0  0  0  0  0  0  0  0  0  0
  153.2641  142.0675  157.8767 H   0  0  0  0  0  0  0  0  0  0  0  0
  151.2165  141.2493  159.9952 H   0  0  0  0  0  0  0  0  0  0  0  0
  152.8241  140.5872  159.8200 H   0  0  0  0  0  0  0  0  0  0  0  0
  152.7428  142.3379  161.5956 H   0  0  0  0  0  0  0  0  0  0  0  0
  153.8405  142.7815  160.3107 H   0  0  0  0  0  0  0  0  0  0  0  0
  150.9866  143.8130  160.6845 H   0  0  0  0  0  0  0  0  0  0  0  0
  152.4544  144.7327  160.9148 H   0  0  0  0  0  0  0  0  0  0  0  0
  151.3903  145.2262  158.7011 H   0  0  0  0  0  0  0  0  0  0  0  0
  152.9996  144.5734  158.5124 H   0  0  0  0  0  0  0  0  0  0  0  0
  151.4641  143.4830  156.9179 H   0  0  0  0  0  0  0  0  0  0  0  0
  150.3803  143.0288  158.2116 H   0  0  0  0  0  0  0  0  0  0  0  0
  1  2  2  0  0  0  0
  2  3  1  0  0  0  0
  2 14  1  0  0  0  0
  3  4  1  0  0  0  0
  3 20  1  0  0  0  0
  4  8  1  0  0  0  0
  4  5  1  0  0  0  0
  4 21  1  0  0  0  0
  5  6  1  0  0  0  0
  5 22  1  0  0  0  0
  5 23  1  0  0  0  0
  6  7  1  0  0  0  0
  6 24  1  0  0  0  0
  6 25  1  0  0  0  0
  7  8  1  0  0  0  0
  7 26  1  0  0  0  0
  7 27  1  0  0  0  0
  8  9  1  0  0  0  0
  8 28  1  0  0  0  0
  9 13  1  0  0  0  0
  9 10  1  0  0  0  0
 10 11  2  0  0  0  0
 10 29  1  0  0  0  0
 11 12  1  0  0  0  0
 11 30  1  0  0  0  0
 12 13  2  0  0  0  0
 13 31  1  0  0  0  0
 14 19  1  0  0  0  0
 14 15  1  0  0  0  0
 14 32  1  0  0  0  0
 15 16  1  0  0  0  0
 15 33  1  0  0  0  0
 15 34  1  0  0  0  0
 16 17  1  0  0  0  0
 16 35  1  0  0  0  0
 16 36  1  0  0  0  0
 17 18  1  0  0  0  0
 17 37  1  0  0  0  0
 17 38  1  0  0  0  0
 18 19  1  0  0  0  0
 18 39  1  0  0  0  0
 18 40  1  0  0  0  0
 19 41  1  0  0  0  0
 19 42  1  0  0  0  0
M  END
> <s_m_source_file>
AV-unprocessed.smi

> <i_m_source_file_index>
942

> <i_lp_mmshare_version>
43012

> <i_f3d_flags>
0

> <s_epik_input>
W0NIMl0xW0NIMl1bQ0gyXVtDSDJdW0NIMl1bQ0hdMUMoPU8pW05IXVtDQEBIXTJbQ0gyXVtDSDJdW0NIMl1bQ0BIXTJuM1tjSF1bY0hdbltjSF0z

> <s_epik_cmdline>
J2VwaWtfcHl0aG9uJywgJy1waCcsICc3LjAnLCAnLXRuJywgJzgnLCAnLW1hJywgJzIwMCcsICctbWV0YWxfYmluZGluZycsICctaW1hZScsICc8aW5maWxlLm1hZT4nLCAnLW9tYWUnLCAnPG91dGZpbGUubWFlPic=

> <r_lp_tautomer_probability>
1

> <r_epik_Ionization_Penalty>
0.778458

> <r_epik_Ionization_Penalty_Charging>
0.778458

> <r_epik_Ionization_Penalty_Neutral>
2.79355e-08

> <r_epik_State_Penalty>
0.807804

> <r_epik_Charging_Adjusted_Penalty>
1.58626

> <i_epik_Tot_Q>
0

> <i_epik_Tot_abs_Q>
0

> <r_epik_Metal_State_Penalty>
0.343007

> <b_epik_Metal_Only>
0

> <s_lp_Force_Field>
OPLS_2005

> <r_lp_Energy>
31.6658

> <b_lp_Chiralities_Consistent>
1

> <s_lp_Variant>
AV-unprocessed.smi:942-8

> <Gold.Version>
5.8.1

> <Gold.Id.Protein>
6NUR|6NUR_protein|mol2

> <Gold.PLP.Fitness>
42.4868

> <Gold.PLP.PLP>
-36.5641

> <Gold.PLP.part.hbond>
0.0000

> <Gold.PLP.part.metal>
0.0000

> <Gold.PLP.part.buried>
-0.2923

> <Gold.PLP.part.nonpolar>
-36.3913

> <Gold.PLP.part.repulsive>
0.3400

> <Gold.PLP.ligand.clash>
0.0000

> <Gold.PLP.ligand.torsion>
0.0464

> <Gold.PLP.Chemscore.Hbond>
0.0000

> <Gold.PLP.Chemscore.CHOScore>
2.0000

> <Gold.PLP.Chemscore.Metal>
0.0000

> <Gold.Chemscore.Hbonds>
donor molecule, donor type, donor heavy atom, donor atom, acceptor molecule, acceptor atom, score
      L1  C    11    30       P1 10175  1.00
      L1  C    13    31       P1  8028  1.00

> <Gold.PLP.Chemscore.Internal.Correction>
0.0155

> <Gold.Rescore>
     Score         DG    S(hbond)    S(metal)    S(lipo)     H(rot)  DE(clash)    DE(int)     intcor
     12.60     -13.84       0.00        0.00     102.99       1.44       0.01       1.24       ----

> <Gold.Chemscore.Fitness>
12.5995

> <Gold.Chemscore.DG>
-13.8446

> <Gold.Chemscore.ZeroCoef>
-5.4800

> <Gold.Chemscore.Hbond>
0.0000

> <Gold.Chemscore.Metal>
0.0000

> <Gold.Chemscore.Lipo>
102.9901

> <Gold.Chemscore.Internal_Hbond>
0.0000

> <Gold.Chemscore.DEClash>
0.0082

> <Gold.Chemscore.DEInternal>
1.2370

> <Gold.Chemscore.Rot>
1.4395

> <Gold.Chemscore.Internal.Correction>
   9.000000E+99

> <Gold.Chemscore.Hbond.Weighted>
-0.0000

> <Gold.Chemscore.Metal.Weighted>
-0.0000

> <Gold.Chemscore.Lipo.Weighted>
-12.0498

> <Gold.Chemscore.Internal_Hbond.Weighted>
0.0000

> <Gold.Chemscore.DEClash.Weighted>
0.0082

> <Gold.Chemscore.DEInternal.Weighted>
1.2370

> <Gold.Chemscore.Rot.Weighted>
3.6852

> <Gold.Chemscore.Internal.Correction.Weighted>
   9.000000E+99

> <Gold.Protein.RotatedTorsions>
[ 6907 6896 6895 6894 ] final  109.16 input  -60.11 | X-H torsion
[ 7974 7965 7964 7962 ] final   38.10 input  175.53 | X-H torsion
[ 8008 7997 7996 7995 ] final  -78.58 input   59.86 | X-H torsion
[ 10167 10162 10161 10158 ] final   60.20 input  -65.29 | X-H torsion
[ 10718 10713 10712 10709 ] final  151.20 input   66.30 | X-H torsion
[ 10763 10752 10751 10750 ] final  170.63 input  -60.55 | X-H torsion
[ 11005 11000 10999 10996 ] final   96.86 input  -57.11 | X-H torsion

> <Gold.Protein.ActiveResidues>
 VAL166  LYS551  ARG553  GLY616  TRP617  ASP618  TYR619  PRO620  LYS621  CYS622 
 ASP623  PHE694  ASN695  SER759  ASP760  ASP761  ALA762  ILE779  LEU786  VAL792 
 PHE793  MET794  SER795  GLU796  ALA797  LYS798  CYS799  TRP800  GLU811  SER814 

> <Gold.Protein.RotatedAtoms>
  152.5080  133.8984  159.7428 H   0  0  0  0  0  0  0  0  0  0  0  0  # atno 6907 bound_to 6896
  150.9406  133.6653  159.2798 H   0  0  0  0  0  0  0  0  0  0  0  0  # atno 6908 bound_to 6896
  151.3966  135.0969  159.9595 H   0  0  0  0  0  0  0  0  0  0  0  0  # atno 6909 bound_to 6896
  146.1087  139.5813  142.9366 H   0  0  0  0  0  0  0  0  0  0  0  0  # atno 7974 bound_to 7965
  154.5703  140.0692  156.8954 H   0  0  0  0  0  0  0  0  0  0  0  0  # atno 8008 bound_to 7997
  155.2646  140.3361  155.4252 H   0  0  0  0  0  0  0  0  0  0  0  0  # atno 8009 bound_to 7997
  156.2113  140.1760  156.7674 H   0  0  0  0  0  0  0  0  0  0  0  0  # atno 8010 bound_to 7997
  140.1681  144.4304  150.6675 H   0  0  0  0  0  0  0  0  0  0  0  0  # atno 10167 bound_to 10162
  157.2738  131.0822  151.1581 H   0  0  0  0  0  0  0  0  0  0  0  0  # atno 10718 bound_to 10713
  154.4004  135.2755  155.2100 H   0  0  0  0  0  0  0  0  0  0  0  0  # atno 10763 bound_to 10752
  154.4128  135.6018  153.5966 H   0  0  0  0  0  0  0  0  0  0  0  0  # atno 10764 bound_to 10752
  152.9831  135.5953  154.4271 H   0  0  0  0  0  0  0  0  0  0  0  0  # atno 10765 bound_to 10752
  139.8779  134.8972  156.4222 H   0  0  0  0  0  0  0  0  0  0  0  0  # atno 11005 bound_to 11000
  145.5707  141.0394  143.2176 LP  0  0  0  0  0  0  0  0  0  0  0  0  # atno 17320 bound_to 7965
  144.7493  139.7236  143.7279 LP  0  0  0  0  0  0  0  0  0  0  0  0  # atno 17321 bound_to 7965
  140.6600  143.2249  151.5879 LP  0  0  0  0  0  0  0  0  0  0  0  0  # atno 17342 bound_to 10162
  139.5350  144.2806  152.1232 LP  0  0  0  0  0  0  0  0  0  0  0  0  # atno 17343 bound_to 10162
  157.3042  130.6858  149.6180 LP  0  0  0  0  0  0  0  0  0  0  0  0  # atno 17370 bound_to 10713
  155.9663  130.4383  150.5211 LP  0  0  0  0  0  0  0  0  0  0  0  0  # atno 17371 bound_to 10713
  140.9126  133.7701  155.9809 LP  0  0  0  0  0  0  0  0  0  0  0  0  # atno 17394 bound_to 11000
  140.8530  134.2932  157.5267 LP  0  0  0  0  0  0  0  0  0  0  0  0  # atno 17395 bound_to 11000

$$$$
