AV-unprocessed.smi:3032|AV-procd|sdf|11568|dock5
  -GOLD-   2272016533D 1   1.00000     0.00000
 Structure written by MMmdl.
 37 38  0  0  0  0  0  0  0  0  1 V2000
  144.1367  136.0122  150.2134 C   0  0  0  0  0  0  0  0  0  0  0  0
  144.5749  134.9562  151.2382 C   0  0  1  0  0  0  0  0  0  0  0  0
  143.8405  133.6212  151.0166 C   0  0  0  0  0  0  0  0  0  0  0  0
  144.2721  132.5618  152.0417 C   0  0  0  0  0  0  0  0  0  0  0  0
  145.7963  132.3462  152.0181 C   0  0  0  0  0  0  0  0  0  0  0  0
  146.6090  133.6522  152.1787 C   0  0  2  0  0  0  0  0  0  0  0  0
  146.6673  134.1467  153.6366 C   0  0  0  0  0  0  0  0  0  0  0  0
  145.9971  133.6071  154.5167 O   0  0  0  0  0  0  0  0  0  0  0  0
  147.4790  135.1882  153.8787 N   0  0  0  0  0  0  0  0  0  0  0  0
  147.6634  135.8232  155.1785 C   0  0  0  0  0  0  0  0  0  0  0  0
  149.1504  136.0728  155.4785 C   0  0  0  0  0  0  0  0  0  0  0  0
  149.5762  137.4642  155.1425 C   0  0  0  0  0  0  0  0  0  0  0  0
  150.1419  138.3189  156.0035 N   0  0  0  0  0  0  0  0  0  0  0  0
  150.3864  139.4733  155.2762 N   0  0  0  0  0  0  0  0  0  0  0  0
  149.9486  139.2008  154.0459 C   0  0  0  0  0  0  0  0  0  0  0  0
  149.4402  137.9708  153.9075 N   0  0  0  0  0  0  0  0  0  0  0  0
  146.1040  134.7416  151.2025 C   0  0  0  0  0  0  0  0  0  0  0  0
  149.0524  137.5361  153.0830 H   0  0  0  0  0  0  0  0  0  0  0  0
  144.3754  135.7017  149.1958 H   0  0  0  0  0  0  0  0  0  0  0  0
  144.6331  136.9657  150.3961 H   0  0  0  0  0  0  0  0  0  0  0  0
  143.0616  136.1866  150.2649 H   0  0  0  0  0  0  0  0  0  0  0  0
  144.2975  135.3351  152.2217 H   0  0  0  0  0  0  0  0  0  0  0  0
  142.7624  133.7724  151.0819 H   0  0  0  0  0  0  0  0  0  0  0  0
  144.0398  133.2534  150.0091 H   0  0  0  0  0  0  0  0  0  0  0  0
  143.9462  132.8596  153.0381 H   0  0  0  0  0  0  0  0  0  0  0  0
  143.7664  131.6194  151.8304 H   0  0  0  0  0  0  0  0  0  0  0  0
  146.0767  131.6290  152.7907 H   0  0  0  0  0  0  0  0  0  0  0  0
  146.0684  131.8803  151.0700 H   0  0  0  0  0  0  0  0  0  0  0  0
  147.6358  133.4201  151.8904 H   0  0  0  0  0  0  0  0  0  0  0  0
  147.9996  135.5733  153.1039 H   0  0  0  0  0  0  0  0  0  0  0  0
  147.1003  136.7571  155.2242 H   0  0  0  0  0  0  0  0  0  0  0  0
  147.2376  135.1670  155.9377 H   0  0  0  0  0  0  0  0  0  0  0  0
  149.3566  135.8851  156.5332 H   0  0  0  0  0  0  0  0  0  0  0  0
  149.7723  135.3777  154.9130 H   0  0  0  0  0  0  0  0  0  0  0  0
  150.0016  139.9103  153.2332 H   0  0  0  0  0  0  0  0  0  0  0  0
  146.3988  134.4626  150.1900 H   0  0  0  0  0  0  0  0  0  0  0  0
  146.6120  135.6855  151.4066 H   0  0  0  0  0  0  0  0  0  0  0  0
  1  2  1  0  0  0  0
  1 19  1  0  0  0  0
  1 20  1  0  0  0  0
  1 21  1  0  0  0  0
  2 17  1  0  0  0  0
  2  3  1  0  0  0  0
  2 22  1  0  0  0  0
  3  4  1  0  0  0  0
  3 23  1  0  0  0  0
  3 24  1  0  0  0  0
  4  5  1  0  0  0  0
  4 25  1  0  0  0  0
  4 26  1  0  0  0  0
  5  6  1  0  0  0  0
  5 27  1  0  0  0  0
  5 28  1  0  0  0  0
  6  7  1  0  0  0  0
  6 17  1  0  0  0  0
  6 29  1  0  0  0  0
  7  8  2  0  0  0  0
  7  9  1  0  0  0  0
  9 10  1  0  0  0  0
  9 30  1  0  0  0  0
 10 11  1  0  0  0  0
 10 31  1  0  0  0  0
 10 32  1  0  0  0  0
 11 12  1  0  0  0  0
 11 33  1  0  0  0  0
 11 34  1  0  0  0  0
 12 16  1  0  0  0  0
 12 13  2  0  0  0  0
 13 14  1  0  0  0  0
 14 15  2  0  0  0  0
 15 16  1  0  0  0  0
 15 35  1  0  0  0  0
 16 18  1  0  0  0  0
 17 36  1  0  0  0  0
 17 37  1  0  0  0  0
M  END
> <s_m_source_file>
AV-unprocessed.smi

> <i_m_source_file_index>
3032

> <i_lp_mmshare_version>
43012

> <i_f3d_flags>
0

> <s_epik_input>
W0NIM11bQ0BASF0xW0NIMl1bQ0gyXVtDSDJdW0NASF0oW0NIMl0xKUMoPU8pW05IXVtDSDJdW0NIMl1jMm5uW2NIXVtuSF0y

> <s_epik_cmdline>
J2VwaWtfcHl0aG9uJywgJy1waCcsICc3LjAnLCAnLXRuJywgJzgnLCAnLW1hJywgJzIwMCcsICctbWV0YWxfYmluZGluZycsICctaW1hZScsICc8aW5maWxlLm1hZT4nLCAnLW9tYWUnLCAnPG91dGZpbGUubWFlPic=

> <r_lp_tautomer_probability>
0.0517155

> <r_epik_Ionization_Penalty>
0.00149837

> <r_epik_Ionization_Penalty_Charging>
0

> <r_epik_Ionization_Penalty_Neutral>
0.00149837

> <r_epik_State_Penalty>
2.1109

> <r_epik_Charging_Adjusted_Penalty>
2.1109

> <i_epik_Tot_Q>
0

> <i_epik_Tot_abs_Q>
0

> <r_epik_Metal_State_Penalty>
2.23635

> <b_epik_Metal_Only>
0

> <s_lp_Force_Field>
OPLS_2005

> <r_lp_Energy>
9.23597

> <b_lp_Chiralities_Consistent>
1

> <s_lp_Variant>
AV-unprocessed.smi:3032-12

> <Gold.Version>
5.8.1

> <Gold.Id.Protein>
6NUR|6NUR_protein|mol2

> <Gold.PLP.Fitness>
37.1089

> <Gold.PLP.PLP>
-28.8594

> <Gold.PLP.part.hbond>
-3.9043

> <Gold.PLP.part.metal>
0.0000

> <Gold.PLP.part.buried>
-4.7642

> <Gold.PLP.part.nonpolar>
-21.0512

> <Gold.PLP.part.repulsive>
0.2229

> <Gold.PLP.ligand.clash>
0.0000

> <Gold.PLP.ligand.torsion>
0.4033

> <Gold.PLP.Chemscore.Hbond>
3.0000

> <Gold.PLP.Chemscore.CHOScore>
0.0000

> <Gold.PLP.Chemscore.Metal>
0.0000

> <Gold.Chemscore.Hbonds>
donor molecule, donor type, donor heavy atom, donor atom, acceptor molecule, acceptor atom, score
      L1  H     9    30       P1  7948  1.00
      L1  H    16    18       P1  7948  1.00
      L1  C    15    35       P1  7957  1.00

> <Gold.PLP.Chemscore.Internal.Correction>
0.0561

> <Gold.Rescore>
     Score         DG    S(hbond)    S(metal)    S(lipo)     H(rot)  DE(clash)    DE(int)     intcor
     11.16     -11.60       1.53        0.00      57.94       2.25       0.01       0.43       ----

> <Gold.Chemscore.Fitness>
11.1593

> <Gold.Chemscore.DG>
-11.6008

> <Gold.Chemscore.ZeroCoef>
-5.4800

> <Gold.Chemscore.Hbond>
1.5275

> <Gold.Chemscore.Metal>
0.0000

> <Gold.Chemscore.Lipo>
57.9426

> <Gold.Chemscore.Internal_Hbond>
0.0000

> <Gold.Chemscore.DEClash>
0.0133

> <Gold.Chemscore.DEInternal>
0.4282

> <Gold.Chemscore.Rot>
2.2501

> <Gold.Chemscore.Internal.Correction>
   9.000000E+99

> <Gold.Chemscore.Hbonds>
donor molecule, donor type, donor heavy atom, donor atom, acceptor molecule, acceptor atom, score
      L1  H     9    30       P1  7948  1.00
      L1  H    16    18       P1  7948  0.97

> <Gold.Chemscore.Hbond.Weighted>
-5.1018

> <Gold.Chemscore.Metal.Weighted>
-0.0000

> <Gold.Chemscore.Lipo.Weighted>
-6.7793

> <Gold.Chemscore.Internal_Hbond.Weighted>
0.0000

> <Gold.Chemscore.DEClash.Weighted>
0.0133

> <Gold.Chemscore.DEInternal.Weighted>
0.4282

> <Gold.Chemscore.Rot.Weighted>
5.7603

> <Gold.Chemscore.Internal.Correction.Weighted>
   9.000000E+99

> <Gold.Protein.RotatedTorsions>
[ 6907 6896 6895 6894 ] final  137.25 input  -60.11 | X-H torsion
[ 7974 7965 7964 7962 ] final  -12.44 input  175.53 | X-H torsion
[ 8008 7997 7996 7995 ] final -158.41 input   59.86 | X-H torsion
[ 10167 10162 10161 10158 ] final  142.17 input  -65.29 | X-H torsion
[ 10718 10713 10712 10709 ] final  -99.08 input   66.30 | X-H torsion
[ 10763 10752 10751 10750 ] final  -22.17 input  -60.55 | X-H torsion
[ 11005 11000 10999 10996 ] final -109.87 input  -57.11 | X-H torsion

> <Gold.Protein.ActiveResidues>
 VAL166  LYS551  ARG553  GLY616  TRP617  ASP618  TYR619  PRO620  LYS621  CYS622 
 ASP623  PHE694  ASN695  SER759  ASP760  ASP761  ALA762  ILE779  LEU786  VAL792 
 PHE793  MET794  SER795  GLU796  ALA797  LYS798  CYS799  TRP800  GLU811  SER814 

> <Gold.Protein.RotatedAtoms>
  152.2802  133.5463  159.5492 H   0  0  0  0  0  0  0  0  0  0  0  0  # atno 6907 bound_to 6896
  150.7193  134.0574  159.3828 H   0  0  0  0  0  0  0  0  0  0  0  0  # atno 6908 bound_to 6896
  151.8485  135.0566  160.0507 H   0  0  0  0  0  0  0  0  0  0  0  0  # atno 6909 bound_to 6896
  146.2152  140.3057  142.8378 H   0  0  0  0  0  0  0  0  0  0  0  0  # atno 7974 bound_to 7965
  155.7471  140.0821  157.2219 H   0  0  0  0  0  0  0  0  0  0  0  0  # atno 8008 bound_to 7997
  154.4016  140.1567  156.2737 H   0  0  0  0  0  0  0  0  0  0  0  0  # atno 8009 bound_to 7997
  155.8966  140.3412  155.5998 H   0  0  0  0  0  0  0  0  0  0  0  0  # atno 8010 bound_to 7997
  139.5001  144.6124  151.6240 H   0  0  0  0  0  0  0  0  0  0  0  0  # atno 10167 bound_to 10162
  156.0124  130.5267  150.6618 H   0  0  0  0  0  0  0  0  0  0  0  0  # atno 10718 bound_to 10713
  153.6476  135.6982  153.5220 H   0  0  0  0  0  0  0  0  0  0  0  0  # atno 10763 bound_to 10752
  153.2732  135.4208  155.1007 H   0  0  0  0  0  0  0  0  0  0  0  0  # atno 10764 bound_to 10752
  154.8484  135.3583  154.6021 H   0  0  0  0  0  0  0  0  0  0  0  0  # atno 10765 bound_to 10752
  141.0823  133.9198  157.2261 H   0  0  0  0  0  0  0  0  0  0  0  0  # atno 11005 bound_to 11000
  144.9024  140.7659  143.5858 LP  0  0  0  0  0  0  0  0  0  0  0  0  # atno 17320 bound_to 7965
  145.2984  139.1859  143.4703 LP  0  0  0  0  0  0  0  0  0  0  0  0  # atno 17321 bound_to 7965
  140.5803  143.9957  150.6264 LP  0  0  0  0  0  0  0  0  0  0  0  0  # atno 17342 bound_to 10162
  140.3104  143.3201  152.0884 LP  0  0  0  0  0  0  0  0  0  0  0  0  # atno 17343 bound_to 10162
  157.4359  131.0855  151.0992 LP  0  0  0  0  0  0  0  0  0  0  0  0  # atno 17370 bound_to 10713
  157.1551  130.6201  149.5594 LP  0  0  0  0  0  0  0  0  0  0  0  0  # atno 17371 bound_to 10713
  139.9638  135.0147  156.9332 LP  0  0  0  0  0  0  0  0  0  0  0  0  # atno 17394 bound_to 11000
  140.5440  134.0692  155.7350 LP  0  0  0  0  0  0  0  0  0  0  0  0  # atno 17395 bound_to 11000

$$$$
