AV-unprocessed.smi:2748|AV-procd|sdf|10583|dock1
  -GOLD-   2272015 33D 1   1.00000     0.00000
 Structure written by MMmdl.
 29 31  0  0  0  0  0  0  0  0  2 V2000
  150.5340  139.9262  154.3247 O   0  0  0  0  0  0  0  0  0  0  0  0
  151.1060  139.7616  155.4013 C   0  0  0  0  0  0  0  0  0  0  0  0
  152.2086  138.9674  155.5356 N   0  5  0  0  0  0  0  0  0  0  0  0
  152.8572  138.7704  156.7250 C   0  0  0  0  0  0  0  0  0  0  0  0
  153.8558  138.0562  156.8203 O   0  0  0  0  0  0  0  0  0  0  0  0
  152.3791  139.3895  157.8448 N   0  0  0  0  0  0  0  0  0  0  0  0
  153.0130  139.2355  159.1611 C   0  0  0  0  0  0  0  0  0  0  0  0
  153.8471  140.4735  159.5410 C   0  0  2  0  0  0  0  0  0  0  0  0
  154.1047  140.5710  161.0684 C   0  0  0  0  0  0  0  0  0  0  0  0
  153.4810  141.8809  161.4013 C   0  0  0  0  0  0  0  0  0  0  0  0
  153.3983  142.5161  162.6520 C   0  0  0  0  0  0  0  0  0  0  0  0
  152.7457  143.7671  162.7140 C   0  0  0  0  0  0  0  0  0  0  0  0
  152.1967  144.3480  161.5453 C   0  0  0  0  0  0  0  0  0  0  0  0
  152.2938  143.6858  160.3005 C   0  0  0  0  0  0  0  0  0  0  0  0
  152.9473  142.4417  160.2548 C   0  0  0  0  0  0  0  0  0  0  0  0
  153.1384  141.6653  159.1477 O   0  0  0  0  0  0  0  0  0  0  0  0
  151.2519  140.2239  157.7599 C   0  0  0  0  0  0  0  0  0  0  0  0
  150.6036  140.4337  156.5978 C   0  0  0  0  0  0  0  0  0  0  0  0
  149.2213  141.4677  156.5230 Cl  0  0  0  0  0  0  0  0  0  0  0  0
  152.2578  139.0515  159.9268 H   0  0  0  0  0  0  0  0  0  0  0  0
  153.6445  138.3455  159.1675 H   0  0  0  0  0  0  0  0  0  0  0  0
  154.8038  140.4590  159.0171 H   0  0  0  0  0  0  0  0  0  0  0  0
  153.6265  139.7688  161.6316 H   0  0  0  0  0  0  0  0  0  0  0  0
  155.1697  140.5830  161.3020 H   0  0  0  0  0  0  0  0  0  0  0  0
  153.8195  142.0625  163.5372 H   0  0  0  0  0  0  0  0  0  0  0  0
  152.6645  144.2839  163.6589 H   0  0  0  0  0  0  0  0  0  0  0  0
  151.6997  145.3050  161.6054 H   0  0  0  0  0  0  0  0  0  0  0  0
  151.8773  144.1244  159.4057 H   0  0  0  0  0  0  0  0  0  0  0  0
  150.9534  140.6844  158.6903 H   0  0  0  0  0  0  0  0  0  0  0  0
  1  2  2  0  0  0  0
  2 18  1  0  0  0  0
  2  3  1  0  0  0  0
  3  4  1  0  0  0  0
  4  5  2  0  0  0  0
  4  6  1  0  0  0  0
  6  7  1  0  0  0  0
  6 17  1  0  0  0  0
  7  8  1  0  0  0  0
  7 20  1  0  0  0  0
  7 21  1  0  0  0  0
  8 16  1  0  0  0  0
  8  9  1  0  0  0  0
  8 22  1  0  0  0  0
  9 10  1  0  0  0  0
  9 23  1  0  0  0  0
  9 24  1  0  0  0  0
 10 15  2  0  0  0  0
 10 11  1  0  0  0  0
 11 12  2  0  0  0  0
 11 25  1  0  0  0  0
 12 13  1  0  0  0  0
 12 26  1  0  0  0  0
 13 14  2  0  0  0  0
 13 27  1  0  0  0  0
 14 15  1  0  0  0  0
 14 28  1  0  0  0  0
 15 16  1  0  0  0  0
 17 18  2  0  0  0  0
 17 29  1  0  0  0  0
 18 19  1  0  0  0  0
M  CHG  1   3  -1
M  END
> <s_m_source_file>
AV-unprocessed.smi

> <i_m_source_file_index>
2748

> <i_lp_mmshare_version>
43012

> <i_f3d_flags>
0

> <s_epik_input>
Tz1jMVtuSF1jKD1PKW4oW2NIXWMxQ2wpW0NIMl1bQ0BIXShbQ0gyXTIpT2MoYzIzKVtjSF1bY0hdW2NIXVtjSF0z

> <s_epik_cmdline>
J2VwaWtfcHl0aG9uJywgJy1waCcsICc3LjAnLCAnLXRuJywgJzgnLCAnLW1hJywgJzIwMCcsICctbWV0YWxfYmluZGluZycsICctaW1hZScsICc8aW5maWxlLm1hZT4nLCAnLW9tYWUnLCAnPG91dGZpbGUubWFlPic=

> <r_lp_tautomer_probability>
1

> <r_epik_Ionization_Penalty>
2.00749

> <r_epik_Ionization_Penalty_Charging>
2.26533e-08

> <r_epik_Ionization_Penalty_Neutral>
2.00749

> <r_epik_State_Penalty>
2.13675

> <r_epik_Charging_Adjusted_Penalty>
2.13675

> <i_epik_Tot_Q>
-1

> <i_epik_Tot_abs_Q>
1

> <r_epik_Metal_State_Penalty>
0.0208594

> <b_epik_Metal_Only>
0

> <s_lp_Force_Field>
OPLS_2005

> <r_lp_Energy>
29.9215

> <b_lp_Chiralities_Consistent>
1

> <s_lp_Variant>
AV-unprocessed.smi:2748-3

> <Gold.Version>
5.8.1

> <Gold.Id.Protein>
6NUR|6NUR_protein|mol2

> <Gold.PLP.Fitness>
43.0435

> <Gold.PLP.PLP>
-40.8431

> <Gold.PLP.part.hbond>
-2.0000

> <Gold.PLP.part.metal>
0.0000

> <Gold.PLP.part.buried>
-2.2480

> <Gold.PLP.part.nonpolar>
-36.1432

> <Gold.PLP.part.repulsive>
0.1275

> <Gold.PLP.ligand.clash>
0.0000

> <Gold.PLP.ligand.torsion>
0.4003

> <Gold.PLP.Chemscore.Hbond>
1.0000

> <Gold.PLP.Chemscore.CHOScore>
0.0000

> <Gold.PLP.Chemscore.Metal>
0.0000

> <Gold.Chemscore.Hbonds>
donor molecule, donor type, donor heavy atom, donor atom, acceptor molecule, acceptor atom, score
      P1  H  7989  7998       L1     1  1.00

> <Gold.PLP.Chemscore.Internal.Correction>
0.0011

> <Gold.Rescore>
     Score         DG    S(hbond)    S(metal)    S(lipo)     H(rot)  DE(clash)    DE(int)     intcor
     16.11     -17.94       0.96        0.00     107.48       1.29       0.14       1.69       ----

> <Gold.Chemscore.Fitness>
16.1140

> <Gold.Chemscore.DG>
-17.9397

> <Gold.Chemscore.ZeroCoef>
-5.4800

> <Gold.Chemscore.Hbond>
0.9574

> <Gold.Chemscore.Metal>
0.0000

> <Gold.Chemscore.Lipo>
107.4796

> <Gold.Chemscore.Internal_Hbond>
0.0000

> <Gold.Chemscore.DEClash>
0.1386

> <Gold.Chemscore.DEInternal>
1.6870

> <Gold.Chemscore.Rot>
1.2942

> <Gold.Chemscore.Internal.Correction>
   9.000000E+99

> <Gold.Chemscore.Hbonds>
donor molecule, donor type, donor heavy atom, donor atom, acceptor molecule, acceptor atom, score
      P1  H  7989  7998       L1     1  0.35

> <Gold.Chemscore.Hbond.Weighted>
-3.1976

> <Gold.Chemscore.Metal.Weighted>
-0.0000

> <Gold.Chemscore.Lipo.Weighted>
-12.5751

> <Gold.Chemscore.Internal_Hbond.Weighted>
0.0000

> <Gold.Chemscore.DEClash.Weighted>
0.1386

> <Gold.Chemscore.DEInternal.Weighted>
1.6870

> <Gold.Chemscore.Rot.Weighted>
3.3131

> <Gold.Chemscore.Internal.Correction.Weighted>
   9.000000E+99

> <Gold.Protein.RotatedTorsions>
[ 6907 6896 6895 6894 ] final   13.68 input  -60.11 | X-H torsion
[ 7974 7965 7964 7962 ] final -173.43 input  175.53 | X-H torsion
[ 8008 7997 7996 7995 ] final   55.60 input   59.86 | X-H torsion
[ 10167 10162 10161 10158 ] final -159.30 input  -65.29 | X-H torsion
[ 10718 10713 10712 10709 ] final  -59.69 input   66.30 | X-H torsion
[ 10763 10752 10751 10750 ] final   52.25 input  -60.55 | X-H torsion
[ 11005 11000 10999 10996 ] final   23.70 input  -57.11 | X-H torsion

> <Gold.Protein.ActiveResidues>
 VAL166  LYS551  ARG553  GLY616  TRP617  ASP618  TYR619  PRO620  LYS621  CYS622 
 ASP623  PHE694  ASN695  SER759  ASP760  ASP761  ALA762  ILE779  LEU786  VAL792 
 PHE793  MET794  SER795  GLU796  ALA797  LYS798  CYS799  TRP800  GLU811  SER814 

> <Gold.Protein.RotatedAtoms>
  151.7902  135.0738  160.0385 H   0  0  0  0  0  0  0  0  0  0  0  0  # atno 6907 bound_to 6896
  152.3162  133.5800  159.5722 H   0  0  0  0  0  0  0  0  0  0  0  0  # atno 6908 bound_to 6896
  150.7345  133.9995  159.3675 H   0  0  0  0  0  0  0  0  0  0  0  0  # atno 6909 bound_to 6896
  144.7138  140.1624  143.6375 H   0  0  0  0  0  0  0  0  0  0  0  0  # atno 7974 bound_to 7965
  155.5038  140.3475  155.4376 H   0  0  0  0  0  0  0  0  0  0  0  0  # atno 8008 bound_to 7997
  156.0896  140.1407  156.9637 H   0  0  0  0  0  0  0  0  0  0  0  0  # atno 8009 bound_to 7997
  154.4627  140.0929  156.6913 H   0  0  0  0  0  0  0  0  0  0  0  0  # atno 8010 bound_to 7997
  139.6626  143.9886  152.2235 H   0  0  0  0  0  0  0  0  0  0  0  0  # atno 10167 bound_to 10162
  156.1043  130.4182  150.0750 H   0  0  0  0  0  0  0  0  0  0  0  0  # atno 10718 bound_to 10713
  152.9788  135.5819  154.4548 H   0  0  0  0  0  0  0  0  0  0  0  0  # atno 10763 bound_to 10752
  154.4132  135.2770  155.2025 H   0  0  0  0  0  0  0  0  0  0  0  0  # atno 10764 bound_to 10752
  154.3806  135.6147  153.5843 H   0  0  0  0  0  0  0  0  0  0  0  0  # atno 10765 bound_to 10752
  140.3667  134.2067  155.7669 H   0  0  0  0  0  0  0  0  0  0  0  0  # atno 11005 bound_to 11000
  145.9018  139.2435  143.1489 LP  0  0  0  0  0  0  0  0  0  0  0  0  # atno 17320 bound_to 7965
  145.9803  140.8688  143.0118 LP  0  0  0  0  0  0  0  0  0  0  0  0  # atno 17321 bound_to 7965
  139.9629  144.6546  150.8062 LP  0  0  0  0  0  0  0  0  0  0  0  0  # atno 17342 bound_to 10162
  140.7586  143.3111  151.2843 LP  0  0  0  0  0  0  0  0  0  0  0  0  # atno 17343 bound_to 10162
  156.8730  130.9530  151.3607 LP  0  0  0  0  0  0  0  0  0  0  0  0  # atno 17370 bound_to 10713
  157.6218  130.8661  149.9122 LP  0  0  0  0  0  0  0  0  0  0  0  0  # atno 17371 bound_to 10713
  141.1967  133.8075  157.0659 LP  0  0  0  0  0  0  0  0  0  0  0  0  # atno 17394 bound_to 11000
  140.0584  134.9768  157.1261 LP  0  0  0  0  0  0  0  0  0  0  0  0  # atno 17395 bound_to 11000

$$$$
