AV-unprocessed.smi:3327|AV-procd|sdf|12790|dock6
  -GOLD-   2272019143D 1   1.00000     0.00000
 Structure written by MMmdl.
 40 41  0  0  0  0  0  0  0  0  1 V2000
  151.0116  144.4391  158.8095 C   0  0  0  0  0  0  0  0  0  0  0  0
  151.9868  143.2536  158.8142 C   0  0  1  0  0  0  0  0  0  0  0  0
  152.9835  143.3434  159.9907 C   0  0  0  0  0  0  0  0  0  0  0  0
  153.8888  142.0999  160.0758 C   0  0  0  0  0  0  0  0  0  0  0  0
  153.0502  140.8105  160.0480 C   0  0  0  0  0  0  0  0  0  0  0  0
  152.2269  140.8116  158.8313 N   0  0  0  0  0  0  0  0  0  0  0  0
  152.4027  139.9991  157.7602 C   0  0  0  0  0  0  0  0  0  0  0  0
  153.2803  139.1338  157.7308 O   0  0  0  0  0  0  0  0  0  0  0  0
  151.4743  140.1623  156.5440 C   0  0  0  0  0  0  0  0  0  0  0  0
  151.8289  139.2870  155.4191 N   0  0  0  0  0  0  0  0  0  0  0  0
  150.8499  139.4060  154.3495 C   0  0  0  0  0  0  0  0  0  0  0  0
  149.4369  139.2254  154.9231 C   0  0  0  0  0  0  0  0  0  0  0  0
  148.4776  140.0893  154.2622 N   0  0  0  0  0  0  0  0  0  0  0  0
  148.3472  141.4586  154.3611 C   0  0  0  0  0  0  0  0  0  0  0  0
  147.3032  141.8261  153.5612 C   0  0  0  0  0  0  0  0  0  0  0  0
  146.8531  140.5951  153.0069 C   0  0  0  0  0  0  0  0  0  0  0  0
  147.5576  139.5574  153.4288 N   0  0  0  0  0  0  0  0  0  0  0  0
  151.2420  141.9016  158.8482 C   0  0  0  0  0  0  0  0  0  0  0  0
  150.3986  144.4527  159.7113 H   0  0  0  0  0  0  0  0  0  0  0  0
  150.3406  144.3915  157.9514 H   0  0  0  0  0  0  0  0  0  0  0  0
  151.5472  145.3871  158.7566 H   0  0  0  0  0  0  0  0  0  0  0  0
  152.5589  143.2964  157.8859 H   0  0  0  0  0  0  0  0  0  0  0  0
  153.5945  144.2421  159.9020 H   0  0  0  0  0  0  0  0  0  0  0  0
  152.4294  143.4395  160.9253 H   0  0  0  0  0  0  0  0  0  0  0  0
  154.5897  142.0977  159.2398 H   0  0  0  0  0  0  0  0  0  0  0  0
  154.4897  142.1374  160.9847 H   0  0  0  0  0  0  0  0  0  0  0  0
  153.7005  139.9423  160.1405 H   0  0  0  0  0  0  0  0  0  0  0  0
  152.3969  140.7736  160.9209 H   0  0  0  0  0  0  0  0  0  0  0  0
  150.4511  139.9429  156.8540 H   0  0  0  0  0  0  0  0  0  0  0  0
  151.5105  141.2013  156.2131 H   0  0  0  0  0  0  0  0  0  0  0  0
  152.7474  139.5058  155.0601 H   0  0  0  0  0  0  0  0  0  0  0  0
  150.9404  140.3833  153.8727 H   0  0  0  0  0  0  0  0  0  0  0  0
  151.0409  138.6490  153.5873 H   0  0  0  0  0  0  0  0  0  0  0  0
  149.1073  138.1920  154.8061 H   0  0  0  0  0  0  0  0  0  0  0  0
  149.4236  139.4432  155.9924 H   0  0  0  0  0  0  0  0  0  0  0  0
  148.9995  142.0507  154.9861 H   0  0  0  0  0  0  0  0  0  0  0  0
  146.9197  142.8222  153.3970 H   0  0  0  0  0  0  0  0  0  0  0  0
  146.0408  140.4258  152.3154 H   0  0  0  0  0  0  0  0  0  0  0  0
  150.6356  141.8254  159.7520 H   0  0  0  0  0  0  0  0  0  0  0  0
  150.5382  141.8434  158.0167 H   0  0  0  0  0  0  0  0  0  0  0  0
  1  2  1  0  0  0  0
  1 19  1  0  0  0  0
  1 20  1  0  0  0  0
  1 21  1  0  0  0  0
  2 18  1  0  0  0  0
  2  3  1  0  0  0  0
  2 22  1  0  0  0  0
  3  4  1  0  0  0  0
  3 23  1  0  0  0  0
  3 24  1  0  0  0  0
  4  5  1  0  0  0  0
  4 25  1  0  0  0  0
  4 26  1  0  0  0  0
  5  6  1  0  0  0  0
  5 27  1  0  0  0  0
  5 28  1  0  0  0  0
  6  7  1  0  0  0  0
  6 18  1  0  0  0  0
  7  8  2  0  0  0  0
  7  9  1  0  0  0  0
  9 10  1  0  0  0  0
  9 29  1  0  0  0  0
  9 30  1  0  0  0  0
 10 11  1  0  0  0  0
 10 31  1  0  0  0  0
 11 12  1  0  0  0  0
 11 32  1  0  0  0  0
 11 33  1  0  0  0  0
 12 13  1  0  0  0  0
 12 34  1  0  0  0  0
 12 35  1  0  0  0  0
 13 17  1  0  0  0  0
 13 14  1  0  0  0  0
 14 15  2  0  0  0  0
 14 36  1  0  0  0  0
 15 16  1  0  0  0  0
 15 37  1  0  0  0  0
 16 17  2  0  0  0  0
 16 38  1  0  0  0  0
 18 39  1  0  0  0  0
 18 40  1  0  0  0  0
M  END
> <s_m_source_file>
AV-unprocessed.smi

> <i_m_source_file_index>
3327

> <i_lp_mmshare_version>
43012

> <i_f3d_flags>
0

> <s_epik_input>
W0NIM11bQ0BASF0xW0NIMl1bQ0gyXVtDSDJdTihbQ0gyXTEpQyg9TylbQ0gyXVtOSF1bQ0gyXVtDSDJdbjJbY0hdW2NIXVtjSF1uMg==

> <s_epik_cmdline>
J2VwaWtfcHl0aG9uJywgJy1waCcsICc3LjAnLCAnLXRuJywgJzgnLCAnLW1hJywgJzIwMCcsICctbWV0YWxfYmluZGluZycsICctaW1hZScsICc8aW5maWxlLm1hZT4nLCAnLW9tYWUnLCAnPG91dGZpbGUubWFlPic=

> <r_lp_tautomer_probability>
1

> <r_epik_Ionization_Penalty>
0.752964

> <r_epik_Ionization_Penalty_Charging>
0

> <r_epik_Ionization_Penalty_Neutral>
0.752964

> <r_epik_State_Penalty>
0.778238

> <r_epik_Charging_Adjusted_Penalty>
0.778238

> <i_epik_Tot_Q>
0

> <i_epik_Tot_abs_Q>
0

> <r_epik_Metal_State_Penalty>
0.776974

> <b_epik_Metal_Only>
0

> <s_lp_Force_Field>
OPLS_2005

> <r_lp_Energy>
25.5335

> <b_lp_Chiralities_Consistent>
1

> <s_lp_Variant>
AV-unprocessed.smi:3327-4

> <Gold.Version>
5.8.1

> <Gold.Id.Protein>
6NUR|6NUR_protein|mol2

> <Gold.PLP.Fitness>
45.4444

> <Gold.PLP.PLP>
-37.5260

> <Gold.PLP.part.hbond>
-1.0000

> <Gold.PLP.part.metal>
0.0000

> <Gold.PLP.part.buried>
-2.3475

> <Gold.PLP.part.nonpolar>
-34.2146

> <Gold.PLP.part.repulsive>
0.1883

> <Gold.PLP.ligand.clash>
0.0000

> <Gold.PLP.ligand.torsion>
0.4153

> <Gold.PLP.Chemscore.Hbond>
1.0000

> <Gold.PLP.Chemscore.CHOScore>
1.8982

> <Gold.PLP.Chemscore.Metal>
0.0000

> <Gold.Chemscore.Hbonds>
donor molecule, donor type, donor heavy atom, donor atom, acceptor molecule, acceptor atom, score
      P1  H  7997  8009       L1     8  1.00
      L1  C    14    36       P1  8028  0.46
      L1  C    16    38       P1 10175  1.00

> <Gold.PLP.Chemscore.Internal.Correction>
0.0545

> <Gold.Rescore>
     Score         DG    S(hbond)    S(metal)    S(lipo)     H(rot)  DE(clash)    DE(int)     intcor
     16.26     -16.62       0.92        0.00     106.79       1.73       0.06       0.30       ----

> <Gold.Chemscore.Fitness>
16.2561

> <Gold.Chemscore.DG>
-16.6177

> <Gold.Chemscore.ZeroCoef>
-5.4800

> <Gold.Chemscore.Hbond>
0.9194

> <Gold.Chemscore.Metal>
0.0000

> <Gold.Chemscore.Lipo>
106.7930

> <Gold.Chemscore.Internal_Hbond>
0.0000

> <Gold.Chemscore.DEClash>
0.0581

> <Gold.Chemscore.DEInternal>
0.3035

> <Gold.Chemscore.Rot>
1.7296

> <Gold.Chemscore.Internal.Correction>
   9.000000E+99

> <Gold.Chemscore.Hbonds>
donor molecule, donor type, donor heavy atom, donor atom, acceptor molecule, acceptor atom, score
      P1  H  7997  8009       L1     8  0.30

> <Gold.Chemscore.Hbond.Weighted>
-3.0707

> <Gold.Chemscore.Metal.Weighted>
-0.0000

> <Gold.Chemscore.Lipo.Weighted>
-12.4948

> <Gold.Chemscore.Internal_Hbond.Weighted>
0.0000

> <Gold.Chemscore.DEClash.Weighted>
0.0581

> <Gold.Chemscore.DEInternal.Weighted>
0.3035

> <Gold.Chemscore.Rot.Weighted>
4.4278

> <Gold.Chemscore.Internal.Correction.Weighted>
   9.000000E+99

> <Gold.Protein.RotatedTorsions>
[ 6907 6896 6895 6894 ] final  -32.40 input  -60.11 | X-H torsion
[ 7974 7965 7964 7962 ] final  135.87 input  175.53 | X-H torsion
[ 8008 7997 7996 7995 ] final  152.73 input   59.86 | X-H torsion
[ 10167 10162 10161 10158 ] final  -31.36 input  -65.29 | X-H torsion
[ 10718 10713 10712 10709 ] final  -90.17 input   66.30 | X-H torsion
[ 10763 10752 10751 10750 ] final  -45.01 input  -60.55 | X-H torsion
[ 11005 11000 10999 10996 ] final  138.52 input  -57.11 | X-H torsion

> <Gold.Protein.ActiveResidues>
 VAL166  LYS551  ARG553  GLY616  TRP617  ASP618  TYR619  PRO620  LYS621  CYS622 
 ASP623  PHE694  ASN695  SER759  ASP760  ASP761  ALA762  ILE779  LEU786  VAL792 
 PHE793  MET794  SER795  GLU796  ALA797  LYS798  CYS799  TRP800  GLU811  SER814 

> <Gold.Protein.RotatedAtoms>
  151.0792  134.9848  159.8347 H   0  0  0  0  0  0  0  0  0  0  0  0  # atno 6907 bound_to 6896
  152.5417  134.2202  159.8795 H   0  0  0  0  0  0  0  0  0  0  0  0  # atno 6908 bound_to 6896
  151.2231  133.4447  159.2635 H   0  0  0  0  0  0  0  0  0  0  0  0  # atno 6909 bound_to 6896
  144.9621  139.4699  143.5474 H   0  0  0  0  0  0  0  0  0  0  0  0  # atno 7974 bound_to 7965
  156.2615  140.2013  156.6379 H   0  0  0  0  0  0  0  0  0  0  0  0  # atno 8008 bound_to 7997
  154.6632  140.0558  157.0110 H   0  0  0  0  0  0  0  0  0  0  0  0  # atno 8009 bound_to 7997
  155.1245  140.3228  155.4492 H   0  0  0  0  0  0  0  0  0  0  0  0  # atno 8010 bound_to 7997
  140.7237  143.3777  151.1659 H   0  0  0  0  0  0  0  0  0  0  0  0  # atno 10167 bound_to 10162
  155.9986  130.4899  150.5282 H   0  0  0  0  0  0  0  0  0  0  0  0  # atno 10718 bound_to 10713
  154.0215  135.6668  153.4773 H   0  0  0  0  0  0  0  0  0  0  0  0  # atno 10763 bound_to 10752
  153.0578  135.5045  154.8019 H   0  0  0  0  0  0  0  0  0  0  0  0  # atno 10764 bound_to 10752
  154.6934  135.3065  154.9411 H   0  0  0  0  0  0  0  0  0  0  0  0  # atno 10765 bound_to 10752
  140.0189  134.9405  157.0434 H   0  0  0  0  0  0  0  0  0  0  0  0  # atno 11005 bound_to 11000
  146.3356  139.8777  142.8829 LP  0  0  0  0  0  0  0  0  0  0  0  0  # atno 17320 bound_to 7965
  145.2685  141.0101  143.3785 LP  0  0  0  0  0  0  0  0  0  0  0  0  # atno 17321 bound_to 7965
  139.7360  143.8998  152.3035 LP  0  0  0  0  0  0  0  0  0  0  0  0  # atno 17342 bound_to 10162
  139.8803  144.7021  150.8885 LP  0  0  0  0  0  0  0  0  0  0  0  0  # atno 17343 bound_to 10162
  157.3234  131.0686  151.1914 LP  0  0  0  0  0  0  0  0  0  0  0  0  # atno 17370 bound_to 10713
  157.2820  130.6754  149.6070 LP  0  0  0  0  0  0  0  0  0  0  0  0  # atno 17371 bound_to 10713
  140.4421  134.1670  155.7174 LP  0  0  0  0  0  0  0  0  0  0  0  0  # atno 17394 bound_to 11000
  141.1761  133.8510  157.1415 LP  0  0  0  0  0  0  0  0  0  0  0  0  # atno 17395 bound_to 11000

$$$$
