AV-unprocessed.smi:3207|AV-procd|sdf|12259|dock3
  -GOLD-   2272018 93D 1   1.00000     0.00000
 Structure written by MMmdl.
 32 33  0  0  0  0  0  0  0  0  1 V2000
  149.6520  139.7114  154.4399 C   0  0  0  0  0  0  0  0  0  0  0  0
  149.5606  141.1611  154.9385 C   0  0  1  0  0  0  0  0  0  0  0  0
  148.1863  141.4422  155.1902 O   0  0  0  0  0  0  0  0  0  0  0  0
  147.3607  141.5312  154.0355 C   0  0  0  0  0  0  0  0  0  0  0  0
  145.9196  141.6635  154.4775 C   0  0  0  0  0  0  0  0  0  0  0  0
  145.1724  142.9608  154.2670 C   0  0  0  0  0  0  0  0  0  0  0  0
  145.5542  142.5309  155.6606 C   0  0  0  0  0  0  0  0  0  0  0  0
  150.3912  141.3665  156.2159 C   0  0  0  0  0  0  0  0  0  0  0  0
  151.0212  140.4213  156.6897 O   0  0  0  0  0  0  0  0  0  0  0  0
  150.3330  142.5995  156.7531 N   0  0  0  0  0  0  0  0  0  0  0  0
  150.9666  143.1036  157.9213 C   0  0  0  0  0  0  0  0  0  0  0  0
  151.4857  142.1639  158.8359 C   0  0  0  0  0  0  0  0  0  0  0  0
  152.1071  142.6303  160.0114 C   0  0  0  0  0  0  0  0  0  0  0  0
  152.2274  143.9390  160.3172 N   0  0  0  0  0  0  0  0  0  0  0  0
  151.7197  144.8373  159.4471 C   0  0  0  0  0  0  0  0  0  0  0  0
  151.0795  144.4778  158.2441 C   0  0  0  0  0  0  0  0  0  0  0  0
  150.6850  139.4275  154.2360 H   0  0  0  0  0  0  0  0  0  0  0  0
  149.0879  139.5851  153.5156 H   0  0  0  0  0  0  0  0  0  0  0  0
  149.2480  139.0086  155.1698 H   0  0  0  0  0  0  0  0  0  0  0  0
  149.9245  141.8189  154.1465 H   0  0  0  0  0  0  0  0  0  0  0  0
  147.6285  142.3866  153.4141 H   0  0  0  0  0  0  0  0  0  0  0  0
  147.4618  140.6309  153.4282 H   0  0  0  0  0  0  0  0  0  0  0  0
  145.3344  140.7551  154.3485 H   0  0  0  0  0  0  0  0  0  0  0  0
  145.7181  143.7964  153.8329 H   0  0  0  0  0  0  0  0  0  0  0  0
  144.1219  142.8958  153.9908 H   0  0  0  0  0  0  0  0  0  0  0  0
  144.7596  142.1775  156.3147 H   0  0  0  0  0  0  0  0  0  0  0  0
  146.3553  143.0778  156.1544 H   0  0  0  0  0  0  0  0  0  0  0  0
  149.7146  143.2476  156.2876 H   0  0  0  0  0  0  0  0  0  0  0  0
  151.4153  141.1033  158.6430 H   0  0  0  0  0  0  0  0  0  0  0  0
  152.5164  141.9317  160.7260 H   0  0  0  0  0  0  0  0  0  0  0  0
  151.8208  145.8771  159.7209 H   0  0  0  0  0  0  0  0  0  0  0  0
  150.6840  145.2566  157.6114 H   0  0  0  0  0  0  0  0  0  0  0  0
  1  2  1  0  0  0  0
  1 17  1  0  0  0  0
  1 18  1  0  0  0  0
  1 19  1  0  0  0  0
  2  3  1  0  0  0  0
  2  8  1  0  0  0  0
  2 20  1  0  0  0  0
  3  4  1  0  0  0  0
  4  5  1  0  0  0  0
  4 21  1  0  0  0  0
  4 22  1  0  0  0  0
  5  7  1  0  0  0  0
  5  6  1  0  0  0  0
  5 23  1  0  0  0  0
  6  7  1  0  0  0  0
  6 24  1  0  0  0  0
  6 25  1  0  0  0  0
  7 26  1  0  0  0  0
  7 27  1  0  0  0  0
  8  9  2  0  0  0  0
  8 10  1  0  0  0  0
 10 11  1  0  0  0  0
 10 28  1  0  0  0  0
 11 16  1  0  0  0  0
 11 12  2  0  0  0  0
 12 13  1  0  0  0  0
 12 29  1  0  0  0  0
 13 14  2  0  0  0  0
 13 30  1  0  0  0  0
 14 15  1  0  0  0  0
 15 16  2  0  0  0  0
 15 31  1  0  0  0  0
 16 32  1  0  0  0  0
M  END
> <s_m_source_file>
AV-unprocessed.smi

> <i_m_source_file_index>
3207

> <i_lp_mmshare_version>
43012

> <i_f3d_flags>
0

> <s_epik_input>
W0NIMl0xW0NIMl1bQ0hdMVtDSDJdT1tDQEBIXShbQ0gzXSlDKD1PKVtOSF1jMltjSF1bY0hdbltjSF1bY0hdMg==

> <s_epik_cmdline>
J2VwaWtfcHl0aG9uJywgJy1waCcsICc3LjAnLCAnLXRuJywgJzgnLCAnLW1hJywgJzIwMCcsICctbWV0YWxfYmluZGluZycsICctaW1hZScsICc8aW5maWxlLm1hZT4nLCAnLW9tYWUnLCAnPG91dGZpbGUubWFlPic=

> <r_epik_Ionization_Penalty>
0.00446435

> <r_epik_Ionization_Penalty_Charging>
0

> <r_epik_Ionization_Penalty_Neutral>
0.00446435

> <r_epik_State_Penalty>
0.00321941

> <r_epik_Charging_Adjusted_Penalty>
0.00321941

> <i_epik_Tot_Q>
0

> <i_epik_Tot_abs_Q>
0

> <r_epik_Metal_State_Penalty>
-0

> <b_epik_Metal_Only>
0

> <s_lp_Force_Field>
OPLS_2005

> <r_lp_Energy>
19.7696

> <b_lp_Chiralities_Consistent>
1

> <s_lp_Variant>
AV-unprocessed.smi:3207-2

> <Gold.Version>
5.8.1

> <Gold.Id.Protein>
6NUR|6NUR_protein|mol2

> <Gold.PLP.Fitness>
43.1424

> <Gold.PLP.PLP>
-40.7164

> <Gold.PLP.part.hbond>
-1.0000

> <Gold.PLP.part.metal>
0.0000

> <Gold.PLP.part.buried>
-5.4126

> <Gold.PLP.part.nonpolar>
-34.1690

> <Gold.PLP.part.repulsive>
0.2352

> <Gold.PLP.ligand.clash>
0.0000

> <Gold.PLP.ligand.torsion>
0.5711

> <Gold.PLP.Chemscore.Hbond>
1.0000

> <Gold.PLP.Chemscore.CHOScore>
0.0000

> <Gold.PLP.Chemscore.Metal>
0.0000

> <Gold.Chemscore.Hbonds>
donor molecule, donor type, donor heavy atom, donor atom, acceptor molecule, acceptor atom, score
      L1  H    10    28       P1  8028  1.00

> <Gold.PLP.Chemscore.Internal.Correction>
0.5682

> <Gold.Rescore>
     Score         DG    S(hbond)    S(metal)    S(lipo)     H(rot)  DE(clash)    DE(int)     intcor
     14.24     -16.30       0.97        0.00      97.17       1.48       0.10       1.96       ----

> <Gold.Chemscore.Fitness>
14.2369

> <Gold.Chemscore.DG>
-16.2985

> <Gold.Chemscore.ZeroCoef>
-5.4800

> <Gold.Chemscore.Hbond>
0.9701

> <Gold.Chemscore.Metal>
0.0000

> <Gold.Chemscore.Lipo>
97.1704

> <Gold.Chemscore.Internal_Hbond>
0.0000

> <Gold.Chemscore.DEClash>
0.0987

> <Gold.Chemscore.DEInternal>
1.9629

> <Gold.Chemscore.Rot>
1.4807

> <Gold.Chemscore.Internal.Correction>
   9.000000E+99

> <Gold.Chemscore.Hbonds>
donor molecule, donor type, donor heavy atom, donor atom, acceptor molecule, acceptor atom, score
      L1  H    10    28       P1  8028  1.00

> <Gold.Chemscore.Hbond.Weighted>
-3.2401

> <Gold.Chemscore.Metal.Weighted>
-0.0000

> <Gold.Chemscore.Lipo.Weighted>
-11.3689

> <Gold.Chemscore.Internal_Hbond.Weighted>
0.0000

> <Gold.Chemscore.DEClash.Weighted>
0.0987

> <Gold.Chemscore.DEInternal.Weighted>
1.9629

> <Gold.Chemscore.Rot.Weighted>
3.7905

> <Gold.Chemscore.Internal.Correction.Weighted>
   9.000000E+99

> <Gold.Protein.RotatedTorsions>
[ 6907 6896 6895 6894 ] final  -13.47 input  -60.11 | X-H torsion
[ 7974 7965 7964 7962 ] final -109.83 input  175.53 | X-H torsion
[ 8008 7997 7996 7995 ] final  162.17 input   59.86 | X-H torsion
[ 10167 10162 10161 10158 ] final  -74.34 input  -65.29 | X-H torsion
[ 10718 10713 10712 10709 ] final   47.66 input   66.30 | X-H torsion
[ 10763 10752 10751 10750 ] final  169.77 input  -60.55 | X-H torsion
[ 11005 11000 10999 10996 ] final  152.78 input  -57.11 | X-H torsion

> <Gold.Protein.ActiveResidues>
 VAL166  LYS551  ARG553  GLY616  TRP617  ASP618  TYR619  PRO620  LYS621  CYS622 
 ASP623  PHE694  ASN695  SER759  ASP760  ASP761  ALA762  ILE779  LEU786  VAL792 
 PHE793  MET794  SER795  GLU796  ALA797  LYS798  CYS799  TRP800  GLU811  SER814 

> <Gold.Protein.RotatedAtoms>
  151.3544  135.0891  159.9413 H   0  0  0  0  0  0  0  0  0  0  0  0  # atno 6907 bound_to 6896
  152.5178  133.9320  159.7595 H   0  0  0  0  0  0  0  0  0  0  0  0  # atno 6908 bound_to 6896
  150.9702  133.6298  159.2768 H   0  0  0  0  0  0  0  0  0  0  0  0  # atno 6909 bound_to 6896
  145.1757  140.8947  143.3509 H   0  0  0  0  0  0  0  0  0  0  0  0  # atno 7974 bound_to 7965
  156.2051  140.1757  156.7817 H   0  0  0  0  0  0  0  0  0  0  0  0  # atno 8008 bound_to 7997
  154.5644  140.0694  156.8899 H   0  0  0  0  0  0  0  0  0  0  0  0  # atno 8009 bound_to 7997
  155.2789  140.3347  155.4262 H   0  0  0  0  0  0  0  0  0  0  0  0  # atno 8010 bound_to 7997
  140.5035  143.2357  151.7712 H   0  0  0  0  0  0  0  0  0  0  0  0  # atno 10167 bound_to 10162
  157.4608  130.8195  149.7884 H   0  0  0  0  0  0  0  0  0  0  0  0  # atno 10718 bound_to 10713
  154.3880  135.2754  155.2172 H   0  0  0  0  0  0  0  0  0  0  0  0  # atno 10763 bound_to 10752
  154.4250  135.5991  153.6037 H   0  0  0  0  0  0  0  0  0  0  0  0  # atno 10764 bound_to 10752
  152.9833  135.5982  154.4131 H   0  0  0  0  0  0  0  0  0  0  0  0  # atno 10765 bound_to 10752
  140.1339  134.8784  157.2240 H   0  0  0  0  0  0  0  0  0  0  0  0  # atno 11005 bound_to 11000
  145.0187  139.3444  143.6083 LP  0  0  0  0  0  0  0  0  0  0  0  0  # atno 17320 bound_to 7965
  146.3461  139.9479  142.8732 LP  0  0  0  0  0  0  0  0  0  0  0  0  # atno 17321 bound_to 7965
  139.4878  144.4489  151.9677 LP  0  0  0  0  0  0  0  0  0  0  0  0  # atno 17342 bound_to 10162
  140.3579  144.3009  150.5938 LP  0  0  0  0  0  0  0  0  0  0  0  0  # atno 17343 bound_to 10162
  156.0027  130.3871  150.2543 LP  0  0  0  0  0  0  0  0  0  0  0  0  # atno 17370 bound_to 10713
  157.0720  131.0119  151.3186 LP  0  0  0  0  0  0  0  0  0  0  0  0  # atno 17371 bound_to 10713
  140.2808  134.3352  155.7344 LP  0  0  0  0  0  0  0  0  0  0  0  0  # atno 17394 bound_to 11000
  141.2175  133.7477  156.9360 LP  0  0  0  0  0  0  0  0  0  0  0  0  # atno 17395 bound_to 11000

$$$$
