AV-unprocessed.smi:1763|AV-procd|sdf|7131|dock7
  -GOLD-   22720 8363D 1   1.00000     0.00000
 Structure written by MMmdl.
 42 43  0  0  0  0  0  0  0  0  3 V2000
  153.0799  136.4623  157.6381 C   0  0  0  0  0  0  0  0  0  0  0  0
  152.3758  135.6511  156.6516 N   0  5  0  0  0  0  0  0  0  0  0  0
  151.0313  135.4363  156.6781 C   0  0  0  0  0  0  0  0  0  0  0  0
  150.2429  135.3802  157.6270 O   0  0  0  0  0  0  0  0  0  0  0  0
  150.4766  135.2387  155.2618 C   0  0  0  0  0  0  0  0  0  0  0  0
  149.9485  136.5159  154.7170 N   0  3  2  0  0  0  0  0  0  0  0  0
  150.9632  137.5992  154.7261 C   0  0  0  0  0  0  0  0  0  0  0  0
  150.4397  138.8597  154.0137 C   0  0  0  0  0  0  0  0  0  0  0  0
  149.1072  139.3504  154.6063 C   0  0  2  0  0  0  0  0  0  0  0  0
  149.3183  139.9380  155.9292 N   0  0  0  0  0  0  0  0  0  0  0  0
  150.2043  140.9037  156.2152 C   0  0  0  0  0  0  0  0  0  0  0  0
  150.9455  141.4135  155.3744 O   0  0  0  0  0  0  0  0  0  0  0  0
  150.1669  141.2291  157.5196 N   0  0  0  0  0  0  0  0  0  0  0  0
  150.9433  142.2026  158.2037 C   0  0  0  0  0  0  0  0  0  0  0  0
  151.3150  143.3247  157.4288 C   0  0  0  0  0  0  0  0  0  0  0  0
  152.0865  144.3465  158.0156 C   0  0  0  0  0  0  0  0  0  0  0  0
  152.4668  144.2200  159.3636 C   0  0  0  0  0  0  0  0  0  0  0  0
  152.0553  143.0709  160.0636 C   0  0  0  0  0  0  0  0  0  0  0  0
  151.3162  142.0903  159.5033 N   0  0  0  0  0  0  0  0  0  0  0  0
  148.0971  138.1864  154.6508 C   0  0  0  0  0  0  0  0  0  0  0  0
  148.6761  136.9469  155.3547 C   0  0  0  0  0  0  0  0  0  0  0  0
  154.1453  136.5313  157.4188 H   0  0  0  0  0  0  0  0  0  0  0  0
  152.9986  136.0529  158.6454 H   0  0  0  0  0  0  0  0  0  0  0  0
  152.7059  137.4856  157.6810 H   0  0  0  0  0  0  0  0  0  0  0  0
  151.2421  134.8308  154.5997 H   0  0  0  0  0  0  0  0  0  0  0  0
  149.6829  134.4915  155.3166 H   0  0  0  0  0  0  0  0  0  0  0  0
  151.2418  137.8289  155.7556 H   0  0  0  0  0  0  0  0  0  0  0  0
  151.8681  137.2574  154.2224 H   0  0  0  0  0  0  0  0  0  0  0  0
  151.1879  139.6523  154.0548 H   0  0  0  0  0  0  0  0  0  0  0  0
  150.2970  138.6335  152.9560 H   0  0  0  0  0  0  0  0  0  0  0  0
  148.7154  140.1302  153.9506 H   0  0  0  0  0  0  0  0  0  0  0  0
  148.7542  139.5751  156.6837 H   0  0  0  0  0  0  0  0  0  0  0  0
  149.5069  140.7225  158.0905 H   0  0  0  0  0  0  0  0  0  0  0  0
  151.0143  143.4066  156.3943 H   0  0  0  0  0  0  0  0  0  0  0  0
  152.3808  145.2121  157.4406 H   0  0  0  0  0  0  0  0  0  0  0  0
  153.0584  144.9826  159.8482 H   0  0  0  0  0  0  0  0  0  0  0  0
  152.3262  142.9347  161.1003 H   0  0  0  0  0  0  0  0  0  0  0  0
  147.1726  138.4966  155.1392 H   0  0  0  0  0  0  0  0  0  0  0  0
  147.8206  137.9157  153.6309 H   0  0  0  0  0  0  0  0  0  0  0  0
  147.9424  136.1414  155.3120 H   0  0  0  0  0  0  0  0  0  0  0  0
  148.8487  137.1567  156.4114 H   0  0  0  0  0  0  0  0  0  0  0  0
  149.7428  136.3238  153.7462 H   0  0  0  0  0  0  0  0  0  0  0  0
  1  2  1  0  0  0  0
  1 22  1  0  0  0  0
  1 23  1  0  0  0  0
  1 24  1  0  0  0  0
  2  3  1  0  0  0  0
  3  4  2  0  0  0  0
  3  5  1  0  0  0  0
  5  6  1  0  0  0  0
  5 25  1  0  0  0  0
  5 26  1  0  0  0  0
  6 21  1  0  0  0  0
  6  7  1  0  0  0  0
  6 42  1  0  0  0  0
  7  8  1  0  0  0  0
  7 27  1  0  0  0  0
  7 28  1  0  0  0  0
  8  9  1  0  0  0  0
  8 29  1  0  0  0  0
  8 30  1  0  0  0  0
  9 10  1  0  0  0  0
  9 20  1  0  0  0  0
  9 31  1  0  0  0  0
 10 11  1  0  0  0  0
 10 32  1  0  0  0  0
 11 12  2  0  0  0  0
 11 13  1  0  0  0  0
 13 14  1  0  0  0  0
 13 33  1  0  0  0  0
 14 19  1  0  0  0  0
 14 15  2  0  0  0  0
 15 16  1  0  0  0  0
 15 34  1  0  0  0  0
 16 17  2  0  0  0  0
 16 35  1  0  0  0  0
 17 18  1  0  0  0  0
 17 36  1  0  0  0  0
 18 19  2  0  0  0  0
 18 37  1  0  0  0  0
 20 21  1  0  0  0  0
 20 38  1  0  0  0  0
 20 39  1  0  0  0  0
 21 40  1  0  0  0  0
 21 41  1  0  0  0  0
M  CHG  1   2  -1
M  CHG  1   6   1
M  END
> <s_m_source_file>
AV-unprocessed.smi

> <i_m_source_file_index>
1763

> <i_lp_mmshare_version>
43012

> <i_f3d_flags>
0

> <s_epik_input>
W0NIM11bTkhdQyg9TylbQ0gyXU4xW0NIMl1bQ0gyXVtDSF0oW0NIMl1bQ0gyXTEpW05IXUMoPU8pW05IXWMyW2NIXVtjSF1bY0hdW2NIXW4y

> <s_epik_cmdline>
J2VwaWtfcHl0aG9uJywgJy1waCcsICc3LjAnLCAnLXRuJywgJzgnLCAnLW1hJywgJzIwMCcsICctbWV0YWxfYmluZGluZycsICctaW1hZScsICc8aW5maWxlLm1hZT4nLCAnLW9tYWUnLCAnPG91dGZpbGUubWFlPic=

> <r_epik_Ionization_Penalty>
6.1395

> <r_epik_Ionization_Penalty_Charging>
6.13946

> <r_epik_Ionization_Penalty_Neutral>
3.77655e-05

> <r_epik_State_Penalty>
6.9595

> <r_epik_Charging_Adjusted_Penalty>
13.099

> <i_epik_Tot_Q>
0

> <i_epik_Tot_abs_Q>
2

> <r_epik_Metal_State_Penalty>
2.8914

> <b_epik_Metal_Only>
1

> <s_lp_Force_Field>
OPLS_2005

> <r_lp_Energy>
12.7162

> <b_lp_Chiralities_Consistent>
1

> <s_lp_Variant>
AV-unprocessed.smi:1763-5

> <Gold.Version>
5.8.1

> <Gold.Id.Protein>
6NUR|6NUR_protein|mol2

> <Gold.PLP.Fitness>
48.3095

> <Gold.PLP.PLP>
-34.9720

> <Gold.PLP.part.hbond>
-4.5652

> <Gold.PLP.part.metal>
0.0000

> <Gold.PLP.part.buried>
-2.3023

> <Gold.PLP.part.nonpolar>
-28.7245

> <Gold.PLP.part.repulsive>
0.2154

> <Gold.PLP.ligand.clash>
0.0000

> <Gold.PLP.ligand.torsion>
0.8167

> <Gold.PLP.Chemscore.Hbond>
4.9724

> <Gold.PLP.Chemscore.CHOScore>
0.0000

> <Gold.PLP.Chemscore.Metal>
0.0000

> <Gold.Chemscore.Hbonds>
donor molecule, donor type, donor heavy atom, donor atom, acceptor molecule, acceptor atom, score
      L1  H     6    42       P1  7948  2.00
      P1  H  6896  6907       L1     4  0.49
      P1  H  7989  7998       L1    12  0.46
      P1  H 10752 10763       L1     2  2.00

> <Gold.PLP.Chemscore.Internal.Correction>
0.0538

> <Gold.Rescore>
     Score         DG    S(hbond)    S(metal)    S(lipo)     H(rot)  DE(clash)    DE(int)     intcor
     14.08     -18.74       2.31        0.00      84.12       1.67       1.18       3.48       ----

> <Gold.Chemscore.Fitness>
14.0836

> <Gold.Chemscore.DG>
-18.7395

> <Gold.Chemscore.ZeroCoef>
-5.4800

> <Gold.Chemscore.Hbond>
2.3056

> <Gold.Chemscore.Metal>
0.0000

> <Gold.Chemscore.Lipo>
84.1170

> <Gold.Chemscore.Internal_Hbond>
0.0000

> <Gold.Chemscore.DEClash>
1.1757

> <Gold.Chemscore.DEInternal>
3.4801

> <Gold.Chemscore.Rot>
1.6730

> <Gold.Chemscore.Internal.Correction>
   9.000000E+99

> <Gold.Chemscore.Hbonds>
donor molecule, donor type, donor heavy atom, donor atom, acceptor molecule, acceptor atom, score
      L1  H     6    42       P1  7948  0.38
      P1  H  6896  6907       L1     4  0.48
      P1  H  7989  7998       L1    12  0.43
      P1  H 10752 10763       L1     2  0.65

> <Gold.Chemscore.Hbond.Weighted>
-7.7007

> <Gold.Chemscore.Metal.Weighted>
-0.0000

> <Gold.Chemscore.Lipo.Weighted>
-9.8417

> <Gold.Chemscore.Internal_Hbond.Weighted>
0.0000

> <Gold.Chemscore.DEClash.Weighted>
1.1757

> <Gold.Chemscore.DEInternal.Weighted>
3.4801

> <Gold.Chemscore.Rot.Weighted>
4.2830

> <Gold.Chemscore.Internal.Correction.Weighted>
   9.000000E+99

> <Gold.Protein.RotatedTorsions>
[ 6907 6896 6895 6894 ] final  -62.29 input  -60.11 | X-H torsion
[ 7974 7965 7964 7962 ] final  -52.76 input  175.53 | X-H torsion
[ 8008 7997 7996 7995 ] final   -9.22 input   59.86 | X-H torsion
[ 10167 10162 10161 10158 ] final  112.87 input  -65.29 | X-H torsion
[ 10718 10713 10712 10709 ] final  122.78 input   66.30 | X-H torsion
[ 10763 10752 10751 10750 ] final  113.77 input  -60.55 | X-H torsion
[ 11005 11000 10999 10996 ] final -138.58 input  -57.11 | X-H torsion

> <Gold.Protein.ActiveResidues>
 VAL166  LYS551  ARG553  GLY616  TRP617  ASP618  TYR619  PRO620  LYS621  CYS622 
 ASP623  PHE694  ASN695  SER759  ASP760  ASP761  ALA762  ILE779  LEU786  VAL792 
 PHE793  MET794  SER795  GLU796  ALA797  LYS798  CYS799  TRP800  GLU811  SER814 

> <Gold.Protein.RotatedAtoms>
  150.7725  134.6590  159.6328 H   0  0  0  0  0  0  0  0  0  0  0  0  # atno 6907 bound_to 6896
  152.3783  134.6626  160.0161 H   0  0  0  0  0  0  0  0  0  0  0  0  # atno 6908 bound_to 6896
  151.6963  133.3274  159.3292 H   0  0  0  0  0  0  0  0  0  0  0  0  # atno 6909 bound_to 6896
  145.9044  140.7968  142.9727 H   0  0  0  0  0  0  0  0  0  0  0  0  # atno 7974 bound_to 7965
  154.5667  140.2361  155.8252 H   0  0  0  0  0  0  0  0  0  0  0  0  # atno 8008 bound_to 7997
  156.2074  140.3036  155.9616 H   0  0  0  0  0  0  0  0  0  0  0  0  # atno 8009 bound_to 7997
  155.2787  140.0421  157.3004 H   0  0  0  0  0  0  0  0  0  0  0  0  # atno 8010 bound_to 7997
  139.6504  144.7128  151.2060 H   0  0  0  0  0  0  0  0  0  0  0  0  # atno 10167 bound_to 10162
  157.5716  131.1083  150.8356 H   0  0  0  0  0  0  0  0  0  0  0  0  # atno 10718 bound_to 10713
  153.4973  135.3645  155.2522 H   0  0  0  0  0  0  0  0  0  0  0  0  # atno 10763 bound_to 10752
  154.8749  135.3991  154.3519 H   0  0  0  0  0  0  0  0  0  0  0  0  # atno 10764 bound_to 10752
  153.4149  135.7079  153.6400 H   0  0  0  0  0  0  0  0  0  0  0  0  # atno 10765 bound_to 10752
  140.8602  134.2178  157.4711 H   0  0  0  0  0  0  0  0  0  0  0  0  # atno 11005 bound_to 11000
  144.6738  140.1727  143.7413 LP  0  0  0  0  0  0  0  0  0  0  0  0  # atno 17320 bound_to 7965
  145.8751  139.2292  143.1638 LP  0  0  0  0  0  0  0  0  0  0  0  0  # atno 17321 bound_to 7965
  140.7535  143.6160  150.8559 LP  0  0  0  0  0  0  0  0  0  0  0  0  # atno 17342 bound_to 10162
  139.9808  143.5954  152.2943 LP  0  0  0  0  0  0  0  0  0  0  0  0  # atno 17343 bound_to 10162
  156.8826  130.5185  149.5290 LP  0  0  0  0  0  0  0  0  0  0  0  0  # atno 17370 bound_to 10713
  156.0761  130.5783  150.9476 LP  0  0  0  0  0  0  0  0  0  0  0  0  # atno 17371 bound_to 10713
  139.8706  134.9726  156.4778 LP  0  0  0  0  0  0  0  0  0  0  0  0  # atno 17394 bound_to 11000
  140.8691  133.8002  155.9345 LP  0  0  0  0  0  0  0  0  0  0  0  0  # atno 17395 bound_to 11000

$$$$
