AV-unprocessed.smi:261|AV-procd|sdf|1991|dock7
  -GOLD-   2262021173D 1   1.00000     0.00000
 Structure written by MMmdl.
 51 54  0  0  0  0  0  0  0  0  1 V2000
  143.4603  132.5956  148.1160 C   0  0  0  0  0  0  0  0  0  0  0  0
  143.7229  131.9508  149.3513 O   0  0  0  0  0  0  0  0  0  0  0  0
  144.9549  132.3371  149.9433 C   0  0  1  0  0  0  0  0  0  0  0  0
  144.9304  133.7457  150.5345 C   0  0  0  0  0  0  0  0  0  0  0  0
  146.0316  133.7120  151.6058 C   0  0  1  0  0  0  0  0  0  0  0  0
  145.7678  134.7706  152.6949 C   0  0  0  0  0  0  0  0  0  0  0  0
  146.6390  135.7737  152.8443 N   0  0  0  0  0  0  0  0  0  0  0  0
  144.7655  134.6794  153.4000 O   0  0  0  0  0  0  0  0  0  0  0  0
  146.0210  132.3187  152.0733 N   0  0  0  0  0  0  0  0  0  0  0  0
  147.0456  131.7796  152.7898 C   0  0  0  0  0  0  0  0  0  0  0  0
  147.1797  130.4276  152.8470 N   0  0  0  0  0  0  0  0  0  0  0  0
  148.1806  129.8708  153.5343 C   0  0  0  0  0  0  0  0  0  0  0  0
  149.1512  130.4694  154.2256 N   0  0  0  0  0  0  0  0  0  0  0  0
  149.0306  131.8259  154.1692 C   0  0  0  0  0  0  0  0  0  0  0  0
  148.0202  132.5579  153.4817 C   0  0  0  0  0  0  0  0  0  0  0  0
  148.2419  133.9220  153.6430 N   0  0  0  0  0  0  0  0  0  0  0  0
  149.3096  133.9904  154.3903 C   0  0  0  0  0  0  0  0  0  0  0  0
  149.8496  132.7772  154.7496 N   0  0  0  0  0  0  0  0  0  0  0  0
  151.0358  132.5522  155.5572 C   0  0  0  0  0  0  0  0  0  0  0  0
  150.7686  131.6187  156.7545 C   0  0  2  0  0  0  0  0  0  0  0  0
  149.8459  132.2403  157.6292 O   0  0  0  0  0  0  0  0  0  0  0  0
  152.0537  131.2897  157.5366 C   0  0  1  0  0  0  0  0  0  0  0  0
  153.1578  130.6442  156.6986 C   0  0  0  0  0  0  0  0  0  0  0  0
  154.3876  130.9608  157.5185 C   0  0  0  0  0  0  0  0  0  0  0  0
  154.0766  132.3655  158.0286 C   0  0  0  0  0  0  0  0  0  0  0  0
  152.6554  132.4827  158.0334 O   0  0  0  0  0  0  0  0  0  0  0  0
  145.2651  131.4674  151.1612 C   0  0  0  0  0  0  0  0  0  0  0  0
  145.7755  132.2494  149.2285 H   0  0  0  0  0  0  0  0  0  0  0  0
  146.9896  133.9237  151.1277 H   0  0  0  0  0  0  0  0  0  0  0  0
  142.5151  132.2340  147.7110 H   0  0  0  0  0  0  0  0  0  0  0  0
  144.2412  132.3817  147.3854 H   0  0  0  0  0  0  0  0  0  0  0  0
  143.3796  133.6763  148.2363 H   0  0  0  0  0  0  0  0  0  0  0  0
  145.1038  134.5178  149.7844 H   0  0  0  0  0  0  0  0  0  0  0  0
  143.9547  133.9330  150.9873 H   0  0  0  0  0  0  0  0  0  0  0  0
  146.4821  136.4731  153.5555 H   0  0  0  0  0  0  0  0  0  0  0  0
  147.4517  135.8256  152.2477 H   0  0  0  0  0  0  0  0  0  0  0  0
  148.2082  128.7911  153.5274 H   0  0  0  0  0  0  0  0  0  0  0  0
  149.7365  134.9337  154.6987 H   0  0  0  0  0  0  0  0  0  0  0  0
  151.8040  132.1277  154.9098 H   0  0  0  0  0  0  0  0  0  0  0  0
  151.4163  133.5156  155.8993 H   0  0  0  0  0  0  0  0  0  0  0  0
  150.3203  130.6909  156.3963 H   0  0  0  0  0  0  0  0  0  0  0  0
  149.9005  133.1758  157.5070 H   0  0  0  0  0  0  0  0  0  0  0  0
  151.8270  130.6489  158.3906 H   0  0  0  0  0  0  0  0  0  0  0  0
  153.0100  129.5745  156.5486 H   0  0  0  0  0  0  0  0  0  0  0  0
  153.2283  131.1214  155.7199 H   0  0  0  0  0  0  0  0  0  0  0  0
  154.4658  130.2662  158.3560 H   0  0  0  0  0  0  0  0  0  0  0  0
  155.3131  130.9104  156.9444 H   0  0  0  0  0  0  0  0  0  0  0  0
  154.4917  132.5415  159.0213 H   0  0  0  0  0  0  0  0  0  0  0  0
  154.4830  133.1192  157.3537 H   0  0  0  0  0  0  0  0  0  0  0  0
  144.3470  131.1588  151.6630 H   0  0  0  0  0  0  0  0  0  0  0  0
  145.8066  130.5689  150.8615 H   0  0  0  0  0  0  0  0  0  0  0  0
  1  2  1  0  0  0  0
  1 30  1  0  0  0  0
  1 31  1  0  0  0  0
  1 32  1  0  0  0  0
  2  3  1  0  0  0  0
  3 28  1  0  0  0  0
  3 27  1  0  0  0  0
  3  4  1  0  0  0  0
  4  5  1  0  0  0  0
  4 33  1  0  0  0  0
  4 34  1  0  0  0  0
  5 29  1  0  0  0  0
  5  6  1  0  0  0  0
  5  9  1  0  0  0  0
  6  7  1  0  0  0  0
  6  8  2  0  0  0  0
  7 35  1  0  0  0  0
  7 36  1  0  0  0  0
  9 10  1  0  0  0  0
  9 27  1  0  0  0  0
 10 15  1  0  0  0  0
 10 11  2  0  0  0  0
 11 12  1  0  0  0  0
 12 13  2  0  0  0  0
 12 37  1  0  0  0  0
 13 14  1  0  0  0  0
 14 18  1  0  0  0  0
 14 15  2  0  0  0  0
 15 16  1  0  0  0  0
 16 17  2  0  0  0  0
 17 18  1  0  0  0  0
 17 38  1  0  0  0  0
 18 19  1  0  0  0  0
 19 20  1  0  0  0  0
 19 39  1  0  0  0  0
 19 40  1  0  0  0  0
 20 21  1  0  0  0  0
 20 22  1  0  0  0  0
 20 41  1  0  0  0  0
 21 42  1  0  0  0  0
 22 26  1  0  0  0  0
 22 23  1  0  0  0  0
 22 43  1  0  0  0  0
 23 24  1  0  0  0  0
 23 44  1  0  0  0  0
 23 45  1  0  0  0  0
 24 25  1  0  0  0  0
 24 46  1  0  0  0  0
 24 47  1  0  0  0  0
 25 26  1  0  0  0  0
 25 48  1  0  0  0  0
 25 49  1  0  0  0  0
 27 50  1  0  0  0  0
 27 51  1  0  0  0  0
M  END
> <s_m_source_file>
AV-unprocessed.smi

> <i_m_source_file_index>
261

> <i_lp_mmshare_version>
43012

> <i_f3d_flags>
0

> <s_epik_input>
W0NIM11PW0NASF0xW0NIMl1bQ0BASF0oQyg9TylbTkgyXSlOKFtDSDJdMSljKG5bY0hdbjIpYyhjMjMpbltjSF1uM1tDSDJdW0NASF0oW09IXSlbQ0BASF00W0NIMl1bQ0gyXVtDSDJdTzQ=

> <s_epik_cmdline>
J2VwaWtfcHl0aG9uJywgJy1waCcsICc3LjAnLCAnLXRuJywgJzgnLCAnLW1hJywgJzIwMCcsICctbWV0YWxfYmluZGluZycsICctaW1hZScsICc8aW5maWxlLm1hZT4nLCAnLW9tYWUnLCAnPG91dGZpbGUubWFlPic=

> <r_lp_tautomer_probability>
1

> <r_epik_Ionization_Penalty>
0.000713824

> <r_epik_Ionization_Penalty_Charging>
0

> <r_epik_Ionization_Penalty_Neutral>
0.000713824

> <r_epik_State_Penalty>
0.000402132

> <r_epik_Charging_Adjusted_Penalty>
0.000402132

> <i_epik_Tot_Q>
0

> <i_epik_Tot_abs_Q>
0

> <r_epik_Metal_State_Penalty>
-0

> <b_epik_Metal_Only>
0

> <s_lp_Force_Field>
OPLS_2005

> <r_lp_Energy>
46.441

> <b_lp_Chiralities_Consistent>
1

> <s_lp_Variant>
AV-unprocessed.smi:261-9

> <Gold.Version>
5.8.1

> <Gold.Id.Protein>
6NUR|6NUR_protein|mol2

> <Gold.PLP.Fitness>
48.3573

> <Gold.PLP.PLP>
-39.9176

> <Gold.PLP.part.hbond>
-3.0000

> <Gold.PLP.part.metal>
0.0000

> <Gold.PLP.part.buried>
-6.1531

> <Gold.PLP.part.nonpolar>
-32.7824

> <Gold.PLP.part.repulsive>
2.0669

> <Gold.PLP.ligand.clash>
0.0000

> <Gold.PLP.ligand.torsion>
0.2892

> <Gold.PLP.Chemscore.Hbond>
2.8640

> <Gold.PLP.Chemscore.CHOScore>
0.0000

> <Gold.PLP.Chemscore.Metal>
0.0000

> <Gold.Chemscore.Hbonds>
donor molecule, donor type, donor heavy atom, donor atom, acceptor molecule, acceptor atom, score
      L1  H     7    36       P1  7948  1.00
      P1  H  6896  6908       L1    26  1.00
      P1  H 10785 10796       L1     2  0.69

> <Gold.PLP.Chemscore.Internal.Correction>
0.4262

> <Gold.Rescore>
     Score         DG    S(hbond)    S(metal)    S(lipo)     H(rot)  DE(clash)    DE(int)     intcor
      7.87     -12.59       1.96        0.00      74.50       3.18       0.19       4.53       ----

> <Gold.Chemscore.Fitness>
7.8734

> <Gold.Chemscore.DG>
-12.5875

> <Gold.Chemscore.ZeroCoef>
-5.4800

> <Gold.Chemscore.Hbond>
1.9580

> <Gold.Chemscore.Metal>
0.0000

> <Gold.Chemscore.Lipo>
74.4987

> <Gold.Chemscore.Internal_Hbond>
0.0000

> <Gold.Chemscore.DEClash>
0.1874

> <Gold.Chemscore.DEInternal>
4.5266

> <Gold.Chemscore.Rot>
3.1831

> <Gold.Chemscore.Internal.Correction>
   9.000000E+99

> <Gold.Chemscore.Hbonds>
donor molecule, donor type, donor heavy atom, donor atom, acceptor molecule, acceptor atom, score
      L1  H     7    36       P1  7948  0.97
      P1  H  6896  6908       L1    26  0.85
      P1  H 10785 10796       L1     2  0.10

> <Gold.Chemscore.Hbond.Weighted>
-6.5397

> <Gold.Chemscore.Metal.Weighted>
-0.0000

> <Gold.Chemscore.Lipo.Weighted>
-8.7163

> <Gold.Chemscore.Internal_Hbond.Weighted>
0.0000

> <Gold.Chemscore.DEClash.Weighted>
0.1874

> <Gold.Chemscore.DEInternal.Weighted>
4.5266

> <Gold.Chemscore.Rot.Weighted>
8.1486

> <Gold.Chemscore.Internal.Correction.Weighted>
   9.000000E+99

> <Gold.Protein.RotatedTorsions>
[ 6907 6896 6895 6894 ] final   34.87 input  -60.11 | X-H torsion
[ 7974 7965 7964 7962 ] final  120.55 input  175.53 | X-H torsion
[ 8008 7997 7996 7995 ] final   -6.18 input   59.86 | X-H torsion
[ 10167 10162 10161 10158 ] final  148.73 input  -65.29 | X-H torsion
[ 10718 10713 10712 10709 ] final  -47.44 input   66.30 | X-H torsion
[ 10763 10752 10751 10750 ] final   78.93 input  -60.55 | X-H torsion
[ 11005 11000 10999 10996 ] final   72.51 input  -57.11 | X-H torsion

> <Gold.Protein.ActiveResidues>
 VAL166  LYS551  ARG553  GLY616  TRP617  ASP618  TYR619  PRO620  LYS621  CYS622 
 ASP623  PHE694  ASN695  SER759  ASP760  ASP761  ALA762  ILE779  LEU786  VAL792 
 PHE793  MET794  SER795  GLU796  ALA797  LYS798  CYS799  TRP800  GLU811  SER814 

> <Gold.Protein.RotatedAtoms>
  152.1084  134.9292  160.0567 H   0  0  0  0  0  0  0  0  0  0  0  0  # atno 6907 bound_to 6896
  152.0479  133.4001  159.4373 H   0  0  0  0  0  0  0  0  0  0  0  0  # atno 6908 bound_to 6896
  150.6842  134.3262  159.4851 H   0  0  0  0  0  0  0  0  0  0  0  0  # atno 6909 bound_to 6896
  145.1298  139.3335  143.4671 H   0  0  0  0  0  0  0  0  0  0  0  0  # atno 7974 bound_to 7965
  154.5963  140.2439  155.7852 H   0  0  0  0  0  0  0  0  0  0  0  0  # atno 8008 bound_to 7997
  156.2281  140.2975  156.0072 H   0  0  0  0  0  0  0  0  0  0  0  0  # atno 8009 bound_to 7997
  155.2287  140.0403  157.2949 H   0  0  0  0  0  0  0  0  0  0  0  0  # atno 8010 bound_to 7997
  139.4871  144.5657  151.7150 H   0  0  0  0  0  0  0  0  0  0  0  0  # atno 10167 bound_to 10162
  156.2084  130.4159  149.9147 H   0  0  0  0  0  0  0  0  0  0  0  0  # atno 10718 bound_to 10713
  153.0913  135.4858  154.8694 H   0  0  0  0  0  0  0  0  0  0  0  0  # atno 10763 bound_to 10752
  154.7272  135.3052  154.8954 H   0  0  0  0  0  0  0  0  0  0  0  0  # atno 10764 bound_to 10752
  153.9600  135.6813  153.4798 H   0  0  0  0  0  0  0  0  0  0  0  0  # atno 10765 bound_to 10752
  139.9487  134.7266  156.0916 H   0  0  0  0  0  0  0  0  0  0  0  0  # atno 11005 bound_to 11000
  146.3515  140.1292  142.8597 LP  0  0  0  0  0  0  0  0  0  0  0  0  # atno 17320 bound_to 7965
  145.0648  140.9113  143.4917 LP  0  0  0  0  0  0  0  0  0  0  0  0  # atno 17321 bound_to 7965
  140.5234  144.0843  150.6030 LP  0  0  0  0  0  0  0  0  0  0  0  0  # atno 17342 bound_to 10162
  140.3809  143.2803  152.0171 LP  0  0  0  0  0  0  0  0  0  0  0  0  # atno 17343 bound_to 10162
  156.6833  130.8867  151.3579 LP  0  0  0  0  0  0  0  0  0  0  0  0  # atno 17370 bound_to 10713
  157.7025  130.9348  150.0829 LP  0  0  0  0  0  0  0  0  0  0  0  0  # atno 17371 bound_to 10713
  141.1144  133.6632  156.3058 LP  0  0  0  0  0  0  0  0  0  0  0  0  # atno 17394 bound_to 11000
  140.5772  134.5782  157.5471 LP  0  0  0  0  0  0  0  0  0  0  0  0  # atno 17395 bound_to 11000

$$$$
