AV-unprocessed.smi:696|AV-procd|sdf|3387|dock3
  -GOLD-   22720 0363D 1   1.00000     0.00000
 Structure written by MMmdl.
 37 38  0  0  0  0  0  0  0  0  2 V2000
  151.3546  140.5010  155.4431 O   0  0  0  0  0  0  0  0  0  0  0  0
  150.8819  141.5248  155.9382 C   0  0  0  0  0  0  0  0  0  0  0  0
  149.7148  142.0596  155.5464 N   0  0  0  0  0  0  0  0  0  0  0  0
  148.8497  141.5157  154.5058 C   0  0  0  0  0  0  0  0  0  0  0  0
  147.6721  140.7222  155.1092 C   0  0  0  0  0  0  0  0  0  0  0  0
  146.9793  139.7623  154.1514 C   0  0  0  0  0  0  0  0  0  0  0  0
  146.0168  138.9536  154.4045 N   0  0  0  0  0  0  0  0  0  0  0  0
  145.7466  138.2963  153.1602 N   0  5  0  0  0  0  0  0  0  0  0  0
  146.6129  138.8016  152.2488 C   0  0  0  0  0  0  0  0  0  0  0  0
  146.7273  138.5202  151.0578 O   0  0  0  0  0  0  0  0  0  0  0  0
  147.3803  139.7074  152.8454 N   0  0  0  0  0  0  0  0  0  0  0  0
  151.6331  142.2579  157.0599 C   0  0  0  0  0  0  0  0  0  0  0  0
  151.3360  141.5910  158.4235 C   0  0  0  0  0  0  0  0  0  0  0  0
  152.3543  141.9692  159.5127 C   0  0  0  0  0  0  0  0  0  0  0  0
  152.0381  143.2550  160.2976 C   0  0  0  0  0  0  0  0  0  0  0  0
  151.4394  144.4246  159.4957 C   0  0  0  0  0  0  0  0  0  0  0  0
  152.0112  144.6177  158.0820 C   0  0  0  0  0  0  0  0  0  0  0  0
  151.2920  143.7628  157.0233 C   0  0  0  0  0  0  0  0  0  0  0  0
  148.1168  140.2546  152.4257 H   0  0  0  0  0  0  0  0  0  0  0  0
  149.4005  142.9018  156.0061 H   0  0  0  0  0  0  0  0  0  0  0  0
  148.4753  142.3539  153.9168 H   0  0  0  0  0  0  0  0  0  0  0  0
  149.4344  140.8916  153.8274 H   0  0  0  0  0  0  0  0  0  0  0  0
  148.0145  140.1500  155.9720 H   0  0  0  0  0  0  0  0  0  0  0  0
  146.9236  141.4216  155.4838 H   0  0  0  0  0  0  0  0  0  0  0  0
  152.7002  142.1520  156.8564 H   0  0  0  0  0  0  0  0  0  0  0  0
  150.3196  141.8072  158.7560 H   0  0  0  0  0  0  0  0  0  0  0  0
  151.3805  140.5075  158.2992 H   0  0  0  0  0  0  0  0  0  0  0  0
  152.4241  141.1509  160.2302 H   0  0  0  0  0  0  0  0  0  0  0  0
  153.3490  142.0448  159.0720 H   0  0  0  0  0  0  0  0  0  0  0  0
  151.3506  143.0166  161.1099 H   0  0  0  0  0  0  0  0  0  0  0  0
  152.9558  143.5886  160.7831 H   0  0  0  0  0  0  0  0  0  0  0  0
  150.3564  144.3098  159.4354 H   0  0  0  0  0  0  0  0  0  0  0  0
  151.5973  145.3383  160.0695 H   0  0  0  0  0  0  0  0  0  0  0  0
  151.8743  145.6642  157.8071 H   0  0  0  0  0  0  0  0  0  0  0  0
  153.0879  144.4449  158.0659 H   0  0  0  0  0  0  0  0  0  0  0  0
  151.5589  144.1524  156.0395 H   0  0  0  0  0  0  0  0  0  0  0  0
  150.2144  143.9102  157.1121 H   0  0  0  0  0  0  0  0  0  0  0  0
  1  2  2  0  0  0  0
  2  3  1  0  0  0  0
  2 12  1  0  0  0  0
  3  4  1  0  0  0  0
  3 20  1  0  0  0  0
  4  5  1  0  0  0  0
  4 21  1  0  0  0  0
  4 22  1  0  0  0  0
  5  6  1  0  0  0  0
  5 23  1  0  0  0  0
  5 24  1  0  0  0  0
  6 11  1  0  0  0  0
  6  7  2  0  0  0  0
  7  8  1  0  0  0  0
  8  9  1  0  0  0  0
  9 10  2  0  0  0  0
  9 11  1  0  0  0  0
 11 19  1  0  0  0  0
 12 18  1  0  0  0  0
 12 13  1  0  0  0  0
 12 25  1  0  0  0  0
 13 14  1  0  0  0  0
 13 26  1  0  0  0  0
 13 27  1  0  0  0  0
 14 15  1  0  0  0  0
 14 28  1  0  0  0  0
 14 29  1  0  0  0  0
 15 16  1  0  0  0  0
 15 30  1  0  0  0  0
 15 31  1  0  0  0  0
 16 17  1  0  0  0  0
 16 32  1  0  0  0  0
 16 33  1  0  0  0  0
 17 18  1  0  0  0  0
 17 34  1  0  0  0  0
 17 35  1  0  0  0  0
 18 36  1  0  0  0  0
 18 37  1  0  0  0  0
M  CHG  1   8  -1
M  END
> <s_m_source_file>
AV-unprocessed.smi

> <i_m_source_file_index>
696

> <i_lp_mmshare_version>
43012

> <i_f3d_flags>
0

> <s_epik_input>
W0NIMl0xW0NIMl1bQ0gyXVtDSDJdW0NIMl1bQ0gyXVtDSF0xQyg9TylbTkhdW0NIMl1bQ0gyXWMybltuSF1jKD1PKVtuSF0y

> <s_epik_cmdline>
J2VwaWtfcHl0aG9uJywgJy1waCcsICc3LjAnLCAnLXRuJywgJzgnLCAnLW1hJywgJzIwMCcsICctbWV0YWxfYmluZGluZycsICctaW1hZScsICc8aW5maWxlLm1hZT4nLCAnLW9tYWUnLCAnPG91dGZpbGUubWFlPic=

> <r_lp_tautomer_probability>
1

> <r_epik_Ionization_Penalty>
14.1589

> <r_epik_Ionization_Penalty_Charging>
13.7723

> <r_epik_Ionization_Penalty_Neutral>
0.386566

> <r_epik_State_Penalty>
4.88838

> <r_epik_Charging_Adjusted_Penalty>
18.6607

> <i_epik_Tot_Q>
-1

> <i_epik_Tot_abs_Q>
1

> <r_epik_Metal_State_Penalty>
1.30742

> <b_epik_Metal_Only>
1

> <s_lp_Force_Field>
OPLS_2005

> <r_lp_Energy>
24.8818

> <b_lp_Chiralities_Consistent>
1

> <s_lp_Variant>
AV-unprocessed.smi:696-2

> <Gold.Version>
5.8.1

> <Gold.Id.Protein>
6NUR|6NUR_protein|mol2

> <Gold.PLP.Fitness>
44.4938

> <Gold.PLP.PLP>
-35.3865

> <Gold.PLP.part.hbond>
-4.0000

> <Gold.PLP.part.metal>
0.0000

> <Gold.PLP.part.buried>
-5.1843

> <Gold.PLP.part.nonpolar>
-27.6088

> <Gold.PLP.part.repulsive>
0.9607

> <Gold.PLP.ligand.clash>
0.0000

> <Gold.PLP.ligand.torsion>
0.9254

> <Gold.PLP.Chemscore.Hbond>
3.6400

> <Gold.PLP.Chemscore.CHOScore>
0.0000

> <Gold.PLP.Chemscore.Metal>
0.0000

> <Gold.Chemscore.Hbonds>
donor molecule, donor type, donor heavy atom, donor atom, acceptor molecule, acceptor atom, score
      L1  H     3    20       P1  8028  0.85
      L1  H    11    19       P1  7957  0.78
      P1  H  7954  7966       L1    10  1.00
      P1  H  7989  7998       L1     1  0.86

> <Gold.PLP.Chemscore.Internal.Correction>
0.0381

> <Gold.Rescore>
     Score         DG    S(hbond)    S(metal)    S(lipo)     H(rot)  DE(clash)    DE(int)     intcor
     17.11     -20.26       3.16        0.00      85.39       2.25       2.41       0.74       ----

> <Gold.Chemscore.Fitness>
17.1065

> <Gold.Chemscore.DG>
-20.2636

> <Gold.Chemscore.ZeroCoef>
-5.4800

> <Gold.Chemscore.Hbond>
3.1596

> <Gold.Chemscore.Metal>
0.0000

> <Gold.Chemscore.Lipo>
85.3920

> <Gold.Chemscore.Internal_Hbond>
0.0000

> <Gold.Chemscore.DEClash>
2.4133

> <Gold.Chemscore.DEInternal>
0.7438

> <Gold.Chemscore.Rot>
2.2501

> <Gold.Chemscore.Internal.Correction>
   9.000000E+99

> <Gold.Chemscore.Hbonds>
donor molecule, donor type, donor heavy atom, donor atom, acceptor molecule, acceptor atom, score
      L1  H     3    20       P1  8028  0.83
      L1  H    11    19       P1  7957  0.79
      P1  H  7954  7966       L1    10  0.95
      P1  H  7989  7998       L1     1  0.50

> <Gold.Chemscore.Hbond.Weighted>
-10.5531

> <Gold.Chemscore.Metal.Weighted>
-0.0000

> <Gold.Chemscore.Lipo.Weighted>
-9.9909

> <Gold.Chemscore.Internal_Hbond.Weighted>
0.0000

> <Gold.Chemscore.DEClash.Weighted>
2.4133

> <Gold.Chemscore.DEInternal.Weighted>
0.7438

> <Gold.Chemscore.Rot.Weighted>
5.7603

> <Gold.Chemscore.Internal.Correction.Weighted>
   9.000000E+99

> <Gold.Protein.RotatedTorsions>
[ 6907 6896 6895 6894 ] final  -93.22 input  -60.11 | X-H torsion
[ 7974 7965 7964 7962 ] final -124.94 input  175.53 | X-H torsion
[ 8008 7997 7996 7995 ] final   92.86 input   59.86 | X-H torsion
[ 10167 10162 10161 10158 ] final   29.68 input  -65.29 | X-H torsion
[ 10718 10713 10712 10709 ] final -175.29 input   66.30 | X-H torsion
[ 10763 10752 10751 10750 ] final -167.33 input  -60.55 | X-H torsion
[ 11005 11000 10999 10996 ] final   27.24 input  -57.11 | X-H torsion

> <Gold.Protein.ActiveResidues>
 VAL166  LYS551  ARG553  GLY616  TRP617  ASP618  TYR619  PRO620  LYS621  CYS622 
 ASP623  PHE694  ASN695  SER759  ASP760  ASP761  ALA762  ILE779  LEU786  VAL792 
 PHE793  MET794  SER795  GLU796  ALA797  LYS798  CYS799  TRP800  GLU811  SER814 

> <Gold.Protein.RotatedAtoms>
  150.6919  134.2002  159.4318 H   0  0  0  0  0  0  0  0  0  0  0  0  # atno 6907 bound_to 6896
  151.9968  134.9947  160.0573 H   0  0  0  0  0  0  0  0  0  0  0  0  # atno 6908 bound_to 6896
  152.1616  133.4550  159.4900 H   0  0  0  0  0  0  0  0  0  0  0  0  # atno 6909 bound_to 6896
  145.0028  140.7836  143.4486 H   0  0  0  0  0  0  0  0  0  0  0  0  # atno 7974 bound_to 7965
  156.0402  140.3320  155.7235 H   0  0  0  0  0  0  0  0  0  0  0  0  # atno 8008 bound_to 7997
  155.5756  140.0632  157.2813 H   0  0  0  0  0  0  0  0  0  0  0  0  # atno 8009 bound_to 7997
  154.4390  140.1853  156.0912 H   0  0  0  0  0  0  0  0  0  0  0  0  # atno 8010 bound_to 7997
  140.4745  144.0712  150.6246 H   0  0  0  0  0  0  0  0  0  0  0  0  # atno 10167 bound_to 10162
  156.7977  130.9541  151.3119 H   0  0  0  0  0  0  0  0  0  0  0  0  # atno 10718 bound_to 10713
  154.6742  135.2944  154.9701 H   0  0  0  0  0  0  0  0  0  0  0  0  # atno 10763 bound_to 10752
  154.0717  135.6617  153.4829 H   0  0  0  0  0  0  0  0  0  0  0  0  # atno 10764 bound_to 10752
  153.0506  135.5176  154.7753 H   0  0  0  0  0  0  0  0  0  0  0  0  # atno 10765 bound_to 10752
  140.3284  134.2465  155.7706 H   0  0  0  0  0  0  0  0  0  0  0  0  # atno 11005 bound_to 11000
  145.2129  139.2196  143.5133 LP  0  0  0  0  0  0  0  0  0  0  0  0  # atno 17320 bound_to 7965
  146.3455  140.1971  142.8589 LP  0  0  0  0  0  0  0  0  0  0  0  0  # atno 17321 bound_to 7965
  140.3936  143.2740  152.0031 LP  0  0  0  0  0  0  0  0  0  0  0  0  # atno 17342 bound_to 10162
  139.4823  144.6057  151.7526 LP  0  0  0  0  0  0  0  0  0  0  0  0  # atno 17343 bound_to 10162
  157.6569  130.8932  149.9748 LP  0  0  0  0  0  0  0  0  0  0  0  0  # atno 17370 bound_to 10713
  156.1120  130.3649  150.0032 LP  0  0  0  0  0  0  0  0  0  0  0  0  # atno 17371 bound_to 10713
  141.2069  133.7819  157.0147 LP  0  0  0  0  0  0  0  0  0  0  0  0  # atno 17394 bound_to 11000
  140.0882  134.9608  157.1733 LP  0  0  0  0  0  0  0  0  0  0  0  0  # atno 17395 bound_to 11000

$$$$
