AV-unprocessed.smi:3285|AV-procd|sdf|12581|dock2
  -GOLD-   2272018503D 1   1.00000     0.00000
 Structure written by MMmdl.
 45 46  0  0  0  0  0  0  0  0  2 V2000
  151.8928  131.3211  156.7464 C   0  0  0  0  0  0  0  0  0  0  0  0
  151.6852  132.7750  156.4319 C   0  0  0  0  0  0  0  0  0  0  0  0
  152.4712  133.6797  156.9900 N   0  0  0  0  0  0  0  0  0  0  0  0
  152.0297  134.9178  156.5137 O   0  0  0  0  0  0  0  0  0  0  0  0
  150.9805  134.7074  155.6792 C   0  0  0  0  0  0  0  0  0  0  0  0
  150.3586  135.9157  155.0645 C   0  0  0  0  0  0  0  0  0  0  0  0
  150.7079  133.3706  155.5833 C   0  0  0  0  0  0  0  0  0  0  0  0
  149.6333  132.6873  154.7816 C   0  0  0  0  0  0  0  0  0  0  0  0
  148.4883  133.6504  154.4430 C   0  0  0  0  0  0  0  0  0  0  0  0
  148.1824  133.6203  152.9977 N   0  3  0  0  0  0  0  0  0  0  0  0
  146.7920  133.2499  152.6521 C   0  0  1  0  0  0  0  0  0  0  0  0
  146.2553  134.2035  151.5697 C   0  0  0  0  0  0  0  0  0  0  0  0
  144.8225  133.8343  151.1497 C   0  0  0  0  0  0  0  0  0  0  0  0
  144.7116  132.3735  150.6676 C   0  0  1  0  0  0  0  0  0  0  0  0
  145.3520  132.1828  149.2776 C   0  0  0  0  0  0  0  0  0  0  0  0
  145.2568  131.4137  151.7560 C   0  0  1  0  0  0  0  0  0  0  0  0
  145.1392  129.9293  151.3722 C   0  0  0  0  0  0  0  0  0  0  0  0
  146.6938  131.7837  152.1781 C   0  0  0  0  0  0  0  0  0  0  0  0
  151.2507  131.0062  157.5690 H   0  0  0  0  0  0  0  0  0  0  0  0
  152.9251  131.1163  157.0329 H   0  0  0  0  0  0  0  0  0  0  0  0
  151.6619  130.6941  155.8853 H   0  0  0  0  0  0  0  0  0  0  0  0
  149.3160  136.0090  155.3680 H   0  0  0  0  0  0  0  0  0  0  0  0
  150.3904  135.8545  153.9768 H   0  0  0  0  0  0  0  0  0  0  0  0
  150.8803  136.8242  155.3661 H   0  0  0  0  0  0  0  0  0  0  0  0
  150.0460  132.2803  153.8576 H   0  0  0  0  0  0  0  0  0  0  0  0
  149.2364  131.8309  155.3279 H   0  0  0  0  0  0  0  0  0  0  0  0
  147.6004  133.3792  155.0141 H   0  0  0  0  0  0  0  0  0  0  0  0
  148.7622  134.6660  154.7322 H   0  0  0  0  0  0  0  0  0  0  0  0
  148.3476  134.5497  152.6382 H   0  0  0  0  0  0  0  0  0  0  0  0
  146.1755  133.3765  153.5436 H   0  0  0  0  0  0  0  0  0  0  0  0
  146.2695  135.2295  151.9395 H   0  0  0  0  0  0  0  0  0  0  0  0
  146.9106  134.1864  150.6981 H   0  0  0  0  0  0  0  0  0  0  0  0
  144.1544  133.9829  151.9991 H   0  0  0  0  0  0  0  0  0  0  0  0
  144.4745  134.5158  150.3727 H   0  0  0  0  0  0  0  0  0  0  0  0
  143.6487  132.1598  150.5459 H   0  0  0  0  0  0  0  0  0  0  0  0
  146.4332  132.3151  149.2991 H   0  0  0  0  0  0  0  0  0  0  0  0
  144.9487  132.9008  148.5630 H   0  0  0  0  0  0  0  0  0  0  0  0
  145.1479  131.1903  148.8761 H   0  0  0  0  0  0  0  0  0  0  0  0
  144.6253  131.5487  152.6357 H   0  0  0  0  0  0  0  0  0  0  0  0
  145.8062  129.6693  150.5499 H   0  0  0  0  0  0  0  0  0  0  0  0
  144.1213  129.6800  151.0711 H   0  0  0  0  0  0  0  0  0  0  0  0
  145.3975  129.2878  152.2151 H   0  0  0  0  0  0  0  0  0  0  0  0
  147.3818  131.6132  151.3492 H   0  0  0  0  0  0  0  0  0  0  0  0
  147.0084  131.1111  152.9760 H   0  0  0  0  0  0  0  0  0  0  0  0
  148.8151  132.9825  152.5361 H   0  0  0  0  0  0  0  0  0  0  0  0
  1  2  1  0  0  0  0
  1 19  1  0  0  0  0
  1 20  1  0  0  0  0
  1 21  1  0  0  0  0
  2  7  1  0  0  0  0
  2  3  2  0  0  0  0
  3  4  1  0  0  0  0
  4  5  1  0  0  0  0
  5  6  1  0  0  0  0
  5  7  2  0  0  0  0
  6 22  1  0  0  0  0
  6 23  1  0  0  0  0
  6 24  1  0  0  0  0
  7  8  1  0  0  0  0
  8  9  1  0  0  0  0
  8 25  1  0  0  0  0
  8 26  1  0  0  0  0
  9 10  1  0  0  0  0
  9 27  1  0  0  0  0
  9 28  1  0  0  0  0
 10 11  1  0  0  0  0
 10 29  1  0  0  0  0
 10 45  1  0  0  0  0
 11 18  1  0  0  0  0
 11 12  1  0  0  0  0
 11 30  1  0  0  0  0
 12 13  1  0  0  0  0
 12 31  1  0  0  0  0
 12 32  1  0  0  0  0
 13 14  1  0  0  0  0
 13 33  1  0  0  0  0
 13 34  1  0  0  0  0
 14 15  1  0  0  0  0
 14 16  1  0  0  0  0
 14 35  1  0  0  0  0
 15 36  1  0  0  0  0
 15 37  1  0  0  0  0
 15 38  1  0  0  0  0
 16 17  1  0  0  0  0
 16 18  1  0  0  0  0
 16 39  1  0  0  0  0
 17 40  1  0  0  0  0
 17 41  1  0  0  0  0
 17 42  1  0  0  0  0
 18 43  1  0  0  0  0
 18 44  1  0  0  0  0
M  CHG  1  10   1
M  END
> <s_m_source_file>
AV-unprocessed.smi

> <i_m_source_file_index>
3285

> <i_lp_mmshare_version>
43012

> <i_f3d_flags>
0

> <s_epik_input>
W0NIM11jMW5vYyhbQ0gzXSljMVtDSDJdW0NIMl1bTkhdW0NAQEhdMltDSDJdW0NIMl1bQ0BASF0oW0NIM10pW0NAQEhdKFtDSDNdKVtDSDJdMg==

> <s_epik_cmdline>
J2VwaWtfcHl0aG9uJywgJy1waCcsICc3LjAnLCAnLXRuJywgJzgnLCAnLW1hJywgJzIwMCcsICctbWV0YWxfYmluZGluZycsICctaW1hZScsICc8aW5maWxlLm1hZT4nLCAnLW9tYWUnLCAnPG91dGZpbGUubWFlPic=

> <r_lp_tautomer_probability>
1

> <r_epik_Ionization_Penalty>
0.000204615

> <r_epik_Ionization_Penalty_Charging>
0.000204615

> <r_epik_Ionization_Penalty_Neutral>
9.28663e-11

> <r_epik_State_Penalty>
-0

> <r_epik_Charging_Adjusted_Penalty>
0.000204615

> <i_epik_Tot_Q>
1

> <i_epik_Tot_abs_Q>
1

> <r_epik_Metal_State_Penalty>
-0

> <b_epik_Metal_Only>
0

> <s_lp_Force_Field>
OPLS_2005

> <r_lp_Energy>
12.3416

> <b_lp_Chiralities_Consistent>
1

> <s_lp_Variant>
AV-unprocessed.smi:3285-2

> <Gold.Version>
5.8.1

> <Gold.Id.Protein>
6NUR|6NUR_protein|mol2

> <Gold.PLP.Fitness>
38.9568

> <Gold.PLP.PLP>
-32.7993

> <Gold.PLP.part.hbond>
-3.0000

> <Gold.PLP.part.metal>
0.0000

> <Gold.PLP.part.buried>
-4.1530

> <Gold.PLP.part.nonpolar>
-25.4331

> <Gold.PLP.part.repulsive>
0.0000

> <Gold.PLP.ligand.clash>
0.0000

> <Gold.PLP.ligand.torsion>
1.6519

> <Gold.PLP.Chemscore.Hbond>
3.1435

> <Gold.PLP.Chemscore.CHOScore>
0.0000

> <Gold.PLP.Chemscore.Metal>
0.0000

> <Gold.Chemscore.Hbonds>
donor molecule, donor type, donor heavy atom, donor atom, acceptor molecule, acceptor atom, score
      L1  H    10    29       P1  7948  1.90
      P1  H  6896  6909       L1     3  0.01
      P1  H 10752 10763       L1     4  0.94

> <Gold.PLP.Chemscore.Internal.Correction>
0.0307

> <Gold.Rescore>
     Score         DG    S(hbond)    S(metal)    S(lipo)     H(rot)  DE(clash)    DE(int)     intcor
     15.50     -16.99       1.14        0.00      95.47       1.35       0.00       1.50       ----

> <Gold.Chemscore.Fitness>
15.4976

> <Gold.Chemscore.DG>
-16.9940

> <Gold.Chemscore.ZeroCoef>
-5.4800

> <Gold.Chemscore.Hbond>
1.1350

> <Gold.Chemscore.Metal>
0.0000

> <Gold.Chemscore.Lipo>
95.4700

> <Gold.Chemscore.Internal_Hbond>
0.0000

> <Gold.Chemscore.DEClash>
0.0004

> <Gold.Chemscore.DEInternal>
1.4961

> <Gold.Chemscore.Rot>
1.3465

> <Gold.Chemscore.Internal.Correction>
   9.000000E+99

> <Gold.Chemscore.Hbonds>
donor molecule, donor type, donor heavy atom, donor atom, acceptor molecule, acceptor atom, score
      L1  H    10    29       P1  7948  0.22
      P1  H  6896  6909       L1     3  0.01
      P1  H 10752 10763       L1     4  0.09

> <Gold.Chemscore.Hbond.Weighted>
-3.7911

> <Gold.Chemscore.Metal.Weighted>
-0.0000

> <Gold.Chemscore.Lipo.Weighted>
-11.1700

> <Gold.Chemscore.Internal_Hbond.Weighted>
0.0000

> <Gold.Chemscore.DEClash.Weighted>
0.0004

> <Gold.Chemscore.DEInternal.Weighted>
1.4961

> <Gold.Chemscore.Rot.Weighted>
3.4470

> <Gold.Chemscore.Internal.Correction.Weighted>
   9.000000E+99

> <Gold.Protein.RotatedTorsions>
[ 6907 6896 6895 6894 ] final  -76.47 input  -60.11 | X-H torsion
[ 7974 7965 7964 7962 ] final  -56.66 input  175.53 | X-H torsion
[ 8008 7997 7996 7995 ] final  -56.28 input   59.86 | X-H torsion
[ 10167 10162 10161 10158 ] final  -35.67 input  -65.29 | X-H torsion
[ 10718 10713 10712 10709 ] final   82.97 input   66.30 | X-H torsion
[ 10763 10752 10751 10750 ] final  109.86 input  -60.55 | X-H torsion
[ 11005 11000 10999 10996 ] final  -63.66 input  -57.11 | X-H torsion

> <Gold.Protein.ActiveResidues>
 VAL166  LYS551  ARG553  GLY616  TRP617  ASP618  TYR619  PRO620  LYS621  CYS622 
 ASP623  PHE694  ASN695  SER759  ASP760  ASP761  ALA762  ILE779  LEU786  VAL792 
 PHE793  MET794  SER795  GLU796  ALA797  LYS798  CYS799  TRP800  GLU811  SER814 

> <Gold.Protein.RotatedAtoms>
  150.7026  134.4567  159.5361 H   0  0  0  0  0  0  0  0  0  0  0  0  # atno 6907 bound_to 6896
  152.2249  134.8375  160.0490 H   0  0  0  0  0  0  0  0  0  0  0  0  # atno 6908 bound_to 6896
  151.9211  133.3551  159.3934 H   0  0  0  0  0  0  0  0  0  0  0  0  # atno 6909 bound_to 6896
  145.8601  140.8292  142.9941 H   0  0  0  0  0  0  0  0  0  0  0  0  # atno 7974 bound_to 7965
  154.4224  140.1133  156.5611 H   0  0  0  0  0  0  0  0  0  0  0  0  # atno 8008 bound_to 7997
  155.6310  140.3495  155.4664 H   0  0  0  0  0  0  0  0  0  0  0  0  # atno 8009 bound_to 7997
  155.9948  140.1187  157.0594 H   0  0  0  0  0  0  0  0  0  0  0  0  # atno 8010 bound_to 7997
  140.7160  143.3461  151.2253 H   0  0  0  0  0  0  0  0  0  0  0  0  # atno 10167 bound_to 10162
  157.6869  131.0071  150.2454 H   0  0  0  0  0  0  0  0  0  0  0  0  # atno 10718 bound_to 10713
  153.4408  135.3766  155.2226 H   0  0  0  0  0  0  0  0  0  0  0  0  # atno 10763 bound_to 10752
  154.8754  135.3862  154.4155 H   0  0  0  0  0  0  0  0  0  0  0  0  # atno 10764 bound_to 10752
  153.4701  135.7087  153.6062 H   0  0  0  0  0  0  0  0  0  0  0  0  # atno 10765 bound_to 10752
  141.1400  133.6655  156.5714 H   0  0  0  0  0  0  0  0  0  0  0  0  # atno 11005 bound_to 11000
  144.6727  140.1082  143.7457 LP  0  0  0  0  0  0  0  0  0  0  0  0  # atno 17320 bound_to 7965
  145.9258  139.2575  143.1354 LP  0  0  0  0  0  0  0  0  0  0  0  0  # atno 17321 bound_to 7965
  139.6981  143.9579  152.2892 LP  0  0  0  0  0  0  0  0  0  0  0  0  # atno 17342 bound_to 10162
  139.9263  144.6769  150.8409 LP  0  0  0  0  0  0  0  0  0  0  0  0  # atno 17343 bound_to 10162
  156.3061  130.3765  149.7705 LP  0  0  0  0  0  0  0  0  0  0  0  0  # atno 17370 bound_to 10713
  156.5320  130.8262  151.3240 LP  0  0  0  0  0  0  0  0  0  0  0  0  # atno 17371 bound_to 10713
  140.3909  134.7441  157.4721 LP  0  0  0  0  0  0  0  0  0  0  0  0  # atno 17394 bound_to 11000
  140.0566  134.6054  155.8797 LP  0  0  0  0  0  0  0  0  0  0  0  0  # atno 17395 bound_to 11000

$$$$
