AV-unprocessed.smi:500|AV-procd|sdf|2734|dock6
  -GOLD-   2262023183D 1   1.00000     0.00000
 Structure written by MMmdl.
 45 47  0  0  0  0  0  0  0  0  1 V2000
  148.7166  140.9177  153.7500 C   0  0  0  0  0  0  0  0  0  0  0  0
  149.8045  141.3036  154.7618 C   0  0  0  0  0  0  0  0  0  0  0  0
  149.8229  140.4270  155.8799 O   0  0  0  0  0  0  0  0  0  0  0  0
  150.1854  141.0492  157.1028 C   0  0  0  0  0  0  0  0  0  0  0  0
  151.7001  140.9058  157.2961 C   0  0  0  0  0  0  0  0  0  0  0  0
  152.1060  141.2493  158.6510 N   0  0  0  0  0  0  0  0  0  0  0  0
  152.6328  140.4424  159.6096 C   0  0  0  0  0  0  0  0  0  0  0  0
  152.8905  138.9719  159.3904 C   0  0  2  0  0  0  0  0  0  0  0  0
  151.6956  138.2649  158.7360 C   0  0  0  0  0  0  0  0  0  0  0  0
  153.1972  138.3612  160.6815 N   0  0  0  0  0  0  0  0  0  0  0  0
  153.4652  137.0600  160.8773 C   0  0  0  0  0  0  0  0  0  0  0  0
  153.4519  136.2217  159.9759 O   0  0  0  0  0  0  0  0  0  0  0  0
  153.7795  136.6712  162.2648 C   0  0  0  0  0  0  0  0  0  0  0  0
  153.6393  137.3463  163.4490 C   0  0  0  0  0  0  0  0  0  0  0  0
  154.1230  136.4821  164.4697 C   0  0  0  0  0  0  0  0  0  0  0  0
  154.5273  135.3422  163.8364 C   0  0  0  0  0  0  0  0  0  0  0  0
  154.3279  135.4426  162.4943 O   0  0  0  0  0  0  0  0  0  0  0  0
  152.9241  141.0411  160.7677 N   0  0  0  0  0  0  0  0  0  0  0  0
  152.5436  142.3484  160.5437 C   0  0  0  0  0  0  0  0  0  0  0  0
  152.5961  143.4770  161.3927 C   0  0  0  0  0  0  0  0  0  0  0  0
  152.1404  144.7323  160.9399 C   0  0  0  0  0  0  0  0  0  0  0  0
  151.6271  144.8762  159.6348 C   0  0  0  0  0  0  0  0  0  0  0  0
  151.5669  143.7642  158.7727 C   0  0  0  0  0  0  0  0  0  0  0  0
  152.0242  142.5129  159.2291 C   0  0  0  0  0  0  0  0  0  0  0  0
  148.7826  141.5417  152.8584 H   0  0  0  0  0  0  0  0  0  0  0  0
  147.7152  141.0428  154.1607 H   0  0  0  0  0  0  0  0  0  0  0  0
  148.8252  139.8791  153.4371 H   0  0  0  0  0  0  0  0  0  0  0  0
  150.7769  141.2315  154.2744 H   0  0  0  0  0  0  0  0  0  0  0  0
  149.6947  142.3412  155.0801 H   0  0  0  0  0  0  0  0  0  0  0  0
  149.9124  142.1054  157.0810 H   0  0  0  0  0  0  0  0  0  0  0  0
  149.6561  140.5905  157.9373 H   0  0  0  0  0  0  0  0  0  0  0  0
  152.0332  139.8946  157.0636 H   0  0  0  0  0  0  0  0  0  0  0  0
  152.2239  141.5575  156.5966 H   0  0  0  0  0  0  0  0  0  0  0  0
  153.7459  138.8274  158.7321 H   0  0  0  0  0  0  0  0  0  0  0  0
  151.4618  138.7092  157.7681 H   0  0  0  0  0  0  0  0  0  0  0  0
  150.8013  138.3320  159.3565 H   0  0  0  0  0  0  0  0  0  0  0  0
  151.9074  137.2081  158.5712 H   0  0  0  0  0  0  0  0  0  0  0  0
  153.2337  138.9778  161.4800 H   0  0  0  0  0  0  0  0  0  0  0  0
  153.2390  138.3425  163.5685 H   0  0  0  0  0  0  0  0  0  0  0  0
  154.1712  136.6712  165.5319 H   0  0  0  0  0  0  0  0  0  0  0  0
  154.9597  134.4106  164.1704 H   0  0  0  0  0  0  0  0  0  0  0  0
  152.9873  143.3765  162.3942 H   0  0  0  0  0  0  0  0  0  0  0  0
  152.1843  145.5883  161.5971 H   0  0  0  0  0  0  0  0  0  0  0  0
  151.2796  145.8409  159.2953 H   0  0  0  0  0  0  0  0  0  0  0  0
  151.1731  143.8741  157.7732 H   0  0  0  0  0  0  0  0  0  0  0  0
  1  2  1  0  0  0  0
  1 25  1  0  0  0  0
  1 26  1  0  0  0  0
  1 27  1  0  0  0  0
  2  3  1  0  0  0  0
  2 28  1  0  0  0  0
  2 29  1  0  0  0  0
  3  4  1  0  0  0  0
  4  5  1  0  0  0  0
  4 30  1  0  0  0  0
  4 31  1  0  0  0  0
  5  6  1  0  0  0  0
  5 32  1  0  0  0  0
  5 33  1  0  0  0  0
  6 24  1  0  0  0  0
  6  7  1  0  0  0  0
  7  8  1  0  0  0  0
  7 18  2  0  0  0  0
  8  9  1  0  0  0  0
  8 10  1  0  0  0  0
  8 34  1  0  0  0  0
  9 35  1  0  0  0  0
  9 36  1  0  0  0  0
  9 37  1  0  0  0  0
 10 11  1  0  0  0  0
 10 38  1  0  0  0  0
 11 12  2  0  0  0  0
 11 13  1  0  0  0  0
 13 17  1  0  0  0  0
 13 14  2  0  0  0  0
 14 15  1  0  0  0  0
 14 39  1  0  0  0  0
 15 16  2  0  0  0  0
 15 40  1  0  0  0  0
 16 17  1  0  0  0  0
 16 41  1  0  0  0  0
 18 19  1  0  0  0  0
 19 24  2  0  0  0  0
 19 20  1  0  0  0  0
 20 21  2  0  0  0  0
 20 42  1  0  0  0  0
 21 22  1  0  0  0  0
 21 43  1  0  0  0  0
 22 23  2  0  0  0  0
 22 44  1  0  0  0  0
 23 24  1  0  0  0  0
 23 45  1  0  0  0  0
M  END
> <s_m_source_file>
AV-unprocessed.smi

> <i_m_source_file_index>
500

> <i_lp_mmshare_version>
43012

> <i_f3d_flags>
0

> <s_epik_input>
W0NIM11bQ0gyXU9bQ0gyXVtDSDJdbihjKGMxMilbY0hdW2NIXVtjSF1bY0hdMiljKG4xKVtDQEhdKFtDSDNdKVtOSF1DKD1PKWMzW2NIXVtjSF1bY0hdbzM=

> <s_epik_cmdline>
J2VwaWtfcHl0aG9uJywgJy1waCcsICc3LjAnLCAnLXRuJywgJzgnLCAnLW1hJywgJzIwMCcsICctbWV0YWxfYmluZGluZycsICctaW1hZScsICc8aW5maWxlLm1hZT4nLCAnLW9tYWUnLCAnPG91dGZpbGUubWFlPic=

> <r_epik_Ionization_Penalty>
0.109801

> <r_epik_Ionization_Penalty_Charging>
0

> <r_epik_Ionization_Penalty_Neutral>
0.109801

> <r_epik_State_Penalty>
0.0995533

> <r_epik_Charging_Adjusted_Penalty>
0.0995533

> <i_epik_Tot_Q>
0

> <i_epik_Tot_abs_Q>
0

> <r_epik_Metal_State_Penalty>
0.0918163

> <b_epik_Metal_Only>
0

> <s_lp_Force_Field>
OPLS_2005

> <r_lp_Energy>
8.25657

> <b_lp_Chiralities_Consistent>
1

> <s_lp_Variant>
AV-unprocessed.smi:500-1

> <Gold.Version>
5.8.1

> <Gold.Id.Protein>
6NUR|6NUR_protein|mol2

> <Gold.PLP.Fitness>
51.6816

> <Gold.PLP.PLP>
-50.2911

> <Gold.PLP.part.hbond>
-1.0000

> <Gold.PLP.part.metal>
0.0000

> <Gold.PLP.part.buried>
-6.8734

> <Gold.PLP.part.nonpolar>
-42.8197

> <Gold.PLP.part.repulsive>
0.1027

> <Gold.PLP.ligand.clash>
0.0000

> <Gold.PLP.ligand.torsion>
0.8759

> <Gold.PLP.Chemscore.Hbond>
1.0000

> <Gold.PLP.Chemscore.CHOScore>
0.0000

> <Gold.PLP.Chemscore.Metal>
0.0000

> <Gold.Chemscore.Hbonds>
donor molecule, donor type, donor heavy atom, donor atom, acceptor molecule, acceptor atom, score
      P1  H  6896  6908       L1    12  1.00

> <Gold.PLP.Chemscore.Internal.Correction>
0.1422

> <Gold.Rescore>
     Score         DG    S(hbond)    S(metal)    S(lipo)     H(rot)  DE(clash)    DE(int)     intcor
     16.11     -19.17       1.00        0.00     130.40       1.92       0.01       3.05       ----

> <Gold.Chemscore.Fitness>
16.1143

> <Gold.Chemscore.DG>
-19.1724

> <Gold.Chemscore.ZeroCoef>
-5.4800

> <Gold.Chemscore.Hbond>
0.9999

> <Gold.Chemscore.Metal>
0.0000

> <Gold.Chemscore.Lipo>
130.3987

> <Gold.Chemscore.Internal_Hbond>
0.0000

> <Gold.Chemscore.DEClash>
0.0106

> <Gold.Chemscore.DEInternal>
3.0475

> <Gold.Chemscore.Rot>
1.9156

> <Gold.Chemscore.Internal.Correction>
   9.000000E+99

> <Gold.Chemscore.Hbonds>
donor molecule, donor type, donor heavy atom, donor atom, acceptor molecule, acceptor atom, score
      P1  H  6896  6908       L1    12  0.99

> <Gold.Chemscore.Hbond.Weighted>
-3.3398

> <Gold.Chemscore.Metal.Weighted>
-0.0000

> <Gold.Chemscore.Lipo.Weighted>
-15.2566

> <Gold.Chemscore.Internal_Hbond.Weighted>
0.0000

> <Gold.Chemscore.DEClash.Weighted>
0.0106

> <Gold.Chemscore.DEInternal.Weighted>
3.0475

> <Gold.Chemscore.Rot.Weighted>
4.9041

> <Gold.Chemscore.Internal.Correction.Weighted>
   9.000000E+99

> <Gold.Protein.RotatedTorsions>
[ 6907 6896 6895 6894 ] final  -64.11 input  -60.11 | X-H torsion
[ 7974 7965 7964 7962 ] final -102.59 input  175.53 | X-H torsion
[ 8008 7997 7996 7995 ] final  147.71 input   59.86 | X-H torsion
[ 10167 10162 10161 10158 ] final -116.22 input  -65.29 | X-H torsion
[ 10718 10713 10712 10709 ] final  -77.09 input   66.30 | X-H torsion
[ 10763 10752 10751 10750 ] final    3.53 input  -60.55 | X-H torsion
[ 11005 11000 10999 10996 ] final  156.65 input  -57.11 | X-H torsion

> <Gold.Protein.ActiveResidues>
 VAL166  LYS551  ARG553  GLY616  TRP617  ASP618  TYR619  PRO620  LYS621  CYS622 
 ASP623  PHE694  ASN695  SER759  ASP760  ASP761  ALA762  ILE779  LEU786  VAL792 
 PHE793  MET794  SER795  GLU796  ALA797  LYS798  CYS799  TRP800  GLU811  SER814 

> <Gold.Protein.RotatedAtoms>
  150.7606  134.6344  159.6202 H   0  0  0  0  0  0  0  0  0  0  0  0  # atno 6907 bound_to 6896
  152.3611  134.6867  160.0215 H   0  0  0  0  0  0  0  0  0  0  0  0  # atno 6908 bound_to 6896
  151.7257  133.3280  159.3363 H   0  0  0  0  0  0  0  0  0  0  0  0  # atno 6909 bound_to 6896
  145.2667  140.9286  143.3009 H   0  0  0  0  0  0  0  0  0  0  0  0  # atno 7974 bound_to 7965
  156.2815  140.2148  156.5582 H   0  0  0  0  0  0  0  0  0  0  0  0  # atno 8008 bound_to 7997
  154.7235  140.0501  157.0684 H   0  0  0  0  0  0  0  0  0  0  0  0  # atno 8009 bound_to 7997
  155.0447  140.3149  155.4715 H   0  0  0  0  0  0  0  0  0  0  0  0  # atno 8010 bound_to 7997
  140.0816  143.4782  152.1922 H   0  0  0  0  0  0  0  0  0  0  0  0  # atno 10167 bound_to 10162
  156.0155  130.4482  150.3293 H   0  0  0  0  0  0  0  0  0  0  0  0  # atno 10718 bound_to 10713
  153.2822  135.6941  153.7375 H   0  0  0  0  0  0  0  0  0  0  0  0  # atno 10763 bound_to 10752
  153.6358  135.3402  155.3057 H   0  0  0  0  0  0  0  0  0  0  0  0  # atno 10764 bound_to 10752
  154.8498  135.4420  154.1878 H   0  0  0  0  0  0  0  0  0  0  0  0  # atno 10765 bound_to 10752
  140.1695  134.8553  157.2673 H   0  0  0  0  0  0  0  0  0  0  0  0  # atno 11005 bound_to 11000
  144.9370  139.4232  143.6467 LP  0  0  0  0  0  0  0  0  0  0  0  0  # atno 17320 bound_to 7965
  146.3259  139.8311  142.8908 LP  0  0  0  0  0  0  0  0  0  0  0  0  # atno 17321 bound_to 7965
  139.5776  144.7495  151.3723 LP  0  0  0  0  0  0  0  0  0  0  0  0  # atno 17342 bound_to 10162
  140.7075  143.7477  150.7507 LP  0  0  0  0  0  0  0  0  0  0  0  0  # atno 17343 bound_to 10162
  157.1391  131.0292  151.2936 LP  0  0  0  0  0  0  0  0  0  0  0  0  # atno 17370 bound_to 10713
  157.4487  130.7586  149.7132 LP  0  0  0  0  0  0  0  0  0  0  0  0  # atno 17371 bound_to 10713
  140.2394  134.3814  155.7487 LP  0  0  0  0  0  0  0  0  0  0  0  0  # atno 17394 bound_to 11000
  141.2216  133.7257  156.8765 LP  0  0  0  0  0  0  0  0  0  0  0  0  # atno 17395 bound_to 11000

$$$$
