AV-unprocessed.smi:610|AV-procd|sdf|3060|dock1
  -GOLD-   2262023583D 1   1.00000     0.00000
 Structure written by MMmdl.
 37 38  0  0  0  0  0  0  0  0  1 V2000
  151.3843  140.1155  157.8191 C   0  0  0  0  0  0  0  0  0  0  0  0
  150.4256  141.2308  157.3731 C   0  0  1  0  0  0  0  0  0  0  0  0
  151.1941  142.4791  156.8996 C   0  0  0  0  0  0  0  0  0  0  0  0
  151.5124  143.3768  157.9947 N   0  0  0  0  0  0  0  0  0  0  0  0
  151.2247  144.7328  158.0771 C   0  0  0  0  0  0  0  0  0  0  0  0
  151.7194  145.1664  159.2863 C   0  0  0  0  0  0  0  0  0  0  0  0
  152.3090  144.1003  159.9615 N   0  0  0  0  0  0  0  0  0  0  0  0
  152.1456  143.0743  159.1366 C   0  0  0  0  0  0  0  0  0  0  0  0
  149.5532  140.7485  156.3050 N   0  0  0  0  0  0  0  0  0  0  0  0
  149.9509  140.1100  155.1908 C   0  0  0  0  0  0  0  0  0  0  0  0
  151.1396  139.9108  154.9362 O   0  0  0  0  0  0  0  0  0  0  0  0
  148.8580  139.6224  154.2061 C   0  0  0  0  0  0  0  0  0  0  0  0
  149.4124  138.7638  153.1667 N   0  0  0  0  0  0  0  0  0  0  0  0
  147.7357  138.8588  154.9585 C   0  0  0  0  0  0  0  0  0  0  0  0
  146.4263  139.6138  154.7003 C   0  0  0  0  0  0  0  0  0  0  0  0
  146.8500  141.0264  154.3136 C   0  0  0  0  0  0  0  0  0  0  0  0
  148.1407  140.8133  153.5239 C   0  0  0  0  0  0  0  0  0  0  0  0
  152.0305  140.4568  158.6281 H   0  0  0  0  0  0  0  0  0  0  0  0
  152.0229  139.7886  156.9977 H   0  0  0  0  0  0  0  0  0  0  0  0
  150.8376  139.2451  158.1836 H   0  0  0  0  0  0  0  0  0  0  0  0
  149.8136  141.5161  158.2310 H   0  0  0  0  0  0  0  0  0  0  0  0
  152.1303  142.1867  156.4227 H   0  0  0  0  0  0  0  0  0  0  0  0
  150.6183  143.0252  156.1506 H   0  0  0  0  0  0  0  0  0  0  0  0
  150.7105  145.2624  157.2887 H   0  0  0  0  0  0  0  0  0  0  0  0
  151.6966  146.1558  159.7189 H   0  0  0  0  0  0  0  0  0  0  0  0
  152.5001  142.0801  159.3667 H   0  0  0  0  0  0  0  0  0  0  0  0
  148.5599  140.8807  156.4315 H   0  0  0  0  0  0  0  0  0  0  0  0
  148.8891  137.9007  153.1375 H   0  0  0  0  0  0  0  0  0  0  0  0
  149.2774  139.2051  152.2683 H   0  0  0  0  0  0  0  0  0  0  0  0
  147.6448  137.8178  154.6439 H   0  0  0  0  0  0  0  0  0  0  0  0
  147.9243  138.8320  156.0335 H   0  0  0  0  0  0  0  0  0  0  0  0
  145.8993  139.1525  153.8640 H   0  0  0  0  0  0  0  0  0  0  0  0
  145.7574  139.5986  155.5613 H   0  0  0  0  0  0  0  0  0  0  0  0
  146.0873  141.5519  153.7384 H   0  0  0  0  0  0  0  0  0  0  0  0
  147.0537  141.6113  155.2114 H   0  0  0  0  0  0  0  0  0  0  0  0
  148.7443  141.7219  153.4882 H   0  0  0  0  0  0  0  0  0  0  0  0
  147.8810  140.5737  152.4911 H   0  0  0  0  0  0  0  0  0  0  0  0
  1  2  1  0  0  0  0
  1 18  1  0  0  0  0
  1 19  1  0  0  0  0
  1 20  1  0  0  0  0
  2  3  1  0  0  0  0
  2  9  1  0  0  0  0
  2 21  1  0  0  0  0
  3  4  1  0  0  0  0
  3 22  1  0  0  0  0
  3 23  1  0  0  0  0
  4  8  1  0  0  0  0
  4  5  1  0  0  0  0
  5  6  2  0  0  0  0
  5 24  1  0  0  0  0
  6  7  1  0  0  0  0
  6 25  1  0  0  0  0
  7  8  2  0  0  0  0
  8 26  1  0  0  0  0
  9 10  1  0  0  0  0
  9 27  1  0  0  0  0
 10 11  2  0  0  0  0
 10 12  1  0  0  0  0
 12 17  1  0  0  0  0
 12 13  1  0  0  0  0
 12 14  1  0  0  0  0
 13 28  1  0  0  0  0
 13 29  1  0  0  0  0
 14 15  1  0  0  0  0
 14 30  1  0  0  0  0
 14 31  1  0  0  0  0
 15 16  1  0  0  0  0
 15 32  1  0  0  0  0
 15 33  1  0  0  0  0
 16 17  1  0  0  0  0
 16 34  1  0  0  0  0
 16 35  1  0  0  0  0
 17 36  1  0  0  0  0
 17 37  1  0  0  0  0
M  END
> <s_m_source_file>
AV-unprocessed.smi

> <i_m_source_file_index>
610

> <i_lp_mmshare_version>
43012

> <i_f3d_flags>
0

> <s_epik_input>
W2NIXTFuW2NIXVtjSF1uMVtDSDJdW0NAQEhdKFtDSDNdKVtOSF1DKD1PKUMyKFtOSDJdKVtDSDJdW0NIMl1bQ0gyXVtDSDJdMg==

> <s_epik_cmdline>
J2VwaWtfcHl0aG9uJywgJy1waCcsICc3LjAnLCAnLXRuJywgJzgnLCAnLW1hJywgJzIwMCcsICctbWV0YWxfYmluZGluZycsICctaW1hZScsICc8aW5maWxlLm1hZT4nLCAnLW9tYWUnLCAnPG91dGZpbGUubWFlPic=

> <r_lp_tautomer_probability>
1

> <r_epik_Ionization_Penalty>
1.91974

> <r_epik_Ionization_Penalty_Charging>
0.644069

> <r_epik_Ionization_Penalty_Neutral>
1.27567

> <r_epik_State_Penalty>
1.9806

> <r_epik_Charging_Adjusted_Penalty>
2.62467

> <i_epik_Tot_Q>
0

> <i_epik_Tot_abs_Q>
0

> <r_epik_Metal_State_Penalty>
1.61835

> <b_epik_Metal_Only>
0

> <s_lp_Force_Field>
OPLS_2005

> <r_lp_Energy>
21.6521

> <b_lp_Chiralities_Consistent>
1

> <s_lp_Variant>
AV-unprocessed.smi:610-8

> <Gold.Version>
5.8.1

> <Gold.Id.Protein>
6NUR|6NUR_protein|mol2

> <Gold.PLP.Fitness>
42.3065

> <Gold.PLP.PLP>
-33.5067

> <Gold.PLP.part.hbond>
-2.7718

> <Gold.PLP.part.metal>
0.0000

> <Gold.PLP.part.buried>
-4.6736

> <Gold.PLP.part.nonpolar>
-26.1734

> <Gold.PLP.part.repulsive>
0.1024

> <Gold.PLP.ligand.clash>
0.0000

> <Gold.PLP.ligand.torsion>
0.7855

> <Gold.PLP.Chemscore.Hbond>
2.4376

> <Gold.PLP.Chemscore.CHOScore>
0.9933

> <Gold.PLP.Chemscore.Metal>
0.0000

> <Gold.Chemscore.Hbonds>
donor molecule, donor type, donor heavy atom, donor atom, acceptor molecule, acceptor atom, score
      L1  H    13    28       P1  7948  0.55
      L1  H    13    29       P1  7957  0.71
      P1  H  7989  7998       L1    11  1.00
      L1  C     5    24       P1  8028  0.89

> <Gold.PLP.Chemscore.Internal.Correction>
0.0781

> <Gold.Rescore>
     Score         DG    S(hbond)    S(metal)    S(lipo)     H(rot)  DE(clash)    DE(int)     intcor
     14.84     -16.62       2.52        0.00      66.04       1.95       0.22       1.56       ----

> <Gold.Chemscore.Fitness>
14.8410

> <Gold.Chemscore.DG>
-16.6237

> <Gold.Chemscore.ZeroCoef>
-5.4800

> <Gold.Chemscore.Hbond>
2.5162

> <Gold.Chemscore.Metal>
0.0000

> <Gold.Chemscore.Lipo>
66.0389

> <Gold.Chemscore.Internal_Hbond>
0.0000

> <Gold.Chemscore.DEClash>
0.2205

> <Gold.Chemscore.DEInternal>
1.5622

> <Gold.Chemscore.Rot>
1.9480

> <Gold.Chemscore.Internal.Correction>
   9.000000E+99

> <Gold.Chemscore.Hbonds>
donor molecule, donor type, donor heavy atom, donor atom, acceptor molecule, acceptor atom, score
      L1  H    13    28       P1  7948  0.53
      L1  H    13    29       P1  7957  0.69
      P1  H  7989  7998       L1    11  0.78

> <Gold.Chemscore.Hbond.Weighted>
-8.4040

> <Gold.Chemscore.Metal.Weighted>
-0.0000

> <Gold.Chemscore.Lipo.Weighted>
-7.7266

> <Gold.Chemscore.Internal_Hbond.Weighted>
0.0000

> <Gold.Chemscore.DEClash.Weighted>
0.2205

> <Gold.Chemscore.DEInternal.Weighted>
1.5622

> <Gold.Chemscore.Rot.Weighted>
4.9869

> <Gold.Chemscore.Internal.Correction.Weighted>
   9.000000E+99

> <Gold.Protein.RotatedTorsions>
[ 6907 6896 6895 6894 ] final    9.20 input  -60.11 | X-H torsion
[ 7974 7965 7964 7962 ] final  157.24 input  175.53 | X-H torsion
[ 8008 7997 7996 7995 ] final  144.61 input   59.86 | X-H torsion
[ 10167 10162 10161 10158 ] final  -14.72 input  -65.29 | X-H torsion
[ 10718 10713 10712 10709 ] final   37.79 input   66.30 | X-H torsion
[ 10763 10752 10751 10750 ] final  126.48 input  -60.55 | X-H torsion
[ 11005 11000 10999 10996 ] final  106.37 input  -57.11 | X-H torsion

> <Gold.Protein.ActiveResidues>
 VAL166  LYS551  ARG553  GLY616  TRP617  ASP618  TYR619  PRO620  LYS621  CYS622 
 ASP623  PHE694  ASN695  SER759  ASP760  ASP761  ALA762  ILE779  LEU786  VAL792 
 PHE793  MET794  SER795  GLU796  ALA797  LYS798  CYS799  TRP800  GLU811  SER814 

> <Gold.Protein.RotatedAtoms>
  151.7183  135.0899  160.0279 H   0  0  0  0  0  0  0  0  0  0  0  0  # atno 6907 bound_to 6896
  152.3618  133.6302  159.6029 H   0  0  0  0  0  0  0  0  0  0  0  0  # atno 6908 bound_to 6896
  150.7610  133.9328  159.3473 H   0  0  0  0  0  0  0  0  0  0  0  0  # atno 6909 bound_to 6896
  144.7915  139.7313  143.6219 H   0  0  0  0  0  0  0  0  0  0  0  0  # atno 7974 bound_to 7965
  156.2904  140.2231  156.5080 H   0  0  0  0  0  0  0  0  0  0  0  0  # atno 8008 bound_to 7997
  154.7633  140.0472  157.1013 H   0  0  0  0  0  0  0  0  0  0  0  0  # atno 8009 bound_to 7997
  154.9964  140.3096  155.4888 H   0  0  0  0  0  0  0  0  0  0  0  0  # atno 8010 bound_to 7997
  140.7206  143.5292  150.9540 H   0  0  0  0  0  0  0  0  0  0  0  0  # atno 10167 bound_to 10162
  157.3512  130.7599  149.6980 H   0  0  0  0  0  0  0  0  0  0  0  0  # atno 10718 bound_to 10713
  153.6940  135.3294  155.3209 H   0  0  0  0  0  0  0  0  0  0  0  0  # atno 10763 bound_to 10752
  154.8432  135.4438  154.1479 H   0  0  0  0  0  0  0  0  0  0  0  0  # atno 10764 bound_to 10752
  153.2528  135.6983  153.7738 H   0  0  0  0  0  0  0  0  0  0  0  0  # atno 10765 bound_to 10752
  139.8813  134.9367  156.5657 H   0  0  0  0  0  0  0  0  0  0  0  0  # atno 11005 bound_to 11000
  146.2169  139.5565  142.9644 LP  0  0  0  0  0  0  0  0  0  0  0  0  # atno 17320 bound_to 7965
  145.5782  141.0386  143.2137 LP  0  0  0  0  0  0  0  0  0  0  0  0  # atno 17321 bound_to 7965
  139.9012  143.6834  152.3131 LP  0  0  0  0  0  0  0  0  0  0  0  0  # atno 17342 bound_to 10162
  139.7184  144.7607  151.0996 LP  0  0  0  0  0  0  0  0  0  0  0  0  # atno 17343 bound_to 10162
  155.9722  130.4140  150.4110 LP  0  0  0  0  0  0  0  0  0  0  0  0  # atno 17370 bound_to 10713
  157.2173  131.0474  151.2566 LP  0  0  0  0  0  0  0  0  0  0  0  0  # atno 17371 bound_to 10713
  140.8136  133.8409  155.8832 LP  0  0  0  0  0  0  0  0  0  0  0  0  # atno 17394 bound_to 11000
  140.9483  134.1811  157.4746 LP  0  0  0  0  0  0  0  0  0  0  0  0  # atno 17395 bound_to 11000

$$$$
