AV-unprocessed.smi:897|AV-procd|sdf|4082|dock7
  -GOLD-   22720 1573D 1   1.00000     0.00000
 Structure written by MMmdl.
 35 37  0  0  0  0  0  0  0  0  1 V2000
  150.7350  144.4626  159.5884 C   0  0  0  0  0  0  0  0  0  0  0  0
  151.7772  143.5114  160.1379 C   0  0  0  0  0  0  0  0  0  0  0  0
  152.3443  143.7134  161.4097 C   0  0  0  0  0  0  0  0  0  0  0  0
  153.3093  142.7966  161.8733 C   0  0  0  0  0  0  0  0  0  0  0  0
  153.9248  143.0017  163.2492 C   0  0  0  0  0  0  0  0  0  0  0  0
  153.6741  141.7089  161.0374 C   0  0  0  0  0  0  0  0  0  0  0  0
  154.6750  140.7387  161.4783 C   0  0  0  0  0  0  0  0  0  0  0  0
  155.4674  139.9712  161.8273 N   0  0  0  0  0  0  0  0  0  0  0  0
  153.0447  141.5928  159.7670 C   0  0  0  0  0  0  0  0  0  0  0  0
  153.3696  140.5298  158.9034 N   0  0  0  0  0  0  0  0  0  0  0  0
  152.3614  139.5826  158.4392 C   0  0  1  0  0  0  0  0  0  0  0  0
  151.9559  139.8041  156.9762 C   0  0  0  0  0  0  0  0  0  0  0  0
  152.2430  138.4315  156.3556 C   0  0  2  0  0  0  0  0  0  0  0  0
  151.2721  137.3523  156.8541 C   0  0  0  0  0  0  0  0  0  0  0  0
  151.7630  137.1270  158.2840 C   0  0  0  0  0  0  0  0  0  0  0  0
  152.9063  138.1451  158.3898 C   0  0  1  0  0  0  0  0  0  0  0  0
  153.4158  138.0788  157.0673 O   0  0  0  0  0  0  0  0  0  0  0  0
  152.1154  142.4803  159.3381 N   0  0  0  0  0  0  0  0  0  0  0  0
  150.4487  145.2080  160.3309 H   0  0  0  0  0  0  0  0  0  0  0  0
  149.8384  143.9161  159.2943 H   0  0  0  0  0  0  0  0  0  0  0  0
  151.1232  144.9841  158.7129 H   0  0  0  0  0  0  0  0  0  0  0  0
  152.0441  144.5547  162.0175 H   0  0  0  0  0  0  0  0  0  0  0  0
  155.0019  143.1501  163.1683 H   0  0  0  0  0  0  0  0  0  0  0  0
  153.7406  142.1348  163.8841 H   0  0  0  0  0  0  0  0  0  0  0  0
  153.5024  143.8748  163.7471 H   0  0  0  0  0  0  0  0  0  0  0  0
  154.2657  140.5336  158.4373 H   0  0  0  0  0  0  0  0  0  0  0  0
  151.4982  139.6248  159.1049 H   0  0  0  0  0  0  0  0  0  0  0  0
  150.9115  140.0995  156.8710 H   0  0  0  0  0  0  0  0  0  0  0  0
  152.5719  140.5674  156.4981 H   0  0  0  0  0  0  0  0  0  0  0  0
  152.3643  138.4538  155.2724 H   0  0  0  0  0  0  0  0  0  0  0  0
  150.2326  137.6783  156.8082 H   0  0  0  0  0  0  0  0  0  0  0  0
  151.3712  136.4379  156.2680 H   0  0  0  0  0  0  0  0  0  0  0  0
  150.9860  137.2921  159.0313 H   0  0  0  0  0  0  0  0  0  0  0  0
  152.1395  136.1103  158.4030 H   0  0  0  0  0  0  0  0  0  0  0  0
  153.6308  137.9069  159.1697 H   0  0  0  0  0  0  0  0  0  0  0  0
  1  2  1  0  0  0  0
  1 19  1  0  0  0  0
  1 20  1  0  0  0  0
  1 21  1  0  0  0  0
  2 18  1  0  0  0  0
  2  3  2  0  0  0  0
  3  4  1  0  0  0  0
  3 22  1  0  0  0  0
  4  5  1  0  0  0  0
  4  6  2  0  0  0  0
  5 23  1  0  0  0  0
  5 24  1  0  0  0  0
  5 25  1  0  0  0  0
  6  7  1  0  0  0  0
  6  9  1  0  0  0  0
  7  8  3  0  0  0  0
  9 10  1  0  0  0  0
  9 18  2  0  0  0  0
 10 11  1  0  0  0  0
 10 26  1  0  0  0  0
 11 16  1  0  0  0  0
 11 12  1  0  0  0  0
 11 27  1  0  0  0  0
 12 13  1  0  0  0  0
 12 28  1  0  0  0  0
 12 29  1  0  0  0  0
 13 17  1  0  0  0  0
 13 14  1  0  0  0  0
 13 30  1  0  0  0  0
 14 15  1  0  0  0  0
 14 31  1  0  0  0  0
 14 32  1  0  0  0  0
 15 16  1  0  0  0  0
 15 33  1  0  0  0  0
 15 34  1  0  0  0  0
 16 17  1  0  0  0  0
 16 35  1  0  0  0  0
M  END
> <s_m_source_file>
AV-unprocessed.smi

> <i_m_source_file_index>
897

> <i_lp_mmshare_version>
43012

> <i_f3d_flags>
0

> <s_epik_input>
W0NIM11jMVtjSF1jKFtDSDNdKWMoQyNOKWMobjEpW05IXVtDQEhdKFtDSDJdW0NAQEhdMjMpW0NAQEhdKE8zKVtDSDJdW0NIMl0y

> <s_epik_cmdline>
J2VwaWtfcHl0aG9uJywgJy1waCcsICc3LjAnLCAnLXRuJywgJzgnLCAnLW1hJywgJzIwMCcsICctbWV0YWxfYmluZGluZycsICctaW1hZScsICc8aW5maWxlLm1hZT4nLCAnLW9tYWUnLCAnPG91dGZpbGUubWFlPic=

> <r_lp_tautomer_probability>
1

> <r_epik_Ionization_Penalty>
0.000502654

> <r_epik_Ionization_Penalty_Charging>
0

> <r_epik_Ionization_Penalty_Neutral>
0.000502654

> <r_epik_State_Penalty>
-0

> <r_epik_Charging_Adjusted_Penalty>
0

> <i_epik_Tot_Q>
0

> <i_epik_Tot_abs_Q>
0

> <r_epik_Metal_State_Penalty>
-0

> <b_epik_Metal_Only>
0

> <s_lp_Force_Field>
OPLS_2005

> <r_lp_Energy>
43.6408

> <b_lp_Chiralities_Consistent>
1

> <s_lp_Variant>
AV-unprocessed.smi:897-4

> <Gold.Version>
5.8.1

> <Gold.Id.Protein>
6NUR|6NUR_protein|mol2

> <Gold.PLP.Fitness>
42.8036

> <Gold.PLP.PLP>
-41.3590

> <Gold.PLP.part.hbond>
-1.0000

> <Gold.PLP.part.metal>
0.0000

> <Gold.PLP.part.buried>
-5.7974

> <Gold.PLP.part.nonpolar>
-33.2446

> <Gold.PLP.part.repulsive>
0.0940

> <Gold.PLP.ligand.clash>
0.0000

> <Gold.PLP.ligand.torsion>
0.7878

> <Gold.PLP.Chemscore.Hbond>
1.0000

> <Gold.PLP.Chemscore.CHOScore>
0.0000

> <Gold.PLP.Chemscore.Metal>
0.0000

> <Gold.Chemscore.Hbonds>
donor molecule, donor type, donor heavy atom, donor atom, acceptor molecule, acceptor atom, score
      P1  H  7997  8010       L1    17  0.36

> <Gold.PLP.Chemscore.Internal.Correction>
0.0202

> <Gold.Rescore>
     Score         DG    S(hbond)    S(metal)    S(lipo)     H(rot)  DE(clash)    DE(int)     intcor
     16.34     -17.10       0.74        0.00     100.17       1.00       0.11       0.65       ----

> <Gold.Chemscore.Fitness>
16.3362

> <Gold.Chemscore.DG>
-17.0968

> <Gold.Chemscore.ZeroCoef>
-5.4800

> <Gold.Chemscore.Hbond>
0.7355

> <Gold.Chemscore.Metal>
0.0000

> <Gold.Chemscore.Lipo>
100.1719

> <Gold.Chemscore.Internal_Hbond>
0.0000

> <Gold.Chemscore.DEClash>
0.1103

> <Gold.Chemscore.DEInternal>
0.6503

> <Gold.Chemscore.Rot>
1.0000

> <Gold.Chemscore.Internal.Correction>
   9.000000E+99

> <Gold.Chemscore.Hbonds>
donor molecule, donor type, donor heavy atom, donor atom, acceptor molecule, acceptor atom, score
      P1  H  7997  8010       L1    17  0.03

> <Gold.Chemscore.Hbond.Weighted>
-2.4567

> <Gold.Chemscore.Metal.Weighted>
-0.0000

> <Gold.Chemscore.Lipo.Weighted>
-11.7201

> <Gold.Chemscore.Internal_Hbond.Weighted>
0.0000

> <Gold.Chemscore.DEClash.Weighted>
0.1103

> <Gold.Chemscore.DEInternal.Weighted>
0.6503

> <Gold.Chemscore.Rot.Weighted>
2.5600

> <Gold.Chemscore.Internal.Correction.Weighted>
   9.000000E+99

> <Gold.Protein.RotatedTorsions>
[ 6907 6896 6895 6894 ] final   15.81 input  -60.11 | X-H torsion
[ 7974 7965 7964 7962 ] final  -80.76 input  175.53 | X-H torsion
[ 8008 7997 7996 7995 ] final   51.40 input   59.86 | X-H torsion
[ 10167 10162 10161 10158 ] final  150.13 input  -65.29 | X-H torsion
[ 10718 10713 10712 10709 ] final   -7.48 input   66.30 | X-H torsion
[ 10763 10752 10751 10750 ] final  -55.31 input  -60.55 | X-H torsion
[ 11005 11000 10999 10996 ] final -108.30 input  -57.11 | X-H torsion

> <Gold.Protein.ActiveResidues>
 VAL166  LYS551  ARG553  GLY616  TRP617  ASP618  TYR619  PRO620  LYS621  CYS622 
 ASP623  PHE694  ASN695  SER759  ASP760  ASP761  ALA762  ILE779  LEU786  VAL792 
 PHE793  MET794  SER795  GLU796  ALA797  LYS798  CYS799  TRP800  GLU811  SER814 

> <Gold.Protein.RotatedAtoms>
  151.8240  135.0643  160.0428 H   0  0  0  0  0  0  0  0  0  0  0  0  # atno 6907 bound_to 6896
  152.2930  133.5575  159.5578 H   0  0  0  0  0  0  0  0  0  0  0  0  # atno 6908 bound_to 6896
  150.7238  134.0317  159.3778 H   0  0  0  0  0  0  0  0  0  0  0  0  # atno 6909 bound_to 6896
  145.5557  140.9490  143.1475 H   0  0  0  0  0  0  0  0  0  0  0  0  # atno 7974 bound_to 7965
  155.4347  140.3452  155.4283 H   0  0  0  0  0  0  0  0  0  0  0  0  # atno 8008 bound_to 7997
  156.1315  140.1515  156.9089 H   0  0  0  0  0  0  0  0  0  0  0  0  # atno 8009 bound_to 7997
  154.4898  140.0844  156.7549 H   0  0  0  0  0  0  0  0  0  0  0  0  # atno 8010 bound_to 7997
  139.4853  144.5547  151.7339 H   0  0  0  0  0  0  0  0  0  0  0  0  # atno 10167 bound_to 10162
  156.7166  130.5138  149.5878 H   0  0  0  0  0  0  0  0  0  0  0  0  # atno 10718 bound_to 10713
  154.1888  135.6431  153.5054 H   0  0  0  0  0  0  0  0  0  0  0  0  # atno 10763 bound_to 10752
  153.0040  135.5423  154.6437 H   0  0  0  0  0  0  0  0  0  0  0  0  # atno 10764 bound_to 10752
  154.5820  135.2926  155.0696 H   0  0  0  0  0  0  0  0  0  0  0  0  # atno 10765 bound_to 10752
  141.0909  133.9056  157.2077 H   0  0  0  0  0  0  0  0  0  0  0  0  # atno 11005 bound_to 11000
  144.7507  139.7201  143.7274 LP  0  0  0  0  0  0  0  0  0  0  0  0  # atno 17320 bound_to 7965
  146.1886  139.5114  142.9820 LP  0  0  0  0  0  0  0  0  0  0  0  0  # atno 17321 bound_to 7965
  140.5106  144.1030  150.5994 LP  0  0  0  0  0  0  0  0  0  0  0  0  # atno 17342 bound_to 10162
  140.3955  143.2730  152.0010 LP  0  0  0  0  0  0  0  0  0  0  0  0  # atno 17343 bound_to 10162
  156.1623  130.6382  151.0735 LP  0  0  0  0  0  0  0  0  0  0  0  0  # atno 17370 bound_to 10713
  157.6915  131.0808  150.7094 LP  0  0  0  0  0  0  0  0  0  0  0  0  # atno 17371 bound_to 10713
  139.9735  135.0121  156.9572 LP  0  0  0  0  0  0  0  0  0  0  0  0  # atno 17394 bound_to 11000
  140.5254  134.0866  155.7302 LP  0  0  0  0  0  0  0  0  0  0  0  0  # atno 17395 bound_to 11000

$$$$
