AV-unprocessed.smi:3237|AV-procd|sdf|12367|dock7
  -GOLD-   2272018223D 1   1.00000     0.00000
 Structure written by MMmdl.
 36 38  0  0  0  0  0  0  0  0  3 V2000
  153.8696  137.1632  157.2748 C   0  0  0  0  0  0  0  0  0  0  0  0
  152.9525  138.1156  156.5864 C   0  0  0  0  0  0  0  0  0  0  0  0
  152.2190  138.0299  155.4373 C   0  0  0  0  0  0  0  0  0  0  0  0
  151.5667  139.2913  155.3734 C   0  0  0  0  0  0  0  0  0  0  0  0
  150.7309  139.6971  154.4049 N   0  5  0  0  0  0  0  0  0  0  0  0
  149.4638  140.0582  154.7088 C   0  0  0  0  0  0  0  0  0  0  0  0
  148.9503  140.0574  155.8299 O   0  0  0  0  0  0  0  0  0  0  0  0
  148.7430  140.4415  153.6459 N   0  0  0  0  0  0  0  0  0  0  0  0
  147.3507  140.8744  153.6813 C   0  0  2  0  0  0  0  0  0  0  0  0
  147.1324  142.2547  154.3066 C   0  0  0  0  0  0  0  0  0  0  0  0
  145.7234  142.1814  154.9170 C   0  0  0  0  0  0  0  0  0  0  0  0
  145.2907  140.7669  154.8300 N   0  3  2  0  0  0  0  0  0  0  0  0
  144.4973  140.3012  155.9867 C   0  0  0  0  0  0  0  0  0  0  0  0
  143.4327  139.2939  155.6233 C   0  0  0  0  0  0  0  0  0  0  0  0
  143.0489  140.7247  155.9338 C   0  0  0  0  0  0  0  0  0  0  0  0
  146.5012  139.9697  154.5672 C   0  0  0  0  0  0  0  0  0  0  0  0
  151.8887  140.0793  156.3856 N   0  0  0  0  0  0  0  0  0  0  0  0
  152.7710  139.3296  157.1727 O   0  0  0  0  0  0  0  0  0  0  0  0
  154.5581  136.7083  156.5627 H   0  0  0  0  0  0  0  0  0  0  0  0
  153.3047  136.3649  157.7561 H   0  0  0  0  0  0  0  0  0  0  0  0
  154.4603  137.6686  158.0389 H   0  0  0  0  0  0  0  0  0  0  0  0
  152.1554  137.1972  154.7530 H   0  0  0  0  0  0  0  0  0  0  0  0
  149.2015  140.4289  152.7464 H   0  0  0  0  0  0  0  0  0  0  0  0
  146.9375  140.8638  152.6707 H   0  0  0  0  0  0  0  0  0  0  0  0
  147.8632  142.4339  155.0969 H   0  0  0  0  0  0  0  0  0  0  0  0
  147.2311  143.0591  153.5770 H   0  0  0  0  0  0  0  0  0  0  0  0
  145.7442  142.5290  155.9511 H   0  0  0  0  0  0  0  0  0  0  0  0
  145.0170  142.8069  154.3708 H   0  0  0  0  0  0  0  0  0  0  0  0
  145.0185  140.2377  156.9404 H   0  0  0  0  0  0  0  0  0  0  0  0
  143.3641  138.9682  154.5868 H   0  0  0  0  0  0  0  0  0  0  0  0
  143.1821  138.5386  156.3654 H   0  0  0  0  0  0  0  0  0  0  0  0
  142.5462  140.9123  156.8805 H   0  0  0  0  0  0  0  0  0  0  0  0
  142.7246  141.3502  155.1038 H   0  0  0  0  0  0  0  0  0  0  0  0
  146.2607  139.0198  154.0886 H   0  0  0  0  0  0  0  0  0  0  0  0
  147.0164  139.7589  155.5066 H   0  0  0  0  0  0  0  0  0  0  0  0
  144.7141  140.6923  154.0042 H   0  0  0  0  0  0  0  0  0  0  0  0
  1  2  1  0  0  0  0
  1 19  1  0  0  0  0
  1 20  1  0  0  0  0
  1 21  1  0  0  0  0
  2 18  1  0  0  0  0
  2  3  2  0  0  0  0
  3  4  1  0  0  0  0
  3 22  1  0  0  0  0
  4  5  1  0  0  0  0
  4 17  2  0  0  0  0
  5  6  1  0  0  0  0
  6  7  2  0  0  0  0
  6  8  1  0  0  0  0
  8  9  1  0  0  0  0
  8 23  1  0  0  0  0
  9 16  1  0  0  0  0
  9 10  1  0  0  0  0
  9 24  1  0  0  0  0
 10 11  1  0  0  0  0
 10 25  1  0  0  0  0
 10 26  1  0  0  0  0
 11 12  1  0  0  0  0
 11 27  1  0  0  0  0
 11 28  1  0  0  0  0
 12 13  1  0  0  0  0
 12 16  1  0  0  0  0
 12 36  1  0  0  0  0
 13 15  1  0  0  0  0
 13 14  1  0  0  0  0
 13 29  1  0  0  0  0
 14 15  1  0  0  0  0
 14 30  1  0  0  0  0
 14 31  1  0  0  0  0
 15 32  1  0  0  0  0
 15 33  1  0  0  0  0
 16 34  1  0  0  0  0
 16 35  1  0  0  0  0
 17 18  1  0  0  0  0
M  CHG  1   5  -1
M  CHG  1  12   1
M  END
> <s_m_source_file>
AV-unprocessed.smi

> <i_m_source_file_index>
3237

> <i_lp_mmshare_version>
43012

> <i_f3d_flags>
0

> <s_epik_input>
W0NIM11jMVtjSF1jKG5vMSlbTkhdQyg9TylbTkhdW0NAQEhdMltDSDJdW0NIMl1OKFtDSDJdMilbQ0hdM1tDSDJdW0NIMl0z

> <s_epik_cmdline>
J2VwaWtfcHl0aG9uJywgJy1waCcsICc3LjAnLCAnLXRuJywgJzgnLCAnLW1hJywgJzIwMCcsICctbWV0YWxfYmluZGluZycsICctaW1hZScsICc8aW5maWxlLm1hZT4nLCAnLW9tYWUnLCAnPG91dGZpbGUubWFlPic=

> <r_epik_Ionization_Penalty>
6.08472

> <r_epik_Ionization_Penalty_Charging>
6.08464

> <r_epik_Ionization_Penalty_Neutral>
8.41751e-05

> <r_epik_State_Penalty>
6.08438

> <r_epik_Charging_Adjusted_Penalty>
12.169

> <i_epik_Tot_Q>
0

> <i_epik_Tot_abs_Q>
2

> <r_epik_Metal_State_Penalty>
2.0369

> <b_epik_Metal_Only>
1

> <s_lp_Force_Field>
OPLS_2005

> <r_lp_Energy>
23.7168

> <b_lp_Chiralities_Consistent>
1

> <s_lp_Variant>
AV-unprocessed.smi:3237-5

> <Gold.Version>
5.8.1

> <Gold.Id.Protein>
6NUR|6NUR_protein|mol2

> <Gold.PLP.Fitness>
40.5126

> <Gold.PLP.PLP>
-26.9814

> <Gold.PLP.part.hbond>
-3.9657

> <Gold.PLP.part.metal>
0.0000

> <Gold.PLP.part.buried>
-4.3867

> <Gold.PLP.part.nonpolar>
-19.5006

> <Gold.PLP.part.repulsive>
0.3514

> <Gold.PLP.ligand.clash>
0.0000

> <Gold.PLP.ligand.torsion>
1.3564

> <Gold.PLP.Chemscore.Hbond>
4.9913

> <Gold.PLP.Chemscore.CHOScore>
0.0000

> <Gold.PLP.Chemscore.Metal>
0.0000

> <Gold.Chemscore.Hbonds>
donor molecule, donor type, donor heavy atom, donor atom, acceptor molecule, acceptor atom, score
      L1  H     8    23       P1  7957  1.00
      L1  H    12    36       P1 10175  2.00
      P1  H  7989  7998       L1     5  1.00
      P1  H  7997  8010       L1    18  0.81

> <Gold.PLP.Chemscore.Internal.Correction>
1.2703

> <Gold.Rescore>
     Score         DG    S(hbond)    S(metal)    S(lipo)     H(rot)  DE(clash)    DE(int)     intcor
     13.36     -16.44       2.82        0.00      40.49       1.25       0.07       3.01       ----

> <Gold.Chemscore.Fitness>
13.3647

> <Gold.Chemscore.DG>
-16.4416

> <Gold.Chemscore.ZeroCoef>
-5.4800

> <Gold.Chemscore.Hbond>
2.8189

> <Gold.Chemscore.Metal>
0.0000

> <Gold.Chemscore.Lipo>
40.4910

> <Gold.Chemscore.Internal_Hbond>
0.0000

> <Gold.Chemscore.DEClash>
0.0719

> <Gold.Chemscore.DEInternal>
3.0050

> <Gold.Chemscore.Rot>
1.2464

> <Gold.Chemscore.Internal.Correction>
   9.000000E+99

> <Gold.Chemscore.Hbonds>
donor molecule, donor type, donor heavy atom, donor atom, acceptor molecule, acceptor atom, score
      L1  H     8    23       P1  7957  1.00
      L1  H    12    36       P1 10175  0.99
      P1  H  7989  7998       L1     5  0.45
      P1  H  7997  8010       L1    18  0.03

> <Gold.Chemscore.Hbond.Weighted>
-9.4150

> <Gold.Chemscore.Metal.Weighted>
-0.0000

> <Gold.Chemscore.Lipo.Weighted>
-4.7374

> <Gold.Chemscore.Internal_Hbond.Weighted>
0.0000

> <Gold.Chemscore.DEClash.Weighted>
0.0719

> <Gold.Chemscore.DEInternal.Weighted>
3.0050

> <Gold.Chemscore.Rot.Weighted>
3.1909

> <Gold.Chemscore.Internal.Correction.Weighted>
   9.000000E+99

> <Gold.Protein.RotatedTorsions>
[ 6907 6896 6895 6894 ] final  135.82 input  -60.11 | X-H torsion
[ 7974 7965 7964 7962 ] final  -14.41 input  175.53 | X-H torsion
[ 8008 7997 7996 7995 ] final   62.55 input   59.86 | X-H torsion
[ 10167 10162 10161 10158 ] final  -55.41 input  -65.29 | X-H torsion
[ 10718 10713 10712 10709 ] final   27.01 input   66.30 | X-H torsion
[ 10763 10752 10751 10750 ] final -139.12 input  -60.55 | X-H torsion
[ 11005 11000 10999 10996 ] final    6.82 input  -57.11 | X-H torsion

> <Gold.Protein.ActiveResidues>
 VAL166  LYS551  ARG553  GLY616  TRP617  ASP618  TYR619  PRO620  LYS621  CYS622 
 ASP623  PHE694  ASN695  SER759  ASP760  ASP761  ALA762  ILE779  LEU786  VAL792 
 PHE793  MET794  SER795  GLU796  ALA797  LYS798  CYS799  TRP800  GLU811  SER814 

> <Gold.Protein.RotatedAtoms>
  152.2962  133.5610  159.5588 H   0  0  0  0  0  0  0  0  0  0  0  0  # atno 6907 bound_to 6896
  150.7257  134.0357  159.3757 H   0  0  0  0  0  0  0  0  0  0  0  0  # atno 6908 bound_to 6896
  151.8260  135.0637  160.0482 H   0  0  0  0  0  0  0  0  0  0  0  0  # atno 6909 bound_to 6896
  146.2075  140.3344  142.8402 H   0  0  0  0  0  0  0  0  0  0  0  0  # atno 7974 bound_to 7965
  155.6161  140.3495  155.4637 H   0  0  0  0  0  0  0  0  0  0  0  0  # atno 8008 bound_to 7997
  156.0116  140.1234  157.0472 H   0  0  0  0  0  0  0  0  0  0  0  0  # atno 8009 bound_to 7997
  154.4283  140.1080  156.5824 H   0  0  0  0  0  0  0  0  0  0  0  0  # atno 8010 bound_to 7997
  140.6376  143.2490  151.5077 H   0  0  0  0  0  0  0  0  0  0  0  0  # atno 10167 bound_to 10162
  157.2145  130.6950  149.6243 H   0  0  0  0  0  0  0  0  0  0  0  0  # atno 10718 bound_to 10713
  154.8618  135.3592  154.5495 H   0  0  0  0  0  0  0  0  0  0  0  0  # atno 10763 bound_to 10752
  153.6114  135.7009  153.5350 H   0  0  0  0  0  0  0  0  0  0  0  0  # atno 10764 bound_to 10752
  153.3206  135.4152  155.1374 H   0  0  0  0  0  0  0  0  0  0  0  0  # atno 10765 bound_to 10752
  140.5552  134.0245  155.7951 H   0  0  0  0  0  0  0  0  0  0  0  0  # atno 11005 bound_to 11000
  144.8829  140.7424  143.5975 LP  0  0  0  0  0  0  0  0  0  0  0  0  # atno 17320 bound_to 7965
  145.3265  139.1772  143.4560 LP  0  0  0  0  0  0  0  0  0  0  0  0  # atno 17321 bound_to 7965
  139.5586  144.2214  152.1653 LP  0  0  0  0  0  0  0  0  0  0  0  0  # atno 17342 bound_to 10162
  140.1475  144.5146  150.6707 LP  0  0  0  0  0  0  0  0  0  0  0  0  # atno 17343 bound_to 10162
  155.9687  130.4540  150.5833 LP  0  0  0  0  0  0  0  0  0  0  0  0  # atno 17370 bound_to 10713
  157.3638  131.0754  151.1614 LP  0  0  0  0  0  0  0  0  0  0  0  0  # atno 17371 bound_to 10713
  141.1148  133.9558  157.2843 LP  0  0  0  0  0  0  0  0  0  0  0  0  # atno 17394 bound_to 11000
  139.9435  135.0187  156.8781 LP  0  0  0  0  0  0  0  0  0  0  0  0  # atno 17395 bound_to 11000

$$$$
