AV-unprocessed.smi:3085|AV-procd|sdf|11751|dock4
  -GOLD-   2272017143D 1   1.00000     0.00000
 Structure written by MMmdl.
 28 29  0  0  0  0  0  0  0  0  2 V2000
  151.4935  144.4172  157.9987 C   0  0  0  0  0  0  0  0  0  0  0  0
  151.6517  142.9975  158.5534 C   0  0  0  0  0  0  0  0  0  0  0  0
  151.1265  141.9558  157.6209 C   0  0  0  0  0  0  0  0  0  0  0  0
  150.4766  142.1988  156.4876 N   0  0  0  0  0  0  0  0  0  0  0  0
  150.2127  140.9208  156.0785 C   0  0  0  0  0  0  0  0  0  0  0  0
  149.5176  140.6243  154.7858 C   0  0  1  0  0  0  0  0  0  0  0  0
  149.5240  139.1201  154.4525 C   0  0  0  0  0  0  0  0  0  0  0  0
  148.7455  138.8753  153.2230 N   0  3  0  0  0  0  0  0  0  0  0  0
  147.3783  139.4224  153.3313 C   0  0  0  0  0  0  0  0  0  0  0  0
  147.4314  140.9138  153.7075 C   0  0  0  0  0  0  0  0  0  0  0  0
  148.1718  141.0807  154.9122 O   0  0  0  0  0  0  0  0  0  0  0  0
  150.6768  139.9503  156.8667 N   0  0  0  0  0  0  0  0  0  0  0  0
  151.2517  140.6502  157.8670 N   0  0  0  0  0  0  0  0  0  0  0  0
  151.7039  140.2140  158.6582 H   0  0  0  0  0  0  0  0  0  0  0  0
  151.8862  145.1538  158.6997 H   0  0  0  0  0  0  0  0  0  0  0  0
  150.4447  144.6545  157.8176 H   0  0  0  0  0  0  0  0  0  0  0  0
  152.0308  144.5333  157.0571 H   0  0  0  0  0  0  0  0  0  0  0  0
  152.7044  142.7921  158.7509 H   0  0  0  0  0  0  0  0  0  0  0  0
  151.1343  142.9130  159.5098 H   0  0  0  0  0  0  0  0  0  0  0  0
  150.0122  141.1857  153.9907 H   0  0  0  0  0  0  0  0  0  0  0  0
  150.5435  138.7594  154.3137 H   0  0  0  0  0  0  0  0  0  0  0  0
  149.0866  138.5451  155.2703 H   0  0  0  0  0  0  0  0  0  0  0  0
  149.2135  139.3253  152.4492 H   0  0  0  0  0  0  0  0  0  0  0  0
  146.8564  139.2832  152.3843 H   0  0  0  0  0  0  0  0  0  0  0  0
  146.8276  138.8622  154.0882 H   0  0  0  0  0  0  0  0  0  0  0  0
  147.8824  141.5016  152.9064 H   0  0  0  0  0  0  0  0  0  0  0  0
  146.4229  141.3003  153.8556 H   0  0  0  0  0  0  0  0  0  0  0  0
  148.6978  137.8817  153.0470 H   0  0  0  0  0  0  0  0  0  0  0  0
  1  2  1  0  0  0  0
  1 15  1  0  0  0  0
  1 16  1  0  0  0  0
  1 17  1  0  0  0  0
  2  3  1  0  0  0  0
  2 18  1  0  0  0  0
  2 19  1  0  0  0  0
  3 13  1  0  0  0  0
  3  4  2  0  0  0  0
  4  5  1  0  0  0  0
  5  6  1  0  0  0  0
  5 12  2  0  0  0  0
  6 11  1  0  0  0  0
  6  7  1  0  0  0  0
  6 20  1  0  0  0  0
  7  8  1  0  0  0  0
  7 21  1  0  0  0  0
  7 22  1  0  0  0  0
  8  9  1  0  0  0  0
  8 23  1  0  0  0  0
  8 28  1  0  0  0  0
  9 10  1  0  0  0  0
  9 24  1  0  0  0  0
  9 25  1  0  0  0  0
 10 11  1  0  0  0  0
 10 26  1  0  0  0  0
 10 27  1  0  0  0  0
 12 13  1  0  0  0  0
 13 14  1  0  0  0  0
M  CHG  1   8   1
M  END
> <s_m_source_file>
AV-unprocessed.smi

> <i_m_source_file_index>
3085

> <i_lp_mmshare_version>
43012

> <i_f3d_flags>
0

> <s_epik_input>
W0NIM11bQ0gyXWMxbmMobltuSF0xKVtDQEBIXTJbQ0gyXVtOSF1bQ0gyXVtDSDJdTzI=

> <s_epik_cmdline>
J2VwaWtfcHl0aG9uJywgJy1waCcsICc3LjAnLCAnLXRuJywgJzgnLCAnLW1hJywgJzIwMCcsICctbWV0YWxfYmluZGluZycsICctaW1hZScsICc8aW5maWxlLm1hZT4nLCAnLW9tYWUnLCAnPG91dGZpbGUubWFlPic=

> <r_lp_tautomer_probability>
0.948284

> <r_epik_Ionization_Penalty>
0.107151

> <r_epik_Ionization_Penalty_Charging>
0.100865

> <r_epik_Ionization_Penalty_Neutral>
0.00628602

> <r_epik_State_Penalty>
0.429695

> <r_epik_Charging_Adjusted_Penalty>
0.530559

> <i_epik_Tot_Q>
1

> <i_epik_Tot_abs_Q>
1

> <r_epik_Metal_State_Penalty>
0.651827

> <b_epik_Metal_Only>
0

> <s_lp_Force_Field>
OPLS_2005

> <r_lp_Energy>
10.0575

> <b_lp_Chiralities_Consistent>
1

> <s_lp_Variant>
AV-unprocessed.smi:3085-2

> <Gold.Version>
5.8.1

> <Gold.Id.Protein>
6NUR|6NUR_protein|mol2

> <Gold.PLP.Fitness>
33.6445

> <Gold.PLP.PLP>
-25.1274

> <Gold.PLP.part.hbond>
-1.8899

> <Gold.PLP.part.metal>
0.0000

> <Gold.PLP.part.buried>
-3.5909

> <Gold.PLP.part.nonpolar>
-20.4108

> <Gold.PLP.part.repulsive>
0.3723

> <Gold.PLP.ligand.clash>
0.0000

> <Gold.PLP.ligand.torsion>
0.1144

> <Gold.PLP.Chemscore.Hbond>
2.9103

> <Gold.PLP.Chemscore.CHOScore>
0.0000

> <Gold.PLP.Chemscore.Metal>
0.0000

> <Gold.Chemscore.Hbonds>
donor molecule, donor type, donor heavy atom, donor atom, acceptor molecule, acceptor atom, score
      L1  H     8    23       P1  7957  0.98
      L1  H     8    28       P1  7948  2.00

> <Gold.PLP.Chemscore.Internal.Correction>
0.0151

> <Gold.Rescore>
     Score         DG    S(hbond)    S(metal)    S(lipo)     H(rot)  DE(clash)    DE(int)     intcor
     14.41     -14.46       1.89        0.00      51.23       1.30       0.01       0.04       ----

> <Gold.Chemscore.Fitness>
14.4059

> <Gold.Chemscore.DG>
-14.4565

> <Gold.Chemscore.ZeroCoef>
-5.4800

> <Gold.Chemscore.Hbond>
1.8902

> <Gold.Chemscore.Metal>
0.0000

> <Gold.Chemscore.Lipo>
51.2302

> <Gold.Chemscore.Internal_Hbond>
0.0000

> <Gold.Chemscore.DEClash>
0.0060

> <Gold.Chemscore.DEInternal>
0.0446

> <Gold.Chemscore.Rot>
1.3011

> <Gold.Chemscore.Internal.Correction>
   9.000000E+99

> <Gold.Chemscore.Hbonds>
donor molecule, donor type, donor heavy atom, donor atom, acceptor molecule, acceptor atom, score
      L1  H     8    23       P1  7957  0.91
      L1  H     8    28       P1  7948  0.89

> <Gold.Chemscore.Hbond.Weighted>
-6.3134

> <Gold.Chemscore.Metal.Weighted>
-0.0000

> <Gold.Chemscore.Lipo.Weighted>
-5.9939

> <Gold.Chemscore.Internal_Hbond.Weighted>
0.0000

> <Gold.Chemscore.DEClash.Weighted>
0.0060

> <Gold.Chemscore.DEInternal.Weighted>
0.0446

> <Gold.Chemscore.Rot.Weighted>
3.3308

> <Gold.Chemscore.Internal.Correction.Weighted>
   9.000000E+99

> <Gold.Protein.RotatedTorsions>
[ 6907 6896 6895 6894 ] final  115.50 input  -60.11 | X-H torsion
[ 7974 7965 7964 7962 ] final  -57.47 input  175.53 | X-H torsion
[ 8008 7997 7996 7995 ] final  -43.40 input   59.86 | X-H torsion
[ 10167 10162 10161 10158 ] final  -76.95 input  -65.29 | X-H torsion
[ 10718 10713 10712 10709 ] final   93.53 input   66.30 | X-H torsion
[ 10763 10752 10751 10750 ] final -145.34 input  -60.55 | X-H torsion
[ 11005 11000 10999 10996 ] final  169.91 input  -57.11 | X-H torsion

> <Gold.Protein.ActiveResidues>
 VAL166  LYS551  ARG553  GLY616  TRP617  ASP618  TYR619  PRO620  LYS621  CYS622 
 ASP623  PHE694  ASN695  SER759  ASP760  ASP761  ALA762  ILE779  LEU786  VAL792 
 PHE793  MET794  SER795  GLU796  ALA797  LYS798  CYS799  TRP800  GLU811  SER814 

> <Gold.Protein.RotatedAtoms>
  152.4737  133.8089  159.6992 H   0  0  0  0  0  0  0  0  0  0  0  0  # atno 6907 bound_to 6896
  150.8741  133.7454  159.2958 H   0  0  0  0  0  0  0  0  0  0  0  0  # atno 6908 bound_to 6896
  151.4979  135.1064  159.9873 H   0  0  0  0  0  0  0  0  0  0  0  0  # atno 6909 bound_to 6896
  145.8506  140.8355  142.9987 H   0  0  0  0  0  0  0  0  0  0  0  0  # atno 7974 bound_to 7965
  154.3997  140.1448  156.3513 H   0  0  0  0  0  0  0  0  0  0  0  0  # atno 8008 bound_to 7997
  155.8266  140.3467  155.5525 H   0  0  0  0  0  0  0  0  0  0  0  0  # atno 8009 bound_to 7997
  155.8232  140.0901  157.1827 H   0  0  0  0  0  0  0  0  0  0  0  0  # atno 8010 bound_to 7997
  140.4813  143.2401  151.8053 H   0  0  0  0  0  0  0  0  0  0  0  0  # atno 10167 bound_to 10162
  157.6954  131.0481  150.4047 H   0  0  0  0  0  0  0  0  0  0  0  0  # atno 10718 bound_to 10713
  154.8388  135.3416  154.6489 H   0  0  0  0  0  0  0  0  0  0  0  0  # atno 10763 bound_to 10752
  153.7101  135.6964  153.5044 H   0  0  0  0  0  0  0  0  0  0  0  0  # atno 10764 bound_to 10752
  153.2458  135.4369  155.0699 H   0  0  0  0  0  0  0  0  0  0  0  0  # atno 10765 bound_to 10752
  140.3027  134.7582  157.3929 H   0  0  0  0  0  0  0  0  0  0  0  0  # atno 11005 bound_to 11000
  144.6729  140.0948  143.7463 LP  0  0  0  0  0  0  0  0  0  0  0  0  # atno 17320 bound_to 7965
  145.9361  139.2638  143.1296 LP  0  0  0  0  0  0  0  0  0  0  0  0  # atno 17321 bound_to 7965
  139.4834  144.4769  151.9356 LP  0  0  0  0  0  0  0  0  0  0  0  0  # atno 17342 bound_to 10162
  140.3854  144.2683  150.5904 LP  0  0  0  0  0  0  0  0  0  0  0  0  # atno 17343 bound_to 10162
  156.4437  130.3997  149.6680 LP  0  0  0  0  0  0  0  0  0  0  0  0  # atno 17370 bound_to 10713
  156.3855  130.7600  151.2597 LP  0  0  0  0  0  0  0  0  0  0  0  0  # atno 17371 bound_to 10713
  140.1094  134.5365  155.8279 LP  0  0  0  0  0  0  0  0  0  0  0  0  # atno 17394 bound_to 11000
  141.2124  133.6720  156.6661 LP  0  0  0  0  0  0  0  0  0  0  0  0  # atno 17395 bound_to 11000

$$$$
