AV-unprocessed.smi:3178|AV-procd|sdf|12130|dock5
  -GOLD-   2272017573D 1   1.00000     0.00000
 Structure written by MMmdl.
 35 35  0  0  0  0  0  0  0  0  1 V2000
  145.4325  128.6605  151.4375 C   0  0  0  0  0  0  0  0  0  0  0  0
  146.5103  128.9169  152.3291 O   0  0  0  0  0  0  0  0  0  0  0  0
  147.6644  128.0718  152.2580 C   0  0  0  0  0  0  0  0  0  0  0  0
  147.3263  126.7074  152.8900 C   0  0  0  0  0  0  0  0  0  0  0  0
  148.1595  127.8870  150.8039 C   0  0  0  0  0  0  0  0  0  0  0  0
  148.7415  128.7737  153.1209 C   0  0  0  0  0  0  0  0  0  0  0  0
  148.7277  130.2215  152.9364 N   0  0  0  0  0  0  0  0  0  0  0  0
  148.7928  131.1311  153.9212 C   0  0  0  0  0  0  0  0  0  0  0  0
  149.0542  130.8525  155.0912 O   0  0  0  0  0  0  0  0  0  0  0  0
  148.4681  132.5730  153.5304 C   0  0  0  0  0  0  0  0  0  0  0  0
  147.0308  132.6647  153.0845 C   0  0  0  0  0  0  0  0  0  0  0  0
  146.5237  133.1560  151.8441 C   0  0  0  0  0  0  0  0  0  0  0  0
  145.1671  133.0584  151.9690 C   0  0  0  0  0  0  0  0  0  0  0  0
  144.0663  133.4230  151.0318 C   0  0  0  0  0  0  0  0  0  0  0  0
  144.9344  132.5265  153.2163 N   0  0  0  0  0  0  0  0  0  0  0  0
  146.0636  132.2809  153.9062 N   0  0  0  0  0  0  0  0  0  0  0  0
  144.0229  132.3294  153.6045 H   0  0  0  0  0  0  0  0  0  0  0  0
  144.6062  129.3265  151.6847 H   0  0  0  0  0  0  0  0  0  0  0  0
  145.0630  127.6387  151.5132 H   0  0  0  0  0  0  0  0  0  0  0  0
  145.7083  128.8638  150.4028 H   0  0  0  0  0  0  0  0  0  0  0  0
  148.2146  126.0791  152.9634 H   0  0  0  0  0  0  0  0  0  0  0  0
  146.5921  126.1534  152.3059 H   0  0  0  0  0  0  0  0  0  0  0  0
  146.9249  126.8283  153.8967 H   0  0  0  0  0  0  0  0  0  0  0  0
  149.1173  127.3664  150.7813 H   0  0  0  0  0  0  0  0  0  0  0  0
  148.2911  128.8430  150.2959 H   0  0  0  0  0  0  0  0  0  0  0  0
  147.4632  127.2948  150.2100 H   0  0  0  0  0  0  0  0  0  0  0  0
  148.6179  128.5167  154.1745 H   0  0  0  0  0  0  0  0  0  0  0  0
  149.7329  128.4185  152.8380 H   0  0  0  0  0  0  0  0  0  0  0  0
  148.5209  130.5550  152.0060 H   0  0  0  0  0  0  0  0  0  0  0  0
  148.6418  133.2313  154.3824 H   0  0  0  0  0  0  0  0  0  0  0  0
  149.1511  132.8923  152.7417 H   0  0  0  0  0  0  0  0  0  0  0  0
  147.0762  133.5383  150.9985 H   0  0  0  0  0  0  0  0  0  0  0  0
  144.1901  132.9152  150.0752 H   0  0  0  0  0  0  0  0  0  0  0  0
  144.0606  134.4970  150.8458 H   0  0  0  0  0  0  0  0  0  0  0  0
  143.0926  133.1462  151.4367 H   0  0  0  0  0  0  0  0  0  0  0  0
  1  2  1  0  0  0  0
  1 18  1  0  0  0  0
  1 19  1  0  0  0  0
  1 20  1  0  0  0  0
  2  3  1  0  0  0  0
  3  4  1  0  0  0  0
  3  5  1  0  0  0  0
  3  6  1  0  0  0  0
  4 21  1  0  0  0  0
  4 22  1  0  0  0  0
  4 23  1  0  0  0  0
  5 24  1  0  0  0  0
  5 25  1  0  0  0  0
  5 26  1  0  0  0  0
  6  7  1  0  0  0  0
  6 27  1  0  0  0  0
  6 28  1  0  0  0  0
  7  8  1  0  0  0  0
  7 29  1  0  0  0  0
  8  9  2  0  0  0  0
  8 10  1  0  0  0  0
 10 11  1  0  0  0  0
 10 30  1  0  0  0  0
 10 31  1  0  0  0  0
 11 16  2  0  0  0  0
 11 12  1  0  0  0  0
 12 13  2  0  0  0  0
 12 32  1  0  0  0  0
 13 14  1  0  0  0  0
 13 15  1  0  0  0  0
 14 33  1  0  0  0  0
 14 34  1  0  0  0  0
 14 35  1  0  0  0  0
 15 17  1  0  0  0  0
 15 16  1  0  0  0  0
M  END
> <s_m_source_file>
AV-unprocessed.smi

> <i_m_source_file_index>
3178

> <i_lp_mmshare_version>
43012

> <i_f3d_flags>
0

> <s_epik_input>
W0NIM11PQyhbQ0gzXSkoW0NIM10pW0NIMl1bTkhdQyg9TylbQ0gyXWMxW2NIXWMoW0NIM10pW25IXW4x

> <s_epik_cmdline>
J2VwaWtfcHl0aG9uJywgJy1waCcsICc3LjAnLCAnLXRuJywgJzgnLCAnLW1hJywgJzIwMCcsICctbWV0YWxfYmluZGluZycsICctaW1hZScsICc8aW5maWxlLm1hZT4nLCAnLW9tYWUnLCAnPG91dGZpbGUubWFlPic=

> <r_lp_tautomer_probability>
0.5

> <r_epik_Ionization_Penalty>
8.10473e-05

> <r_epik_Ionization_Penalty_Charging>
0

> <r_epik_Ionization_Penalty_Neutral>
8.10473e-05

> <r_epik_State_Penalty>
0.41068

> <r_epik_Charging_Adjusted_Penalty>
0.41068

> <i_epik_Tot_Q>
0

> <i_epik_Tot_abs_Q>
0

> <r_epik_Metal_State_Penalty>
0.410702

> <b_epik_Metal_Only>
0

> <s_lp_Force_Field>
OPLS_2005

> <r_lp_Energy>
5.73531

> <b_lp_Chiralities_Consistent>
1

> <s_lp_Variant>
AV-unprocessed.smi:3178-1

> <Gold.Version>
5.8.1

> <Gold.Id.Protein>
6NUR|6NUR_protein|mol2

> <Gold.PLP.Fitness>
32.7770

> <Gold.PLP.PLP>
-27.9151

> <Gold.PLP.part.hbond>
-2.0000

> <Gold.PLP.part.metal>
0.0000

> <Gold.PLP.part.buried>
-3.7627

> <Gold.PLP.part.nonpolar>
-22.9640

> <Gold.PLP.part.repulsive>
0.2608

> <Gold.PLP.ligand.clash>
0.0000

> <Gold.PLP.ligand.torsion>
0.5725

> <Gold.PLP.Chemscore.Hbond>
1.9913

> <Gold.PLP.Chemscore.CHOScore>
0.0000

> <Gold.PLP.Chemscore.Metal>
0.0000

> <Gold.Chemscore.Hbonds>
donor molecule, donor type, donor heavy atom, donor atom, acceptor molecule, acceptor atom, score
      L1  H     7    29       P1 10747  1.00
      L1  H    15    17       P1 10957  0.90

> <Gold.PLP.Chemscore.Internal.Correction>
0.0332

> <Gold.Rescore>
     Score         DG    S(hbond)    S(metal)    S(lipo)     H(rot)  DE(clash)    DE(int)     intcor
     13.40     -14.18       1.76        0.00      65.51       1.89       0.03       0.75       ----

> <Gold.Chemscore.Fitness>
13.4027

> <Gold.Chemscore.DG>
-14.1837

> <Gold.Chemscore.ZeroCoef>
-5.4800

> <Gold.Chemscore.Hbond>
1.7580

> <Gold.Chemscore.Metal>
0.0000

> <Gold.Chemscore.Lipo>
65.5088

> <Gold.Chemscore.Internal_Hbond>
0.0000

> <Gold.Chemscore.DEClash>
0.0345

> <Gold.Chemscore.DEInternal>
0.7465

> <Gold.Chemscore.Rot>
1.8877

> <Gold.Chemscore.Internal.Correction>
   9.000000E+99

> <Gold.Chemscore.Hbonds>
donor molecule, donor type, donor heavy atom, donor atom, acceptor molecule, acceptor atom, score
      L1  H     7    29       P1 10747  0.81
      L1  H    15    17       P1 10957  0.18

> <Gold.Chemscore.Hbond.Weighted>
-5.8717

> <Gold.Chemscore.Metal.Weighted>
-0.0000

> <Gold.Chemscore.Lipo.Weighted>
-7.6645

> <Gold.Chemscore.Internal_Hbond.Weighted>
0.0000

> <Gold.Chemscore.DEClash.Weighted>
0.0345

> <Gold.Chemscore.DEInternal.Weighted>
0.7465

> <Gold.Chemscore.Rot.Weighted>
4.8325

> <Gold.Chemscore.Internal.Correction.Weighted>
   9.000000E+99

> <Gold.Protein.RotatedTorsions>
[ 6907 6896 6895 6894 ] final  143.21 input  -60.11 | X-H torsion
[ 7974 7965 7964 7962 ] final  179.14 input  175.53 | X-H torsion
[ 8008 7997 7996 7995 ] final  -51.46 input   59.86 | X-H torsion
[ 10167 10162 10161 10158 ] final -176.87 input  -65.29 | X-H torsion
[ 10718 10713 10712 10709 ] final   -7.18 input   66.30 | X-H torsion
[ 10763 10752 10751 10750 ] final  -42.13 input  -60.55 | X-H torsion
[ 11005 11000 10999 10996 ] final  -17.87 input  -57.11 | X-H torsion

> <Gold.Protein.ActiveResidues>
 VAL166  LYS551  ARG553  GLY616  TRP617  ASP618  TYR619  PRO620  LYS621  CYS622 
 ASP623  PHE694  ASN695  SER759  ASP760  ASP761  ALA762  ILE779  LEU786  VAL792 
 PHE793  MET794  SER795  GLU796  ALA797  LYS798  CYS799  TRP800  GLU811  SER814 

> <Gold.Protein.RotatedAtoms>
  152.2091  133.4898  159.5100 H   0  0  0  0  0  0  0  0  0  0  0  0  # atno 6907 bound_to 6896
  150.6986  134.1490  159.4142 H   0  0  0  0  0  0  0  0  0  0  0  0  # atno 6908 bound_to 6896
  151.9409  135.0213  160.0586 H   0  0  0  0  0  0  0  0  0  0  0  0  # atno 6909 bound_to 6896
  144.7148  140.0503  143.6435 H   0  0  0  0  0  0  0  0  0  0  0  0  # atno 7974 bound_to 7965
  154.4083  140.1247  156.4833 H   0  0  0  0  0  0  0  0  0  0  0  0  # atno 8008 bound_to 7997
  155.7063  140.3494  155.4935 H   0  0  0  0  0  0  0  0  0  0  0  0  # atno 8009 bound_to 7997
  155.9340  140.1075  157.1099 H   0  0  0  0  0  0  0  0  0  0  0  0  # atno 8010 bound_to 7997
  139.5508  144.2114  152.1073 H   0  0  0  0  0  0  0  0  0  0  0  0  # atno 10167 bound_to 10162
  156.7210  130.5151  149.5868 H   0  0  0  0  0  0  0  0  0  0  0  0  # atno 10718 bound_to 10713
  153.9739  135.6725  153.4748 H   0  0  0  0  0  0  0  0  0  0  0  0  # atno 10763 bound_to 10752
  153.0780  135.4938  154.8440 H   0  0  0  0  0  0  0  0  0  0  0  0  # atno 10764 bound_to 10752
  154.7203  135.3116  154.9019 H   0  0  0  0  0  0  0  0  0  0  0  0  # atno 10765 bound_to 10752
  140.8211  133.8067  155.9661 H   0  0  0  0  0  0  0  0  0  0  0  0  # atno 11005 bound_to 11000
  145.9949  139.3045  143.0962 LP  0  0  0  0  0  0  0  0  0  0  0  0  # atno 17320 bound_to 7965
  145.8860  140.9333  143.0577 LP  0  0  0  0  0  0  0  0  0  0  0  0  # atno 17321 bound_to 7965
  140.1609  144.5026  150.6633 LP  0  0  0  0  0  0  0  0  0  0  0  0  # atno 17342 bound_to 10162
  140.6770  143.2309  151.5482 LP  0  0  0  0  0  0  0  0  0  0  0  0  # atno 17343 bound_to 10162
  156.1594  130.6364  151.0700 LP  0  0  0  0  0  0  0  0  0  0  0  0  # atno 17370 bound_to 10713
  157.6898  131.0813  150.7140 LP  0  0  0  0  0  0  0  0  0  0  0  0  # atno 17371 bound_to 10713
  140.9098  134.2275  157.4993 LP  0  0  0  0  0  0  0  0  0  0  0  0  # atno 17394 bound_to 11000
  139.8708  134.9745  156.4847 LP  0  0  0  0  0  0  0  0  0  0  0  0  # atno 17395 bound_to 11000

$$$$
