AV-unprocessed.smi:1809|AV-procd|sdf|7312|dock2
  -GOLD-   22720 8573D 1   1.00000     0.00000
 Structure written by MMmdl.
 40 42  0  0  0  0  0  0  0  0  2 V2000
  150.5770  141.9466  156.2344 C   0  0  0  0  0  0  0  0  0  0  0  0
  150.1286  140.8418  155.3397 C   0  0  0  0  0  0  0  0  0  0  0  0
  150.9754  139.9560  154.7999 N   0  0  0  0  0  0  0  0  0  0  0  0
  150.3268  139.0227  154.0020 N   0  0  0  0  0  0  0  0  0  0  0  0
  149.0079  139.2307  153.9621 C   0  0  0  0  0  0  0  0  0  0  0  0
  148.2181  138.3535  153.1775 N   0  0  0  0  0  0  0  0  0  0  0  0
  147.0242  138.5977  152.6137 C   0  0  0  0  0  0  0  0  0  0  0  0
  146.3840  139.6434  152.7217 O   0  0  0  0  0  0  0  0  0  0  0  0
  146.5971  137.5436  151.9042 N   0  0  0  0  0  0  0  0  0  0  0  0
  145.3506  137.4953  151.1477 C   0  0  0  0  0  0  0  0  0  0  0  0
  144.5855  136.1806  151.3794 C   0  0  1  0  0  0  0  0  0  0  0  0
  144.5061  135.3369  150.0973 C   0  0  0  0  0  0  0  0  0  0  0  0
  143.8096  134.0471  150.3337 N   0  3  1  0  0  0  0  0  0  0  0  0
  143.9815  133.1043  149.2044 C   0  0  0  0  0  0  0  0  0  0  0  0
  145.0848  132.1122  149.6176 C   0  0  0  0  0  0  0  0  0  0  0  0
  145.5034  132.5258  151.0321 C   0  0  0  0  0  0  0  0  0  0  0  0
  144.3043  133.3309  151.5302 C   0  0  1  0  0  0  0  0  0  0  0  0
  144.5646  134.2571  152.7360 C   0  0  0  0  0  0  0  0  0  0  0  0
  145.2891  135.4162  152.3502 O   0  0  0  0  0  0  0  0  0  0  0  0
  148.4390  140.6045  154.9108 S   0  0  0  0  0  0  0  0  0  0  0  0
  151.6383  141.8485  156.4654 H   0  0  0  0  0  0  0  0  0  0  0  0
  150.0138  141.9231  157.1674 H   0  0  0  0  0  0  0  0  0  0  0  0
  150.4127  142.9088  155.7491 H   0  0  0  0  0  0  0  0  0  0  0  0
  148.6190  137.4420  153.0119 H   0  0  0  0  0  0  0  0  0  0  0  0
  147.1813  136.7205  151.8728 H   0  0  0  0  0  0  0  0  0  0  0  0
  144.7271  138.3488  151.4198 H   0  0  0  0  0  0  0  0  0  0  0  0
  145.5864  137.6113  150.0895 H   0  0  0  0  0  0  0  0  0  0  0  0
  143.5776  136.4042  151.7345 H   0  0  0  0  0  0  0  0  0  0  0  0
  143.9791  135.8853  149.3158 H   0  0  0  0  0  0  0  0  0  0  0  0
  145.5155  135.1488  149.7264 H   0  0  0  0  0  0  0  0  0  0  0  0
  143.0431  132.5694  149.0542 H   0  0  0  0  0  0  0  0  0  0  0  0
  144.2136  133.6149  148.2685 H   0  0  0  0  0  0  0  0  0  0  0  0
  144.6904  131.0954  149.6181 H   0  0  0  0  0  0  0  0  0  0  0  0
  145.9321  132.1351  148.9315 H   0  0  0  0  0  0  0  0  0  0  0  0
  145.7331  131.6723  151.6706 H   0  0  0  0  0  0  0  0  0  0  0  0
  146.3915  133.1578  150.9869 H   0  0  0  0  0  0  0  0  0  0  0  0
  143.5311  132.6153  151.8161 H   0  0  0  0  0  0  0  0  0  0  0  0
  143.6201  134.5594  153.1911 H   0  0  0  0  0  0  0  0  0  0  0  0
  145.1227  133.7253  153.5069 H   0  0  0  0  0  0  0  0  0  0  0  0
  142.8280  134.2514  150.4576 H   0  0  0  0  0  0  0  0  0  0  0  0
  1  2  1  0  0  0  0
  1 21  1  0  0  0  0
  1 22  1  0  0  0  0
  1 23  1  0  0  0  0
  2 20  1  0  0  0  0
  2  3  2  0  0  0  0
  3  4  1  0  0  0  0
  4  5  2  0  0  0  0
  5  6  1  0  0  0  0
  5 20  1  0  0  0  0
  6  7  1  0  0  0  0
  6 24  1  0  0  0  0
  7  8  2  0  0  0  0
  7  9  1  0  0  0  0
  9 10  1  0  0  0  0
  9 25  1  0  0  0  0
 10 11  1  0  0  0  0
 10 26  1  0  0  0  0
 10 27  1  0  0  0  0
 11 19  1  0  0  0  0
 11 12  1  0  0  0  0
 11 28  1  0  0  0  0
 12 13  1  0  0  0  0
 12 29  1  0  0  0  0
 12 30  1  0  0  0  0
 13 17  1  0  0  0  0
 13 14  1  0  0  0  0
 13 40  1  0  0  0  0
 14 15  1  0  0  0  0
 14 31  1  0  0  0  0
 14 32  1  0  0  0  0
 15 16  1  0  0  0  0
 15 33  1  0  0  0  0
 15 34  1  0  0  0  0
 16 17  1  0  0  0  0
 16 35  1  0  0  0  0
 16 36  1  0  0  0  0
 17 18  1  0  0  0  0
 17 37  1  0  0  0  0
 18 19  1  0  0  0  0
 18 38  1  0  0  0  0
 18 39  1  0  0  0  0
M  CHG  1  13   1
M  END
> <s_m_source_file>
AV-unprocessed.smi

> <i_m_source_file_index>
1809

> <i_lp_mmshare_version>
43012

> <i_f3d_flags>
0

> <s_epik_input>
W0NIM11jMW5uYyhzMSlbTkhdQyg9TylbTkhdW0NIMl1bQ0BIXShbQ0gyXTIpT1tDSDJdW0NAQEhdKE4yMylbQ0gyXVtDSDJdW0NIMl0z

> <s_epik_cmdline>
J2VwaWtfcHl0aG9uJywgJy1waCcsICc3LjAnLCAnLXRuJywgJzgnLCAnLW1hJywgJzIwMCcsICctbWV0YWxfYmluZGluZycsICctaW1hZScsICc8aW5maWxlLm1hZT4nLCAnLW9tYWUnLCAnPG91dGZpbGUubWFlPic=

> <r_lp_tautomer_probability>
1

> <r_epik_Ionization_Penalty>
0.112474

> <r_epik_Ionization_Penalty_Charging>
0.108916

> <r_epik_Ionization_Penalty_Neutral>
0.00355844

> <r_epik_State_Penalty>
0.0565397

> <r_epik_Charging_Adjusted_Penalty>
0.165456

> <i_epik_Tot_Q>
1

> <i_epik_Tot_abs_Q>
1

> <r_epik_Metal_State_Penalty>
0.422831

> <b_epik_Metal_Only>
0

> <s_lp_Force_Field>
OPLS_2005

> <r_lp_Energy>
33.5148

> <b_lp_Chiralities_Consistent>
1

> <s_lp_Variant>
AV-unprocessed.smi:1809-4

> <Gold.Version>
5.8.1

> <Gold.Id.Protein>
6NUR|6NUR_protein|mol2

> <Gold.PLP.Fitness>
40.1730

> <Gold.PLP.PLP>
-28.8489

> <Gold.PLP.part.hbond>
-5.3162

> <Gold.PLP.part.metal>
0.0000

> <Gold.PLP.part.buried>
7.0823

> <Gold.PLP.part.nonpolar>
-32.4290

> <Gold.PLP.part.repulsive>
2.7528

> <Gold.PLP.ligand.clash>
0.0000

> <Gold.PLP.ligand.torsion>
0.9657

> <Gold.PLP.Chemscore.Hbond>
4.4178

> <Gold.PLP.Chemscore.CHOScore>
0.0000

> <Gold.PLP.Chemscore.Metal>
0.0000

> <Gold.Chemscore.Hbonds>
donor molecule, donor type, donor heavy atom, donor atom, acceptor molecule, acceptor atom, score
      L1  H     6    24       P1  7948  0.91
      L1  H     9    25       P1  7948  0.82
      L1  H    13    40       P1 10186  1.84
      P1  H  7989  7998       L1     3  0.80

> <Gold.PLP.Chemscore.Internal.Correction>
0.0023

> <Gold.Rescore>
     Score         DG    S(hbond)    S(metal)    S(lipo)     H(rot)  DE(clash)    DE(int)     intcor
     15.00     -19.33       2.43        0.00      78.25       1.34       3.48       0.86       ----

> <Gold.Chemscore.Fitness>
14.9970

> <Gold.Chemscore.DG>
-19.3319

> <Gold.Chemscore.ZeroCoef>
-5.4800

> <Gold.Chemscore.Hbond>
2.4326

> <Gold.Chemscore.Metal>
0.0000

> <Gold.Chemscore.Lipo>
78.2479

> <Gold.Chemscore.Internal_Hbond>
0.0000

> <Gold.Chemscore.DEClash>
3.4752

> <Gold.Chemscore.DEInternal>
0.8596

> <Gold.Chemscore.Rot>
1.3391

> <Gold.Chemscore.Internal.Correction>
   9.000000E+99

> <Gold.Chemscore.Hbonds>
donor molecule, donor type, donor heavy atom, donor atom, acceptor molecule, acceptor atom, score
      L1  H     6    24       P1  7948  0.90
      L1  H     9    25       P1  7948  0.81
      L1  H    13    40       P1 10186  0.66
      P1  H  7989  7998       L1     3  0.04

> <Gold.Chemscore.Hbond.Weighted>
-8.1249

> <Gold.Chemscore.Metal.Weighted>
-0.0000

> <Gold.Chemscore.Lipo.Weighted>
-9.1550

> <Gold.Chemscore.Internal_Hbond.Weighted>
0.0000

> <Gold.Chemscore.DEClash.Weighted>
3.4752

> <Gold.Chemscore.DEInternal.Weighted>
0.8596

> <Gold.Chemscore.Rot.Weighted>
3.4281

> <Gold.Chemscore.Internal.Correction.Weighted>
   9.000000E+99

> <Gold.Protein.RotatedTorsions>
[ 6907 6896 6895 6894 ] final   15.90 input  -60.11 | X-H torsion
[ 7974 7965 7964 7962 ] final   44.17 input  175.53 | X-H torsion
[ 8008 7997 7996 7995 ] final  142.19 input   59.86 | X-H torsion
[ 10167 10162 10161 10158 ] final    8.44 input  -65.29 | X-H torsion
[ 10718 10713 10712 10709 ] final -176.26 input   66.30 | X-H torsion
[ 10763 10752 10751 10750 ] final   85.22 input  -60.55 | X-H torsion
[ 11005 11000 10999 10996 ] final -175.69 input  -57.11 | X-H torsion

> <Gold.Protein.ActiveResidues>
 VAL166  LYS551  ARG553  GLY616  TRP617  ASP618  TYR619  PRO620  LYS621  CYS622 
 ASP623  PHE694  ASN695  SER759  ASP760  ASP761  ALA762  ILE779  LEU786  VAL792 
 PHE793  MET794  SER795  GLU796  ALA797  LYS798  CYS799  TRP800  GLU811  SER814 

> <Gold.Protein.RotatedAtoms>
  151.8254  135.0638  160.0429 H   0  0  0  0  0  0  0  0  0  0  0  0  # atno 6907 bound_to 6896
  152.2920  133.5566  159.5572 H   0  0  0  0  0  0  0  0  0  0  0  0  # atno 6908 bound_to 6896
  150.7234  134.0331  159.3782 H   0  0  0  0  0  0  0  0  0  0  0  0  # atno 6909 bound_to 6896
  146.0592  139.5104  142.9669 H   0  0  0  0  0  0  0  0  0  0  0  0  # atno 7974 bound_to 7965
  156.2953  140.2295  156.4687 H   0  0  0  0  0  0  0  0  0  0  0  0  # atno 8008 bound_to 7997
  154.7955  140.0451  157.1254 H   0  0  0  0  0  0  0  0  0  0  0  0  # atno 8009 bound_to 7997
  154.9595  140.3052  155.5041 H   0  0  0  0  0  0  0  0  0  0  0  0  # atno 8010 bound_to 7997
  140.6314  143.7985  150.7300 H   0  0  0  0  0  0  0  0  0  0  0  0  # atno 10167 bound_to 10162
  156.8120  130.9589  151.3115 H   0  0  0  0  0  0  0  0  0  0  0  0  # atno 10718 bound_to 10713
  153.1454  135.4625  154.9559 H   0  0  0  0  0  0  0  0  0  0  0  0  # atno 10763 bound_to 10752
  154.7782  135.3180  154.8049 H   0  0  0  0  0  0  0  0  0  0  0  0  # atno 10764 bound_to 10752
  153.8564  135.6916  153.4841 H   0  0  0  0  0  0  0  0  0  0  0  0  # atno 10765 bound_to 10752
  140.4605  134.6259  157.4840 H   0  0  0  0  0  0  0  0  0  0  0  0  # atno 11005 bound_to 11000
  145.6590  141.0245  143.1719 LP  0  0  0  0  0  0  0  0  0  0  0  0  # atno 17320 bound_to 7965
  144.7165  139.8179  143.7397 LP  0  0  0  0  0  0  0  0  0  0  0  0  # atno 17321 bound_to 7965
  140.1597  143.4286  152.2075 LP  0  0  0  0  0  0  0  0  0  0  0  0  # atno 17342 bound_to 10162
  139.5528  144.7350  151.4384 LP  0  0  0  0  0  0  0  0  0  0  0  0  # atno 17343 bound_to 10162
  157.6501  130.8877  149.9615 LP  0  0  0  0  0  0  0  0  0  0  0  0  # atno 17370 bound_to 10713
  156.1039  130.3654  150.0169 LP  0  0  0  0  0  0  0  0  0  0  0  0  # atno 17371 bound_to 10713
  139.9948  134.6928  155.9627 LP  0  0  0  0  0  0  0  0  0  0  0  0  # atno 17394 bound_to 11000
  141.1623  133.6538  156.4362 LP  0  0  0  0  0  0  0  0  0  0  0  0  # atno 17395 bound_to 11000

$$$$
