AV-unprocessed.smi:2386|AV-procd|sdf|9468|dock2
  -GOLD-   2272013 93D 1   1.00000     0.00000
 Structure written by MMmdl.
 42 43  0  0  0  0  0  0  0  0  1 V2000
  153.4634  141.1956  160.3551 C   0  0  0  0  0  0  0  0  0  0  0  0
  152.7242  142.3659  159.7413 C   0  0  0  0  0  0  0  0  0  0  0  0
  152.8363  143.6595  160.2867 C   0  0  0  0  0  0  0  0  0  0  0  0
  152.1262  144.7035  159.6674 C   0  0  0  0  0  0  0  0  0  0  0  0
  151.3398  144.4132  158.5358 C   0  0  0  0  0  0  0  0  0  0  0  0
  151.2835  143.0875  158.0498 C   0  0  0  0  0  0  0  0  0  0  0  0
  150.4662  142.9001  156.9033 N   0  0  0  0  0  0  0  0  0  0  0  0
  150.3525  141.8027  156.1344 C   0  0  0  0  0  0  0  0  0  0  0  0
  150.9492  140.7407  156.3150 O   0  0  0  0  0  0  0  0  0  0  0  0
  149.4977  142.0057  155.1212 N   0  0  0  0  0  0  0  0  0  0  0  0
  149.1706  141.0226  154.0945 C   0  0  0  0  0  0  0  0  0  0  0  0
  147.6687  141.0270  153.7677 C   0  0  0  0  0  0  0  0  0  0  0  0
  146.8119  141.4304  154.9795 C   0  0  0  0  0  0  0  0  0  0  0  0
  145.6821  142.3073  154.6754 N   0  0  0  0  0  0  0  0  0  0  0  0
  145.0255  142.8174  155.8776 C   0  0  0  0  0  0  0  0  0  0  0  0
  143.8620  143.7662  155.5393 C   0  0  0  0  0  0  0  0  0  0  0  0
  144.3341  144.8342  154.7248 O   0  0  0  0  0  0  0  0  0  0  0  0
  144.9369  144.3777  153.5189 C   0  0  0  0  0  0  0  0  0  0  0  0
  146.1061  143.4357  153.8535 C   0  0  0  0  0  0  0  0  0  0  0  0
  151.9717  142.0875  158.6550 N   0  0  0  0  0  0  0  0  0  0  0  0
  153.8343  141.4423  161.3501 H   0  0  0  0  0  0  0  0  0  0  0  0
  154.3137  140.9188  159.7315 H   0  0  0  0  0  0  0  0  0  0  0  0
  152.8060  140.3300  160.4440 H   0  0  0  0  0  0  0  0  0  0  0  0
  153.4493  143.8496  161.1553 H   0  0  0  0  0  0  0  0  0  0  0  0
  152.1836  145.7107  160.0528 H   0  0  0  0  0  0  0  0  0  0  0  0
  150.7885  145.2040  158.0484 H   0  0  0  0  0  0  0  0  0  0  0  0
  149.9135  143.6987  156.6300 H   0  0  0  0  0  0  0  0  0  0  0  0
  149.0487  142.9068  155.0479 H   0  0  0  0  0  0  0  0  0  0  0  0
  149.7587  141.2100  153.1943 H   0  0  0  0  0  0  0  0  0  0  0  0
  149.4685  140.0398  154.4604 H   0  0  0  0  0  0  0  0  0  0  0  0
  147.4793  141.7154  152.9432 H   0  0  0  0  0  0  0  0  0  0  0  0
  147.3776  140.0361  153.4194 H   0  0  0  0  0  0  0  0  0  0  0  0
  146.4568  140.5334  155.4892 H   0  0  0  0  0  0  0  0  0  0  0  0
  147.4648  141.9392  155.6900 H   0  0  0  0  0  0  0  0  0  0  0  0
  144.6369  141.9940  156.4759 H   0  0  0  0  0  0  0  0  0  0  0  0
  145.7502  143.3435  156.5006 H   0  0  0  0  0  0  0  0  0  0  0  0
  143.0651  143.2301  155.0218 H   0  0  0  0  0  0  0  0  0  0  0  0
  143.4310  144.1777  156.4522 H   0  0  0  0  0  0  0  0  0  0  0  0
  144.1948  143.8690  152.9020 H   0  0  0  0  0  0  0  0  0  0  0  0
  145.2923  145.2371  152.9503 H   0  0  0  0  0  0  0  0  0  0  0  0
  146.8838  143.9987  154.3716 H   0  0  0  0  0  0  0  0  0  0  0  0
  146.5504  143.0718  152.9264 H   0  0  0  0  0  0  0  0  0  0  0  0
  1  2  1  0  0  0  0
  1 21  1  0  0  0  0
  1 22  1  0  0  0  0
  1 23  1  0  0  0  0
  2 20  1  0  0  0  0
  2  3  2  0  0  0  0
  3  4  1  0  0  0  0
  3 24  1  0  0  0  0
  4  5  2  0  0  0  0
  4 25  1  0  0  0  0
  5  6  1  0  0  0  0
  5 26  1  0  0  0  0
  6  7  1  0  0  0  0
  6 20  2  0  0  0  0
  7  8  1  0  0  0  0
  7 27  1  0  0  0  0
  8  9  2  0  0  0  0
  8 10  1  0  0  0  0
 10 11  1  0  0  0  0
 10 28  1  0  0  0  0
 11 12  1  0  0  0  0
 11 29  1  0  0  0  0
 11 30  1  0  0  0  0
 12 13  1  0  0  0  0
 12 31  1  0  0  0  0
 12 32  1  0  0  0  0
 13 14  1  0  0  0  0
 13 33  1  0  0  0  0
 13 34  1  0  0  0  0
 14 19  1  0  0  0  0
 14 15  1  0  0  0  0
 15 16  1  0  0  0  0
 15 35  1  0  0  0  0
 15 36  1  0  0  0  0
 16 17  1  0  0  0  0
 16 37  1  0  0  0  0
 16 38  1  0  0  0  0
 17 18  1  0  0  0  0
 18 19  1  0  0  0  0
 18 39  1  0  0  0  0
 18 40  1  0  0  0  0
 19 41  1  0  0  0  0
 19 42  1  0  0  0  0
M  END
> <s_m_source_file>
AV-unprocessed.smi

> <i_m_source_file_index>
2386

> <i_lp_mmshare_version>
43012

> <i_f3d_flags>
0

> <s_epik_input>
W0NIM11jMVtjSF1bY0hdW2NIXWMobjEpW05IXUMoPU8pW05IXVtDSDJdW0NIMl1bQ0gyXU4yW0NIMl1bQ0gyXU9bQ0gyXVtDSDJdMg==

> <s_epik_cmdline>
J2VwaWtfcHl0aG9uJywgJy1waCcsICc3LjAnLCAnLXRuJywgJzgnLCAnLW1hJywgJzIwMCcsICctbWV0YWxfYmluZGluZycsICctaW1hZScsICc8aW5maWxlLm1hZT4nLCAnLW9tYWUnLCAnPG91dGZpbGUubWFlPic=

> <r_epik_Ionization_Penalty>
0.594745

> <r_epik_Ionization_Penalty_Charging>
0

> <r_epik_Ionization_Penalty_Neutral>
0.594745

> <r_epik_State_Penalty>
0.608529

> <r_epik_Charging_Adjusted_Penalty>
0.608529

> <i_epik_Tot_Q>
0

> <i_epik_Tot_abs_Q>
0

> <r_epik_Metal_State_Penalty>
0.608525

> <b_epik_Metal_Only>
0

> <s_lp_Force_Field>
OPLS_2005

> <r_lp_Energy>
23.5162

> <b_lp_Chiralities_Consistent>
1

> <s_lp_Variant>
AV-unprocessed.smi:2386-2

> <Gold.Version>
5.8.1

> <Gold.Id.Protein>
6NUR|6NUR_protein|mol2

> <Gold.PLP.Fitness>
48.6069

> <Gold.PLP.PLP>
-43.9165

> <Gold.PLP.part.hbond>
-2.0000

> <Gold.PLP.part.metal>
0.0000

> <Gold.PLP.part.buried>
-3.9259

> <Gold.PLP.part.nonpolar>
-37.5713

> <Gold.PLP.part.repulsive>
0.5537

> <Gold.PLP.ligand.clash>
0.0000

> <Gold.PLP.ligand.torsion>
0.6651

> <Gold.PLP.Chemscore.Hbond>
2.0000

> <Gold.PLP.Chemscore.CHOScore>
0.0000

> <Gold.PLP.Chemscore.Metal>
0.0000

> <Gold.Chemscore.Hbonds>
donor molecule, donor type, donor heavy atom, donor atom, acceptor molecule, acceptor atom, score
      L1  H     7    27       P1  8028  1.00
      L1  H    10    28       P1  8028  1.00

> <Gold.PLP.Chemscore.Internal.Correction>
0.0206

> <Gold.Rescore>
     Score         DG    S(hbond)    S(metal)    S(lipo)     H(rot)  DE(clash)    DE(int)     intcor
     17.31     -19.35       1.94        0.00     100.07       1.69       0.04       2.01       ----

> <Gold.Chemscore.Fitness>
17.3096

> <Gold.Chemscore.DG>
-19.3521

> <Gold.Chemscore.ZeroCoef>
-5.4800

> <Gold.Chemscore.Hbond>
1.9427

> <Gold.Chemscore.Metal>
0.0000

> <Gold.Chemscore.Lipo>
100.0670

> <Gold.Chemscore.Internal_Hbond>
0.0000

> <Gold.Chemscore.DEClash>
0.0352

> <Gold.Chemscore.DEInternal>
2.0074

> <Gold.Chemscore.Rot>
1.6892

> <Gold.Chemscore.Internal.Correction>
   9.000000E+99

> <Gold.Chemscore.Hbonds>
donor molecule, donor type, donor heavy atom, donor atom, acceptor molecule, acceptor atom, score
      L1  H     7    27       P1  8028  1.00
      L1  H    10    28       P1  8028  0.94

> <Gold.Chemscore.Hbond.Weighted>
-6.4886

> <Gold.Chemscore.Metal.Weighted>
-0.0000

> <Gold.Chemscore.Lipo.Weighted>
-11.7078

> <Gold.Chemscore.Internal_Hbond.Weighted>
0.0000

> <Gold.Chemscore.DEClash.Weighted>
0.0352

> <Gold.Chemscore.DEInternal.Weighted>
2.0074

> <Gold.Chemscore.Rot.Weighted>
4.3243

> <Gold.Chemscore.Internal.Correction.Weighted>
   9.000000E+99

> <Gold.Protein.RotatedTorsions>
[ 6907 6896 6895 6894 ] final   74.97 input  -60.11 | X-H torsion
[ 7974 7965 7964 7962 ] final  -77.68 input  175.53 | X-H torsion
[ 8008 7997 7996 7995 ] final   -6.66 input   59.86 | X-H torsion
[ 10167 10162 10161 10158 ] final   62.31 input  -65.29 | X-H torsion
[ 10718 10713 10712 10709 ] final  -54.25 input   66.30 | X-H torsion
[ 10763 10752 10751 10750 ] final  114.48 input  -60.55 | X-H torsion
[ 11005 11000 10999 10996 ] final  -25.68 input  -57.11 | X-H torsion

> <Gold.Protein.ActiveResidues>
 VAL166  LYS551  ARG553  GLY616  TRP617  ASP618  TYR619  PRO620  LYS621  CYS622 
 ASP623  PHE694  ASN695  SER759  ASP760  ASP761  ALA762  ILE779  LEU786  VAL792 
 PHE793  MET794  SER795  GLU796  ALA797  LYS798  CYS799  TRP800  GLU811  SER814 

> <Gold.Protein.RotatedAtoms>
  152.5003  134.4191  159.9474 H   0  0  0  0  0  0  0  0  0  0  0  0  # atno 6907 bound_to 6896
  151.4163  133.3705  159.2758 H   0  0  0  0  0  0  0  0  0  0  0  0  # atno 6908 bound_to 6896
  150.9255  134.8694  159.7576 H   0  0  0  0  0  0  0  0  0  0  0  0  # atno 6909 bound_to 6896
  145.5964  140.9418  143.1264 H   0  0  0  0  0  0  0  0  0  0  0  0  # atno 7974 bound_to 7965
  154.5916  140.2427  155.7913 H   0  0  0  0  0  0  0  0  0  0  0  0  # atno 8008 bound_to 7997
  156.2251  140.2985  156.0000 H   0  0  0  0  0  0  0  0  0  0  0  0  # atno 8009 bound_to 7997
  155.2365  140.0405  157.2959 H   0  0  0  0  0  0  0  0  0  0  0  0  # atno 8010 bound_to 7997
  140.1453  144.4515  150.6789 H   0  0  0  0  0  0  0  0  0  0  0  0  # atno 10167 bound_to 10162
  156.1467  130.4152  150.0013 H   0  0  0  0  0  0  0  0  0  0  0  0  # atno 10718 bound_to 10713
  153.5079  135.3624  155.2572 H   0  0  0  0  0  0  0  0  0  0  0  0  # atno 10763 bound_to 10752
  154.8744  135.4015  154.3403 H   0  0  0  0  0  0  0  0  0  0  0  0  # atno 10764 bound_to 10752
  153.4051  135.7076  153.6465 H   0  0  0  0  0  0  0  0  0  0  0  0  # atno 10765 bound_to 10752
  140.8960  133.7556  156.0482 H   0  0  0  0  0  0  0  0  0  0  0  0  # atno 11005 bound_to 11000
  144.7329  139.7673  143.7340 LP  0  0  0  0  0  0  0  0  0  0  0  0  # atno 17320 bound_to 7965
  146.1608  139.4722  142.9989 LP  0  0  0  0  0  0  0  0  0  0  0  0  # atno 17321 bound_to 7965
  140.6736  143.2295  151.5564 LP  0  0  0  0  0  0  0  0  0  0  0  0  # atno 17342 bound_to 10162
  139.5452  144.2540  152.1428 LP  0  0  0  0  0  0  0  0  0  0  0  0  # atno 17343 bound_to 10162
  156.7883  130.9246  151.3646 LP  0  0  0  0  0  0  0  0  0  0  0  0  # atno 17370 bound_to 10713
  157.6622  130.8976  149.9854 LP  0  0  0  0  0  0  0  0  0  0  0  0  # atno 17371 bound_to 10713
  140.8288  134.3202  157.5356 LP  0  0  0  0  0  0  0  0  0  0  0  0  # atno 17394 bound_to 11000
  139.8735  134.9351  156.3626 LP  0  0  0  0  0  0  0  0  0  0  0  0  # atno 17395 bound_to 11000

$$$$
