AV-unprocessed.smi:2769|AV-procd|sdf|10656|dock1
  -GOLD-   2272015103D 1   1.00000     0.00000
 Structure written by MMmdl.
 20 21  0  0  0  0  0  0  0  0  2 V2000
  152.5919  138.0566  154.2684 C   0  0  0  0  0  0  0  0  0  0  0  0
  152.2356  139.1446  155.2228 C   0  0  0  0  0  0  0  0  0  0  0  0
  152.8948  139.3042  156.3637 N   0  0  0  0  0  0  0  0  0  0  0  0
  152.2540  140.4015  156.9563 O   0  0  0  0  0  0  0  0  0  0  0  0
  151.3091  140.8005  156.0714 C   0  0  0  0  0  0  0  0  0  0  0  0
  150.3796  141.9013  156.4592 C   0  0  0  0  0  0  0  0  0  0  0  0
  150.4568  142.6050  157.8081 C   0  0  0  0  0  0  0  0  0  0  0  0
  149.0283  142.8732  157.6448 N   0  3  0  0  0  0  0  0  0  0  0  0
  148.9163  141.6709  156.8200 C   0  0  0  0  0  0  0  0  0  0  0  0
  151.2253  140.0276  154.9916 N   0  0  0  0  0  0  0  0  0  0  0  0
  153.0473  137.2157  154.7927 H   0  0  0  0  0  0  0  0  0  0  0  0
  153.2989  138.4262  153.5255 H   0  0  0  0  0  0  0  0  0  0  0  0
  151.7024  137.6961  153.7511 H   0  0  0  0  0  0  0  0  0  0  0  0
  150.4316  142.6490  155.6626 H   0  0  0  0  0  0  0  0  0  0  0  0
  150.6677  141.9346  158.6442 H   0  0  0  0  0  0  0  0  0  0  0  0
  151.0806  143.4990  157.8273 H   0  0  0  0  0  0  0  0  0  0  0  0
  148.4996  142.8354  158.5048 H   0  0  0  0  0  0  0  0  0  0  0  0
  148.2158  141.7625  155.9895 H   0  0  0  0  0  0  0  0  0  0  0  0
  148.7404  140.7706  157.4127 H   0  0  0  0  0  0  0  0  0  0  0  0
  148.8662  143.7113  157.1048 H   0  0  0  0  0  0  0  0  0  0  0  0
  1  2  1  0  0  0  0
  1 11  1  0  0  0  0
  1 12  1  0  0  0  0
  1 13  1  0  0  0  0
  2 10  1  0  0  0  0
  2  3  2  0  0  0  0
  3  4  1  0  0  0  0
  4  5  1  0  0  0  0
  5  6  1  0  0  0  0
  5 10  2  0  0  0  0
  6  9  1  0  0  0  0
  6  7  1  0  0  0  0
  6 14  1  0  0  0  0
  7  8  1  0  0  0  0
  7 15  1  0  0  0  0
  7 16  1  0  0  0  0
  8  9  1  0  0  0  0
  8 17  1  0  0  0  0
  8 20  1  0  0  0  0
  9 18  1  0  0  0  0
  9 19  1  0  0  0  0
M  CHG  1   8   1
M  END
> <s_m_source_file>
AV-unprocessed.smi

> <i_m_source_file_index>
2769

> <i_lp_mmshare_version>
43012

> <i_f3d_flags>
0

> <s_epik_input>
W0NIM11jMW5vYyhuMSlbQ0hdMltDSDJdW05IXVtDSDJdMg==

> <s_epik_cmdline>
J2VwaWtfcHl0aG9uJywgJy1waCcsICc3LjAnLCAnLXRuJywgJzgnLCAnLW1hJywgJzIwMCcsICctbWV0YWxfYmluZGluZycsICctaW1hZScsICc8aW5maWxlLm1hZT4nLCAnLW9tYWUnLCAnPG91dGZpbGUubWFlPic=

> <r_lp_tautomer_probability>
1

> <r_epik_Ionization_Penalty>
0.0104968

> <r_epik_Ionization_Penalty_Charging>
0.0104968

> <r_epik_Ionization_Penalty_Neutral>
4.87029e-13

> <r_epik_State_Penalty>
0.00803009

> <r_epik_Charging_Adjusted_Penalty>
0.0185269

> <i_epik_Tot_Q>
1

> <i_epik_Tot_abs_Q>
1

> <r_epik_Metal_State_Penalty>
0.00803009

> <b_epik_Metal_Only>
0

> <s_lp_Force_Field>
OPLS_2005

> <r_lp_Energy>
11.9904

> <b_lp_Chiralities_Consistent>
1

> <s_lp_Variant>
AV-unprocessed.smi:2769-1

> <Gold.Version>
5.8.1

> <Gold.Id.Protein>
6NUR|6NUR_protein|mol2

> <Gold.PLP.Fitness>
28.6087

> <Gold.PLP.PLP>
-17.8269

> <Gold.PLP.part.hbond>
-4.1231

> <Gold.PLP.part.metal>
0.0000

> <Gold.PLP.part.buried>
-0.3231

> <Gold.PLP.part.nonpolar>
-13.1669

> <Gold.PLP.part.repulsive>
0.0994

> <Gold.PLP.ligand.clash>
0.0000

> <Gold.PLP.ligand.torsion>
0.1252

> <Gold.PLP.Chemscore.Hbond>
3.6000

> <Gold.PLP.Chemscore.CHOScore>
0.0000

> <Gold.PLP.Chemscore.Metal>
0.0000

> <Gold.Chemscore.Hbonds>
donor molecule, donor type, donor heavy atom, donor atom, acceptor molecule, acceptor atom, score
      L1  H     8    20       P1  8028  2.00
      P1  H  7989  7998       L1    10  1.00
      P1  H  7997  8009       L1     3  0.60

> <Gold.PLP.Chemscore.Internal.Correction>
0.2321

> <Gold.Rescore>
     Score         DG    S(hbond)    S(metal)    S(lipo)     H(rot)  DE(clash)    DE(int)     intcor
     10.62     -10.93       1.45        0.00      27.09       1.00       0.19       0.12       ----

> <Gold.Chemscore.Fitness>
10.6230

> <Gold.Chemscore.DG>
-10.9342

> <Gold.Chemscore.ZeroCoef>
-5.4800

> <Gold.Chemscore.Hbond>
1.4506

> <Gold.Chemscore.Metal>
0.0000

> <Gold.Chemscore.Lipo>
27.0882

> <Gold.Chemscore.Internal_Hbond>
0.0000

> <Gold.Chemscore.DEClash>
0.1913

> <Gold.Chemscore.DEInternal>
0.1198

> <Gold.Chemscore.Rot>
1.0000

> <Gold.Chemscore.Internal.Correction>
   9.000000E+99

> <Gold.Chemscore.Hbonds>
donor molecule, donor type, donor heavy atom, donor atom, acceptor molecule, acceptor atom, score
      L1  H     8    20       P1  8028  0.25
      P1  H  7989  7998       L1    10  0.47
      P1  H  7997  8009       L1     3  0.04

> <Gold.Chemscore.Hbond.Weighted>
-4.8449

> <Gold.Chemscore.Metal.Weighted>
-0.0000

> <Gold.Chemscore.Lipo.Weighted>
-3.1693

> <Gold.Chemscore.Internal_Hbond.Weighted>
0.0000

> <Gold.Chemscore.DEClash.Weighted>
0.1913

> <Gold.Chemscore.DEInternal.Weighted>
0.1198

> <Gold.Chemscore.Rot.Weighted>
2.5600

> <Gold.Chemscore.Internal.Correction.Weighted>
   9.000000E+99

> <Gold.Protein.RotatedTorsions>
[ 6907 6896 6895 6894 ] final -100.52 input  -60.11 | X-H torsion
[ 7974 7965 7964 7962 ] final   97.87 input  175.53 | X-H torsion
[ 8008 7997 7996 7995 ] final -158.43 input   59.86 | X-H torsion
[ 10167 10162 10161 10158 ] final -156.92 input  -65.29 | X-H torsion
[ 10718 10713 10712 10709 ] final -143.49 input   66.30 | X-H torsion
[ 10763 10752 10751 10750 ] final   62.90 input  -60.55 | X-H torsion
[ 11005 11000 10999 10996 ] final -177.07 input  -57.11 | X-H torsion

> <Gold.Protein.ActiveResidues>
 VAL166  LYS551  ARG553  GLY616  TRP617  ASP618  TYR619  PRO620  LYS621  CYS622 
 ASP623  PHE694  ASN695  SER759  ASP760  ASP761  ALA762  ILE779  LEU786  VAL792 
 PHE793  MET794  SER795  GLU796  ALA797  LYS798  CYS799  TRP800  GLU811  SER814 

> <Gold.Protein.RotatedAtoms>
  150.7119  134.0875  159.3919 H   0  0  0  0  0  0  0  0  0  0  0  0  # atno 6907 bound_to 6896
  151.8860  135.0433  160.0502 H   0  0  0  0  0  0  0  0  0  0  0  0  # atno 6908 bound_to 6896
  152.2530  133.5195  159.5373 H   0  0  0  0  0  0  0  0  0  0  0  0  # atno 6909 bound_to 6896
  145.4197  139.2323  143.3203 H   0  0  0  0  0  0  0  0  0  0  0  0  # atno 7974 bound_to 7965
  155.7475  140.0822  157.2217 H   0  0  0  0  0  0  0  0  0  0  0  0  # atno 8008 bound_to 7997
  154.4015  140.1566  156.2742 H   0  0  0  0  0  0  0  0  0  0  0  0  # atno 8009 bound_to 7997
  155.8962  140.3412  155.5995 H   0  0  0  0  0  0  0  0  0  0  0  0  # atno 8010 bound_to 7997
  139.6811  143.9579  152.2337 H   0  0  0  0  0  0  0  0  0  0  0  0  # atno 10167 bound_to 10162
  156.3586  130.7726  151.1890 H   0  0  0  0  0  0  0  0  0  0  0  0  # atno 10718 bound_to 10713
  152.9998  135.5448  154.6266 H   0  0  0  0  0  0  0  0  0  0  0  0  # atno 10763 bound_to 10752
  154.5553  135.2829  155.0972 H   0  0  0  0  0  0  0  0  0  0  0  0  # atno 10764 bound_to 10752
  154.2196  135.6453  153.5193 H   0  0  0  0  0  0  0  0  0  0  0  0  # atno 10765 bound_to 10752
  140.4450  134.6396  157.4775 H   0  0  0  0  0  0  0  0  0  0  0  0  # atno 11005 bound_to 11000
  146.2663  140.4919  142.8833 LP  0  0  0  0  0  0  0  0  0  0  0  0  # atno 17320 bound_to 7965
  144.8254  140.6619  143.6326 LP  0  0  0  0  0  0  0  0  0  0  0  0  # atno 17321 bound_to 7965
  139.9369  144.6706  150.8305 LP  0  0  0  0  0  0  0  0  0  0  0  0  # atno 17342 bound_to 10162
  140.7652  143.3270  151.2493 LP  0  0  0  0  0  0  0  0  0  0  0  0  # atno 17343 bound_to 10162
  157.7470  131.0407  150.4609 LP  0  0  0  0  0  0  0  0  0  0  0  0  # atno 17370 bound_to 10713
  156.4816  130.4075  149.6458 LP  0  0  0  0  0  0  0  0  0  0  0  0  # atno 17371 bound_to 10713
  140.0044  134.6786  155.9478 LP  0  0  0  0  0  0  0  0  0  0  0  0  # atno 17394 bound_to 11000
  141.1689  133.6537  156.4579 LP  0  0  0  0  0  0  0  0  0  0  0  0  # atno 17395 bound_to 11000

$$$$
