AV-unprocessed.smi:848|AV-procd|sdf|3940|dock5
  -GOLD-   22720 1403D 1   1.00000     0.00000
 Structure written by MMmdl.
 46 48  0  0  0  0  0  0  0  0  1 V2000
  153.4816  140.7766  160.1329 C   0  0  0  0  0  0  0  0  0  0  0  0
  152.7088  141.7786  159.3002 C   0  0  0  0  0  0  0  0  0  0  0  0
  152.6966  143.1418  159.6573 C   0  0  0  0  0  0  0  0  0  0  0  0
  151.9718  144.0681  158.8822 C   0  0  0  0  0  0  0  0  0  0  0  0
  151.9628  145.5350  159.2604 C   0  0  0  0  0  0  0  0  0  0  0  0
  151.2595  143.6260  157.7492 C   0  0  0  0  0  0  0  0  0  0  0  0
  151.2616  142.2660  157.3775 C   0  0  0  0  0  0  0  0  0  0  0  0
  150.5347  141.9246  156.2574 O   0  0  0  0  0  0  0  0  0  0  0  0
  150.6822  140.6122  155.7292 C   0  0  0  0  0  0  0  0  0  0  0  0
  149.4672  140.2534  154.8571 C   0  0  1  0  0  0  0  0  0  0  0  0
  149.5970  140.8822  153.5976 O   0  0  0  0  0  0  0  0  0  0  0  0
  149.2287  138.7361  154.7141 C   0  0  0  0  0  0  0  0  0  0  0  0
  149.5381  138.0072  155.9371 N   0  0  0  0  0  0  0  0  0  0  0  0
  150.7119  137.4318  156.3027 C   0  0  0  0  0  0  0  0  0  0  0  0
  151.9256  137.4907  155.4186 C   0  0  0  0  0  0  0  0  0  0  0  0
  151.7357  136.9130  154.1426 O   0  0  0  0  0  0  0  0  0  0  0  0
  150.7098  136.8279  157.4940 N   0  0  0  0  0  0  0  0  0  0  0  0
  149.4176  137.0265  157.9372 C   0  0  0  0  0  0  0  0  0  0  0  0
  148.7846  136.6239  159.1350 C   0  0  0  0  0  0  0  0  0  0  0  0
  147.4332  136.9502  159.3727 C   0  0  0  0  0  0  0  0  0  0  0  0
  146.6972  137.6821  158.4184 C   0  0  0  0  0  0  0  0  0  0  0  0
  147.3089  138.0925  157.2183 C   0  0  0  0  0  0  0  0  0  0  0  0
  148.6579  137.7637  156.9861 C   0  0  0  0  0  0  0  0  0  0  0  0
  151.9958  141.3431  158.1644 C   0  0  0  0  0  0  0  0  0  0  0  0
  154.0596  141.2696  160.9150 H   0  0  0  0  0  0  0  0  0  0  0  0
  154.1718  140.2131  159.5046 H   0  0  0  0  0  0  0  0  0  0  0  0
  152.7966  140.0734  160.6072 H   0  0  0  0  0  0  0  0  0  0  0  0
  153.2433  143.4785  160.5263 H   0  0  0  0  0  0  0  0  0  0  0  0
  151.0160  146.0016  158.9866 H   0  0  0  0  0  0  0  0  0  0  0  0
  152.7669  146.0597  158.7440 H   0  0  0  0  0  0  0  0  0  0  0  0
  152.1032  145.6624  160.3342 H   0  0  0  0  0  0  0  0  0  0  0  0
  150.7044  144.3371  157.1544 H   0  0  0  0  0  0  0  0  0  0  0  0
  151.5808  140.5811  155.1110 H   0  0  0  0  0  0  0  0  0  0  0  0
  150.8024  139.8761  156.5260 H   0  0  0  0  0  0  0  0  0  0  0  0
  148.5871  140.6987  155.3225 H   0  0  0  0  0  0  0  0  0  0  0  0
  149.3896  140.2525  152.9241 H   0  0  0  0  0  0  0  0  0  0  0  0
  148.2005  138.5281  154.4185 H   0  0  0  0  0  0  0  0  0  0  0  0
  149.8566  138.3378  153.9163 H   0  0  0  0  0  0  0  0  0  0  0  0
  152.2246  138.5287  155.2772 H   0  0  0  0  0  0  0  0  0  0  0  0
  152.7495  136.9781  155.9153 H   0  0  0  0  0  0  0  0  0  0  0  0
  151.0962  137.4258  153.6732 H   0  0  0  0  0  0  0  0  0  0  0  0
  149.3406  136.0635  159.8719 H   0  0  0  0  0  0  0  0  0  0  0  0
  146.9597  136.6375  160.2919 H   0  0  0  0  0  0  0  0  0  0  0  0
  145.6629  137.9286  158.6089 H   0  0  0  0  0  0  0  0  0  0  0  0
  146.7486  138.6534  156.4853 H   0  0  0  0  0  0  0  0  0  0  0  0
  152.0256  140.2928  157.9174 H   0  0  0  0  0  0  0  0  0  0  0  0
  1  2  1  0  0  0  0
  1 25  1  0  0  0  0
  1 26  1  0  0  0  0
  1 27  1  0  0  0  0
  2 24  1  0  0  0  0
  2  3  2  0  0  0  0
  3  4  1  0  0  0  0
  3 28  1  0  0  0  0
  4  5  1  0  0  0  0
  4  6  2  0  0  0  0
  5 29  1  0  0  0  0
  5 30  1  0  0  0  0
  5 31  1  0  0  0  0
  6  7  1  0  0  0  0
  6 32  1  0  0  0  0
  7  8  1  0  0  0  0
  7 24  2  0  0  0  0
  8  9  1  0  0  0  0
  9 10  1  0  0  0  0
  9 33  1  0  0  0  0
  9 34  1  0  0  0  0
 10 11  1  0  0  0  0
 10 12  1  0  0  0  0
 10 35  1  0  0  0  0
 11 36  1  0  0  0  0
 12 13  1  0  0  0  0
 12 37  1  0  0  0  0
 12 38  1  0  0  0  0
 13 23  1  0  0  0  0
 13 14  1  0  0  0  0
 14 15  1  0  0  0  0
 14 17  2  0  0  0  0
 15 16  1  0  0  0  0
 15 39  1  0  0  0  0
 15 40  1  0  0  0  0
 16 41  1  0  0  0  0
 17 18  1  0  0  0  0
 18 23  2  0  0  0  0
 18 19  1  0  0  0  0
 19 20  2  0  0  0  0
 19 42  1  0  0  0  0
 20 21  1  0  0  0  0
 20 43  1  0  0  0  0
 21 22  2  0  0  0  0
 21 44  1  0  0  0  0
 22 23  1  0  0  0  0
 22 45  1  0  0  0  0
 24 46  1  0  0  0  0
M  END
> <s_m_source_file>
AV-unprocessed.smi

> <i_m_source_file_index>
848

> <i_lp_mmshare_version>
43012

> <i_f3d_flags>
0

> <s_epik_input>
W0NIM11jMVtjSF1jKFtDSDNdKVtjSF1jKFtjSF0xKU9bQ0gyXVtDQEhdKFtPSF0pW0NIMl1uKGMobjIpW0NIMl1bT0hdKWMoYzIzKVtjSF1bY0hdW2NIXVtjSF0z

> <s_epik_cmdline>
J2VwaWtfcHl0aG9uJywgJy1waCcsICc3LjAnLCAnLXRuJywgJzgnLCAnLW1hJywgJzIwMCcsICctbWV0YWxfYmluZGluZycsICctaW1hZScsICc8aW5maWxlLm1hZT4nLCAnLW9tYWUnLCAnPG91dGZpbGUubWFlPic=

> <r_lp_tautomer_probability>
1

> <r_epik_Ionization_Penalty>
0.0554234

> <r_epik_Ionization_Penalty_Charging>
0

> <r_epik_Ionization_Penalty_Neutral>
0.0554234

> <r_epik_State_Penalty>
0.0476717

> <r_epik_Charging_Adjusted_Penalty>
0.0476717

> <i_epik_Tot_Q>
0

> <i_epik_Tot_abs_Q>
0

> <r_epik_Metal_State_Penalty>
4.96399e-05

> <b_epik_Metal_Only>
0

> <s_lp_Force_Field>
OPLS_2005

> <r_lp_Energy>
17.6838

> <b_lp_Chiralities_Consistent>
1

> <s_lp_Variant>
AV-unprocessed.smi:848-2

> <Gold.Version>
5.8.1

> <Gold.Id.Protein>
6NUR|6NUR_protein|mol2

> <Gold.PLP.Fitness>
51.2692

> <Gold.PLP.PLP>
-44.5813

> <Gold.PLP.part.hbond>
-5.0000

> <Gold.PLP.part.metal>
0.0000

> <Gold.PLP.part.buried>
-4.9880

> <Gold.PLP.part.nonpolar>
-35.6679

> <Gold.PLP.part.repulsive>
0.0944

> <Gold.PLP.ligand.clash>
0.0000

> <Gold.PLP.ligand.torsion>
0.9854

> <Gold.PLP.Chemscore.Hbond>
2.8508

> <Gold.PLP.Chemscore.CHOScore>
0.0000

> <Gold.PLP.Chemscore.Metal>
0.0000

> <Gold.Chemscore.Hbonds>
donor molecule, donor type, donor heavy atom, donor atom, acceptor molecule, acceptor atom, score
      L1  H    11    36       P1  7957  0.77
      P1  H  7989  7998       L1    11  0.33
      P1  H  8011  8017       L1    11  0.75
      P1  H 10752 10765       L1    16  1.00

> <Gold.PLP.Chemscore.Internal.Correction>
0.1062

> <Gold.Rescore>
     Score         DG    S(hbond)    S(metal)    S(lipo)     H(rot)  DE(clash)    DE(int)     intcor
     16.90     -17.88       1.81        0.00     118.89       2.96       0.10       0.89       ----

> <Gold.Chemscore.Fitness>
16.8953

> <Gold.Chemscore.DG>
-17.8788

> <Gold.Chemscore.ZeroCoef>
-5.4800

> <Gold.Chemscore.Hbond>
1.8133

> <Gold.Chemscore.Metal>
0.0000

> <Gold.Chemscore.Lipo>
118.8879

> <Gold.Chemscore.Internal_Hbond>
0.0000

> <Gold.Chemscore.DEClash>
0.0960

> <Gold.Chemscore.DEInternal>
0.8875

> <Gold.Chemscore.Rot>
2.9561

> <Gold.Chemscore.Internal.Correction>
   9.000000E+99

> <Gold.Chemscore.Hbonds>
donor molecule, donor type, donor heavy atom, donor atom, acceptor molecule, acceptor atom, score
      L1  H    11    36       P1  7957  0.78
      P1  H  7989  7998       L1    11  0.02
      P1  H  8011  8017       L1    11  0.09
      P1  H 10752 10765       L1    16  0.39

> <Gold.Chemscore.Hbond.Weighted>
-6.0566

> <Gold.Chemscore.Metal.Weighted>
-0.0000

> <Gold.Chemscore.Lipo.Weighted>
-13.9099

> <Gold.Chemscore.Internal_Hbond.Weighted>
0.0000

> <Gold.Chemscore.DEClash.Weighted>
0.0960

> <Gold.Chemscore.DEInternal.Weighted>
0.8875

> <Gold.Chemscore.Rot.Weighted>
7.5677

> <Gold.Chemscore.Internal.Correction.Weighted>
   9.000000E+99

> <Gold.Protein.RotatedTorsions>
[ 6907 6896 6895 6894 ] final   96.88 input  -60.11 | X-H torsion
[ 7974 7965 7964 7962 ] final  150.32 input  175.53 | X-H torsion
[ 8008 7997 7996 7995 ] final  -57.94 input   59.86 | X-H torsion
[ 10167 10162 10161 10158 ] final  102.94 input  -65.29 | X-H torsion
[ 10718 10713 10712 10709 ] final  -56.66 input   66.30 | X-H torsion
[ 10763 10752 10751 10750 ] final  148.35 input  -60.55 | X-H torsion
[ 11005 11000 10999 10996 ] final   62.50 input  -57.11 | X-H torsion

> <Gold.Protein.ActiveResidues>
 VAL166  LYS551  ARG553  GLY616  TRP617  ASP618  TYR619  PRO620  LYS621  CYS622 
 ASP623  PHE694  ASN695  SER759  ASP760  ASP761  ALA762  ILE779  LEU786  VAL792 
 PHE793  MET794  SER795  GLU796  ALA797  LYS798  CYS799  TRP800  GLU811  SER814 

> <Gold.Protein.RotatedAtoms>
  152.5430  134.0819  159.8238 H   0  0  0  0  0  0  0  0  0  0  0  0  # atno 6907 bound_to 6896
  151.0919  133.5302  159.2622 H   0  0  0  0  0  0  0  0  0  0  0  0  # atno 6908 bound_to 6896
  151.2089  135.0482  159.8957 H   0  0  0  0  0  0  0  0  0  0  0  0  # atno 6909 bound_to 6896
  144.8373  139.6393  143.6032 H   0  0  0  0  0  0  0  0  0  0  0  0  # atno 7974 bound_to 7965
  154.4288  140.1095  156.5878 H   0  0  0  0  0  0  0  0  0  0  0  0  # atno 8008 bound_to 7997
  155.6044  140.3493  155.4584 H   0  0  0  0  0  0  0  0  0  0  0  0  # atno 8009 bound_to 7997
  156.0148  140.1227  157.0407 H   0  0  0  0  0  0  0  0  0  0  0  0  # atno 8010 bound_to 7997
  139.7306  144.7037  151.0728 H   0  0  0  0  0  0  0  0  0  0  0  0  # atno 10167 bound_to 10162
  156.1271  130.4162  150.0335 H   0  0  0  0  0  0  0  0  0  0  0  0  # atno 10718 bound_to 10713
  154.0532  135.2880  155.3337 H   0  0  0  0  0  0  0  0  0  0  0  0  # atno 10763 bound_to 10752
  154.6855  135.5246  153.8324 H   0  0  0  0  0  0  0  0  0  0  0  0  # atno 10764 bound_to 10752
  153.0552  135.6592  154.0727 H   0  0  0  0  0  0  0  0  0  0  0  0  # atno 10765 bound_to 10752
  140.0088  134.6329  155.9813 H   0  0  0  0  0  0  0  0  0  0  0  0  # atno 11005 bound_to 11000
  146.2670  139.6544  142.9322 LP  0  0  0  0  0  0  0  0  0  0  0  0  # atno 17320 bound_to 7965
  145.4768  141.0437  143.2668 LP  0  0  0  0  0  0  0  0  0  0  0  0  # atno 17321 bound_to 7965
  140.7770  143.5048  150.9726 LP  0  0  0  0  0  0  0  0  0  0  0  0  # atno 17342 bound_to 10162
  139.8736  143.7161  152.3164 LP  0  0  0  0  0  0  0  0  0  0  0  0  # atno 17343 bound_to 10162
  156.8257  130.9374  151.3639 LP  0  0  0  0  0  0  0  0  0  0  0  0  # atno 17370 bound_to 10713
  157.6452  130.8838  149.9524 LP  0  0  0  0  0  0  0  0  0  0  0  0  # atno 17371 bound_to 10713
  141.1696  133.6537  156.4603 LP  0  0  0  0  0  0  0  0  0  0  0  0  # atno 17394 bound_to 11000
  140.4593  134.6856  157.5077 LP  0  0  0  0  0  0  0  0  0  0  0  0  # atno 17395 bound_to 11000

$$$$
