AV-unprocessed.smi:264|AV-procd|sdf|2009|dock4
  -GOLD-   2262021203D 1   1.00000     0.00000
 Structure written by MMmdl.
 52 56  0  0  0  0  0  0  0  0  1 V2000
  146.2291  129.9047  152.7772 C   0  0  0  0  0  0  0  0  0  0  0  0
  146.1466  131.4205  152.5326 C   0  0  2  0  0  0  0  0  0  0  0  0
  145.9140  131.6956  151.1514 O   0  0  0  0  0  0  0  0  0  0  0  0
  146.9364  132.5407  150.6426 C   0  0  0  0  0  0  0  0  0  0  0  0
  147.4291  133.3101  151.8608 C   0  0  0  0  0  0  0  0  0  0  0  0
  147.3742  132.2583  152.9596 C   0  0  2  0  0  0  0  0  0  0  0  0
  148.5628  131.4844  152.8970 O   0  0  0  0  0  0  0  0  0  0  0  0
  147.2388  132.8420  154.3866 C   0  0  0  0  0  0  0  0  0  0  0  0
  148.2090  133.8857  154.6795 N   0  0  0  0  0  0  0  0  0  0  0  0
  149.5794  133.7526  154.6855 C   0  0  0  0  0  0  0  0  0  0  0  0
  150.2431  134.8404  154.9656 N   0  0  0  0  0  0  0  0  0  0  0  0
  149.2556  135.7942  155.1828 C   0  0  0  0  0  0  0  0  0  0  0  0
  149.2714  137.1787  155.5115 C   0  0  0  0  0  0  0  0  0  0  0  0
  150.4228  137.8697  155.7021 N   0  0  0  0  0  0  0  0  0  0  0  0
  151.6253  137.2098  155.2108 C   0  0  0  0  0  0  0  0  0  0  0  0
  152.7824  138.2169  155.1466 C   0  0  0  0  0  0  0  0  0  0  0  0
  152.9648  138.8415  156.4170 O   0  0  0  0  0  0  0  0  0  0  0  0
  151.8084  139.5233  156.9130 C   0  0  1  0  0  0  0  0  0  0  0  0
  152.1467  140.0759  158.2936 C   0  0  0  0  0  0  0  0  0  0  0  0
  151.3734  141.3849  158.3424 C   0  0  0  0  0  0  0  0  0  0  0  0
  151.5569  141.8941  157.0347 O   0  0  0  0  0  0  0  0  0  0  0  0
  151.4780  140.8087  156.1176 C   0  0  0  0  0  0  0  0  0  0  0  0
  150.6221  138.5339  156.9865 C   0  0  0  0  0  0  0  0  0  0  0  0
  148.0713  137.8081  155.6273 N   0  0  0  0  0  0  0  0  0  0  0  0
  146.9338  137.1308  155.4465 C   0  0  0  0  0  0  0  0  0  0  0  0
  146.7697  135.8421  155.1419 N   0  0  0  0  0  0  0  0  0  0  0  0
  147.9696  135.2079  155.0114 C   0  0  0  0  0  0  0  0  0  0  0  0
  146.4240  129.6864  153.8274 H   0  0  0  0  0  0  0  0  0  0  0  0
  147.0186  129.4437  152.1830 H   0  0  0  0  0  0  0  0  0  0  0  0
  145.2915  129.4191  152.5063 H   0  0  0  0  0  0  0  0  0  0  0  0
  145.2669  131.7995  153.0547 H   0  0  0  0  0  0  0  0  0  0  0  0
  147.7350  131.9252  150.2261 H   0  0  0  0  0  0  0  0  0  0  0  0
  146.5617  133.1932  149.8539 H   0  0  0  0  0  0  0  0  0  0  0  0
  148.4165  133.7527  151.7212 H   0  0  0  0  0  0  0  0  0  0  0  0
  146.7274  134.1170  152.0753 H   0  0  0  0  0  0  0  0  0  0  0  0
  148.6323  131.1125  152.0311 H   0  0  0  0  0  0  0  0  0  0  0  0
  146.2390  133.2514  154.5378 H   0  0  0  0  0  0  0  0  0  0  0  0
  147.3582  132.0490  155.1261 H   0  0  0  0  0  0  0  0  0  0  0  0
  150.0748  132.8183  154.4630 H   0  0  0  0  0  0  0  0  0  0  0  0
  151.8797  136.3913  155.8856 H   0  0  0  0  0  0  0  0  0  0  0  0
  151.4687  136.7710  154.2260 H   0  0  0  0  0  0  0  0  0  0  0  0
  153.7056  137.7065  154.8720 H   0  0  0  0  0  0  0  0  0  0  0  0
  152.5965  138.9616  154.3725 H   0  0  0  0  0  0  0  0  0  0  0  0
  151.8945  139.4006  159.1118 H   0  0  0  0  0  0  0  0  0  0  0  0
  153.2141  140.2926  158.3613 H   0  0  0  0  0  0  0  0  0  0  0  0
  150.3122  141.2106  158.5273 H   0  0  0  0  0  0  0  0  0  0  0  0
  151.7506  142.0725  159.0994 H   0  0  0  0  0  0  0  0  0  0  0  0
  152.1761  140.9935  155.3015 H   0  0  0  0  0  0  0  0  0  0  0  0
  150.4748  140.7689  155.6915 H   0  0  0  0  0  0  0  0  0  0  0  0
  149.7137  139.0582  157.2873 H   0  0  0  0  0  0  0  0  0  0  0  0
  150.8202  137.7737  157.7438 H   0  0  0  0  0  0  0  0  0  0  0  0
  146.0253  137.7035  155.5612 H   0  0  0  0  0  0  0  0  0  0  0  0
  1  2  1  0  0  0  0
  1 28  1  0  0  0  0
  1 29  1  0  0  0  0
  1 30  1  0  0  0  0
  2  6  1  0  0  0  0
  2  3  1  0  0  0  0
  2 31  1  0  0  0  0
  3  4  1  0  0  0  0
  4  5  1  0  0  0  0
  4 32  1  0  0  0  0
  4 33  1  0  0  0  0
  5  6  1  0  0  0  0
  5 34  1  0  0  0  0
  5 35  1  0  0  0  0
  6  7  1  0  0  0  0
  6  8  1  0  0  0  0
  7 36  1  0  0  0  0
  8  9  1  0  0  0  0
  8 37  1  0  0  0  0
  8 38  1  0  0  0  0
  9 27  1  0  0  0  0
  9 10  1  0  0  0  0
 10 11  2  0  0  0  0
 10 39  1  0  0  0  0
 11 12  1  0  0  0  0
 12 27  2  0  0  0  0
 12 13  1  0  0  0  0
 13 14  1  0  0  0  0
 13 24  2  0  0  0  0
 14 23  1  0  0  0  0
 14 15  1  0  0  0  0
 15 16  1  0  0  0  0
 15 40  1  0  0  0  0
 15 41  1  0  0  0  0
 16 17  1  0  0  0  0
 16 42  1  0  0  0  0
 16 43  1  0  0  0  0
 17 18  1  0  0  0  0
 18 22  1  0  0  0  0
 18 19  1  0  0  0  0
 18 23  1  0  0  0  0
 19 20  1  0  0  0  0
 19 44  1  0  0  0  0
 19 45  1  0  0  0  0
 20 21  1  0  0  0  0
 20 46  1  0  0  0  0
 20 47  1  0  0  0  0
 21 22  1  0  0  0  0
 22 48  1  0  0  0  0
 22 49  1  0  0  0  0
 23 50  1  0  0  0  0
 23 51  1  0  0  0  0
 24 25  1  0  0  0  0
 25 26  2  0  0  0  0
 25 52  1  0  0  0  0
 26 27  1  0  0  0  0
M  END
> <s_m_source_file>
AV-unprocessed.smi

> <i_m_source_file_index>
264

> <i_lp_mmshare_version>
43012

> <i_f3d_flags>
0

> <s_epik_input>
W0NIMl0xW0NIMl1PW0NAQEhdKFtDSDNdKVtDQEBdMShbT0hdKVtDSDJdbihbY0hdbjIpYyhjMjMpbltjSF1uYzNOKFtDSDJdNClbQ0gyXVtDSDJdT1tDQF00NVtDSDJdW0NIMl1PW0NIMl01

> <s_epik_cmdline>
J2VwaWtfcHl0aG9uJywgJy1waCcsICc3LjAnLCAnLXRuJywgJzgnLCAnLW1hJywgJzIwMCcsICctbWV0YWxfYmluZGluZycsICctaW1hZScsICc8aW5maWxlLm1hZT4nLCAnLW9tYWUnLCAnPG91dGZpbGUubWFlPic=

> <r_lp_tautomer_probability>
1

> <r_epik_Ionization_Penalty>
0.00539389

> <r_epik_Ionization_Penalty_Charging>
0

> <r_epik_Ionization_Penalty_Neutral>
0.00539389

> <r_epik_State_Penalty>
0.00375441

> <r_epik_Charging_Adjusted_Penalty>
0.00375441

> <i_epik_Tot_Q>
0

> <i_epik_Tot_abs_Q>
0

> <r_epik_Metal_State_Penalty>
-0

> <b_epik_Metal_Only>
0

> <s_lp_Force_Field>
OPLS_2005

> <r_lp_Energy>
53.6529

> <b_lp_Chiralities_Consistent>
1

> <s_lp_Variant>
AV-unprocessed.smi:264-3

> <Gold.Version>
5.8.1

> <Gold.Id.Protein>
6NUR|6NUR_protein|mol2

> <Gold.PLP.Fitness>
40.6448

> <Gold.PLP.PLP>
-34.9601

> <Gold.PLP.part.hbond>
-1.9601

> <Gold.PLP.part.metal>
0.0000

> <Gold.PLP.part.buried>
-6.0514

> <Gold.PLP.part.nonpolar>
-28.3241

> <Gold.PLP.part.repulsive>
0.4666

> <Gold.PLP.ligand.clash>
0.0000

> <Gold.PLP.ligand.torsion>
0.3080

> <Gold.PLP.Chemscore.Hbond>
2.0000

> <Gold.PLP.Chemscore.CHOScore>
0.0000

> <Gold.PLP.Chemscore.Metal>
0.0000

> <Gold.Chemscore.Hbonds>
donor molecule, donor type, donor heavy atom, donor atom, acceptor molecule, acceptor atom, score
      L1  H     7    36       P1 10747  1.00
      P1  H  7997  8010       L1    17  1.00

> <Gold.PLP.Chemscore.Internal.Correction>
0.3006

> <Gold.Rescore>
     Score         DG    S(hbond)    S(metal)    S(lipo)     H(rot)  DE(clash)    DE(int)     intcor
     14.03     -16.03       1.94        0.00      80.86       2.11       0.04       1.95       ----

> <Gold.Chemscore.Fitness>
14.0337

> <Gold.Chemscore.DG>
-16.0282

> <Gold.Chemscore.ZeroCoef>
-5.4800

> <Gold.Chemscore.Hbond>
1.9399

> <Gold.Chemscore.Metal>
0.0000

> <Gold.Chemscore.Lipo>
80.8647

> <Gold.Chemscore.Internal_Hbond>
0.0000

> <Gold.Chemscore.DEClash>
0.0402

> <Gold.Chemscore.DEInternal>
1.9542

> <Gold.Chemscore.Rot>
2.1063

> <Gold.Chemscore.Internal.Correction>
   9.000000E+99

> <Gold.Chemscore.Hbonds>
donor molecule, donor type, donor heavy atom, donor atom, acceptor molecule, acceptor atom, score
      L1  H     7    36       P1 10747  0.94
      P1  H  7997  8010       L1    17  0.38

> <Gold.Chemscore.Hbond.Weighted>
-6.4792

> <Gold.Chemscore.Metal.Weighted>
-0.0000

> <Gold.Chemscore.Lipo.Weighted>
-9.4612

> <Gold.Chemscore.Internal_Hbond.Weighted>
0.0000

> <Gold.Chemscore.DEClash.Weighted>
0.0402

> <Gold.Chemscore.DEInternal.Weighted>
1.9542

> <Gold.Chemscore.Rot.Weighted>
5.3921

> <Gold.Chemscore.Internal.Correction.Weighted>
   9.000000E+99

> <Gold.Protein.RotatedTorsions>
[ 6907 6896 6895 6894 ] final  104.07 input  -60.11 | X-H torsion
[ 7974 7965 7964 7962 ] final  102.25 input  175.53 | X-H torsion
[ 8008 7997 7996 7995 ] final   84.59 input   59.86 | X-H torsion
[ 10167 10162 10161 10158 ] final   83.34 input  -65.29 | X-H torsion
[ 10718 10713 10712 10709 ] final  -58.93 input   66.30 | X-H torsion
[ 10763 10752 10751 10750 ] final  140.96 input  -60.55 | X-H torsion
[ 11005 11000 10999 10996 ] final  140.06 input  -57.11 | X-H torsion

> <Gold.Protein.ActiveResidues>
 VAL166  LYS551  ARG553  GLY616  TRP617  ASP618  TYR619  PRO620  LYS621  CYS622 
 ASP623  PHE694  ASN695  SER759  ASP760  ASP761  ALA762  ILE779  LEU786  VAL792 
 PHE793  MET794  SER795  GLU796  ALA797  LYS798  CYS799  TRP800  GLU811  SER814 

> <Gold.Protein.RotatedAtoms>
  152.5276  133.9732  159.7771 H   0  0  0  0  0  0  0  0  0  0  0  0  # atno 6907 bound_to 6896
  151.0000  133.6058  159.2703 H   0  0  0  0  0  0  0  0  0  0  0  0  # atno 6908 bound_to 6896
  151.3170  135.0815  159.9345 H   0  0  0  0  0  0  0  0  0  0  0  0  # atno 6909 bound_to 6896
  145.3616  139.2417  143.3503 H   0  0  0  0  0  0  0  0  0  0  0  0  # atno 7974 bound_to 7965
  155.9391  140.3409  155.6312 H   0  0  0  0  0  0  0  0  0  0  0  0  # atno 8008 bound_to 7997
  155.7062  140.0766  157.2408 H   0  0  0  0  0  0  0  0  0  0  0  0  # atno 8009 bound_to 7997
  154.4099  140.1631  156.2233 H   0  0  0  0  0  0  0  0  0  0  0  0  # atno 8010 bound_to 7997
  139.9194  144.6222  150.8456 H   0  0  0  0  0  0  0  0  0  0  0  0  # atno 10167 bound_to 10162
  156.1098  130.4176  150.0646 H   0  0  0  0  0  0  0  0  0  0  0  0  # atno 10718 bound_to 10713
  153.9314  135.2990  155.3445 H   0  0  0  0  0  0  0  0  0  0  0  0  # atno 10763 bound_to 10752
  154.7525  135.4973  153.9318 H   0  0  0  0  0  0  0  0  0  0  0  0  # atno 10764 bound_to 10752
  153.1090  135.6754  153.9640 H   0  0  0  0  0  0  0  0  0  0  0  0  # atno 10765 bound_to 10752
  140.0300  134.9356  157.0643 H   0  0  0  0  0  0  0  0  0  0  0  0  # atno 11005 bound_to 11000
  146.2925  140.4251  142.8734 LP  0  0  0  0  0  0  0  0  0  0  0  0  # atno 17320 bound_to 7965
  144.8642  140.7183  143.6088 LP  0  0  0  0  0  0  0  0  0  0  0  0  # atno 17321 bound_to 7965
  140.7666  143.3308  151.2415 LP  0  0  0  0  0  0  0  0  0  0  0  0  # atno 17342 bound_to 10162
  139.6874  143.9749  152.2841 LP  0  0  0  0  0  0  0  0  0  0  0  0  # atno 17343 bound_to 10162
  156.8612  130.9492  151.3618 LP  0  0  0  0  0  0  0  0  0  0  0  0  # atno 17370 bound_to 10713
  157.6278  130.8706  149.9221 LP  0  0  0  0  0  0  0  0  0  0  0  0  # atno 17371 bound_to 10713
  140.4242  134.1848  155.7165 LP  0  0  0  0  0  0  0  0  0  0  0  0  # atno 17394 bound_to 11000
  141.1825  133.8383  157.1206 LP  0  0  0  0  0  0  0  0  0  0  0  0  # atno 17395 bound_to 11000

$$$$
