AV-unprocessed.smi:2143|AV-procd|sdf|8723|dock4
  -GOLD-   2272011493D 1   1.00000     0.00000
 Structure written by MMmdl.
 44 45  0  0  0  0  0  0  0  0  1 V2000
  152.1921  145.2736  158.9229 C   0  0  0  0  0  0  0  0  0  0  0  0
  152.3651  143.7646  158.6821 C   0  0  1  0  0  0  0  0  0  0  0  0
  152.6613  143.0075  159.9926 C   0  0  0  0  0  0  0  0  0  0  0  0
  152.9353  141.5181  159.7317 C   0  0  0  0  0  0  0  0  0  0  0  0
  151.7865  140.8618  158.9515 C   0  0  0  0  0  0  0  0  0  0  0  0
  151.4965  141.6195  157.6417 C   0  0  1  0  0  0  0  0  0  0  0  0
  150.4219  140.9507  156.9120 N   0  0  0  0  0  0  0  0  0  0  0  0
  150.5464  140.3573  155.7154 C   0  0  0  0  0  0  0  0  0  0  0  0
  151.6139  140.2799  155.1060 O   0  0  0  0  0  0  0  0  0  0  0  0
  149.2661  139.7476  155.1301 C   0  0  0  0  0  0  0  0  0  0  0  0
  148.1955  140.7369  154.9509 N   0  0  0  0  0  0  0  0  0  0  0  0
  147.8061  141.1024  153.6749 C   0  0  0  0  0  0  0  0  0  0  0  0
  146.8326  142.0044  153.4230 C   0  0  0  0  0  0  0  0  0  0  0  0
  146.1239  142.6631  154.5132 C   0  0  0  0  0  0  0  0  0  0  0  0
  145.2153  143.4754  154.3341 O   0  0  0  0  0  0  0  0  0  0  0  0
  146.5531  142.2861  155.8072 N   0  0  0  0  0  0  0  0  0  0  0  0
  145.8771  142.8956  156.9340 C   0  0  0  0  0  0  0  0  0  0  0  0
  147.5594  141.3268  156.0653 C   0  0  0  0  0  0  0  0  0  0  0  0
  147.8792  141.0003  157.2112 O   0  0  0  0  0  0  0  0  0  0  0  0
  151.1872  143.1204  157.9031 C   0  0  1  0  0  0  0  0  0  0  0  0
  149.8082  143.3531  158.5640 C   0  0  0  0  0  0  0  0  0  0  0  0
  151.3937  145.4819  159.6352 H   0  0  0  0  0  0  0  0  0  0  0  0
  151.9616  145.7970  157.9946 H   0  0  0  0  0  0  0  0  0  0  0  0
  153.1067  145.7087  159.3263 H   0  0  0  0  0  0  0  0  0  0  0  0
  153.2493  143.6617  158.0509 H   0  0  0  0  0  0  0  0  0  0  0  0
  153.5253  143.4504  160.4894 H   0  0  0  0  0  0  0  0  0  0  0  0
  151.8263  143.1129  160.6859 H   0  0  0  0  0  0  0  0  0  0  0  0
  153.8627  141.4132  159.1675 H   0  0  0  0  0  0  0  0  0  0  0  0
  153.0892  140.9968  160.6769 H   0  0  0  0  0  0  0  0  0  0  0  0
  152.0451  139.8251  158.7322 H   0  0  0  0  0  0  0  0  0  0  0  0
  150.8925  140.8275  159.5753 H   0  0  0  0  0  0  0  0  0  0  0  0
  152.3997  141.5598  157.0311 H   0  0  0  0  0  0  0  0  0  0  0  0
  149.5079  140.9602  157.3413 H   0  0  0  0  0  0  0  0  0  0  0  0
  149.5156  139.2872  154.1733 H   0  0  0  0  0  0  0  0  0  0  0  0
  148.9162  138.9329  155.7669 H   0  0  0  0  0  0  0  0  0  0  0  0
  148.3041  140.6442  152.8328 H   0  0  0  0  0  0  0  0  0  0  0  0
  146.5739  142.2415  152.4015 H   0  0  0  0  0  0  0  0  0  0  0  0
  146.5120  142.8619  157.8196 H   0  0  0  0  0  0  0  0  0  0  0  0
  144.9523  142.3379  157.0875 H   0  0  0  0  0  0  0  0  0  0  0  0
  145.6789  143.9432  156.7010 H   0  0  0  0  0  0  0  0  0  0  0  0
  151.1440  143.6141  156.9311 H   0  0  0  0  0  0  0  0  0  0  0  0
  149.7522  142.9181  159.5612 H   0  0  0  0  0  0  0  0  0  0  0  0
  149.0012  142.9213  157.9720 H   0  0  0  0  0  0  0  0  0  0  0  0
  149.5831  144.4152  158.6548 H   0  0  0  0  0  0  0  0  0  0  0  0
  1  2  1  0  0  0  0
  1 22  1  0  0  0  0
  1 23  1  0  0  0  0
  1 24  1  0  0  0  0
  2 20  1  0  0  0  0
  2  3  1  0  0  0  0
  2 25  1  0  0  0  0
  3  4  1  0  0  0  0
  3 26  1  0  0  0  0
  3 27  1  0  0  0  0
  4  5  1  0  0  0  0
  4 28  1  0  0  0  0
  4 29  1  0  0  0  0
  5  6  1  0  0  0  0
  5 30  1  0  0  0  0
  5 31  1  0  0  0  0
  6  7  1  0  0  0  0
  6 20  1  0  0  0  0
  6 32  1  0  0  0  0
  7  8  1  0  0  0  0
  7 33  1  0  0  0  0
  8  9  2  0  0  0  0
  8 10  1  0  0  0  0
 10 11  1  0  0  0  0
 10 34  1  0  0  0  0
 10 35  1  0  0  0  0
 11 18  1  0  0  0  0
 11 12  1  0  0  0  0
 12 13  2  0  0  0  0
 12 36  1  0  0  0  0
 13 14  1  0  0  0  0
 13 37  1  0  0  0  0
 14 15  2  0  0  0  0
 14 16  1  0  0  0  0
 16 17  1  0  0  0  0
 16 18  1  0  0  0  0
 17 38  1  0  0  0  0
 17 39  1  0  0  0  0
 17 40  1  0  0  0  0
 18 19  2  0  0  0  0
 20 21  1  0  0  0  0
 20 41  1  0  0  0  0
 21 42  1  0  0  0  0
 21 43  1  0  0  0  0
 21 44  1  0  0  0  0
M  END
> <s_m_source_file>
AV-unprocessed.smi

> <i_m_source_file_index>
2143

> <i_lp_mmshare_version>
43012

> <i_f3d_flags>
0

> <s_epik_input>
W0NIM11bQ0BASF0xW0NIMl1bQ0gyXVtDSDJdW0NASF0oW0NASF0xW0NIM10pW05IXUMoPU8pW0NIMl1uMltjSF1bY0hdYyg9TyluKFtDSDNdKWMyPU8=

> <s_epik_cmdline>
J2VwaWtfcHl0aG9uJywgJy1waCcsICc3LjAnLCAnLXRuJywgJzgnLCAnLW1hJywgJzIwMCcsICctbWV0YWxfYmluZGluZycsICctaW1hZScsICc8aW5maWxlLm1hZT4nLCAnLW9tYWUnLCAnPG91dGZpbGUubWFlPic=

> <r_lp_tautomer_probability>
1

> <r_epik_Ionization_Penalty>
3.18445e-08

> <r_epik_Ionization_Penalty_Charging>
1.27977e-08

> <r_epik_Ionization_Penalty_Neutral>
1.90469e-08

> <r_epik_State_Penalty>
-0

> <r_epik_Charging_Adjusted_Penalty>
1.27977e-08

> <i_epik_Tot_Q>
0

> <i_epik_Tot_abs_Q>
0

> <r_epik_Metal_State_Penalty>
-0

> <b_epik_Metal_Only>
0

> <s_lp_Force_Field>
OPLS_2005

> <r_lp_Energy>
21.6223

> <b_lp_Chiralities_Consistent>
1

> <s_lp_Variant>
AV-unprocessed.smi:2143-2

> <Gold.Version>
5.8.1

> <Gold.Id.Protein>
6NUR|6NUR_protein|mol2

> <Gold.PLP.Fitness>
48.1411

> <Gold.PLP.PLP>
-42.4629

> <Gold.PLP.part.hbond>
-1.0000

> <Gold.PLP.part.metal>
0.0000

> <Gold.PLP.part.buried>
-7.5210

> <Gold.PLP.part.nonpolar>
-35.0667

> <Gold.PLP.part.repulsive>
0.3262

> <Gold.PLP.ligand.clash>
0.0000

> <Gold.PLP.ligand.torsion>
0.0859

> <Gold.PLP.Chemscore.Hbond>
0.9440

> <Gold.PLP.Chemscore.CHOScore>
1.0000

> <Gold.PLP.Chemscore.Metal>
0.0000

> <Gold.Chemscore.Hbonds>
donor molecule, donor type, donor heavy atom, donor atom, acceptor molecule, acceptor atom, score
      P1  H  7989  7998       L1     9  0.93
      L1  C    12    36       P1  7957  1.00

> <Gold.PLP.Chemscore.Internal.Correction>
0.0181

> <Gold.Rescore>
     Score         DG    S(hbond)    S(metal)    S(lipo)     H(rot)  DE(clash)    DE(int)     intcor
     16.29     -16.71       0.97        0.00     101.40       1.51       0.04       0.38       ----

> <Gold.Chemscore.Fitness>
16.2878

> <Gold.Chemscore.DG>
-16.7085

> <Gold.Chemscore.ZeroCoef>
-5.4800

> <Gold.Chemscore.Hbond>
0.9694

> <Gold.Chemscore.Metal>
0.0000

> <Gold.Chemscore.Lipo>
101.4036

> <Gold.Chemscore.Internal_Hbond>
0.0000

> <Gold.Chemscore.DEClash>
0.0392

> <Gold.Chemscore.DEInternal>
0.3815

> <Gold.Chemscore.Rot>
1.5131

> <Gold.Chemscore.Internal.Correction>
   9.000000E+99

> <Gold.Chemscore.Hbonds>
donor molecule, donor type, donor heavy atom, donor atom, acceptor molecule, acceptor atom, score
      P1  H  7989  7998       L1     9  0.87

> <Gold.Chemscore.Hbond.Weighted>
-3.2377

> <Gold.Chemscore.Metal.Weighted>
-0.0000

> <Gold.Chemscore.Lipo.Weighted>
-11.8642

> <Gold.Chemscore.Internal_Hbond.Weighted>
0.0000

> <Gold.Chemscore.DEClash.Weighted>
0.0392

> <Gold.Chemscore.DEInternal.Weighted>
0.3815

> <Gold.Chemscore.Rot.Weighted>
3.8734

> <Gold.Chemscore.Internal.Correction.Weighted>
   9.000000E+99

> <Gold.Protein.RotatedTorsions>
[ 6907 6896 6895 6894 ] final  -10.93 input  -60.11 | X-H torsion
[ 7974 7965 7964 7962 ] final -100.88 input  175.53 | X-H torsion
[ 8008 7997 7996 7995 ] final -165.97 input   59.86 | X-H torsion
[ 10167 10162 10161 10158 ] final  118.02 input  -65.29 | X-H torsion
[ 10718 10713 10712 10709 ] final  109.62 input   66.30 | X-H torsion
[ 10763 10752 10751 10750 ] final -155.77 input  -60.55 | X-H torsion
[ 11005 11000 10999 10996 ] final   61.28 input  -57.11 | X-H torsion

> <Gold.Protein.ActiveResidues>
 VAL166  LYS551  ARG553  GLY616  TRP617  ASP618  TYR619  PRO620  LYS621  CYS622 
 ASP623  PHE694  ASN695  SER759  ASP760  ASP761  ALA762  ILE779  LEU786  VAL792 
 PHE793  MET794  SER795  GLU796  ALA797  LYS798  CYS799  TRP800  GLU811  SER814 

> <Gold.Protein.RotatedAtoms>
  151.3942  135.0961  159.9535 H   0  0  0  0  0  0  0  0  0  0  0  0  # atno 6907 bound_to 6896
  152.5070  133.8950  159.7423 H   0  0  0  0  0  0  0  0  0  0  0  0  # atno 6908 bound_to 6896
  150.9410  133.6600  159.2819 H   0  0  0  0  0  0  0  0  0  0  0  0  # atno 6909 bound_to 6896
  145.2888  140.9347  143.2890 H   0  0  0  0  0  0  0  0  0  0  0  0  # atno 7974 bound_to 7965
  155.8573  140.0972  157.1636 H   0  0  0  0  0  0  0  0  0  0  0  0  # atno 8008 bound_to 7997
  154.3988  140.1371  156.3980 H   0  0  0  0  0  0  0  0  0  0  0  0  # atno 8009 bound_to 7997
  155.7895  140.3456  155.5344 H   0  0  0  0  0  0  0  0  0  0  0  0  # atno 8010 bound_to 7997
  139.6139  144.7088  151.2782 H   0  0  0  0  0  0  0  0  0  0  0  0  # atno 10167 bound_to 10162
  157.6533  131.0917  150.6480 H   0  0  0  0  0  0  0  0  0  0  0  0  # atno 10718 bound_to 10713
  154.7762  135.3160  154.8086 H   0  0  0  0  0  0  0  0  0  0  0  0  # atno 10763 bound_to 10752
  153.8809  135.6835  153.4771 H   0  0  0  0  0  0  0  0  0  0  0  0  # atno 10764 bound_to 10752
  153.1387  135.4748  154.9398 H   0  0  0  0  0  0  0  0  0  0  0  0  # atno 10765 bound_to 10752
  140.0172  134.6207  155.9692 H   0  0  0  0  0  0  0  0  0  0  0  0  # atno 11005 bound_to 11000
  144.9190  139.4434  143.6550 LP  0  0  0  0  0  0  0  0  0  0  0  0  # atno 17320 bound_to 7965
  146.3192  139.8040  142.8959 LP  0  0  0  0  0  0  0  0  0  0  0  0  # atno 17321 bound_to 7965
  140.7338  143.6784  150.8022 LP  0  0  0  0  0  0  0  0  0  0  0  0  # atno 17342 bound_to 10162
  140.0384  143.5371  152.2729 LP  0  0  0  0  0  0  0  0  0  0  0  0  # atno 17343 bound_to 10162
  156.6789  130.4561  149.5634 LP  0  0  0  0  0  0  0  0  0  0  0  0  # atno 17370 bound_to 10713
  156.1943  130.6580  151.1097 LP  0  0  0  0  0  0  0  0  0  0  0  0  # atno 17371 bound_to 10713
  141.1750  133.6540  156.4796 LP  0  0  0  0  0  0  0  0  0  0  0  0  # atno 17394 bound_to 11000
  140.4450  134.6981  157.5011 LP  0  0  0  0  0  0  0  0  0  0  0  0  # atno 17395 bound_to 11000

$$$$
