AV-unprocessed.smi:38|AV-procd|sdf|344|dock5
  -GOLD-   2262016183D 1   1.00000     0.00000
 Structure written by MMmdl.
 27 28  0  0  0  0  0  0  0  0  2 V2000
  152.7365  141.0621  158.8363 O   0  0  0  0  0  0  0  0  0  0  0  0
  152.0508  141.0063  157.8165 C   0  0  0  0  0  0  0  0  0  0  0  0
  152.3497  140.1831  156.7703 N   0  5  0  0  0  0  0  0  0  0  0  0
  151.5890  140.1245  155.6380 C   0  0  0  0  0  0  0  0  0  0  0  0
  151.8533  139.3876  154.6873 O   0  0  0  0  0  0  0  0  0  0  0  0
  150.4364  140.9513  155.5384 N   0  0  0  0  0  0  0  0  0  0  0  0
  149.5983  140.8825  154.2780 C   0  0  2  0  0  0  0  0  0  0  0  0
  148.3422  141.7564  154.4169 C   0  0  0  0  0  0  0  0  0  0  0  0
  147.2434  140.8204  153.9525 C   0  0  2  0  0  0  0  0  0  0  0  0
  146.0112  141.1411  154.5652 O   0  0  0  0  0  0  0  0  0  0  0  0
  147.7782  139.4568  154.3893 C   0  0  1  0  0  0  0  0  0  0  0  0
  147.1567  138.2781  153.6248 C   0  0  0  0  0  0  0  0  0  0  0  0
  147.3959  138.4153  152.2402 O   0  0  0  0  0  0  0  0  0  0  0  0
  149.1613  139.5700  154.0662 O   0  0  0  0  0  0  0  0  0  0  0  0
  150.1078  141.7958  156.5870 C   0  0  0  0  0  0  0  0  0  0  0  0
  150.8631  141.8509  157.7033 C   0  0  0  0  0  0  0  0  0  0  0  0
  150.5195  142.6808  158.7036 F   0  0  0  0  0  0  0  0  0  0  0  0
  150.2603  141.1744  153.4608 H   0  0  0  0  0  0  0  0  0  0  0  0
  147.1481  140.8652  152.8665 H   0  0  0  0  0  0  0  0  0  0  0  0
  147.6559  139.3409  155.4681 H   0  0  0  0  0  0  0  0  0  0  0  0
  148.2015  142.0352  155.4632 H   0  0  0  0  0  0  0  0  0  0  0  0
  148.4244  142.6631  153.8171 H   0  0  0  0  0  0  0  0  0  0  0  0
  145.3142  140.7610  154.0526 H   0  0  0  0  0  0  0  0  0  0  0  0
  147.6156  137.3419  153.9434 H   0  0  0  0  0  0  0  0  0  0  0  0
  146.0871  138.1978  153.8204 H   0  0  0  0  0  0  0  0  0  0  0  0
  148.1946  138.9058  152.1205 H   0  0  0  0  0  0  0  0  0  0  0  0
  149.2359  142.4291  156.5287 H   0  0  0  0  0  0  0  0  0  0  0  0
  1  2  2  0  0  0  0
  2 16  1  0  0  0  0
  2  3  1  0  0  0  0
  3  4  1  0  0  0  0
  4  5  2  0  0  0  0
  4  6  1  0  0  0  0
  6  7  1  0  0  0  0
  6 15  1  0  0  0  0
  7 18  1  0  0  0  0
  7 14  1  0  0  0  0
  7  8  1  0  0  0  0
  8  9  1  0  0  0  0
  8 21  1  0  0  0  0
  8 22  1  0  0  0  0
  9 19  1  0  0  0  0
  9 10  1  0  0  0  0
  9 11  1  0  0  0  0
 10 23  1  0  0  0  0
 11 20  1  0  0  0  0
 11 12  1  0  0  0  0
 11 14  1  0  0  0  0
 12 13  1  0  0  0  0
 12 24  1  0  0  0  0
 12 25  1  0  0  0  0
 13 26  1  0  0  0  0
 15 16  2  0  0  0  0
 15 27  1  0  0  0  0
 16 17  1  0  0  0  0
M  CHG  1   3  -1
M  END
> <s_m_source_file>
AV-unprocessed.smi

> <i_m_source_file_index>
38

> <i_lp_mmshare_version>
43012

> <i_f3d_flags>
0

> <s_epik_input>
Tz1jMVtuSF1jKD1PKW4oW2NIXWMxRilbQ0BIXTJbQ0gyXVtDQEhdKFtPSF0pW0NASF0oTzIpW0NIMl1bT0hd

> <s_epik_cmdline>
J2VwaWtfcHl0aG9uJywgJy1waCcsICc3LjAnLCAnLXRuJywgJzgnLCAnLW1hJywgJzIwMCcsICctbWV0YWxfYmluZGluZycsICctaW1hZScsICc8aW5maWxlLm1hZT4nLCAnLW9tYWUnLCAnPG91dGZpbGUubWFlPic=

> <r_epik_Ionization_Penalty>
1.68146

> <r_epik_Ionization_Penalty_Charging>
3.4211e-08

> <r_epik_Ionization_Penalty_Neutral>
1.68146

> <r_epik_State_Penalty>
1.78593

> <r_epik_Charging_Adjusted_Penalty>
1.78593

> <i_epik_Tot_Q>
-1

> <i_epik_Tot_abs_Q>
1

> <r_epik_Metal_State_Penalty>
0.0113696

> <b_epik_Metal_Only>
0

> <s_epik_Chemistry_Notes>
This compound contains an acetal/aminal-like group ( X-CH(R)-Y where X, Y are N, S, or O) that may be acid/base labile, releasing an aldehyde.

> <s_lp_Force_Field>
OPLS_2005

> <r_lp_Energy>
37.5177

> <b_lp_Chiralities_Consistent>
1

> <s_lp_Variant>
AV-unprocessed.smi:38-10

> <Gold.Version>
5.8.1

> <Gold.Id.Protein>
6NUR|6NUR_protein|mol2

> <Gold.PLP.Fitness>
41.5386

> <Gold.PLP.PLP>
-26.8305

> <Gold.PLP.part.hbond>
-4.4690

> <Gold.PLP.part.metal>
0.0000

> <Gold.PLP.part.buried>
-0.2903

> <Gold.PLP.part.nonpolar>
-21.6504

> <Gold.PLP.part.repulsive>
0.9932

> <Gold.PLP.ligand.clash>
0.0000

> <Gold.PLP.ligand.torsion>
0.0379

> <Gold.PLP.Chemscore.Hbond>
3.9225

> <Gold.PLP.Chemscore.CHOScore>
1.0000

> <Gold.PLP.Chemscore.Metal>
0.0000

> <Gold.Chemscore.Hbonds>
donor molecule, donor type, donor heavy atom, donor atom, acceptor molecule, acceptor atom, score
      L1  H    10    23       P1 10175  0.37
      L1  H    13    26       P1  7957  1.00
      P1  H  7989  7998       L1     5  0.50
      P1  H  7997  8010       L1     3  2.00
      L1  C    15    27       P1  8028  1.00

> <Gold.PLP.Chemscore.Internal.Correction>
0.0164

> <Gold.Rescore>
     Score         DG    S(hbond)    S(metal)    S(lipo)     H(rot)  DE(clash)    DE(int)     intcor
      5.09      -7.92       1.72        0.00      34.87       2.88       1.51       1.32       ----

> <Gold.Chemscore.Fitness>
5.0887

> <Gold.Chemscore.DG>
-7.9228

> <Gold.Chemscore.ZeroCoef>
-5.4800

> <Gold.Chemscore.Hbond>
1.7185

> <Gold.Chemscore.Metal>
0.0000

> <Gold.Chemscore.Lipo>
34.8671

> <Gold.Chemscore.Internal_Hbond>
0.0000

> <Gold.Chemscore.DEClash>
1.5101

> <Gold.Chemscore.DEInternal>
1.3240

> <Gold.Chemscore.Rot>
2.8815

> <Gold.Chemscore.Internal.Correction>
   9.000000E+99

> <Gold.Chemscore.Hbonds>
donor molecule, donor type, donor heavy atom, donor atom, acceptor molecule, acceptor atom, score
      L1  H    10    23       P1 10175  0.36
      L1  H    13    26       P1  7957  0.91
      P1  H  7989  7998       L1     5  0.02
      P1  H  7997  8010       L1     3  0.63

> <Gold.Chemscore.Hbond.Weighted>
-5.7398

> <Gold.Chemscore.Metal.Weighted>
-0.0000

> <Gold.Chemscore.Lipo.Weighted>
-4.0795

> <Gold.Chemscore.Internal_Hbond.Weighted>
0.0000

> <Gold.Chemscore.DEClash.Weighted>
1.5101

> <Gold.Chemscore.DEInternal.Weighted>
1.3240

> <Gold.Chemscore.Rot.Weighted>
7.3765

> <Gold.Chemscore.Internal.Correction.Weighted>
   9.000000E+99

> <Gold.Protein.RotatedTorsions>
[ 6907 6896 6895 6894 ] final -161.07 input  -60.11 | X-H torsion
[ 7974 7965 7964 7962 ] final  -40.66 input  175.53 | X-H torsion
[ 8008 7997 7996 7995 ] final   70.33 input   59.86 | X-H torsion
[ 10167 10162 10161 10158 ] final   -7.41 input  -65.29 | X-H torsion
[ 10718 10713 10712 10709 ] final   30.91 input   66.30 | X-H torsion
[ 10763 10752 10751 10750 ] final -140.40 input  -60.55 | X-H torsion
[ 11005 11000 10999 10996 ] final -124.06 input  -57.11 | X-H torsion

> <Gold.Protein.ActiveResidues>
 VAL166  LYS551  ARG553  GLY616  TRP617  ASP618  TYR619  PRO620  LYS621  CYS622 
 ASP623  PHE694  ASN695  SER759  ASP760  ASP761  ALA762  ILE779  LEU786  VAL792 
 PHE793  MET794  SER795  GLU796  ALA797  LYS798  CYS799  TRP800  GLU811  SER814 

> <Gold.Protein.RotatedAtoms>
  151.3589  133.3897  159.2687 H   0  0  0  0  0  0  0  0  0  0  0  0  # atno 6907 bound_to 6896
  150.9741  134.9110  159.7816 H   0  0  0  0  0  0  0  0  0  0  0  0  # atno 6908 bound_to 6896
  152.5195  134.3552  159.9317 H   0  0  0  0  0  0  0  0  0  0  0  0  # atno 6909 bound_to 6896
  146.0283  140.6763  142.9145 H   0  0  0  0  0  0  0  0  0  0  0  0  # atno 7974 bound_to 7965
  155.7372  140.3491  155.5087 H   0  0  0  0  0  0  0  0  0  0  0  0  # atno 8008 bound_to 7997
  155.9128  140.1053  157.1288 H   0  0  0  0  0  0  0  0  0  0  0  0  # atno 8009 bound_to 7997
  154.4058  140.1264  156.4566 H   0  0  0  0  0  0  0  0  0  0  0  0  # atno 8010 bound_to 7997
  140.7028  143.6084  150.8728 H   0  0  0  0  0  0  0  0  0  0  0  0  # atno 10167 bound_to 10162
  157.2657  130.7183  149.6477 H   0  0  0  0  0  0  0  0  0  0  0  0  # atno 10718 bound_to 10713
  154.8580  135.3554  154.5701 H   0  0  0  0  0  0  0  0  0  0  0  0  # atno 10763 bound_to 10752
  153.6314  135.7002  153.5279 H   0  0  0  0  0  0  0  0  0  0  0  0  # atno 10764 bound_to 10752
  153.3047  135.4196  155.1242 H   0  0  0  0  0  0  0  0  0  0  0  0  # atno 10765 bound_to 10752
  140.9870  134.0592  157.3699 H   0  0  0  0  0  0  0  0  0  0  0  0  # atno 11005 bound_to 11000
  144.7019  140.3690  143.7149 LP  0  0  0  0  0  0  0  0  0  0  0  0  # atno 17320 bound_to 7965
  145.7081  139.1678  143.2554 LP  0  0  0  0  0  0  0  0  0  0  0  0  # atno 17321 bound_to 7965
  139.9807  143.5954  152.2943 LP  0  0  0  0  0  0  0  0  0  0  0  0  # atno 17342 bound_to 10162
  139.6574  144.7662  151.2029 LP  0  0  0  0  0  0  0  0  0  0  0  0  # atno 17343 bound_to 10162
  155.9663  130.4383  150.5212 LP  0  0  0  0  0  0  0  0  0  0  0  0  # atno 17370 bound_to 10713
  157.3126  131.0666  151.1990 LP  0  0  0  0  0  0  0  0  0  0  0  0  # atno 17371 bound_to 10713
  139.8975  135.0150  156.7104 LP  0  0  0  0  0  0  0  0  0  0  0  0  # atno 17394 bound_to 11000
  140.7099  133.9233  155.8077 LP  0  0  0  0  0  0  0  0  0  0  0  0  # atno 17395 bound_to 11000

$$$$
