AV-unprocessed.smi:2881|AV-procd|sdf|11063|dock9
  -GOLD-   2272015533D 1   1.00000     0.00000
 Structure written by MMmdl.
 40 42  0  0  0  0  0  0  0  0  1 V2000
  143.8273  133.1821  151.3238 C   0  0  0  0  0  0  0  0  0  0  0  0
  144.7280  134.3608  151.5491 C   0  0  0  0  0  0  0  0  0  0  0  0
  144.4002  135.7463  151.4714 C   0  0  0  0  0  0  0  0  0  0  0  0
  145.5712  136.3879  151.7642 C   0  0  0  0  0  0  0  0  0  0  0  0
  145.9051  137.8421  151.8544 C   0  0  0  0  0  0  0  0  0  0  0  0
  146.4703  138.1831  153.2327 C   0  0  0  0  0  0  0  0  0  0  0  0
  145.7180  138.5790  154.1226 O   0  0  0  0  0  0  0  0  0  0  0  0
  147.7947  138.0348  153.3888 N   0  0  0  0  0  0  0  0  0  0  0  0
  148.5408  138.3191  154.6125 C   0  0  2  0  0  0  0  0  0  0  0  0
  148.2132  139.7407  155.1207 C   0  0  1  0  0  0  0  0  0  0  0  0
  148.6831  139.8644  156.5810 C   0  0  0  0  0  0  0  0  0  0  0  0
  150.2155  139.9126  156.4332 C   0  0  0  0  0  0  0  0  0  0  0  0
  150.4206  139.8019  154.9065 C   0  0  2  0  0  0  0  0  0  0  0  0
  149.2356  140.6094  154.3934 C   0  0  0  0  0  0  0  0  0  0  0  0
  150.0728  138.3897  154.3770 C   0  0  1  0  0  0  0  0  0  0  0  0
  150.8836  137.2442  155.0144 C   0  0  0  0  0  0  0  0  0  0  0  0
  151.9747  136.8980  154.1893 O   0  0  0  0  0  0  0  0  0  0  0  0
  146.5030  135.3997  151.9888 N   0  0  0  0  0  0  0  0  0  0  0  0
  145.9997  134.1582  151.8602 N   0  0  0  0  0  0  0  0  0  0  0  0
  147.4707  135.5570  152.2333 H   0  0  0  0  0  0  0  0  0  0  0  0
  142.7781  133.4707  151.3908 H   0  0  0  0  0  0  0  0  0  0  0  0
  144.0028  132.4012  152.0647 H   0  0  0  0  0  0  0  0  0  0  0  0
  143.9907  132.7490  150.3368 H   0  0  0  0  0  0  0  0  0  0  0  0
  143.4479  136.1993  151.2387 H   0  0  0  0  0  0  0  0  0  0  0  0
  145.0169  138.4445  151.6584 H   0  0  0  0  0  0  0  0  0  0  0  0
  146.6354  138.1090  151.0895 H   0  0  0  0  0  0  0  0  0  0  0  0
  148.3298  137.7078  152.5976 H   0  0  0  0  0  0  0  0  0  0  0  0
  148.2824  137.5845  155.3777 H   0  0  0  0  0  0  0  0  0  0  0  0
  147.1725  140.0354  154.9796 H   0  0  0  0  0  0  0  0  0  0  0  0
  148.3127  140.7859  157.0319 H   0  0  0  0  0  0  0  0  0  0  0  0
  148.3476  139.0319  157.2008 H   0  0  0  0  0  0  0  0  0  0  0  0
  150.5981  140.8661  156.7996 H   0  0  0  0  0  0  0  0  0  0  0  0
  150.7180  139.1268  156.9961 H   0  0  0  0  0  0  0  0  0  0  0  0
  151.3936  140.1626  154.5713 H   0  0  0  0  0  0  0  0  0  0  0  0
  149.1314  140.5875  153.3071 H   0  0  0  0  0  0  0  0  0  0  0  0
  149.2390  141.6480  154.7295 H   0  0  0  0  0  0  0  0  0  0  0  0
  150.2820  138.3928  153.3051 H   0  0  0  0  0  0  0  0  0  0  0  0
  151.2743  137.5513  155.9848 H   0  0  0  0  0  0  0  0  0  0  0  0
  150.2696  136.3582  155.1752 H   0  0  0  0  0  0  0  0  0  0  0  0
  151.6859  136.9028  153.2896 H   0  0  0  0  0  0  0  0  0  0  0  0
  1 21  1  0  0  0  0
  1 22  1  0  0  0  0
  1 23  1  0  0  0  0
  1  2  1  0  0  0  0
  2 19  2  0  0  0  0
  2  3  1  0  0  0  0
  3  4  2  0  0  0  0
  3 24  1  0  0  0  0
  4 18  1  0  0  0  0
  4  5  1  0  0  0  0
  5  6  1  0  0  0  0
  5 25  1  0  0  0  0
  5 26  1  0  0  0  0
  6  7  2  0  0  0  0
  6  8  1  0  0  0  0
  8  9  1  0  0  0  0
  8 27  1  0  0  0  0
  9 15  1  0  0  0  0
  9 10  1  0  0  0  0
  9 28  1  0  0  0  0
 10 14  1  0  0  0  0
 10 11  1  0  0  0  0
 10 29  1  0  0  0  0
 11 12  1  0  0  0  0
 11 30  1  0  0  0  0
 11 31  1  0  0  0  0
 12 13  1  0  0  0  0
 12 32  1  0  0  0  0
 12 33  1  0  0  0  0
 13 14  1  0  0  0  0
 13 15  1  0  0  0  0
 13 34  1  0  0  0  0
 14 35  1  0  0  0  0
 14 36  1  0  0  0  0
 15 16  1  0  0  0  0
 15 37  1  0  0  0  0
 16 17  1  0  0  0  0
 16 38  1  0  0  0  0
 16 39  1  0  0  0  0
 17 40  1  0  0  0  0
 18 19  1  0  0  0  0
 18 20  1  0  0  0  0
M  END
> <s_m_source_file>
AV-unprocessed.smi

> <i_m_source_file_index>
2881

> <i_lp_mmshare_version>
43012

> <i_f3d_flags>
0

> <s_epik_input>
W0NIM11jMVtjSF1jKG5bbkhdMSlbQ0gyXUMoPU8pW05IXVtDQEhdKFtDQEBIXTIzKVtDQEhdKFtDSDJdW09IXSlbQ0BASF0oW0NIMl0zKVtDSDJdW0NIMl0y

> <s_epik_cmdline>
J2VwaWtfcHl0aG9uJywgJy1waCcsICc3LjAnLCAnLXRuJywgJzgnLCAnLW1hJywgJzIwMCcsICctbWV0YWxfYmluZGluZycsICctaW1hZScsICc8aW5maWxlLm1hZT4nLCAnLW9tYWUnLCAnPG91dGZpbGUubWFlPic=

> <r_lp_tautomer_probability>
0.5

> <r_epik_Ionization_Penalty>
0.00013396

> <r_epik_Ionization_Penalty_Charging>
0

> <r_epik_Ionization_Penalty_Neutral>
0.00013396

> <r_epik_State_Penalty>
0.41068

> <r_epik_Charging_Adjusted_Penalty>
0.41068

> <i_epik_Tot_Q>
0

> <i_epik_Tot_abs_Q>
0

> <r_epik_Metal_State_Penalty>
0.41066

> <b_epik_Metal_Only>
0

> <s_lp_Force_Field>
OPLS_2005

> <r_lp_Energy>
47.2043

> <b_lp_Chiralities_Consistent>
1

> <s_lp_Variant>
AV-unprocessed.smi:2881-9

> <Gold.Version>
5.8.1

> <Gold.Id.Protein>
6NUR|6NUR_protein|mol2

> <Gold.PLP.Fitness>
39.0821

> <Gold.PLP.PLP>
-29.6623

> <Gold.PLP.part.hbond>
-3.9172

> <Gold.PLP.part.metal>
0.0000

> <Gold.PLP.part.buried>
-3.6303

> <Gold.PLP.part.nonpolar>
-24.3405

> <Gold.PLP.part.repulsive>
0.3424

> <Gold.PLP.ligand.clash>
0.0000

> <Gold.PLP.ligand.torsion>
0.9926

> <Gold.PLP.Chemscore.Hbond>
3.7920

> <Gold.PLP.Chemscore.CHOScore>
0.0000

> <Gold.PLP.Chemscore.Metal>
0.0000

> <Gold.Chemscore.Hbonds>
donor molecule, donor type, donor heavy atom, donor atom, acceptor molecule, acceptor atom, score
      L1  H     8    27       P1  7948  0.86
      L1  H    17    40       P1  7949  0.88
      L1  H    18    20       P1  7948  0.98
      P1  H 10752 10763       L1    17  0.80

> <Gold.PLP.Chemscore.Internal.Correction>
0.0290

> <Gold.Rescore>
     Score         DG    S(hbond)    S(metal)    S(lipo)     H(rot)  DE(clash)    DE(int)     intcor
     17.46     -19.76       3.62        0.00      68.38       2.28       0.05       2.25       ----

> <Gold.Chemscore.Fitness>
17.4603

> <Gold.Chemscore.DG>
-19.7621

> <Gold.Chemscore.ZeroCoef>
-5.4800

> <Gold.Chemscore.Hbond>
3.6249

> <Gold.Chemscore.Metal>
0.0000

> <Gold.Chemscore.Lipo>
68.3779

> <Gold.Chemscore.Internal_Hbond>
0.0000

> <Gold.Chemscore.DEClash>
0.0549

> <Gold.Chemscore.DEInternal>
2.2469

> <Gold.Chemscore.Rot>
2.2755

> <Gold.Chemscore.Internal.Correction>
   9.000000E+99

> <Gold.Chemscore.Hbonds>
donor molecule, donor type, donor heavy atom, donor atom, acceptor molecule, acceptor atom, score
      L1  H     8    27       P1  7948  0.85
      L1  H    17    40       P1  7949  0.80
      L1  H    18    20       P1  7948  0.92
      P1  H 10752 10763       L1    17  0.11

> <Gold.Chemscore.Hbond.Weighted>
-12.1071

> <Gold.Chemscore.Metal.Weighted>
-0.0000

> <Gold.Chemscore.Lipo.Weighted>
-8.0002

> <Gold.Chemscore.Internal_Hbond.Weighted>
0.0000

> <Gold.Chemscore.DEClash.Weighted>
0.0549

> <Gold.Chemscore.DEInternal.Weighted>
2.2469

> <Gold.Chemscore.Rot.Weighted>
5.8252

> <Gold.Chemscore.Internal.Correction.Weighted>
   9.000000E+99

> <Gold.Protein.RotatedTorsions>
[ 6907 6896 6895 6894 ] final -160.91 input  -60.11 | X-H torsion
[ 7974 7965 7964 7962 ] final  142.61 input  175.53 | X-H torsion
[ 8008 7997 7996 7995 ] final  -20.66 input   59.86 | X-H torsion
[ 10167 10162 10161 10158 ] final  115.08 input  -65.29 | X-H torsion
[ 10718 10713 10712 10709 ] final  120.83 input   66.30 | X-H torsion
[ 10763 10752 10751 10750 ] final   24.83 input  -60.55 | X-H torsion
[ 11005 11000 10999 10996 ] final   24.56 input  -57.11 | X-H torsion

> <Gold.Protein.ActiveResidues>
 VAL166  LYS551  ARG553  GLY616  TRP617  ASP618  TYR619  PRO620  LYS621  CYS622 
 ASP623  PHE694  ASN695  SER759  ASP760  ASP761  ALA762  ILE779  LEU786  VAL792 
 PHE793  MET794  SER795  GLU796  ALA797  LYS798  CYS799  TRP800  GLU811  SER814 

> <Gold.Protein.RotatedAtoms>
  151.3564  133.3906  159.2685 H   0  0  0  0  0  0  0  0  0  0  0  0  # atno 6907 bound_to 6896
  150.9760  134.9125  159.7827 H   0  0  0  0  0  0  0  0  0  0  0  0  # atno 6908 bound_to 6896
  152.5201  134.3527  159.9309 H   0  0  0  0  0  0  0  0  0  0  0  0  # atno 6909 bound_to 6896
  144.8993  139.5446  143.5761 H   0  0  0  0  0  0  0  0  0  0  0  0  # atno 7974 bound_to 7965
  154.4755  140.2056  155.9889 H   0  0  0  0  0  0  0  0  0  0  0  0  # atno 8008 bound_to 7997
  156.1082  140.3233  155.8005 H   0  0  0  0  0  0  0  0  0  0  0  0  # atno 8009 bound_to 7997
  155.4681  140.0529  157.2973 H   0  0  0  0  0  0  0  0  0  0  0  0  # atno 8010 bound_to 7997
  139.6343  144.7118  151.2368 H   0  0  0  0  0  0  0  0  0  0  0  0  # atno 10167 bound_to 10162
  157.5862  131.1069  150.8089 H   0  0  0  0  0  0  0  0  0  0  0  0  # atno 10718 bound_to 10713
  153.0735  135.6596  154.0195 H   0  0  0  0  0  0  0  0  0  0  0  0  # atno 10763 bound_to 10752
  153.9835  135.2953  155.3419 H   0  0  0  0  0  0  0  0  0  0  0  0  # atno 10764 bound_to 10752
  154.7117  135.5202  153.8746 H   0  0  0  0  0  0  0  0  0  0  0  0  # atno 10765 bound_to 10752
  140.3574  134.2163  155.7675 H   0  0  0  0  0  0  0  0  0  0  0  0  # atno 11005 bound_to 11000
  146.3099  139.7710  142.9028 LP  0  0  0  0  0  0  0  0  0  0  0  0  # atno 17320 bound_to 7965
  145.3645  141.0332  143.3266 LP  0  0  0  0  0  0  0  0  0  0  0  0  # atno 17321 bound_to 7965
  140.7456  143.6425  150.8322 LP  0  0  0  0  0  0  0  0  0  0  0  0  # atno 17342 bound_to 10162
  140.0054  143.5699  152.2860 LP  0  0  0  0  0  0  0  0  0  0  0  0  # atno 17343 bound_to 10162
  156.8522  130.5084  149.5311 LP  0  0  0  0  0  0  0  0  0  0  0  0  # atno 17370 bound_to 10713
  156.0912  130.5897  150.9736 LP  0  0  0  0  0  0  0  0  0  0  0  0  # atno 17371 bound_to 10713
  141.1994  133.8012  157.0536 LP  0  0  0  0  0  0  0  0  0  0  0  0  # atno 17394 bound_to 11000
  140.0654  134.9732  157.1377 LP  0  0  0  0  0  0  0  0  0  0  0  0  # atno 17395 bound_to 11000

$$$$
