AV-unprocessed.smi:2371|AV-procd|sdf|9436|dock7
  -GOLD-   2272013 63D 1   1.00000     0.00000
 Structure written by MMmdl.
 35 36  0  0  0  0  0  0  0  0  1 V2000
  152.5743  145.2328  160.5073 C   0  0  0  0  0  0  0  0  0  0  0  0
  152.3288  143.9849  159.7799 N   0  0  0  0  0  0  0  0  0  0  0  0
  153.0345  142.8421  160.1930 C   0  0  0  0  0  0  0  0  0  0  0  0
  152.8741  141.6586  159.5849 C   0  0  0  0  0  0  0  0  0  0  0  0
  151.9482  141.5742  158.4811 C   0  0  0  0  0  0  0  0  0  0  0  0
  151.2506  142.6634  158.0710 C   0  0  0  0  0  0  0  0  0  0  0  0
  150.3373  142.6700  157.0025 N   0  0  0  0  0  0  0  0  0  0  0  0
  149.7405  141.6334  156.3857 C   0  0  0  0  0  0  0  0  0  0  0  0
  149.8756  140.4459  156.6793 O   0  0  0  0  0  0  0  0  0  0  0  0
  148.9381  142.0619  155.4013 N   0  0  0  0  0  0  0  0  0  0  0  0
  148.1151  141.2113  154.5472 C   0  0  0  0  0  0  0  0  0  0  0  0
  146.6321  141.6181  154.5947 C   0  0  2  0  0  0  0  0  0  0  0  0
  146.3297  143.0339  154.1017 C   0  0  0  0  0  0  0  0  0  0  0  0
  145.0334  143.3338  154.8179 C   0  0  0  0  0  0  0  0  0  0  0  0
  145.2720  142.6805  156.1761 C   0  0  0  0  0  0  0  0  0  0  0  0
  146.1563  141.5877  155.9380 O   0  0  0  0  0  0  0  0  0  0  0  0
  151.4440  143.9655  158.7388 C   0  0  0  0  0  0  0  0  0  0  0  0
  150.8472  144.9870  158.3900 O   0  0  0  0  0  0  0  0  0  0  0  0
  153.2610  145.1041  161.3446 H   0  0  0  0  0  0  0  0  0  0  0  0
  151.6433  145.6323  160.9121 H   0  0  0  0  0  0  0  0  0  0  0  0
  153.0060  145.9828  159.8429 H   0  0  0  0  0  0  0  0  0  0  0  0
  153.7079  142.9866  161.0251 H   0  0  0  0  0  0  0  0  0  0  0  0
  153.4237  140.7886  159.9129 H   0  0  0  0  0  0  0  0  0  0  0  0
  151.8508  140.6184  157.9924 H   0  0  0  0  0  0  0  0  0  0  0  0
  150.0674  143.5915  156.6896 H   0  0  0  0  0  0  0  0  0  0  0  0
  148.8840  143.0561  155.2338 H   0  0  0  0  0  0  0  0  0  0  0  0
  148.4853  141.3130  153.5269 H   0  0  0  0  0  0  0  0  0  0  0  0
  148.2320  140.1581  154.8084 H   0  0  0  0  0  0  0  0  0  0  0  0
  146.0336  140.9061  154.0240 H   0  0  0  0  0  0  0  0  0  0  0  0
  147.1036  143.7301  154.4283 H   0  0  0  0  0  0  0  0  0  0  0  0
  146.2449  143.0992  153.0167 H   0  0  0  0  0  0  0  0  0  0  0  0
  144.8164  144.4000  154.8883 H   0  0  0  0  0  0  0  0  0  0  0  0
  144.2019  142.8472  154.3062 H   0  0  0  0  0  0  0  0  0  0  0  0
  145.7632  143.3795  156.8540 H   0  0  0  0  0  0  0  0  0  0  0  0
  144.3456  142.3488  156.6454 H   0  0  0  0  0  0  0  0  0  0  0  0
  1  2  1  0  0  0  0
  1 19  1  0  0  0  0
  1 20  1  0  0  0  0
  1 21  1  0  0  0  0
  2 17  1  0  0  0  0
  2  3  1  0  0  0  0
  3  4  2  0  0  0  0
  3 22  1  0  0  0  0
  4  5  1  0  0  0  0
  4 23  1  0  0  0  0
  5  6  2  0  0  0  0
  5 24  1  0  0  0  0
  6  7  1  0  0  0  0
  6 17  1  0  0  0  0
  7  8  1  0  0  0  0
  7 25  1  0  0  0  0
  8  9  2  0  0  0  0
  8 10  1  0  0  0  0
 10 11  1  0  0  0  0
 10 26  1  0  0  0  0
 11 12  1  0  0  0  0
 11 27  1  0  0  0  0
 11 28  1  0  0  0  0
 12 16  1  0  0  0  0
 12 13  1  0  0  0  0
 12 29  1  0  0  0  0
 13 14  1  0  0  0  0
 13 30  1  0  0  0  0
 13 31  1  0  0  0  0
 14 15  1  0  0  0  0
 14 32  1  0  0  0  0
 14 33  1  0  0  0  0
 15 16  1  0  0  0  0
 15 34  1  0  0  0  0
 15 35  1  0  0  0  0
 17 18  2  0  0  0  0
M  END
> <s_m_source_file>
AV-unprocessed.smi

> <i_m_source_file_index>
2371

> <i_lp_mmshare_version>
43012

> <i_f3d_flags>
0

> <s_epik_input>
W0NIM11uMVtjSF1bY0hdW2NIXWMoYzE9TylbTkhdQyg9TylbTkhdW0NIMl1bQ0BASF0yW0NIMl1bQ0gyXVtDSDJdTzI=

> <s_epik_cmdline>
J2VwaWtfcHl0aG9uJywgJy1waCcsICc3LjAnLCAnLXRuJywgJzgnLCAnLW1hJywgJzIwMCcsICctbWV0YWxfYmluZGluZycsICctaW1hZScsICc8aW5maWxlLm1hZT4nLCAnLW9tYWUnLCAnPG91dGZpbGUubWFlPic=

> <r_lp_tautomer_probability>
1

> <r_epik_Ionization_Penalty>
2.36512e-05

> <r_epik_Ionization_Penalty_Charging>
4.84074e-06

> <r_epik_Ionization_Penalty_Neutral>
1.88105e-05

> <r_epik_State_Penalty>
-0

> <r_epik_Charging_Adjusted_Penalty>
4.84074e-06

> <i_epik_Tot_Q>
0

> <i_epik_Tot_abs_Q>
0

> <r_epik_Metal_State_Penalty>
-0

> <b_epik_Metal_Only>
0

> <s_lp_Force_Field>
OPLS_2005

> <r_lp_Energy>
29.8245

> <b_lp_Chiralities_Consistent>
1

> <s_lp_Variant>
AV-unprocessed.smi:2371-1

> <Gold.Version>
5.8.1

> <Gold.Id.Protein>
6NUR|6NUR_protein|mol2

> <Gold.PLP.Fitness>
45.5397

> <Gold.PLP.PLP>
-39.6752

> <Gold.PLP.part.hbond>
-2.0000

> <Gold.PLP.part.metal>
0.0000

> <Gold.PLP.part.buried>
-6.4902

> <Gold.PLP.part.nonpolar>
-31.4374

> <Gold.PLP.part.repulsive>
0.5436

> <Gold.PLP.ligand.clash>
0.0000

> <Gold.PLP.ligand.torsion>
0.0684

> <Gold.PLP.Chemscore.Hbond>
2.0000

> <Gold.PLP.Chemscore.CHOScore>
0.0000

> <Gold.PLP.Chemscore.Metal>
0.0000

> <Gold.Chemscore.Hbonds>
donor molecule, donor type, donor heavy atom, donor atom, acceptor molecule, acceptor atom, score
      L1  H     7    25       P1  8028  1.00
      L1  H    10    26       P1  8028  1.00

> <Gold.PLP.Chemscore.Internal.Correction>
0.0014

> <Gold.Rescore>
     Score         DG    S(hbond)    S(metal)    S(lipo)     H(rot)  DE(clash)    DE(int)     intcor
     16.81     -18.12       1.96        0.00      79.21       1.25       0.10       1.21       ----

> <Gold.Chemscore.Fitness>
16.8055

> <Gold.Chemscore.DG>
-18.1155

> <Gold.Chemscore.ZeroCoef>
-5.4800

> <Gold.Chemscore.Hbond>
1.9649

> <Gold.Chemscore.Metal>
0.0000

> <Gold.Chemscore.Lipo>
79.2075

> <Gold.Chemscore.Internal_Hbond>
0.0000

> <Gold.Chemscore.DEClash>
0.0990

> <Gold.Chemscore.DEInternal>
1.2110

> <Gold.Chemscore.Rot>
1.2478

> <Gold.Chemscore.Internal.Correction>
   9.000000E+99

> <Gold.Chemscore.Hbonds>
donor molecule, donor type, donor heavy atom, donor atom, acceptor molecule, acceptor atom, score
      L1  H     7    25       P1  8028  0.95
      L1  H    10    26       P1  8028  0.99

> <Gold.Chemscore.Hbond.Weighted>
-6.5626

> <Gold.Chemscore.Metal.Weighted>
-0.0000

> <Gold.Chemscore.Lipo.Weighted>
-9.2673

> <Gold.Chemscore.Internal_Hbond.Weighted>
0.0000

> <Gold.Chemscore.DEClash.Weighted>
0.0990

> <Gold.Chemscore.DEInternal.Weighted>
1.2110

> <Gold.Chemscore.Rot.Weighted>
3.1944

> <Gold.Chemscore.Internal.Correction.Weighted>
   9.000000E+99

> <Gold.Protein.RotatedTorsions>
[ 6907 6896 6895 6894 ] final  172.69 input  -60.11 | X-H torsion
[ 7974 7965 7964 7962 ] final   -9.17 input  175.53 | X-H torsion
[ 8008 7997 7996 7995 ] final   10.26 input   59.86 | X-H torsion
[ 10167 10162 10161 10158 ] final  156.09 input  -65.29 | X-H torsion
[ 10718 10713 10712 10709 ] final  149.35 input   66.30 | X-H torsion
[ 10763 10752 10751 10750 ] final -144.48 input  -60.55 | X-H torsion
[ 11005 11000 10999 10996 ] final   60.87 input  -57.11 | X-H torsion

> <Gold.Protein.ActiveResidues>
 VAL166  LYS551  ARG553  GLY616  TRP617  ASP618  TYR619  PRO620  LYS621  CYS622 
 ASP623  PHE694  ASN695  SER759  ASP760  ASP761  ALA762  ILE779  LEU786  VAL792 
 PHE793  MET794  SER795  GLU796  ALA797  LYS798  CYS799  TRP800  GLU811  SER814 

> <Gold.Protein.RotatedAtoms>
  151.7802  133.3349  159.3469 H   0  0  0  0  0  0  0  0  0  0  0  0  # atno 6907 bound_to 6896
  150.7429  134.5937  159.6010 H   0  0  0  0  0  0  0  0  0  0  0  0  # atno 6908 bound_to 6896
  152.3281  134.7296  160.0348 H   0  0  0  0  0  0  0  0  0  0  0  0  # atno 6909 bound_to 6896
  146.2259  140.2577  142.8350 H   0  0  0  0  0  0  0  0  0  0  0  0  # atno 7974 bound_to 7965
  154.7910  140.2835  155.5991 H   0  0  0  0  0  0  0  0  0  0  0  0  # atno 8008 bound_to 7997
  156.2964  140.2605  156.2686 H   0  0  0  0  0  0  0  0  0  0  0  0  # atno 8009 bound_to 7997
  154.9670  140.0376  157.2206 H   0  0  0  0  0  0  0  0  0  0  0  0  # atno 8010 bound_to 7997
  139.4821  144.5040  151.8126 H   0  0  0  0  0  0  0  0  0  0  0  0  # atno 10167 bound_to 10162
  157.2972  131.0864  151.1417 H   0  0  0  0  0  0  0  0  0  0  0  0  # atno 10718 bound_to 10713
  154.8426  135.3439  154.6352 H   0  0  0  0  0  0  0  0  0  0  0  0  # atno 10763 bound_to 10752
  153.6962  135.6972  153.5080 H   0  0  0  0  0  0  0  0  0  0  0  0  # atno 10764 bound_to 10752
  153.2557  135.4339  155.0798 H   0  0  0  0  0  0  0  0  0  0  0  0  # atno 10765 bound_to 10752
  140.0201  134.6165  155.9652 H   0  0  0  0  0  0  0  0  0  0  0  0  # atno 11005 bound_to 11000
  144.9363  140.8030  143.5658 LP  0  0  0  0  0  0  0  0  0  0  0  0  # atno 17320 bound_to 7965
  145.2525  139.2026  143.4935 LP  0  0  0  0  0  0  0  0  0  0  0  0  # atno 17321 bound_to 7965
  140.4536  144.1821  150.5899 LP  0  0  0  0  0  0  0  0  0  0  0  0  # atno 17342 bound_to 10162
  140.4559  143.2468  151.9285 LP  0  0  0  0  0  0  0  0  0  0  0  0  # atno 17343 bound_to 10162
  157.2790  130.6741  149.6056 LP  0  0  0  0  0  0  0  0  0  0  0  0  # atno 17370 bound_to 10713
  155.9670  130.4455  150.5506 LP  0  0  0  0  0  0  0  0  0  0  0  0  # atno 17371 bound_to 10713
  141.1768  133.6541  156.4861 LP  0  0  0  0  0  0  0  0  0  0  0  0  # atno 17394 bound_to 11000
  140.4402  134.7023  157.4987 LP  0  0  0  0  0  0  0  0  0  0  0  0  # atno 17395 bound_to 11000

$$$$
