AV-unprocessed.smi:370|AV-procd|sdf|2436|dock1
  -GOLD-   2262022373D 1   1.00000     0.00000
 Structure written by MMmdl.
 42 43  0  0  0  0  0  0  0  0  1 V2000
  143.7687  132.4080  150.1741 C   0  0  0  0  0  0  0  0  0  0  0  0
  144.8050  132.7669  151.1831 C   0  0  0  0  0  0  0  0  0  0  0  0
  145.6617  133.8247  151.2994 C   0  0  0  0  0  0  0  0  0  0  0  0
  146.3727  133.5292  152.4989 C   0  0  0  0  0  0  0  0  0  0  0  0
  147.4029  134.3131  153.0794 N   0  0  0  0  0  0  0  0  0  0  0  0
  147.8024  134.3492  154.3617 C   0  0  0  0  0  0  0  0  0  0  0  0
  147.3409  133.6600  155.2713 O   0  0  0  0  0  0  0  0  0  0  0  0
  148.7930  135.2359  154.5325 N   0  0  0  0  0  0  0  0  0  0  0  0
  149.4872  135.5155  155.7896 C   0  0  0  0  0  0  0  0  0  0  0  0
  149.0365  136.8567  156.4396 C   0  0  0  0  0  0  0  0  0  0  0  0
  147.4979  136.9414  156.2910 C   0  0  0  0  0  0  0  0  0  0  0  0
  149.3418  136.7366  157.9545 C   0  0  0  0  0  0  0  0  0  0  0  0
  149.7451  138.0234  155.8411 N   0  0  0  0  0  0  0  0  0  0  0  0
  151.2081  137.9811  155.9523 C   0  0  0  0  0  0  0  0  0  0  0  0
  151.8656  139.2687  155.4279 C   0  0  0  0  0  0  0  0  0  0  0  0
  151.4758  139.4887  154.0781 O   0  0  0  0  0  0  0  0  0  0  0  0
  150.0651  139.5962  153.9324 C   0  0  0  0  0  0  0  0  0  0  0  0
  149.3900  138.3135  154.4472 C   0  0  0  0  0  0  0  0  0  0  0  0
  145.9864  132.3945  153.0528 N   0  0  0  0  0  0  0  0  0  0  0  0
  144.9784  131.9002  152.2169 O   0  0  0  0  0  0  0  0  0  0  0  0
  143.5902  133.2362  149.4878 H   0  0  0  0  0  0  0  0  0  0  0  0
  142.8240  132.1621  150.6593 H   0  0  0  0  0  0  0  0  0  0  0  0
  144.0837  131.5449  149.5877 H   0  0  0  0  0  0  0  0  0  0  0  0
  145.7532  134.6626  150.6250 H   0  0  0  0  0  0  0  0  0  0  0  0
  147.8977  134.9161  152.4389 H   0  0  0  0  0  0  0  0  0  0  0  0
  149.1139  135.7460  153.7227 H   0  0  0  0  0  0  0  0  0  0  0  0
  149.3075  134.6765  156.4612 H   0  0  0  0  0  0  0  0  0  0  0  0
  150.5686  135.5141  155.6412 H   0  0  0  0  0  0  0  0  0  0  0  0
  147.0136  136.0777  156.7481 H   0  0  0  0  0  0  0  0  0  0  0  0
  147.1853  136.9596  155.2473 H   0  0  0  0  0  0  0  0  0  0  0  0
  147.0837  137.8245  156.7767 H   0  0  0  0  0  0  0  0  0  0  0  0
  148.9806  135.7913  158.3614 H   0  0  0  0  0  0  0  0  0  0  0  0
  148.8594  137.5212  158.5372 H   0  0  0  0  0  0  0  0  0  0  0  0
  150.4123  136.7885  158.1557 H   0  0  0  0  0  0  0  0  0  0  0  0
  151.5170  137.8513  156.9877 H   0  0  0  0  0  0  0  0  0  0  0  0
  151.6047  137.1326  155.3947 H   0  0  0  0  0  0  0  0  0  0  0  0
  151.5814  140.1249  156.0418 H   0  0  0  0  0  0  0  0  0  0  0  0
  152.9514  139.1868  155.4761 H   0  0  0  0  0  0  0  0  0  0  0  0
  149.7009  140.4691  154.4763 H   0  0  0  0  0  0  0  0  0  0  0  0
  149.8273  139.7529  152.8804 H   0  0  0  0  0  0  0  0  0  0  0  0
  149.6792  137.4826  153.8034 H   0  0  0  0  0  0  0  0  0  0  0  0
  148.3145  138.4400  154.3383 H   0  0  0  0  0  0  0  0  0  0  0  0
  1  2  1  0  0  0  0
  1 21  1  0  0  0  0
  1 22  1  0  0  0  0
  1 23  1  0  0  0  0
  2 20  1  0  0  0  0
  2  3  2  0  0  0  0
  3  4  1  0  0  0  0
  3 24  1  0  0  0  0
  4  5  1  0  0  0  0
  4 19  2  0  0  0  0
  5  6  1  0  0  0  0
  5 25  1  0  0  0  0
  6  7  2  0  0  0  0
  6  8  1  0  0  0  0
  8  9  1  0  0  0  0
  8 26  1  0  0  0  0
  9 10  1  0  0  0  0
  9 27  1  0  0  0  0
  9 28  1  0  0  0  0
 10 11  1  0  0  0  0
 10 12  1  0  0  0  0
 10 13  1  0  0  0  0
 11 29  1  0  0  0  0
 11 30  1  0  0  0  0
 11 31  1  0  0  0  0
 12 32  1  0  0  0  0
 12 33  1  0  0  0  0
 12 34  1  0  0  0  0
 13 18  1  0  0  0  0
 13 14  1  0  0  0  0
 14 15  1  0  0  0  0
 14 35  1  0  0  0  0
 14 36  1  0  0  0  0
 15 16  1  0  0  0  0
 15 37  1  0  0  0  0
 15 38  1  0  0  0  0
 16 17  1  0  0  0  0
 17 18  1  0  0  0  0
 17 39  1  0  0  0  0
 17 40  1  0  0  0  0
 18 41  1  0  0  0  0
 18 42  1  0  0  0  0
 19 20  1  0  0  0  0
M  END
> <s_m_source_file>
AV-unprocessed.smi

> <i_m_source_file_index>
370

> <i_lp_mmshare_version>
43012

> <i_f3d_flags>
0

> <s_epik_input>
W0NIM11jMVtjSF1jKG5vMSlbTkhdQyg9TylbTkhdW0NIMl1DKFtDSDNdKShbQ0gzXSlOMltDSDJdW0NIMl1PW0NIMl1bQ0gyXTI=

> <s_epik_cmdline>
J2VwaWtfcHl0aG9uJywgJy1waCcsICc3LjAnLCAnLXRuJywgJzgnLCAnLW1hJywgJzIwMCcsICctbWV0YWxfYmluZGluZycsICctaW1hZScsICc8aW5maWxlLm1hZT4nLCAnLW9tYWUnLCAnPG91dGZpbGUubWFlPic=

> <r_epik_Ionization_Penalty>
0.214074

> <r_epik_Ionization_Penalty_Charging>
0

> <r_epik_Ionization_Penalty_Neutral>
0.214074

> <r_epik_State_Penalty>
0.204211

> <r_epik_Charging_Adjusted_Penalty>
0.204211

> <i_epik_Tot_Q>
0

> <i_epik_Tot_abs_Q>
0

> <r_epik_Metal_State_Penalty>
0.217151

> <b_epik_Metal_Only>
0

> <s_lp_Force_Field>
OPLS_2005

> <r_lp_Energy>
40.6457

> <b_lp_Chiralities_Consistent>
1

> <s_lp_Variant>
AV-unprocessed.smi:370-1

> <Gold.Version>
5.8.1

> <Gold.Id.Protein>
6NUR|6NUR_protein|mol2

> <Gold.PLP.Fitness>
32.9666

> <Gold.PLP.PLP>
-25.1518

> <Gold.PLP.part.hbond>
-3.0000

> <Gold.PLP.part.metal>
0.0000

> <Gold.PLP.part.buried>
-3.7724

> <Gold.PLP.part.nonpolar>
-18.9112

> <Gold.PLP.part.repulsive>
0.4566

> <Gold.PLP.ligand.clash>
0.0000

> <Gold.PLP.ligand.torsion>
0.5941

> <Gold.PLP.Chemscore.Hbond>
2.9760

> <Gold.PLP.Chemscore.CHOScore>
0.0000

> <Gold.PLP.Chemscore.Metal>
0.0000

> <Gold.Chemscore.Hbonds>
donor molecule, donor type, donor heavy atom, donor atom, acceptor molecule, acceptor atom, score
      L1  H     5    25       P1  7948  1.00
      L1  H     8    26       P1  7948  1.00
      P1  H  7989  7998       L1    16  0.50

> <Gold.PLP.Chemscore.Internal.Correction>
0.0750

> <Gold.Rescore>
     Score         DG    S(hbond)    S(metal)    S(lipo)     H(rot)  DE(clash)    DE(int)     intcor
     15.03     -16.87       2.75        0.00      52.92       1.55       0.00       1.84       ----

> <Gold.Chemscore.Fitness>
15.0338

> <Gold.Chemscore.DG>
-16.8725

> <Gold.Chemscore.ZeroCoef>
-5.4800

> <Gold.Chemscore.Hbond>
2.7488

> <Gold.Chemscore.Metal>
0.0000

> <Gold.Chemscore.Lipo>
52.9218

> <Gold.Chemscore.Internal_Hbond>
0.0000

> <Gold.Chemscore.DEClash>
0.0000

> <Gold.Chemscore.DEInternal>
1.8387

> <Gold.Chemscore.Rot>
1.5548

> <Gold.Chemscore.Internal.Correction>
   9.000000E+99

> <Gold.Chemscore.Hbonds>
donor molecule, donor type, donor heavy atom, donor atom, acceptor molecule, acceptor atom, score
      L1  H     5    25       P1  7948  0.85
      L1  H     8    26       P1  7948  0.79
      P1  H  7989  7998       L1    16  0.03

> <Gold.Chemscore.Hbond.Weighted>
-9.1809

> <Gold.Chemscore.Metal.Weighted>
-0.0000

> <Gold.Chemscore.Lipo.Weighted>
-6.1918

> <Gold.Chemscore.Internal_Hbond.Weighted>
0.0000

> <Gold.Chemscore.DEClash.Weighted>
0.0000

> <Gold.Chemscore.DEInternal.Weighted>
1.8387

> <Gold.Chemscore.Rot.Weighted>
3.9802

> <Gold.Chemscore.Internal.Correction.Weighted>
   9.000000E+99

> <Gold.Protein.RotatedTorsions>
[ 6907 6896 6895 6894 ] final -125.59 input  -60.11 | X-H torsion
[ 7974 7965 7964 7962 ] final   -3.22 input  175.53 | X-H torsion
[ 8008 7997 7996 7995 ] final -171.49 input   59.86 | X-H torsion
[ 10167 10162 10161 10158 ] final   23.63 input  -65.29 | X-H torsion
[ 10718 10713 10712 10709 ] final -150.42 input   66.30 | X-H torsion
[ 10763 10752 10751 10750 ] final  -65.59 input  -60.55 | X-H torsion
[ 11005 11000 10999 10996 ] final -137.23 input  -57.11 | X-H torsion

> <Gold.Protein.ActiveResidues>
 VAL166  LYS551  ARG553  GLY616  TRP617  ASP618  TYR619  PRO620  LYS621  CYS622 
 ASP623  PHE694  ASN695  SER759  ASP760  ASP761  ALA762  ILE779  LEU786  VAL792 
 PHE793  MET794  SER795  GLU796  ALA797  LYS798  CYS799  TRP800  GLU811  SER814 

> <Gold.Protein.RotatedAtoms>
  150.8883  133.7277  159.2911 H   0  0  0  0  0  0  0  0  0  0  0  0  # atno 6907 bound_to 6896
  151.4836  135.1052  159.9794 H   0  0  0  0  0  0  0  0  0  0  0  0  # atno 6908 bound_to 6896
  152.4804  133.8194  159.7101 H   0  0  0  0  0  0  0  0  0  0  0  0  # atno 6909 bound_to 6896
  146.2393  140.1689  142.8332 H   0  0  0  0  0  0  0  0  0  0  0  0  # atno 7974 bound_to 7965
  155.9322  140.1093  157.1123 H   0  0  0  0  0  0  0  0  0  0  0  0  # atno 8008 bound_to 7997
  154.4073  140.1235  156.4883 H   0  0  0  0  0  0  0  0  0  0  0  0  # atno 8009 bound_to 7997
  155.7065  140.3471  155.4958 H   0  0  0  0  0  0  0  0  0  0  0  0  # atno 8010 bound_to 7997
  140.5253  143.9933  150.6437 H   0  0  0  0  0  0  0  0  0  0  0  0  # atno 10167 bound_to 10162
  156.4460  130.8144  151.2375 H   0  0  0  0  0  0  0  0  0  0  0  0  # atno 10718 bound_to 10713
  154.3473  135.6144  153.5625 H   0  0  0  0  0  0  0  0  0  0  0  0  # atno 10763 bound_to 10752
  152.9800  135.5784  154.4784 H   0  0  0  0  0  0  0  0  0  0  0  0  # atno 10764 bound_to 10752
  154.4498  135.2852  155.1766 H   0  0  0  0  0  0  0  0  0  0  0  0  # atno 10765 bound_to 10752
  140.8731  134.2026  157.4639 H   0  0  0  0  0  0  0  0  0  0  0  0  # atno 11005 bound_to 11000
  145.0028  140.8646  143.5271 LP  0  0  0  0  0  0  0  0  0  0  0  0  # atno 17320 bound_to 7965
  145.1711  139.2404  143.5341 LP  0  0  0  0  0  0  0  0  0  0  0  0  # atno 17321 bound_to 7965
  140.3293  143.3088  152.0704 LP  0  0  0  0  0  0  0  0  0  0  0  0  # atno 17342 bound_to 10162
  139.4936  144.6520  151.6655 LP  0  0  0  0  0  0  0  0  0  0  0  0  # atno 17343 bound_to 10162
  157.7505  131.0153  150.3499 LP  0  0  0  0  0  0  0  0  0  0  0  0  # atno 17370 bound_to 10713
  156.3867  130.3890  149.7060 LP  0  0  0  0  0  0  0  0  0  0  0  0  # atno 17371 bound_to 10713
  139.8713  134.9783  156.4992 LP  0  0  0  0  0  0  0  0  0  0  0  0  # atno 17394 bound_to 11000
  140.8550  133.8103  155.9207 LP  0  0  0  0  0  0  0  0  0  0  0  0  # atno 17395 bound_to 11000

$$$$
