AV-unprocessed.smi:2195|AV-procd|sdf|8906|dock6
  -GOLD-   2272012123D 1   1.00000     0.00000
 Structure written by MMmdl.
 40 42  0  0  0  0  0  0  0  0  2 V2000
  151.5193  144.6628  160.5773 C   0  0  0  0  0  0  0  0  0  0  0  0
  152.3670  143.4074  160.5971 C   0  0  0  0  0  0  0  0  0  0  0  0
  152.6538  142.7195  159.4014 C   0  0  0  0  0  0  0  0  0  0  0  0
  153.4432  141.5537  159.4295 C   0  0  0  0  0  0  0  0  0  0  0  0
  153.9569  141.0577  160.6455 C   0  0  0  0  0  0  0  0  0  0  0  0
  154.7202  139.9121  160.5800 O   0  0  0  0  0  0  0  0  0  0  0  0
  155.6760  139.6779  161.6069 C   0  0  0  0  0  0  0  0  0  0  0  0
  155.0116  138.9480  162.7861 C   0  0  2  0  0  0  0  0  0  0  0  0
  156.0054  138.5562  163.7125 O   0  0  0  0  0  0  0  0  0  0  0  0
  154.1283  137.7592  162.3551 C   0  0  0  0  0  0  0  0  0  0  0  0
  154.1185  136.6678  163.3391 N   0  0  0  0  0  0  0  0  0  0  0  0
  153.7828  136.6898  164.6575 C   0  0  0  0  0  0  0  0  0  0  0  0
  153.9274  135.4249  165.1408 N   0  3  0  0  0  0  0  0  0  0  0  0
  154.3635  134.5815  164.1168 C   0  0  0  0  0  0  0  0  0  0  0  0
  154.6501  133.2198  164.1182 C   0  0  0  0  0  0  0  0  0  0  0  0
  155.0788  132.6618  162.8958 C   0  0  0  0  0  0  0  0  0  0  0  0
  155.2101  133.4506  161.7344 C   0  0  0  0  0  0  0  0  0  0  0  0
  154.9160  134.8299  161.7442 C   0  0  0  0  0  0  0  0  0  0  0  0
  154.4905  135.3738  162.9558 C   0  0  0  0  0  0  0  0  0  0  0  0
  153.6624  141.7534  161.8453 C   0  0  0  0  0  0  0  0  0  0  0  0
  152.8724  142.9193  161.8179 C   0  0  0  0  0  0  0  0  0  0  0  0
  151.3074  144.9833  159.5569 H   0  0  0  0  0  0  0  0  0  0  0  0
  152.0346  145.4770  161.0876 H   0  0  0  0  0  0  0  0  0  0  0  0
  150.5702  144.4855  161.0836 H   0  0  0  0  0  0  0  0  0  0  0  0
  152.2709  143.0815  158.4585 H   0  0  0  0  0  0  0  0  0  0  0  0
  153.6581  141.0344  158.5071 H   0  0  0  0  0  0  0  0  0  0  0  0
  156.5232  139.1015  161.2312 H   0  0  0  0  0  0  0  0  0  0  0  0
  156.0585  140.6363  161.9617 H   0  0  0  0  0  0  0  0  0  0  0  0
  154.3836  139.6709  163.3081 H   0  0  0  0  0  0  0  0  0  0  0  0
  156.2322  139.3039  164.2443 H   0  0  0  0  0  0  0  0  0  0  0  0
  153.0965  138.0921  162.2368 H   0  0  0  0  0  0  0  0  0  0  0  0
  154.4324  137.3617  161.3863 H   0  0  0  0  0  0  0  0  0  0  0  0
  153.4579  137.5543  165.2185 H   0  0  0  0  0  0  0  0  0  0  0  0
  154.5524  132.6136  165.0069 H   0  0  0  0  0  0  0  0  0  0  0  0
  155.3130  131.6084  162.8482 H   0  0  0  0  0  0  0  0  0  0  0  0
  155.5447  132.9889  160.8167 H   0  0  0  0  0  0  0  0  0  0  0  0
  155.0263  135.4262  160.8505 H   0  0  0  0  0  0  0  0  0  0  0  0
  154.0305  141.4137  162.8015 H   0  0  0  0  0  0  0  0  0  0  0  0
  152.6548  143.4387  162.7397 H   0  0  0  0  0  0  0  0  0  0  0  0
  153.7410  135.1597  166.0995 H   0  0  0  0  0  0  0  0  0  0  0  0
  1  2  1  0  0  0  0
  1 22  1  0  0  0  0
  1 23  1  0  0  0  0
  1 24  1  0  0  0  0
  2 21  1  0  0  0  0
  2  3  2  0  0  0  0
  3  4  1  0  0  0  0
  3 25  1  0  0  0  0
  4  5  2  0  0  0  0
  4 26  1  0  0  0  0
  5  6  1  0  0  0  0
  5 20  1  0  0  0  0
  6  7  1  0  0  0  0
  7  8  1  0  0  0  0
  7 27  1  0  0  0  0
  7 28  1  0  0  0  0
  8  9  1  0  0  0  0
  8 10  1  0  0  0  0
  8 29  1  0  0  0  0
  9 30  1  0  0  0  0
 10 11  1  0  0  0  0
 10 31  1  0  0  0  0
 10 32  1  0  0  0  0
 11 19  1  0  0  0  0
 11 12  1  0  0  0  0
 12 13  2  0  0  0  0
 12 33  1  0  0  0  0
 13 14  1  0  0  0  0
 13 40  1  0  0  0  0
 14 19  2  0  0  0  0
 14 15  1  0  0  0  0
 15 16  2  0  0  0  0
 15 34  1  0  0  0  0
 16 17  1  0  0  0  0
 16 35  1  0  0  0  0
 17 18  2  0  0  0  0
 17 36  1  0  0  0  0
 18 19  1  0  0  0  0
 18 37  1  0  0  0  0
 20 21  2  0  0  0  0
 20 38  1  0  0  0  0
 21 39  1  0  0  0  0
M  CHG  1  13   1
M  END
> <s_m_source_file>
AV-unprocessed.smi

> <i_m_source_file_index>
2195

> <i_lp_mmshare_version>
43012

> <i_f3d_flags>
0

> <s_epik_input>
W0NIM11jMVtjSF1bY0hdYyhbY0hdW2NIXTEpT1tDSDJdW0NASF0oW09IXSlbQ0gyXW4oW2NIXW4yKWMoYzIzKVtjSF1bY0hdW2NIXVtjSF0z

> <s_epik_cmdline>
J2VwaWtfcHl0aG9uJywgJy1waCcsICc3LjAnLCAnLXRuJywgJzgnLCAnLW1hJywgJzIwMCcsICctbWV0YWxfYmluZGluZycsICctaW1hZScsICc8aW5maWxlLm1hZT4nLCAnLW9tYWUnLCAnPG91dGZpbGUubWFlPic=

> <r_lp_tautomer_probability>
1

> <r_epik_Ionization_Penalty>
1.3774

> <r_epik_Ionization_Penalty_Charging>
1.37739

> <r_epik_Ionization_Penalty_Neutral>
2.3993e-06

> <r_epik_State_Penalty>
1.45762

> <r_epik_Charging_Adjusted_Penalty>
2.83501

> <i_epik_Tot_Q>
1

> <i_epik_Tot_abs_Q>
1

> <r_epik_Metal_State_Penalty>
5.49752

> <b_epik_Metal_Only>
0

> <s_lp_Force_Field>
OPLS_2005

> <r_lp_Energy>
21.3932

> <b_lp_Chiralities_Consistent>
1

> <s_lp_Variant>
AV-unprocessed.smi:2195-3

> <Gold.Version>
5.8.1

> <Gold.Id.Protein>
6NUR|6NUR_protein|mol2

> <Gold.PLP.Fitness>
48.0874

> <Gold.PLP.PLP>
-50.1264

> <Gold.PLP.part.hbond>
-1.0000

> <Gold.PLP.part.metal>
0.0000

> <Gold.PLP.part.buried>
-5.2096

> <Gold.PLP.part.nonpolar>
-44.8862

> <Gold.PLP.part.repulsive>
0.1342

> <Gold.PLP.ligand.clash>
0.0000

> <Gold.PLP.ligand.torsion>
1.0461

> <Gold.PLP.Chemscore.Hbond>
0.0000

> <Gold.PLP.Chemscore.CHOScore>
0.0000

> <Gold.PLP.Chemscore.Metal>
0.0000

> <Gold.PLP.Chemscore.Internal.Correction>
0.0533

> <Gold.Rescore>
     Score         DG    S(hbond)    S(metal)    S(lipo)     H(rot)  DE(clash)    DE(int)     intcor
     13.39     -14.41       0.00        0.00     126.05       2.27       0.04       0.98       ----

> <Gold.Chemscore.Fitness>
13.3905

> <Gold.Chemscore.DG>
-14.4104

> <Gold.Chemscore.ZeroCoef>
-5.4800

> <Gold.Chemscore.Hbond>
0.0000

> <Gold.Chemscore.Metal>
0.0000

> <Gold.Chemscore.Lipo>
126.0465

> <Gold.Chemscore.Internal_Hbond>
0.0000

> <Gold.Chemscore.DEClash>
0.0424

> <Gold.Chemscore.DEInternal>
0.9774

> <Gold.Chemscore.Rot>
2.2723

> <Gold.Chemscore.Internal.Correction>
   9.000000E+99

> <Gold.Chemscore.Hbond.Weighted>
-0.0000

> <Gold.Chemscore.Metal.Weighted>
-0.0000

> <Gold.Chemscore.Lipo.Weighted>
-14.7474

> <Gold.Chemscore.Internal_Hbond.Weighted>
0.0000

> <Gold.Chemscore.DEClash.Weighted>
0.0424

> <Gold.Chemscore.DEInternal.Weighted>
0.9774

> <Gold.Chemscore.Rot.Weighted>
5.8170

> <Gold.Chemscore.Internal.Correction.Weighted>
   9.000000E+99

> <Gold.Protein.RotatedTorsions>
[ 6907 6896 6895 6894 ] final  112.63 input  -60.11 | X-H torsion
[ 7974 7965 7964 7962 ] final -162.41 input  175.53 | X-H torsion
[ 8008 7997 7996 7995 ] final  146.10 input   59.86 | X-H torsion
[ 10167 10162 10161 10158 ] final  169.38 input  -65.29 | X-H torsion
[ 10718 10713 10712 10709 ] final  -37.20 input   66.30 | X-H torsion
[ 10763 10752 10751 10750 ] final  151.87 input  -60.55 | X-H torsion
[ 11005 11000 10999 10996 ] final  -72.85 input  -57.11 | X-H torsion

> <Gold.Protein.ActiveResidues>
 VAL166  LYS551  ARG553  GLY616  TRP617  ASP618  TYR619  PRO620  LYS621  CYS622 
 ASP623  PHE694  ASN695  SER759  ASP760  ASP761  ALA762  ILE779  LEU786  VAL792 
 PHE793  MET794  SER795  GLU796  ALA797  LYS798  CYS799  TRP800  GLU811  SER814 

> <Gold.Protein.RotatedAtoms>
  152.4905  133.8488  159.7190 H   0  0  0  0  0  0  0  0  0  0  0  0  # atno 6907 bound_to 6896
  150.9031  133.7084  159.2880 H   0  0  0  0  0  0  0  0  0  0  0  0  # atno 6908 bound_to 6896
  151.4518  135.1034  159.9752 H   0  0  0  0  0  0  0  0  0  0  0  0  # atno 6909 bound_to 6896
  144.7358  140.3257  143.6162 H   0  0  0  0  0  0  0  0  0  0  0  0  # atno 7974 bound_to 7965
  156.2865  140.2191  156.5322 H   0  0  0  0  0  0  0  0  0  0  0  0  # atno 8008 bound_to 7997
  154.7439  140.0485  157.0857 H   0  0  0  0  0  0  0  0  0  0  0  0  # atno 8009 bound_to 7997
  155.0195  140.3122  155.4802 H   0  0  0  0  0  0  0  0  0  0  0  0  # atno 8010 bound_to 7997
  139.4991  144.3712  151.9722 H   0  0  0  0  0  0  0  0  0  0  0  0  # atno 10167 bound_to 10162
  156.3180  130.4261  149.7987 H   0  0  0  0  0  0  0  0  0  0  0  0  # atno 10718 bound_to 10713
  154.1109  135.2839  155.3231 H   0  0  0  0  0  0  0  0  0  0  0  0  # atno 10763 bound_to 10752
  154.6491  135.5375  153.7883 H   0  0  0  0  0  0  0  0  0  0  0  0  # atno 10764 bound_to 10752
  153.0346  135.6505  154.1267 H   0  0  0  0  0  0  0  0  0  0  0  0  # atno 10765 bound_to 10752
  141.1614  133.6859  156.7121 H   0  0  0  0  0  0  0  0  0  0  0  0  # atno 11005 bound_to 11000
  145.7523  139.1798  143.2314 LP  0  0  0  0  0  0  0  0  0  0  0  0  # atno 17320 bound_to 7965
  146.1051  140.7497  142.9530 LP  0  0  0  0  0  0  0  0  0  0  0  0  # atno 17321 bound_to 7965
  140.3148  144.3496  150.6024 LP  0  0  0  0  0  0  0  0  0  0  0  0  # atno 17342 bound_to 10162
  140.5770  143.2175  151.7498 LP  0  0  0  0  0  0  0  0  0  0  0  0  # atno 17343 bound_to 10162
  156.5306  130.8256  151.3235 LP  0  0  0  0  0  0  0  0  0  0  0  0  # atno 17370 bound_to 10713
  157.7405  130.9853  150.2386 LP  0  0  0  0  0  0  0  0  0  0  0  0  # atno 17371 bound_to 10713
  140.2879  134.8264  157.3991 LP  0  0  0  0  0  0  0  0  0  0  0  0  # atno 17394 bound_to 11000
  140.1373  134.5017  155.8058 LP  0  0  0  0  0  0  0  0  0  0  0  0  # atno 17395 bound_to 11000

$$$$
