AV-unprocessed.smi:3275|AV-procd|sdf|12531|dock2
  -GOLD-   2272018443D 1   1.00000     0.00000
 Structure written by MMmdl.
 35 36  0  0  0  0  0  0  0  0  2 V2000
  157.1181  138.5487  157.6011 O   0  0  0  0  0  0  0  0  0  0  0  0
  156.7590  137.9785  158.8410 C   0  0  0  0  0  0  0  0  0  0  0  0
  156.2398  139.0672  159.7857 C   0  0  0  0  0  0  0  0  0  0  0  0
  155.0493  138.6020  160.4043 O   0  0  0  0  0  0  0  0  0  0  0  0
  154.1919  139.6307  160.8817 C   0  0  1  0  0  0  0  0  0  0  0  0
  154.8878  140.4834  161.9637 C   0  0  0  0  0  0  0  0  0  0  0  0
  154.0098  141.6866  162.3450 C   0  0  0  0  0  0  0  0  0  0  0  0
  153.6218  142.5055  161.1027 C   0  0  0  0  0  0  0  0  0  0  0  0
  153.0032  141.6482  160.0949 N   0  0  0  0  0  0  0  0  0  0  0  0
  152.3229  142.3542  159.0864 C   0  0  0  0  0  0  0  0  0  0  0  0
  152.5563  143.7348  158.8648 C   0  0  0  0  0  0  0  0  0  0  0  0
  151.8455  144.4096  157.8520 C   0  0  0  0  0  0  0  0  0  0  0  0
  150.9480  143.7393  157.0998 N   0  3  0  0  0  0  0  0  0  0  0  0
  150.6909  142.4254  157.2700 C   0  0  0  0  0  0  0  0  0  0  0  0
  151.3702  141.6947  158.2664 C   0  0  0  0  0  0  0  0  0  0  0  0
  151.0384  140.0058  158.4378 Cl  0  0  0  0  0  0  0  0  0  0  0  0
  153.8167  140.5091  159.6748 C   0  0  0  0  0  0  0  0  0  0  0  0
  157.2353  137.8526  156.9729 H   0  0  0  0  0  0  0  0  0  0  0  0
  155.9953  137.2181  158.6765 H   0  0  0  0  0  0  0  0  0  0  0  0
  157.6290  137.4820  159.2708 H   0  0  0  0  0  0  0  0  0  0  0  0
  156.9919  139.2918  160.5434 H   0  0  0  0  0  0  0  0  0  0  0  0
  156.0503  139.9828  159.2254 H   0  0  0  0  0  0  0  0  0  0  0  0
  153.2762  139.1947  161.2860 H   0  0  0  0  0  0  0  0  0  0  0  0
  155.0962  139.8917  162.8545 H   0  0  0  0  0  0  0  0  0  0  0  0
  155.8497  140.8372  161.5905 H   0  0  0  0  0  0  0  0  0  0  0  0
  153.1065  141.3339  162.8445 H   0  0  0  0  0  0  0  0  0  0  0  0
  154.5328  142.3202  163.0616 H   0  0  0  0  0  0  0  0  0  0  0  0
  152.9488  143.3136  161.3907 H   0  0  0  0  0  0  0  0  0  0  0  0
  154.5089  142.9728  160.6728 H   0  0  0  0  0  0  0  0  0  0  0  0
  153.2633  144.2868  159.4660 H   0  0  0  0  0  0  0  0  0  0  0  0
  151.9655  145.4591  157.6254 H   0  0  0  0  0  0  0  0  0  0  0  0
  149.9566  141.9971  156.6037 H   0  0  0  0  0  0  0  0  0  0  0  0
  154.7261  140.8696  159.1925 H   0  0  0  0  0  0  0  0  0  0  0  0
  153.2724  139.9152  158.9392 H   0  0  0  0  0  0  0  0  0  0  0  0
  150.4439  144.2460  156.3715 H   0  0  0  0  0  0  0  0  0  0  0  0
  1  2  1  0  0  0  0
  1 18  1  0  0  0  0
  2  3  1  0  0  0  0
  2 19  1  0  0  0  0
  2 20  1  0  0  0  0
  3  4  1  0  0  0  0
  3 21  1  0  0  0  0
  3 22  1  0  0  0  0
  4  5  1  0  0  0  0
  5 17  1  0  0  0  0
  5  6  1  0  0  0  0
  5 23  1  0  0  0  0
  6  7  1  0  0  0  0
  6 24  1  0  0  0  0
  6 25  1  0  0  0  0
  7  8  1  0  0  0  0
  7 26  1  0  0  0  0
  7 27  1  0  0  0  0
  8  9  1  0  0  0  0
  8 28  1  0  0  0  0
  8 29  1  0  0  0  0
  9 10  1  0  0  0  0
  9 17  1  0  0  0  0
 10 15  1  0  0  0  0
 10 11  2  0  0  0  0
 11 12  1  0  0  0  0
 11 30  1  0  0  0  0
 12 13  2  0  0  0  0
 12 31  1  0  0  0  0
 13 14  1  0  0  0  0
 13 35  1  0  0  0  0
 14 15  2  0  0  0  0
 14 32  1  0  0  0  0
 15 16  1  0  0  0  0
 17 33  1  0  0  0  0
 17 34  1  0  0  0  0
M  CHG  1  13   1
M  END
> <s_m_source_file>
AV-unprocessed.smi

> <i_m_source_file_index>
3275

> <i_lp_mmshare_version>
43012

> <i_f3d_flags>
0

> <s_epik_input>
W09IXVtDSDJdW0NIMl1PW0NAQEhdMVtDSDJdW0NIMl1bQ0gyXU4oW0NIMl0xKWMyW2NIXVtjSF1uW2NIXWMyQ2w=

> <s_epik_cmdline>
J2VwaWtfcHl0aG9uJywgJy1waCcsICc3LjAnLCAnLXRuJywgJzgnLCAnLW1hJywgJzIwMCcsICctbWV0YWxfYmluZGluZycsICctaW1hZScsICc8aW5maWxlLm1hZT4nLCAnLW9tYWUnLCAnPG91dGZpbGUubWFlPic=

> <r_lp_tautomer_probability>
1

> <r_epik_Ionization_Penalty>
0.0778579

> <r_epik_Ionization_Penalty_Charging>
0.0778578

> <r_epik_Ionization_Penalty_Neutral>
8.80348e-08

> <r_epik_State_Penalty>
0.0687871

> <r_epik_Charging_Adjusted_Penalty>
0.146645

> <i_epik_Tot_Q>
1

> <i_epik_Tot_abs_Q>
1

> <r_epik_Metal_State_Penalty>
2.85646

> <b_epik_Metal_Only>
0

> <s_lp_Force_Field>
OPLS_2005

> <r_lp_Energy>
26.1135

> <b_lp_Chiralities_Consistent>
1

> <s_lp_Variant>
AV-unprocessed.smi:3275-2

> <Gold.Version>
5.8.1

> <Gold.Id.Protein>
6NUR|6NUR_protein|mol2

> <Gold.PLP.Fitness>
44.2317

> <Gold.PLP.PLP>
-36.3349

> <Gold.PLP.part.hbond>
-3.0000

> <Gold.PLP.part.metal>
0.0000

> <Gold.PLP.part.buried>
-4.2629

> <Gold.PLP.part.nonpolar>
-29.4478

> <Gold.PLP.part.repulsive>
0.0042

> <Gold.PLP.ligand.clash>
0.0000

> <Gold.PLP.ligand.torsion>
0.6860

> <Gold.PLP.Chemscore.Hbond>
2.9840

> <Gold.PLP.Chemscore.CHOScore>
0.0000

> <Gold.PLP.Chemscore.Metal>
0.0000

> <Gold.Chemscore.Hbonds>
donor molecule, donor type, donor heavy atom, donor atom, acceptor molecule, acceptor atom, score
      L1  H    13    35       P1  8028  1.98
      P1  H  7997  8008       L1     1  0.99

> <Gold.PLP.Chemscore.Internal.Correction>
0.3168

> <Gold.Rescore>
     Score         DG    S(hbond)    S(metal)    S(lipo)     H(rot)  DE(clash)    DE(int)     intcor
     18.05     -18.90       1.84        0.00     109.06       2.14       0.12       0.74       ----

> <Gold.Chemscore.Fitness>
18.0460

> <Gold.Chemscore.DG>
-18.9049

> <Gold.Chemscore.ZeroCoef>
-5.4800

> <Gold.Chemscore.Hbond>
1.8392

> <Gold.Chemscore.Metal>
0.0000

> <Gold.Chemscore.Lipo>
109.0620

> <Gold.Chemscore.Internal_Hbond>
0.0000

> <Gold.Chemscore.DEClash>
0.1228

> <Gold.Chemscore.DEInternal>
0.7362

> <Gold.Chemscore.Rot>
2.1400

> <Gold.Chemscore.Internal.Correction>
   9.000000E+99

> <Gold.Chemscore.Hbonds>
donor molecule, donor type, donor heavy atom, donor atom, acceptor molecule, acceptor atom, score
      L1  H    13    35       P1  8028  0.93
      P1  H  7997  8008       L1     1  0.83

> <Gold.Chemscore.Hbond.Weighted>
-6.1430

> <Gold.Chemscore.Metal.Weighted>
-0.0000

> <Gold.Chemscore.Lipo.Weighted>
-12.7603

> <Gold.Chemscore.Internal_Hbond.Weighted>
0.0000

> <Gold.Chemscore.DEClash.Weighted>
0.1228

> <Gold.Chemscore.DEInternal.Weighted>
0.7362

> <Gold.Chemscore.Rot.Weighted>
5.4783

> <Gold.Chemscore.Internal.Correction.Weighted>
   9.000000E+99

> <Gold.Protein.RotatedTorsions>
[ 6907 6896 6895 6894 ] final  179.43 input  -60.11 | X-H torsion
[ 7974 7965 7964 7962 ] final  -59.19 input  175.53 | X-H torsion
[ 8008 7997 7996 7995 ] final  175.24 input   59.86 | X-H torsion
[ 10167 10162 10161 10158 ] final   37.79 input  -65.29 | X-H torsion
[ 10718 10713 10712 10709 ] final -135.34 input   66.30 | X-H torsion
[ 10763 10752 10751 10750 ] final -131.85 input  -60.55 | X-H torsion
[ 11005 11000 10999 10996 ] final  130.85 input  -57.11 | X-H torsion

> <Gold.Protein.ActiveResidues>
 VAL166  LYS551  ARG553  GLY616  TRP617  ASP618  TYR619  PRO620  LYS621  CYS622 
 ASP623  PHE694  ASN695  SER759  ASP760  ASP761  ALA762  ILE779  LEU786  VAL792 
 PHE793  MET794  SER795  GLU796  ALA797  LYS798  CYS799  TRP800  GLU811  SER814 

> <Gold.Protein.RotatedAtoms>
  151.6717  133.3314  159.3197 H   0  0  0  0  0  0  0  0  0  0  0  0  # atno 6907 bound_to 6896
  150.7864  134.6856  159.6478 H   0  0  0  0  0  0  0  0  0  0  0  0  # atno 6908 bound_to 6896
  152.3935  134.6407  160.0150 H   0  0  0  0  0  0  0  0  0  0  0  0  # atno 6909 bound_to 6896
  145.8305  140.8483  143.0086 H   0  0  0  0  0  0  0  0  0  0  0  0  # atno 7974 bound_to 7965
  156.0891  140.1414  156.9615 H   0  0  0  0  0  0  0  0  0  0  0  0  # atno 8008 bound_to 7997
  154.4631  140.0936  156.6994 H   0  0  0  0  0  0  0  0  0  0  0  0  # atno 8009 bound_to 7997
  155.4949  140.3449  155.4363 H   0  0  0  0  0  0  0  0  0  0  0  0  # atno 8010 bound_to 7997
  140.3999  144.1738  150.6133 H   0  0  0  0  0  0  0  0  0  0  0  0  # atno 10167 bound_to 10162
  156.2651  130.7232  151.1180 H   0  0  0  0  0  0  0  0  0  0  0  0  # atno 10718 bound_to 10713
  154.8748  135.3817  154.4313 H   0  0  0  0  0  0  0  0  0  0  0  0  # atno 10763 bound_to 10752
  153.5007  135.7030  153.5839 H   0  0  0  0  0  0  0  0  0  0  0  0  # atno 10764 bound_to 10752
  153.4172  135.3910  155.2054 H   0  0  0  0  0  0  0  0  0  0  0  0  # atno 10765 bound_to 10752
  139.9696  134.9581  156.9353 H   0  0  0  0  0  0  0  0  0  0  0  0  # atno 11005 bound_to 11000
  144.6740  140.0664  143.7474 LP  0  0  0  0  0  0  0  0  0  0  0  0  # atno 17320 bound_to 7965
  145.9576  139.2778  143.1174 LP  0  0  0  0  0  0  0  0  0  0  0  0  # atno 17321 bound_to 7965
  140.4751  143.2399  151.9035 LP  0  0  0  0  0  0  0  0  0  0  0  0  # atno 17342 bound_to 10162
  139.4785  144.5329  151.8641 LP  0  0  0  0  0  0  0  0  0  0  0  0  # atno 17343 bound_to 10162
  157.7264  131.0646  150.5910 LP  0  0  0  0  0  0  0  0  0  0  0  0  # atno 17370 bound_to 10713
  156.6001  130.4352  149.5901 LP  0  0  0  0  0  0  0  0  0  0  0  0  # atno 17371 bound_to 10713
  140.5322  134.0802  155.7319 LP  0  0  0  0  0  0  0  0  0  0  0  0  # atno 17394 bound_to 11000
  141.1376  133.9195  157.2400 LP  0  0  0  0  0  0  0  0  0  0  0  0  # atno 17395 bound_to 11000

$$$$
