AV-unprocessed.smi:2770|AV-procd|sdf|10661|dock3
  -GOLD-   2272015103D 1   1.00000     0.00000
 Structure written by MMmdl.
 35 36  0  0  0  0  0  0  0  0  2 V2000
  146.2473  143.0473  154.0879 C   0  0  0  0  0  0  0  0  0  0  0  0
  147.6101  142.6196  154.3645 N   0  0  0  0  0  0  0  0  0  0  0  0
  148.0149  141.3411  154.3735 C   0  0  0  0  0  0  0  0  0  0  0  0
  147.2575  140.3968  154.1466 O   0  0  0  0  0  0  0  0  0  0  0  0
  149.4933  141.1006  154.7057 C   0  0  1  0  0  0  0  0  0  0  0  0
  149.8857  141.6234  156.1063 C   0  0  0  0  0  0  0  0  0  0  0  0
  151.2713  141.2822  156.4005 N   0  0  0  0  0  0  0  0  0  0  0  0
  151.7254  141.8149  157.6140 C   0  0  0  0  0  0  0  0  0  0  0  0
  152.2789  141.0298  158.6523 C   0  0  0  0  0  0  0  0  0  0  0  0
  152.7085  141.6591  159.8389 C   0  0  0  0  0  0  0  0  0  0  0  0
  152.5788  143.0572  159.9657 C   0  0  0  0  0  0  0  0  0  0  0  0
  152.0197  143.7948  158.9009 C   0  0  0  0  0  0  0  0  0  0  0  0
  151.8451  145.2975  158.9592 C   0  0  0  0  0  0  0  0  0  0  0  0
  151.6199  143.1521  157.7808 N   0  3  0  0  0  0  0  0  0  0  0  0
  151.5396  139.8573  156.2621 C   0  0  0  0  0  0  0  0  0  0  0  0
  151.1179  139.3795  154.8629 C   0  0  0  0  0  0  0  0  0  0  0  0
  149.7462  139.6965  154.6470 O   0  0  0  0  0  0  0  0  0  0  0  0
  146.1676  144.1290  154.1964 H   0  0  0  0  0  0  0  0  0  0  0  0
  145.5444  142.5828  154.7808 H   0  0  0  0  0  0  0  0  0  0  0  0
  145.9580  142.7842  153.0698 H   0  0  0  0  0  0  0  0  0  0  0  0
  148.2911  143.3397  154.5589 H   0  0  0  0  0  0  0  0  0  0  0  0
  150.0900  141.6056  153.9435 H   0  0  0  0  0  0  0  0  0  0  0  0
  149.7637  142.7067  156.1513 H   0  0  0  0  0  0  0  0  0  0  0  0
  149.2324  141.1915  156.8662 H   0  0  0  0  0  0  0  0  0  0  0  0
  152.3745  139.9591  158.5455 H   0  0  0  0  0  0  0  0  0  0  0  0
  153.1326  141.0754  160.6427 H   0  0  0  0  0  0  0  0  0  0  0  0
  152.9041  143.5533  160.8688 H   0  0  0  0  0  0  0  0  0  0  0  0
  152.1807  145.6955  159.9174 H   0  0  0  0  0  0  0  0  0  0  0  0
  150.7956  145.5635  158.8290 H   0  0  0  0  0  0  0  0  0  0  0  0
  152.4232  145.7783  158.1694 H   0  0  0  0  0  0  0  0  0  0  0  0
  152.6012  139.6639  156.4203 H   0  0  0  0  0  0  0  0  0  0  0  0
  150.9919  139.3007  157.0240 H   0  0  0  0  0  0  0  0  0  0  0  0
  151.7350  139.8400  154.0896 H   0  0  0  0  0  0  0  0  0  0  0  0
  151.2514  138.3012  154.7768 H   0  0  0  0  0  0  0  0  0  0  0  0
  151.2173  143.7046  157.0235 H   0  0  0  0  0  0  0  0  0  0  0  0
  1  2  1  0  0  0  0
  1 18  1  0  0  0  0
  1 19  1  0  0  0  0
  1 20  1  0  0  0  0
  2  3  1  0  0  0  0
  2 21  1  0  0  0  0
  3  4  2  0  0  0  0
  3  5  1  0  0  0  0
  5 17  1  0  0  0  0
  5  6  1  0  0  0  0
  5 22  1  0  0  0  0
  6  7  1  0  0  0  0
  6 23  1  0  0  0  0
  6 24  1  0  0  0  0
  7  8  1  0  0  0  0
  7 15  1  0  0  0  0
  8 14  1  0  0  0  0
  8  9  2  0  0  0  0
  9 10  1  0  0  0  0
  9 25  1  0  0  0  0
 10 11  2  0  0  0  0
 10 26  1  0  0  0  0
 11 12  1  0  0  0  0
 11 27  1  0  0  0  0
 12 13  1  0  0  0  0
 12 14  2  0  0  0  0
 13 28  1  0  0  0  0
 13 29  1  0  0  0  0
 13 30  1  0  0  0  0
 14 35  1  0  0  0  0
 15 16  1  0  0  0  0
 15 31  1  0  0  0  0
 15 32  1  0  0  0  0
 16 17  1  0  0  0  0
 16 33  1  0  0  0  0
 16 34  1  0  0  0  0
M  CHG  1  14   1
M  END
> <s_m_source_file>
AV-unprocessed.smi

> <i_m_source_file_index>
2770

> <i_lp_mmshare_version>
43012

> <i_f3d_flags>
0

> <s_epik_input>
W0NIM11bTkhdQyg9TylbQ0BASF0xW0NIMl1OKFtDSDJdW0NIMl1PMSljMltjSF1bY0hdW2NIXWMobjIpW0NIM10=

> <s_epik_cmdline>
J2VwaWtfcHl0aG9uJywgJy1waCcsICc3LjAnLCAnLXRuJywgJzgnLCAnLW1hJywgJzIwMCcsICctbWV0YWxfYmluZGluZycsICctaW1hZScsICc8aW5maWxlLm1hZT4nLCAnLW9tYWUnLCAnPG91dGZpbGUubWFlPic=

> <r_lp_tautomer_probability>
0.999994

> <r_epik_Ionization_Penalty>
2.33902

> <r_epik_Ionization_Penalty_Charging>
2.33902

> <r_epik_Ionization_Penalty_Neutral>
5.66859e-08

> <r_epik_State_Penalty>
2.4925

> <r_epik_Charging_Adjusted_Penalty>
4.83152

> <i_epik_Tot_Q>
1

> <i_epik_Tot_abs_Q>
1

> <r_epik_Metal_State_Penalty>
2.50392

> <b_epik_Metal_Only>
0

> <s_lp_Force_Field>
OPLS_2005

> <r_lp_Energy>
23.4151

> <b_lp_Chiralities_Consistent>
1

> <s_lp_Variant>
AV-unprocessed.smi:2770-4

> <Gold.Version>
5.8.1

> <Gold.Id.Protein>
6NUR|6NUR_protein|mol2

> <Gold.PLP.Fitness>
41.7930

> <Gold.PLP.PLP>
-38.7985

> <Gold.PLP.part.hbond>
-1.0000

> <Gold.PLP.part.metal>
0.0000

> <Gold.PLP.part.buried>
-3.3317

> <Gold.PLP.part.nonpolar>
-33.7911

> <Gold.PLP.part.repulsive>
0.4598

> <Gold.PLP.ligand.clash>
0.0000

> <Gold.PLP.ligand.torsion>
0.0517

> <Gold.PLP.Chemscore.Hbond>
1.0000

> <Gold.PLP.Chemscore.CHOScore>
0.0000

> <Gold.PLP.Chemscore.Metal>
0.0000

> <Gold.Chemscore.Hbonds>
donor molecule, donor type, donor heavy atom, donor atom, acceptor molecule, acceptor atom, score
      L1  H     2    21       P1  8028  0.98

> <Gold.PLP.Chemscore.Internal.Correction>
0.0980

> <Gold.Rescore>
     Score         DG    S(hbond)    S(metal)    S(lipo)     H(rot)  DE(clash)    DE(int)     intcor
     15.77     -15.84       0.97        0.00      89.19       1.30       0.02       0.05       ----

> <Gold.Chemscore.Fitness>
15.7670

> <Gold.Chemscore.DG>
-15.8372

> <Gold.Chemscore.ZeroCoef>
-5.4800

> <Gold.Chemscore.Hbond>
0.9700

> <Gold.Chemscore.Metal>
0.0000

> <Gold.Chemscore.Lipo>
89.1946

> <Gold.Chemscore.Internal_Hbond>
0.0000

> <Gold.Chemscore.DEClash>
0.0180

> <Gold.Chemscore.DEInternal>
0.0522

> <Gold.Chemscore.Rot>
1.2963

> <Gold.Chemscore.Internal.Correction>
   9.000000E+99

> <Gold.Chemscore.Hbonds>
donor molecule, donor type, donor heavy atom, donor atom, acceptor molecule, acceptor atom, score
      L1  H     2    21       P1  8028  0.92

> <Gold.Chemscore.Hbond.Weighted>
-3.2399

> <Gold.Chemscore.Metal.Weighted>
-0.0000

> <Gold.Chemscore.Lipo.Weighted>
-10.4358

> <Gold.Chemscore.Internal_Hbond.Weighted>
0.0000

> <Gold.Chemscore.DEClash.Weighted>
0.0180

> <Gold.Chemscore.DEInternal.Weighted>
0.0522

> <Gold.Chemscore.Rot.Weighted>
3.3185

> <Gold.Chemscore.Internal.Correction.Weighted>
   9.000000E+99

> <Gold.Protein.RotatedTorsions>
[ 6907 6896 6895 6894 ] final  -87.03 input  -60.11 | X-H torsion
[ 7974 7965 7964 7962 ] final   55.80 input  175.53 | X-H torsion
[ 8008 7997 7996 7995 ] final   11.09 input   59.86 | X-H torsion
[ 10167 10162 10161 10158 ] final  153.99 input  -65.29 | X-H torsion
[ 10718 10713 10712 10709 ] final   96.45 input   66.30 | X-H torsion
[ 10763 10752 10751 10750 ] final  -85.84 input  -60.55 | X-H torsion
[ 11005 11000 10999 10996 ] final   80.44 input  -57.11 | X-H torsion

> <Gold.Protein.ActiveResidues>
 VAL166  LYS551  ARG553  GLY616  TRP617  ASP618  TYR619  PRO620  LYS621  CYS622 
 ASP623  PHE694  ASN695  SER759  ASP760  ASP761  ALA762  ILE779  LEU786  VAL792 
 PHE793  MET794  SER795  GLU796  ALA797  LYS798  CYS799  TRP800  GLU811  SER814 

> <Gold.Protein.RotatedAtoms>
  150.6866  134.2959  159.4685 H   0  0  0  0  0  0  0  0  0  0  0  0  # atno 6907 bound_to 6896
  152.0860  134.9437  160.0582 H   0  0  0  0  0  0  0  0  0  0  0  0  # atno 6908 bound_to 6896
  152.0771  133.4100  159.4522 H   0  0  0  0  0  0  0  0  0  0  0  0  # atno 6909 bound_to 6896
  145.9465  139.3934  143.0332 H   0  0  0  0  0  0  0  0  0  0  0  0  # atno 7974 bound_to 7965
  154.8023  140.2854  155.5913 H   0  0  0  0  0  0  0  0  0  0  0  0  # atno 8008 bound_to 7997
  156.2978  140.2584  156.2823 H   0  0  0  0  0  0  0  0  0  0  0  0  # atno 8009 bound_to 7997
  154.9544  140.0379  157.2149 H   0  0  0  0  0  0  0  0  0  0  0  0  # atno 8010 bound_to 7997
  139.4825  144.5225  151.7853 H   0  0  0  0  0  0  0  0  0  0  0  0  # atno 10167 bound_to 10162
  157.6926  131.0578  150.4493 H   0  0  0  0  0  0  0  0  0  0  0  0  # atno 10718 bound_to 10713
  154.6156  135.5471  153.7520 H   0  0  0  0  0  0  0  0  0  0  0  0  # atno 10763 bound_to 10752
  153.0215  135.6400  154.1514 H   0  0  0  0  0  0  0  0  0  0  0  0  # atno 10764 bound_to 10752
  154.1451  135.2906  155.3130 H   0  0  0  0  0  0  0  0  0  0  0  0  # atno 10765 bound_to 10752
  139.9134  134.7921  156.1910 H   0  0  0  0  0  0  0  0  0  0  0  0  # atno 11005 bound_to 11000
  145.8229  140.9670  143.0889 LP  0  0  0  0  0  0  0  0  0  0  0  0  # atno 17320 bound_to 7965
  144.6788  140.0064  143.7484 LP  0  0  0  0  0  0  0  0  0  0  0  0  # atno 17321 bound_to 7965
  140.4741  144.1544  150.5922 LP  0  0  0  0  0  0  0  0  0  0  0  0  # atno 17342 bound_to 10162
  140.4350  143.2551  151.9547 LP  0  0  0  0  0  0  0  0  0  0  0  0  # atno 17343 bound_to 10162
  156.4846  130.4081  149.6442 LP  0  0  0  0  0  0  0  0  0  0  0  0  # atno 17370 bound_to 10713
  156.3475  130.7414  151.2369 LP  0  0  0  0  0  0  0  0  0  0  0  0  # atno 17371 bound_to 10713
  141.0584  133.6854  156.1904 LP  0  0  0  0  0  0  0  0  0  0  0  0  # atno 17394 bound_to 11000
  140.6701  134.4877  157.5587 LP  0  0  0  0  0  0  0  0  0  0  0  0  # atno 17395 bound_to 11000

$$$$
