AV-unprocessed.smi:72|AV-procd|sdf|728|dock1
  -GOLD-   2262017 53D 1   1.00000     0.00000
 Structure written by MMmdl.
 28 29  0  0  0  0  0  0  0  0  2 V2000
  152.1103  134.5211  157.1717 N   0  0  0  0  0  0  0  0  0  0  0  0
  152.0148  135.7314  156.8314 C   0  0  0  0  0  0  0  0  0  0  0  0
  150.7112  136.3443  156.6971 N   0  0  0  0  0  0  0  0  0  0  0  0
  150.6625  137.5912  156.3407 C   0  0  0  0  0  0  0  0  0  0  0  0
  151.8704  138.3626  156.0757 N   0  0  0  0  0  0  0  0  0  0  0  0
  151.8214  139.8231  155.6617 C   0  0  1  0  0  0  0  0  0  0  0  0
  150.8490  140.0050  154.6695 O   0  0  0  0  0  0  0  0  0  0  0  0
  149.7868  140.8015  155.1796 C   0  0  2  0  0  0  0  0  0  0  0  0
  149.0078  141.4728  154.0344 C   0  0  0  0  0  0  0  0  0  0  0  0
  148.3885  140.5287  153.1851 O   0  0  0  0  0  0  0  0  0  0  0  0
  150.4692  141.7199  156.1933 C   0  0  1  0  0  0  0  0  0  0  0  0
  149.5635  142.2958  157.1166 O   0  0  0  0  0  0  0  0  0  0  0  0
  151.4832  140.7777  156.8360 C   0  0  1  0  0  0  0  0  0  0  0  0
  150.9507  140.1133  157.9728 O   0  0  0  0  0  0  0  0  0  0  0  0
  153.1364  137.7372  156.2254 C   0  0  0  0  0  0  0  0  0  0  0  0
  154.1442  138.4137  156.0183 O   0  0  0  0  0  0  0  0  0  0  0  0
  153.1801  136.4283  156.6001 N   0  5  0  0  0  0  0  0  0  0  0  0
  152.7890  140.0324  155.2028 H   0  0  0  0  0  0  0  0  0  0  0  0
  149.1110  140.1273  155.7088 H   0  0  0  0  0  0  0  0  0  0  0  0
  151.0117  142.5169  155.6839 H   0  0  0  0  0  0  0  0  0  0  0  0
  152.3849  141.3085  157.1431 H   0  0  0  0  0  0  0  0  0  0  0  0
  151.2124  134.0849  157.3213 H   0  0  0  0  0  0  0  0  0  0  0  0
  149.7228  138.1305  156.2224 H   0  0  0  0  0  0  0  0  0  0  0  0
  148.2561  142.1553  154.4317 H   0  0  0  0  0  0  0  0  0  0  0  0
  149.6903  142.0687  153.4280 H   0  0  0  0  0  0  0  0  0  0  0  0
  148.9021  140.4537  152.3955 H   0  0  0  0  0  0  0  0  0  0  0  0
  149.2398  143.1043  156.7502 H   0  0  0  0  0  0  0  0  0  0  0  0
  150.0649  140.4161  158.1063 H   0  0  0  0  0  0  0  0  0  0  0  0
  1  2  2  0  0  0  0
  1 22  1  0  0  0  0
  2 17  1  0  0  0  0
  2  3  1  0  0  0  0
  3  4  2  0  0  0  0
  4  5  1  0  0  0  0
  4 23  1  0  0  0  0
  5  6  1  0  0  0  0
  5 15  1  0  0  0  0
  6 18  1  0  0  0  0
  6 13  1  0  0  0  0
  6  7  1  0  0  0  0
  7  8  1  0  0  0  0
  8 19  1  0  0  0  0
  8  9  1  0  0  0  0
  8 11  1  0  0  0  0
  9 10  1  0  0  0  0
  9 24  1  0  0  0  0
  9 25  1  0  0  0  0
 10 26  1  0  0  0  0
 11 20  1  0  0  0  0
 11 12  1  0  0  0  0
 11 13  1  0  0  0  0
 12 27  1  0  0  0  0
 13 21  1  0  0  0  0
 13 14  1  0  0  0  0
 14 28  1  0  0  0  0
 15 16  2  0  0  0  0
 15 17  1  0  0  0  0
M  CHG  1  17  -1
M  END
> <s_m_source_file>
AV-unprocessed.smi

> <i_m_source_file_index>
72

> <i_lp_mmshare_version>
43012

> <i_f3d_flags>
0

> <s_epik_input>
W05IMl1jMW5bY0hdbihjKD1PKW4xKVtDQEBIXTJPW0NASF0oW0NIMl1bT0hdKVtDQEBIXShbT0hdKVtDQEhdMltPSF0=

> <s_epik_cmdline>
J2VwaWtfcHl0aG9uJywgJy1waCcsICc3LjAnLCAnLXRuJywgJzgnLCAnLW1hJywgJzIwMCcsICctbWV0YWxfYmluZGluZycsICctaW1hZScsICc8aW5maWxlLm1hZT4nLCAnLW9tYWUnLCAnPG91dGZpbGUubWFlPic=

> <r_lp_tautomer_probability>
7.17554e-07

> <r_epik_Ionization_Penalty>
12.8705

> <r_epik_Ionization_Penalty_Charging>
5.64144

> <r_epik_Ionization_Penalty_Neutral>
7.22905

> <r_epik_State_Penalty>
3.30104

> <r_epik_Charging_Adjusted_Penalty>
8.94249

> <i_epik_Tot_Q>
-1

> <i_epik_Tot_abs_Q>
1

> <r_epik_Metal_State_Penalty>
0.529074

> <b_epik_Metal_Only>
1

> <s_epik_Chemistry_Notes>
This compound contains an acetal/aminal-like group ( X-CH(R)-Y where X, Y are N, S, or O) that may be acid/base labile, releasing an aldehyde.

> <s_lp_Force_Field>
OPLS_2005

> <r_lp_Energy>
43.5119

> <b_lp_Chiralities_Consistent>
1

> <s_lp_Variant>
AV-unprocessed.smi:72-66

> <Gold.Version>
5.8.1

> <Gold.Id.Protein>
6NUR|6NUR_protein|mol2

> <Gold.PLP.Fitness>
39.5423

> <Gold.PLP.PLP>
-24.0940

> <Gold.PLP.part.hbond>
-5.8500

> <Gold.PLP.part.metal>
0.0000

> <Gold.PLP.part.buried>
-1.2471

> <Gold.PLP.part.nonpolar>
-17.0344

> <Gold.PLP.part.repulsive>
0.0776

> <Gold.PLP.ligand.clash>
0.0000

> <Gold.PLP.ligand.torsion>
0.3877

> <Gold.PLP.Chemscore.Hbond>
5.4000

> <Gold.PLP.Chemscore.CHOScore>
0.0000

> <Gold.PLP.Chemscore.Metal>
0.0000

> <Gold.Chemscore.Hbonds>
donor molecule, donor type, donor heavy atom, donor atom, acceptor molecule, acceptor atom, score
      L1  H    10    26       P1  7957  0.86
      L1  H    12    27       P1  8028  1.00
      P1  H  7989  7998       L1     7  1.00
      P1  H  7997  8010       L1    16  0.42
      P1  H 10752 10765       L1    17  1.30

> <Gold.PLP.Chemscore.Internal.Correction>
0.0236

> <Gold.Rescore>
     Score         DG    S(hbond)    S(metal)    S(lipo)     H(rot)  DE(clash)    DE(int)     intcor
      7.25      -9.16       3.17        0.00      29.47       4.04       0.51       1.40       ----

> <Gold.Chemscore.Fitness>
7.2534

> <Gold.Chemscore.DG>
-9.1633

> <Gold.Chemscore.ZeroCoef>
-5.4800

> <Gold.Chemscore.Hbond>
3.1673

> <Gold.Chemscore.Metal>
0.0000

> <Gold.Chemscore.Lipo>
29.4676

> <Gold.Chemscore.Internal_Hbond>
0.0000

> <Gold.Chemscore.DEClash>
0.5114

> <Gold.Chemscore.DEInternal>
1.3986

> <Gold.Chemscore.Rot>
4.0403

> <Gold.Chemscore.Internal.Correction>
   9.000000E+99

> <Gold.Chemscore.Hbonds>
donor molecule, donor type, donor heavy atom, donor atom, acceptor molecule, acceptor atom, score
      L1  H    10    26       P1  7957  0.84
      L1  H    12    27       P1  8028  0.97
      P1  H  7989  7998       L1     7  0.29
      P1  H  7997  8010       L1    16  0.42
      P1  H 10752 10765       L1    17  0.05

> <Gold.Chemscore.Hbond.Weighted>
-10.5787

> <Gold.Chemscore.Metal.Weighted>
-0.0000

> <Gold.Chemscore.Lipo.Weighted>
-3.4477

> <Gold.Chemscore.Internal_Hbond.Weighted>
0.0000

> <Gold.Chemscore.DEClash.Weighted>
0.5114

> <Gold.Chemscore.DEInternal.Weighted>
1.3986

> <Gold.Chemscore.Rot.Weighted>
10.3431

> <Gold.Chemscore.Internal.Correction.Weighted>
   9.000000E+99

> <Gold.Protein.RotatedTorsions>
[ 6907 6896 6895 6894 ] final -160.26 input  -60.11 | X-H torsion
[ 7974 7965 7964 7962 ] final    3.02 input  175.53 | X-H torsion
[ 8008 7997 7996 7995 ] final   82.76 input   59.86 | X-H torsion
[ 10167 10162 10161 10158 ] final  -72.01 input  -65.29 | X-H torsion
[ 10718 10713 10712 10709 ] final  -27.57 input   66.30 | X-H torsion
[ 10763 10752 10751 10750 ] final -113.72 input  -60.55 | X-H torsion
[ 11005 11000 10999 10996 ] final  -86.47 input  -57.11 | X-H torsion

> <Gold.Protein.ActiveResidues>
 VAL166  LYS551  ARG553  GLY616  TRP617  ASP618  TYR619  PRO620  LYS621  CYS622 
 ASP623  PHE694  ASN695  SER759  ASP760  ASP761  ALA762  ILE779  LEU786  VAL792 
 PHE793  MET794  SER795  GLU796  ALA797  LYS798  CYS799  TRP800  GLU811  SER814 

> <Gold.Protein.RotatedAtoms>
  151.3464  133.3942  159.2675 H   0  0  0  0  0  0  0  0  0  0  0  0  # atno 6907 bound_to 6896
  150.9837  134.9187  159.7869 H   0  0  0  0  0  0  0  0  0  0  0  0  # atno 6908 bound_to 6896
  152.5225  134.3428  159.9275 H   0  0  0  0  0  0  0  0  0  0  0  0  # atno 6909 bound_to 6896
  146.2445  140.0749  142.8360 H   0  0  0  0  0  0  0  0  0  0  0  0  # atno 7974 bound_to 7965
  155.9149  140.3425  155.6127 H   0  0  0  0  0  0  0  0  0  0  0  0  # atno 8008 bound_to 7997
  155.7343  140.0799  157.2293 H   0  0  0  0  0  0  0  0  0  0  0  0  # atno 8009 bound_to 7997
  154.4061  140.1582  156.2532 H   0  0  0  0  0  0  0  0  0  0  0  0  # atno 8010 bound_to 7997
  140.5227  143.2330  151.7401 H   0  0  0  0  0  0  0  0  0  0  0  0  # atno 10167 bound_to 10162
  156.4364  130.4455  149.7082 H   0  0  0  0  0  0  0  0  0  0  0  0  # atno 10718 bound_to 10713
  154.8408  135.4444  154.1393 H   0  0  0  0  0  0  0  0  0  0  0  0  # atno 10763 bound_to 10752
  153.2582  135.6933  153.7612 H   0  0  0  0  0  0  0  0  0  0  0  0  # atno 10764 bound_to 10752
  153.6899  135.3389  155.3175 H   0  0  0  0  0  0  0  0  0  0  0  0  # atno 10765 bound_to 10752
  141.1629  133.7456  156.9166 H   0  0  0  0  0  0  0  0  0  0  0  0  # atno 11005 bound_to 11000
  145.0784  140.9204  143.4840 LP  0  0  0  0  0  0  0  0  0  0  0  0  # atno 17320 bound_to 7965
  145.0897  139.2899  143.5741 LP  0  0  0  0  0  0  0  0  0  0  0  0  # atno 17321 bound_to 7965
  139.4928  144.4231  151.9956 LP  0  0  0  0  0  0  0  0  0  0  0  0  # atno 17342 bound_to 10162
  140.3328  144.3296  150.5983 LP  0  0  0  0  0  0  0  0  0  0  0  0  # atno 17343 bound_to 10162
  156.3964  130.7653  151.2658 LP  0  0  0  0  0  0  0  0  0  0  0  0  # atno 17370 bound_to 10713
  157.7507  131.0252  150.3911 LP  0  0  0  0  0  0  0  0  0  0  0  0  # atno 17371 bound_to 10713
  140.1480  134.9249  157.2555 LP  0  0  0  0  0  0  0  0  0  0  0  0  # atno 17394 bound_to 11000
  140.2757  134.3409  155.7359 LP  0  0  0  0  0  0  0  0  0  0  0  0  # atno 17395 bound_to 11000

$$$$
