AV-unprocessed.smi:2797|AV-procd|sdf|10783|dock9
  -GOLD-   2272015223D 1   1.00000     0.00000
 Structure written by MMmdl.
 37 38  0  0  0  0  0  0  0  0  1 V2000
  145.4995  140.0487  155.1630 C   0  0  0  0  0  0  0  0  0  0  0  0
  146.7007  139.3157  154.9526 O   0  0  0  0  0  0  0  0  0  0  0  0
  147.4583  139.6230  153.7769 C   0  0  0  0  0  0  0  0  0  0  0  0
  146.7323  139.1742  152.5017 C   0  0  0  0  0  0  0  0  0  0  0  0
  146.8868  137.7389  152.2862 N   0  0  0  0  0  0  0  0  0  0  0  0
  145.8877  136.8530  152.1706 C   0  0  0  0  0  0  0  0  0  0  0  0
  144.6983  137.1488  152.2798 O   0  0  0  0  0  0  0  0  0  0  0  0
  146.3638  135.6173  151.9413 N   0  0  0  0  0  0  0  0  0  0  0  0
  145.6444  134.4040  151.7508 C   0  0  0  0  0  0  0  0  0  0  0  0
  144.3301  134.3498  151.2270 C   0  0  0  0  0  0  0  0  0  0  0  0
  143.7189  133.0924  151.0613 C   0  0  0  0  0  0  0  0  0  0  0  0
  144.3240  131.9269  151.3681 N   0  0  0  0  0  0  0  0  0  0  0  0
  145.5837  131.9736  151.8539 C   0  0  0  0  0  0  0  0  0  0  0  0
  146.2149  130.6309  152.1710 C   0  0  0  0  0  0  0  0  0  0  0  0
  146.2891  133.1827  152.0587 C   0  0  0  0  0  0  0  0  0  0  0  0
  147.9066  133.1668  152.6787 Cl  0  0  0  0  0  0  0  0  0  0  0  0
  147.8614  141.1059  153.8909 C   0  0  0  0  0  0  0  0  0  0  0  0
  149.1463  140.6735  154.5994 C   0  0  0  0  0  0  0  0  0  0  0  0
  148.9594  139.3011  153.9506 C   0  0  0  0  0  0  0  0  0  0  0  0
  145.0483  139.7213  156.0993 H   0  0  0  0  0  0  0  0  0  0  0  0
  144.7665  139.8779  154.3762 H   0  0  0  0  0  0  0  0  0  0  0  0
  145.6726  141.1198  155.2486 H   0  0  0  0  0  0  0  0  0  0  0  0
  145.6636  139.3665  152.5996 H   0  0  0  0  0  0  0  0  0  0  0  0
  147.0449  139.7515  151.6315 H   0  0  0  0  0  0  0  0  0  0  0  0
  147.8323  137.3991  152.1897 H   0  0  0  0  0  0  0  0  0  0  0  0
  147.3682  135.5197  151.9642 H   0  0  0  0  0  0  0  0  0  0  0  0
  143.7875  135.2365  150.9385 H   0  0  0  0  0  0  0  0  0  0  0  0
  142.7173  133.0210  150.6640 H   0  0  0  0  0  0  0  0  0  0  0  0
  146.4982  130.5835  153.2227 H   0  0  0  0  0  0  0  0  0  0  0  0
  147.1088  130.4809  151.5653 H   0  0  0  0  0  0  0  0  0  0  0  0
  145.5287  129.8068  151.9700 H   0  0  0  0  0  0  0  0  0  0  0  0
  148.0568  141.5670  152.9213 H   0  0  0  0  0  0  0  0  0  0  0  0
  147.1922  141.7211  154.4936 H   0  0  0  0  0  0  0  0  0  0  0  0
  150.0438  141.2090  154.2887 H   0  0  0  0  0  0  0  0  0  0  0  0
  149.0430  140.6460  155.6854 H   0  0  0  0  0  0  0  0  0  0  0  0
  149.2108  138.4624  154.5977 H   0  0  0  0  0  0  0  0  0  0  0  0
  149.4824  139.2234  152.9961 H   0  0  0  0  0  0  0  0  0  0  0  0
  1  2  1  0  0  0  0
  1 20  1  0  0  0  0
  1 21  1  0  0  0  0
  1 22  1  0  0  0  0
  2  3  1  0  0  0  0
  3 19  1  0  0  0  0
  3  4  1  0  0  0  0
  3 17  1  0  0  0  0
  4  5  1  0  0  0  0
  4 23  1  0  0  0  0
  4 24  1  0  0  0  0
  5  6  1  0  0  0  0
  5 25  1  0  0  0  0
  6  7  2  0  0  0  0
  6  8  1  0  0  0  0
  8  9  1  0  0  0  0
  8 26  1  0  0  0  0
  9 15  1  0  0  0  0
  9 10  2  0  0  0  0
 10 11  1  0  0  0  0
 10 27  1  0  0  0  0
 11 12  2  0  0  0  0
 11 28  1  0  0  0  0
 12 13  1  0  0  0  0
 13 14  1  0  0  0  0
 13 15  2  0  0  0  0
 14 29  1  0  0  0  0
 14 30  1  0  0  0  0
 14 31  1  0  0  0  0
 15 16  1  0  0  0  0
 17 18  1  0  0  0  0
 17 32  1  0  0  0  0
 17 33  1  0  0  0  0
 18 19  1  0  0  0  0
 18 34  1  0  0  0  0
 18 35  1  0  0  0  0
 19 36  1  0  0  0  0
 19 37  1  0  0  0  0
M  END
> <s_m_source_file>
AV-unprocessed.smi

> <i_m_source_file_index>
2797

> <i_lp_mmshare_version>
43012

> <i_f3d_flags>
0

> <s_epik_input>
W0NIMl0xW0NIMl1bQ0gyXUMxKE9bQ0gzXSlbQ0gyXVtOSF1DKD1PKVtOSF1jMltjSF1bY0hdbmMoW0NIM10pYzJDbA==

> <s_epik_cmdline>
J2VwaWtfcHl0aG9uJywgJy1waCcsICc3LjAnLCAnLXRuJywgJzgnLCAnLW1hJywgJzIwMCcsICctbWV0YWxfYmluZGluZycsICctaW1hZScsICc8aW5maWxlLm1hZT4nLCAnLW9tYWUnLCAnPG91dGZpbGUubWFlPic=

> <r_epik_Ionization_Penalty>
0.0099818

> <r_epik_Ionization_Penalty_Charging>
0

> <r_epik_Ionization_Penalty_Neutral>
0.0099818

> <r_epik_State_Penalty>
0.00758124

> <r_epik_Charging_Adjusted_Penalty>
0.00758124

> <i_epik_Tot_Q>
0

> <i_epik_Tot_abs_Q>
0

> <r_epik_Metal_State_Penalty>
0.00745574

> <b_epik_Metal_Only>
0

> <s_lp_Force_Field>
OPLS_2005

> <r_lp_Energy>
22.2651

> <b_lp_Chiralities_Consistent>
1

> <s_lp_Variant>
AV-unprocessed.smi:2797-1

> <Gold.Version>
5.8.1

> <Gold.Id.Protein>
6NUR|6NUR_protein|mol2

> <Gold.PLP.Fitness>
39.7843

> <Gold.PLP.PLP>
-31.5687

> <Gold.PLP.part.hbond>
-1.9731

> <Gold.PLP.part.metal>
0.0000

> <Gold.PLP.part.buried>
-1.7240

> <Gold.PLP.part.nonpolar>
-29.5045

> <Gold.PLP.part.repulsive>
1.3439

> <Gold.PLP.ligand.clash>
0.0000

> <Gold.PLP.ligand.torsion>
0.5310

> <Gold.PLP.Chemscore.Hbond>
2.0000

> <Gold.PLP.Chemscore.CHOScore>
1.0000

> <Gold.PLP.Chemscore.Metal>
0.0000

> <Gold.Chemscore.Hbonds>
donor molecule, donor type, donor heavy atom, donor atom, acceptor molecule, acceptor atom, score
      L1  H     5    25       P1  7948  1.00
      L1  H     8    26       P1  7948  1.00
      L1  C    11    28       P1 10186  1.00

> <Gold.PLP.Chemscore.Internal.Correction>
0.2776

> <Gold.Rescore>
     Score         DG    S(hbond)    S(metal)    S(lipo)     H(rot)  DE(clash)    DE(int)     intcor
     15.77     -17.40       1.93        0.00      77.54       1.41       0.27       1.36       ----

> <Gold.Chemscore.Fitness>
15.7730

> <Gold.Chemscore.DG>
-17.4049

> <Gold.Chemscore.ZeroCoef>
-5.4800

> <Gold.Chemscore.Hbond>
1.9344

> <Gold.Chemscore.Metal>
0.0000

> <Gold.Chemscore.Lipo>
77.5353

> <Gold.Chemscore.Internal_Hbond>
0.0000

> <Gold.Chemscore.DEClash>
0.2740

> <Gold.Chemscore.DEInternal>
1.3579

> <Gold.Chemscore.Rot>
1.4092

> <Gold.Chemscore.Internal.Correction>
   9.000000E+99

> <Gold.Chemscore.Hbonds>
donor molecule, donor type, donor heavy atom, donor atom, acceptor molecule, acceptor atom, score
      L1  H     5    25       P1  7948  0.97
      L1  H     8    26       P1  7948  0.95

> <Gold.Chemscore.Hbond.Weighted>
-6.4608

> <Gold.Chemscore.Metal.Weighted>
-0.0000

> <Gold.Chemscore.Lipo.Weighted>
-9.0716

> <Gold.Chemscore.Internal_Hbond.Weighted>
0.0000

> <Gold.Chemscore.DEClash.Weighted>
0.2740

> <Gold.Chemscore.DEInternal.Weighted>
1.3579

> <Gold.Chemscore.Rot.Weighted>
3.6075

> <Gold.Chemscore.Internal.Correction.Weighted>
   9.000000E+99

> <Gold.Protein.RotatedTorsions>
[ 6907 6896 6895 6894 ] final  -22.25 input  -60.11 | X-H torsion
[ 7974 7965 7964 7962 ] final  -57.51 input  175.53 | X-H torsion
[ 8008 7997 7996 7995 ] final  -94.48 input   59.86 | X-H torsion
[ 10167 10162 10161 10158 ] final -164.15 input  -65.29 | X-H torsion
[ 10718 10713 10712 10709 ] final   15.29 input   66.30 | X-H torsion
[ 10763 10752 10751 10750 ] final   71.21 input  -60.55 | X-H torsion
[ 11005 11000 10999 10996 ] final  106.32 input  -57.11 | X-H torsion

> <Gold.Protein.ActiveResidues>
 VAL166  LYS551  ARG553  GLY616  TRP617  ASP618  TYR619  PRO620  LYS621  CYS622 
 ASP623  PHE694  ASN695  SER759  ASP760  ASP761  ALA762  ILE779  LEU786  VAL792 
 PHE793  MET794  SER795  GLU796  ALA797  LYS798  CYS799  TRP800  GLU811  SER814 

> <Gold.Protein.RotatedAtoms>
  151.2214  135.0520  159.8951 H   0  0  0  0  0  0  0  0  0  0  0  0  # atno 6907 bound_to 6896
  152.5415  134.0636  159.8173 H   0  0  0  0  0  0  0  0  0  0  0  0  # atno 6908 bound_to 6896
  151.0803  133.5347  159.2653 H   0  0  0  0  0  0  0  0  0  0  0  0  # atno 6909 bound_to 6896
  145.8501  140.8358  142.9990 H   0  0  0  0  0  0  0  0  0  0  0  0  # atno 7974 bound_to 7965
  154.7490  140.0489  157.0877 H   0  0  0  0  0  0  0  0  0  0  0  0  # atno 8008 bound_to 7997
  155.0081  140.3132  155.4821 H   0  0  0  0  0  0  0  0  0  0  0  0  # atno 8009 bound_to 7997
  156.2881  140.2189  156.5194 H   0  0  0  0  0  0  0  0  0  0  0  0  # atno 8010 bound_to 7997
  139.6270  144.0512  152.1983 H   0  0  0  0  0  0  0  0  0  0  0  0  # atno 10167 bound_to 10162
  157.0514  130.6271  149.5768 H   0  0  0  0  0  0  0  0  0  0  0  0  # atno 10718 bound_to 10713
  153.0385  135.5145  154.7558 H   0  0  0  0  0  0  0  0  0  0  0  0  # atno 10763 bound_to 10752
  154.6515  135.2925  154.9984 H   0  0  0  0  0  0  0  0  0  0  0  0  # atno 10764 bound_to 10752
  154.0866  135.6656  153.4898 H   0  0  0  0  0  0  0  0  0  0  0  0  # atno 10765 bound_to 10752
  139.8812  134.9365  156.5648 H   0  0  0  0  0  0  0  0  0  0  0  0  # atno 11005 bound_to 11000
  144.6729  140.0941  143.7464 LP  0  0  0  0  0  0  0  0  0  0  0  0  # atno 17320 bound_to 7965
  145.9367  139.2641  143.1293 LP  0  0  0  0  0  0  0  0  0  0  0  0  # atno 17321 bound_to 7965
  140.0168  144.6182  150.7600 LP  0  0  0  0  0  0  0  0  0  0  0  0  # atno 17342 bound_to 10162
  140.7417  143.2821  151.3567 LP  0  0  0  0  0  0  0  0  0  0  0  0  # atno 17343 bound_to 10162
  156.0006  130.5085  150.7650 LP  0  0  0  0  0  0  0  0  0  0  0  0  # atno 17370 bound_to 10713
  157.5027  131.0920  151.0294 LP  0  0  0  0  0  0  0  0  0  0  0  0  # atno 17371 bound_to 10713
  140.8142  133.8405  155.8837 LP  0  0  0  0  0  0  0  0  0  0  0  0  # atno 17394 bound_to 11000
  140.9478  134.1818  157.4750 LP  0  0  0  0  0  0  0  0  0  0  0  0  # atno 17395 bound_to 11000

$$$$
