AV-unprocessed.smi:1213|AV-procd|sdf|5089|dock9
  -GOLD-   22720 4143D 1   1.00000     0.00000
 Structure written by MMmdl.
 36 37  0  0  0  0  0  0  0  0  3 V2000
  145.5028  138.6686  152.3410 N   0  5  0  0  0  0  0  0  0  0  0  0
  146.7955  138.8049  151.9888 C   0  0  0  0  0  0  0  0  0  0  0  0
  147.2877  138.6992  150.8672 O   0  0  0  0  0  0  0  0  0  0  0  0
  147.6946  139.1546  153.1799 C   0  0  0  0  0  0  0  0  0  0  0  0
  148.2093  137.9164  153.8165 N   0  3  2  0  0  0  0  0  0  0  0  0
  147.1232  137.0917  154.4033 C   0  0  0  0  0  0  0  0  0  0  0  0
  147.6638  135.7474  154.9212 C   0  0  0  0  0  0  0  0  0  0  0  0
  148.8097  135.9372  155.9348 C   0  0  2  0  0  0  0  0  0  0  0  0
  148.3301  136.4809  157.2052 N   0  0  0  0  0  0  0  0  0  0  0  0
  148.3445  135.8334  158.3796 C   0  0  0  0  0  0  0  0  0  0  0  0
  148.7606  134.6825  158.5137 O   0  0  0  0  0  0  0  0  0  0  0  0
  147.8496  136.6019  159.3656 N   0  0  0  0  0  0  0  0  0  0  0  0
  147.6914  136.2738  160.7378 C   0  0  0  0  0  0  0  0  0  0  0  0
  147.7583  137.1601  161.7380 N   0  0  0  0  0  0  0  0  0  0  0  0
  147.5660  136.5591  162.9847 C   0  0  0  0  0  0  0  0  0  0  0  0
  147.3533  135.2049  162.9141 C   0  0  0  0  0  0  0  0  0  0  0  0
  147.3879  134.6265  161.2698 S   0  0  0  0  0  0  0  0  0  0  0  0
  149.8883  136.8528  155.3307 C   0  0  0  0  0  0  0  0  0  0  0  0
  149.2970  138.1710  154.7993 C   0  0  0  0  0  0  0  0  0  0  0  0
  144.7745  138.8398  151.6379 H   0  0  0  0  0  0  0  0  0  0  0  0
  148.5221  139.8138  152.9087 H   0  0  0  0  0  0  0  0  0  0  0  0
  147.0760  139.7079  153.8879 H   0  0  0  0  0  0  0  0  0  0  0  0
  146.6382  137.6443  155.2096 H   0  0  0  0  0  0  0  0  0  0  0  0
  146.3596  136.8992  153.6487 H   0  0  0  0  0  0  0  0  0  0  0  0
  146.8543  135.1618  155.3579 H   0  0  0  0  0  0  0  0  0  0  0  0
  148.0308  135.1646  154.0753 H   0  0  0  0  0  0  0  0  0  0  0  0
  149.2658  134.9662  156.1369 H   0  0  0  0  0  0  0  0  0  0  0  0
  147.9734  137.4253  157.1903 H   0  0  0  0  0  0  0  0  0  0  0  0
  147.5524  137.5309  159.1062 H   0  0  0  0  0  0  0  0  0  0  0  0
  147.5958  137.1723  163.8733 H   0  0  0  0  0  0  0  0  0  0  0  0
  147.1796  134.5155  163.7269 H   0  0  0  0  0  0  0  0  0  0  0  0
  150.6658  137.0599  156.0673 H   0  0  0  0  0  0  0  0  0  0  0  0
  150.3815  136.3306  154.5098 H   0  0  0  0  0  0  0  0  0  0  0  0
  150.0946  138.7533  154.3371 H   0  0  0  0  0  0  0  0  0  0  0  0
  148.9102  138.7724  155.6233 H   0  0  0  0  0  0  0  0  0  0  0  0
  148.6106  137.3700  153.0675 H   0  0  0  0  0  0  0  0  0  0  0  0
  1  2  1  0  0  0  0
  1 20  1  0  0  0  0
  2  3  2  0  0  0  0
  2  4  1  0  0  0  0
  4  5  1  0  0  0  0
  4 21  1  0  0  0  0
  4 22  1  0  0  0  0
  5 19  1  0  0  0  0
  5  6  1  0  0  0  0
  5 36  1  0  0  0  0
  6  7  1  0  0  0  0
  6 23  1  0  0  0  0
  6 24  1  0  0  0  0
  7  8  1  0  0  0  0
  7 25  1  0  0  0  0
  7 26  1  0  0  0  0
  8  9  1  0  0  0  0
  8 18  1  0  0  0  0
  8 27  1  0  0  0  0
  9 10  1  0  0  0  0
  9 28  1  0  0  0  0
 10 11  2  0  0  0  0
 10 12  1  0  0  0  0
 12 13  1  0  0  0  0
 12 29  1  0  0  0  0
 13 17  1  0  0  0  0
 13 14  2  0  0  0  0
 14 15  1  0  0  0  0
 15 16  2  0  0  0  0
 15 30  1  0  0  0  0
 16 17  1  0  0  0  0
 16 31  1  0  0  0  0
 18 19  1  0  0  0  0
 18 32  1  0  0  0  0
 18 33  1  0  0  0  0
 19 34  1  0  0  0  0
 19 35  1  0  0  0  0
M  CHG  1   1  -1
M  CHG  1   5   1
M  END
> <s_m_source_file>
AV-unprocessed.smi

> <i_m_source_file_index>
1213

> <i_lp_mmshare_version>
43012

> <i_f3d_flags>
0

> <s_epik_input>
W05IMl1DKD1PKVtDSDJdTjFbQ0gyXVtDSDJdW0NIXShbQ0gyXVtDSDJdMSlbTkhdQyg9TylbTkhdYzJuW2NIXVtjSF1zMg==

> <s_epik_cmdline>
J2VwaWtfcHl0aG9uJywgJy1waCcsICc3LjAnLCAnLXRuJywgJzgnLCAnLW1hJywgJzIwMCcsICctbWV0YWxfYmluZGluZycsICctaW1hZScsICc8aW5maWxlLm1hZT4nLCAnLW9tYWUnLCAnPG91dGZpbGUubWFlPic=

> <r_lp_tautomer_probability>
0.999

> <r_epik_Ionization_Penalty>
5.73166

> <r_epik_Ionization_Penalty_Charging>
5.73152

> <r_epik_Ionization_Penalty_Neutral>
0.000139308

> <r_epik_State_Penalty>
6.57436

> <r_epik_Charging_Adjusted_Penalty>
12.3059

> <i_epik_Tot_Q>
0

> <i_epik_Tot_abs_Q>
2

> <r_epik_Metal_State_Penalty>
2.57084

> <b_epik_Metal_Only>
1

> <s_lp_Force_Field>
OPLS_2005

> <r_lp_Energy>
6.02298

> <b_lp_Chiralities_Consistent>
1

> <s_lp_Variant>
AV-unprocessed.smi:1213-6

> <Gold.Version>
5.8.1

> <Gold.Id.Protein>
6NUR|6NUR_protein|mol2

> <Gold.PLP.Fitness>
49.8243

> <Gold.PLP.PLP>
-30.8953

> <Gold.PLP.part.hbond>
-6.9633

> <Gold.PLP.part.metal>
0.0000

> <Gold.PLP.part.buried>
-2.5410

> <Gold.PLP.part.nonpolar>
-22.1203

> <Gold.PLP.part.repulsive>
1.7016

> <Gold.PLP.ligand.clash>
0.0000

> <Gold.PLP.ligand.torsion>
0.6287

> <Gold.PLP.Chemscore.Hbond>
6.7216

> <Gold.PLP.Chemscore.CHOScore>
0.0000

> <Gold.PLP.Chemscore.Metal>
0.0000

> <Gold.Chemscore.Hbonds>
donor molecule, donor type, donor heavy atom, donor atom, acceptor molecule, acceptor atom, score
      L1  H     1    20       P1 10171  0.98
      L1  H     5    36       P1  7948  2.00
      P1  H  6896  6907       L1    11  0.55
      P1  H  6931  6943       L1    14  1.00
      P1  H  6934  6947       L1    14  0.57
      P1  H  7954  7966       L1     3  0.86

> <Gold.PLP.Chemscore.Internal.Correction>
0.0218

> <Gold.Rescore>
     Score         DG    S(hbond)    S(metal)    S(lipo)     H(rot)  DE(clash)    DE(int)     intcor
     18.71     -21.18       4.50        0.00      50.32       2.04       0.39       2.07       ----

> <Gold.Chemscore.Fitness>
18.7142

> <Gold.Chemscore.DG>
-21.1807

> <Gold.Chemscore.ZeroCoef>
-5.4800

> <Gold.Chemscore.Hbond>
4.4978

> <Gold.Chemscore.Metal>
0.0000

> <Gold.Chemscore.Lipo>
50.3210

> <Gold.Chemscore.Internal_Hbond>
0.0000

> <Gold.Chemscore.DEClash>
0.3931

> <Gold.Chemscore.DEInternal>
2.0734

> <Gold.Chemscore.Rot>
2.0350

> <Gold.Chemscore.Internal.Correction>
   9.000000E+99

> <Gold.Chemscore.Hbonds>
donor molecule, donor type, donor heavy atom, donor atom, acceptor molecule, acceptor atom, score
      L1  H     1    20       P1 10171  0.91
      L1  H     5    36       P1  7948  1.00
      P1  H  6896  6907       L1    11  0.42
      P1  H  6931  6943       L1    14  0.58
      P1  H  6934  6947       L1    14  0.33
      P1  H  7954  7966       L1     3  0.80

> <Gold.Chemscore.Hbond.Weighted>
-15.0227

> <Gold.Chemscore.Metal.Weighted>
-0.0000

> <Gold.Chemscore.Lipo.Weighted>
-5.8876

> <Gold.Chemscore.Internal_Hbond.Weighted>
0.0000

> <Gold.Chemscore.DEClash.Weighted>
0.3931

> <Gold.Chemscore.DEInternal.Weighted>
2.0734

> <Gold.Chemscore.Rot.Weighted>
5.2096

> <Gold.Chemscore.Internal.Correction.Weighted>
   9.000000E+99

> <Gold.Protein.RotatedTorsions>
[ 6907 6896 6895 6894 ] final  -64.73 input  -60.11 | X-H torsion
[ 7974 7965 7964 7962 ] final   69.98 input  175.53 | X-H torsion
[ 8008 7997 7996 7995 ] final   64.58 input   59.86 | X-H torsion
[ 10167 10162 10161 10158 ] final  -28.46 input  -65.29 | X-H torsion
[ 10718 10713 10712 10709 ] final -103.12 input   66.30 | X-H torsion
[ 10763 10752 10751 10750 ] final  -27.87 input  -60.55 | X-H torsion
[ 11005 11000 10999 10996 ] final  -92.65 input  -57.11 | X-H torsion

> <Gold.Protein.ActiveResidues>
 VAL166  LYS551  ARG553  GLY616  TRP617  ASP618  TYR619  PRO620  LYS621  CYS622 
 ASP623  PHE694  ASN695  SER759  ASP760  ASP761  ALA762  ILE779  LEU786  VAL792 
 PHE793  MET794  SER795  GLU796  ALA797  LYS798  CYS799  TRP800  GLU811  SER814 

> <Gold.Protein.RotatedAtoms>
  150.7567  134.6258  159.6159 H   0  0  0  0  0  0  0  0  0  0  0  0  # atno 6907 bound_to 6896
  152.3551  134.6949  160.0233 H   0  0  0  0  0  0  0  0  0  0  0  0  # atno 6908 bound_to 6896
  151.7357  133.3283  159.3388 H   0  0  0  0  0  0  0  0  0  0  0  0  # atno 6909 bound_to 6896
  145.7838  139.2900  143.1250 H   0  0  0  0  0  0  0  0  0  0  0  0  # atno 7974 bound_to 7965
  155.6482  140.3497  155.4739 H   0  0  0  0  0  0  0  0  0  0  0  0  # atno 8008 bound_to 7997
  155.9870  140.1186  157.0697 H   0  0  0  0  0  0  0  0  0  0  0  0  # atno 8009 bound_to 7997
  154.4208  140.1127  156.5499 H   0  0  0  0  0  0  0  0  0  0  0  0  # atno 8010 bound_to 7997
  140.7269  143.4008  151.1269 H   0  0  0  0  0  0  0  0  0  0  0  0  # atno 10167 bound_to 10162
  156.0253  130.5452  150.7206 H   0  0  0  0  0  0  0  0  0  0  0  0  # atno 10718 bound_to 10713
  153.7391  135.6934  153.4971 H   0  0  0  0  0  0  0  0  0  0  0  0  # atno 10763 bound_to 10752
  153.2082  135.4412  155.0347 H   0  0  0  0  0  0  0  0  0  0  0  0  # atno 10764 bound_to 10752
  154.8227  135.3430  154.6917 H   0  0  0  0  0  0  0  0  0  0  0  0  # atno 10765 bound_to 10752
  141.1517  133.7835  157.0049 H   0  0  0  0  0  0  0  0  0  0  0  0  # atno 11005 bound_to 11000
  146.0047  140.8489  143.0001 LP  0  0  0  0  0  0  0  0  0  0  0  0  # atno 17320 bound_to 7965
  144.6792  140.2403  143.7344 LP  0  0  0  0  0  0  0  0  0  0  0  0  # atno 17321 bound_to 7965
  139.7627  143.8611  152.3104 LP  0  0  0  0  0  0  0  0  0  0  0  0  # atno 17342 bound_to 10162
  139.8502  144.7168  150.9223 LP  0  0  0  0  0  0  0  0  0  0  0  0  # atno 17343 bound_to 10162
  157.4823  131.0903  151.0522 LP  0  0  0  0  0  0  0  0  0  0  0  0  # atno 17370 bound_to 10713
  157.0952  130.5959  149.5448 LP  0  0  0  0  0  0  0  0  0  0  0  0  # atno 17371 bound_to 10713
  140.0915  134.9589  157.1784 LP  0  0  0  0  0  0  0  0  0  0  0  0  # atno 17394 bound_to 11000
  140.3439  134.2673  155.7208 LP  0  0  0  0  0  0  0  0  0  0  0  0  # atno 17395 bound_to 11000

$$$$
