AV-unprocessed.smi:2507|AV-procd|sdf|9864|dock4
  -GOLD-   2272013493D 1   1.00000     0.00000
 Structure written by MMmdl.
 44 45  0  0  0  0  0  0  0  0  1 V2000
  151.0411  145.3424  158.9043 C   0  0  0  0  0  0  0  0  0  0  0  0
  152.1230  144.3775  158.4068 C   0  0  0  0  0  0  0  0  0  0  0  0
  152.4856  143.3542  159.4477 C   0  0  0  0  0  0  0  0  0  0  0  0
  152.6671  143.7272  160.7073 N   0  0  0  0  0  0  0  0  0  0  0  0
  152.9696  142.5885  161.3756 N   0  0  0  0  0  0  0  0  0  0  0  0
  153.2337  142.6505  162.7970 C   0  0  0  0  0  0  0  0  0  0  0  0
  152.9793  141.4834  160.5493 C   0  0  0  0  0  0  0  0  0  0  0  0
  152.6685  141.9517  159.3039 C   0  0  0  0  0  0  0  0  0  0  0  0
  152.5378  141.2376  158.0853 N   0  0  0  0  0  0  0  0  0  0  0  0
  152.2033  139.9466  157.9257 C   0  0  0  0  0  0  0  0  0  0  0  0
  151.9456  139.1635  158.8399 O   0  0  0  0  0  0  0  0  0  0  0  0
  152.1855  139.6065  156.6293 N   0  0  0  0  0  0  0  0  0  0  0  0
  151.8674  138.2798  156.1142 C   0  0  0  0  0  0  0  0  0  0  0  0
  151.4690  138.3287  154.6290 C   0  0  0  0  0  0  0  0  0  0  0  0
  150.1540  139.0862  154.3870 C   0  0  1  0  0  0  0  0  0  0  0  0
  148.9826  138.4716  155.1780 C   0  0  0  0  0  0  0  0  0  0  0  0
  147.7047  139.2943  154.9780 C   0  0  0  0  0  0  0  0  0  0  0  0
  147.9808  140.7654  155.3044 C   0  0  0  0  0  0  0  0  0  0  0  0
  149.2008  141.2668  154.5158 C   0  0  0  0  0  0  0  0  0  0  0  0
  150.3292  140.4425  154.7923 O   0  0  0  0  0  0  0  0  0  0  0  0
  150.7893  146.0736  158.1361 H   0  0  0  0  0  0  0  0  0  0  0  0
  151.3753  145.8882  159.7871 H   0  0  0  0  0  0  0  0  0  0  0  0
  150.1283  144.8067  159.1665 H   0  0  0  0  0  0  0  0  0  0  0  0
  151.7757  143.8819  157.5002 H   0  0  0  0  0  0  0  0  0  0  0  0
  153.0084  144.9450  158.1172 H   0  0  0  0  0  0  0  0  0  0  0  0
  153.4341  141.6512  163.1845 H   0  0  0  0  0  0  0  0  0  0  0  0
  152.3689  143.0652  163.3160 H   0  0  0  0  0  0  0  0  0  0  0  0
  154.1014  143.2838  162.9835 H   0  0  0  0  0  0  0  0  0  0  0  0
  153.1998  140.4928  160.9181 H   0  0  0  0  0  0  0  0  0  0  0  0
  152.7220  141.7661  157.2453 H   0  0  0  0  0  0  0  0  0  0  0  0
  152.4094  140.3169  155.9480 H   0  0  0  0  0  0  0  0  0  0  0  0
  152.7142  137.6081  156.2654 H   0  0  0  0  0  0  0  0  0  0  0  0
  151.0445  137.8784  156.7059 H   0  0  0  0  0  0  0  0  0  0  0  0
  152.2675  138.8117  154.0643 H   0  0  0  0  0  0  0  0  0  0  0  0
  151.3825  137.3160  154.2331 H   0  0  0  0  0  0  0  0  0  0  0  0
  149.9234  139.0570  153.3205 H   0  0  0  0  0  0  0  0  0  0  0  0
  148.8132  137.4410  154.8645 H   0  0  0  0  0  0  0  0  0  0  0  0
  149.2319  138.4388  156.2396 H   0  0  0  0  0  0  0  0  0  0  0  0
  147.3678  139.2038  153.9446 H   0  0  0  0  0  0  0  0  0  0  0  0
  146.9009  138.9084  155.6059 H   0  0  0  0  0  0  0  0  0  0  0  0
  147.1059  141.3743  155.0754 H   0  0  0  0  0  0  0  0  0  0  0  0
  148.1686  140.8746  156.3733 H   0  0  0  0  0  0  0  0  0  0  0  0
  148.9955  141.2734  153.4444 H   0  0  0  0  0  0  0  0  0  0  0  0
  149.4356  142.2923  154.8005 H   0  0  0  0  0  0  0  0  0  0  0  0
  1  2  1  0  0  0  0
  1 21  1  0  0  0  0
  1 22  1  0  0  0  0
  1 23  1  0  0  0  0
  2  3  1  0  0  0  0
  2 24  1  0  0  0  0
  2 25  1  0  0  0  0
  3  8  1  0  0  0  0
  3  4  2  0  0  0  0
  4  5  1  0  0  0  0
  5  6  1  0  0  0  0
  5  7  1  0  0  0  0
  6 26  1  0  0  0  0
  6 27  1  0  0  0  0
  6 28  1  0  0  0  0
  7  8  2  0  0  0  0
  7 29  1  0  0  0  0
  8  9  1  0  0  0  0
  9 10  1  0  0  0  0
  9 30  1  0  0  0  0
 10 11  2  0  0  0  0
 10 12  1  0  0  0  0
 12 13  1  0  0  0  0
 12 31  1  0  0  0  0
 13 14  1  0  0  0  0
 13 32  1  0  0  0  0
 13 33  1  0  0  0  0
 14 15  1  0  0  0  0
 14 34  1  0  0  0  0
 14 35  1  0  0  0  0
 15 20  1  0  0  0  0
 15 16  1  0  0  0  0
 15 36  1  0  0  0  0
 16 17  1  0  0  0  0
 16 37  1  0  0  0  0
 16 38  1  0  0  0  0
 17 18  1  0  0  0  0
 17 39  1  0  0  0  0
 17 40  1  0  0  0  0
 18 19  1  0  0  0  0
 18 41  1  0  0  0  0
 18 42  1  0  0  0  0
 19 20  1  0  0  0  0
 19 43  1  0  0  0  0
 19 44  1  0  0  0  0
M  END
> <s_m_source_file>
AV-unprocessed.smi

> <i_m_source_file_index>
2507

> <i_lp_mmshare_version>
43012

> <i_f3d_flags>
0

> <s_epik_input>
W0NIM11bQ0gyXWMxbm4oW0NIM10pW2NIXWMxW05IXUMoPU8pW05IXVtDSDJdW0NIMl1bQ0BASF0yW0NIMl1bQ0gyXVtDSDJdW0NIMl1PMg==

> <s_epik_cmdline>
J2VwaWtfcHl0aG9uJywgJy1waCcsICc3LjAnLCAnLXRuJywgJzgnLCAnLW1hJywgJzIwMCcsICctbWV0YWxfYmluZGluZycsICctaW1hZScsICc8aW5maWxlLm1hZT4nLCAnLW9tYWUnLCAnPG91dGZpbGUubWFlPic=

> <r_lp_tautomer_probability>
1

> <r_epik_Ionization_Penalty>
0.00072031

> <r_epik_Ionization_Penalty_Charging>
0

> <r_epik_Ionization_Penalty_Neutral>
0.00072031

> <r_epik_State_Penalty>
-0

> <r_epik_Charging_Adjusted_Penalty>
0

> <i_epik_Tot_Q>
0

> <i_epik_Tot_abs_Q>
0

> <r_epik_Metal_State_Penalty>
-0

> <b_epik_Metal_Only>
0

> <s_lp_Force_Field>
OPLS_2005

> <r_lp_Energy>
7.2839

> <b_lp_Chiralities_Consistent>
1

> <s_lp_Variant>
AV-unprocessed.smi:2507-2

> <Gold.Version>
5.8.1

> <Gold.Id.Protein>
6NUR|6NUR_protein|mol2

> <Gold.PLP.Fitness>
44.9212

> <Gold.PLP.PLP>
-42.8433

> <Gold.PLP.part.hbond>
-1.0000

> <Gold.PLP.part.metal>
0.0000

> <Gold.PLP.part.buried>
-3.6521

> <Gold.PLP.part.nonpolar>
-38.3212

> <Gold.PLP.part.repulsive>
0.3701

> <Gold.PLP.ligand.clash>
0.0000

> <Gold.PLP.ligand.torsion>
0.4962

> <Gold.PLP.Chemscore.Hbond>
1.0000

> <Gold.PLP.Chemscore.CHOScore>
0.0000

> <Gold.PLP.Chemscore.Metal>
0.0000

> <Gold.Chemscore.Hbonds>
donor molecule, donor type, donor heavy atom, donor atom, acceptor molecule, acceptor atom, score
      P1  H  7989  7998       L1    20  0.80

> <Gold.PLP.Chemscore.Internal.Correction>
0.0704

> <Gold.Rescore>
     Score         DG    S(hbond)    S(metal)    S(lipo)     H(rot)  DE(clash)    DE(int)     intcor
     14.74     -16.70       0.80        0.00     106.03       1.50       0.04       1.92       ----

> <Gold.Chemscore.Fitness>
14.7397

> <Gold.Chemscore.DG>
-16.6975

> <Gold.Chemscore.ZeroCoef>
-5.4800

> <Gold.Chemscore.Hbond>
0.7973

> <Gold.Chemscore.Metal>
0.0000

> <Gold.Chemscore.Lipo>
106.0271

> <Gold.Chemscore.Internal_Hbond>
0.0000

> <Gold.Chemscore.DEClash>
0.0416

> <Gold.Chemscore.DEInternal>
1.9162

> <Gold.Chemscore.Rot>
1.5042

> <Gold.Chemscore.Internal.Correction>
   9.000000E+99

> <Gold.Chemscore.Hbonds>
donor molecule, donor type, donor heavy atom, donor atom, acceptor molecule, acceptor atom, score
      P1  H  7989  7998       L1    20  0.06

> <Gold.Chemscore.Hbond.Weighted>
-2.6630

> <Gold.Chemscore.Metal.Weighted>
-0.0000

> <Gold.Chemscore.Lipo.Weighted>
-12.4052

> <Gold.Chemscore.Internal_Hbond.Weighted>
0.0000

> <Gold.Chemscore.DEClash.Weighted>
0.0416

> <Gold.Chemscore.DEInternal.Weighted>
1.9162

> <Gold.Chemscore.Rot.Weighted>
3.8507

> <Gold.Chemscore.Internal.Correction.Weighted>
   9.000000E+99

> <Gold.Protein.RotatedTorsions>
[ 6907 6896 6895 6894 ] final  177.17 input  -60.11 | X-H torsion
[ 7974 7965 7964 7962 ] final -129.68 input  175.53 | X-H torsion
[ 8008 7997 7996 7995 ] final -160.74 input   59.86 | X-H torsion
[ 10167 10162 10161 10158 ] final  159.25 input  -65.29 | X-H torsion
[ 10718 10713 10712 10709 ] final  -22.06 input   66.30 | X-H torsion
[ 10763 10752 10751 10750 ] final -130.10 input  -60.55 | X-H torsion
[ 11005 11000 10999 10996 ] final -174.38 input  -57.11 | X-H torsion

> <Gold.Protein.ActiveResidues>
 VAL166  LYS551  ARG553  GLY616  TRP617  ASP618  TYR619  PRO620  LYS621  CYS622 
 ASP623  PHE694  ASN695  SER759  ASP760  ASP761  ALA762  ILE779  LEU786  VAL792 
 PHE793  MET794  SER795  GLU796  ALA797  LYS798  CYS799  TRP800  GLU811  SER814 

> <Gold.Protein.RotatedAtoms>
  151.7083  133.3312  159.3283 H   0  0  0  0  0  0  0  0  0  0  0  0  # atno 6907 bound_to 6896
  150.7705  134.6554  159.6320 H   0  0  0  0  0  0  0  0  0  0  0  0  # atno 6908 bound_to 6896
  152.3727  134.6713  160.0222 H   0  0  0  0  0  0  0  0  0  0  0  0  # atno 6909 bound_to 6896
  144.9548  140.7383  143.4765 H   0  0  0  0  0  0  0  0  0  0  0  0  # atno 7974 bound_to 7965
  155.7819  140.0866  157.2054 H   0  0  0  0  0  0  0  0  0  0  0  0  # atno 8008 bound_to 7997
  154.3989  140.1506  156.3120 H   0  0  0  0  0  0  0  0  0  0  0  0  # atno 8009 bound_to 7997
  155.8645  140.3428  155.5781 H   0  0  0  0  0  0  0  0  0  0  0  0  # atno 8010 bound_to 7997
  139.4831  144.4748  151.8527 H   0  0  0  0  0  0  0  0  0  0  0  0  # atno 10167 bound_to 10162
  156.5097  130.4607  149.6655 H   0  0  0  0  0  0  0  0  0  0  0  0  # atno 10718 bound_to 10713
  154.8756  135.3873  154.4029 H   0  0  0  0  0  0  0  0  0  0  0  0  # atno 10763 bound_to 10752
  153.4751  135.7030  153.5975 H   0  0  0  0  0  0  0  0  0  0  0  0  # atno 10764 bound_to 10752
  153.4415  135.3855  155.2199 H   0  0  0  0  0  0  0  0  0  0  0  0  # atno 10765 bound_to 10752
  140.4752  134.6127  157.4898 H   0  0  0  0  0  0  0  0  0  0  0  0  # atno 11005 bound_to 11000
  145.2789  139.1926  143.4801 LP  0  0  0  0  0  0  0  0  0  0  0  0  # atno 17320 bound_to 7965
  146.3333  140.2748  142.8607 LP  0  0  0  0  0  0  0  0  0  0  0  0  # atno 17321 bound_to 7965
  140.4219  144.2232  150.5887 LP  0  0  0  0  0  0  0  0  0  0  0  0  # atno 17342 bound_to 10162
  140.4865  143.2361  151.8880 LP  0  0  0  0  0  0  0  0  0  0  0  0  # atno 17343 bound_to 10162
  156.3252  130.7302  151.2221 LP  0  0  0  0  0  0  0  0  0  0  0  0  # atno 17370 bound_to 10713
  157.7452  131.0445  150.4795 LP  0  0  0  0  0  0  0  0  0  0  0  0  # atno 17371 bound_to 10713
  139.9860  134.7060  155.9773 LP  0  0  0  0  0  0  0  0  0  0  0  0  # atno 17394 bound_to 11000
  141.1558  133.6543  156.4156 LP  0  0  0  0  0  0  0  0  0  0  0  0  # atno 17395 bound_to 11000

$$$$
