AV-unprocessed.smi:2154|AV-procd|sdf|8771|dock9
  -GOLD-   2272011553D 1   1.00000     0.00000
 Structure written by MMmdl.
 32 33  0  0  0  0  0  0  0  0  1 V2000
  152.5515  143.5353  160.5054 C   0  0  0  0  0  0  0  0  0  0  0  0
  152.2461  144.6928  159.5755 C   0  0  1  0  0  0  0  0  0  0  0  0
  152.4571  144.5604  158.0859 C   0  0  0  0  0  0  0  0  0  0  0  0
  151.0551  144.6882  158.6371 C   0  0  1  0  0  0  0  0  0  0  0  0
  150.0813  143.5234  158.5790 C   0  0  0  0  0  0  0  0  0  0  0  0
  149.9496  142.9009  157.2687 N   0  0  0  0  0  0  0  0  0  0  0  0
  150.5931  141.7907  156.8777 C   0  0  0  0  0  0  0  0  0  0  0  0
  151.3560  141.1604  157.6114 O   0  0  0  0  0  0  0  0  0  0  0  0
  150.3096  141.3145  155.4458 C   0  0  0  0  0  0  0  0  0  0  0  0
  150.4865  139.8649  155.2760 N   0  0  0  0  0  0  0  0  0  0  0  0
  149.4114  139.0651  154.9148 C   0  0  0  0  0  0  0  0  0  0  0  0
  149.5020  137.7242  154.7486 C   0  0  0  0  0  0  0  0  0  0  0  0
  150.7746  137.0394  154.9492 C   0  0  0  0  0  0  0  0  0  0  0  0
  150.9578  135.8310  154.8208 O   0  0  0  0  0  0  0  0  0  0  0  0
  151.8314  137.8774  155.3150 N   0  0  0  0  0  0  0  0  0  0  0  0
  151.7443  139.2596  155.4894 C   0  0  0  0  0  0  0  0  0  0  0  0
  152.7393  139.9053  155.8173 O   0  0  0  0  0  0  0  0  0  0  0  0
  152.7320  137.4473  155.4677 H   0  0  0  0  0  0  0  0  0  0  0  0
  152.4110  142.5773  160.0052 H   0  0  0  0  0  0  0  0  0  0  0  0
  151.8990  143.5739  161.3778 H   0  0  0  0  0  0  0  0  0  0  0  0
  153.5862  143.5940  160.8433 H   0  0  0  0  0  0  0  0  0  0  0  0
  152.4899  145.6619  160.0069 H   0  0  0  0  0  0  0  0  0  0  0  0
  152.8668  145.4183  157.5570 H   0  0  0  0  0  0  0  0  0  0  0  0
  152.7612  143.5894  157.6998 H   0  0  0  0  0  0  0  0  0  0  0  0
  150.5739  145.6564  158.5107 H   0  0  0  0  0  0  0  0  0  0  0  0
  150.3568  142.7671  159.3154 H   0  0  0  0  0  0  0  0  0  0  0  0
  149.0964  143.8901  158.8684 H   0  0  0  0  0  0  0  0  0  0  0  0
  149.3354  143.3533  156.6070 H   0  0  0  0  0  0  0  0  0  0  0  0
  149.2896  141.6041  155.1893 H   0  0  0  0  0  0  0  0  0  0  0  0
  150.9474  141.8542  154.7424 H   0  0  0  0  0  0  0  0  0  0  0  0
  148.4475  139.5287  154.7599 H   0  0  0  0  0  0  0  0  0  0  0  0
  148.6282  137.1548  154.4666 H   0  0  0  0  0  0  0  0  0  0  0  0
  1  2  1  0  0  0  0
  1 19  1  0  0  0  0
  1 20  1  0  0  0  0
  1 21  1  0  0  0  0
  2  4  1  0  0  0  0
  2  3  1  0  0  0  0
  2 22  1  0  0  0  0
  3  4  1  0  0  0  0
  3 23  1  0  0  0  0
  3 24  1  0  0  0  0
  4  5  1  0  0  0  0
  4 25  1  0  0  0  0
  5  6  1  0  0  0  0
  5 26  1  0  0  0  0
  5 27  1  0  0  0  0
  6  7  1  0  0  0  0
  6 28  1  0  0  0  0
  7  8  2  0  0  0  0
  7  9  1  0  0  0  0
  9 10  1  0  0  0  0
  9 29  1  0  0  0  0
  9 30  1  0  0  0  0
 10 16  1  0  0  0  0
 10 11  1  0  0  0  0
 11 12  2  0  0  0  0
 11 31  1  0  0  0  0
 12 13  1  0  0  0  0
 12 32  1  0  0  0  0
 13 14  2  0  0  0  0
 13 15  1  0  0  0  0
 15 18  1  0  0  0  0
 15 16  1  0  0  0  0
 16 17  2  0  0  0  0
M  END
> <s_m_source_file>
AV-unprocessed.smi

> <i_m_source_file_index>
2154

> <i_lp_mmshare_version>
43012

> <i_f3d_flags>
0

> <s_epik_input>
W0NIM11bQ0BASF0xW0NIMl1bQ0BIXTFbQ0gyXVtOSF1DKD1PKVtDSDJdbjJbY0hdW2NIXWMoPU8pW25IXWMyPU8=

> <s_epik_cmdline>
J2VwaWtfcHl0aG9uJywgJy1waCcsICc3LjAnLCAnLXRuJywgJzgnLCAnLW1hJywgJzIwMCcsICctbWV0YWxfYmluZGluZycsICctaW1hZScsICc8aW5maWxlLm1hZT4nLCAnLW9tYWUnLCAnPG91dGZpbGUubWFlPic=

> <r_lp_tautomer_probability>
0.999537

> <r_epik_Ionization_Penalty>
0.00305319

> <r_epik_Ionization_Penalty_Charging>
0.00305317

> <r_epik_Ionization_Penalty_Neutral>
2.06703e-08

> <r_epik_State_Penalty>
0.00214626

> <r_epik_Charging_Adjusted_Penalty>
0.00519944

> <i_epik_Tot_Q>
0

> <i_epik_Tot_abs_Q>
0

> <r_epik_Metal_State_Penalty>
0.361976

> <b_epik_Metal_Only>
0

> <s_lp_Force_Field>
OPLS_2005

> <r_lp_Energy>
15.5744

> <b_lp_Chiralities_Consistent>
1

> <s_lp_Variant>
AV-unprocessed.smi:2154-2

> <Gold.Version>
5.8.1

> <Gold.Id.Protein>
6NUR|6NUR_protein|mol2

> <Gold.PLP.Fitness>
44.0289

> <Gold.PLP.PLP>
-36.3472

> <Gold.PLP.part.hbond>
-3.0000

> <Gold.PLP.part.metal>
0.0000

> <Gold.PLP.part.buried>
-2.4679

> <Gold.PLP.part.nonpolar>
-30.9926

> <Gold.PLP.part.repulsive>
0.3333

> <Gold.PLP.ligand.clash>
0.0000

> <Gold.PLP.ligand.torsion>
0.9245

> <Gold.PLP.Chemscore.Hbond>
3.0000

> <Gold.PLP.Chemscore.CHOScore>
0.0000

> <Gold.PLP.Chemscore.Metal>
0.0000

> <Gold.Chemscore.Hbonds>
donor molecule, donor type, donor heavy atom, donor atom, acceptor molecule, acceptor atom, score
      L1  H     6    28       P1  8028  1.00
      P1  H  7997  8010       L1    17  1.00
      P1  H 10752 10764       L1    14  0.99

> <Gold.PLP.Chemscore.Internal.Correction>
0.5306

> <Gold.Rescore>
     Score         DG    S(hbond)    S(metal)    S(lipo)     H(rot)  DE(clash)    DE(int)     intcor
     13.99     -18.54       2.80        0.00      75.70       2.01       1.03       3.52       ----

> <Gold.Chemscore.Fitness>
13.9921

> <Gold.Chemscore.DG>
-18.5432

> <Gold.Chemscore.ZeroCoef>
-5.4800

> <Gold.Chemscore.Hbond>
2.7972

> <Gold.Chemscore.Metal>
0.0000

> <Gold.Chemscore.Lipo>
75.7025

> <Gold.Chemscore.Internal_Hbond>
0.0000

> <Gold.Chemscore.DEClash>
1.0294

> <Gold.Chemscore.DEInternal>
3.5217

> <Gold.Chemscore.Rot>
2.0065

> <Gold.Chemscore.Internal.Correction>
   9.000000E+99

> <Gold.Chemscore.Hbonds>
donor molecule, donor type, donor heavy atom, donor atom, acceptor molecule, acceptor atom, score
      L1  H     6    28       P1  8028  0.95
      P1  H  7997  8010       L1    17  0.95
      P1  H 10752 10764       L1    14  0.50

> <Gold.Chemscore.Hbond.Weighted>
-9.3426

> <Gold.Chemscore.Metal.Weighted>
-0.0000

> <Gold.Chemscore.Lipo.Weighted>
-8.8572

> <Gold.Chemscore.Internal_Hbond.Weighted>
0.0000

> <Gold.Chemscore.DEClash.Weighted>
1.0294

> <Gold.Chemscore.DEInternal.Weighted>
3.5217

> <Gold.Chemscore.Rot.Weighted>
5.1366

> <Gold.Chemscore.Internal.Correction.Weighted>
   9.000000E+99

> <Gold.Protein.RotatedTorsions>
[ 6907 6896 6895 6894 ] final -115.44 input  -60.11 | X-H torsion
[ 7974 7965 7964 7962 ] final  -43.60 input  175.53 | X-H torsion
[ 8008 7997 7996 7995 ] final  105.07 input   59.86 | X-H torsion
[ 10167 10162 10161 10158 ] final  -29.23 input  -65.29 | X-H torsion
[ 10718 10713 10712 10709 ] final  118.63 input   66.30 | X-H torsion
[ 10763 10752 10751 10750 ] final  -76.09 input  -60.55 | X-H torsion
[ 11005 11000 10999 10996 ] final -106.70 input  -57.11 | X-H torsion

> <Gold.Protein.ActiveResidues>
 VAL166  LYS551  ARG553  GLY616  TRP617  ASP618  TYR619  PRO620  LYS621  CYS622 
 ASP623  PHE694  ASN695  SER759  ASP760  ASP761  ALA762  ILE779  LEU786  VAL792 
 PHE793  MET794  SER795  GLU796  ALA797  LYS798  CYS799  TRP800  GLU811  SER814 

> <Gold.Protein.RotatedAtoms>
  150.7978  133.8658  159.3244 H   0  0  0  0  0  0  0  0  0  0  0  0  # atno 6907 bound_to 6896
  151.6479  135.1003  160.0164 H   0  0  0  0  0  0  0  0  0  0  0  0  # atno 6908 bound_to 6896
  152.4062  133.6853  159.6393 H   0  0  0  0  0  0  0  0  0  0  0  0  # atno 6909 bound_to 6896
  146.0003  140.7081  142.9273 H   0  0  0  0  0  0  0  0  0  0  0  0  # atno 7974 bound_to 7965
  156.1627  140.3137  155.8835 H   0  0  0  0  0  0  0  0  0  0  0  0  # atno 8008 bound_to 7997
  155.3749  140.0484  157.3062 H   0  0  0  0  0  0  0  0  0  0  0  0  # atno 8009 bound_to 7997
  154.5162  140.2182  155.9072 H   0  0  0  0  0  0  0  0  0  0  0  0  # atno 8010 bound_to 7997
  140.7262  143.3946  151.1370 H   0  0  0  0  0  0  0  0  0  0  0  0  # atno 10167 bound_to 10162
  157.6017  131.1050  150.7784 H   0  0  0  0  0  0  0  0  0  0  0  0  # atno 10718 bound_to 10713
  154.4953  135.5809  153.6490 H   0  0  0  0  0  0  0  0  0  0  0  0  # atno 10763 bound_to 10752
  152.9869  135.6122  154.3073 H   0  0  0  0  0  0  0  0  0  0  0  0  # atno 10764 bound_to 10752
  154.2976  135.2847  155.2605 H   0  0  0  0  0  0  0  0  0  0  0  0  # atno 10765 bound_to 10752
  141.0991  133.8916  157.1887 H   0  0  0  0  0  0  0  0  0  0  0  0  # atno 11005 bound_to 11000
  144.6917  140.3222  143.7230 LP  0  0  0  0  0  0  0  0  0  0  0  0  # atno 17320 bound_to 7965
  145.7497  139.1790  143.2328 LP  0  0  0  0  0  0  0  0  0  0  0  0  # atno 17321 bound_to 7965
  139.7556  143.8712  152.3088 LP  0  0  0  0  0  0  0  0  0  0  0  0  # atno 17342 bound_to 10162
  139.8581  144.7131  150.9133 LP  0  0  0  0  0  0  0  0  0  0  0  0  # atno 17343 bound_to 10162
  156.8181  130.4975  149.5347 LP  0  0  0  0  0  0  0  0  0  0  0  0  # atno 17370 bound_to 10713
  156.1092  130.6027  151.0019 LP  0  0  0  0  0  0  0  0  0  0  0  0  # atno 17371 bound_to 10713
  139.9837  135.0089  156.9812 LP  0  0  0  0  0  0  0  0  0  0  0  0  # atno 17394 bound_to 11000
  140.5065  134.1044  155.7261 LP  0  0  0  0  0  0  0  0  0  0  0  0  # atno 17395 bound_to 11000

$$$$
