AV-unprocessed.smi:671|AV-procd|sdf|3275|dock5
  -GOLD-   22720 0233D 1   1.00000     0.00000
 Structure written by MMmdl.
 49 50  0  0  0  0  0  0  0  0  1 V2000
  152.0397  141.1542  158.8143 C   0  0  0  0  0  0  0  0  0  0  0  0
  151.6753  140.6569  157.4444 C   0  0  0  0  0  0  0  0  0  0  0  0
  152.3047  139.5997  156.9602 N   0  0  0  0  0  0  0  0  0  0  0  0
  151.7660  139.4069  155.7399 N   0  0  0  0  0  0  0  0  0  0  0  0
  152.2363  138.3069  154.9204 C   0  0  0  0  0  0  0  0  0  0  0  0
  150.7951  140.3457  155.4509 C   0  0  0  0  0  0  0  0  0  0  0  0
  150.0482  140.3391  154.1560 C   0  0  0  0  0  0  0  0  0  0  0  0
  150.7056  141.1768  156.5363 C   0  0  0  0  0  0  0  0  0  0  0  0
  149.8023  142.3663  156.7462 C   0  0  0  0  0  0  0  0  0  0  0  0
  148.3252  141.9633  156.9207 C   0  0  2  0  0  0  0  0  0  0  0  0
  147.6810  141.4721  155.6112 C   0  0  0  0  0  0  0  0  0  0  0  0
  147.5786  143.1094  157.4462 N   0  0  0  0  0  0  0  0  0  0  0  0
  146.8546  143.1869  158.5776 C   0  0  0  0  0  0  0  0  0  0  0  0
  146.7422  142.2294  159.3405 O   0  0  0  0  0  0  0  0  0  0  0  0
  146.2810  144.3827  158.7919 N   0  0  0  0  0  0  0  0  0  0  0  0
  145.3950  144.7323  159.9017 C   0  0  1  0  0  0  0  0  0  0  0  0
  144.2211  143.7343  159.9808 C   0  0  0  0  0  0  0  0  0  0  0  0
  144.2862  143.0904  161.3701 C   0  0  0  0  0  0  0  0  0  0  0  0
  145.7320  143.2730  161.8219 C   0  0  0  0  0  0  0  0  0  0  0  0
  146.1166  144.6452  161.2671 C   0  0  1  0  0  0  0  0  0  0  0  0
  147.6329  144.9115  161.2671 C   0  0  0  0  0  0  0  0  0  0  0  0
  151.3304  141.8994  159.1736 H   0  0  0  0  0  0  0  0  0  0  0  0
  153.0280  141.6142  158.8118 H   0  0  0  0  0  0  0  0  0  0  0  0
  152.0529  140.3390  159.5380 H   0  0  0  0  0  0  0  0  0  0  0  0
  151.3972  137.6663  154.6490 H   0  0  0  0  0  0  0  0  0  0  0  0
  152.9736  137.7107  155.4598 H   0  0  0  0  0  0  0  0  0  0  0  0
  152.6956  138.6978  154.0122 H   0  0  0  0  0  0  0  0  0  0  0  0
  149.3398  141.1648  154.0996 H   0  0  0  0  0  0  0  0  0  0  0  0
  149.4869  139.4121  154.0390 H   0  0  0  0  0  0  0  0  0  0  0  0
  150.7338  140.4289  153.3132 H   0  0  0  0  0  0  0  0  0  0  0  0
  150.1240  142.9198  157.6293 H   0  0  0  0  0  0  0  0  0  0  0  0
  149.8907  143.0746  155.9220 H   0  0  0  0  0  0  0  0  0  0  0  0
  148.2967  141.1504  157.6481 H   0  0  0  0  0  0  0  0  0  0  0  0
  148.1814  140.5821  155.2299 H   0  0  0  0  0  0  0  0  0  0  0  0
  147.7277  142.2379  154.8362 H   0  0  0  0  0  0  0  0  0  0  0  0
  146.6324  141.2119  155.7574 H   0  0  0  0  0  0  0  0  0  0  0  0
  147.6501  143.9593  156.9055 H   0  0  0  0  0  0  0  0  0  0  0  0
  146.4463  145.1064  158.1079 H   0  0  0  0  0  0  0  0  0  0  0  0
  145.0058  145.7437  159.7726 H   0  0  0  0  0  0  0  0  0  0  0  0
  143.2616  144.2272  159.8209 H   0  0  0  0  0  0  0  0  0  0  0  0
  144.3112  142.9614  159.2153 H   0  0  0  0  0  0  0  0  0  0  0  0
  143.6225  143.6243  162.0517 H   0  0  0  0  0  0  0  0  0  0  0  0
  143.9791  142.0444  161.3620 H   0  0  0  0  0  0  0  0  0  0  0  0
  145.8424  143.2123  162.9050 H   0  0  0  0  0  0  0  0  0  0  0  0
  146.3575  142.4977  161.3769 H   0  0  0  0  0  0  0  0  0  0  0  0
  145.6562  145.3914  161.9169 H   0  0  0  0  0  0  0  0  0  0  0  0
  148.1786  144.1610  160.6946 H   0  0  0  0  0  0  0  0  0  0  0  0
  148.0276  144.8965  162.2832 H   0  0  0  0  0  0  0  0  0  0  0  0
  147.8574  145.8893  160.8402 H   0  0  0  0  0  0  0  0  0  0  0  0
  1  2  1  0  0  0  0
  1 22  1  0  0  0  0
  1 23  1  0  0  0  0
  1 24  1  0  0  0  0
  2  8  1  0  0  0  0
  2  3  2  0  0  0  0
  3  4  1  0  0  0  0
  4  5  1  0  0  0  0
  4  6  1  0  0  0  0
  5 25  1  0  0  0  0
  5 26  1  0  0  0  0
  5 27  1  0  0  0  0
  6  7  1  0  0  0  0
  6  8  2  0  0  0  0
  7 28  1  0  0  0  0
  7 29  1  0  0  0  0
  7 30  1  0  0  0  0
  8  9  1  0  0  0  0
  9 10  1  0  0  0  0
  9 31  1  0  0  0  0
  9 32  1  0  0  0  0
 10 11  1  0  0  0  0
 10 12  1  0  0  0  0
 10 33  1  0  0  0  0
 11 34  1  0  0  0  0
 11 35  1  0  0  0  0
 11 36  1  0  0  0  0
 12 13  1  0  0  0  0
 12 37  1  0  0  0  0
 13 14  2  0  0  0  0
 13 15  1  0  0  0  0
 15 16  1  0  0  0  0
 15 38  1  0  0  0  0
 16 20  1  0  0  0  0
 16 17  1  0  0  0  0
 16 39  1  0  0  0  0
 17 18  1  0  0  0  0
 17 40  1  0  0  0  0
 17 41  1  0  0  0  0
 18 19  1  0  0  0  0
 18 42  1  0  0  0  0
 18 43  1  0  0  0  0
 19 20  1  0  0  0  0
 19 44  1  0  0  0  0
 19 45  1  0  0  0  0
 20 21  1  0  0  0  0
 20 46  1  0  0  0  0
 21 47  1  0  0  0  0
 21 48  1  0  0  0  0
 21 49  1  0  0  0  0
M  END
> <s_m_source_file>
AV-unprocessed.smi

> <i_m_source_file_index>
671

> <i_lp_mmshare_version>
43012

> <i_f3d_flags>
0

> <s_epik_input>
W0NIM11jMW5uKFtDSDNdKWMoW0NIM10pYzFbQ0gyXVtDQEhdKFtDSDNdKVtOSF1DKD1PKVtOSF1bQ0BASF0yW0NIMl1bQ0gyXVtDSDJdW0NASF0yW0NIM10=

> <s_epik_cmdline>
J2VwaWtfcHl0aG9uJywgJy1waCcsICc3LjAnLCAnLXRuJywgJzgnLCAnLW1hJywgJzIwMCcsICctbWV0YWxfYmluZGluZycsICctaW1hZScsICc8aW5maWxlLm1hZT4nLCAnLW9tYWUnLCAnPG91dGZpbGUubWFlPic=

> <r_lp_tautomer_probability>
1

> <r_epik_Ionization_Penalty>
0.0126855

> <r_epik_Ionization_Penalty_Charging>
0

> <r_epik_Ionization_Penalty_Neutral>
0.0126855

> <r_epik_State_Penalty>
0.00977547

> <r_epik_Charging_Adjusted_Penalty>
0.00977547

> <i_epik_Tot_Q>
0

> <i_epik_Tot_abs_Q>
0

> <r_epik_Metal_State_Penalty>
0.00957132

> <b_epik_Metal_Only>
0

> <s_lp_Force_Field>
OPLS_2005

> <r_lp_Energy>
23.5654

> <b_lp_Chiralities_Consistent>
1

> <s_lp_Variant>
AV-unprocessed.smi:671-3

> <Gold.Version>
5.8.1

> <Gold.Id.Protein>
6NUR|6NUR_protein|mol2

> <Gold.PLP.Fitness>
43.3958

> <Gold.PLP.PLP>
-35.4699

> <Gold.PLP.part.hbond>
-5.4844

> <Gold.PLP.part.metal>
0.0000

> <Gold.PLP.part.buried>
2.4633

> <Gold.PLP.part.nonpolar>
-33.0323

> <Gold.PLP.part.repulsive>
0.0837

> <Gold.PLP.ligand.clash>
0.0000

> <Gold.PLP.ligand.torsion>
0.2233

> <Gold.PLP.Chemscore.Hbond>
2.7833

> <Gold.PLP.Chemscore.CHOScore>
0.0000

> <Gold.PLP.Chemscore.Metal>
0.0000

> <Gold.Chemscore.Hbonds>
donor molecule, donor type, donor heavy atom, donor atom, acceptor molecule, acceptor atom, score
      L1  H    15    38       P1  8029  0.82
      P1  H  6934  6946       L1    14  0.90
      P1  H  7997  8009       L1     3  0.60

> <Gold.PLP.Chemscore.Internal.Correction>
0.0227

> <Gold.Rescore>
     Score         DG    S(hbond)    S(metal)    S(lipo)     H(rot)  DE(clash)    DE(int)     intcor
     15.83     -18.39       1.96        0.00      86.14       1.45       0.11       2.45       ----

> <Gold.Chemscore.Fitness>
15.8278

> <Gold.Chemscore.DG>
-18.3900

> <Gold.Chemscore.ZeroCoef>
-5.4800

> <Gold.Chemscore.Hbond>
1.9592

> <Gold.Chemscore.Metal>
0.0000

> <Gold.Chemscore.Lipo>
86.1368

> <Gold.Chemscore.Internal_Hbond>
0.0000

> <Gold.Chemscore.DEClash>
0.1085

> <Gold.Chemscore.DEInternal>
2.4536

> <Gold.Chemscore.Rot>
1.4499

> <Gold.Chemscore.Internal.Correction>
   9.000000E+99

> <Gold.Chemscore.Hbonds>
donor molecule, donor type, donor heavy atom, donor atom, acceptor molecule, acceptor atom, score
      L1  H    15    38       P1  8029  0.75
      P1  H  6934  6946       L1    14  0.87
      P1  H  7997  8009       L1     3  0.33

> <Gold.Chemscore.Hbond.Weighted>
-6.5438

> <Gold.Chemscore.Metal.Weighted>
-0.0000

> <Gold.Chemscore.Lipo.Weighted>
-10.0780

> <Gold.Chemscore.Internal_Hbond.Weighted>
0.0000

> <Gold.Chemscore.DEClash.Weighted>
0.1085

> <Gold.Chemscore.DEInternal.Weighted>
2.4536

> <Gold.Chemscore.Rot.Weighted>
3.7118

> <Gold.Chemscore.Internal.Correction.Weighted>
   9.000000E+99

> <Gold.Protein.RotatedTorsions>
[ 6907 6896 6895 6894 ] final  -41.14 input  -60.11 | X-H torsion
[ 7974 7965 7964 7962 ] final  -80.65 input  175.53 | X-H torsion
[ 8008 7997 7996 7995 ] final  168.89 input   59.86 | X-H torsion
[ 10167 10162 10161 10158 ] final  138.65 input  -65.29 | X-H torsion
[ 10718 10713 10712 10709 ] final  -88.55 input   66.30 | X-H torsion
[ 10763 10752 10751 10750 ] final  -69.79 input  -60.55 | X-H torsion
[ 11005 11000 10999 10996 ] final  107.40 input  -57.11 | X-H torsion

> <Gold.Protein.ActiveResidues>
 VAL166  LYS551  ARG553  GLY616  TRP617  ASP618  TYR619  PRO620  LYS621  CYS622 
 ASP623  PHE694  ASN695  SER759  ASP760  ASP761  ALA762  ILE779  LEU786  VAL792 
 PHE793  MET794  SER795  GLU796  ALA797  LYS798  CYS799  TRP800  GLU811  SER814 

> <Gold.Protein.RotatedAtoms>
  150.9702  134.9076  159.7782 H   0  0  0  0  0  0  0  0  0  0  0  0  # atno 6907 bound_to 6896
  152.5187  134.3552  159.9275 H   0  0  0  0  0  0  0  0  0  0  0  0  # atno 6908 bound_to 6896
  151.3561  133.3866  159.2719 H   0  0  0  0  0  0  0  0  0  0  0  0  # atno 6909 bound_to 6896
  145.5572  140.9488  143.1467 H   0  0  0  0  0  0  0  0  0  0  0  0  # atno 7974 bound_to 7965
  156.1506  140.1578  156.8775 H   0  0  0  0  0  0  0  0  0  0  0  0  # atno 8008 bound_to 7997
  154.5068  140.0811  156.7947 H   0  0  0  0  0  0  0  0  0  0  0  0  # atno 8009 bound_to 7997
  155.3903  140.3409  155.4253 H   0  0  0  0  0  0  0  0  0  0  0  0  # atno 8010 bound_to 7997
  139.5104  144.6341  151.5743 H   0  0  0  0  0  0  0  0  0  0  0  0  # atno 10167 bound_to 10162
  155.9983  130.4840  150.5037 H   0  0  0  0  0  0  0  0  0  0  0  0  # atno 10718 bound_to 10713
  154.4085  135.6014  153.5938 H   0  0  0  0  0  0  0  0  0  0  0  0  # atno 10763 bound_to 10752
  152.9789  135.5923  154.4099 H   0  0  0  0  0  0  0  0  0  0  0  0  # atno 10764 bound_to 10752
  154.3908  135.2842  155.2134 H   0  0  0  0  0  0  0  0  0  0  0  0  # atno 10765 bound_to 10752
  139.8827  134.9399  156.5814 H   0  0  0  0  0  0  0  0  0  0  0  0  # atno 11005 bound_to 11000
  144.7500  139.7217  143.7277 LP  0  0  0  0  0  0  0  0  0  0  0  0  # atno 17320 bound_to 7965
  146.1876  139.5100  142.9826 LP  0  0  0  0  0  0  0  0  0  0  0  0  # atno 17321 bound_to 7965
  140.6083  143.9483  150.6435 LP  0  0  0  0  0  0  0  0  0  0  0  0  # atno 17342 bound_to 10162
  140.2717  143.3451  152.1232 LP  0  0  0  0  0  0  0  0  0  0  0  0  # atno 17343 bound_to 10162
  157.3018  131.0647  151.2063 LP  0  0  0  0  0  0  0  0  0  0  0  0  # atno 17370 bound_to 10713
  157.3039  130.6856  149.6179 LP  0  0  0  0  0  0  0  0  0  0  0  0  # atno 17371 bound_to 10713
  140.8024  133.8494  155.8738 LP  0  0  0  0  0  0  0  0  0  0  0  0  # atno 17394 bound_to 11000
  140.9580  134.1692  157.4676 LP  0  0  0  0  0  0  0  0  0  0  0  0  # atno 17395 bound_to 11000

$$$$
