AV-unprocessed.smi:3058|AV-procd|sdf|11676|dock6
  -GOLD-   2272017 83D 1   1.00000     0.00000
 Structure written by MMmdl.
 39 41  0  0  0  0  0  0  0  0  2 V2000
  153.4003  140.3827  158.8579 O   0  0  0  0  0  0  0  0  0  0  0  0
  152.4382  141.0856  158.5467 C   0  0  0  0  0  0  0  0  0  0  0  0
  151.5002  140.6930  157.6693 N   0  0  0  0  0  0  0  0  0  0  0  0
  151.4472  139.3898  157.0095 C   0  0  0  0  0  0  0  0  0  0  0  0
  151.2077  139.5111  155.4909 C   0  0  0  0  0  0  0  0  0  0  0  0
  149.8634  140.1217  155.1317 C   0  0  0  0  0  0  0  0  0  0  0  0
  148.8687  139.3498  154.4904 C   0  0  0  0  0  0  0  0  0  0  0  0
  147.6462  139.9550  154.1333 C   0  0  0  0  0  0  0  0  0  0  0  0
  147.4438  141.3187  154.4281 C   0  0  0  0  0  0  0  0  0  0  0  0
  148.4160  142.0244  155.0465 N   0  3  0  0  0  0  0  0  0  0  0  0
  149.6000  141.4815  155.4053 C   0  0  0  0  0  0  0  0  0  0  0  0
  152.2322  142.4690  159.1870 C   0  0  1  0  0  0  0  0  0  0  0  0
  153.3762  143.4614  158.8604 C   0  0  0  0  0  0  0  0  0  0  0  0
  152.6341  144.6687  158.2539 C   0  0  2  0  0  0  0  0  0  0  0  0
  151.8140  145.3713  159.3529 C   0  0  0  0  0  0  0  0  0  0  0  0
  150.6584  144.3816  159.5999 C   0  0  0  0  0  0  0  0  0  0  0  0
  150.9950  143.2249  158.6389 C   0  0  1  0  0  0  0  0  0  0  0  0
  151.5429  143.9926  157.4356 C   0  0  0  0  0  0  0  0  0  0  0  0
  150.7483  141.3357  157.4648 H   0  0  0  0  0  0  0  0  0  0  0  0
  152.3927  138.8778  157.1891 H   0  0  0  0  0  0  0  0  0  0  0  0
  150.6760  138.7638  157.4615 H   0  0  0  0  0  0  0  0  0  0  0  0
  152.0020  140.1097  155.0428 H   0  0  0  0  0  0  0  0  0  0  0  0
  151.2777  138.5250  155.0306 H   0  0  0  0  0  0  0  0  0  0  0  0
  149.0439  138.3088  154.2609 H   0  0  0  0  0  0  0  0  0  0  0  0
  146.8771  139.3825  153.6358 H   0  0  0  0  0  0  0  0  0  0  0  0
  146.5415  141.8624  154.1884 H   0  0  0  0  0  0  0  0  0  0  0  0
  150.3017  142.1505  155.8818 H   0  0  0  0  0  0  0  0  0  0  0  0
  152.1415  142.3421  160.2674 H   0  0  0  0  0  0  0  0  0  0  0  0
  153.9444  143.7372  159.7495 H   0  0  0  0  0  0  0  0  0  0  0  0
  154.0855  143.0530  158.1381 H   0  0  0  0  0  0  0  0  0  0  0  0
  153.2808  145.3432  157.6918 H   0  0  0  0  0  0  0  0  0  0  0  0
  152.4032  145.5575  160.2518 H   0  0  0  0  0  0  0  0  0  0  0  0
  151.4289  146.3289  159.0003 H   0  0  0  0  0  0  0  0  0  0  0  0
  150.5972  144.0601  160.6402 H   0  0  0  0  0  0  0  0  0  0  0  0
  149.7029  144.8370  159.3364 H   0  0  0  0  0  0  0  0  0  0  0  0
  150.1408  142.5833  158.4182 H   0  0  0  0  0  0  0  0  0  0  0  0
  150.8252  144.6960  157.0091 H   0  0  0  0  0  0  0  0  0  0  0  0
  151.9306  143.3612  156.6360 H   0  0  0  0  0  0  0  0  0  0  0  0
  148.2510  143.0112  155.2467 H   0  0  0  0  0  0  0  0  0  0  0  0
  1  2  2  0  0  0  0
  2  3  1  0  0  0  0
  2 12  1  0  0  0  0
  3  4  1  0  0  0  0
  3 19  1  0  0  0  0
  4  5  1  0  0  0  0
  4 20  1  0  0  0  0
  4 21  1  0  0  0  0
  5  6  1  0  0  0  0
  5 22  1  0  0  0  0
  5 23  1  0  0  0  0
  6 11  1  0  0  0  0
  6  7  2  0  0  0  0
  7  8  1  0  0  0  0
  7 24  1  0  0  0  0
  8  9  2  0  0  0  0
  8 25  1  0  0  0  0
  9 10  1  0  0  0  0
  9 26  1  0  0  0  0
 10 11  2  0  0  0  0
 10 39  1  0  0  0  0
 11 27  1  0  0  0  0
 12 17  1  0  0  0  0
 12 13  1  0  0  0  0
 12 28  1  0  0  0  0
 13 14  1  0  0  0  0
 13 29  1  0  0  0  0
 13 30  1  0  0  0  0
 14 18  1  0  0  0  0
 14 15  1  0  0  0  0
 14 31  1  0  0  0  0
 15 16  1  0  0  0  0
 15 32  1  0  0  0  0
 15 33  1  0  0  0  0
 16 17  1  0  0  0  0
 16 34  1  0  0  0  0
 16 35  1  0  0  0  0
 17 18  1  0  0  0  0
 17 36  1  0  0  0  0
 18 37  1  0  0  0  0
 18 38  1  0  0  0  0
M  CHG  1  10   1
M  END
> <s_m_source_file>
AV-unprocessed.smi

> <i_m_source_file_index>
3058

> <i_lp_mmshare_version>
43012

> <i_f3d_flags>
0

> <s_epik_input>
W0NIMl0xW0NIMl1bQ0BIXShbQ0gyXTIpW0NAQEhdKFtDSDJdW0NAQEhdMTIpQyg9TylbTkhdW0NIMl1bQ0gyXWMzW2NIXVtjSF1bY0hdbltjSF0z

> <s_epik_cmdline>
J2VwaWtfcHl0aG9uJywgJy1waCcsICc3LjAnLCAnLXRuJywgJzgnLCAnLW1hJywgJzIwMCcsICctbWV0YWxfYmluZGluZycsICctaW1hZScsICc8aW5maWxlLm1hZT4nLCAnLW9tYWUnLCAnPG91dGZpbGUubWFlPic=

> <r_epik_Ionization_Penalty>
2.24375

> <r_epik_Ionization_Penalty_Charging>
2.24375

> <r_epik_Ionization_Penalty_Neutral>
1.89995e-08

> <r_epik_State_Penalty>
2.39035

> <r_epik_Charging_Adjusted_Penalty>
4.63411

> <i_epik_Tot_Q>
1

> <i_epik_Tot_abs_Q>
1

> <r_epik_Metal_State_Penalty>
2.40369

> <b_epik_Metal_Only>
0

> <s_lp_Force_Field>
OPLS_2005

> <r_lp_Energy>
53.8629

> <b_lp_Chiralities_Consistent>
1

> <s_lp_Variant>
AV-unprocessed.smi:3058-8

> <Gold.Version>
5.8.1

> <Gold.Id.Protein>
6NUR|6NUR_protein|mol2

> <Gold.PLP.Fitness>
51.5555

> <Gold.PLP.PLP>
-43.8756

> <Gold.PLP.part.hbond>
-2.0000

> <Gold.PLP.part.metal>
0.0000

> <Gold.PLP.part.buried>
-0.9742

> <Gold.PLP.part.nonpolar>
-39.6226

> <Gold.PLP.part.repulsive>
0.2742

> <Gold.PLP.ligand.clash>
0.0000

> <Gold.PLP.ligand.torsion>
0.1456

> <Gold.PLP.Chemscore.Hbond>
2.6458

> <Gold.PLP.Chemscore.CHOScore>
0.0000

> <Gold.PLP.Chemscore.Metal>
0.0000

> <Gold.Chemscore.Hbonds>
donor molecule, donor type, donor heavy atom, donor atom, acceptor molecule, acceptor atom, score
      L1  H    10    39       P1  8028  2.00
      P1  H  7997  8009       L1     1  0.52

> <Gold.PLP.Chemscore.Internal.Correction>
0.0336

> <Gold.Rescore>
     Score         DG    S(hbond)    S(metal)    S(lipo)     H(rot)  DE(clash)    DE(int)     intcor
     22.51     -22.99       1.74        0.00     131.88       1.45       0.30       0.17       ----

> <Gold.Chemscore.Fitness>
22.5126

> <Gold.Chemscore.DG>
-22.9859

> <Gold.Chemscore.ZeroCoef>
-5.4800

> <Gold.Chemscore.Hbond>
1.7365

> <Gold.Chemscore.Metal>
0.0000

> <Gold.Chemscore.Lipo>
131.8832

> <Gold.Chemscore.Internal_Hbond>
0.0000

> <Gold.Chemscore.DEClash>
0.3028

> <Gold.Chemscore.DEInternal>
0.1705

> <Gold.Chemscore.Rot>
1.4548

> <Gold.Chemscore.Internal.Correction>
   9.000000E+99

> <Gold.Chemscore.Hbonds>
donor molecule, donor type, donor heavy atom, donor atom, acceptor molecule, acceptor atom, score
      L1  H    10    39       P1  8028  0.94
      P1  H  7997  8009       L1     1  0.40

> <Gold.Chemscore.Hbond.Weighted>
-5.7998

> <Gold.Chemscore.Metal.Weighted>
-0.0000

> <Gold.Chemscore.Lipo.Weighted>
-15.4303

> <Gold.Chemscore.Internal_Hbond.Weighted>
0.0000

> <Gold.Chemscore.DEClash.Weighted>
0.3028

> <Gold.Chemscore.DEInternal.Weighted>
0.1705

> <Gold.Chemscore.Rot.Weighted>
3.7242

> <Gold.Chemscore.Internal.Correction.Weighted>
   9.000000E+99

> <Gold.Protein.RotatedTorsions>
[ 6907 6896 6895 6894 ] final  175.35 input  -60.11 | X-H torsion
[ 7974 7965 7964 7962 ] final  -92.73 input  175.53 | X-H torsion
[ 8008 7997 7996 7995 ] final  148.62 input   59.86 | X-H torsion
[ 10167 10162 10161 10158 ] final  -50.58 input  -65.29 | X-H torsion
[ 10718 10713 10712 10709 ] final   55.46 input   66.30 | X-H torsion
[ 10763 10752 10751 10750 ] final  114.87 input  -60.55 | X-H torsion
[ 11005 11000 10999 10996 ] final  167.73 input  -57.11 | X-H torsion

> <Gold.Protein.ActiveResidues>
 VAL166  LYS551  ARG553  GLY616  TRP617  ASP618  TYR619  PRO620  LYS621  CYS622 
 ASP623  PHE694  ASN695  SER759  ASP760  ASP761  ALA762  ILE779  LEU786  VAL792 
 PHE793  MET794  SER795  GLU796  ALA797  LYS798  CYS799  TRP800  GLU811  SER814 

> <Gold.Protein.RotatedAtoms>
  151.7376  133.3320  159.3356 H   0  0  0  0  0  0  0  0  0  0  0  0  # atno 6907 bound_to 6896
  150.7587  134.6307  159.6194 H   0  0  0  0  0  0  0  0  0  0  0  0  # atno 6908 bound_to 6896
  152.3551  134.6953  160.0276 H   0  0  0  0  0  0  0  0  0  0  0  0  # atno 6909 bound_to 6896
  145.3960  140.9533  143.2314 H   0  0  0  0  0  0  0  0  0  0  0  0  # atno 7974 bound_to 7965
  156.2784  140.2123  156.5728 H   0  0  0  0  0  0  0  0  0  0  0  0  # atno 8008 bound_to 7997
  154.7122  140.0511  157.0583 H   0  0  0  0  0  0  0  0  0  0  0  0  # atno 8009 bound_to 7997
  155.0591  140.3164  155.4669 H   0  0  0  0  0  0  0  0  0  0  0  0  # atno 8010 bound_to 7997
  140.6630  143.2652  151.4380 H   0  0  0  0  0  0  0  0  0  0  0  0  # atno 10167 bound_to 10162
  157.5347  130.8655  149.8736 H   0  0  0  0  0  0  0  0  0  0  0  0  # atno 10718 bound_to 10713
  153.5137  135.3612  155.2599 H   0  0  0  0  0  0  0  0  0  0  0  0  # atno 10763 bound_to 10752
  154.8740  135.4029  154.3339 H   0  0  0  0  0  0  0  0  0  0  0  0  # atno 10764 bound_to 10752
  153.3997  135.7074  153.6502 H   0  0  0  0  0  0  0  0  0  0  0  0  # atno 10765 bound_to 10752
  140.2799  134.7759  157.3749 H   0  0  0  0  0  0  0  0  0  0  0  0  # atno 11005 bound_to 11000
  144.8407  139.5477  143.6901 LP  0  0  0  0  0  0  0  0  0  0  0  0  # atno 17320 bound_to 7965
  146.2775  139.6790  142.9253 LP  0  0  0  0  0  0  0  0  0  0  0  0  # atno 17321 bound_to 7965
  139.5870  144.1582  152.2041 LP  0  0  0  0  0  0  0  0  0  0  0  0  # atno 17342 bound_to 10162
  140.0925  144.5608  150.7044 LP  0  0  0  0  0  0  0  0  0  0  0  0  # atno 17343 bound_to 10162
  156.0449  130.3730  150.1342 LP  0  0  0  0  0  0  0  0  0  0  0  0  # atno 17370 bound_to 10713
  156.9525  130.9779  151.3495 LP  0  0  0  0  0  0  0  0  0  0  0  0  # atno 17371 bound_to 10713
  140.1293  134.5116  155.8118 LP  0  0  0  0  0  0  0  0  0  0  0  0  # atno 17394 bound_to 11000
  141.2164  133.6784  156.7011 LP  0  0  0  0  0  0  0  0  0  0  0  0  # atno 17395 bound_to 11000

$$$$
