AV-unprocessed.smi:1824|AV-procd|sdf|7410|dock8
  -GOLD-   22720 9 83D 1   1.00000     0.00000
 Structure written by MMmdl.
 45 47  0  0  0  0  0  0  0  0  2 V2000
  150.0097  140.9687  155.7769 C   0  0  0  0  0  0  0  0  0  0  0  0
  148.6036  140.6578  155.2530 C   0  0  2  0  0  0  0  0  0  0  0  0
  148.6346  139.9303  153.8954 C   0  0  0  0  0  0  0  0  0  0  0  0
  147.2949  139.7043  153.3652 N   0  0  0  0  0  0  0  0  0  0  0  0
  147.3501  138.9973  152.0850 C   0  0  0  0  0  0  0  0  0  0  0  0
  146.1057  138.1540  151.7456 C   0  0  1  0  0  0  0  0  0  0  0  0
  146.2064  137.7432  150.3975 O   0  0  0  0  0  0  0  0  0  0  0  0
  145.9747  136.9065  152.6428 C   0  0  0  0  0  0  0  0  0  0  0  0
  145.1273  135.8658  152.0481 N   0  0  0  0  0  0  0  0  0  0  0  0
  143.9071  135.9603  151.4529 C   0  0  0  0  0  0  0  0  0  0  0  0
  143.5431  134.7066  151.0638 N   0  3  0  0  0  0  0  0  0  0  0  0
  144.5474  133.7996  151.4118 C   0  0  0  0  0  0  0  0  0  0  0  0
  144.6401  132.4238  151.2278 C   0  0  0  0  0  0  0  0  0  0  0  0
  145.8109  131.7964  151.7030 C   0  0  0  0  0  0  0  0  0  0  0  0
  145.9526  130.4587  151.5489 F   0  0  0  0  0  0  0  0  0  0  0  0
  146.8353  132.5343  152.3340 C   0  0  0  0  0  0  0  0  0  0  0  0
  147.9435  131.8932  152.7747 F   0  0  0  0  0  0  0  0  0  0  0  0
  146.7295  133.9290  152.5156 C   0  0  0  0  0  0  0  0  0  0  0  0
  145.5689  134.5392  152.0427 C   0  0  0  0  0  0  0  0  0  0  0  0
  146.6020  140.9874  153.2745 C   0  0  0  0  0  0  0  0  0  0  0  0
  146.5651  141.7178  154.6304 C   0  0  2  0  0  0  0  0  0  0  0  0
  145.9093  143.0987  154.5274 C   0  0  0  0  0  0  0  0  0  0  0  0
  147.8975  141.8869  155.1053 O   0  0  0  0  0  0  0  0  0  0  0  0
  150.5867  140.0543  155.9181 H   0  0  0  0  0  0  0  0  0  0  0  0
  149.9623  141.4833  156.7367 H   0  0  0  0  0  0  0  0  0  0  0  0
  150.5577  141.6069  155.0830 H   0  0  0  0  0  0  0  0  0  0  0  0
  148.0853  140.0388  155.9873 H   0  0  0  0  0  0  0  0  0  0  0  0
  149.2185  140.5156  153.1830 H   0  0  0  0  0  0  0  0  0  0  0  0
  149.1506  138.9764  154.0111 H   0  0  0  0  0  0  0  0  0  0  0  0
  147.5288  139.7172  151.2843 H   0  0  0  0  0  0  0  0  0  0  0  0
  148.2148  138.3319  152.0838 H   0  0  0  0  0  0  0  0  0  0  0  0
  145.2065  138.7646  151.8189 H   0  0  0  0  0  0  0  0  0  0  0  0
  145.4211  138.0084  149.9441 H   0  0  0  0  0  0  0  0  0  0  0  0
  146.9555  136.4672  152.8311 H   0  0  0  0  0  0  0  0  0  0  0  0
  145.5609  137.1642  153.6185 H   0  0  0  0  0  0  0  0  0  0  0  0
  143.3317  136.8649  151.3166 H   0  0  0  0  0  0  0  0  0  0  0  0
  143.8594  131.8550  150.7449 H   0  0  0  0  0  0  0  0  0  0  0  0
  147.5186  134.4853  152.9995 H   0  0  0  0  0  0  0  0  0  0  0  0
  147.0924  141.6195  152.5324 H   0  0  0  0  0  0  0  0  0  0  0  0
  145.5778  140.8426  152.9338 H   0  0  0  0  0  0  0  0  0  0  0  0
  146.0064  141.1185  155.3517 H   0  0  0  0  0  0  0  0  0  0  0  0
  144.8799  143.0189  154.1775 H   0  0  0  0  0  0  0  0  0  0  0  0
  146.4506  143.7417  153.8329 H   0  0  0  0  0  0  0  0  0  0  0  0
  145.8928  143.5955  155.4976 H   0  0  0  0  0  0  0  0  0  0  0  0
  142.6732  134.4897  150.5939 H   0  0  0  0  0  0  0  0  0  0  0  0
  1  2  1  0  0  0  0
  1 24  1  0  0  0  0
  1 25  1  0  0  0  0
  1 26  1  0  0  0  0
  2 23  1  0  0  0  0
  2  3  1  0  0  0  0
  2 27  1  0  0  0  0
  3  4  1  0  0  0  0
  3 28  1  0  0  0  0
  3 29  1  0  0  0  0
  4  5  1  0  0  0  0
  4 20  1  0  0  0  0
  5  6  1  0  0  0  0
  5 30  1  0  0  0  0
  5 31  1  0  0  0  0
  6  7  1  0  0  0  0
  6  8  1  0  0  0  0
  6 32  1  0  0  0  0
  7 33  1  0  0  0  0
  8  9  1  0  0  0  0
  8 34  1  0  0  0  0
  8 35  1  0  0  0  0
  9 19  1  0  0  0  0
  9 10  1  0  0  0  0
 10 11  2  0  0  0  0
 10 36  1  0  0  0  0
 11 12  1  0  0  0  0
 11 45  1  0  0  0  0
 12 19  2  0  0  0  0
 12 13  1  0  0  0  0
 13 14  2  0  0  0  0
 13 37  1  0  0  0  0
 14 15  1  0  0  0  0
 14 16  1  0  0  0  0
 16 17  1  0  0  0  0
 16 18  2  0  0  0  0
 18 19  1  0  0  0  0
 18 38  1  0  0  0  0
 20 21  1  0  0  0  0
 20 39  1  0  0  0  0
 20 40  1  0  0  0  0
 21 22  1  0  0  0  0
 21 23  1  0  0  0  0
 21 41  1  0  0  0  0
 22 42  1  0  0  0  0
 22 43  1  0  0  0  0
 22 44  1  0  0  0  0
M  CHG  1  11   1
M  END
> <s_m_source_file>
AV-unprocessed.smi

> <i_m_source_file_index>
1824

> <i_lp_mmshare_version>
43012

> <i_f3d_flags>
0

> <s_epik_input>
W0NIM11bQ0BASF0xW0NIMl1OKFtDSDJdW0NASF0oTzEpW0NIM10pW0NIMl1bQ0BIXShbT0hdKVtDSDJdbihbY0hdbjIpYyhjMjMpW2NIXWMoRiljKEYpW2NIXTM=

> <s_epik_cmdline>
J2VwaWtfcHl0aG9uJywgJy1waCcsICc3LjAnLCAnLXRuJywgJzgnLCAnLW1hJywgJzIwMCcsICctbWV0YWxfYmluZGluZycsICctaW1hZScsICc8aW5maWxlLm1hZT4nLCAnLW9tYWUnLCAnPG91dGZpbGUubWFlPic=

> <r_epik_Ionization_Penalty>
2.58709

> <r_epik_Ionization_Penalty_Charging>
2.37273

> <r_epik_Ionization_Penalty_Neutral>
0.214359

> <r_epik_State_Penalty>
2.71799

> <r_epik_Charging_Adjusted_Penalty>
5.09071

> <i_epik_Tot_Q>
1

> <i_epik_Tot_abs_Q>
1

> <r_epik_Metal_State_Penalty>
6.80217

> <b_epik_Metal_Only>
0

> <s_lp_Force_Field>
OPLS_2005

> <r_lp_Energy>
28.8683

> <b_lp_Chiralities_Consistent>
1

> <s_lp_Variant>
AV-unprocessed.smi:1824-18

> <Gold.Version>
5.8.1

> <Gold.Id.Protein>
6NUR|6NUR_protein|mol2

> <Gold.PLP.Fitness>
50.2951

> <Gold.PLP.PLP>
-37.0466

> <Gold.PLP.part.hbond>
-3.2721

> <Gold.PLP.part.metal>
0.0000

> <Gold.PLP.part.buried>
3.3508

> <Gold.PLP.part.nonpolar>
-39.0174

> <Gold.PLP.part.repulsive>
1.3572

> <Gold.PLP.ligand.clash>
0.0000

> <Gold.PLP.ligand.torsion>
0.6992

> <Gold.PLP.Chemscore.Hbond>
3.8800

> <Gold.PLP.Chemscore.CHOScore>
1.0000

> <Gold.PLP.Chemscore.Metal>
0.0000

> <Gold.Chemscore.Hbonds>
donor molecule, donor type, donor heavy atom, donor atom, acceptor molecule, acceptor atom, score
      L1  H     7    33       P1 10171  1.00
      L1  H    11    45       P1 10186  2.00
      P1  H  7954  7966       L1     7  0.83
      L1  C    10    36       P1 10171  0.91

> <Gold.PLP.Chemscore.Internal.Correction>
0.0068

> <Gold.Rescore>
     Score         DG    S(hbond)    S(metal)    S(lipo)     H(rot)  DE(clash)    DE(int)     intcor
     14.45     -18.86       2.55        0.00      92.23       2.32       3.68       0.73       ----

> <Gold.Chemscore.Fitness>
14.4528

> <Gold.Chemscore.DG>
-18.8602

> <Gold.Chemscore.ZeroCoef>
-5.4800

> <Gold.Chemscore.Hbond>
2.5541

> <Gold.Chemscore.Metal>
0.0000

> <Gold.Chemscore.Lipo>
92.2310

> <Gold.Chemscore.Internal_Hbond>
0.0000

> <Gold.Chemscore.DEClash>
3.6802

> <Gold.Chemscore.DEInternal>
0.7272

> <Gold.Chemscore.Rot>
2.3210

> <Gold.Chemscore.Internal.Correction>
   9.000000E+99

> <Gold.Chemscore.Hbonds>
donor molecule, donor type, donor heavy atom, donor atom, acceptor molecule, acceptor atom, score
      L1  H     7    33       P1 10171  0.98
      L1  H    11    45       P1 10186  0.34
      P1  H  7954  7966       L1     7  0.51

> <Gold.Chemscore.Hbond.Weighted>
-8.5308

> <Gold.Chemscore.Metal.Weighted>
-0.0000

> <Gold.Chemscore.Lipo.Weighted>
-10.7910

> <Gold.Chemscore.Internal_Hbond.Weighted>
0.0000

> <Gold.Chemscore.DEClash.Weighted>
3.6802

> <Gold.Chemscore.DEInternal.Weighted>
0.7272

> <Gold.Chemscore.Rot.Weighted>
5.9416

> <Gold.Chemscore.Internal.Correction.Weighted>
   9.000000E+99

> <Gold.Protein.RotatedTorsions>
[ 6907 6896 6895 6894 ] final -139.39 input  -60.11 | X-H torsion
[ 7974 7965 7964 7962 ] final   14.91 input  175.53 | X-H torsion
[ 8008 7997 7996 7995 ] final  -34.28 input   59.86 | X-H torsion
[ 10167 10162 10161 10158 ] final   50.37 input  -65.29 | X-H torsion
[ 10718 10713 10712 10709 ] final -150.26 input   66.30 | X-H torsion
[ 10763 10752 10751 10750 ] final  167.19 input  -60.55 | X-H torsion
[ 11005 11000 10999 10996 ] final   25.40 input  -57.11 | X-H torsion

> <Gold.Protein.ActiveResidues>
 VAL166  LYS551  ARG553  GLY616  TRP617  ASP618  TYR619  PRO620  LYS621  CYS622 
 ASP623  PHE694  ASN695  SER759  ASP760  ASP761  ALA762  ILE779  LEU786  VAL792 
 PHE793  MET794  SER795  GLU796  ALA797  LYS798  CYS799  TRP800  GLU811  SER814 

> <Gold.Protein.RotatedAtoms>
  151.0472  133.5655  159.2645 H   0  0  0  0  0  0  0  0  0  0  0  0  # atno 6907 bound_to 6896
  151.2679  135.0674  159.9133 H   0  0  0  0  0  0  0  0  0  0  0  0  # atno 6908 bound_to 6896
  152.5375  134.0207  159.8034 H   0  0  0  0  0  0  0  0  0  0  0  0  # atno 6909 bound_to 6896
  146.2292  139.8972  142.8545 H   0  0  0  0  0  0  0  0  0  0  0  0  # atno 7974 bound_to 7965
  154.4125  140.1688  156.2025 H   0  0  0  0  0  0  0  0  0  0  0  0  # atno 8008 bound_to 7997
  155.9512  140.3401  155.6386 H   0  0  0  0  0  0  0  0  0  0  0  0  # atno 8009 bound_to 7997
  155.6867  140.0729  157.2454 H   0  0  0  0  0  0  0  0  0  0  0  0  # atno 8010 bound_to 7997
  140.2731  144.3242  150.6284 H   0  0  0  0  0  0  0  0  0  0  0  0  # atno 10167 bound_to 10162
  156.4439  130.8135  151.2365 H   0  0  0  0  0  0  0  0  0  0  0  0  # atno 10718 bound_to 10713
  154.3502  135.2753  155.2376 H   0  0  0  0  0  0  0  0  0  0  0  0  # atno 10763 bound_to 10752
  154.4608  135.5907  153.6258 H   0  0  0  0  0  0  0  0  0  0  0  0  # atno 10764 bound_to 10752
  152.9850  135.6064  154.3712 H   0  0  0  0  0  0  0  0  0  0  0  0  # atno 10765 bound_to 10752
  140.3482  134.2257  155.7682 H   0  0  0  0  0  0  0  0  0  0  0  0  # atno 11005 bound_to 11000
  145.2359  140.9991  143.3964 LP  0  0  0  0  0  0  0  0  0  0  0  0  # atno 17320 bound_to 7965
  144.9492  139.4102  143.6411 LP  0  0  0  0  0  0  0  0  0  0  0  0  # atno 17321 bound_to 7965
  140.5873  143.2169  151.7318 LP  0  0  0  0  0  0  0  0  0  0  0  0  # atno 17342 bound_to 10162
  139.4983  144.3991  152.0200 LP  0  0  0  0  0  0  0  0  0  0  0  0  # atno 17343 bound_to 10162
  157.7505  131.0159  150.3525 LP  0  0  0  0  0  0  0  0  0  0  0  0  # atno 17370 bound_to 10713
  156.3888  130.3894  149.7045 LP  0  0  0  0  0  0  0  0  0  0  0  0  # atno 17371 bound_to 10713
  141.2019  133.7950  157.0415 LP  0  0  0  0  0  0  0  0  0  0  0  0  # atno 17394 bound_to 11000
  140.0724  134.9694  157.1490 LP  0  0  0  0  0  0  0  0  0  0  0  0  # atno 17395 bound_to 11000

$$$$
