AV-unprocessed.smi:3298|AV-procd|sdf|12640|dock4
  -GOLD-   2272018573D 1   1.00000     0.00000
 Structure written by MMmdl.
 35 36  0  0  0  0  0  0  0  0  1 V2000
  153.2579  137.2398  157.0720 C   0  0  0  0  0  0  0  0  0  0  0  0
  152.3216  138.0327  156.1841 C   0  0  0  0  0  0  0  0  0  0  0  0
  151.9509  139.3510  156.5225 C   0  0  0  0  0  0  0  0  0  0  0  0
  151.0722  140.0511  155.6700 C   0  0  0  0  0  0  0  0  0  0  0  0
  150.7260  141.3820  156.0296 N   0  0  0  0  0  0  0  0  0  0  0  0
  151.0727  142.0763  157.1275 C   0  0  0  0  0  0  0  0  0  0  0  0
  151.7882  141.6627  158.0398 O   0  0  0  0  0  0  0  0  0  0  0  0
  150.5524  143.3116  157.1024 N   0  0  0  0  0  0  0  0  0  0  0  0
  150.7597  144.3237  158.1319 C   0  0  2  0  0  0  0  0  0  0  0  0
  152.2154  144.6903  158.2248 C   0  0  0  0  0  0  0  0  0  0  0  0
  152.7073  144.5356  159.4517 C   0  0  0  0  0  0  0  0  0  0  0  0
  151.6828  144.0261  160.4333 C   0  0  2  0  0  0  0  0  0  0  0  0
  152.1367  142.7510  161.1649 C   0  0  0  0  0  0  0  0  0  0  0  0
  151.4756  142.6281  162.4068 O   0  0  0  0  0  0  0  0  0  0  0  0
  150.4226  143.8098  159.5569 C   0  0  0  0  0  0  0  0  0  0  0  0
  150.6225  139.3998  154.4963 C   0  0  0  0  0  0  0  0  0  0  0  0
  151.0551  138.0816  154.2496 C   0  0  0  0  0  0  0  0  0  0  0  0
  151.8847  137.4047  155.0714 N   0  0  0  0  0  0  0  0  0  0  0  0
  150.1920  145.2258  157.8973 H   0  0  0  0  0  0  0  0  0  0  0  0
  151.4900  144.8179  161.1586 H   0  0  0  0  0  0  0  0  0  0  0  0
  153.2864  137.6546  158.0799 H   0  0  0  0  0  0  0  0  0  0  0  0
  154.2689  137.2591  156.6645 H   0  0  0  0  0  0  0  0  0  0  0  0
  152.9354  136.2006  157.1442 H   0  0  0  0  0  0  0  0  0  0  0  0
  152.3302  139.8134  157.4222 H   0  0  0  0  0  0  0  0  0  0  0  0
  150.1940  141.8890  155.3376 H   0  0  0  0  0  0  0  0  0  0  0  0
  149.9795  143.5741  156.3139 H   0  0  0  0  0  0  0  0  0  0  0  0
  152.7735  145.0534  157.3742 H   0  0  0  0  0  0  0  0  0  0  0  0
  153.7241  144.7534  159.7439 H   0  0  0  0  0  0  0  0  0  0  0  0
  151.9094  141.8697  160.5644 H   0  0  0  0  0  0  0  0  0  0  0  0
  153.2146  142.7602  161.3312 H   0  0  0  0  0  0  0  0  0  0  0  0
  151.3540  143.4920  162.7700 H   0  0  0  0  0  0  0  0  0  0  0  0
  149.5660  144.3451  159.9683 H   0  0  0  0  0  0  0  0  0  0  0  0
  150.1473  142.7540  159.5365 H   0  0  0  0  0  0  0  0  0  0  0  0
  149.9729  139.8800  153.7813 H   0  0  0  0  0  0  0  0  0  0  0  0
  150.7297  137.5584  153.3627 H   0  0  0  0  0  0  0  0  0  0  0  0
  1  2  1  0  0  0  0
  1 21  1  0  0  0  0
  1 22  1  0  0  0  0
  1 23  1  0  0  0  0
  2 18  1  0  0  0  0
  2  3  2  0  0  0  0
  3  4  1  0  0  0  0
  3 24  1  0  0  0  0
  4  5  1  0  0  0  0
  4 16  2  0  0  0  0
  5  6  1  0  0  0  0
  5 25  1  0  0  0  0
  6  7  2  0  0  0  0
  6  8  1  0  0  0  0
  8  9  1  0  0  0  0
  8 26  1  0  0  0  0
  9 19  1  0  0  0  0
  9 15  1  0  0  0  0
  9 10  1  0  0  0  0
 10 11  2  0  0  0  0
 10 27  1  0  0  0  0
 11 12  1  0  0  0  0
 11 28  1  0  0  0  0
 12 20  1  0  0  0  0
 12 13  1  0  0  0  0
 12 15  1  0  0  0  0
 13 14  1  0  0  0  0
 13 29  1  0  0  0  0
 13 30  1  0  0  0  0
 14 31  1  0  0  0  0
 15 32  1  0  0  0  0
 15 33  1  0  0  0  0
 16 17  1  0  0  0  0
 16 34  1  0  0  0  0
 17 18  2  0  0  0  0
 17 35  1  0  0  0  0
M  END
> <s_m_source_file>
AV-unprocessed.smi

> <i_m_source_file_index>
3298

> <i_lp_mmshare_version>
43012

> <i_f3d_flags>
0

> <s_epik_input>
W0NIM11jMVtjSF1jKFtjSF1bY0hdbjEpW05IXUMoPU8pW05IXVtDQEBIXTJbQ0hdPVtDSF1bQ0BASF0oW0NIMl0yKVtDSDJdW09IXQ==

> <s_epik_cmdline>
J2VwaWtfcHl0aG9uJywgJy1waCcsICc3LjAnLCAnLXRuJywgJzgnLCAnLW1hJywgJzIwMCcsICctbWV0YWxfYmluZGluZycsICctaW1hZScsICc8aW5maWxlLm1hZT4nLCAnLW9tYWUnLCAnPG91dGZpbGUubWFlPic=

> <r_epik_Ionization_Penalty>
0.379275

> <r_epik_Ionization_Penalty_Charging>
0

> <r_epik_Ionization_Penalty_Neutral>
0.379275

> <r_epik_State_Penalty>
0.377195

> <r_epik_Charging_Adjusted_Penalty>
0.377195

> <i_epik_Tot_Q>
0

> <i_epik_Tot_abs_Q>
0

> <r_epik_Metal_State_Penalty>
0.22815

> <b_epik_Metal_Only>
0

> <s_lp_Force_Field>
OPLS_2005

> <r_lp_Energy>
20.8901

> <b_lp_Chiralities_Consistent>
1

> <s_lp_Variant>
AV-unprocessed.smi:3298-1

> <Gold.Version>
5.8.1

> <Gold.Id.Protein>
6NUR|6NUR_protein|mol2

> <Gold.PLP.Fitness>
46.2416

> <Gold.PLP.PLP>
-37.6105

> <Gold.PLP.part.hbond>
-4.0000

> <Gold.PLP.part.metal>
0.0000

> <Gold.PLP.part.buried>
-4.4305

> <Gold.PLP.part.nonpolar>
-29.2013

> <Gold.PLP.part.repulsive>
0.2357

> <Gold.PLP.ligand.clash>
0.0000

> <Gold.PLP.ligand.torsion>
0.3333

> <Gold.PLP.Chemscore.Hbond>
1.9193

> <Gold.PLP.Chemscore.CHOScore>
1.1750

> <Gold.PLP.Chemscore.Metal>
0.0000

> <Gold.Chemscore.Hbonds>
donor molecule, donor type, donor heavy atom, donor atom, acceptor molecule, acceptor atom, score
      L1  H     8    26       P1  8028  0.91
      P1  H  6933  6945       L1    14  1.00
      L1  C    17    35       P1  7948  0.35
      L1  C    17    35       P1  7949  0.77

> <Gold.PLP.Chemscore.Internal.Correction>
0.0148

> <Gold.Rescore>
     Score         DG    S(hbond)    S(metal)    S(lipo)     H(rot)  DE(clash)    DE(int)     intcor
     16.42     -20.57       2.17        0.00     105.86       1.78       0.58       3.56       ----

> <Gold.Chemscore.Fitness>
16.4225

> <Gold.Chemscore.DG>
-20.5673

> <Gold.Chemscore.ZeroCoef>
-5.4800

> <Gold.Chemscore.Hbond>
2.1729

> <Gold.Chemscore.Metal>
0.0000

> <Gold.Chemscore.Lipo>
105.8602

> <Gold.Chemscore.Internal_Hbond>
0.0000

> <Gold.Chemscore.DEClash>
0.5832

> <Gold.Chemscore.DEInternal>
3.5616

> <Gold.Chemscore.Rot>
1.7796

> <Gold.Chemscore.Internal.Correction>
   9.000000E+99

> <Gold.Chemscore.Hbonds>
donor molecule, donor type, donor heavy atom, donor atom, acceptor molecule, acceptor atom, score
      L1  H     8    26       P1  8028  0.90
      P1  H  6933  6945       L1    14  0.64

> <Gold.Chemscore.Hbond.Weighted>
-7.2575

> <Gold.Chemscore.Metal.Weighted>
-0.0000

> <Gold.Chemscore.Lipo.Weighted>
-12.3856

> <Gold.Chemscore.Internal_Hbond.Weighted>
0.0000

> <Gold.Chemscore.DEClash.Weighted>
0.5832

> <Gold.Chemscore.DEInternal.Weighted>
3.5616

> <Gold.Chemscore.Rot.Weighted>
4.5558

> <Gold.Chemscore.Internal.Correction.Weighted>
   9.000000E+99

> <Gold.Protein.RotatedTorsions>
[ 6907 6896 6895 6894 ] final  153.98 input  -60.11 | X-H torsion
[ 7974 7965 7964 7962 ] final   41.81 input  175.53 | X-H torsion
[ 8008 7997 7996 7995 ] final  -38.11 input   59.86 | X-H torsion
[ 10167 10162 10161 10158 ] final  -52.49 input  -65.29 | X-H torsion
[ 10718 10713 10712 10709 ] final  -31.75 input   66.30 | X-H torsion
[ 10763 10752 10751 10750 ] final -115.37 input  -60.55 | X-H torsion
[ 11005 11000 10999 10996 ] final -108.57 input  -57.11 | X-H torsion

> <Gold.Protein.ActiveResidues>
 VAL166  LYS551  ARG553  GLY616  TRP617  ASP618  TYR619  PRO620  LYS621  CYS622 
 ASP623  PHE694  ASN695  SER759  ASP760  ASP761  ALA762  ILE779  LEU786  VAL792 
 PHE793  MET794  SER795  GLU796  ALA797  LYS798  CYS799  TRP800  GLU811  SER814 

> <Gold.Protein.RotatedAtoms>
  152.0650  133.4079  159.4433 H   0  0  0  0  0  0  0  0  0  0  0  0  # atno 6907 bound_to 6896
  150.6865  134.3157  159.4774 H   0  0  0  0  0  0  0  0  0  0  0  0  # atno 6908 bound_to 6896
  152.0983  134.9359  160.0621 H   0  0  0  0  0  0  0  0  0  0  0  0  # atno 6909 bound_to 6896
  146.0793  139.5373  142.9547 H   0  0  0  0  0  0  0  0  0  0  0  0  # atno 7974 bound_to 7965
  154.4042  140.1586  156.2647 H   0  0  0  0  0  0  0  0  0  0  0  0  # atno 8008 bound_to 7997
  155.9006  140.3433  155.6001 H   0  0  0  0  0  0  0  0  0  0  0  0  # atno 8009 bound_to 7997
  155.7453  140.0798  157.2217 H   0  0  0  0  0  0  0  0  0  0  0  0  # atno 8010 bound_to 7997
  140.6535  143.2582  151.4655 H   0  0  0  0  0  0  0  0  0  0  0  0  # atno 10167 bound_to 10162
  156.3834  130.4360  149.7451 H   0  0  0  0  0  0  0  0  0  0  0  0  # atno 10718 bound_to 10713
  154.8478  135.4384  154.1652 H   0  0  0  0  0  0  0  0  0  0  0  0  # atno 10763 bound_to 10752
  153.2779  135.6951  153.7421 H   0  0  0  0  0  0  0  0  0  0  0  0  # atno 10764 bound_to 10752
  153.6636  135.3431  155.3109 H   0  0  0  0  0  0  0  0  0  0  0  0  # atno 10765 bound_to 10752
  141.0894  133.9081  157.2110 H   0  0  0  0  0  0  0  0  0  0  0  0  # atno 11005 bound_to 11000
  145.6248  141.0315  143.1895 LP  0  0  0  0  0  0  0  0  0  0  0  0  # atno 17320 bound_to 7965
  144.7282  139.7808  143.7357 LP  0  0  0  0  0  0  0  0  0  0  0  0  # atno 17321 bound_to 7965
  139.5753  144.1833  152.1894 LP  0  0  0  0  0  0  0  0  0  0  0  0  # atno 17342 bound_to 10162
  140.1142  144.5430  150.6905 LP  0  0  0  0  0  0  0  0  0  0  0  0  # atno 17343 bound_to 10162
  156.4532  130.7917  151.2938 LP  0  0  0  0  0  0  0  0  0  0  0  0  # atno 17370 bound_to 10713
  157.7494  131.0089  150.3245 LP  0  0  0  0  0  0  0  0  0  0  0  0  # atno 17371 bound_to 10713
  139.9718  135.0126  156.9530 LP  0  0  0  0  0  0  0  0  0  0  0  0  # atno 17394 bound_to 11000
  140.5287  134.0835  155.7310 LP  0  0  0  0  0  0  0  0  0  0  0  0  # atno 17395 bound_to 11000

$$$$
