AV-unprocessed.smi:1047|AV-procd|sdf|4578|dock5
  -GOLD-   22720 3 43D 1   1.00000     0.00000
 Structure written by MMmdl.
 56 58  0  0  0  0  0  0  0  0  2 V2000
  156.9545  140.7522  169.8040 C   0  0  0  0  0  0  0  0  0  0  0  0
  156.9241  142.2401  169.4282 C   0  0  0  0  0  0  0  0  0  0  0  0
  155.6878  142.6125  168.6908 N   0  3  1  0  0  0  0  0  0  0  0  0
  155.4957  144.0722  168.4966 C   0  0  0  0  0  0  0  0  0  0  0  0
  156.3767  144.6102  167.3530 C   0  0  0  0  0  0  0  0  0  0  0  0
  156.1267  143.8679  166.1657 O   0  0  0  0  0  0  0  0  0  0  0  0
  156.4409  142.4859  166.3089 C   0  0  2  0  0  0  0  0  0  0  0  0
  156.2154  141.8033  164.9521 C   0  0  0  0  0  0  0  0  0  0  0  0
  156.7831  140.4592  164.9390 N   0  0  0  0  0  0  0  0  0  0  0  0
  155.9789  139.5010  164.1866 C   0  0  0  0  0  0  0  0  0  0  0  0
  155.5999  140.0575  162.8003 C   0  0  1  0  0  0  0  0  0  0  0  0
  156.7898  140.2926  162.0764 O   0  0  0  0  0  0  0  0  0  0  0  0
  154.7375  139.0929  161.9628 C   0  0  0  0  0  0  0  0  0  0  0  0
  154.1618  139.7306  160.7924 N   0  0  0  0  0  0  0  0  0  0  0  0
  154.0069  139.1864  159.5701 C   0  0  0  0  0  0  0  0  0  0  0  0
  153.4581  139.9486  158.6289 N   0  0  0  0  0  0  0  0  0  0  0  0
  153.2232  141.1231  159.3231 C   0  0  0  0  0  0  0  0  0  0  0  0
  152.6541  142.3424  158.8946 C   0  0  0  0  0  0  0  0  0  0  0  0
  152.5103  143.4284  159.7873 C   0  0  0  0  0  0  0  0  0  0  0  0
  151.8938  144.7219  159.2842 C   0  0  0  0  0  0  0  0  0  0  0  0
  152.9397  143.3033  161.1330 C   0  0  0  0  0  0  0  0  0  0  0  0
  152.7957  144.4567  162.1103 C   0  0  0  0  0  0  0  0  0  0  0  0
  153.5113  142.0926  161.5773 C   0  0  0  0  0  0  0  0  0  0  0  0
  153.6491  141.0190  160.6797 C   0  0  0  0  0  0  0  0  0  0  0  0
  155.5266  141.8941  167.4026 C   0  0  0  0  0  0  0  0  0  0  0  0
  157.9149  140.4900  170.2485 H   0  0  0  0  0  0  0  0  0  0  0  0
  156.8149  140.1206  168.9262 H   0  0  0  0  0  0  0  0  0  0  0  0
  156.1831  140.4966  170.5299 H   0  0  0  0  0  0  0  0  0  0  0  0
  157.0507  142.8590  170.3163 H   0  0  0  0  0  0  0  0  0  0  0  0
  157.7889  142.4370  168.7934 H   0  0  0  0  0  0  0  0  0  0  0  0
  154.4476  144.2443  168.2483 H   0  0  0  0  0  0  0  0  0  0  0  0
  155.6816  144.6229  169.4179 H   0  0  0  0  0  0  0  0  0  0  0  0
  156.1432  145.6582  167.1652 H   0  0  0  0  0  0  0  0  0  0  0  0
  157.4360  144.5667  167.6086 H   0  0  0  0  0  0  0  0  0  0  0  0
  157.4867  142.3683  166.5994 H   0  0  0  0  0  0  0  0  0  0  0  0
  155.1448  141.7407  164.7527 H   0  0  0  0  0  0  0  0  0  0  0  0
  156.6459  142.4104  164.1544 H   0  0  0  0  0  0  0  0  0  0  0  0
  157.7228  140.4898  164.5552 H   0  0  0  0  0  0  0  0  0  0  0  0
  156.5006  138.5481  164.0859 H   0  0  0  0  0  0  0  0  0  0  0  0
  155.0732  139.2935  164.7564 H   0  0  0  0  0  0  0  0  0  0  0  0
  155.0664  141.0031  162.9087 H   0  0  0  0  0  0  0  0  0  0  0  0
  156.6986  141.1099  161.6105 H   0  0  0  0  0  0  0  0  0  0  0  0
  155.3379  138.2471  161.6244 H   0  0  0  0  0  0  0  0  0  0  0  0
  153.9311  138.6779  162.5687 H   0  0  0  0  0  0  0  0  0  0  0  0
  154.3191  138.1738  159.3592 H   0  0  0  0  0  0  0  0  0  0  0  0
  152.3282  142.4371  157.8693 H   0  0  0  0  0  0  0  0  0  0  0  0
  150.9933  144.9618  159.8496 H   0  0  0  0  0  0  0  0  0  0  0  0
  151.6180  144.6492  158.2318 H   0  0  0  0  0  0  0  0  0  0  0  0
  152.5992  145.5467  159.3883 H   0  0  0  0  0  0  0  0  0  0  0  0
  153.1718  144.1901  163.0984 H   0  0  0  0  0  0  0  0  0  0  0  0
  151.7481  144.7395  162.2162 H   0  0  0  0  0  0  0  0  0  0  0  0
  153.3561  145.3246  161.7622 H   0  0  0  0  0  0  0  0  0  0  0  0
  153.8443  141.9858  162.5990 H   0  0  0  0  0  0  0  0  0  0  0  0
  155.7169  140.8284  167.5354 H   0  0  0  0  0  0  0  0  0  0  0  0
  154.4844  141.9803  167.0915 H   0  0  0  0  0  0  0  0  0  0  0  0
  154.9284  142.2971  169.2776 H   0  0  0  0  0  0  0  0  0  0  0  0
  1  2  1  0  0  0  0
  1 26  1  0  0  0  0
  1 27  1  0  0  0  0
  1 28  1  0  0  0  0
  2  3  1  0  0  0  0
  2 29  1  0  0  0  0
  2 30  1  0  0  0  0
  3 25  1  0  0  0  0
  3  4  1  0  0  0  0
  3 56  1  0  0  0  0
  4  5  1  0  0  0  0
  4 31  1  0  0  0  0
  4 32  1  0  0  0  0
  5  6  1  0  0  0  0
  5 33  1  0  0  0  0
  5 34  1  0  0  0  0
  6  7  1  0  0  0  0
  7  8  1  0  0  0  0
  7 25  1  0  0  0  0
  7 35  1  0  0  0  0
  8  9  1  0  0  0  0
  8 36  1  0  0  0  0
  8 37  1  0  0  0  0
  9 10  1  0  0  0  0
  9 38  1  0  0  0  0
 10 11  1  0  0  0  0
 10 39  1  0  0  0  0
 10 40  1  0  0  0  0
 11 12  1  0  0  0  0
 11 13  1  0  0  0  0
 11 41  1  0  0  0  0
 12 42  1  0  0  0  0
 13 14  1  0  0  0  0
 13 43  1  0  0  0  0
 13 44  1  0  0  0  0
 14 24  1  0  0  0  0
 14 15  1  0  0  0  0
 15 16  2  0  0  0  0
 15 45  1  0  0  0  0
 16 17  1  0  0  0  0
 17 24  2  0  0  0  0
 17 18  1  0  0  0  0
 18 19  2  0  0  0  0
 18 46  1  0  0  0  0
 19 20  1  0  0  0  0
 19 21  1  0  0  0  0
 20 47  1  0  0  0  0
 20 48  1  0  0  0  0
 20 49  1  0  0  0  0
 21 22  1  0  0  0  0
 21 23  2  0  0  0  0
 22 50  1  0  0  0  0
 22 51  1  0  0  0  0
 22 52  1  0  0  0  0
 23 24  1  0  0  0  0
 23 53  1  0  0  0  0
 25 54  1  0  0  0  0
 25 55  1  0  0  0  0
M  CHG  1   3   1
M  END
> <s_m_source_file>
AV-unprocessed.smi

> <i_m_source_file_index>
1047

> <i_lp_mmshare_version>
43012

> <i_f3d_flags>
0

> <s_epik_input>
W0NIM11bQ0gyXU4xW0NIMl1bQ0gyXU9bQ0BIXShbQ0gyXTEpW0NIMl1bTkhdW0NIMl1bQ0BIXShbT0hdKVtDSDJdbihbY0hdbjIpYyhjMjMpW2NIXWMoW0NIM10pYyhbY0hdMylbQ0gzXQ==

> <s_epik_cmdline>
J2VwaWtfcHl0aG9uJywgJy1waCcsICc3LjAnLCAnLXRuJywgJzgnLCAnLW1hJywgJzIwMCcsICctbWV0YWxfYmluZGluZycsICctaW1hZScsICc8aW5maWxlLm1hZT4nLCAnLW9tYWUnLCAnPG91dGZpbGUubWFlPic=

> <r_epik_Ionization_Penalty>
1.19246

> <r_epik_Ionization_Penalty_Charging>
0.210041

> <r_epik_Ionization_Penalty_Neutral>
0.982415

> <r_epik_State_Penalty>
1.57595

> <r_epik_Charging_Adjusted_Penalty>
1.78599

> <i_epik_Tot_Q>
1

> <i_epik_Tot_abs_Q>
1

> <r_epik_Metal_State_Penalty>
1.46172

> <b_epik_Metal_Only>
0

> <s_lp_Force_Field>
OPLS_2005

> <r_lp_Energy>
33.2573

> <b_lp_Chiralities_Consistent>
1

> <s_lp_Variant>
AV-unprocessed.smi:1047-19

> <Gold.Version>
5.8.1

> <Gold.Id.Protein>
6NUR|6NUR_protein|mol2

> <Gold.PLP.Fitness>
53.2316

> <Gold.PLP.PLP>
-51.5492

> <Gold.PLP.part.hbond>
-3.0120

> <Gold.PLP.part.metal>
0.0000

> <Gold.PLP.part.buried>
-3.4407

> <Gold.PLP.part.nonpolar>
-42.9566

> <Gold.PLP.part.repulsive>
0.0843

> <Gold.PLP.ligand.clash>
0.0000

> <Gold.PLP.ligand.torsion>
0.7670

> <Gold.PLP.Chemscore.Hbond>
1.0000

> <Gold.PLP.Chemscore.CHOScore>
0.0000

> <Gold.PLP.Chemscore.Metal>
0.0000

> <Gold.Chemscore.Hbonds>
donor molecule, donor type, donor heavy atom, donor atom, acceptor molecule, acceptor atom, score
      P1  H  7997  8010       L1    16  1.00

> <Gold.PLP.Chemscore.Internal.Correction>
0.2164

> <Gold.Rescore>
     Score         DG    S(hbond)    S(metal)    S(lipo)     H(rot)  DE(clash)    DE(int)     intcor
     16.65     -19.41       0.91        0.00     150.26       2.62       2.02       0.73       ----

> <Gold.Chemscore.Fitness>
16.6521

> <Gold.Chemscore.DG>
-19.4056

> <Gold.Chemscore.ZeroCoef>
-5.4800

> <Gold.Chemscore.Hbond>
0.9146

> <Gold.Chemscore.Metal>
0.0000

> <Gold.Chemscore.Lipo>
150.2620

> <Gold.Chemscore.Internal_Hbond>
0.0000

> <Gold.Chemscore.DEClash>
2.0214

> <Gold.Chemscore.DEInternal>
0.7321

> <Gold.Chemscore.Rot>
2.6209

> <Gold.Chemscore.Internal.Correction>
   9.000000E+99

> <Gold.Chemscore.Hbonds>
donor molecule, donor type, donor heavy atom, donor atom, acceptor molecule, acceptor atom, score
      P1  H  7997  8010       L1    16  0.55

> <Gold.Chemscore.Hbond.Weighted>
-3.0546

> <Gold.Chemscore.Metal.Weighted>
-0.0000

> <Gold.Chemscore.Lipo.Weighted>
-17.5807

> <Gold.Chemscore.Internal_Hbond.Weighted>
0.0000

> <Gold.Chemscore.DEClash.Weighted>
2.0214

> <Gold.Chemscore.DEInternal.Weighted>
0.7321

> <Gold.Chemscore.Rot.Weighted>
6.7096

> <Gold.Chemscore.Internal.Correction.Weighted>
   9.000000E+99

> <Gold.Protein.RotatedTorsions>
[ 6907 6896 6895 6894 ] final  -43.14 input  -60.11 | X-H torsion
[ 7974 7965 7964 7962 ] final  110.85 input  175.53 | X-H torsion
[ 8008 7997 7996 7995 ] final   23.32 input   59.86 | X-H torsion
[ 10167 10162 10161 10158 ] final   -8.91 input  -65.29 | X-H torsion
[ 10718 10713 10712 10709 ] final   36.46 input   66.30 | X-H torsion
[ 10763 10752 10751 10750 ] final -100.02 input  -60.55 | X-H torsion
[ 11005 11000 10999 10996 ] final -144.40 input  -57.11 | X-H torsion

> <Gold.Protein.ActiveResidues>
 VAL166  LYS551  ARG553  GLY616  TRP617  ASP618  TYR619  PRO620  LYS621  CYS622 
 ASP623  PHE694  ASN695  SER759  ASP760  ASP761  ALA762  ILE779  LEU786  VAL792 
 PHE793  MET794  SER795  GLU796  ALA797  LYS798  CYS799  TRP800  GLU811  SER814 

> <Gold.Protein.RotatedAtoms>
  150.9473  134.8877  159.7649 H   0  0  0  0  0  0  0  0  0  0  0  0  # atno 6907 bound_to 6896
  152.5105  134.3856  159.9376 H   0  0  0  0  0  0  0  0  0  0  0  0  # atno 6908 bound_to 6896
  151.3874  133.3760  159.2752 H   0  0  0  0  0  0  0  0  0  0  0  0  # atno 6909 bound_to 6896
  145.2498  139.2744  143.4073 H   0  0  0  0  0  0  0  0  0  0  0  0  # atno 7974 bound_to 7965
  154.9791  140.3100  155.4954 H   0  0  0  0  0  0  0  0  0  0  0  0  # atno 8008 bound_to 7997
  156.2956  140.2270  156.4828 H   0  0  0  0  0  0  0  0  0  0  0  0  # atno 8009 bound_to 7997
  154.7806  140.0446  157.1112 H   0  0  0  0  0  0  0  0  0  0  0  0  # atno 8010 bound_to 7997
  140.7073  143.5916  150.8888 H   0  0  0  0  0  0  0  0  0  0  0  0  # atno 10167 bound_to 10162
  157.3351  130.7518  149.6873 H   0  0  0  0  0  0  0  0  0  0  0  0  # atno 10718 bound_to 10713
  154.7545  135.4950  153.9350 H   0  0  0  0  0  0  0  0  0  0  0  0  # atno 10763 bound_to 10752
  153.1181  135.6725  153.9391 H   0  0  0  0  0  0  0  0  0  0  0  0  # atno 10764 bound_to 10752
  153.9131  135.3096  155.3427 H   0  0  0  0  0  0  0  0  0  0  0  0  # atno 10765 bound_to 10752
  140.8028  134.2836  157.4972 H   0  0  0  0  0  0  0  0  0  0  0  0  # atno 11005 bound_to 11000
  146.3306  140.2885  142.8614 LP  0  0  0  0  0  0  0  0  0  0  0  0  # atno 17320 bound_to 7965
  144.9513  140.8181  143.5570 LP  0  0  0  0  0  0  0  0  0  0  0  0  # atno 17321 bound_to 7965
  139.9641  143.6130  152.2993 LP  0  0  0  0  0  0  0  0  0  0  0  0  # atno 17342 bound_to 10162
  139.6694  144.7661  151.1812 LP  0  0  0  0  0  0  0  0  0  0  0  0  # atno 17343 bound_to 10162
  155.9700  130.4184  150.4325 LP  0  0  0  0  0  0  0  0  0  0  0  0  # atno 17370 bound_to 10713
  157.2363  131.0515  151.2463 LP  0  0  0  0  0  0  0  0  0  0  0  0  # atno 17371 bound_to 10713
  139.8720  134.9439  156.3866 LP  0  0  0  0  0  0  0  0  0  0  0  0  # atno 17394 bound_to 11000
  140.9277  133.7601  155.9985 LP  0  0  0  0  0  0  0  0  0  0  0  0  # atno 17395 bound_to 11000

$$$$
