AV-unprocessed.smi:1964|AV-procd|sdf|7929|dock7
  -GOLD-   2272010103D 1   1.00000     0.00000
 Structure written by MMmdl.
 46 48  0  0  0  0  0  0  0  0  1 V2000
  145.7272  136.0744  162.6197 C   0  0  0  0  0  0  0  0  0  0  0  0
  146.1579  134.5998  162.5295 C   0  0  1  0  0  0  0  0  0  0  0  0
  145.0859  133.7428  161.8223 C   0  0  0  0  0  0  0  0  0  0  0  0
  145.4926  132.2611  161.7655 C   0  0  0  0  0  0  0  0  0  0  0  0
  146.8671  132.0791  161.1031 C   0  0  0  0  0  0  0  0  0  0  0  0
  147.9404  132.9317  161.8037 C   0  0  0  0  0  0  0  0  0  0  0  0
  147.5456  134.4217  161.8648 C   0  0  1  0  0  0  0  0  0  0  0  0
  147.5399  134.9939  160.5227 N   0  0  0  0  0  0  0  0  0  0  0  0
  147.6189  136.2924  160.1916 C   0  0  0  0  0  0  0  0  0  0  0  0
  147.7083  137.1937  161.0238 O   0  0  0  0  0  0  0  0  0  0  0  0
  147.6030  136.6421  158.6920 C   0  0  0  0  0  0  0  0  0  0  0  0
  148.8427  137.2960  158.2075 N   0  0  0  0  0  0  0  0  0  0  0  0
  149.9833  136.4889  157.9612 C   0  0  0  0  0  0  0  0  0  0  0  0
  149.9580  135.2744  158.1661 O   0  0  0  0  0  0  0  0  0  0  0  0
  151.1541  137.1945  157.4459 C   0  0  0  0  0  0  0  0  0  0  0  0
  152.3338  136.4248  157.2266 C   0  0  0  0  0  0  0  0  0  0  0  0
  153.2930  135.8094  157.0253 N   0  0  0  0  0  0  0  0  0  0  0  0
  151.1093  138.5171  157.1849 C   0  0  0  0  0  0  0  0  0  0  0  0
  149.9716  139.2707  157.3744 N   0  0  0  0  0  0  0  0  0  0  0  0
  149.9751  140.6947  157.1930 C   0  0  0  0  0  0  0  0  0  0  0  0
  149.0663  141.3349  156.1608 C   0  0  0  0  0  0  0  0  0  0  0  0
  150.5535  141.2692  155.9180 C   0  0  0  0  0  0  0  0  0  0  0  0
  148.8207  138.6885  157.9478 C   0  0  0  0  0  0  0  0  0  0  0  0
  147.8204  139.3647  158.1991 O   0  0  0  0  0  0  0  0  0  0  0  0
  145.5788  136.5143  161.6332 H   0  0  0  0  0  0  0  0  0  0  0  0
  146.4771  136.6704  163.1400 H   0  0  0  0  0  0  0  0  0  0  0  0
  144.7900  136.1742  163.1673 H   0  0  0  0  0  0  0  0  0  0  0  0
  146.2424  134.2334  163.5539 H   0  0  0  0  0  0  0  0  0  0  0  0
  144.1327  133.8362  162.3437 H   0  0  0  0  0  0  0  0  0  0  0  0
  144.9161  134.1140  160.8102 H   0  0  0  0  0  0  0  0  0  0  0  0
  145.5194  131.8522  162.7763 H   0  0  0  0  0  0  0  0  0  0  0  0
  144.7397  131.6902  161.2214 H   0  0  0  0  0  0  0  0  0  0  0  0
  147.1547  131.0278  161.1287 H   0  0  0  0  0  0  0  0  0  0  0  0
  146.8049  132.3535  160.0490 H   0  0  0  0  0  0  0  0  0  0  0  0
  148.0881  132.5582  162.8179 H   0  0  0  0  0  0  0  0  0  0  0  0
  148.8989  132.8145  161.2964 H   0  0  0  0  0  0  0  0  0  0  0  0
  148.2836  134.9504  162.4709 H   0  0  0  0  0  0  0  0  0  0  0  0
  147.4685  134.3322  159.7638 H   0  0  0  0  0  0  0  0  0  0  0  0
  147.4029  135.7269  158.1332 H   0  0  0  0  0  0  0  0  0  0  0  0
  146.7282  137.2638  158.4955 H   0  0  0  0  0  0  0  0  0  0  0  0
  151.9940  139.0047  156.8012 H   0  0  0  0  0  0  0  0  0  0  0  0
  150.1496  141.2770  158.0960 H   0  0  0  0  0  0  0  0  0  0  0  0
  148.4375  140.6872  155.5528 H   0  0  0  0  0  0  0  0  0  0  0  0
  148.6376  142.3048  156.4038 H   0  0  0  0  0  0  0  0  0  0  0  0
  151.1168  142.1969  155.9963 H   0  0  0  0  0  0  0  0  0  0  0  0
  150.9015  140.5766  155.1538 H   0  0  0  0  0  0  0  0  0  0  0  0
  1  2  1  0  0  0  0
  1 25  1  0  0  0  0
  1 26  1  0  0  0  0
  1 27  1  0  0  0  0
  2  7  1  0  0  0  0
  2  3  1  0  0  0  0
  2 28  1  0  0  0  0
  3  4  1  0  0  0  0
  3 29  1  0  0  0  0
  3 30  1  0  0  0  0
  4  5  1  0  0  0  0
  4 31  1  0  0  0  0
  4 32  1  0  0  0  0
  5  6  1  0  0  0  0
  5 33  1  0  0  0  0
  5 34  1  0  0  0  0
  6  7  1  0  0  0  0
  6 35  1  0  0  0  0
  6 36  1  0  0  0  0
  7  8  1  0  0  0  0
  7 37  1  0  0  0  0
  8  9  1  0  0  0  0
  8 38  1  0  0  0  0
  9 10  2  0  0  0  0
  9 11  1  0  0  0  0
 11 12  1  0  0  0  0
 11 39  1  0  0  0  0
 11 40  1  0  0  0  0
 12 23  1  0  0  0  0
 12 13  1  0  0  0  0
 13 14  2  0  0  0  0
 13 15  1  0  0  0  0
 15 16  1  0  0  0  0
 15 18  2  0  0  0  0
 16 17  3  0  0  0  0
 18 19  1  0  0  0  0
 18 41  1  0  0  0  0
 19 20  1  0  0  0  0
 19 23  1  0  0  0  0
 20 22  1  0  0  0  0
 20 21  1  0  0  0  0
 20 42  1  0  0  0  0
 21 22  1  0  0  0  0
 21 43  1  0  0  0  0
 21 44  1  0  0  0  0
 22 45  1  0  0  0  0
 22 46  1  0  0  0  0
 23 24  2  0  0  0  0
M  END
> <s_m_source_file>
AV-unprocessed.smi

> <i_m_source_file_index>
1964

> <i_lp_mmshare_version>
43012

> <i_f3d_flags>
0

> <s_epik_input>
W0NIM11bQ0BASF0xW0NIMl1bQ0gyXVtDSDJdW0NIMl1bQ0BIXTFbTkhdQyg9TylbQ0gyXW4yYyg9TyljKEMjTilbY0hdbihjMj1PKVtDSF0zW0NIMl1bQ0gyXTM=

> <s_epik_cmdline>
J2VwaWtfcHl0aG9uJywgJy1waCcsICc3LjAnLCAnLXRuJywgJzgnLCAnLW1hJywgJzIwMCcsICctbWV0YWxfYmluZGluZycsICctaW1hZScsICc8aW5maWxlLm1hZT4nLCAnLW9tYWUnLCAnPG91dGZpbGUubWFlPic=

> <r_lp_tautomer_probability>
1

> <r_epik_Ionization_Penalty>
1.91372e-08

> <r_epik_Ionization_Penalty_Charging>
9.0283e-11

> <r_epik_Ionization_Penalty_Neutral>
1.90469e-08

> <r_epik_State_Penalty>
-0

> <r_epik_Charging_Adjusted_Penalty>
9.0283e-11

> <i_epik_Tot_Q>
0

> <i_epik_Tot_abs_Q>
0

> <r_epik_Metal_State_Penalty>
-0

> <b_epik_Metal_Only>
0

> <s_lp_Force_Field>
OPLS_2005

> <r_lp_Energy>
33.6562

> <b_lp_Chiralities_Consistent>
1

> <s_lp_Variant>
AV-unprocessed.smi:1964-2

> <Gold.Version>
5.8.1

> <Gold.Id.Protein>
6NUR|6NUR_protein|mol2

> <Gold.PLP.Fitness>
43.7597

> <Gold.PLP.PLP>
-33.8738

> <Gold.PLP.part.hbond>
-5.0000

> <Gold.PLP.part.metal>
0.0000

> <Gold.PLP.part.buried>
-5.7083

> <Gold.PLP.part.nonpolar>
-22.9675

> <Gold.PLP.part.repulsive>
0.0579

> <Gold.PLP.ligand.clash>
0.0000

> <Gold.PLP.ligand.torsion>
0.7067

> <Gold.PLP.Chemscore.Hbond>
3.7040

> <Gold.PLP.Chemscore.CHOScore>
0.0000

> <Gold.PLP.Chemscore.Metal>
0.0000

> <Gold.Chemscore.Hbonds>
donor molecule, donor type, donor heavy atom, donor atom, acceptor molecule, acceptor atom, score
      P1  H  6896  6908       L1    14  0.96
      P1  H  6931  6943       L1    10  0.90
      P1  H  6934  6947       L1    10  0.88
      P1  H 10752 10763       L1    17  1.00

> <Gold.PLP.Chemscore.Internal.Correction>
0.1873

> <Gold.Rescore>
     Score         DG    S(hbond)    S(metal)    S(lipo)     H(rot)  DE(clash)    DE(int)     intcor
     21.21     -22.07       3.72        0.00      72.77       1.70       0.01       0.86       ----

> <Gold.Chemscore.Fitness>
21.2094

> <Gold.Chemscore.DG>
-22.0724

> <Gold.Chemscore.ZeroCoef>
-5.4800

> <Gold.Chemscore.Hbond>
3.7247

> <Gold.Chemscore.Metal>
0.0000

> <Gold.Chemscore.Lipo>
72.7660

> <Gold.Chemscore.Internal_Hbond>
0.0000

> <Gold.Chemscore.DEClash>
0.0073

> <Gold.Chemscore.DEInternal>
0.8557

> <Gold.Chemscore.Rot>
1.7038

> <Gold.Chemscore.Internal.Correction>
   9.000000E+99

> <Gold.Chemscore.Hbonds>
donor molecule, donor type, donor heavy atom, donor atom, acceptor molecule, acceptor atom, score
      P1  H  6896  6908       L1    14  0.92
      P1  H  6931  6943       L1    10  0.88
      P1  H  6934  6947       L1    10  0.86
      P1  H 10752 10763       L1    17  0.96

> <Gold.Chemscore.Hbond.Weighted>
-12.4406

> <Gold.Chemscore.Metal.Weighted>
-0.0000

> <Gold.Chemscore.Lipo.Weighted>
-8.5136

> <Gold.Chemscore.Internal_Hbond.Weighted>
0.0000

> <Gold.Chemscore.DEClash.Weighted>
0.0073

> <Gold.Chemscore.DEInternal.Weighted>
0.8557

> <Gold.Chemscore.Rot.Weighted>
4.3618

> <Gold.Chemscore.Internal.Correction.Weighted>
   9.000000E+99

> <Gold.Protein.RotatedTorsions>
[ 6907 6896 6895 6894 ] final  161.37 input  -60.11 | X-H torsion
[ 7974 7965 7964 7962 ] final   82.88 input  175.53 | X-H torsion
[ 8008 7997 7996 7995 ] final   51.03 input   59.86 | X-H torsion
[ 10167 10162 10161 10158 ] final  -58.37 input  -65.29 | X-H torsion
[ 10718 10713 10712 10709 ] final  -23.17 input   66.30 | X-H torsion
[ 10763 10752 10751 10750 ] final  125.03 input  -60.55 | X-H torsion
[ 11005 11000 10999 10996 ] final  -88.73 input  -57.11 | X-H torsion

> <Gold.Protein.ActiveResidues>
 VAL166  LYS551  ARG553  GLY616  TRP617  ASP618  TYR619  PRO620  LYS621  CYS622 
 ASP623  PHE694  ASN695  SER759  ASP760  ASP761  ALA762  ILE779  LEU786  VAL792 
 PHE793  MET794  SER795  GLU796  ALA797  LYS798  CYS799  TRP800  GLU811  SER814 

> <Gold.Protein.RotatedAtoms>
  151.9566  133.3682  159.4019 H   0  0  0  0  0  0  0  0  0  0  0  0  # atno 6907 bound_to 6896
  150.6971  134.4285  159.5246 H   0  0  0  0  0  0  0  0  0  0  0  0  # atno 6908 bound_to 6896
  152.1967  134.8624  160.0563 H   0  0  0  0  0  0  0  0  0  0  0  0  # atno 6909 bound_to 6896
  145.6193  139.2383  143.2147 H   0  0  0  0  0  0  0  0  0  0  0  0  # atno 7974 bound_to 7965
  155.4285  140.3449  155.4278 H   0  0  0  0  0  0  0  0  0  0  0  0  # atno 8008 bound_to 7997
  156.1350  140.1525  156.9038 H   0  0  0  0  0  0  0  0  0  0  0  0  # atno 8009 bound_to 7997
  154.4925  140.0837  156.7605 H   0  0  0  0  0  0  0  0  0  0  0  0  # atno 8010 bound_to 7997
  140.6201  143.2416  151.5501 H   0  0  0  0  0  0  0  0  0  0  0  0  # atno 10167 bound_to 10162
  156.4946  130.4574  149.6735 H   0  0  0  0  0  0  0  0  0  0  0  0  # atno 10718 bound_to 10713
  153.6708  135.3330  155.3152 H   0  0  0  0  0  0  0  0  0  0  0  0  # atno 10763 bound_to 10752
  154.8491  135.4386  154.1707 H   0  0  0  0  0  0  0  0  0  0  0  0  # atno 10764 bound_to 10752
  153.2698  135.6999  153.7568 H   0  0  0  0  0  0  0  0  0  0  0  0  # atno 10765 bound_to 10752
  141.1597  133.7587  156.9493 H   0  0  0  0  0  0  0  0  0  0  0  0  # atno 11005 bound_to 11000
  146.1443  140.7014  142.9352 LP  0  0  0  0  0  0  0  0  0  0  0  0  # atno 17320 bound_to 7965
  144.7237  140.4458  143.6989 LP  0  0  0  0  0  0  0  0  0  0  0  0  # atno 17321 bound_to 7965
  139.5432  144.2592  152.1391 LP  0  0  0  0  0  0  0  0  0  0  0  0  # atno 17342 bound_to 10162
  140.1810  144.4844  150.6528 LP  0  0  0  0  0  0  0  0  0  0  0  0  # atno 17343 bound_to 10162
  156.3392  130.7373  151.2315 LP  0  0  0  0  0  0  0  0  0  0  0  0  # atno 17370 bound_to 10713
  157.7470  131.0408  150.4616 LP  0  0  0  0  0  0  0  0  0  0  0  0  # atno 17371 bound_to 10713
  140.1268  134.9382  157.2281 LP  0  0  0  0  0  0  0  0  0  0  0  0  # atno 17394 bound_to 11000
  140.3003  134.3139  155.7291 LP  0  0  0  0  0  0  0  0  0  0  0  0  # atno 17395 bound_to 11000

$$$$
