AV-unprocessed.smi:2836|AV-procd|sdf|10919|dock4
  -GOLD-   2272015363D 1   1.00000     0.00000
 Structure written by MMmdl.
 30 31  0  0  0  0  0  0  0  0  1 V2000
  150.6685  135.4705  154.8439 N   0  0  0  0  0  0  0  0  0  0  0  0
  151.3439  136.2593  155.6845 C   0  0  0  0  0  0  0  0  0  0  0  0
  152.0517  135.8200  156.5880 O   0  0  0  0  0  0  0  0  0  0  0  0
  151.1433  137.7314  155.5027 C   0  0  0  0  0  0  0  0  0  0  0  0
  150.6105  138.3725  154.3535 C   0  0  0  0  0  0  0  0  0  0  0  0
  150.5412  139.6832  154.5341 N   0  0  0  0  0  0  0  0  0  0  0  0
  151.0044  139.8925  155.7930 N   0  0  0  0  0  0  0  0  0  0  0  0
  151.0463  141.2406  156.3285 C   0  0  0  0  0  0  0  0  0  0  0  0
  151.8887  141.3257  157.6093 C   0  0  0  0  0  0  0  0  0  0  0  0
  151.7149  142.6066  158.1999 O   0  0  0  0  0  0  0  0  0  0  0  0
  152.1554  142.8050  159.4909 C   0  0  0  0  0  0  0  0  0  0  0  0
  152.9958  141.8996  160.1875 C   0  0  0  0  0  0  0  0  0  0  0  0
  153.4064  142.1770  161.5058 C   0  0  0  0  0  0  0  0  0  0  0  0
  152.9843  143.3575  162.1437 C   0  0  0  0  0  0  0  0  0  0  0  0
  153.3806  143.6230  163.4109 F   0  0  0  0  0  0  0  0  0  0  0  0
  152.1495  144.2616  161.4619 C   0  0  0  0  0  0  0  0  0  0  0  0
  151.7377  143.9867  160.1432 C   0  0  0  0  0  0  0  0  0  0  0  0
  150.7100  145.1110  159.3282 Cl  0  0  0  0  0  0  0  0  0  0  0  0
  151.3742  138.7171  156.4168 C   0  0  0  0  0  0  0  0  0  0  0  0
  150.7580  134.4676  154.9187 H   0  0  0  0  0  0  0  0  0  0  0  0
  150.0686  135.8771  154.1413 H   0  0  0  0  0  0  0  0  0  0  0  0
  150.2823  137.9435  153.4181 H   0  0  0  0  0  0  0  0  0  0  0  0
  151.4544  141.9036  155.5649 H   0  0  0  0  0  0  0  0  0  0  0  0
  150.0266  141.5759  156.5245 H   0  0  0  0  0  0  0  0  0  0  0  0
  151.5771  140.5443  158.3046 H   0  0  0  0  0  0  0  0  0  0  0  0
  152.9388  141.1611  157.3639 H   0  0  0  0  0  0  0  0  0  0  0  0
  153.3423  140.9851  159.7315 H   0  0  0  0  0  0  0  0  0  0  0  0
  154.0479  141.4824  162.0278 H   0  0  0  0  0  0  0  0  0  0  0  0
  151.8250  145.1679  161.9518 H   0  0  0  0  0  0  0  0  0  0  0  0
  151.7547  138.6896  157.4273 H   0  0  0  0  0  0  0  0  0  0  0  0
  1  2  1  0  0  0  0
  1 20  1  0  0  0  0
  1 21  1  0  0  0  0
  2  3  2  0  0  0  0
  2  4  1  0  0  0  0
  4 19  2  0  0  0  0
  4  5  1  0  0  0  0
  5  6  2  0  0  0  0
  5 22  1  0  0  0  0
  6  7  1  0  0  0  0
  7  8  1  0  0  0  0
  7 19  1  0  0  0  0
  8  9  1  0  0  0  0
  8 23  1  0  0  0  0
  8 24  1  0  0  0  0
  9 10  1  0  0  0  0
  9 25  1  0  0  0  0
  9 26  1  0  0  0  0
 10 11  1  0  0  0  0
 11 17  1  0  0  0  0
 11 12  2  0  0  0  0
 12 13  1  0  0  0  0
 12 27  1  0  0  0  0
 13 14  2  0  0  0  0
 13 28  1  0  0  0  0
 14 15  1  0  0  0  0
 14 16  1  0  0  0  0
 16 17  2  0  0  0  0
 16 29  1  0  0  0  0
 17 18  1  0  0  0  0
 19 30  1  0  0  0  0
M  END
> <s_m_source_file>
AV-unprocessed.smi

> <i_m_source_file_index>
2836

> <i_lp_mmshare_version>
43012

> <i_f3d_flags>
0

> <s_epik_input>
W05IMl1DKD1PKWMxW2NIXW5uKFtjSF0xKVtDSDJdW0NIMl1PYzJbY0hdW2NIXWMoRilbY0hdYzJDbA==

> <s_epik_cmdline>
J2VwaWtfcHl0aG9uJywgJy1waCcsICc3LjAnLCAnLXRuJywgJzgnLCAnLW1hJywgJzIwMCcsICctbWV0YWxfYmluZGluZycsICctaW1hZScsICc8aW5maWxlLm1hZT4nLCAnLW9tYWUnLCAnPG91dGZpbGUubWFlPic=

> <r_lp_tautomer_probability>
1

> <r_epik_Ionization_Penalty>
2.53738e-06

> <r_epik_Ionization_Penalty_Charging>
0

> <r_epik_Ionization_Penalty_Neutral>
2.53738e-06

> <r_epik_State_Penalty>
-0

> <r_epik_Charging_Adjusted_Penalty>
0

> <i_epik_Tot_Q>
0

> <i_epik_Tot_abs_Q>
0

> <r_epik_Metal_State_Penalty>
-0

> <b_epik_Metal_Only>
0

> <s_lp_Force_Field>
OPLS_2005

> <r_lp_Energy>
11.0812

> <b_lp_Chiralities_Consistent>
1

> <s_lp_Variant>
AV-unprocessed.smi:2836-1

> <Gold.Version>
5.8.1

> <Gold.Id.Protein>
6NUR|6NUR_protein|mol2

> <Gold.PLP.Fitness>
61.0385

> <Gold.PLP.PLP>
-48.9572

> <Gold.PLP.part.hbond>
-4.0000

> <Gold.PLP.part.metal>
0.0000

> <Gold.PLP.part.buried>
-5.8013

> <Gold.PLP.part.nonpolar>
-38.3114

> <Gold.PLP.part.repulsive>
0.2425

> <Gold.PLP.ligand.clash>
0.0000

> <Gold.PLP.ligand.torsion>
0.5058

> <Gold.PLP.Chemscore.Hbond>
2.8960

> <Gold.PLP.Chemscore.CHOScore>
1.4521

> <Gold.PLP.Chemscore.Metal>
0.0000

> <Gold.Chemscore.Hbonds>
donor molecule, donor type, donor heavy atom, donor atom, acceptor molecule, acceptor atom, score
      P1  H  7989  7998       L1     6  1.00
      P1  H 10752 10763       L1     3  0.10
      L1  C     5    22       P1  7948  0.78
      L1  C     5    22       P1  7949  0.05

> <Gold.PLP.Chemscore.Internal.Correction>
0.0487

> <Gold.Rescore>
     Score         DG    S(hbond)    S(metal)    S(lipo)     H(rot)  DE(clash)    DE(int)     intcor
     17.68     -18.69       1.50        0.00     111.27       1.89       0.02       0.98       ----

> <Gold.Chemscore.Fitness>
17.6848

> <Gold.Chemscore.DG>
-18.6873

> <Gold.Chemscore.ZeroCoef>
-5.4800

> <Gold.Chemscore.Hbond>
1.5020

> <Gold.Chemscore.Metal>
0.0000

> <Gold.Chemscore.Lipo>
111.2651

> <Gold.Chemscore.Internal_Hbond>
0.0000

> <Gold.Chemscore.DEClash>
0.0212

> <Gold.Chemscore.DEInternal>
0.9813

> <Gold.Chemscore.Rot>
1.8857

> <Gold.Chemscore.Internal.Correction>
   9.000000E+99

> <Gold.Chemscore.Hbonds>
donor molecule, donor type, donor heavy atom, donor atom, acceptor molecule, acceptor atom, score
      P1  H  7989  7998       L1     6  0.39

> <Gold.Chemscore.Hbond.Weighted>
-5.0168

> <Gold.Chemscore.Metal.Weighted>
-0.0000

> <Gold.Chemscore.Lipo.Weighted>
-13.0180

> <Gold.Chemscore.Internal_Hbond.Weighted>
0.0000

> <Gold.Chemscore.DEClash.Weighted>
0.0212

> <Gold.Chemscore.DEInternal.Weighted>
0.9813

> <Gold.Chemscore.Rot.Weighted>
4.8275

> <Gold.Chemscore.Internal.Correction.Weighted>
   9.000000E+99

> <Gold.Protein.RotatedTorsions>
[ 6907 6896 6895 6894 ] final   87.70 input  -60.11 | X-H torsion
[ 7974 7965 7964 7962 ] final  -34.63 input  175.53 | X-H torsion
[ 8008 7997 7996 7995 ] final  -74.22 input   59.86 | X-H torsion
[ 10167 10162 10161 10158 ] final  161.13 input  -65.29 | X-H torsion
[ 10718 10713 10712 10709 ] final   22.70 input   66.30 | X-H torsion
[ 10763 10752 10751 10750 ] final   96.46 input  -60.55 | X-H torsion
[ 11005 11000 10999 10996 ] final   12.35 input  -57.11 | X-H torsion

> <Gold.Protein.ActiveResidues>
 VAL166  LYS551  ARG553  GLY616  TRP617  ASP618  TYR619  PRO620  LYS621  CYS622 
 ASP623  PHE694  ASN695  SER759  ASP760  ASP761  ALA762  ILE779  LEU786  VAL792 
 PHE793  MET794  SER795  GLU796  ALA797  LYS798  CYS799  TRP800  GLU811  SER814 

> <Gold.Protein.RotatedAtoms>
  152.5415  134.2236  159.8797 H   0  0  0  0  0  0  0  0  0  0  0  0  # atno 6907 bound_to 6896
  151.2212  133.4495  159.2608 H   0  0  0  0  0  0  0  0  0  0  0  0  # atno 6908 bound_to 6896
  151.0804  134.9867  159.8409 H   0  0  0  0  0  0  0  0  0  0  0  0  # atno 6909 bound_to 6896
  146.0813  140.6062  142.8907 H   0  0  0  0  0  0  0  0  0  0  0  0  # atno 7974 bound_to 7965
  154.5313  140.0765  156.8349 H   0  0  0  0  0  0  0  0  0  0  0  0  # atno 8008 bound_to 7997
  155.3370  140.3405  155.4221 H   0  0  0  0  0  0  0  0  0  0  0  0  # atno 8009 bound_to 7997
  156.1784  140.1643  156.8307 H   0  0  0  0  0  0  0  0  0  0  0  0  # atno 8010 bound_to 7997
  139.4846  144.4567  151.8759 H   0  0  0  0  0  0  0  0  0  0  0  0  # atno 10167 bound_to 10162
  157.1559  130.6695  149.6027 H   0  0  0  0  0  0  0  0  0  0  0  0  # atno 10718 bound_to 10713
  153.2652  135.4218  155.0934 H   0  0  0  0  0  0  0  0  0  0  0  0  # atno 10763 bound_to 10752
  154.8435  135.3459  154.6321 H   0  0  0  0  0  0  0  0  0  0  0  0  # atno 10764 bound_to 10752
  153.6741  135.7042  153.5195 H   0  0  0  0  0  0  0  0  0  0  0  0  # atno 10765 bound_to 10752
  140.4929  134.0822  155.7775 H   0  0  0  0  0  0  0  0  0  0  0  0  # atno 11005 bound_to 11000
  144.7295  140.4629  143.6948 LP  0  0  0  0  0  0  0  0  0  0  0  0  # atno 17320 bound_to 7965
  145.6212  139.1524  143.3021 LP  0  0  0  0  0  0  0  0  0  0  0  0  # atno 17321 bound_to 7965
  140.4027  144.2473  150.5892 LP  0  0  0  0  0  0  0  0  0  0  0  0  # atno 17342 bound_to 10162
  140.5042  143.2309  151.8633 LP  0  0  0  0  0  0  0  0  0  0  0  0  # atno 17343 bound_to 10162
  155.9762  130.4728  150.6512 LP  0  0  0  0  0  0  0  0  0  0  0  0  # atno 17370 bound_to 10713
  157.4177  131.0832  151.1161 LP  0  0  0  0  0  0  0  0  0  0  0  0  # atno 17371 bound_to 10713
  141.1475  133.9029  157.2180 LP  0  0  0  0  0  0  0  0  0  0  0  0  # atno 17394 bound_to 11000
  139.9758  135.0114  156.9628 LP  0  0  0  0  0  0  0  0  0  0  0  0  # atno 17395 bound_to 11000

$$$$
