AV-unprocessed.smi:2032|AV-procd|sdf|8236|dock10
  -GOLD-   2272010503D 1   1.00000     0.00000
 Structure written by MMmdl.
 42 43  0  0  0  0  0  0  0  0  1 V2000
  150.8094  141.9698  156.1677 C   0  0  0  0  0  0  0  0  0  0  0  0
  150.2384  140.6097  155.7528 C   0  0  1  0  0  0  0  0  0  0  0  0
  148.8949  140.7488  155.0157 C   0  0  0  0  0  0  0  0  0  0  0  0
  148.3768  139.4627  154.5452 N   0  0  0  0  0  0  0  0  0  0  0  0
  147.0663  139.5902  153.8702 C   0  0  1  0  0  0  0  0  0  0  0  0
  147.1779  139.9128  152.3628 C   0  0  0  0  0  0  0  0  0  0  0  0
  146.1465  138.3520  154.0402 C   0  0  0  0  0  0  0  0  0  0  0  0
  146.4777  137.2794  153.1040 N   0  0  0  0  0  0  0  0  0  0  0  0
  145.6235  136.3600  152.6328 C   0  0  0  0  0  0  0  0  0  0  0  0
  144.4392  136.2970  152.9645 O   0  0  0  0  0  0  0  0  0  0  0  0
  146.2312  135.5380  151.7595 N   0  0  0  0  0  0  0  0  0  0  0  0
  145.6675  134.4558  151.0341 C   0  0  0  0  0  0  0  0  0  0  0  0
  144.3772  134.3681  150.6906 N   0  0  0  0  0  0  0  0  0  0  0  0
  144.1019  133.1963  149.9812 C   0  0  0  0  0  0  0  0  0  0  0  0
  145.2022  132.3979  149.7916 C   0  0  0  0  0  0  0  0  0  0  0  0
  146.6368  133.0898  150.5012 S   0  0  0  0  0  0  0  0  0  0  0  0
  149.3946  138.8488  153.6880 C   0  0  0  0  0  0  0  0  0  0  0  0
  150.7709  138.7175  154.3705 C   0  0  2  0  0  0  0  0  0  0  0  0
  150.8204  137.6057  155.4325 C   0  0  0  0  0  0  0  0  0  0  0  0
  151.1860  139.9756  154.8993 O   0  0  0  0  0  0  0  0  0  0  0  0
  150.1224  142.4992  156.8281 H   0  0  0  0  0  0  0  0  0  0  0  0
  150.9933  142.6021  155.2987 H   0  0  0  0  0  0  0  0  0  0  0  0
  151.7541  141.8497  156.6986 H   0  0  0  0  0  0  0  0  0  0  0  0
  150.0989  140.0088  156.6519 H   0  0  0  0  0  0  0  0  0  0  0  0
  148.1939  141.2143  155.7064 H   0  0  0  0  0  0  0  0  0  0  0  0
  149.0069  141.4322  154.1724 H   0  0  0  0  0  0  0  0  0  0  0  0
  146.5358  140.4288  154.3239 H   0  0  0  0  0  0  0  0  0  0  0  0
  146.2029  139.8726  151.8765 H   0  0  0  0  0  0  0  0  0  0  0  0
  147.8309  139.2068  151.8488 H   0  0  0  0  0  0  0  0  0  0  0  0
  147.5625  140.9166  152.1856 H   0  0  0  0  0  0  0  0  0  0  0  0
  146.2190  137.9527  155.0512 H   0  0  0  0  0  0  0  0  0  0  0  0
  145.0995  138.6433  153.9409 H   0  0  0  0  0  0  0  0  0  0  0  0
  147.4295  137.2561  152.7682 H   0  0  0  0  0  0  0  0  0  0  0  0
  147.2102  135.7120  151.5864 H   0  0  0  0  0  0  0  0  0  0  0  0
  143.0915  133.0099  149.6482 H   0  0  0  0  0  0  0  0  0  0  0  0
  145.2551  131.4485  149.2798 H   0  0  0  0  0  0  0  0  0  0  0  0
  149.0851  137.8538  153.3714 H   0  0  0  0  0  0  0  0  0  0  0  0
  149.5061  139.4423  152.7793 H   0  0  0  0  0  0  0  0  0  0  0  0
  151.5000  138.4550  153.6035 H   0  0  0  0  0  0  0  0  0  0  0  0
  150.6174  136.6329  154.9839 H   0  0  0  0  0  0  0  0  0  0  0  0
  150.0849  137.7584  156.2221 H   0  0  0  0  0  0  0  0  0  0  0  0
  151.8051  137.5556  155.8971 H   0  0  0  0  0  0  0  0  0  0  0  0
  1  2  1  0  0  0  0
  1 21  1  0  0  0  0
  1 22  1  0  0  0  0
  1 23  1  0  0  0  0
  2 20  1  0  0  0  0
  2  3  1  0  0  0  0
  2 24  1  0  0  0  0
  3  4  1  0  0  0  0
  3 25  1  0  0  0  0
  3 26  1  0  0  0  0
  4  5  1  0  0  0  0
  4 17  1  0  0  0  0
  5  6  1  0  0  0  0
  5  7  1  0  0  0  0
  5 27  1  0  0  0  0
  6 28  1  0  0  0  0
  6 29  1  0  0  0  0
  6 30  1  0  0  0  0
  7  8  1  0  0  0  0
  7 31  1  0  0  0  0
  7 32  1  0  0  0  0
  8  9  1  0  0  0  0
  8 33  1  0  0  0  0
  9 10  2  0  0  0  0
  9 11  1  0  0  0  0
 11 12  1  0  0  0  0
 11 34  1  0  0  0  0
 12 16  1  0  0  0  0
 12 13  2  0  0  0  0
 13 14  1  0  0  0  0
 14 15  2  0  0  0  0
 14 35  1  0  0  0  0
 15 16  1  0  0  0  0
 15 36  1  0  0  0  0
 17 18  1  0  0  0  0
 17 37  1  0  0  0  0
 17 38  1  0  0  0  0
 18 19  1  0  0  0  0
 18 20  1  0  0  0  0
 18 39  1  0  0  0  0
 19 40  1  0  0  0  0
 19 41  1  0  0  0  0
 19 42  1  0  0  0  0
M  END
> <s_m_source_file>
AV-unprocessed.smi

> <i_m_source_file_index>
2032

> <i_lp_mmshare_version>
43012

> <i_f3d_flags>
0

> <s_epik_input>
W0NIM11bQ0BASF0xW0NIMl1OKFtDSDJdW0NASF0oTzEpW0NIM10pW0NASF0oW0NIM10pW0NIMl1bTkhdQyg9TylbTkhdYzJuW2NIXVtjSF1zMg==

> <s_epik_cmdline>
J2VwaWtfcHl0aG9uJywgJy1waCcsICc3LjAnLCAnLXRuJywgJzgnLCAnLW1hJywgJzIwMCcsICctbWV0YWxfYmluZGluZycsICctaW1hZScsICc8aW5maWxlLm1hZT4nLCAnLW9tYWUnLCAnPG91dGZpbGUubWFlPic=

> <r_lp_tautomer_probability>
0.999

> <r_epik_Ionization_Penalty>
0.219202

> <r_epik_Ionization_Penalty_Charging>
0

> <r_epik_Ionization_Penalty_Neutral>
0.219202

> <r_epik_State_Penalty>
0.209349

> <r_epik_Charging_Adjusted_Penalty>
0.209349

> <i_epik_Tot_Q>
0

> <i_epik_Tot_abs_Q>
0

> <r_epik_Metal_State_Penalty>
0.247737

> <b_epik_Metal_Only>
0

> <s_lp_Force_Field>
OPLS_2005

> <r_lp_Energy>
32.3781

> <b_lp_Chiralities_Consistent>
1

> <s_lp_Variant>
AV-unprocessed.smi:2032-6

> <Gold.Version>
5.8.1

> <Gold.Id.Protein>
6NUR|6NUR_protein|mol2

> <Gold.PLP.Fitness>
40.0241

> <Gold.PLP.PLP>
-30.3628

> <Gold.PLP.part.hbond>
-3.0000

> <Gold.PLP.part.metal>
0.0000

> <Gold.PLP.part.buried>
-0.0225

> <Gold.PLP.part.nonpolar>
-27.9915

> <Gold.PLP.part.repulsive>
0.5344

> <Gold.PLP.ligand.clash>
0.0000

> <Gold.PLP.ligand.torsion>
1.1621

> <Gold.PLP.Chemscore.Hbond>
2.9833

> <Gold.PLP.Chemscore.CHOScore>
0.9992

> <Gold.PLP.Chemscore.Metal>
0.0000

> <Gold.Chemscore.Hbonds>
donor molecule, donor type, donor heavy atom, donor atom, acceptor molecule, acceptor atom, score
      L1  H     8    33       P1  7948  0.97
      L1  H    11    34       P1  7948  1.00
      P1  H  7989  7998       L1    20  1.00
      L1  C    14    35       P1 10186  1.00

> <Gold.PLP.Chemscore.Internal.Correction>
0.0379

> <Gold.Rescore>
     Score         DG    S(hbond)    S(metal)    S(lipo)     H(rot)  DE(clash)    DE(int)     intcor
     15.68     -20.80       2.60        0.00      91.18       1.57       2.89       2.23       ----

> <Gold.Chemscore.Fitness>
15.6827

> <Gold.Chemscore.DG>
-20.8045

> <Gold.Chemscore.ZeroCoef>
-5.4800

> <Gold.Chemscore.Hbond>
2.6012

> <Gold.Chemscore.Metal>
0.0000

> <Gold.Chemscore.Lipo>
91.1825

> <Gold.Chemscore.Internal_Hbond>
0.0000

> <Gold.Chemscore.DEClash>
2.8946

> <Gold.Chemscore.DEInternal>
2.2272

> <Gold.Chemscore.Rot>
1.5750

> <Gold.Chemscore.Internal.Correction>
   9.000000E+99

> <Gold.Chemscore.Hbonds>
donor molecule, donor type, donor heavy atom, donor atom, acceptor molecule, acceptor atom, score
      L1  H     8    33       P1  7948  0.86
      L1  H    11    34       P1  7948  1.00
      P1  H  7989  7998       L1    20  0.41

> <Gold.Chemscore.Hbond.Weighted>
-8.6881

> <Gold.Chemscore.Metal.Weighted>
-0.0000

> <Gold.Chemscore.Lipo.Weighted>
-10.6684

> <Gold.Chemscore.Internal_Hbond.Weighted>
0.0000

> <Gold.Chemscore.DEClash.Weighted>
2.8946

> <Gold.Chemscore.DEInternal.Weighted>
2.2272

> <Gold.Chemscore.Rot.Weighted>
4.0319

> <Gold.Chemscore.Internal.Correction.Weighted>
   9.000000E+99

> <Gold.Protein.RotatedTorsions>
[ 6907 6896 6895 6894 ] final  -98.82 input  -60.11 | X-H torsion
[ 7974 7965 7964 7962 ] final  -24.09 input  175.53 | X-H torsion
[ 8008 7997 7996 7995 ] final   63.73 input   59.86 | X-H torsion
[ 10167 10162 10161 10158 ] final -179.30 input  -65.29 | X-H torsion
[ 10718 10713 10712 10709 ] final  168.09 input   66.30 | X-H torsion
[ 10763 10752 10751 10750 ] final -100.28 input  -60.55 | X-H torsion
[ 11005 11000 10999 10996 ] final  149.00 input  -57.11 | X-H torsion

> <Gold.Protein.ActiveResidues>
 VAL166  LYS551  ARG553  GLY616  TRP617  ASP618  TYR619  PRO620  LYS621  CYS622 
 ASP623  PHE694  ASN695  SER759  ASP760  ASP761  ALA762  ILE779  LEU786  VAL792 
 PHE793  MET794  SER795  GLU796  ALA797  LYS798  CYS799  TRP800  GLU811  SER814 

> <Gold.Protein.RotatedAtoms>
  150.7059  134.1136  159.4008 H   0  0  0  0  0  0  0  0  0  0  0  0  # atno 6907 bound_to 6896
  151.9123  135.0331  160.0524 H   0  0  0  0  0  0  0  0  0  0  0  0  # atno 6908 bound_to 6896
  152.2326  133.5035  159.5261 H   0  0  0  0  0  0  0  0  0  0  0  0  # atno 6909 bound_to 6896
  146.1576  140.4704  142.8585 H   0  0  0  0  0  0  0  0  0  0  0  0  # atno 7974 bound_to 7965
  155.6349  140.3496  155.4695 H   0  0  0  0  0  0  0  0  0  0  0  0  # atno 8008 bound_to 7997
  155.9973  140.1206  157.0605 H   0  0  0  0  0  0  0  0  0  0  0  0  # atno 8009 bound_to 7997
  154.4237  140.1107  156.5634 H   0  0  0  0  0  0  0  0  0  0  0  0  # atno 8010 bound_to 7997
  139.5392  144.2410  152.0860 H   0  0  0  0  0  0  0  0  0  0  0  0  # atno 10167 bound_to 10162
  157.0421  131.0289  151.2710 H   0  0  0  0  0  0  0  0  0  0  0  0  # atno 10718 bound_to 10713
  154.7566  135.4941  153.9386 H   0  0  0  0  0  0  0  0  0  0  0  0  # atno 10763 bound_to 10752
  153.1203  135.6730  153.9355 H   0  0  0  0  0  0  0  0  0  0  0  0  # atno 10764 bound_to 10752
  153.9089  135.3101  155.3427 H   0  0  0  0  0  0  0  0  0  0  0  0  # atno 10765 bound_to 10752
  140.1007  134.8985  157.1792 H   0  0  0  0  0  0  0  0  0  0  0  0  # atno 11005 bound_to 11000
  144.7984  140.6167  143.6494 LP  0  0  0  0  0  0  0  0  0  0  0  0  # atno 17320 bound_to 7965
  145.4669  139.1507  143.3835 LP  0  0  0  0  0  0  0  0  0  0  0  0  # atno 17321 bound_to 7965
  140.1885  144.4775  150.6491 LP  0  0  0  0  0  0  0  0  0  0  0  0  # atno 17342 bound_to 10162
  140.6614  143.2253  151.5846 LP  0  0  0  0  0  0  0  0  0  0  0  0  # atno 17343 bound_to 10162
  157.5096  130.7930  149.7691 LP  0  0  0  0  0  0  0  0  0  0  0  0  # atno 17370 bound_to 10713
  156.0035  130.3868  150.2518 LP  0  0  0  0  0  0  0  0  0  0  0  0  # atno 17371 bound_to 10713
  140.3223  134.2902  155.7244 LP  0  0  0  0  0  0  0  0  0  0  0  0  # atno 17394 bound_to 11000
  141.2105  133.7718  156.9928 LP  0  0  0  0  0  0  0  0  0  0  0  0  # atno 17395 bound_to 11000

$$$$
