AV-unprocessed.smi:2408|AV-procd|sdf|9520|dock8
  -GOLD-   2272013153D 1   1.00000     0.00000
 Structure written by MMmdl.
 47 49  0  0  0  0  0  0  0  0  1 V2000
  148.6472  133.1260  153.3484 C   0  0  0  0  0  0  0  0  0  0  0  0
  149.6051  133.1328  154.5271 C   0  0  0  0  0  0  0  0  0  0  0  0
  150.0203  131.9159  154.9445 N   0  0  0  0  0  0  0  0  0  0  0  0
  150.8739  131.8551  155.9877 C   0  0  0  0  0  0  0  0  0  0  0  0
  151.3464  132.9950  156.6646 C   0  0  0  0  0  0  0  0  0  0  0  0
  150.9139  134.2614  156.2285 C   0  0  0  0  0  0  0  0  0  0  0  0
  150.0303  134.3443  155.1254 C   0  0  0  0  0  0  0  0  0  0  0  0
  149.5259  135.5792  154.6332 N   0  0  0  0  0  0  0  0  0  0  0  0
  149.3824  136.7342  155.3039 C   0  0  0  0  0  0  0  0  0  0  0  0
  149.6640  136.9029  156.4903 O   0  0  0  0  0  0  0  0  0  0  0  0
  148.9250  137.7084  154.4974 N   0  0  0  0  0  0  0  0  0  0  0  0
  148.6846  139.1249  154.8312 C   0  0  0  0  0  0  0  0  0  0  0  0
  149.9892  139.8967  155.1839 C   0  0  0  0  0  0  0  0  0  0  0  0
  150.9351  139.8981  154.3946 O   0  0  0  0  0  0  0  0  0  0  0  0
  150.0509  140.5310  156.3662 N   0  0  0  0  0  0  0  0  0  0  0  0
  151.1864  141.3022  156.8462 C   0  0  0  0  0  0  0  0  0  0  0  0
  151.1717  141.5362  158.3422 C   0  0  0  0  0  0  0  0  0  0  0  0
  152.2641  142.3409  159.0065 C   0  0  0  0  0  0  0  0  0  0  0  0
  152.1707  140.8530  159.2465 C   0  0  0  0  0  0  0  0  0  0  0  0
  148.0267  139.8043  153.6051 C   0  0  0  0  0  0  0  0  0  0  0  0
  147.0010  140.7922  154.1565 C   0  0  0  0  0  0  0  0  0  0  0  0
  146.4409  140.0855  155.3829 C   0  0  0  0  0  0  0  0  0  0  0  0
  147.6070  139.2682  155.9525 C   0  0  0  0  0  0  0  0  0  0  0  0
  149.0583  133.7060  152.5218 H   0  0  0  0  0  0  0  0  0  0  0  0
  147.6903  133.5629  153.6349 H   0  0  0  0  0  0  0  0  0  0  0  0
  148.4616  132.1134  152.9874 H   0  0  0  0  0  0  0  0  0  0  0  0
  151.1850  130.8679  156.2960 H   0  0  0  0  0  0  0  0  0  0  0  0
  152.0214  132.8999  157.5023 H   0  0  0  0  0  0  0  0  0  0  0  0
  151.2530  135.1422  156.7525 H   0  0  0  0  0  0  0  0  0  0  0  0
  149.3512  135.6142  153.6395 H   0  0  0  0  0  0  0  0  0  0  0  0
  148.7328  137.4522  153.5403 H   0  0  0  0  0  0  0  0  0  0  0  0
  149.2406  140.4896  156.9671 H   0  0  0  0  0  0  0  0  0  0  0  0
  152.1108  140.7946  156.5659 H   0  0  0  0  0  0  0  0  0  0  0  0
  151.1939  142.2740  156.3502 H   0  0  0  0  0  0  0  0  0  0  0  0
  150.1730  141.6801  158.7510 H   0  0  0  0  0  0  0  0  0  0  0  0
  153.0820  142.6982  158.3838 H   0  0  0  0  0  0  0  0  0  0  0  0
  151.9764  143.0004  159.8228 H   0  0  0  0  0  0  0  0  0  0  0  0
  151.8183  140.5202  160.2205 H   0  0  0  0  0  0  0  0  0  0  0  0
  152.9272  140.2220  158.7838 H   0  0  0  0  0  0  0  0  0  0  0  0
  148.7429  140.2973  152.9452 H   0  0  0  0  0  0  0  0  0  0  0  0
  147.5031  139.0658  152.9951 H   0  0  0  0  0  0  0  0  0  0  0  0
  147.4957  141.7177  154.4540 H   0  0  0  0  0  0  0  0  0  0  0  0
  146.2287  141.0461  153.4298 H   0  0  0  0  0  0  0  0  0  0  0  0
  146.0226  140.7816  156.1107 H   0  0  0  0  0  0  0  0  0  0  0  0
  145.6407  139.4104  155.0764 H   0  0  0  0  0  0  0  0  0  0  0  0
  147.2288  138.3081  156.3048 H   0  0  0  0  0  0  0  0  0  0  0  0
  148.0059  139.7678  156.8366 H   0  0  0  0  0  0  0  0  0  0  0  0
  1  2  1  0  0  0  0
  1 24  1  0  0  0  0
  1 25  1  0  0  0  0
  1 26  1  0  0  0  0
  2  7  1  0  0  0  0
  2  3  2  0  0  0  0
  3  4  1  0  0  0  0
  4  5  2  0  0  0  0
  4 27  1  0  0  0  0
  5  6  1  0  0  0  0
  5 28  1  0  0  0  0
  6  7  2  0  0  0  0
  6 29  1  0  0  0  0
  7  8  1  0  0  0  0
  8  9  1  0  0  0  0
  8 30  1  0  0  0  0
  9 10  2  0  0  0  0
  9 11  1  0  0  0  0
 11 12  1  0  0  0  0
 11 31  1  0  0  0  0
 12 23  1  0  0  0  0
 12 13  1  0  0  0  0
 12 20  1  0  0  0  0
 13 14  2  0  0  0  0
 13 15  1  0  0  0  0
 15 16  1  0  0  0  0
 15 32  1  0  0  0  0
 16 17  1  0  0  0  0
 16 33  1  0  0  0  0
 16 34  1  0  0  0  0
 17 19  1  0  0  0  0
 17 18  1  0  0  0  0
 17 35  1  0  0  0  0
 18 19  1  0  0  0  0
 18 36  1  0  0  0  0
 18 37  1  0  0  0  0
 19 38  1  0  0  0  0
 19 39  1  0  0  0  0
 20 21  1  0  0  0  0
 20 40  1  0  0  0  0
 20 41  1  0  0  0  0
 21 22  1  0  0  0  0
 21 42  1  0  0  0  0
 21 43  1  0  0  0  0
 22 23  1  0  0  0  0
 22 44  1  0  0  0  0
 22 45  1  0  0  0  0
 23 46  1  0  0  0  0
 23 47  1  0  0  0  0
M  END
> <s_m_source_file>
AV-unprocessed.smi

> <i_m_source_file_index>
2408

> <i_lp_mmshare_version>
43012

> <i_f3d_flags>
0

> <s_epik_input>
W0NIM11jMW5bY0hdW2NIXVtjSF1jMVtOSF1DKD1PKVtOSF1DMihbQ0gyXVtDSDJdW0NIMl1bQ0gyXTIpQyg9TylbTkhdW0NIMl1bQ0hdM1tDSDJdW0NIMl0z

> <s_epik_cmdline>
J2VwaWtfcHl0aG9uJywgJy1waCcsICc3LjAnLCAnLXRuJywgJzgnLCAnLW1hJywgJzIwMCcsICctbWV0YWxfYmluZGluZycsICctaW1hZScsICc8aW5maWxlLm1hZT4nLCAnLW9tYWUnLCAnPG91dGZpbGUubWFlPic=

> <r_epik_Ionization_Penalty>
0.0173464

> <r_epik_Ionization_Penalty_Charging>
0

> <r_epik_Ionization_Penalty_Neutral>
0.0173464

> <r_epik_State_Penalty>
0.0137159

> <r_epik_Charging_Adjusted_Penalty>
0.0137159

> <i_epik_Tot_Q>
0

> <i_epik_Tot_abs_Q>
0

> <r_epik_Metal_State_Penalty>
0.0133255

> <b_epik_Metal_Only>
0

> <s_lp_Force_Field>
OPLS_2005

> <r_lp_Energy>
32.4155

> <b_lp_Chiralities_Consistent>
1

> <s_lp_Variant>
AV-unprocessed.smi:2408-1

> <Gold.Version>
5.8.1

> <Gold.Id.Protein>
6NUR|6NUR_protein|mol2

> <Gold.PLP.Fitness>
41.6446

> <Gold.PLP.PLP>
-33.4056

> <Gold.PLP.part.hbond>
-3.0000

> <Gold.PLP.part.metal>
0.0000

> <Gold.PLP.part.buried>
-3.9287

> <Gold.PLP.part.nonpolar>
-27.1443

> <Gold.PLP.part.repulsive>
0.2252

> <Gold.PLP.ligand.clash>
0.0000

> <Gold.PLP.ligand.torsion>
0.7019

> <Gold.PLP.Chemscore.Hbond>
3.0000

> <Gold.PLP.Chemscore.CHOScore>
0.0000

> <Gold.PLP.Chemscore.Metal>
0.0000

> <Gold.Chemscore.Hbonds>
donor molecule, donor type, donor heavy atom, donor atom, acceptor molecule, acceptor atom, score
      L1  H     8    30       P1  7948  1.00
      L1  H    11    31       P1  7948  0.89
      P1  H  7989  7998       L1    14  0.91

> <Gold.PLP.Chemscore.Internal.Correction>
0.6429

> <Gold.Rescore>
     Score         DG    S(hbond)    S(metal)    S(lipo)     H(rot)  DE(clash)    DE(int)     intcor
     16.78     -18.81       2.35        0.00      81.70       1.59       0.12       1.92       ----

> <Gold.Chemscore.Fitness>
16.7788

> <Gold.Chemscore.DG>
-18.8115

> <Gold.Chemscore.ZeroCoef>
-5.4800

> <Gold.Chemscore.Hbond>
2.3512

> <Gold.Chemscore.Metal>
0.0000

> <Gold.Chemscore.Lipo>
81.7040

> <Gold.Chemscore.Internal_Hbond>
0.0000

> <Gold.Chemscore.DEClash>
0.1171

> <Gold.Chemscore.DEInternal>
1.9156

> <Gold.Chemscore.Rot>
1.5941

> <Gold.Chemscore.Internal.Correction>
   9.000000E+99

> <Gold.Chemscore.Hbonds>
donor molecule, donor type, donor heavy atom, donor atom, acceptor molecule, acceptor atom, score
      L1  H     8    30       P1  7948  0.40
      L1  H    11    31       P1  7948  0.83
      P1  H  7989  7998       L1    14  0.87

> <Gold.Chemscore.Hbond.Weighted>
-7.8530

> <Gold.Chemscore.Metal.Weighted>
-0.0000

> <Gold.Chemscore.Lipo.Weighted>
-9.5594

> <Gold.Chemscore.Internal_Hbond.Weighted>
0.0000

> <Gold.Chemscore.DEClash.Weighted>
0.1171

> <Gold.Chemscore.DEInternal.Weighted>
1.9156

> <Gold.Chemscore.Rot.Weighted>
4.0809

> <Gold.Chemscore.Internal.Correction.Weighted>
   9.000000E+99

> <Gold.Protein.RotatedTorsions>
[ 6907 6896 6895 6894 ] final  -10.49 input  -60.11 | X-H torsion
[ 7974 7965 7964 7962 ] final  -72.13 input  175.53 | X-H torsion
[ 8008 7997 7996 7995 ] final  147.77 input   59.86 | X-H torsion
[ 10167 10162 10161 10158 ] final  -42.31 input  -65.29 | X-H torsion
[ 10718 10713 10712 10709 ] final  101.53 input   66.30 | X-H torsion
[ 10763 10752 10751 10750 ] final  177.90 input  -60.55 | X-H torsion
[ 11005 11000 10999 10996 ] final  -74.59 input  -57.11 | X-H torsion

> <Gold.Protein.ActiveResidues>
 VAL166  LYS551  ARG553  GLY616  TRP617  ASP618  TYR619  PRO620  LYS621  CYS622 
 ASP623  PHE694  ASN695  SER759  ASP760  ASP761  ALA762  ILE779  LEU786  VAL792 
 PHE793  MET794  SER795  GLU796  ALA797  LYS798  CYS799  TRP800  GLU811  SER814 

> <Gold.Protein.RotatedAtoms>
  151.4011  135.0971  159.9555 H   0  0  0  0  0  0  0  0  0  0  0  0  # atno 6907 bound_to 6896
  152.5050  133.8887  159.7393 H   0  0  0  0  0  0  0  0  0  0  0  0  # atno 6908 bound_to 6896
  150.9362  133.6653  159.2829 H   0  0  0  0  0  0  0  0  0  0  0  0  # atno 6909 bound_to 6896
  145.6692  140.9227  143.0892 H   0  0  0  0  0  0  0  0  0  0  0  0  # atno 7974 bound_to 7965
  156.2813  140.2146  156.5592 H   0  0  0  0  0  0  0  0  0  0  0  0  # atno 8008 bound_to 7997
  154.7227  140.0502  157.0677 H   0  0  0  0  0  0  0  0  0  0  0  0  # atno 8009 bound_to 7997
  155.0457  140.3150  155.4712 H   0  0  0  0  0  0  0  0  0  0  0  0  # atno 8010 bound_to 7997
  140.6973  143.3045  151.3191 H   0  0  0  0  0  0  0  0  0  0  0  0  # atno 10167 bound_to 10162
  157.6827  131.0728  150.5266 H   0  0  0  0  0  0  0  0  0  0  0  0  # atno 10718 bound_to 10713
  154.5006  135.2783  155.1424 H   0  0  0  0  0  0  0  0  0  0  0  0  # atno 10763 bound_to 10752
  154.3059  135.6239  153.5448 H   0  0  0  0  0  0  0  0  0  0  0  0  # atno 10764 bound_to 10752
  152.9902  135.5708  154.5448 H   0  0  0  0  0  0  0  0  0  0  0  0  # atno 10765 bound_to 10752
  141.1637  133.6917  156.7388 H   0  0  0  0  0  0  0  0  0  0  0  0  # atno 11005 bound_to 11000
  144.7063  139.8549  143.7429 LP  0  0  0  0  0  0  0  0  0  0  0  0  # atno 17320 bound_to 7965
  146.1060  139.4060  143.0317 LP  0  0  0  0  0  0  0  0  0  0  0  0  # atno 17321 bound_to 7965
  139.6445  144.0476  152.2580 LP  0  0  0  0  0  0  0  0  0  0  0  0  # atno 17342 bound_to 10162
  139.9992  144.6305  150.7744 LP  0  0  0  0  0  0  0  0  0  0  0  0  # atno 17343 bound_to 10162
  156.5578  130.4248  149.6077 LP  0  0  0  0  0  0  0  0  0  0  0  0  # atno 17370 bound_to 10713
  156.2847  130.7091  151.1924 LP  0  0  0  0  0  0  0  0  0  0  0  0  # atno 17371 bound_to 10713
  140.2690  134.8407  157.3830 LP  0  0  0  0  0  0  0  0  0  0  0  0  # atno 17394 bound_to 11000
  140.1539  134.4814  155.7942 LP  0  0  0  0  0  0  0  0  0  0  0  0  # atno 17395 bound_to 11000

$$$$
