AV-unprocessed.smi:910|AV-procd|sdf|4118|dock8
  -GOLD-   22720 2 13D 1   1.00000     0.00000
 Structure written by MMmdl.
 46 47  0  0  0  0  0  0  0  0  1 V2000
  145.6598  129.6788  151.9085 C   0  0  0  0  0  0  0  0  0  0  0  0
  145.9774  131.1403  151.9578 C   0  0  0  0  0  0  0  0  0  0  0  0
  146.7952  131.6814  152.9393 N   0  0  0  0  0  0  0  0  0  0  0  0
  146.8408  132.9846  152.6570 C   0  0  0  0  0  0  0  0  0  0  0  0
  147.5732  133.9740  153.3595 N   0  0  0  0  0  0  0  0  0  0  0  0
  148.1330  133.8596  154.5747 C   0  0  0  0  0  0  0  0  0  0  0  0
  147.9705  132.9091  155.3408 O   0  0  0  0  0  0  0  0  0  0  0  0
  148.9117  134.9151  154.8555 N   0  0  0  0  0  0  0  0  0  0  0  0
  149.7579  135.0389  156.0383 C   0  0  0  0  0  0  0  0  0  0  0  0
  150.6457  136.2904  155.9575 C   0  0  0  0  0  0  0  0  0  0  0  0
  149.8154  137.4268  155.7745 O   0  0  0  0  0  0  0  0  0  0  0  0
  150.3855  138.4883  155.0198 C   0  0  2  0  0  0  0  0  0  0  0  0
  151.8069  138.8132  155.5304 C   0  0  0  0  0  0  0  0  0  0  0  0
  151.7903  139.3315  156.9786 C   0  0  0  0  0  0  0  0  0  0  0  0
  150.8605  140.5449  157.1274 C   0  0  0  0  0  0  0  0  0  0  0  0
  149.4445  140.2319  156.6181 C   0  0  0  0  0  0  0  0  0  0  0  0
  149.4651  139.7214  155.1623 C   0  0  2  0  0  0  0  0  0  0  0  0
  148.0484  139.4490  154.6331 C   0  0  0  0  0  0  0  0  0  0  0  0
  146.1167  133.3358  151.5615 O   0  0  0  0  0  0  0  0  0  0  0  0
  145.5701  132.1563  151.1302 C   0  0  0  0  0  0  0  0  0  0  0  0
  144.6978  132.1968  149.9216 C   0  0  0  0  0  0  0  0  0  0  0  0
  145.4076  129.3614  150.8964 H   0  0  0  0  0  0  0  0  0  0  0  0
  144.8123  129.4408  152.5515 H   0  0  0  0  0  0  0  0  0  0  0  0
  146.5070  129.0775  152.2399 H   0  0  0  0  0  0  0  0  0  0  0  0
  147.7430  134.8324  152.8569 H   0  0  0  0  0  0  0  0  0  0  0  0
  148.9745  135.6561  154.1731 H   0  0  0  0  0  0  0  0  0  0  0  0
  149.1041  135.1126  156.9074 H   0  0  0  0  0  0  0  0  0  0  0  0
  150.3641  134.1428  156.1815 H   0  0  0  0  0  0  0  0  0  0  0  0
  151.2503  136.3733  156.8607 H   0  0  0  0  0  0  0  0  0  0  0  0
  151.3321  136.2089  155.1139 H   0  0  0  0  0  0  0  0  0  0  0  0
  150.4296  138.2043  153.9669 H   0  0  0  0  0  0  0  0  0  0  0  0
  152.4591  137.9439  155.4562 H   0  0  0  0  0  0  0  0  0  0  0  0
  152.2514  139.5726  154.8858 H   0  0  0  0  0  0  0  0  0  0  0  0
  151.4635  138.5375  157.6500 H   0  0  0  0  0  0  0  0  0  0  0  0
  152.8004  139.5990  157.2894 H   0  0  0  0  0  0  0  0  0  0  0  0
  150.8196  140.8548  158.1721 H   0  0  0  0  0  0  0  0  0  0  0  0
  151.2701  141.3881  156.5700 H   0  0  0  0  0  0  0  0  0  0  0  0
  148.9812  139.4873  157.2670 H   0  0  0  0  0  0  0  0  0  0  0  0
  148.8266  141.1276  156.6908 H   0  0  0  0  0  0  0  0  0  0  0  0
  149.8856  140.5157  154.5437 H   0  0  0  0  0  0  0  0  0  0  0  0
  147.5470  138.6739  155.2137 H   0  0  0  0  0  0  0  0  0  0  0  0
  148.0739  139.1222  153.5933 H   0  0  0  0  0  0  0  0  0  0  0  0
  147.4332  140.3479  154.6808 H   0  0  0  0  0  0  0  0  0  0  0  0
  143.9031  131.4539  149.9910 H   0  0  0  0  0  0  0  0  0  0  0  0
  145.2772  131.9899  149.0218 H   0  0  0  0  0  0  0  0  0  0  0  0
  144.2334  133.1767  149.8080 H   0  0  0  0  0  0  0  0  0  0  0  0
  1  2  1  0  0  0  0
  1 22  1  0  0  0  0
  1 23  1  0  0  0  0
  1 24  1  0  0  0  0
  2 20  2  0  0  0  0
  2  3  1  0  0  0  0
  3  4  2  0  0  0  0
  4  5  1  0  0  0  0
  4 19  1  0  0  0  0
  5  6  1  0  0  0  0
  5 25  1  0  0  0  0
  6  7  2  0  0  0  0
  6  8  1  0  0  0  0
  8  9  1  0  0  0  0
  8 26  1  0  0  0  0
  9 10  1  0  0  0  0
  9 27  1  0  0  0  0
  9 28  1  0  0  0  0
 10 11  1  0  0  0  0
 10 29  1  0  0  0  0
 10 30  1  0  0  0  0
 11 12  1  0  0  0  0
 12 17  1  0  0  0  0
 12 13  1  0  0  0  0
 12 31  1  0  0  0  0
 13 14  1  0  0  0  0
 13 32  1  0  0  0  0
 13 33  1  0  0  0  0
 14 15  1  0  0  0  0
 14 34  1  0  0  0  0
 14 35  1  0  0  0  0
 15 16  1  0  0  0  0
 15 36  1  0  0  0  0
 15 37  1  0  0  0  0
 16 17  1  0  0  0  0
 16 38  1  0  0  0  0
 16 39  1  0  0  0  0
 17 18  1  0  0  0  0
 17 40  1  0  0  0  0
 18 41  1  0  0  0  0
 18 42  1  0  0  0  0
 18 43  1  0  0  0  0
 19 20  1  0  0  0  0
 20 21  1  0  0  0  0
 21 44  1  0  0  0  0
 21 45  1  0  0  0  0
 21 46  1  0  0  0  0
M  END
> <s_m_source_file>
AV-unprocessed.smi

> <i_m_source_file_index>
910

> <i_lp_mmshare_version>
43012

> <i_f3d_flags>
0

> <s_epik_input>
W0NIM11jMW5jKG9jMVtDSDNdKVtOSF1DKD1PKVtOSF1bQ0gyXVtDSDJdT1tDQEBIXTJbQ0gyXVtDSDJdW0NIMl1bQ0gyXVtDQEhdMltDSDNd

> <s_epik_cmdline>
J2VwaWtfcHl0aG9uJywgJy1waCcsICc3LjAnLCAnLXRuJywgJzgnLCAnLW1hJywgJzIwMCcsICctbWV0YWxfYmluZGluZycsICctaW1hZScsICc8aW5maWxlLm1hZT4nLCAnLW9tYWUnLCAnPG91dGZpbGUubWFlPic=

> <r_lp_tautomer_probability>
0.785861

> <r_epik_Ionization_Penalty>
4.15957e-05

> <r_epik_Ionization_Penalty_Charging>
0

> <r_epik_Ionization_Penalty_Neutral>
4.15957e-05

> <r_epik_State_Penalty>
0.0240523

> <r_epik_Charging_Adjusted_Penalty>
0.0240523

> <i_epik_Tot_Q>
0

> <i_epik_Tot_abs_Q>
0

> <r_epik_Metal_State_Penalty>
0.057053

> <b_epik_Metal_Only>
0

> <s_lp_Force_Field>
OPLS_2005

> <r_lp_Energy>
8.47643

> <b_lp_Chiralities_Consistent>
1

> <s_lp_Variant>
AV-unprocessed.smi:910-3

> <Gold.Version>
5.8.1

> <Gold.Id.Protein>
6NUR|6NUR_protein|mol2

> <Gold.PLP.Fitness>
44.0320

> <Gold.PLP.PLP>
-38.7450

> <Gold.PLP.part.hbond>
-2.0000

> <Gold.PLP.part.metal>
0.0000

> <Gold.PLP.part.buried>
-3.2070

> <Gold.PLP.part.nonpolar>
-32.4320

> <Gold.PLP.part.repulsive>
0.4420

> <Gold.PLP.ligand.clash>
0.0000

> <Gold.PLP.ligand.torsion>
0.3369

> <Gold.PLP.Chemscore.Hbond>
1.9760

> <Gold.PLP.Chemscore.CHOScore>
0.0000

> <Gold.PLP.Chemscore.Metal>
0.0000

> <Gold.Chemscore.Hbonds>
donor molecule, donor type, donor heavy atom, donor atom, acceptor molecule, acceptor atom, score
      L1  H     5    25       P1  7948  0.89
      L1  H     8    26       P1  7948  0.16

> <Gold.PLP.Chemscore.Internal.Correction>
0.0327

> <Gold.Rescore>
     Score         DG    S(hbond)    S(metal)    S(lipo)     H(rot)  DE(clash)    DE(int)     intcor
     15.65     -16.78       1.53        0.00      89.06       1.66       0.04       1.08       ----

> <Gold.Chemscore.Fitness>
15.6538

> <Gold.Chemscore.DG>
-16.7807

> <Gold.Chemscore.ZeroCoef>
-5.4800

> <Gold.Chemscore.Hbond>
1.5342

> <Gold.Chemscore.Metal>
0.0000

> <Gold.Chemscore.Lipo>
89.0611

> <Gold.Chemscore.Internal_Hbond>
0.0000

> <Gold.Chemscore.DEClash>
0.0447

> <Gold.Chemscore.DEInternal>
1.0822

> <Gold.Chemscore.Rot>
1.6576

> <Gold.Chemscore.Internal.Correction>
   9.000000E+99

> <Gold.Chemscore.Hbonds>
donor molecule, donor type, donor heavy atom, donor atom, acceptor molecule, acceptor atom, score
      L1  H     5    25       P1  7948  0.81
      L1  H     8    26       P1  7948  0.16

> <Gold.Chemscore.Hbond.Weighted>
-5.1241

> <Gold.Chemscore.Metal.Weighted>
-0.0000

> <Gold.Chemscore.Lipo.Weighted>
-10.4201

> <Gold.Chemscore.Internal_Hbond.Weighted>
0.0000

> <Gold.Chemscore.DEClash.Weighted>
0.0447

> <Gold.Chemscore.DEInternal.Weighted>
1.0822

> <Gold.Chemscore.Rot.Weighted>
4.2436

> <Gold.Chemscore.Internal.Correction.Weighted>
   9.000000E+99

> <Gold.Protein.RotatedTorsions>
[ 6907 6896 6895 6894 ] final    6.63 input  -60.11 | X-H torsion
[ 7974 7965 7964 7962 ] final  -90.16 input  175.53 | X-H torsion
[ 8008 7997 7996 7995 ] final  -11.60 input   59.86 | X-H torsion
[ 10167 10162 10161 10158 ] final -141.96 input  -65.29 | X-H torsion
[ 10718 10713 10712 10709 ] final   75.78 input   66.30 | X-H torsion
[ 10763 10752 10751 10750 ] final  -95.80 input  -60.55 | X-H torsion
[ 11005 11000 10999 10996 ] final  -73.48 input  -57.11 | X-H torsion

> <Gold.Protein.ActiveResidues>
 VAL166  LYS551  ARG553  GLY616  TRP617  ASP618  TYR619  PRO620  LYS621  CYS622 
 ASP623  PHE694  ASN695  SER759  ASP760  ASP761  ALA762  ILE779  LEU786  VAL792 
 PHE793  MET794  SER795  GLU796  ALA797  LYS798  CYS799  TRP800  GLU811  SER814 

> <Gold.Protein.RotatedAtoms>
  151.6768  135.0968  160.0208 H   0  0  0  0  0  0  0  0  0  0  0  0  # atno 6907 bound_to 6896
  152.3859  133.6606  159.6207 H   0  0  0  0  0  0  0  0  0  0  0  0  # atno 6908 bound_to 6896
  150.7785  133.8952  159.3366 H   0  0  0  0  0  0  0  0  0  0  0  0  # atno 6909 bound_to 6896
  145.4302  140.9555  143.2132 H   0  0  0  0  0  0  0  0  0  0  0  0  # atno 7974 bound_to 7965
  154.5450  140.2298  155.8578 H   0  0  0  0  0  0  0  0  0  0  0  0  # atno 8008 bound_to 7997
  156.1894  140.3081  155.9264 H   0  0  0  0  0  0  0  0  0  0  0  0  # atno 8009 bound_to 7997
  155.3182  140.0439  157.3028 H   0  0  0  0  0  0  0  0  0  0  0  0  # atno 8010 bound_to 7997
  139.8134  143.7671  152.2664 H   0  0  0  0  0  0  0  0  0  0  0  0  # atno 10167 bound_to 10162
  157.6648  130.9743  150.1403 H   0  0  0  0  0  0  0  0  0  0  0  0  # atno 10718 bound_to 10713
  154.7181  135.5107  153.8770 H   0  0  0  0  0  0  0  0  0  0  0  0  # atno 10763 bound_to 10752
  153.0838  135.6639  153.9999 H   0  0  0  0  0  0  0  0  0  0  0  0  # atno 10764 bound_to 10752
  153.9827  135.3027  155.3398 H   0  0  0  0  0  0  0  0  0  0  0  0  # atno 10765 bound_to 10752
  141.1623  133.6879  156.7218 H   0  0  0  0  0  0  0  0  0  0  0  0  # atno 11005 bound_to 11000
  144.8188  139.5829  143.6996 LP  0  0  0  0  0  0  0  0  0  0  0  0  # atno 17320 bound_to 7965
  146.2611  139.6412  142.9361 LP  0  0  0  0  0  0  0  0  0  0  0  0  # atno 17321 bound_to 7965
  139.7827  144.7439  151.0065 LP  0  0  0  0  0  0  0  0  0  0  0  0  # atno 17342 bound_to 10162
  140.7817  143.4525  151.0393 LP  0  0  0  0  0  0  0  0  0  0  0  0  # atno 17343 bound_to 10162
  156.2227  130.3675  149.8537 LP  0  0  0  0  0  0  0  0  0  0  0  0  # atno 17370 bound_to 10713
  156.6385  130.8695  151.3509 LP  0  0  0  0  0  0  0  0  0  0  0  0  # atno 17371 bound_to 10713
  140.2810  134.8316  157.3933 LP  0  0  0  0  0  0  0  0  0  0  0  0  # atno 17394 bound_to 11000
  140.1433  134.4944  155.8015 LP  0  0  0  0  0  0  0  0  0  0  0  0  # atno 17395 bound_to 11000

$$$$
