AV-unprocessed.smi:1955|AV-procd|sdf|7899|dock1
  -GOLD-   2272010 53D 1   1.00000     0.00000
 Structure written by MMmdl.
 34 35  0  0  0  0  0  0  0  0  1 V2000
  150.0791  140.9421  157.6699 O   0  0  0  0  0  0  0  0  0  0  0  0
  149.8616  142.0528  157.1844 C   0  0  0  0  0  0  0  0  0  0  0  0
  150.2618  143.2242  157.7098 N   0  0  0  0  0  0  0  0  0  0  0  0
  151.0031  143.4454  158.9009 C   0  0  0  0  0  0  0  0  0  0  0  0
  151.1740  144.8028  159.2557 C   0  0  0  0  0  0  0  0  0  0  0  0
  151.8943  145.1288  160.4211 C   0  0  0  0  0  0  0  0  0  0  0  0
  152.4283  144.0879  161.2014 C   0  0  0  0  0  0  0  0  0  0  0  0
  152.2138  142.7638  160.7767 C   0  0  0  0  0  0  0  0  0  0  0  0
  151.5221  142.4489  159.6614 N   0  0  0  0  0  0  0  0  0  0  0  0
  149.1770  142.2420  156.0467 N   0  0  0  0  0  0  0  0  0  0  0  0
  148.6016  141.1885  155.2084 C   0  0  1  0  0  0  0  0  0  0  0  0
  147.8329  141.8152  154.0232 C   0  0  0  0  0  0  0  0  0  0  0  0
  146.7691  140.8915  153.4083 C   0  0  0  0  0  0  0  0  0  0  0  0
  147.3191  139.6031  152.7784 C   0  0  0  0  0  0  0  0  0  0  0  0
  147.9590  138.6439  153.7964 C   0  0  0  0  0  0  0  0  0  0  0  0
  149.3106  139.0426  154.1690 N   0  0  0  0  0  0  0  0  0  0  0  0
  149.6810  140.1702  154.7950 C   0  0  0  0  0  0  0  0  0  0  0  0
  150.8690  140.3917  155.0296 O   0  0  0  0  0  0  0  0  0  0  0  0
  150.0012  144.0558  157.2007 H   0  0  0  0  0  0  0  0  0  0  0  0
  150.7580  145.5903  158.6441 H   0  0  0  0  0  0  0  0  0  0  0  0
  152.0345  146.1600  160.7100 H   0  0  0  0  0  0  0  0  0  0  0  0
  152.9880  144.2984  162.1007 H   0  0  0  0  0  0  0  0  0  0  0  0
  152.6074  141.9355  161.3469 H   0  0  0  0  0  0  0  0  0  0  0  0
  149.0540  143.1889  155.7187 H   0  0  0  0  0  0  0  0  0  0  0  0
  147.8904  140.6412  155.8302 H   0  0  0  0  0  0  0  0  0  0  0  0
  147.3205  142.7183  154.3575 H   0  0  0  0  0  0  0  0  0  0  0  0
  148.5334  142.1433  153.2540 H   0  0  0  0  0  0  0  0  0  0  0  0
  146.0268  140.6378  154.1661 H   0  0  0  0  0  0  0  0  0  0  0  0
  146.2304  141.4492  152.6416 H   0  0  0  0  0  0  0  0  0  0  0  0
  146.4892  139.0851  152.2965 H   0  0  0  0  0  0  0  0  0  0  0  0
  148.0257  139.8396  151.9815 H   0  0  0  0  0  0  0  0  0  0  0  0
  147.3345  138.5368  154.6844 H   0  0  0  0  0  0  0  0  0  0  0  0
  148.0321  137.6508  153.3528 H   0  0  0  0  0  0  0  0  0  0  0  0
  150.0468  138.3991  153.9170 H   0  0  0  0  0  0  0  0  0  0  0  0
  1  2  2  0  0  0  0
  2  3  1  0  0  0  0
  2 10  1  0  0  0  0
  3  4  1  0  0  0  0
  3 19  1  0  0  0  0
  4  9  1  0  0  0  0
  4  5  2  0  0  0  0
  5  6  1  0  0  0  0
  5 20  1  0  0  0  0
  6  7  2  0  0  0  0
  6 21  1  0  0  0  0
  7  8  1  0  0  0  0
  7 22  1  0  0  0  0
  8  9  2  0  0  0  0
  8 23  1  0  0  0  0
 10 11  1  0  0  0  0
 10 24  1  0  0  0  0
 11 17  1  0  0  0  0
 11 12  1  0  0  0  0
 11 25  1  0  0  0  0
 12 13  1  0  0  0  0
 12 26  1  0  0  0  0
 12 27  1  0  0  0  0
 13 14  1  0  0  0  0
 13 28  1  0  0  0  0
 13 29  1  0  0  0  0
 14 15  1  0  0  0  0
 14 30  1  0  0  0  0
 14 31  1  0  0  0  0
 15 16  1  0  0  0  0
 15 32  1  0  0  0  0
 15 33  1  0  0  0  0
 16 17  1  0  0  0  0
 16 34  1  0  0  0  0
 17 18  2  0  0  0  0
M  END
> <s_m_source_file>
AV-unprocessed.smi

> <i_m_source_file_index>
1955

> <i_lp_mmshare_version>
43012

> <i_f3d_flags>
0

> <s_epik_input>
bjFbY0hdW2NIXVtjSF1bY0hdYzFbTkhdQyg9TylbTkhdW0NAQEhdMltDSDJdW0NIMl1bQ0gyXVtDSDJdW05IXUMyPU8=

> <s_epik_cmdline>
J2VwaWtfcHl0aG9uJywgJy1waCcsICc3LjAnLCAnLXRuJywgJzgnLCAnLW1hJywgJzIwMCcsICctbWV0YWxfYmluZGluZycsICctaW1hZScsICc8aW5maWxlLm1hZT4nLCAnLW9tYWUnLCAnPG91dGZpbGUubWFlPic=

> <r_lp_tautomer_probability>
1

> <r_epik_Ionization_Penalty>
4.19487e-05

> <r_epik_Ionization_Penalty_Charging>
0

> <r_epik_Ionization_Penalty_Neutral>
4.19487e-05

> <r_epik_State_Penalty>
-0

> <r_epik_Charging_Adjusted_Penalty>
0

> <i_epik_Tot_Q>
0

> <i_epik_Tot_abs_Q>
0

> <r_epik_Metal_State_Penalty>
-0

> <b_epik_Metal_Only>
0

> <s_lp_Force_Field>
OPLS_2005

> <r_lp_Energy>
12.4575

> <b_lp_Chiralities_Consistent>
1

> <s_lp_Variant>
AV-unprocessed.smi:1955-2

> <Gold.Version>
5.8.1

> <Gold.Id.Protein>
6NUR|6NUR_protein|mol2

> <Gold.PLP.Fitness>
43.8200

> <Gold.PLP.PLP>
-35.1466

> <Gold.PLP.part.hbond>
-3.5924

> <Gold.PLP.part.metal>
0.0000

> <Gold.PLP.part.buried>
-3.0409

> <Gold.PLP.part.nonpolar>
-28.6734

> <Gold.PLP.part.repulsive>
0.2695

> <Gold.PLP.ligand.clash>
0.0000

> <Gold.PLP.ligand.torsion>
0.0208

> <Gold.PLP.Chemscore.Hbond>
2.8960

> <Gold.PLP.Chemscore.CHOScore>
0.0000

> <Gold.PLP.Chemscore.Metal>
0.0000

> <Gold.Chemscore.Hbonds>
donor molecule, donor type, donor heavy atom, donor atom, acceptor molecule, acceptor atom, score
      L1  H     3    19       P1  8028  0.90
      L1  H    10    24       P1  8028  1.00
      P1  H  7989  7998       L1    18  1.00

> <Gold.PLP.Chemscore.Internal.Correction>
0.0269

> <Gold.Rescore>
     Score         DG    S(hbond)    S(metal)    S(lipo)     H(rot)  DE(clash)    DE(int)     intcor
     18.83     -21.14       2.77        0.00      76.50       1.00       0.09       2.21       ----

> <Gold.Chemscore.Fitness>
18.8320

> <Gold.Chemscore.DG>
-21.1371

> <Gold.Chemscore.ZeroCoef>
-5.4800

> <Gold.Chemscore.Hbond>
2.7745

> <Gold.Chemscore.Metal>
0.0000

> <Gold.Chemscore.Lipo>
76.4972

> <Gold.Chemscore.Internal_Hbond>
0.0000

> <Gold.Chemscore.DEClash>
0.0949

> <Gold.Chemscore.DEInternal>
2.2102

> <Gold.Chemscore.Rot>
1.0000

> <Gold.Chemscore.Internal.Correction>
   9.000000E+99

> <Gold.Chemscore.Hbonds>
donor molecule, donor type, donor heavy atom, donor atom, acceptor molecule, acceptor atom, score
      L1  H     3    19       P1  8028  0.70
      L1  H    10    24       P1  8028  0.94
      P1  H  7989  7998       L1    18  0.64

> <Gold.Chemscore.Hbond.Weighted>
-9.2669

> <Gold.Chemscore.Metal.Weighted>
-0.0000

> <Gold.Chemscore.Lipo.Weighted>
-8.9502

> <Gold.Chemscore.Internal_Hbond.Weighted>
0.0000

> <Gold.Chemscore.DEClash.Weighted>
0.0949

> <Gold.Chemscore.DEInternal.Weighted>
2.2102

> <Gold.Chemscore.Rot.Weighted>
2.5600

> <Gold.Chemscore.Internal.Correction.Weighted>
   9.000000E+99

> <Gold.Protein.RotatedTorsions>
[ 6907 6896 6895 6894 ] final   55.74 input  -60.11 | X-H torsion
[ 7974 7965 7964 7962 ] final  100.69 input  175.53 | X-H torsion
[ 8008 7997 7996 7995 ] final   19.60 input   59.86 | X-H torsion
[ 10167 10162 10161 10158 ] final -115.49 input  -65.29 | X-H torsion
[ 10718 10713 10712 10709 ] final -104.02 input   66.30 | X-H torsion
[ 10763 10752 10751 10750 ] final  -64.20 input  -60.55 | X-H torsion
[ 11005 11000 10999 10996 ] final   27.68 input  -57.11 | X-H torsion

> <Gold.Protein.ActiveResidues>
 VAL166  LYS551  ARG553  GLY616  TRP617  ASP618  TYR619  PRO620  LYS621  CYS622 
 ASP623  PHE694  ASN695  SER759  ASP760  ASP761  ALA762  ILE779  LEU786  VAL792 
 PHE793  MET794  SER795  GLU796  ALA797  LYS798  CYS799  TRP800  GLU811  SER814 

> <Gold.Protein.RotatedAtoms>
  152.3569  134.6928  160.0219 H   0  0  0  0  0  0  0  0  0  0  0  0  # atno 6907 bound_to 6896
  151.7264  133.3310  159.3337 H   0  0  0  0  0  0  0  0  0  0  0  0  # atno 6908 bound_to 6896
  150.7577  134.6336  159.6244 H   0  0  0  0  0  0  0  0  0  0  0  0  # atno 6909 bound_to 6896
  145.3823  139.2377  143.3397 H   0  0  0  0  0  0  0  0  0  0  0  0  # atno 7974 bound_to 7965
  154.9231  140.3030  155.5206 H   0  0  0  0  0  0  0  0  0  0  0  0  # atno 8008 bound_to 7997
  156.3008  140.2367  156.4220 H   0  0  0  0  0  0  0  0  0  0  0  0  # atno 8009 bound_to 7997
  154.8311  140.0418  157.1466 H   0  0  0  0  0  0  0  0  0  0  0  0  # atno 8010 bound_to 7997
  140.0895  143.4713  152.1878 H   0  0  0  0  0  0  0  0  0  0  0  0  # atno 10167 bound_to 10162
  156.0288  130.5495  150.7336 H   0  0  0  0  0  0  0  0  0  0  0  0  # atno 10718 bound_to 10713
  154.3265  135.6185  153.5531 H   0  0  0  0  0  0  0  0  0  0  0  0  # atno 10763 bound_to 10752
  152.9815  135.5736  154.5011 H   0  0  0  0  0  0  0  0  0  0  0  0  # atno 10764 bound_to 10752
  154.4689  135.2858  155.1634 H   0  0  0  0  0  0  0  0  0  0  0  0  # atno 10765 bound_to 10752
  140.3237  134.2515  155.7713 H   0  0  0  0  0  0  0  0  0  0  0  0  # atno 11005 bound_to 11000
  146.2836  140.4492  142.8766 LP  0  0  0  0  0  0  0  0  0  0  0  0  # atno 17320 bound_to 7965
  144.8499  140.6985  143.6175 LP  0  0  0  0  0  0  0  0  0  0  0  0  # atno 17321 bound_to 7965
  139.5733  144.7474  151.3832 LP  0  0  0  0  0  0  0  0  0  0  0  0  # atno 17342 bound_to 10162
  140.7036  143.7570  150.7444 LP  0  0  0  0  0  0  0  0  0  0  0  0  # atno 17343 bound_to 10162
  157.4922  131.0912  151.0413 LP  0  0  0  0  0  0  0  0  0  0  0  0  # atno 17370 bound_to 10713
  157.0817  130.5905  149.5422 LP  0  0  0  0  0  0  0  0  0  0  0  0  # atno 17371 bound_to 10713
  141.2080  133.7789  157.0083 LP  0  0  0  0  0  0  0  0  0  0  0  0  # atno 17394 bound_to 11000
  140.0920  134.9587  157.1790 LP  0  0  0  0  0  0  0  0  0  0  0  0  # atno 17395 bound_to 11000

$$$$
