AV-unprocessed.smi:34|AV-procd|sdf|236|dock9
  -GOLD-   2262015573D 1   1.00000     0.00000
 Structure written by MMmdl.
 54 58  0  0  0  0  0  0  0  0  2 V2000
  155.5054  140.8087  161.0961 O   0  0  0  0  0  0  0  0  0  0  0  0
  154.5648  140.9485  160.3115 C   0  0  0  0  0  0  0  0  0  0  0  0
  154.3057  140.2356  159.1863 N   0  5  0  0  0  0  0  0  0  0  0  0
  153.8345  138.9824  159.2811 C   0  0  0  0  0  0  0  0  0  0  0  0
  154.6615  137.9634  159.6280 N   0  0  0  0  0  0  0  0  0  0  0  0
  154.1938  136.7127  159.7163 C   0  0  0  0  0  0  0  0  0  0  0  0
  152.9548  136.2620  159.4986 N   0  0  0  0  0  0  0  0  0  0  0  0
  152.1134  137.2754  159.1404 C   0  0  0  0  0  0  0  0  0  0  0  0
  152.4790  138.6475  159.0100 C   0  0  0  0  0  0  0  0  0  0  0  0
  151.3871  139.4146  158.6325 N   0  0  0  0  0  0  0  0  0  0  0  0
  150.4271  138.4962  158.5555 C   0  0  0  0  0  0  0  0  0  0  0  0
  150.7610  137.2213  158.8376 N   0  0  0  0  0  0  0  0  0  0  0  0
  149.8551  136.0299  158.8197 C   0  0  1  0  0  0  0  0  0  0  0  0
  148.5472  136.4420  158.5646 O   0  0  0  0  0  0  0  0  0  0  0  0
  147.8975  135.5378  157.6710 C   0  0  1  0  0  0  0  0  0  0  0  0
  147.5284  136.2993  156.3900 C   0  0  0  0  0  0  0  0  0  0  0  0
  146.9159  135.4077  155.4722 O   0  0  0  0  0  0  0  0  0  0  0  0
  145.7062  135.6969  154.9547 C   0  0  0  0  0  0  0  0  0  0  0  0
  145.0457  136.6875  155.2743 O   0  0  0  0  0  0  0  0  0  0  0  0
  145.2478  134.6906  153.9537 C   0  0  0  0  0  0  0  0  0  0  0  0
  145.9576  133.4744  153.8188 C   0  0  0  0  0  0  0  0  0  0  0  0
  145.5484  132.5047  152.8828 C   0  0  0  0  0  0  0  0  0  0  0  0
  144.4250  132.7399  152.0692 C   0  0  0  0  0  0  0  0  0  0  0  0
  143.7105  133.9456  152.1932 C   0  0  0  0  0  0  0  0  0  0  0  0
  144.1174  134.9162  153.1296 C   0  0  0  0  0  0  0  0  0  0  0  0
  148.8836  134.3871  157.4311 C   0  0  2  0  0  0  0  0  0  0  0  0
  148.6290  133.3992  158.2911 F   0  0  0  0  0  0  0  0  0  0  0  0
  150.2359  134.9924  157.7546 C   0  0  1  0  0  0  0  0  0  0  0  0
  150.8522  135.5342  156.6008 O   0  0  0  0  0  0  0  0  0  0  0  0
  153.5881  142.0707  160.5426 C   0  0  0  0  0  0  0  0  0  0  0  0
  153.3598  142.5409  161.8559 C   0  0  0  0  0  0  0  0  0  0  0  0
  152.4322  143.5734  162.0963 C   0  0  0  0  0  0  0  0  0  0  0  0
  151.7150  144.1403  161.0262 C   0  0  0  0  0  0  0  0  0  0  0  0
  151.9233  143.6712  159.7158 C   0  0  0  0  0  0  0  0  0  0  0  0
  152.8510  142.6389  159.4747 C   0  0  0  0  0  0  0  0  0  0  0  0
  154.9179  135.9644  160.0022 H   0  0  0  0  0  0  0  0  0  0  0  0
  149.4187  138.7671  158.2795 H   0  0  0  0  0  0  0  0  0  0  0  0
  149.9023  135.6232  159.8310 H   0  0  0  0  0  0  0  0  0  0  0  0
  146.9852  135.1745  158.1459 H   0  0  0  0  0  0  0  0  0  0  0  0
  146.8262  137.0996  156.6278 H   0  0  0  0  0  0  0  0  0  0  0  0
  148.4108  136.7600  155.9443 H   0  0  0  0  0  0  0  0  0  0  0  0
  146.8242  133.2721  154.4317 H   0  0  0  0  0  0  0  0  0  0  0  0
  146.0977  131.5795  152.7894 H   0  0  0  0  0  0  0  0  0  0  0  0
  144.1116  131.9962  151.3514 H   0  0  0  0  0  0  0  0  0  0  0  0
  142.8482  134.1275  151.5689 H   0  0  0  0  0  0  0  0  0  0  0  0
  143.5459  135.8300  153.1997 H   0  0  0  0  0  0  0  0  0  0  0  0
  148.8235  133.9553  156.4309 H   0  0  0  0  0  0  0  0  0  0  0  0
  150.9205  134.2618  158.1868 H   0  0  0  0  0  0  0  0  0  0  0  0
  150.5619  136.4275  156.4957 H   0  0  0  0  0  0  0  0  0  0  0  0
  153.9009  142.1151  162.6886 H   0  0  0  0  0  0  0  0  0  0  0  0
  152.2706  143.9291  163.1028 H   0  0  0  0  0  0  0  0  0  0  0  0
  151.0030  144.9311  161.2105 H   0  0  0  0  0  0  0  0  0  0  0  0
  151.3694  144.1004  158.8943 H   0  0  0  0  0  0  0  0  0  0  0  0
  152.9880  142.2859  158.4627 H   0  0  0  0  0  0  0  0  0  0  0  0
  1  2  2  0  0  0  0
  2  3  1  0  0  0  0
  2 30  1  0  0  0  0
  3  4  1  0  0  0  0
  4  9  1  0  0  0  0
  4  5  2  0  0  0  0
  5  6  1  0  0  0  0
  6  7  2  0  0  0  0
  6 36  1  0  0  0  0
  7  8  1  0  0  0  0
  8 12  1  0  0  0  0
  8  9  2  0  0  0  0
  9 10  1  0  0  0  0
 10 11  2  0  0  0  0
 11 12  1  0  0  0  0
 11 37  1  0  0  0  0
 12 13  1  0  0  0  0
 13 28  1  0  0  0  0
 13 14  1  0  0  0  0
 13 38  1  0  0  0  0
 14 15  1  0  0  0  0
 15 16  1  0  0  0  0
 15 26  1  0  0  0  0
 15 39  1  0  0  0  0
 16 17  1  0  0  0  0
 16 40  1  0  0  0  0
 16 41  1  0  0  0  0
 17 18  1  0  0  0  0
 18 19  2  0  0  0  0
 18 20  1  0  0  0  0
 20 25  1  0  0  0  0
 20 21  2  0  0  0  0
 21 22  1  0  0  0  0
 21 42  1  0  0  0  0
 22 23  2  0  0  0  0
 22 43  1  0  0  0  0
 23 24  1  0  0  0  0
 23 44  1  0  0  0  0
 24 25  2  0  0  0  0
 24 45  1  0  0  0  0
 25 46  1  0  0  0  0
 26 27  1  0  0  0  0
 26 28  1  0  0  0  0
 26 47  1  0  0  0  0
 28 29  1  0  0  0  0
 28 48  1  0  0  0  0
 29 49  1  0  0  0  0
 30 35  1  0  0  0  0
 30 31  2  0  0  0  0
 31 32  1  0  0  0  0
 31 50  1  0  0  0  0
 32 33  2  0  0  0  0
 32 51  1  0  0  0  0
 33 34  1  0  0  0  0
 33 52  1  0  0  0  0
 34 35  2  0  0  0  0
 34 53  1  0  0  0  0
 35 54  1  0  0  0  0
M  CHG  1   3  -1
M  END
> <s_m_source_file>
AV-unprocessed.smi

> <i_m_source_file_index>
34

> <i_lp_mmshare_version>
43012

> <i_f3d_flags>
0

> <s_epik_input>
W2NIXTFbY0hdW2NIXVtjSF1bY0hdYzFDKD1PKVtOSF1jKG5bY0hdbjIpYyhjMjMpbltjSF1uM1tDQEBIXTRPW0NASF0oW0NAQEhdKEYpW0NASF00W09IXSlbQ0gyXU9DKD1PKWM1W2NIXVtjSF1bY0hdW2NIXVtjSF01

> <s_epik_cmdline>
J2VwaWtfcHl0aG9uJywgJy1waCcsICc3LjAnLCAnLXRuJywgJzgnLCAnLW1hJywgJzIwMCcsICctbWV0YWxfYmluZGluZycsICctaW1hZScsICc8aW5maWxlLm1hZT4nLCAnLW9tYWUnLCAnPG91dGZpbGUubWFlPic=

> <r_lp_tautomer_probability>
1

> <r_epik_Ionization_Penalty>
4.33227

> <r_epik_Ionization_Penalty_Charging>
3.41027

> <r_epik_Ionization_Penalty_Neutral>
0.922001

> <r_epik_State_Penalty>
3.41358

> <r_epik_Charging_Adjusted_Penalty>
6.82385

> <i_epik_Tot_Q>
-1

> <i_epik_Tot_abs_Q>
1

> <r_epik_Metal_State_Penalty>
0.496292

> <b_epik_Metal_Only>
1

> <s_epik_Chemistry_Notes>
This compound has an ester and may undergo hydrolysis at high or low pH. This compound contains an acetal/aminal-like group ( X-CH(R)-Y where X, Y are N, S, or O) that may be acid/base labile, releasing an aldehyde.

> <s_lp_Force_Field>
OPLS_2005

> <r_lp_Energy>
54.5703

> <b_lp_Chiralities_Consistent>
1

> <s_lp_Variant>
AV-unprocessed.smi:34-22

> <Gold.Version>
5.8.1

> <Gold.Id.Protein>
6NUR|6NUR_protein|mol2

> <Gold.PLP.Fitness>
55.8566

> <Gold.PLP.PLP>
-52.2161

> <Gold.PLP.part.hbond>
-3.0000

> <Gold.PLP.part.metal>
0.0000

> <Gold.PLP.part.buried>
-6.6766

> <Gold.PLP.part.nonpolar>
-43.4911

> <Gold.PLP.part.repulsive>
1.3615

> <Gold.PLP.ligand.clash>
0.0000

> <Gold.PLP.ligand.torsion>
2.1430

> <Gold.PLP.Chemscore.Hbond>
2.5047

> <Gold.PLP.Chemscore.CHOScore>
0.0000

> <Gold.PLP.Chemscore.Metal>
0.0000

> <Gold.Chemscore.Hbonds>
donor molecule, donor type, donor heavy atom, donor atom, acceptor molecule, acceptor atom, score
      P1  H  6896  6908       L1     7  1.00
      P1  H  7997  8009       L1     3  1.47

> <Gold.PLP.Chemscore.Internal.Correction>
0.4122

> <Gold.Rescore>
     Score         DG    S(hbond)    S(metal)    S(lipo)     H(rot)  DE(clash)    DE(int)     intcor
     13.64     -15.92       1.15        0.00     115.36       2.69       0.24       2.04       ----

> <Gold.Chemscore.Fitness>
13.6418

> <Gold.Chemscore.DG>
-15.9216

> <Gold.Chemscore.ZeroCoef>
-5.4800

> <Gold.Chemscore.Hbond>
1.1504

> <Gold.Chemscore.Metal>
0.0000

> <Gold.Chemscore.Lipo>
115.3565

> <Gold.Chemscore.Internal_Hbond>
0.0000

> <Gold.Chemscore.DEClash>
0.2394

> <Gold.Chemscore.DEInternal>
2.0404

> <Gold.Chemscore.Rot>
2.6944

> <Gold.Chemscore.Internal.Correction>
   9.000000E+99

> <Gold.Chemscore.Hbonds>
donor molecule, donor type, donor heavy atom, donor atom, acceptor molecule, acceptor atom, score
      P1  H  6896  6908       L1     7  0.58
      P1  H  7997  8009       L1     3  0.12

> <Gold.Chemscore.Hbond.Weighted>
-3.8424

> <Gold.Chemscore.Metal.Weighted>
-0.0000

> <Gold.Chemscore.Lipo.Weighted>
-13.4967

> <Gold.Chemscore.Internal_Hbond.Weighted>
0.0000

> <Gold.Chemscore.DEClash.Weighted>
0.2394

> <Gold.Chemscore.DEInternal.Weighted>
2.0404

> <Gold.Chemscore.Rot.Weighted>
6.8975

> <Gold.Chemscore.Internal.Correction.Weighted>
   9.000000E+99

> <Gold.Protein.RotatedTorsions>
[ 6907 6896 6895 6894 ] final  -94.02 input  -60.11 | X-H torsion
[ 7974 7965 7964 7962 ] final  114.20 input  175.53 | X-H torsion
[ 8008 7997 7996 7995 ] final  117.75 input   59.86 | X-H torsion
[ 10167 10162 10161 10158 ] final  144.38 input  -65.29 | X-H torsion
[ 10718 10713 10712 10709 ] final -114.88 input   66.30 | X-H torsion
[ 10763 10752 10751 10750 ] final -166.44 input  -60.55 | X-H torsion
[ 11005 11000 10999 10996 ] final  102.85 input  -57.11 | X-H torsion

> <Gold.Protein.ActiveResidues>
 VAL166  LYS551  ARG553  GLY616  TRP617  ASP618  TYR619  PRO620  LYS621  CYS622 
 ASP623  PHE694  ASN695  SER759  ASP760  ASP761  ALA762  ILE779  LEU786  VAL792 
 PHE793  MET794  SER795  GLU796  ALA797  LYS798  CYS799  TRP800  GLU811  SER814 

> <Gold.Protein.RotatedAtoms>
  150.6933  134.1877  159.4272 H   0  0  0  0  0  0  0  0  0  0  0  0  # atno 6907 bound_to 6896
  151.9849  135.0007  160.0568 H   0  0  0  0  0  0  0  0  0  0  0  0  # atno 6908 bound_to 6896
  152.1721  133.4615  159.4951 H   0  0  0  0  0  0  0  0  0  0  0  0  # atno 6909 bound_to 6896
  145.2074  139.2922  143.4286 H   0  0  0  0  0  0  0  0  0  0  0  0  # atno 7974 bound_to 7965
  156.2511  140.2889  156.0727 H   0  0  0  0  0  0  0  0  0  0  0  0  # atno 8008 bound_to 7997
  155.1653  140.0400  157.2868 H   0  0  0  0  0  0  0  0  0  0  0  0  # atno 8009 bound_to 7997
  154.6364  140.2512  155.7380 H   0  0  0  0  0  0  0  0  0  0  0  0  # atno 8010 bound_to 7997
  139.4948  144.5976  151.6550 H   0  0  0  0  0  0  0  0  0  0  0  0  # atno 10167 bound_to 10162
  156.0858  130.6050  150.8832 H   0  0  0  0  0  0  0  0  0  0  0  0  # atno 10718 bound_to 10713
  154.6832  135.2958  154.9584 H   0  0  0  0  0  0  0  0  0  0  0  0  # atno 10763 bound_to 10752
  154.0571  135.6636  153.4811 H   0  0  0  0  0  0  0  0  0  0  0  0  # atno 10764 bound_to 10752
  153.0561  135.5143  154.7886 H   0  0  0  0  0  0  0  0  0  0  0  0  # atno 10765 bound_to 10752
  139.8780  134.9240  156.5120 H   0  0  0  0  0  0  0  0  0  0  0  0  # atno 11005 bound_to 11000
  146.3405  140.2339  142.8594 LP  0  0  0  0  0  0  0  0  0  0  0  0  # atno 17320 bound_to 7965
  144.9889  140.8528  143.5352 LP  0  0  0  0  0  0  0  0  0  0  0  0  # atno 17321 bound_to 7965
  140.5618  144.0256  150.6173 LP  0  0  0  0  0  0  0  0  0  0  0  0  # atno 17342 bound_to 10162
  140.3345  143.3057  152.0653 LP  0  0  0  0  0  0  0  0  0  0  0  0  # atno 17343 bound_to 10162
  157.5992  131.0942  150.8989 LP  0  0  0  0  0  0  0  0  0  0  0  0  # atno 17370 bound_to 10713
  156.9149  130.5294  149.5280 LP  0  0  0  0  0  0  0  0  0  0  0  0  # atno 17371 bound_to 10713
  140.8513  133.8130  155.9171 LP  0  0  0  0  0  0  0  0  0  0  0  0  # atno 17394 bound_to 11000
  140.9141  134.2223  157.4967 LP  0  0  0  0  0  0  0  0  0  0  0  0  # atno 17395 bound_to 11000

$$$$
