AV-unprocessed.smi:1920|AV-procd|sdf|7784|dock3
  -GOLD-   22720 9533D 1   1.00000     0.00000
 Structure written by MMmdl.
 36 37  0  0  0  0  0  0  0  0  1 V2000
  146.9488  142.2670  154.5119 C   0  0  0  0  0  0  0  0  0  0  0  0
  148.0800  141.4574  155.1599 C   0  0  1  0  0  0  0  0  0  0  0  0
  149.1614  141.0749  154.1288 C   0  0  0  0  0  0  0  0  0  0  0  0
  150.0258  140.0045  154.5929 N   0  0  0  0  0  0  0  0  0  0  0  0
  150.2345  138.7719  153.9882 C   0  0  0  0  0  0  0  0  0  0  0  0
  151.1311  138.0920  154.7810 C   0  0  0  0  0  0  0  0  0  0  0  0
  151.4922  138.8851  155.8677 N   0  0  0  0  0  0  0  0  0  0  0  0
  150.7991  140.0020  155.6875 C   0  0  0  0  0  0  0  0  0  0  0  0
  148.6644  142.2394  156.2486 N   0  0  0  0  0  0  0  0  0  0  0  0
  148.7647  141.8511  157.5300 C   0  0  0  0  0  0  0  0  0  0  0  0
  148.3330  140.7774  157.9503 O   0  0  0  0  0  0  0  0  0  0  0  0
  149.4703  142.8275  158.4785 C   0  0  0  0  0  0  0  0  0  0  0  0
  151.0065  142.8673  158.3146 C   0  0  1  0  0  0  0  0  0  0  0  0
  151.6734  143.9575  159.1186 C   0  0  0  0  0  0  0  0  0  0  0  0
  152.6172  143.4944  159.9341 C   0  0  0  0  0  0  0  0  0  0  0  0
  152.7753  142.0024  159.8429 C   0  0  0  0  0  0  0  0  0  0  0  0
  151.7031  141.5753  158.8150 C   0  0  0  0  0  0  0  0  0  0  0  0
  146.4737  141.7026  153.7090 H   0  0  0  0  0  0  0  0  0  0  0  0
  147.3193  143.2009  154.0876 H   0  0  0  0  0  0  0  0  0  0  0  0
  146.1759  142.5147  155.2405 H   0  0  0  0  0  0  0  0  0  0  0  0
  147.6350  140.5404  155.5502 H   0  0  0  0  0  0  0  0  0  0  0  0
  148.6942  140.7459  153.1998 H   0  0  0  0  0  0  0  0  0  0  0  0
  149.7757  141.9416  153.8791 H   0  0  0  0  0  0  0  0  0  0  0  0
  149.7376  138.4865  153.0726 H   0  0  0  0  0  0  0  0  0  0  0  0
  151.5421  137.1015  154.6531 H   0  0  0  0  0  0  0  0  0  0  0  0
  150.8526  140.8366  156.3714 H   0  0  0  0  0  0  0  0  0  0  0  0
  149.0463  143.1410  156.0021 H   0  0  0  0  0  0  0  0  0  0  0  0
  149.0640  143.8291  158.3277 H   0  0  0  0  0  0  0  0  0  0  0  0
  149.2190  142.5442  159.5010 H   0  0  0  0  0  0  0  0  0  0  0  0
  151.2605  143.0293  157.2659 H   0  0  0  0  0  0  0  0  0  0  0  0
  151.4065  144.9982  159.0111 H   0  0  0  0  0  0  0  0  0  0  0  0
  153.2245  144.1000  160.5908 H   0  0  0  0  0  0  0  0  0  0  0  0
  153.7816  141.7519  159.5055 H   0  0  0  0  0  0  0  0  0  0  0  0
  152.6087  141.5422  160.8172 H   0  0  0  0  0  0  0  0  0  0  0  0
  150.9897  140.8952  159.2820 H   0  0  0  0  0  0  0  0  0  0  0  0
  152.1569  141.0343  157.9838 H   0  0  0  0  0  0  0  0  0  0  0  0
  1  2  1  0  0  0  0
  1 18  1  0  0  0  0
  1 19  1  0  0  0  0
  1 20  1  0  0  0  0
  2  3  1  0  0  0  0
  2  9  1  0  0  0  0
  2 21  1  0  0  0  0
  3  4  1  0  0  0  0
  3 22  1  0  0  0  0
  3 23  1  0  0  0  0
  4  8  1  0  0  0  0
  4  5  1  0  0  0  0
  5  6  2  0  0  0  0
  5 24  1  0  0  0  0
  6  7  1  0  0  0  0
  6 25  1  0  0  0  0
  7  8  2  0  0  0  0
  8 26  1  0  0  0  0
  9 10  1  0  0  0  0
  9 27  1  0  0  0  0
 10 11  2  0  0  0  0
 10 12  1  0  0  0  0
 12 13  1  0  0  0  0
 12 28  1  0  0  0  0
 12 29  1  0  0  0  0
 13 17  1  0  0  0  0
 13 14  1  0  0  0  0
 13 30  1  0  0  0  0
 14 15  2  0  0  0  0
 14 31  1  0  0  0  0
 15 16  1  0  0  0  0
 15 32  1  0  0  0  0
 16 17  1  0  0  0  0
 16 33  1  0  0  0  0
 16 34  1  0  0  0  0
 17 35  1  0  0  0  0
 17 36  1  0  0  0  0
M  END
> <s_m_source_file>
AV-unprocessed.smi

> <i_m_source_file_index>
1920

> <i_lp_mmshare_version>
43012

> <i_f3d_flags>
0

> <s_epik_input>
W2NIXTFuW2NIXVtjSF1uMVtDSDJdW0NAQEhdKFtDSDNdKVtOSF1DKD1PKVtDSDJdW0NAQEhdMltDSF09W0NIXVtDSDJdW0NIMl0y

> <s_epik_cmdline>
J2VwaWtfcHl0aG9uJywgJy1waCcsICc3LjAnLCAnLXRuJywgJzgnLCAnLW1hJywgJzIwMCcsICctbWV0YWxfYmluZGluZycsICctaW1hZScsICc8aW5maWxlLm1hZT4nLCAnLW9tYWUnLCAnPG91dGZpbGUubWFlPic=

> <r_lp_tautomer_probability>
1

> <r_epik_Ionization_Penalty>
0.635367

> <r_epik_Ionization_Penalty_Charging>
0.635367

> <r_epik_Ionization_Penalty_Neutral>
2.1249e-08

> <r_epik_State_Penalty>
0.65258

> <r_epik_Charging_Adjusted_Penalty>
1.28795

> <i_epik_Tot_Q>
0

> <i_epik_Tot_abs_Q>
0

> <r_epik_Metal_State_Penalty>
0.310403

> <b_epik_Metal_Only>
0

> <s_lp_Force_Field>
OPLS_2005

> <r_lp_Energy>
18.2419

> <b_lp_Chiralities_Consistent>
1

> <s_lp_Variant>
AV-unprocessed.smi:1920-8

> <Gold.Version>
5.8.1

> <Gold.Id.Protein>
6NUR|6NUR_protein|mol2

> <Gold.PLP.Fitness>
45.5770

> <Gold.PLP.PLP>
-38.2931

> <Gold.PLP.part.hbond>
-1.1236

> <Gold.PLP.part.metal>
0.0000

> <Gold.PLP.part.buried>
-1.1644

> <Gold.PLP.part.nonpolar>
-35.2502

> <Gold.PLP.part.repulsive>
0.0763

> <Gold.PLP.ligand.clash>
0.0000

> <Gold.PLP.ligand.torsion>
0.3819

> <Gold.PLP.Chemscore.Hbond>
1.0000

> <Gold.PLP.Chemscore.CHOScore>
1.6584

> <Gold.PLP.Chemscore.Metal>
0.0000

> <Gold.Chemscore.Hbonds>
donor molecule, donor type, donor heavy atom, donor atom, acceptor molecule, acceptor atom, score
      L1  H     9    27       P1  8028  1.00
      L1  C     5    24       P1  7948  0.74
      L1  C     5    24       P1  7957  0.83

> <Gold.PLP.Chemscore.Internal.Correction>
0.0725

> <Gold.Rescore>
     Score         DG    S(hbond)    S(metal)    S(lipo)     H(rot)  DE(clash)    DE(int)     intcor
     14.63     -15.14       1.00        0.00      96.35       1.93       0.00       0.51       ----

> <Gold.Chemscore.Fitness>
14.6269

> <Gold.Chemscore.DG>
-15.1404

> <Gold.Chemscore.ZeroCoef>
-5.4800

> <Gold.Chemscore.Hbond>
0.9970

> <Gold.Chemscore.Metal>
0.0000

> <Gold.Chemscore.Lipo>
96.3475

> <Gold.Chemscore.Internal_Hbond>
0.0000

> <Gold.Chemscore.DEClash>
0.0008

> <Gold.Chemscore.DEInternal>
0.5127

> <Gold.Chemscore.Rot>
1.9306

> <Gold.Chemscore.Internal.Correction>
   9.000000E+99

> <Gold.Chemscore.Hbonds>
donor molecule, donor type, donor heavy atom, donor atom, acceptor molecule, acceptor atom, score
      L1  H     9    27       P1  8028  0.95

> <Gold.Chemscore.Hbond.Weighted>
-3.3301

> <Gold.Chemscore.Metal.Weighted>
-0.0000

> <Gold.Chemscore.Lipo.Weighted>
-11.2727

> <Gold.Chemscore.Internal_Hbond.Weighted>
0.0000

> <Gold.Chemscore.DEClash.Weighted>
0.0008

> <Gold.Chemscore.DEInternal.Weighted>
0.5127

> <Gold.Chemscore.Rot.Weighted>
4.9424

> <Gold.Chemscore.Internal.Correction.Weighted>
   9.000000E+99

> <Gold.Protein.RotatedTorsions>
[ 6907 6896 6895 6894 ] final -164.57 input  -60.11 | X-H torsion
[ 7974 7965 7964 7962 ] final  154.09 input  175.53 | X-H torsion
[ 8008 7997 7996 7995 ] final  126.68 input   59.86 | X-H torsion
[ 10167 10162 10161 10158 ] final -149.47 input  -65.29 | X-H torsion
[ 10718 10713 10712 10709 ] final   48.24 input   66.30 | X-H torsion
[ 10763 10752 10751 10750 ] final  102.77 input  -60.55 | X-H torsion
[ 11005 11000 10999 10996 ] final -123.86 input  -57.11 | X-H torsion

> <Gold.Protein.ActiveResidues>
 VAL166  LYS551  ARG553  GLY616  TRP617  ASP618  TYR619  PRO620  LYS621  CYS622 
 ASP623  PHE694  ASN695  SER759  ASP760  ASP761  ALA762  ILE779  LEU786  VAL792 
 PHE793  MET794  SER795  GLU796  ALA797  LYS798  CYS799  TRP800  GLU811  SER814 

> <Gold.Protein.RotatedAtoms>
  151.4140  133.3718  159.2747 H   0  0  0  0  0  0  0  0  0  0  0  0  # atno 6907 bound_to 6896
  150.9342  134.8757  159.7581 H   0  0  0  0  0  0  0  0  0  0  0  0  # atno 6908 bound_to 6896
  152.5042  134.4086  159.9493 H   0  0  0  0  0  0  0  0  0  0  0  0  # atno 6909 bound_to 6896
  144.8111  139.6887  143.6141 H   0  0  0  0  0  0  0  0  0  0  0  0  # atno 7974 bound_to 7965
  156.2870  140.2687  156.2151 H   0  0  0  0  0  0  0  0  0  0  0  0  # atno 8008 bound_to 7997
  155.0225  140.0386  157.2461 H   0  0  0  0  0  0  0  0  0  0  0  0  # atno 8009 bound_to 7997
  154.7423  140.2727  155.6367 H   0  0  0  0  0  0  0  0  0  0  0  0  # atno 8010 bound_to 7997
  139.7440  143.8619  152.2570 H   0  0  0  0  0  0  0  0  0  0  0  0  # atno 10167 bound_to 10162
  157.4667  130.8230  149.7943 H   0  0  0  0  0  0  0  0  0  0  0  0  # atno 10718 bound_to 10713
  153.3439  135.3999  155.1594 H   0  0  0  0  0  0  0  0  0  0  0  0  # atno 10763 bound_to 10752
  154.8649  135.3640  154.5309 H   0  0  0  0  0  0  0  0  0  0  0  0  # atno 10764 bound_to 10752
  153.5756  135.7078  153.5545 H   0  0  0  0  0  0  0  0  0  0  0  0  # atno 10765 bound_to 10752
  140.9886  134.0571  157.3681 H   0  0  0  0  0  0  0  0  0  0  0  0  # atno 11005 bound_to 11000
  146.2410  139.6001  142.9491 LP  0  0  0  0  0  0  0  0  0  0  0  0  # atno 17320 bound_to 7965
  145.5321  141.0426  143.2377 LP  0  0  0  0  0  0  0  0  0  0  0  0  # atno 17321 bound_to 7965
  139.8578  144.7132  150.9136 LP  0  0  0  0  0  0  0  0  0  0  0  0  # atno 17342 bound_to 10162
  140.7789  143.3843  151.1420 LP  0  0  0  0  0  0  0  0  0  0  0  0  # atno 17343 bound_to 10162
  156.0054  130.3858  150.2452 LP  0  0  0  0  0  0  0  0  0  0  0  0  # atno 17370 bound_to 10713
  157.0632  131.0096  151.3215 LP  0  0  0  0  0  0  0  0  0  0  0  0  # atno 17371 bound_to 10713
  139.8982  135.0153  156.7136 LP  0  0  0  0  0  0  0  0  0  0  0  0  # atno 17394 bound_to 11000
  140.7075  133.9252  155.8063 LP  0  0  0  0  0  0  0  0  0  0  0  0  # atno 17395 bound_to 11000

$$$$
