AV-unprocessed.smi:199|AV-procd|sdf|1569|dock1
  -GOLD-   2262019443D 1   1.00000     0.00000
 Structure written by MMmdl.
 51 55  0  0  0  0  0  0  0  0  1 V2000
  151.8305  125.7060  155.3575 C   0  0  0  0  0  0  0  0  0  0  0  0
  151.7686  127.2364  155.4887 C   0  0  1  0  0  0  0  0  0  0  0  0
  153.0128  127.8198  155.1300 O   0  0  0  0  0  0  0  0  0  0  0  0
  152.7734  129.1960  154.8985 C   0  0  0  0  0  0  0  0  0  0  0  0
  151.4876  129.1819  154.0804 C   0  0  0  0  0  0  0  0  0  0  0  0
  150.7127  127.9784  154.6268 C   0  0  1  0  0  0  0  0  0  0  0  0
  150.2872  127.1926  153.5254 O   0  0  0  0  0  0  0  0  0  0  0  0
  149.4588  128.4067  155.4290 C   0  0  0  0  0  0  0  0  0  0  0  0
  148.4200  129.0062  154.6047 N   0  0  0  0  0  0  0  0  0  0  0  0
  147.2574  128.4067  154.1778 C   0  0  0  0  0  0  0  0  0  0  0  0
  146.4754  129.1617  153.4570 N   0  0  0  0  0  0  0  0  0  0  0  0
  147.1544  130.3711  153.3616 C   0  0  0  0  0  0  0  0  0  0  0  0
  146.8831  131.6216  152.7334 C   0  0  0  0  0  0  0  0  0  0  0  0
  145.7545  131.8801  152.0171 N   0  0  0  0  0  0  0  0  0  0  0  0
  144.9616  133.0764  152.2712 C   0  0  1  0  0  0  0  0  0  0  0  0
  145.7934  134.2187  151.6509 C   0  0  0  0  0  0  0  0  0  0  0  0
  146.4406  133.5016  150.4570 C   0  0  0  0  0  0  0  0  0  0  0  0
  145.8249  132.0904  150.5787 C   0  0  2  0  0  0  0  0  0  0  0  0
  144.3248  132.0830  150.2017 C   0  0  2  0  0  0  0  0  0  0  0  0
  143.9385  132.6397  148.8185 C   0  0  0  0  0  0  0  0  0  0  0  0
  142.5926  132.3314  148.5248 O   0  0  0  0  0  0  0  0  0  0  0  0
  143.7178  132.8428  151.3954 C   0  0  0  0  0  0  0  0  0  0  0  0
  147.8022  132.6106  152.8959 N   0  0  0  0  0  0  0  0  0  0  0  0
  148.9193  132.3913  153.5941 C   0  0  0  0  0  0  0  0  0  0  0  0
  149.3079  131.2782  154.2168 N   0  0  0  0  0  0  0  0  0  0  0  0
  148.3821  130.2867  154.0797 C   0  0  0  0  0  0  0  0  0  0  0  0
  150.8750  125.2490  155.6159 H   0  0  0  0  0  0  0  0  0  0  0  0
  152.5848  125.2925  156.0267 H   0  0  0  0  0  0  0  0  0  0  0  0
  152.0892  125.4002  154.3435 H   0  0  0  0  0  0  0  0  0  0  0  0
  151.6157  127.4859  156.5391 H   0  0  0  0  0  0  0  0  0  0  0  0
  152.6288  129.7111  155.8497 H   0  0  0  0  0  0  0  0  0  0  0  0
  153.6032  129.6676  154.3720 H   0  0  0  0  0  0  0  0  0  0  0  0
  150.9413  130.1229  154.1552 H   0  0  0  0  0  0  0  0  0  0  0  0
  151.7438  129.0391  153.0292 H   0  0  0  0  0  0  0  0  0  0  0  0
  150.7681  127.4649  152.7589 H   0  0  0  0  0  0  0  0  0  0  0  0
  149.0325  127.5435  155.9419 H   0  0  0  0  0  0  0  0  0  0  0  0
  149.7294  129.1193  156.2094 H   0  0  0  0  0  0  0  0  0  0  0  0
  146.9995  127.3882  154.4285 H   0  0  0  0  0  0  0  0  0  0  0  0
  144.7069  133.2454  153.3182 H   0  0  0  0  0  0  0  0  0  0  0  0
  145.1818  135.0708  151.3522 H   0  0  0  0  0  0  0  0  0  0  0  0
  146.5557  134.5781  152.3430 H   0  0  0  0  0  0  0  0  0  0  0  0
  146.2480  133.9892  149.5028 H   0  0  0  0  0  0  0  0  0  0  0  0
  147.5231  133.4574  150.5850 H   0  0  0  0  0  0  0  0  0  0  0  0
  146.3814  131.3366  150.0249 H   0  0  0  0  0  0  0  0  0  0  0  0
  143.9771  131.0492  150.2513 H   0  0  0  0  0  0  0  0  0  0  0  0
  144.0504  133.7242  148.8136 H   0  0  0  0  0  0  0  0  0  0  0  0
  144.5836  132.2588  148.0277 H   0  0  0  0  0  0  0  0  0  0  0  0
  142.0416  132.9992  148.9036 H   0  0  0  0  0  0  0  0  0  0  0  0
  142.9861  132.2199  151.9114 H   0  0  0  0  0  0  0  0  0  0  0  0
  143.2263  133.7749  151.1137 H   0  0  0  0  0  0  0  0  0  0  0  0
  149.5977  133.2285  153.6651 H   0  0  0  0  0  0  0  0  0  0  0  0
  1  2  1  0  0  0  0
  1 27  1  0  0  0  0
  1 28  1  0  0  0  0
  1 29  1  0  0  0  0
  2  6  1  0  0  0  0
  2  3  1  0  0  0  0
  2 30  1  0  0  0  0
  3  4  1  0  0  0  0
  4  5  1  0  0  0  0
  4 31  1  0  0  0  0
  4 32  1  0  0  0  0
  5  6  1  0  0  0  0
  5 33  1  0  0  0  0
  5 34  1  0  0  0  0
  6  7  1  0  0  0  0
  6  8  1  0  0  0  0
  7 35  1  0  0  0  0
  8  9  1  0  0  0  0
  8 36  1  0  0  0  0
  8 37  1  0  0  0  0
  9 26  1  0  0  0  0
  9 10  1  0  0  0  0
 10 11  2  0  0  0  0
 10 38  1  0  0  0  0
 11 12  1  0  0  0  0
 12 26  2  0  0  0  0
 12 13  1  0  0  0  0
 13 14  1  0  0  0  0
 13 23  2  0  0  0  0
 14 18  1  0  0  0  0
 14 15  1  0  0  0  0
 15 22  1  0  0  0  0
 15 16  1  0  0  0  0
 15 39  1  0  0  0  0
 16 17  1  0  0  0  0
 16 40  1  0  0  0  0
 16 41  1  0  0  0  0
 17 18  1  0  0  0  0
 17 42  1  0  0  0  0
 17 43  1  0  0  0  0
 18 19  1  0  0  0  0
 18 44  1  0  0  0  0
 19 20  1  0  0  0  0
 19 22  1  0  0  0  0
 19 45  1  0  0  0  0
 20 21  1  0  0  0  0
 20 46  1  0  0  0  0
 20 47  1  0  0  0  0
 21 48  1  0  0  0  0
 22 49  1  0  0  0  0
 22 50  1  0  0  0  0
 23 24  1  0  0  0  0
 24 25  2  0  0  0  0
 24 51  1  0  0  0  0
 25 26  1  0  0  0  0
M  END
> <s_m_source_file>
AV-unprocessed.smi

> <i_m_source_file_index>
199

> <i_lp_mmshare_version>
43012

> <i_f3d_flags>
0

> <s_epik_input>
W0NIMl0xW0NIMl1PW0NAQEhdKFtDSDNdKVtDQEBdMShbT0hdKVtDSDJdbihbY0hdbjIpYyhjMjMpbltjSF1uYzNOKFtDQEBIXTQ1KVtDQEhdKFtDSDJdW0NIMl00KVtDQEhdKFtDSDJdNSlbQ0gyXVtPSF0=

> <s_epik_cmdline>
J2VwaWtfcHl0aG9uJywgJy1waCcsICc3LjAnLCAnLXRuJywgJzgnLCAnLW1hJywgJzIwMCcsICctbWV0YWxfYmluZGluZycsICctaW1hZScsICc8aW5maWxlLm1hZT4nLCAnLW9tYWUnLCAnPG91dGZpbGUubWFlPic=

> <r_lp_tautomer_probability>
1

> <r_epik_Ionization_Penalty>
0.00583903

> <r_epik_Ionization_Penalty_Charging>
0

> <r_epik_Ionization_Penalty_Neutral>
0.00583903

> <r_epik_State_Penalty>
-0

> <r_epik_Charging_Adjusted_Penalty>
0

> <i_epik_Tot_Q>
0

> <i_epik_Tot_abs_Q>
0

> <r_epik_Metal_State_Penalty>
-0

> <b_epik_Metal_Only>
0

> <s_lp_Force_Field>
OPLS_2005

> <r_lp_Energy>
83.7467

> <b_lp_Chiralities_Consistent>
1

> <s_lp_Variant>
AV-unprocessed.smi:199-10

> <Gold.Version>
5.8.1

> <Gold.Id.Protein>
6NUR|6NUR_protein|mol2

> <Gold.PLP.Fitness>
46.0437

> <Gold.PLP.PLP>
-39.9127

> <Gold.PLP.part.hbond>
-4.4848

> <Gold.PLP.part.metal>
0.0000

> <Gold.PLP.part.buried>
-7.8138

> <Gold.PLP.part.nonpolar>
-28.2790

> <Gold.PLP.part.repulsive>
0.4907

> <Gold.PLP.ligand.clash>
0.0000

> <Gold.PLP.ligand.torsion>
0.5239

> <Gold.PLP.Chemscore.Hbond>
2.3786

> <Gold.PLP.Chemscore.CHOScore>
0.0000

> <Gold.PLP.Chemscore.Metal>
0.0000

> <Gold.Chemscore.Hbonds>
donor molecule, donor type, donor heavy atom, donor atom, acceptor molecule, acceptor atom, score
      L1  H     7    35       P1 10737  1.00
      L1  H    21    48       P1 10186  1.00
      P1  H 10785 10796       L1    21  0.13

> <Gold.PLP.Chemscore.Internal.Correction>
0.0431

> <Gold.Rescore>
     Score         DG    S(hbond)    S(metal)    S(lipo)     H(rot)  DE(clash)    DE(int)     intcor
     11.17     -14.24       1.99        0.00      85.41       3.07       0.05       3.02       ----

> <Gold.Chemscore.Fitness>
11.1710

> <Gold.Chemscore.DG>
-14.2368

> <Gold.Chemscore.ZeroCoef>
-5.4800

> <Gold.Chemscore.Hbond>
1.9852

> <Gold.Chemscore.Metal>
0.0000

> <Gold.Chemscore.Lipo>
85.4094

> <Gold.Chemscore.Internal_Hbond>
0.0000

> <Gold.Chemscore.DEClash>
0.0487

> <Gold.Chemscore.DEInternal>
3.0171

> <Gold.Chemscore.Rot>
3.0729

> <Gold.Chemscore.Internal.Correction>
   9.000000E+99

> <Gold.Chemscore.Hbonds>
donor molecule, donor type, donor heavy atom, donor atom, acceptor molecule, acceptor atom, score
      L1  H     7    35       P1 10737  0.99
      L1  H    21    48       P1 10186  1.00

> <Gold.Chemscore.Hbond.Weighted>
-6.6306

> <Gold.Chemscore.Metal.Weighted>
-0.0000

> <Gold.Chemscore.Lipo.Weighted>
-9.9929

> <Gold.Chemscore.Internal_Hbond.Weighted>
0.0000

> <Gold.Chemscore.DEClash.Weighted>
0.0487

> <Gold.Chemscore.DEInternal.Weighted>
3.0171

> <Gold.Chemscore.Rot.Weighted>
7.8667

> <Gold.Chemscore.Internal.Correction.Weighted>
   9.000000E+99

> <Gold.Protein.RotatedTorsions>
[ 6907 6896 6895 6894 ] final   16.21 input  -60.11 | X-H torsion
[ 7974 7965 7964 7962 ] final  -26.80 input  175.53 | X-H torsion
[ 8008 7997 7996 7995 ] final    6.33 input   59.86 | X-H torsion
[ 10167 10162 10161 10158 ] final   10.41 input  -65.29 | X-H torsion
[ 10718 10713 10712 10709 ] final   71.67 input   66.30 | X-H torsion
[ 10763 10752 10751 10750 ] final  -47.11 input  -60.55 | X-H torsion
[ 11005 11000 10999 10996 ] final   61.85 input  -57.11 | X-H torsion

> <Gold.Protein.ActiveResidues>
 VAL166  LYS551  ARG553  GLY616  TRP617  ASP618  TYR619  PRO620  LYS621  CYS622 
 ASP623  PHE694  ASN695  SER759  ASP760  ASP761  ALA762  ILE779  LEU786  VAL792 
 PHE793  MET794  SER795  GLU796  ALA797  LYS798  CYS799  TRP800  GLU811  SER814 

> <Gold.Protein.RotatedAtoms>
  151.8303  135.0623  160.0435 H   0  0  0  0  0  0  0  0  0  0  0  0  # atno 6907 bound_to 6896
  152.2885  133.5534  159.5551 H   0  0  0  0  0  0  0  0  0  0  0  0  # atno 6908 bound_to 6896
  150.7220  134.0378  159.3797 H   0  0  0  0  0  0  0  0  0  0  0  0  # atno 6909 bound_to 6896
  146.1401  140.5068  142.8656 H   0  0  0  0  0  0  0  0  0  0  0  0  # atno 7974 bound_to 7965
  154.7396  140.2746  155.6385 H   0  0  0  0  0  0  0  0  0  0  0  0  # atno 8008 bound_to 7997
  156.2870  140.2699  156.2045 H   0  0  0  0  0  0  0  0  0  0  0  0  # atno 8009 bound_to 7997
  155.0275  140.0371  157.2451 H   0  0  0  0  0  0  0  0  0  0  0  0  # atno 8010 bound_to 7997
  140.6196  143.8234  150.7159 H   0  0  0  0  0  0  0  0  0  0  0  0  # atno 10167 bound_to 10162
  157.6463  130.9540  150.0821 H   0  0  0  0  0  0  0  0  0  0  0  0  # atno 10718 bound_to 10713
  154.0561  135.6624  153.4806 H   0  0  0  0  0  0  0  0  0  0  0  0  # atno 10763 bound_to 10752
  153.0445  135.5123  154.7704 H   0  0  0  0  0  0  0  0  0  0  0  0  # atno 10764 bound_to 10752
  154.6726  135.3032  154.9688 H   0  0  0  0  0  0  0  0  0  0  0  0  # atno 10765 bound_to 10752
  140.0133  134.6263  155.9748 H   0  0  0  0  0  0  0  0  0  0  0  0  # atno 11005 bound_to 11000
  144.7783  140.5786  143.6623 LP  0  0  0  0  0  0  0  0  0  0  0  0  # atno 17320 bound_to 7965
  145.5066  139.1481  143.3628 LP  0  0  0  0  0  0  0  0  0  0  0  0  # atno 17321 bound_to 7965
  140.1821  143.4106  152.1925 LP  0  0  0  0  0  0  0  0  0  0  0  0  # atno 17342 bound_to 10162
  139.5427  144.7271  151.4681 LP  0  0  0  0  0  0  0  0  0  0  0  0  # atno 17343 bound_to 10162
  156.1794  130.3649  149.9055 LP  0  0  0  0  0  0  0  0  0  0  0  0  # atno 17370 bound_to 10713
  156.7011  130.8933  151.3599 LP  0  0  0  0  0  0  0  0  0  0  0  0  # atno 17371 bound_to 10713
  141.1726  133.6538  156.4707 LP  0  0  0  0  0  0  0  0  0  0  0  0  # atno 17394 bound_to 11000
  140.4516  134.6924  157.5042 LP  0  0  0  0  0  0  0  0  0  0  0  0  # atno 17395 bound_to 11000

$$$$
