AV-unprocessed.smi:263|AV-procd|sdf|2004|dock7
  -GOLD-   2262021203D 1   1.00000     0.00000
 Structure written by MMmdl.
 57 61  0  0  0  0  0  0  0  0  1 V2000
  149.7463  134.3490  153.9268 O   0  0  0  0  0  0  0  0  0  0  0  0
  150.0760  135.2030  155.0083 C   0  0  0  0  0  0  0  0  0  0  0  0
  151.1552  136.2000  154.5170 C   0  0  0  0  0  0  0  0  0  0  0  0
  151.1269  137.4873  155.1937 N   0  0  0  0  0  0  0  0  0  0  0  0
  150.9231  138.7185  154.6122 C   0  0  0  0  0  0  0  0  0  0  0  0
  150.9419  139.7319  155.4338 N   0  0  0  0  0  0  0  0  0  0  0  0
  151.1928  139.1586  156.6750 C   0  0  0  0  0  0  0  0  0  0  0  0
  151.3413  139.6748  157.9932 C   0  0  0  0  0  0  0  0  0  0  0  0
  151.2713  141.0011  158.2722 N   0  0  0  0  0  0  0  0  0  0  0  0
  150.1319  141.6883  157.6679 C   0  0  0  0  0  0  0  0  0  0  0  0
  149.8791  143.0423  158.3529 C   0  0  0  0  0  0  0  0  0  0  0  0
  151.1514  143.9220  158.3966 C   0  0  1  0  0  0  0  0  0  0  0  0
  151.4563  144.2931  157.0639 O   0  0  0  0  0  0  0  0  0  0  0  0
  150.9303  145.2462  159.1651 C   0  0  0  0  0  0  0  0  0  0  0  0
  150.8331  145.0482  160.6866 C   0  0  0  0  0  0  0  0  0  0  0  0
  152.0630  144.3042  161.2233 C   0  0  0  0  0  0  0  0  0  0  0  0
  152.2477  142.9570  160.5104 C   0  0  0  0  0  0  0  0  0  0  0  0
  152.3542  143.1270  158.9783 C   0  0  1  0  0  0  0  0  0  0  0  0
  152.5220  141.7622  158.2762 C   0  0  0  0  0  0  0  0  0  0  0  0
  151.5675  138.7805  158.9928 N   0  0  0  0  0  0  0  0  0  0  0  0
  151.6566  137.4746  158.7237 C   0  0  0  0  0  0  0  0  0  0  0  0
  151.5501  136.8562  157.5462 N   0  0  0  0  0  0  0  0  0  0  0  0
  151.3094  137.7459  156.5410 C   0  0  0  0  0  0  0  0  0  0  0  0
  148.8037  135.9613  155.4370 C   0  0  0  0  0  0  0  0  0  0  0  0
  147.7660  135.0320  156.0910 C   0  0  0  0  0  0  0  0  0  0  0  0
  148.3536  134.3477  157.1906 O   0  0  0  0  0  0  0  0  0  0  0  0
  149.4224  133.4959  156.7969 C   0  0  0  0  0  0  0  0  0  0  0  0
  150.5635  134.3265  156.1826 C   0  0  0  0  0  0  0  0  0  0  0  0
  149.5125  134.8820  153.1823 H   0  0  0  0  0  0  0  0  0  0  0  0
  152.1514  135.7717  154.6356 H   0  0  0  0  0  0  0  0  0  0  0  0
  151.0317  136.3832  153.4488 H   0  0  0  0  0  0  0  0  0  0  0  0
  150.7522  138.8413  153.5524 H   0  0  0  0  0  0  0  0  0  0  0  0
  150.3380  141.8383  156.6073 H   0  0  0  0  0  0  0  0  0  0  0  0
  149.2261  141.0856  157.7227 H   0  0  0  0  0  0  0  0  0  0  0  0
  149.0703  143.5676  157.8431 H   0  0  0  0  0  0  0  0  0  0  0  0
  149.5203  142.8508  159.3636 H   0  0  0  0  0  0  0  0  0  0  0  0
  150.6460  144.4038  156.5905 H   0  0  0  0  0  0  0  0  0  0  0  0
  151.7615  145.9243  158.9648 H   0  0  0  0  0  0  0  0  0  0  0  0
  150.0355  145.7517  158.7998 H   0  0  0  0  0  0  0  0  0  0  0  0
  150.7448  146.0172  161.1786 H   0  0  0  0  0  0  0  0  0  0  0  0
  149.9277  144.4959  160.9383 H   0  0  0  0  0  0  0  0  0  0  0  0
  152.9534  144.9184  161.0825 H   0  0  0  0  0  0  0  0  0  0  0  0
  151.9620  144.1454  162.2972 H   0  0  0  0  0  0  0  0  0  0  0  0
  153.1443  142.4664  160.8904 H   0  0  0  0  0  0  0  0  0  0  0  0
  151.4149  142.2994  160.7619 H   0  0  0  0  0  0  0  0  0  0  0  0
  153.2630  143.7025  158.7940 H   0  0  0  0  0  0  0  0  0  0  0  0
  153.3097  141.1918  158.7706 H   0  0  0  0  0  0  0  0  0  0  0  0
  152.8429  141.9145  157.2447 H   0  0  0  0  0  0  0  0  0  0  0  0
  151.8429  136.8342  159.5731 H   0  0  0  0  0  0  0  0  0  0  0  0
  149.0720  136.7351  156.1577 H   0  0  0  0  0  0  0  0  0  0  0  0
  148.3596  136.4781  154.5853 H   0  0  0  0  0  0  0  0  0  0  0  0
  146.9205  135.6161  156.4544 H   0  0  0  0  0  0  0  0  0  0  0  0
  147.3676  134.3159  155.3706 H   0  0  0  0  0  0  0  0  0  0  0  0
  149.7843  132.9594  157.6740 H   0  0  0  0  0  0  0  0  0  0  0  0
  149.0616  132.7427  156.0950 H   0  0  0  0  0  0  0  0  0  0  0  0
  151.3670  133.6610  155.8644 H   0  0  0  0  0  0  0  0  0  0  0  0
  150.9843  134.9667  156.9588 H   0  0  0  0  0  0  0  0  0  0  0  0
  1  2  1  0  0  0  0
  1 29  1  0  0  0  0
  2 28  1  0  0  0  0
  2  3  1  0  0  0  0
  2 24  1  0  0  0  0
  3  4  1  0  0  0  0
  3 30  1  0  0  0  0
  3 31  1  0  0  0  0
  4 23  1  0  0  0  0
  4  5  1  0  0  0  0
  5  6  2  0  0  0  0
  5 32  1  0  0  0  0
  6  7  1  0  0  0  0
  7 23  2  0  0  0  0
  7  8  1  0  0  0  0
  8  9  1  0  0  0  0
  8 20  2  0  0  0  0
  9 19  1  0  0  0  0
  9 10  1  0  0  0  0
 10 11  1  0  0  0  0
 10 33  1  0  0  0  0
 10 34  1  0  0  0  0
 11 12  1  0  0  0  0
 11 35  1  0  0  0  0
 11 36  1  0  0  0  0
 12 18  1  0  0  0  0
 12 13  1  0  0  0  0
 12 14  1  0  0  0  0
 13 37  1  0  0  0  0
 14 15  1  0  0  0  0
 14 38  1  0  0  0  0
 14 39  1  0  0  0  0
 15 16  1  0  0  0  0
 15 40  1  0  0  0  0
 15 41  1  0  0  0  0
 16 17  1  0  0  0  0
 16 42  1  0  0  0  0
 16 43  1  0  0  0  0
 17 18  1  0  0  0  0
 17 44  1  0  0  0  0
 17 45  1  0  0  0  0
 18 19  1  0  0  0  0
 18 46  1  0  0  0  0
 19 47  1  0  0  0  0
 19 48  1  0  0  0  0
 20 21  1  0  0  0  0
 21 22  2  0  0  0  0
 21 49  1  0  0  0  0
 22 23  1  0  0  0  0
 24 25  1  0  0  0  0
 24 50  1  0  0  0  0
 24 51  1  0  0  0  0
 25 26  1  0  0  0  0
 25 52  1  0  0  0  0
 25 53  1  0  0  0  0
 26 27  1  0  0  0  0
 27 28  1  0  0  0  0
 27 54  1  0  0  0  0
 27 55  1  0  0  0  0
 28 56  1  0  0  0  0
 28 57  1  0  0  0  0
M  END
> <s_m_source_file>
AV-unprocessed.smi

> <i_m_source_file_index>
263

> <i_lp_mmshare_version>
43012

> <i_f3d_flags>
0

> <s_epik_input>
W0NIMl0xW0NIMl1PW0NIMl1bQ0gyXUMxKFtPSF0pW0NIMl1uKFtjSF1uMiljKGMyMyluW2NIXW5jM04oW0NIMl1bQ0gyXTQpW0NIMl1bQ0BASF0oW0NAXTQ1W09IXSlbQ0gyXVtDSDJdW0NIMl1bQ0gyXTU=

> <s_epik_cmdline>
J2VwaWtfcHl0aG9uJywgJy1waCcsICc3LjAnLCAnLXRuJywgJzgnLCAnLW1hJywgJzIwMCcsICctbWV0YWxfYmluZGluZycsICctaW1hZScsICc8aW5maWxlLm1hZT4nLCAnLW9tYWUnLCAnPG91dGZpbGUubWFlPic=

> <r_lp_tautomer_probability>
1

> <r_epik_Ionization_Penalty>
0.00747493

> <r_epik_Ionization_Penalty_Charging>
0

> <r_epik_Ionization_Penalty_Neutral>
0.00747493

> <r_epik_State_Penalty>
0.00549307

> <r_epik_Charging_Adjusted_Penalty>
0.00549307

> <i_epik_Tot_Q>
0

> <i_epik_Tot_abs_Q>
0

> <r_epik_Metal_State_Penalty>
-0

> <b_epik_Metal_Only>
0

> <s_lp_Force_Field>
OPLS_2005

> <r_lp_Energy>
40.0531

> <b_lp_Chiralities_Consistent>
1

> <s_lp_Variant>
AV-unprocessed.smi:263-2

> <Gold.Version>
5.8.1

> <Gold.Id.Protein>
6NUR|6NUR_protein|mol2

> <Gold.PLP.Fitness>
44.2697

> <Gold.PLP.PLP>
-39.8803

> <Gold.PLP.part.hbond>
-2.0000

> <Gold.PLP.part.metal>
0.0000

> <Gold.PLP.part.buried>
-5.2738

> <Gold.PLP.part.nonpolar>
-32.1329

> <Gold.PLP.part.repulsive>
0.0230

> <Gold.PLP.ligand.clash>
0.0000

> <Gold.PLP.ligand.torsion>
1.0368

> <Gold.PLP.Chemscore.Hbond>
2.0000

> <Gold.PLP.Chemscore.CHOScore>
0.0307

> <Gold.PLP.Chemscore.Metal>
0.0000

> <Gold.Chemscore.Hbonds>
donor molecule, donor type, donor heavy atom, donor atom, acceptor molecule, acceptor atom, score
      L1  H     1    29       P1  7948  0.25
      L1  H    13    37       P1  8028  1.00
      P1  H  7989  7998       L1     6  0.02
      L1  C     5    32       P1  7957  0.10

> <Gold.PLP.Chemscore.Internal.Correction>
0.3709

> <Gold.Rescore>
     Score         DG    S(hbond)    S(metal)    S(lipo)     H(rot)  DE(clash)    DE(int)     intcor
     15.80     -17.82       1.90        0.00     108.76       2.62       0.12       1.90       ----

> <Gold.Chemscore.Fitness>
15.8036

> <Gold.Chemscore.DG>
-17.8206

> <Gold.Chemscore.ZeroCoef>
-5.4800

> <Gold.Chemscore.Hbond>
1.8955

> <Gold.Chemscore.Metal>
0.0000

> <Gold.Chemscore.Lipo>
108.7614

> <Gold.Chemscore.Internal_Hbond>
0.0000

> <Gold.Chemscore.DEClash>
0.1151

> <Gold.Chemscore.DEInternal>
1.9018

> <Gold.Chemscore.Rot>
2.6232

> <Gold.Chemscore.Internal.Correction>
   9.000000E+99

> <Gold.Chemscore.Hbonds>
donor molecule, donor type, donor heavy atom, donor atom, acceptor molecule, acceptor atom, score
      L1  H    13    37       P1  8028  0.97

> <Gold.Chemscore.Hbond.Weighted>
-6.3310

> <Gold.Chemscore.Metal.Weighted>
-0.0000

> <Gold.Chemscore.Lipo.Weighted>
-12.7251

> <Gold.Chemscore.Internal_Hbond.Weighted>
0.0000

> <Gold.Chemscore.DEClash.Weighted>
0.1151

> <Gold.Chemscore.DEInternal.Weighted>
1.9018

> <Gold.Chemscore.Rot.Weighted>
6.7155

> <Gold.Chemscore.Internal.Correction.Weighted>
   9.000000E+99

> <Gold.Protein.RotatedTorsions>
[ 6907 6896 6895 6894 ] final   23.62 input  -60.11 | X-H torsion
[ 7974 7965 7964 7962 ] final  161.86 input  175.53 | X-H torsion
[ 8008 7997 7996 7995 ] final -111.58 input   59.86 | X-H torsion
[ 10167 10162 10161 10158 ] final  -93.10 input  -65.29 | X-H torsion
[ 10718 10713 10712 10709 ] final  -51.97 input   66.30 | X-H torsion
[ 10763 10752 10751 10750 ] final  164.54 input  -60.55 | X-H torsion
[ 11005 11000 10999 10996 ] final -155.01 input  -57.11 | X-H torsion

> <Gold.Protein.ActiveResidues>
 VAL166  LYS551  ARG553  GLY616  TRP617  ASP618  TYR619  PRO620  LYS621  CYS622 
 ASP623  PHE694  ASN695  SER759  ASP760  ASP761  ALA762  ILE779  LEU786  VAL792 
 PHE793  MET794  SER795  GLU796  ALA797  LYS798  CYS799  TRP800  GLU811  SER814 

> <Gold.Protein.RotatedAtoms>
  151.9451  135.0195  160.0538 H   0  0  0  0  0  0  0  0  0  0  0  0  # atno 6907 bound_to 6896
  152.2003  133.4831  159.5063 H   0  0  0  0  0  0  0  0  0  0  0  0  # atno 6908 bound_to 6896
  150.6953  134.1516  159.4185 H   0  0  0  0  0  0  0  0  0  0  0  0  # atno 6909 bound_to 6896
  144.7665  139.7958  143.6313 H   0  0  0  0  0  0  0  0  0  0  0  0  # atno 7974 bound_to 7965
  154.9919  140.0395  157.2323 H   0  0  0  0  0  0  0  0  0  0  0  0  # atno 8008 bound_to 7997
  154.7620  140.2786  155.6183 H   0  0  0  0  0  0  0  0  0  0  0  0  # atno 8009 bound_to 7997
  156.2906  140.2626  156.2401 H   0  0  0  0  0  0  0  0  0  0  0  0  # atno 8010 bound_to 7997
  140.3281  143.3010  151.9972 H   0  0  0  0  0  0  0  0  0  0  0  0  # atno 10167 bound_to 10162
  156.1662  130.4149  149.9716 H   0  0  0  0  0  0  0  0  0  0  0  0  # atno 10718 bound_to 10713
  154.3105  135.2757  155.2568 H   0  0  0  0  0  0  0  0  0  0  0  0  # atno 10763 bound_to 10752
  154.4965  135.5819  153.6502 H   0  0  0  0  0  0  0  0  0  0  0  0  # atno 10764 bound_to 10752
  152.9888  135.6147  154.3282 H   0  0  0  0  0  0  0  0  0  0  0  0  # atno 10765 bound_to 10752
  140.6911  134.4040  157.5219 H   0  0  0  0  0  0  0  0  0  0  0  0  # atno 11005 bound_to 11000
  146.1776  139.4954  142.9887 LP  0  0  0  0  0  0  0  0  0  0  0  0  # atno 17320 bound_to 7965
  145.6455  141.0275  143.1789 LP  0  0  0  0  0  0  0  0  0  0  0  0  # atno 17321 bound_to 7965
  139.4861  144.6257  151.7169 LP  0  0  0  0  0  0  0  0  0  0  0  0  # atno 17342 bound_to 10162
  140.5422  144.0561  150.6093 LP  0  0  0  0  0  0  0  0  0  0  0  0  # atno 17343 bound_to 10162
  156.7530  130.9122  151.3638 LP  0  0  0  0  0  0  0  0  0  0  0  0  # atno 17370 bound_to 10713
  157.6770  130.9103  150.0174 LP  0  0  0  0  0  0  0  0  0  0  0  0  # atno 17371 bound_to 10713
  139.8923  134.8758  156.2276 LP  0  0  0  0  0  0  0  0  0  0  0  0  # atno 17394 bound_to 11000
  141.0241  133.7025  156.1317 LP  0  0  0  0  0  0  0  0  0  0  0  0  # atno 17395 bound_to 11000

$$$$
