AV-unprocessed.smi:2361|AV-procd|sdf|9412|dock6
  -GOLD-   2272013 53D 1   1.00000     0.00000
 Structure written by MMmdl.
 26 27  0  0  0  0  0  0  0  0  1 V2000
  153.0988  138.9344  157.0368 O   0  0  0  0  0  0  0  0  0  0  0  0
  152.1983  139.5755  156.4946 C   0  0  0  0  0  0  0  0  0  0  0  0
  151.6787  140.7191  156.9766 N   0  0  0  0  0  0  0  0  0  0  0  0
  152.0176  141.4173  158.1695 C   0  0  0  0  0  0  0  0  0  0  0  0
  152.5139  140.7798  159.3337 C   0  0  0  0  0  0  0  0  0  0  0  0
  152.8152  141.4372  160.4734 N   0  0  0  0  0  0  0  0  0  0  0  0
  152.6260  142.7723  160.5035 C   0  0  0  0  0  0  0  0  0  0  0  0
  152.1233  143.5072  159.4126 C   0  0  0  0  0  0  0  0  0  0  0  0
  151.9041  145.2155  159.5502 Cl  0  0  0  0  0  0  0  0  0  0  0  0
  151.8084  142.8153  158.2229 C   0  0  0  0  0  0  0  0  0  0  0  0
  151.1817  143.6691  156.8528 Cl  0  0  0  0  0  0  0  0  0  0  0  0
  151.5985  139.0838  155.1717 C   0  0  1  0  0  0  0  0  0  0  0  0
  150.8538  137.7388  155.2733 C   0  0  0  0  0  0  0  0  0  0  0  0
  149.3979  138.1201  155.0904 C   0  0  0  0  0  0  0  0  0  0  0  0
  149.5078  139.3523  154.2043 C   0  0  0  0  0  0  0  0  0  0  0  0
  150.6260  140.0368  154.7463 O   0  0  0  0  0  0  0  0  0  0  0  0
  151.0039  141.1797  156.3829 H   0  0  0  0  0  0  0  0  0  0  0  0
  152.6589  139.7119  159.3817 H   0  0  0  0  0  0  0  0  0  0  0  0
  152.8775  143.2685  161.4292 H   0  0  0  0  0  0  0  0  0  0  0  0
  152.3783  139.0102  154.4115 H   0  0  0  0  0  0  0  0  0  0  0  0
  151.1703  137.0833  154.4612 H   0  0  0  0  0  0  0  0  0  0  0  0
  151.0219  137.2007  156.2071 H   0  0  0  0  0  0  0  0  0  0  0  0
  148.7988  137.3251  154.6460 H   0  0  0  0  0  0  0  0  0  0  0  0
  148.9565  138.3889  156.0510 H   0  0  0  0  0  0  0  0  0  0  0  0
  149.7155  139.0730  153.1702 H   0  0  0  0  0  0  0  0  0  0  0  0
  148.6099  139.9701  154.2239 H   0  0  0  0  0  0  0  0  0  0  0  0
  1  2  2  0  0  0  0
  2  3  1  0  0  0  0
  2 12  1  0  0  0  0
  3  4  1  0  0  0  0
  3 17  1  0  0  0  0
  4 10  1  0  0  0  0
  4  5  2  0  0  0  0
  5  6  1  0  0  0  0
  5 18  1  0  0  0  0
  6  7  2  0  0  0  0
  7  8  1  0  0  0  0
  7 19  1  0  0  0  0
  8  9  1  0  0  0  0
  8 10  2  0  0  0  0
 10 11  1  0  0  0  0
 12 16  1  0  0  0  0
 12 13  1  0  0  0  0
 12 20  1  0  0  0  0
 13 14  1  0  0  0  0
 13 21  1  0  0  0  0
 13 22  1  0  0  0  0
 14 15  1  0  0  0  0
 14 23  1  0  0  0  0
 14 24  1  0  0  0  0
 15 16  1  0  0  0  0
 15 25  1  0  0  0  0
 15 26  1  0  0  0  0
M  END
> <s_m_source_file>
AV-unprocessed.smi

> <i_m_source_file_index>
2361

> <i_lp_mmshare_version>
43012

> <i_f3d_flags>
0

> <s_epik_input>
TzFbQ0gyXVtDSDJdW0NIMl1bQ0BIXTFDKD1PKVtOSF1jMltjSF1uW2NIXWMoQ2wpYzJDbA==

> <s_epik_cmdline>
J2VwaWtfcHl0aG9uJywgJy1waCcsICc3LjAnLCAnLXRuJywgJzgnLCAnLW1hJywgJzIwMCcsICctbWV0YWxfYmluZGluZycsICctaW1hZScsICc8aW5maWxlLm1hZT4nLCAnLW9tYWUnLCAnPG91dGZpbGUubWFlPic=

> <r_lp_tautomer_probability>
1

> <r_epik_Ionization_Penalty>
7.18707e-06

> <r_epik_Ionization_Penalty_Charging>
0

> <r_epik_Ionization_Penalty_Neutral>
7.18707e-06

> <r_epik_State_Penalty>
-0

> <r_epik_Charging_Adjusted_Penalty>
0

> <i_epik_Tot_Q>
0

> <i_epik_Tot_abs_Q>
0

> <r_epik_Metal_State_Penalty>
-0

> <b_epik_Metal_Only>
0

> <s_lp_Force_Field>
OPLS_2005

> <r_lp_Energy>
24.5043

> <b_lp_Chiralities_Consistent>
1

> <s_lp_Variant>
AV-unprocessed.smi:2361-2

> <Gold.Version>
5.8.1

> <Gold.Id.Protein>
6NUR|6NUR_protein|mol2

> <Gold.PLP.Fitness>
37.4922

> <Gold.PLP.PLP>
-32.4723

> <Gold.PLP.part.hbond>
-2.0000

> <Gold.PLP.part.metal>
0.0000

> <Gold.PLP.part.buried>
0.1468

> <Gold.PLP.part.nonpolar>
-30.7308

> <Gold.PLP.part.repulsive>
0.1970

> <Gold.PLP.ligand.clash>
0.0000

> <Gold.PLP.ligand.torsion>
0.1935

> <Gold.PLP.Chemscore.Hbond>
1.8000

> <Gold.PLP.Chemscore.CHOScore>
0.0000

> <Gold.PLP.Chemscore.Metal>
0.0000

> <Gold.Chemscore.Hbonds>
donor molecule, donor type, donor heavy atom, donor atom, acceptor molecule, acceptor atom, score
      P1  H  7989  7998       L1    16  0.90
      P1  H  7997  8010       L1     1  0.90

> <Gold.PLP.Chemscore.Internal.Correction>
0.0069

> <Gold.Rescore>
     Score         DG    S(hbond)    S(metal)    S(lipo)     H(rot)  DE(clash)    DE(int)     intcor
     14.48     -17.24       0.85        0.00      98.14       1.00       1.45       1.32       ----

> <Gold.Chemscore.Fitness>
14.4774

> <Gold.Chemscore.DG>
-17.2444

> <Gold.Chemscore.ZeroCoef>
-5.4800

> <Gold.Chemscore.Hbond>
0.8510

> <Gold.Chemscore.Metal>
0.0000

> <Gold.Chemscore.Lipo>
98.1385

> <Gold.Chemscore.Internal_Hbond>
0.0000

> <Gold.Chemscore.DEClash>
1.4486

> <Gold.Chemscore.DEInternal>
1.3184

> <Gold.Chemscore.Rot>
1.0000

> <Gold.Chemscore.Internal.Correction>
   9.000000E+99

> <Gold.Chemscore.Hbonds>
donor molecule, donor type, donor heavy atom, donor atom, acceptor molecule, acceptor atom, score
      P1  H  7989  7998       L1    16  0.15
      P1  H  7997  8010       L1     1  0.18

> <Gold.Chemscore.Hbond.Weighted>
-2.8422

> <Gold.Chemscore.Metal.Weighted>
-0.0000

> <Gold.Chemscore.Lipo.Weighted>
-11.4822

> <Gold.Chemscore.Internal_Hbond.Weighted>
0.0000

> <Gold.Chemscore.DEClash.Weighted>
1.4486

> <Gold.Chemscore.DEInternal.Weighted>
1.3184

> <Gold.Chemscore.Rot.Weighted>
2.5600

> <Gold.Chemscore.Internal.Correction.Weighted>
   9.000000E+99

> <Gold.Protein.RotatedTorsions>
[ 6907 6896 6895 6894 ] final   -9.02 input  -60.11 | X-H torsion
[ 7974 7965 7964 7962 ] final  130.95 input  175.53 | X-H torsion
[ 8008 7997 7996 7995 ] final   55.72 input   59.86 | X-H torsion
[ 10167 10162 10161 10158 ] final  113.55 input  -65.29 | X-H torsion
[ 10718 10713 10712 10709 ] final  -95.68 input   66.30 | X-H torsion
[ 10763 10752 10751 10750 ] final  -38.84 input  -60.55 | X-H torsion
[ 11005 11000 10999 10996 ] final -149.54 input  -57.11 | X-H torsion

> <Gold.Protein.ActiveResidues>
 VAL166  LYS551  ARG553  GLY616  TRP617  ASP618  TYR619  PRO620  LYS621  CYS622 
 ASP623  PHE694  ASN695  SER759  ASP760  ASP761  ALA762  ILE779  LEU786  VAL792 
 PHE793  MET794  SER795  GLU796  ALA797  LYS798  CYS799  TRP800  GLU811  SER814 

> <Gold.Protein.RotatedAtoms>
  151.4244  135.1002  159.9623 H   0  0  0  0  0  0  0  0  0  0  0  0  # atno 6907 bound_to 6896
  152.4977  133.8677  159.7293 H   0  0  0  0  0  0  0  0  0  0  0  0  # atno 6908 bound_to 6896
  150.9200  133.6834  159.2862 H   0  0  0  0  0  0  0  0  0  0  0  0  # atno 6909 bound_to 6896
  145.0124  139.4207  143.5238 H   0  0  0  0  0  0  0  0  0  0  0  0  # atno 7974 bound_to 7965
  155.5057  140.3475  155.4379 H   0  0  0  0  0  0  0  0  0  0  0  0  # atno 8008 bound_to 7997
  156.0884  140.1404  156.9652 H   0  0  0  0  0  0  0  0  0  0  0  0  # atno 8009 bound_to 7997
  154.4620  140.0931  156.6895 H   0  0  0  0  0  0  0  0  0  0  0  0  # atno 8010 bound_to 7997
  139.6453  144.7126  151.2155 H   0  0  0  0  0  0  0  0  0  0  0  0  # atno 10167 bound_to 10162
  156.0048  130.5119  150.6112 H   0  0  0  0  0  0  0  0  0  0  0  0  # atno 10718 bound_to 10713
  153.9195  135.6784  153.4748 H   0  0  0  0  0  0  0  0  0  0  0  0  # atno 10763 bound_to 10752
  153.1036  135.4816  154.8909 H   0  0  0  0  0  0  0  0  0  0  0  0  # atno 10764 bound_to 10752
  154.7485  135.3179  154.8556 H   0  0  0  0  0  0  0  0  0  0  0  0  # atno 10765 bound_to 10752
  140.7496  134.3421  157.5129 H   0  0  0  0  0  0  0  0  0  0  0  0  # atno 11005 bound_to 11000
  146.3472  139.9576  142.8721 LP  0  0  0  0  0  0  0  0  0  0  0  0  # atno 17320 bound_to 7965
  145.2005  140.9852  143.4158 LP  0  0  0  0  0  0  0  0  0  0  0  0  # atno 17321 bound_to 7965
  140.7511  143.6242  150.8484 LP  0  0  0  0  0  0  0  0  0  0  0  0  # atno 17342 bound_to 10162
  139.9884  143.5874  152.2919 LP  0  0  0  0  0  0  0  0  0  0  0  0  # atno 17343 bound_to 10162
  157.3944  131.0800  151.1365 LP  0  0  0  0  0  0  0  0  0  0  0  0  # atno 17370 bound_to 10713
  157.2046  130.6410  149.5751 LP  0  0  0  0  0  0  0  0  0  0  0  0  # atno 17371 bound_to 10713
  139.8790  134.9134  156.3082 LP  0  0  0  0  0  0  0  0  0  0  0  0  # atno 17394 bound_to 11000
  140.9762  133.7296  156.0606 LP  0  0  0  0  0  0  0  0  0  0  0  0  # atno 17395 bound_to 11000

$$$$
