AV-unprocessed.smi:1443|AV-procd|sdf|5877|dock5
  -GOLD-   22720 5553D 1   1.00000     0.00000
 Structure written by MMmdl.
 27 28  0  0  0  0  0  0  0  0  1 V2000
  152.6991  129.9460  154.6317 C   0  0  0  0  0  0  0  0  0  0  0  0
  152.2574  131.1883  155.8779 S   0  0  0  0  0  0  0  0  0  0  0  0
  150.9099  132.0998  155.1965 C   0  0  0  0  0  0  0  0  0  0  0  0
  150.4700  133.2230  155.7924 N   0  0  0  0  0  0  0  0  0  0  0  0
  149.1787  133.8400  154.8917 S   0  0  0  0  0  0  0  0  0  0  0  0
  149.3097  132.5334  153.7515 C   0  0  0  0  0  0  0  0  0  0  0  0
  148.4445  132.4087  152.6256 N   0  0  0  0  0  0  0  0  0  0  0  0
  147.3373  133.0986  152.2754 C   0  0  0  0  0  0  0  0  0  0  0  0
  146.9135  134.0160  152.9765 O   0  0  0  0  0  0  0  0  0  0  0  0
  146.7455  132.7218  151.1309 N   0  0  0  0  0  0  0  0  0  0  0  0
  145.5734  133.2984  150.5608 C   0  0  2  0  0  0  0  0  0  0  0  0
  144.3220  133.2752  151.4110 C   0  0  0  0  0  0  0  0  0  0  0  0
  144.4270  132.3701  150.2133 C   0  0  1  0  0  0  0  0  0  0  0  0
  143.5620  132.6220  148.9975 C   0  0  0  0  0  0  0  0  0  0  0  0
  150.2938  131.6937  154.0727 N   0  0  0  0  0  0  0  0  0  0  0  0
  153.5259  129.3324  154.9894 H   0  0  0  0  0  0  0  0  0  0  0  0
  153.0031  130.4288  153.7027 H   0  0  0  0  0  0  0  0  0  0  0  0
  151.8500  129.2946  154.4236 H   0  0  0  0  0  0  0  0  0  0  0  0
  148.7094  131.6842  151.9741 H   0  0  0  0  0  0  0  0  0  0  0  0
  147.1662  131.9580  150.6210 H   0  0  0  0  0  0  0  0  0  0  0  0
  145.7029  134.1736  149.9254 H   0  0  0  0  0  0  0  0  0  0  0  0
  144.3812  132.8113  152.3942 H   0  0  0  0  0  0  0  0  0  0  0  0
  143.6565  134.1337  151.3432 H   0  0  0  0  0  0  0  0  0  0  0  0
  144.5803  131.3137  150.4276 H   0  0  0  0  0  0  0  0  0  0  0  0
  143.4351  133.6914  148.8262 H   0  0  0  0  0  0  0  0  0  0  0  0
  142.5791  132.1725  149.1381 H   0  0  0  0  0  0  0  0  0  0  0  0
  144.0235  132.1810  148.1138 H   0  0  0  0  0  0  0  0  0  0  0  0
  1  2  1  0  0  0  0
  1 16  1  0  0  0  0
  1 17  1  0  0  0  0
  1 18  1  0  0  0  0
  2  3  1  0  0  0  0
  3 15  1  0  0  0  0
  3  4  2  0  0  0  0
  4  5  1  0  0  0  0
  5  6  1  0  0  0  0
  6  7  1  0  0  0  0
  6 15  2  0  0  0  0
  7  8  1  0  0  0  0
  7 19  1  0  0  0  0
  8  9  2  0  0  0  0
  8 10  1  0  0  0  0
 10 11  1  0  0  0  0
 10 20  1  0  0  0  0
 11 13  1  0  0  0  0
 11 12  1  0  0  0  0
 11 21  1  0  0  0  0
 12 13  1  0  0  0  0
 12 22  1  0  0  0  0
 12 23  1  0  0  0  0
 13 14  1  0  0  0  0
 13 24  1  0  0  0  0
 14 25  1  0  0  0  0
 14 26  1  0  0  0  0
 14 27  1  0  0  0  0
M  END
> <s_m_source_file>
AV-unprocessed.smi

> <i_m_source_file_index>
1443

> <i_lp_mmshare_version>
43012

> <i_f3d_flags>
0

> <s_epik_input>
W0NIM11TYzFuc2MobjEpW05IXUMoPU8pW05IXVtDQEBIXTJbQ0gyXVtDQEhdMltDSDNd

> <s_epik_cmdline>
J2VwaWtfcHl0aG9uJywgJy1waCcsICc3LjAnLCAnLXRuJywgJzgnLCAnLW1hJywgJzIwMCcsICctbWV0YWxfYmluZGluZycsICctaW1hZScsICc8aW5maWxlLm1hZT4nLCAnLW9tYWUnLCAnPG91dGZpbGUubWFlPic=

> <r_lp_tautomer_probability>
1

> <r_epik_Ionization_Penalty>
2.74658e-05

> <r_epik_Ionization_Penalty_Charging>
0

> <r_epik_Ionization_Penalty_Neutral>
2.74658e-05

> <r_epik_State_Penalty>
-0

> <r_epik_Charging_Adjusted_Penalty>
0

> <i_epik_Tot_Q>
0

> <i_epik_Tot_abs_Q>
0

> <r_epik_Metal_State_Penalty>
-0

> <b_epik_Metal_Only>
0

> <s_lp_Force_Field>
OPLS_2005

> <r_lp_Energy>
20.7527

> <b_lp_Chiralities_Consistent>
1

> <s_lp_Variant>
AV-unprocessed.smi:1443-1

> <Gold.Version>
5.8.1

> <Gold.Id.Protein>
6NUR|6NUR_protein|mol2

> <Gold.PLP.Fitness>
34.2996

> <Gold.PLP.PLP>
-28.7803

> <Gold.PLP.part.hbond>
-2.0000

> <Gold.PLP.part.metal>
0.0000

> <Gold.PLP.part.buried>
-3.5838

> <Gold.PLP.part.nonpolar>
-23.4170

> <Gold.PLP.part.repulsive>
0.2122

> <Gold.PLP.ligand.clash>
0.0000

> <Gold.PLP.ligand.torsion>
0.1250

> <Gold.PLP.Chemscore.Hbond>
1.9120

> <Gold.PLP.Chemscore.CHOScore>
0.0000

> <Gold.PLP.Chemscore.Metal>
0.0000

> <Gold.Chemscore.Hbonds>
donor molecule, donor type, donor heavy atom, donor atom, acceptor molecule, acceptor atom, score
      L1  H     7    19       P1 10747  1.00
      L1  H    10    20       P1 10747  0.65

> <Gold.PLP.Chemscore.Internal.Correction>
0.0332

> <Gold.Rescore>
     Score         DG    S(hbond)    S(metal)    S(lipo)     H(rot)  DE(clash)    DE(int)     intcor
     12.12     -14.50       1.84        0.00      52.49       1.27       0.08       2.31       ----

> <Gold.Chemscore.Fitness>
12.1189

> <Gold.Chemscore.DG>
-14.5036

> <Gold.Chemscore.ZeroCoef>
-5.4800

> <Gold.Chemscore.Hbond>
1.8362

> <Gold.Chemscore.Metal>
0.0000

> <Gold.Chemscore.Lipo>
52.4919

> <Gold.Chemscore.Internal_Hbond>
0.0000

> <Gold.Chemscore.DEClash>
0.0782

> <Gold.Chemscore.DEInternal>
2.3065

> <Gold.Chemscore.Rot>
1.2699

> <Gold.Chemscore.Internal.Correction>
   9.000000E+99

> <Gold.Chemscore.Hbonds>
donor molecule, donor type, donor heavy atom, donor atom, acceptor molecule, acceptor atom, score
      L1  H     7    19       P1 10747  0.96
      L1  H    10    20       P1 10747  0.62

> <Gold.Chemscore.Hbond.Weighted>
-6.1330

> <Gold.Chemscore.Metal.Weighted>
-0.0000

> <Gold.Chemscore.Lipo.Weighted>
-6.1415

> <Gold.Chemscore.Internal_Hbond.Weighted>
0.0000

> <Gold.Chemscore.DEClash.Weighted>
0.0782

> <Gold.Chemscore.DEInternal.Weighted>
2.3065

> <Gold.Chemscore.Rot.Weighted>
3.2509

> <Gold.Chemscore.Internal.Correction.Weighted>
   9.000000E+99

> <Gold.Protein.RotatedTorsions>
[ 6907 6896 6895 6894 ] final  -14.02 input  -60.11 | X-H torsion
[ 7974 7965 7964 7962 ] final -115.00 input  175.53 | X-H torsion
[ 8008 7997 7996 7995 ] final  149.40 input   59.86 | X-H torsion
[ 10167 10162 10161 10158 ] final   -4.82 input  -65.29 | X-H torsion
[ 10718 10713 10712 10709 ] final -171.33 input   66.30 | X-H torsion
[ 10763 10752 10751 10750 ] final  -99.43 input  -60.55 | X-H torsion
[ 11005 11000 10999 10996 ] final -102.30 input  -57.11 | X-H torsion

> <Gold.Protein.ActiveResidues>
 VAL166  LYS551  ARG553  GLY616  TRP617  ASP618  TYR619  PRO620  LYS621  CYS622 
 ASP623  PHE694  ASN695  SER759  ASP760  ASP761  ALA762  ILE779  LEU786  VAL792 
 PHE793  MET794  SER795  GLU796  ALA797  LYS798  CYS799  TRP800  GLU811  SER814 

> <Gold.Protein.RotatedAtoms>
  151.3459  135.0874  159.9386 H   0  0  0  0  0  0  0  0  0  0  0  0  # atno 6907 bound_to 6896
  152.5199  133.9401  159.7632 H   0  0  0  0  0  0  0  0  0  0  0  0  # atno 6908 bound_to 6896
  150.9766  133.6234  159.2759 H   0  0  0  0  0  0  0  0  0  0  0  0  # atno 6909 bound_to 6896
  145.1135  140.8626  143.3855 H   0  0  0  0  0  0  0  0  0  0  0  0  # atno 7974 bound_to 7965
  156.2756  140.2103  156.5852 H   0  0  0  0  0  0  0  0  0  0  0  0  # atno 8008 bound_to 7997
  154.7027  140.0519  157.0497 H   0  0  0  0  0  0  0  0  0  0  0  0  # atno 8009 bound_to 7997
  155.0713  140.3177  155.4632 H   0  0  0  0  0  0  0  0  0  0  0  0  # atno 8010 bound_to 7997
  140.6941  143.6379  150.8462 H   0  0  0  0  0  0  0  0  0  0  0  0  # atno 10167 bound_to 10162
  156.7392  130.9336  151.3109 H   0  0  0  0  0  0  0  0  0  0  0  0  # atno 10718 bound_to 10713
  154.7497  135.4972  153.9267 H   0  0  0  0  0  0  0  0  0  0  0  0  # atno 10763 bound_to 10752
  153.1130  135.6714  153.9475 H   0  0  0  0  0  0  0  0  0  0  0  0  # atno 10764 bound_to 10752
  153.9229  135.3086  155.3426 H   0  0  0  0  0  0  0  0  0  0  0  0  # atno 10765 bound_to 10752
  141.1195  133.8547  157.1342 H   0  0  0  0  0  0  0  0  0  0  0  0  # atno 11005 bound_to 11000
  145.0820  139.2953  143.5779 LP  0  0  0  0  0  0  0  0  0  0  0  0  # atno 17320 bound_to 7965
  146.3525  140.0329  142.8649 LP  0  0  0  0  0  0  0  0  0  0  0  0  # atno 17321 bound_to 7965
  140.0095  143.5658  152.2844 LP  0  0  0  0  0  0  0  0  0  0  0  0  # atno 17342 bound_to 10162
  139.6376  144.7651  151.2405 LP  0  0  0  0  0  0  0  0  0  0  0  0  # atno 17343 bound_to 10162
  157.6826  130.9154  150.0304 LP  0  0  0  0  0  0  0  0  0  0  0  0  # atno 17370 bound_to 10713
  156.1476  130.3642  149.9487 LP  0  0  0  0  0  0  0  0  0  0  0  0  # atno 17371 bound_to 10713
  140.0141  134.9975  157.0457 LP  0  0  0  0  0  0  0  0  0  0  0  0  # atno 17394 bound_to 11000
  140.4549  134.1543  155.7185 LP  0  0  0  0  0  0  0  0  0  0  0  0  # atno 17395 bound_to 11000

$$$$
