AV-unprocessed.smi:1734|AV-procd|sdf|6984|dock3
  -GOLD-   22720 8193D 1   1.00000     0.00000
 Structure written by MMmdl.
 51 53  0  0  0  0  0  0  0  0  2 V2000
  147.8632  133.2134  152.4328 C   0  0  0  0  0  0  0  0  0  0  0  0
  146.4376  133.2316  151.9051 C   0  0  0  0  0  0  0  0  0  0  0  0
  145.8095  132.0126  151.5720 C   0  0  0  0  0  0  0  0  0  0  0  0
  144.4904  132.0304  151.0876 C   0  0  0  0  0  0  0  0  0  0  0  0
  143.8509  133.2749  150.9558 C   0  0  0  0  0  0  0  0  0  0  0  0
  144.4434  134.4444  151.2719 N   0  0  0  0  0  0  0  0  0  0  0  0
  145.7162  134.4447  151.7419 C   0  0  0  0  0  0  0  0  0  0  0  0
  146.4056  135.6409  152.0896 N   0  0  0  0  0  0  0  0  0  0  0  0
  145.8964  136.7885  152.5719 C   0  0  0  0  0  0  0  0  0  0  0  0
  144.7114  136.9900  152.8375 O   0  0  0  0  0  0  0  0  0  0  0  0
  146.8536  137.7095  152.7444 N   0  0  0  0  0  0  0  0  0  0  0  0
  146.6184  139.0520  153.2675 C   0  0  0  0  0  0  0  0  0  0  0  0
  147.1903  139.2670  154.6941 C   0  0  2  0  0  0  0  0  0  0  0  0
  146.3813  140.2793  155.5442 C   0  0  2  0  0  0  0  0  0  0  0  0
  146.1479  141.6183  154.8674 C   0  0  0  0  0  0  0  0  0  0  0  0
  145.7929  142.5173  156.0473 C   0  0  0  0  0  0  0  0  0  0  0  0
  146.5066  141.9929  157.1621 O   0  0  0  0  0  0  0  0  0  0  0  0
  147.0857  140.7370  156.8246 C   0  0  0  0  0  0  0  0  0  0  0  0
  148.6517  139.5805  154.7229 N   0  3  0  0  0  0  0  0  0  0  0  0
  149.4970  138.6091  153.9858 C   0  0  0  0  0  0  0  0  0  0  0  0
  150.9849  138.8954  154.2524 C   0  0  0  0  0  0  0  0  0  0  0  0
  151.2885  140.2373  153.8897 O   0  0  0  0  0  0  0  0  0  0  0  0
  150.5374  141.1807  154.6448 C   0  0  0  0  0  0  0  0  0  0  0  0
  149.0372  140.9726  154.3802 C   0  0  0  0  0  0  0  0  0  0  0  0
  148.2611  132.1987  152.4660 H   0  0  0  0  0  0  0  0  0  0  0  0
  147.8998  133.6214  153.4435 H   0  0  0  0  0  0  0  0  0  0  0  0
  148.5163  133.8082  151.7937 H   0  0  0  0  0  0  0  0  0  0  0  0
  146.3294  131.0726  151.6859 H   0  0  0  0  0  0  0  0  0  0  0  0
  143.9823  131.1147  150.8240 H   0  0  0  0  0  0  0  0  0  0  0  0
  142.8377  133.3339  150.5865 H   0  0  0  0  0  0  0  0  0  0  0  0
  147.4043  135.6171  151.9490 H   0  0  0  0  0  0  0  0  0  0  0  0
  147.8025  137.4675  152.4998 H   0  0  0  0  0  0  0  0  0  0  0  0
  147.0951  139.7646  152.5921 H   0  0  0  0  0  0  0  0  0  0  0  0
  145.5522  139.2757  153.2303 H   0  0  0  0  0  0  0  0  0  0  0  0
  147.0889  138.3067  155.2025 H   0  0  0  0  0  0  0  0  0  0  0  0
  145.4126  139.8619  155.8213 H   0  0  0  0  0  0  0  0  0  0  0  0
  147.0640  141.9731  154.3927 H   0  0  0  0  0  0  0  0  0  0  0  0
  145.3623  141.5882  154.1119 H   0  0  0  0  0  0  0  0  0  0  0  0
  146.0464  143.5620  155.8661 H   0  0  0  0  0  0  0  0  0  0  0  0
  144.7252  142.4597  156.2620 H   0  0  0  0  0  0  0  0  0  0  0  0
  146.9779  140.0218  157.6405 H   0  0  0  0  0  0  0  0  0  0  0  0
  148.1516  140.8883  156.6486 H   0  0  0  0  0  0  0  0  0  0  0  0
  149.2624  137.5913  154.2992 H   0  0  0  0  0  0  0  0  0  0  0  0
  149.2962  138.6709  152.9158 H   0  0  0  0  0  0  0  0  0  0  0  0
  151.2321  138.7261  155.3017 H   0  0  0  0  0  0  0  0  0  0  0  0
  151.6087  138.2209  153.6658 H   0  0  0  0  0  0  0  0  0  0  0  0
  150.7648  141.0796  155.7073 H   0  0  0  0  0  0  0  0  0  0  0  0
  150.8351  142.1868  154.3492 H   0  0  0  0  0  0  0  0  0  0  0  0
  148.8295  141.1726  153.3284 H   0  0  0  0  0  0  0  0  0  0  0  0
  148.4617  141.6870  154.9682 H   0  0  0  0  0  0  0  0  0  0  0  0
  148.9136  139.4618  155.6912 H   0  0  0  0  0  0  0  0  0  0  0  0
  1  2  1  0  0  0  0
  1 25  1  0  0  0  0
  1 26  1  0  0  0  0
  1 27  1  0  0  0  0
  2  7  1  0  0  0  0
  2  3  2  0  0  0  0
  3  4  1  0  0  0  0
  3 28  1  0  0  0  0
  4  5  2  0  0  0  0
  4 29  1  0  0  0  0
  5  6  1  0  0  0  0
  5 30  1  0  0  0  0
  6  7  2  0  0  0  0
  7  8  1  0  0  0  0
  8  9  1  0  0  0  0
  8 31  1  0  0  0  0
  9 10  2  0  0  0  0
  9 11  1  0  0  0  0
 11 12  1  0  0  0  0
 11 32  1  0  0  0  0
 12 13  1  0  0  0  0
 12 33  1  0  0  0  0
 12 34  1  0  0  0  0
 13 14  1  0  0  0  0
 13 19  1  0  0  0  0
 13 35  1  0  0  0  0
 14 18  1  0  0  0  0
 14 15  1  0  0  0  0
 14 36  1  0  0  0  0
 15 16  1  0  0  0  0
 15 37  1  0  0  0  0
 15 38  1  0  0  0  0
 16 17  1  0  0  0  0
 16 39  1  0  0  0  0
 16 40  1  0  0  0  0
 17 18  1  0  0  0  0
 18 41  1  0  0  0  0
 18 42  1  0  0  0  0
 19 24  1  0  0  0  0
 19 20  1  0  0  0  0
 19 51  1  0  0  0  0
 20 21  1  0  0  0  0
 20 43  1  0  0  0  0
 20 44  1  0  0  0  0
 21 22  1  0  0  0  0
 21 45  1  0  0  0  0
 21 46  1  0  0  0  0
 22 23  1  0  0  0  0
 23 24  1  0  0  0  0
 23 47  1  0  0  0  0
 23 48  1  0  0  0  0
 24 49  1  0  0  0  0
 24 50  1  0  0  0  0
M  CHG  1  19   1
M  END
> <s_m_source_file>
AV-unprocessed.smi

> <i_m_source_file_index>
1734

> <i_lp_mmshare_version>
43012

> <i_f3d_flags>
0

> <s_epik_input>
W0NIM11jMVtjSF1bY0hdW2NIXW5jMVtOSF1DKD1PKVtOSF1bQ0gyXVtDQEhdKFtDQEBIXTJbQ0gyXVtDSDJdT1tDSDJdMilOM1tDSDJdW0NIMl1PW0NIMl1bQ0gyXTM=

> <s_epik_cmdline>
J2VwaWtfcHl0aG9uJywgJy1waCcsICc3LjAnLCAnLXRuJywgJzgnLCAnLW1hJywgJzIwMCcsICctbWV0YWxfYmluZGluZycsICctaW1hZScsICc8aW5maWxlLm1hZT4nLCAnLW9tYWUnLCAnPG91dGZpbGUubWFlPic=

> <r_epik_Ionization_Penalty>
0.983302

> <r_epik_Ionization_Penalty_Charging>
0.98326

> <r_epik_Ionization_Penalty_Neutral>
4.21967e-05

> <r_epik_State_Penalty>
1.0303

> <r_epik_Charging_Adjusted_Penalty>
2.01356

> <i_epik_Tot_Q>
1

> <i_epik_Tot_abs_Q>
1

> <r_epik_Metal_State_Penalty>
1.03031

> <b_epik_Metal_Only>
0

> <s_lp_Force_Field>
OPLS_2005

> <r_lp_Energy>
50.4673

> <b_lp_Chiralities_Consistent>
1

> <s_lp_Variant>
AV-unprocessed.smi:1734-5

> <Gold.Version>
5.8.1

> <Gold.Id.Protein>
6NUR|6NUR_protein|mol2

> <Gold.PLP.Fitness>
45.4597

> <Gold.PLP.PLP>
-35.4174

> <Gold.PLP.part.hbond>
-2.8779

> <Gold.PLP.part.metal>
0.0000

> <Gold.PLP.part.buried>
-5.9267

> <Gold.PLP.part.nonpolar>
-28.5371

> <Gold.PLP.part.repulsive>
1.2578

> <Gold.PLP.ligand.clash>
0.0000

> <Gold.PLP.ligand.torsion>
0.9173

> <Gold.PLP.Chemscore.Hbond>
2.8640

> <Gold.PLP.Chemscore.CHOScore>
1.0000

> <Gold.PLP.Chemscore.Metal>
0.0000

> <Gold.Chemscore.Hbonds>
donor molecule, donor type, donor heavy atom, donor atom, acceptor molecule, acceptor atom, score
      L1  H     8    31       P1  7948  1.00
      L1  H    11    32       P1  7948  0.98
      L1  C     5    30       P1 10186  1.00

> <Gold.PLP.Chemscore.Internal.Correction>
0.2850

> <Gold.Rescore>
     Score         DG    S(hbond)    S(metal)    S(lipo)     H(rot)  DE(clash)    DE(int)     intcor
     16.39     -19.71       2.86        0.00      77.18       1.70       0.03       3.29       ----

> <Gold.Chemscore.Fitness>
16.3926

> <Gold.Chemscore.DG>
-19.7107

> <Gold.Chemscore.ZeroCoef>
-5.4800

> <Gold.Chemscore.Hbond>
2.8590

> <Gold.Chemscore.Metal>
0.0000

> <Gold.Chemscore.Lipo>
77.1821

> <Gold.Chemscore.Internal_Hbond>
0.0000

> <Gold.Chemscore.DEClash>
0.0294

> <Gold.Chemscore.DEInternal>
3.2888

> <Gold.Chemscore.Rot>
1.6986

> <Gold.Chemscore.Internal.Correction>
   9.000000E+99

> <Gold.Chemscore.Hbonds>
donor molecule, donor type, donor heavy atom, donor atom, acceptor molecule, acceptor atom, score
      L1  H     8    31       P1  7948  0.99
      L1  H    11    32       P1  7948  0.93

> <Gold.Chemscore.Hbond.Weighted>
-9.5489

> <Gold.Chemscore.Metal.Weighted>
-0.0000

> <Gold.Chemscore.Lipo.Weighted>
-9.0303

> <Gold.Chemscore.Internal_Hbond.Weighted>
0.0000

> <Gold.Chemscore.DEClash.Weighted>
0.0294

> <Gold.Chemscore.DEInternal.Weighted>
3.2888

> <Gold.Chemscore.Rot.Weighted>
4.3485

> <Gold.Chemscore.Internal.Correction.Weighted>
   9.000000E+99

> <Gold.Protein.RotatedTorsions>
[ 6907 6896 6895 6894 ] final  -24.07 input  -60.11 | X-H torsion
[ 7974 7965 7964 7962 ] final   -9.83 input  175.53 | X-H torsion
[ 8008 7997 7996 7995 ] final  123.32 input   59.86 | X-H torsion
[ 10167 10162 10161 10158 ] final  -28.67 input  -65.29 | X-H torsion
[ 10718 10713 10712 10709 ] final -158.38 input   66.30 | X-H torsion
[ 10763 10752 10751 10750 ] final  -21.46 input  -60.55 | X-H torsion
[ 11005 11000 10999 10996 ] final  -41.07 input  -57.11 | X-H torsion

> <Gold.Protein.ActiveResidues>
 VAL166  LYS551  ARG553  GLY616  TRP617  ASP618  TYR619  PRO620  LYS621  CYS622 
 ASP623  PHE694  ASN695  SER759  ASP760  ASP761  ALA762  ILE779  LEU786  VAL792 
 PHE793  MET794  SER795  GLU796  ALA797  LYS798  CYS799  TRP800  GLU811  SER814 

> <Gold.Protein.RotatedAtoms>
  151.1948  135.0418  159.8847 H   0  0  0  0  0  0  0  0  0  0  0  0  # atno 6907 bound_to 6896
  152.5437  134.0916  159.8289 H   0  0  0  0  0  0  0  0  0  0  0  0  # atno 6908 bound_to 6896
  151.1049  133.5168  159.2640 H   0  0  0  0  0  0  0  0  0  0  0  0  # atno 6909 bound_to 6896
  146.2240  140.2674  142.8355 H   0  0  0  0  0  0  0  0  0  0  0  0  # atno 7974 bound_to 7965
  156.2761  140.2765  156.1609 H   0  0  0  0  0  0  0  0  0  0  0  0  # atno 8008 bound_to 7997
  155.0755  140.0387  157.2640 H   0  0  0  0  0  0  0  0  0  0  0  0  # atno 8009 bound_to 7997
  154.7006  140.2648  155.6729 H   0  0  0  0  0  0  0  0  0  0  0  0  # atno 8010 bound_to 7997
  140.7268  143.3991  151.1296 H   0  0  0  0  0  0  0  0  0  0  0  0  # atno 10167 bound_to 10162
  156.5534  130.8615  151.2787 H   0  0  0  0  0  0  0  0  0  0  0  0  # atno 10718 bound_to 10713
  153.6364  135.6987  153.5257 H   0  0  0  0  0  0  0  0  0  0  0  0  # atno 10763 bound_to 10752
  153.2818  135.4183  155.1085 H   0  0  0  0  0  0  0  0  0  0  0  0  # atno 10764 bound_to 10752
  154.8510  135.3603  154.5908 H   0  0  0  0  0  0  0  0  0  0  0  0  # atno 10765 bound_to 10752
  141.0220  133.6858  156.2408 H   0  0  0  0  0  0  0  0  0  0  0  0  # atno 11005 bound_to 11000
  144.9294  140.7957  143.5699 LP  0  0  0  0  0  0  0  0  0  0  0  0  # atno 17320 bound_to 7965
  145.2616  139.1990  143.4889 LP  0  0  0  0  0  0  0  0  0  0  0  0  # atno 17321 bound_to 7965
  139.7608  143.8638  152.3099 LP  0  0  0  0  0  0  0  0  0  0  0  0  # atno 17342 bound_to 10162
  139.8523  144.7158  150.9198 LP  0  0  0  0  0  0  0  0  0  0  0  0  # atno 17343 bound_to 10162
  157.7383  130.9811  150.2244 LP  0  0  0  0  0  0  0  0  0  0  0  0  # atno 17370 bound_to 10713
  156.2864  130.3740  149.7884 LP  0  0  0  0  0  0  0  0  0  0  0  0  # atno 17371 bound_to 10713
  140.6556  134.5021  157.5580 LP  0  0  0  0  0  0  0  0  0  0  0  0  # atno 17394 bound_to 11000
  139.9152  134.8261  156.1391 LP  0  0  0  0  0  0  0  0  0  0  0  0  # atno 17395 bound_to 11000

$$$$
