AV-unprocessed.smi:1703|AV-procd|sdf|6857|dock5
  -GOLD-   22720 8 43D 1   1.00000     0.00000
 Structure written by MMmdl.
 48 50  0  0  0  0  0  0  0  0  1 V2000
  146.5000  138.4416  152.1133 C   0  0  0  0  0  0  0  0  0  0  0  0
  147.0982  139.1537  153.3310 C   0  0  1  0  0  0  0  0  0  0  0  0
  148.5403  138.6989  153.6183 C   0  0  0  0  0  0  0  0  0  0  0  0
  149.1318  139.4356  154.7276 N   0  0  0  0  0  0  0  0  0  0  0  0
  150.4830  138.9579  155.0190 C   0  0  0  0  0  0  0  0  0  0  0  0
  151.2683  139.8062  156.0422 C   0  0  2  0  0  0  0  0  0  0  0  0
  152.6524  139.6930  155.7711 O   0  0  0  0  0  0  0  0  0  0  0  0
  151.0033  139.3505  157.4919 C   0  0  0  0  0  0  0  0  0  0  0  0
  151.7839  140.0953  158.4718 N   0  0  0  0  0  0  0  0  0  0  0  0
  152.6798  139.6096  159.3681 C   0  0  0  0  0  0  0  0  0  0  0  0
  152.9902  138.1411  159.4465 C   0  0  0  0  0  0  0  0  0  0  0  0
  151.8710  137.3314  159.7462 O   0  0  0  0  0  0  0  0  0  0  0  0
  153.2614  140.5203  160.1525 N   0  0  0  0  0  0  0  0  0  0  0  0
  152.6912  141.7030  159.7249 C   0  0  0  0  0  0  0  0  0  0  0  0
  152.8944  143.0311  160.1631 C   0  0  0  0  0  0  0  0  0  0  0  0
  152.1881  144.0957  159.5658 C   0  0  0  0  0  0  0  0  0  0  0  0
  151.2717  143.8481  158.5233 C   0  0  0  0  0  0  0  0  0  0  0  0
  151.0551  142.5321  158.0713 C   0  0  0  0  0  0  0  0  0  0  0  0
  151.7619  141.4726  158.6716 C   0  0  0  0  0  0  0  0  0  0  0  0
  149.0956  140.8644  154.4235 C   0  0  0  0  0  0  0  0  0  0  0  0
  147.6761  141.3671  154.0930 C   0  0  2  0  0  0  0  0  0  0  0  0
  146.7679  141.4795  155.3296 C   0  0  0  0  0  0  0  0  0  0  0  0
  147.0871  140.5567  153.0744 O   0  0  0  0  0  0  0  0  0  0  0  0
  146.4679  137.3627  152.2668 H   0  0  0  0  0  0  0  0  0  0  0  0
  147.0861  138.6350  151.2142 H   0  0  0  0  0  0  0  0  0  0  0  0
  145.4809  138.7805  151.9263 H   0  0  0  0  0  0  0  0  0  0  0  0
  146.4697  138.9387  154.1958 H   0  0  0  0  0  0  0  0  0  0  0  0
  148.5395  137.6318  153.8438 H   0  0  0  0  0  0  0  0  0  0  0  0
  149.1501  138.8277  152.7224 H   0  0  0  0  0  0  0  0  0  0  0  0
  150.3907  137.9520  155.4310 H   0  0  0  0  0  0  0  0  0  0  0  0
  151.0552  138.8380  154.0973 H   0  0  0  0  0  0  0  0  0  0  0  0
  150.9843  140.8544  155.9443 H   0  0  0  0  0  0  0  0  0  0  0  0
  152.9256  138.8093  155.9635 H   0  0  0  0  0  0  0  0  0  0  0  0
  149.9462  139.4597  157.7351 H   0  0  0  0  0  0  0  0  0  0  0  0
  151.2272  138.2886  157.6021 H   0  0  0  0  0  0  0  0  0  0  0  0
  153.4063  137.8063  158.4969 H   0  0  0  0  0  0  0  0  0  0  0  0
  153.7498  137.9794  160.2119 H   0  0  0  0  0  0  0  0  0  0  0  0
  151.1770  137.8854  160.0688 H   0  0  0  0  0  0  0  0  0  0  0  0
  153.5945  143.2308  160.9609 H   0  0  0  0  0  0  0  0  0  0  0  0
  152.3505  145.1070  159.9091 H   0  0  0  0  0  0  0  0  0  0  0  0
  150.7345  144.6689  158.0710 H   0  0  0  0  0  0  0  0  0  0  0  0
  150.3526  142.3403  157.2744 H   0  0  0  0  0  0  0  0  0  0  0  0
  149.4888  141.4421  155.2598 H   0  0  0  0  0  0  0  0  0  0  0  0
  149.7493  141.0693  153.5743 H   0  0  0  0  0  0  0  0  0  0  0  0
  147.7658  142.3693  153.6732 H   0  0  0  0  0  0  0  0  0  0  0  0
  147.1782  142.1898  156.0475 H   0  0  0  0  0  0  0  0  0  0  0  0
  146.6558  140.5258  155.8448 H   0  0  0  0  0  0  0  0  0  0  0  0
  145.7733  141.8285  155.0516 H   0  0  0  0  0  0  0  0  0  0  0  0
  1  2  1  0  0  0  0
  1 24  1  0  0  0  0
  1 25  1  0  0  0  0
  1 26  1  0  0  0  0
  2 23  1  0  0  0  0
  2  3  1  0  0  0  0
  2 27  1  0  0  0  0
  3  4  1  0  0  0  0
  3 28  1  0  0  0  0
  3 29  1  0  0  0  0
  4  5  1  0  0  0  0
  4 20  1  0  0  0  0
  5  6  1  0  0  0  0
  5 30  1  0  0  0  0
  5 31  1  0  0  0  0
  6  7  1  0  0  0  0
  6  8  1  0  0  0  0
  6 32  1  0  0  0  0
  7 33  1  0  0  0  0
  8  9  1  0  0  0  0
  8 34  1  0  0  0  0
  8 35  1  0  0  0  0
  9 19  1  0  0  0  0
  9 10  1  0  0  0  0
 10 11  1  0  0  0  0
 10 13  2  0  0  0  0
 11 12  1  0  0  0  0
 11 36  1  0  0  0  0
 11 37  1  0  0  0  0
 12 38  1  0  0  0  0
 13 14  1  0  0  0  0
 14 19  2  0  0  0  0
 14 15  1  0  0  0  0
 15 16  2  0  0  0  0
 15 39  1  0  0  0  0
 16 17  1  0  0  0  0
 16 40  1  0  0  0  0
 17 18  2  0  0  0  0
 17 41  1  0  0  0  0
 18 19  1  0  0  0  0
 18 42  1  0  0  0  0
 20 21  1  0  0  0  0
 20 43  1  0  0  0  0
 20 44  1  0  0  0  0
 21 22  1  0  0  0  0
 21 23  1  0  0  0  0
 21 45  1  0  0  0  0
 22 46  1  0  0  0  0
 22 47  1  0  0  0  0
 22 48  1  0  0  0  0
M  END
> <s_m_source_file>
AV-unprocessed.smi

> <i_m_source_file_index>
1703

> <i_lp_mmshare_version>
43012

> <i_f3d_flags>
0

> <s_epik_input>
W0NIM11bQ0BASF0xW0NIMl1OKFtDSDJdW0NASF0oTzEpW0NIM10pW0NIMl1bQ0BIXShbT0hdKVtDSDJdbihjKG4yKVtDSDJdW09IXSljKGMyMylbY0hdW2NIXVtjSF1bY0hdMw==

> <s_epik_cmdline>
J2VwaWtfcHl0aG9uJywgJy1waCcsICc3LjAnLCAnLXRuJywgJzgnLCAnLW1hJywgJzIwMCcsICctbWV0YWxfYmluZGluZycsICctaW1hZScsICc8aW5maWxlLm1hZT4nLCAnLW9tYWUnLCAnPG91dGZpbGUubWFlPic=

> <r_epik_Ionization_Penalty>
0.307685

> <r_epik_Ionization_Penalty_Charging>
0

> <r_epik_Ionization_Penalty_Neutral>
0.307685

> <r_epik_State_Penalty>
0.277856

> <r_epik_Charging_Adjusted_Penalty>
0.277856

> <i_epik_Tot_Q>
0

> <i_epik_Tot_abs_Q>
0

> <r_epik_Metal_State_Penalty>
0.238959

> <b_epik_Metal_Only>
0

> <s_lp_Force_Field>
OPLS_2005

> <r_lp_Energy>
32.6891

> <b_lp_Chiralities_Consistent>
1

> <s_lp_Variant>
AV-unprocessed.smi:1703-5

> <Gold.Version>
5.8.1

> <Gold.Id.Protein>
6NUR|6NUR_protein|mol2

> <Gold.PLP.Fitness>
50.9395

> <Gold.PLP.PLP>
-45.7658

> <Gold.PLP.part.hbond>
-1.9331

> <Gold.PLP.part.metal>
0.0000

> <Gold.PLP.part.buried>
-4.0941

> <Gold.PLP.part.nonpolar>
-41.2157

> <Gold.PLP.part.repulsive>
0.4560

> <Gold.PLP.ligand.clash>
0.0000

> <Gold.PLP.ligand.torsion>
0.3925

> <Gold.PLP.Chemscore.Hbond>
1.9588

> <Gold.PLP.Chemscore.CHOScore>
0.0000

> <Gold.PLP.Chemscore.Metal>
0.0000

> <Gold.Chemscore.Hbonds>
donor molecule, donor type, donor heavy atom, donor atom, acceptor molecule, acceptor atom, score
      P1  H  6896  6909       L1    12  0.60
      P1  H  7997  8008       L1     7  0.40

> <Gold.PLP.Chemscore.Internal.Correction>
0.0825

> <Gold.Rescore>
     Score         DG    S(hbond)    S(metal)    S(lipo)     H(rot)  DE(clash)    DE(int)     intcor
     17.81     -18.24       1.76        0.00     121.74       2.88       0.07       0.36       ----

> <Gold.Chemscore.Fitness>
17.8060

> <Gold.Chemscore.DG>
-18.2351

> <Gold.Chemscore.ZeroCoef>
-5.4800

> <Gold.Chemscore.Hbond>
1.7601

> <Gold.Chemscore.Metal>
0.0000

> <Gold.Chemscore.Lipo>
121.7391

> <Gold.Chemscore.Internal_Hbond>
0.0000

> <Gold.Chemscore.DEClash>
0.0740

> <Gold.Chemscore.DEInternal>
0.3552

> <Gold.Chemscore.Rot>
2.8778

> <Gold.Chemscore.Internal.Correction>
   9.000000E+99

> <Gold.Chemscore.Hbonds>
donor molecule, donor type, donor heavy atom, donor atom, acceptor molecule, acceptor atom, score
      P1  H  6896  6909       L1    12  0.56
      P1  H  7997  8008       L1     7  0.01

> <Gold.Chemscore.Hbond.Weighted>
-5.8787

> <Gold.Chemscore.Metal.Weighted>
-0.0000

> <Gold.Chemscore.Lipo.Weighted>
-14.2435

> <Gold.Chemscore.Internal_Hbond.Weighted>
0.0000

> <Gold.Chemscore.DEClash.Weighted>
0.0740

> <Gold.Chemscore.DEInternal.Weighted>
0.3552

> <Gold.Chemscore.Rot.Weighted>
7.3671

> <Gold.Chemscore.Internal.Correction.Weighted>
   9.000000E+99

> <Gold.Protein.RotatedTorsions>
[ 6907 6896 6895 6894 ] final  119.77 input  -60.11 | X-H torsion
[ 7974 7965 7964 7962 ] final  -77.27 input  175.53 | X-H torsion
[ 8008 7997 7996 7995 ] final  -14.79 input   59.86 | X-H torsion
[ 10167 10162 10161 10158 ] final   30.82 input  -65.29 | X-H torsion
[ 10718 10713 10712 10709 ] final   78.66 input   66.30 | X-H torsion
[ 10763 10752 10751 10750 ] final  -23.80 input  -60.55 | X-H torsion
[ 11005 11000 10999 10996 ] final -113.72 input  -57.11 | X-H torsion

> <Gold.Protein.ActiveResidues>
 VAL166  LYS551  ARG553  GLY616  TRP617  ASP618  TYR619  PRO620  LYS621  CYS622 
 ASP623  PHE694  ASN695  SER759  ASP760  ASP761  ALA762  ILE779  LEU786  VAL792 
 PHE793  MET794  SER795  GLU796  ALA797  LYS798  CYS799  TRP800  GLU811  SER814 

> <Gold.Protein.RotatedAtoms>
  152.4447  133.7515  159.6696 H   0  0  0  0  0  0  0  0  0  0  0  0  # atno 6907 bound_to 6896
  150.8345  133.8026  159.3091 H   0  0  0  0  0  0  0  0  0  0  0  0  # atno 6908 bound_to 6896
  151.5670  135.1066  160.0038 H   0  0  0  0  0  0  0  0  0  0  0  0  # atno 6909 bound_to 6896
  145.6019  140.9406  143.1236 H   0  0  0  0  0  0  0  0  0  0  0  0  # atno 7974 bound_to 7965
  154.5181  140.2213  155.9027 H   0  0  0  0  0  0  0  0  0  0  0  0  # atno 8008 bound_to 7997
  156.1631  140.3138  155.8807 H   0  0  0  0  0  0  0  0  0  0  0  0  # atno 8009 bound_to 7997
  155.3711  140.0466  157.3036 H   0  0  0  0  0  0  0  0  0  0  0  0  # atno 8010 bound_to 7997
  140.4643  144.0859  150.6220 H   0  0  0  0  0  0  0  0  0  0  0  0  # atno 10167 bound_to 10162
  157.6752  130.9879  150.1819 H   0  0  0  0  0  0  0  0  0  0  0  0  # atno 10718 bound_to 10713
  153.6737  135.6970  153.5139 H   0  0  0  0  0  0  0  0  0  0  0  0  # atno 10763 bound_to 10752
  153.2538  135.4266  155.0824 H   0  0  0  0  0  0  0  0  0  0  0  0  # atno 10764 bound_to 10752
  154.8419  135.3538  154.6281 H   0  0  0  0  0  0  0  0  0  0  0  0  # atno 10765 bound_to 10752
  141.0597  133.9555  157.2690 H   0  0  0  0  0  0  0  0  0  0  0  0  # atno 11005 bound_to 11000
  144.7306  139.7738  143.7348 LP  0  0  0  0  0  0  0  0  0  0  0  0  # atno 17320 bound_to 7965
  146.1569  139.4670  143.0013 LP  0  0  0  0  0  0  0  0  0  0  0  0  # atno 17321 bound_to 7965
  140.4055  143.2682  151.9896 LP  0  0  0  0  0  0  0  0  0  0  0  0  # atno 17342 bound_to 10162
  139.4810  144.5961  151.7688 LP  0  0  0  0  0  0  0  0  0  0  0  0  # atno 17343 bound_to 10162
  156.2550  130.3704  149.8191 LP  0  0  0  0  0  0  0  0  0  0  0  0  # atno 17370 bound_to 10713
  156.5953  130.8524  151.3418 LP  0  0  0  0  0  0  0  0  0  0  0  0  # atno 17371 bound_to 10713
  139.9421  135.0189  156.8741 LP  0  0  0  0  0  0  0  0  0  0  0  0  # atno 17394 bound_to 11000
  140.5894  134.0276  155.7494 LP  0  0  0  0  0  0  0  0  0  0  0  0  # atno 17395 bound_to 11000

$$$$
