AV-unprocessed.smi:148|AV-procd|sdf|1219|dock4
  -GOLD-   2262018403D 1   1.00000     0.00000
 Structure written by MMmdl.
 63 67  0  0  0  0  0  0  0  0  1 V2000
  148.3507  137.3812  160.2243 O   0  0  0  0  0  0  0  0  0  0  0  0
  147.3281  136.6874  159.5372 C   0  0  0  0  0  0  0  0  0  0  0  0
  147.2638  135.1859  159.9292 C   0  0  1  0  0  0  0  0  0  0  0  0
  148.0002  134.2125  158.9554 C   0  0  0  0  0  0  0  0  0  0  0  0
  147.3705  134.0145  157.6604 N   0  0  0  0  0  0  0  0  0  0  0  0
  146.0378  133.7627  157.4246 C   0  0  0  0  0  0  0  0  0  0  0  0
  145.7157  133.6054  156.1696 N   0  0  0  0  0  0  0  0  0  0  0  0
  146.9170  133.7675  155.4895 C   0  0  0  0  0  0  0  0  0  0  0  0
  147.3037  133.7067  154.1206 C   0  0  0  0  0  0  0  0  0  0  0  0
  146.4703  133.4245  153.0936 N   0  0  0  0  0  0  0  0  0  0  0  0
  146.8399  132.1473  152.4850 C   0  0  0  0  0  0  0  0  0  0  0  0
  145.7725  131.6734  151.4910 C   0  0  0  0  0  0  0  0  0  0  0  0
  145.5161  132.7526  150.4344 C   0  0  0  0  0  0  0  0  0  0  0  0
  145.1230  134.0708  151.1149 C   0  0  0  0  0  0  0  0  0  0  0  0
  146.1829  134.5246  152.1537 C   0  0  1  0  0  0  0  0  0  0  0  0
  145.8098  135.8586  152.8760 C   0  0  2  0  0  0  0  0  0  0  0  0
  144.5424  135.8254  153.7534 C   0  0  0  0  0  0  0  0  0  0  0  0
  143.9463  137.2419  153.7095 C   0  0  0  0  0  0  0  0  0  0  0  0
  144.9225  138.0920  152.8913 C   0  0  0  0  0  0  0  0  0  0  0  0
  145.6199  137.0878  151.9748 C   0  0  1  0  0  0  0  0  0  0  0  0
  146.8496  137.5945  151.4985 O   0  0  0  0  0  0  0  0  0  0  0  0
  148.6031  133.9428  153.8144 N   0  0  0  0  0  0  0  0  0  0  0  0
  149.4820  134.2005  154.7876 C   0  0  0  0  0  0  0  0  0  0  0  0
  149.2743  134.2681  156.1046 N   0  0  0  0  0  0  0  0  0  0  0  0
  147.9643  134.0443  156.4117 C   0  0  0  0  0  0  0  0  0  0  0  0
  147.6564  134.9074  161.4115 C   0  0  1  0  0  0  0  0  0  0  0  0
  146.8762  135.6890  162.4621 C   0  0  0  0  0  0  0  0  0  0  0  0
  145.5946  134.8766  162.6238 C   0  0  0  0  0  0  0  0  0  0  0  0
  145.9433  133.5377  162.2889 O   0  0  0  0  0  0  0  0  0  0  0  0
  147.3014  133.4843  161.8655 C   0  0  0  0  0  0  0  0  0  0  0  0
  149.1469  137.3219  159.7183 H   0  0  0  0  0  0  0  0  0  0  0  0
  146.3797  137.1790  159.7498 H   0  0  0  0  0  0  0  0  0  0  0  0
  147.4707  136.8067  158.4637 H   0  0  0  0  0  0  0  0  0  0  0  0
  146.2073  134.9283  159.8399 H   0  0  0  0  0  0  0  0  0  0  0  0
  149.0216  134.5431  158.7667 H   0  0  0  0  0  0  0  0  0  0  0  0
  148.0973  133.2347  159.4292 H   0  0  0  0  0  0  0  0  0  0  0  0
  145.3115  133.6829  158.2206 H   0  0  0  0  0  0  0  0  0  0  0  0
  147.7980  132.2543  151.9739 H   0  0  0  0  0  0  0  0  0  0  0  0
  146.9763  131.3899  153.2589 H   0  0  0  0  0  0  0  0  0  0  0  0
  146.0906  130.7465  151.0133 H   0  0  0  0  0  0  0  0  0  0  0  0
  144.8469  131.4498  152.0234 H   0  0  0  0  0  0  0  0  0  0  0  0
  146.4129  132.9010  149.8315 H   0  0  0  0  0  0  0  0  0  0  0  0
  144.7285  132.4318  149.7522 H   0  0  0  0  0  0  0  0  0  0  0  0
  144.9905  134.8248  150.3409 H   0  0  0  0  0  0  0  0  0  0  0  0
  144.1509  133.9397  151.5888 H   0  0  0  0  0  0  0  0  0  0  0  0
  147.1001  134.7089  151.5940 H   0  0  0  0  0  0  0  0  0  0  0  0
  146.6286  136.1280  153.5447 H   0  0  0  0  0  0  0  0  0  0  0  0
  143.8063  135.1095  153.3915 H   0  0  0  0  0  0  0  0  0  0  0  0
  144.7894  135.5323  154.7742 H   0  0  0  0  0  0  0  0  0  0  0  0
  142.9751  137.2141  153.2134 H   0  0  0  0  0  0  0  0  0  0  0  0
  143.7911  137.6538  154.7072 H   0  0  0  0  0  0  0  0  0  0  0  0
  144.4255  138.8914  152.3405 H   0  0  0  0  0  0  0  0  0  0  0  0
  145.6483  138.5539  153.5630 H   0  0  0  0  0  0  0  0  0  0  0  0
  144.9643  136.8723  151.1325 H   0  0  0  0  0  0  0  0  0  0  0  0
  147.5515  137.1020  151.8960 H   0  0  0  0  0  0  0  0  0  0  0  0
  150.4983  134.3715  154.4654 H   0  0  0  0  0  0  0  0  0  0  0  0
  148.7256  135.0903  161.5282 H   0  0  0  0  0  0  0  0  0  0  0  0
  147.4303  135.6702  163.4018 H   0  0  0  0  0  0  0  0  0  0  0  0
  146.6955  136.7366  162.2286 H   0  0  0  0  0  0  0  0  0  0  0  0
  145.1912  134.9417  163.6344 H   0  0  0  0  0  0  0  0  0  0  0  0
  144.8286  135.2228  161.9291 H   0  0  0  0  0  0  0  0  0  0  0  0
  147.4409  132.7204  161.1013 H   0  0  0  0  0  0  0  0  0  0  0  0
  147.9145  133.2029  162.7229 H   0  0  0  0  0  0  0  0  0  0  0  0
  1  2  1  0  0  0  0
  1 31  1  0  0  0  0
  2  3  1  0  0  0  0
  2 32  1  0  0  0  0
  2 33  1  0  0  0  0
  3  4  1  0  0  0  0
  3 26  1  0  0  0  0
  3 34  1  0  0  0  0
  4  5  1  0  0  0  0
  4 35  1  0  0  0  0
  4 36  1  0  0  0  0
  5 25  1  0  0  0  0
  5  6  1  0  0  0  0
  6  7  2  0  0  0  0
  6 37  1  0  0  0  0
  7  8  1  0  0  0  0
  8 25  2  0  0  0  0
  8  9  1  0  0  0  0
  9 10  1  0  0  0  0
  9 22  2  0  0  0  0
 10 15  1  0  0  0  0
 10 11  1  0  0  0  0
 11 12  1  0  0  0  0
 11 38  1  0  0  0  0
 11 39  1  0  0  0  0
 12 13  1  0  0  0  0
 12 40  1  0  0  0  0
 12 41  1  0  0  0  0
 13 14  1  0  0  0  0
 13 42  1  0  0  0  0
 13 43  1  0  0  0  0
 14 15  1  0  0  0  0
 14 44  1  0  0  0  0
 14 45  1  0  0  0  0
 15 16  1  0  0  0  0
 15 46  1  0  0  0  0
 16 20  1  0  0  0  0
 16 17  1  0  0  0  0
 16 47  1  0  0  0  0
 17 18  1  0  0  0  0
 17 48  1  0  0  0  0
 17 49  1  0  0  0  0
 18 19  1  0  0  0  0
 18 50  1  0  0  0  0
 18 51  1  0  0  0  0
 19 20  1  0  0  0  0
 19 52  1  0  0  0  0
 19 53  1  0  0  0  0
 20 21  1  0  0  0  0
 20 54  1  0  0  0  0
 21 55  1  0  0  0  0
 22 23  1  0  0  0  0
 23 24  2  0  0  0  0
 23 56  1  0  0  0  0
 24 25  1  0  0  0  0
 26 30  1  0  0  0  0
 26 27  1  0  0  0  0
 26 57  1  0  0  0  0
 27 28  1  0  0  0  0
 27 58  1  0  0  0  0
 27 59  1  0  0  0  0
 28 29  1  0  0  0  0
 28 60  1  0  0  0  0
 28 61  1  0  0  0  0
 29 30  1  0  0  0  0
 30 62  1  0  0  0  0
 30 63  1  0  0  0  0
M  END
> <s_m_source_file>
AV-unprocessed.smi

> <i_m_source_file_index>
148

> <i_lp_mmshare_version>
43012

> <i_f3d_flags>
0

> <s_epik_input>
W0NIMl0xT1tDSDJdW0NIMl1bQ0BIXTFbQ0BIXShbQ0gyXVtPSF0pW0NIMl1uKFtjSF1uMiljKGMyMyluW2NIXW5jM040W0NIMl1bQ0gyXVtDSDJdW0NIMl1bQ0BIXTRbQ0BASF01W0NIMl1bQ0gyXVtDSDJdW0NASF01W09IXQ==

> <s_epik_cmdline>
J2VwaWtfcHl0aG9uJywgJy1waCcsICc3LjAnLCAnLXRuJywgJzgnLCAnLW1hJywgJzIwMCcsICctbWV0YWxfYmluZGluZycsICctaW1hZScsICc8aW5maWxlLm1hZT4nLCAnLW9tYWUnLCAnPG91dGZpbGUubWFlPic=

> <r_lp_tautomer_probability>
1

> <r_epik_Ionization_Penalty>
0.00556303

> <r_epik_Ionization_Penalty_Charging>
0

> <r_epik_Ionization_Penalty_Neutral>
0.00556303

> <r_epik_State_Penalty>
0.00401767

> <r_epik_Charging_Adjusted_Penalty>
0.00401767

> <i_epik_Tot_Q>
0

> <i_epik_Tot_abs_Q>
0

> <r_epik_Metal_State_Penalty>
-0

> <b_epik_Metal_Only>
0

> <s_lp_Force_Field>
OPLS_2005

> <r_lp_Energy>
73.5051

> <b_lp_Chiralities_Consistent>
1

> <s_lp_Variant>
AV-unprocessed.smi:148-18

> <Gold.Version>
5.8.1

> <Gold.Id.Protein>
6NUR|6NUR_protein|mol2

> <Gold.PLP.Fitness>
42.1842

> <Gold.PLP.PLP>
-36.3402

> <Gold.PLP.part.hbond>
-3.3561

> <Gold.PLP.part.metal>
0.0000

> <Gold.PLP.part.buried>
-3.7426

> <Gold.PLP.part.nonpolar>
-29.9325

> <Gold.PLP.part.repulsive>
0.6167

> <Gold.PLP.ligand.clash>
0.0000

> <Gold.PLP.ligand.torsion>
0.8931

> <Gold.PLP.Chemscore.Hbond>
2.3792

> <Gold.PLP.Chemscore.CHOScore>
0.0000

> <Gold.PLP.Chemscore.Metal>
0.0000

> <Gold.Chemscore.Hbonds>
donor molecule, donor type, donor heavy atom, donor atom, acceptor molecule, acceptor atom, score
      L1  H    21    55       P1  7948  1.00
      P1  H  6931  6943       L1     1  0.56
      P1  H  6934  6947       L1     1  0.40
      P1  H  7954  7966       L1    21  0.21

> <Gold.PLP.Chemscore.Internal.Correction>
0.4924

> <Gold.Rescore>
     Score         DG    S(hbond)    S(metal)    S(lipo)     H(rot)  DE(clash)    DE(int)     intcor
     12.01     -13.90       1.77        0.00      94.03       3.32       1.06       0.83       ----

> <Gold.Chemscore.Fitness>
12.0107

> <Gold.Chemscore.DG>
-13.9031

> <Gold.Chemscore.ZeroCoef>
-5.4800

> <Gold.Chemscore.Hbond>
1.7728

> <Gold.Chemscore.Metal>
0.0000

> <Gold.Chemscore.Lipo>
94.0343

> <Gold.Chemscore.Internal_Hbond>
0.0000

> <Gold.Chemscore.DEClash>
1.0616

> <Gold.Chemscore.DEInternal>
0.8308

> <Gold.Chemscore.Rot>
3.3203

> <Gold.Chemscore.Internal.Correction>
   9.000000E+99

> <Gold.Chemscore.Hbonds>
donor molecule, donor type, donor heavy atom, donor atom, acceptor molecule, acceptor atom, score
      L1  H    21    55       P1  7948  0.96
      P1  H  6931  6943       L1     1  0.14
      P1  H  6934  6947       L1     1  0.09

> <Gold.Chemscore.Hbond.Weighted>
-5.9211

> <Gold.Chemscore.Metal.Weighted>
-0.0000

> <Gold.Chemscore.Lipo.Weighted>
-11.0020

> <Gold.Chemscore.Internal_Hbond.Weighted>
0.0000

> <Gold.Chemscore.DEClash.Weighted>
1.0616

> <Gold.Chemscore.DEInternal.Weighted>
0.8308

> <Gold.Chemscore.Rot.Weighted>
8.5000

> <Gold.Chemscore.Internal.Correction.Weighted>
   9.000000E+99

> <Gold.Protein.RotatedTorsions>
[ 6907 6896 6895 6894 ] final   12.98 input  -60.11 | X-H torsion
[ 7974 7965 7964 7962 ] final  -20.75 input  175.53 | X-H torsion
[ 8008 7997 7996 7995 ] final  -71.28 input   59.86 | X-H torsion
[ 10167 10162 10161 10158 ] final  -66.78 input  -65.29 | X-H torsion
[ 10718 10713 10712 10709 ] final    1.65 input   66.30 | X-H torsion
[ 10763 10752 10751 10750 ] final  -35.54 input  -60.55 | X-H torsion
[ 11005 11000 10999 10996 ] final   -1.11 input  -57.11 | X-H torsion

> <Gold.Protein.ActiveResidues>
 VAL166  LYS551  ARG553  GLY616  TRP617  ASP618  TYR619  PRO620  LYS621  CYS622 
 ASP623  PHE694  ASN695  SER759  ASP760  ASP761  ALA762  ILE779  LEU786  VAL792 
 PHE793  MET794  SER795  GLU796  ALA797  LYS798  CYS799  TRP800  GLU811  SER814 

> <Gold.Protein.RotatedAtoms>
  151.7789  135.0767  160.0370 H   0  0  0  0  0  0  0  0  0  0  0  0  # atno 6907 bound_to 6896
  152.3236  133.5877  159.5770 H   0  0  0  0  0  0  0  0  0  0  0  0  # atno 6908 bound_to 6896
  150.7383  133.9889  159.3642 H   0  0  0  0  0  0  0  0  0  0  0  0  # atno 6909 bound_to 6896
  146.1771  140.4246  142.8509 H   0  0  0  0  0  0  0  0  0  0  0  0  # atno 7974 bound_to 7965
  154.5075  140.0818  156.7924 H   0  0  0  0  0  0  0  0  0  0  0  0  # atno 8008 bound_to 7997
  155.3860  140.3430  155.4231 H   0  0  0  0  0  0  0  0  0  0  0  0  # atno 8009 bound_to 7997
  156.1533  140.1565  156.8721 H   0  0  0  0  0  0  0  0  0  0  0  0  # atno 8010 bound_to 7997
  140.5632  143.2313  151.6687 H   0  0  0  0  0  0  0  0  0  0  0  0  # atno 10167 bound_to 10162
  156.8514  130.5555  149.5669 H   0  0  0  0  0  0  0  0  0  0  0  0  # atno 10718 bound_to 10713
  153.8649  135.6836  153.4779 H   0  0  0  0  0  0  0  0  0  0  0  0  # atno 10763 bound_to 10752
  153.1320  135.4694  154.9362 H   0  0  0  0  0  0  0  0  0  0  0  0  # atno 10764 bound_to 10752
  154.7741  135.3248  154.8078 H   0  0  0  0  0  0  0  0  0  0  0  0  # atno 10765 bound_to 10752
  140.6437  133.9467  155.8340 H   0  0  0  0  0  0  0  0  0  0  0  0  # atno 11005 bound_to 11000
  144.8253  140.6618  143.6326 LP  0  0  0  0  0  0  0  0  0  0  0  0  # atno 17320 bound_to 7965
  145.4182  139.1568  143.4089 LP  0  0  0  0  0  0  0  0  0  0  0  0  # atno 17321 bound_to 7965
  139.5080  144.3627  152.0547 LP  0  0  0  0  0  0  0  0  0  0  0  0  # atno 17342 bound_to 10162
  140.2755  144.3917  150.6136 LP  0  0  0  0  0  0  0  0  0  0  0  0  # atno 17343 bound_to 10162
  156.0826  130.5833  150.9590 LP  0  0  0  0  0  0  0  0  0  0  0  0  # atno 17370 bound_to 10713
  157.6301  131.0922  150.8458 LP  0  0  0  0  0  0  0  0  0  0  0  0  # atno 17371 bound_to 10713
  141.0588  134.0377  157.3686 LP  0  0  0  0  0  0  0  0  0  0  0  0  # atno 17394 bound_to 11000
  139.9071  135.0182  156.7532 LP  0  0  0  0  0  0  0  0  0  0  0  0  # atno 17395 bound_to 11000

$$$$
