AV-unprocessed.smi:1154|AV-procd|sdf|4903|dock4
  -GOLD-   22720 3483D 1   1.00000     0.00000
 Structure written by MMmdl.
 42 43  0  0  0  0  0  0  0  0  2 V2000
  146.1435  132.1284  149.4691 C   0  0  0  0  0  0  0  0  0  0  0  0
  146.3065  133.3306  150.4101 C   0  0  1  0  0  0  0  0  0  0  0  0
  144.9537  134.0101  150.6901 C   0  0  0  0  0  0  0  0  0  0  0  0
  145.0969  135.1770  151.6846 C   0  0  2  0  0  0  0  0  0  0  0  0
  145.7494  136.4219  151.0578 C   0  0  0  0  0  0  0  0  0  0  0  0
  145.8299  134.7136  152.9592 C   0  0  0  0  0  0  0  0  0  0  0  0
  147.1405  134.0883  152.6426 N   0  3  1  0  0  0  0  0  0  0  0  0
  147.9250  133.7763  153.8640 C   0  0  0  0  0  0  0  0  0  0  0  0
  147.7209  134.8228  154.9717 C   0  0  0  0  0  0  0  0  0  0  0  0
  148.3260  136.0915  154.5919 N   0  0  0  0  0  0  0  0  0  0  0  0
  148.5024  137.1269  155.4272 C   0  0  0  0  0  0  0  0  0  0  0  0
  148.1371  137.1123  156.6018 O   0  0  0  0  0  0  0  0  0  0  0  0
  149.1836  138.3733  154.8548 C   0  0  0  0  0  0  0  0  0  0  0  0
  150.6253  138.3246  155.0212 N   0  0  0  0  0  0  0  0  0  0  0  0
  151.5232  137.4214  154.6228 C   0  0  0  0  0  0  0  0  0  0  0  0
  152.7491  137.7518  154.9982 N   0  0  0  0  0  0  0  0  0  0  0  0
  152.5612  138.9500  155.6670 N   0  0  0  0  0  0  0  0  0  0  0  0
  151.3031  139.2955  155.6831 N   0  0  0  0  0  0  0  0  0  0  0  0
  146.9834  132.9224  151.7328 C   0  0  0  0  0  0  0  0  0  0  0  0
  145.5042  131.3625  149.9092 H   0  0  0  0  0  0  0  0  0  0  0  0
  147.1075  131.6700  149.2464 H   0  0  0  0  0  0  0  0  0  0  0  0
  145.6970  132.4303  148.5212 H   0  0  0  0  0  0  0  0  0  0  0  0
  146.9552  134.0474  149.9058 H   0  0  0  0  0  0  0  0  0  0  0  0
  144.5039  134.3603  149.7600 H   0  0  0  0  0  0  0  0  0  0  0  0
  144.2618  133.2749  151.1037 H   0  0  0  0  0  0  0  0  0  0  0  0
  144.0898  135.4761  151.9781 H   0  0  0  0  0  0  0  0  0  0  0  0
  146.7811  136.2365  150.7589 H   0  0  0  0  0  0  0  0  0  0  0  0
  145.7571  137.2543  151.7622 H   0  0  0  0  0  0  0  0  0  0  0  0
  145.2014  136.7485  150.1736 H   0  0  0  0  0  0  0  0  0  0  0  0
  145.9716  135.5662  153.6249 H   0  0  0  0  0  0  0  0  0  0  0  0
  145.2143  133.9940  153.5017 H   0  0  0  0  0  0  0  0  0  0  0  0
  147.6093  132.8085  154.2566 H   0  0  0  0  0  0  0  0  0  0  0  0
  148.9816  133.6756  153.6104 H   0  0  0  0  0  0  0  0  0  0  0  0
  146.6622  134.9928  155.1666 H   0  0  0  0  0  0  0  0  0  0  0  0
  148.1681  134.4672  155.9017 H   0  0  0  0  0  0  0  0  0  0  0  0
  148.6477  136.1843  153.6393 H   0  0  0  0  0  0  0  0  0  0  0  0
  148.9515  138.4612  153.7929 H   0  0  0  0  0  0  0  0  0  0  0  0
  148.8023  139.2707  155.3445 H   0  0  0  0  0  0  0  0  0  0  0  0
  151.2802  136.5259  154.0701 H   0  0  0  0  0  0  0  0  0  0  0  0
  146.4005  132.1474  152.2334 H   0  0  0  0  0  0  0  0  0  0  0  0
  147.9569  132.4868  151.5102 H   0  0  0  0  0  0  0  0  0  0  0  0
  147.6670  134.7874  152.1382 H   0  0  0  0  0  0  0  0  0  0  0  0
  1  2  1  0  0  0  0
  1 20  1  0  0  0  0
  1 21  1  0  0  0  0
  1 22  1  0  0  0  0
  2 19  1  0  0  0  0
  2  3  1  0  0  0  0
  2 23  1  0  0  0  0
  3  4  1  0  0  0  0
  3 24  1  0  0  0  0
  3 25  1  0  0  0  0
  4  5  1  0  0  0  0
  4  6  1  0  0  0  0
  4 26  1  0  0  0  0
  5 27  1  0  0  0  0
  5 28  1  0  0  0  0
  5 29  1  0  0  0  0
  6  7  1  0  0  0  0
  6 30  1  0  0  0  0
  6 31  1  0  0  0  0
  7  8  1  0  0  0  0
  7 19  1  0  0  0  0
  7 42  1  0  0  0  0
  8  9  1  0  0  0  0
  8 32  1  0  0  0  0
  8 33  1  0  0  0  0
  9 10  1  0  0  0  0
  9 34  1  0  0  0  0
  9 35  1  0  0  0  0
 10 11  1  0  0  0  0
 10 36  1  0  0  0  0
 11 12  2  0  0  0  0
 11 13  1  0  0  0  0
 13 14  1  0  0  0  0
 13 37  1  0  0  0  0
 13 38  1  0  0  0  0
 14 18  1  0  0  0  0
 14 15  1  0  0  0  0
 15 16  2  0  0  0  0
 15 39  1  0  0  0  0
 16 17  1  0  0  0  0
 17 18  2  0  0  0  0
 19 40  1  0  0  0  0
 19 41  1  0  0  0  0
M  CHG  1   7   1
M  END
> <s_m_source_file>
AV-unprocessed.smi

> <i_m_source_file_index>
1154

> <i_lp_mmshare_version>
43012

> <i_f3d_flags>
0

> <s_epik_input>
W0NIM11bQ0BASF0xW0NIMl1bQ0BASF0oW0NIM10pW0NIMl1OKFtDSDJdMSlbQ0gyXVtDSDJdW05IXUMoPU8pW0NIMl1uMltjSF1ubm4y

> <s_epik_cmdline>
J2VwaWtfcHl0aG9uJywgJy1waCcsICc3LjAnLCAnLXRuJywgJzgnLCAnLW1hJywgJzIwMCcsICctbWV0YWxfYmluZGluZycsICctaW1hZScsICc8aW5maWxlLm1hZT4nLCAnLW9tYWUnLCAnPG91dGZpbGUubWFlPic=

> <r_lp_tautomer_probability>
1

> <r_epik_Ionization_Penalty>
0.00217773

> <r_epik_Ionization_Penalty_Charging>
0.00217329

> <r_epik_Ionization_Penalty_Neutral>
4.43997e-06

> <r_epik_State_Penalty>
0.00149294

> <r_epik_Charging_Adjusted_Penalty>
0.00366623

> <i_epik_Tot_Q>
1

> <i_epik_Tot_abs_Q>
1

> <r_epik_Metal_State_Penalty>
-0

> <b_epik_Metal_Only>
0

> <s_lp_Force_Field>
OPLS_2005

> <r_lp_Energy>
22.3383

> <b_lp_Chiralities_Consistent>
1

> <s_lp_Variant>
AV-unprocessed.smi:1154-4

> <Gold.Version>
5.8.1

> <Gold.Id.Protein>
6NUR|6NUR_protein|mol2

> <Gold.PLP.Fitness>
49.5668

> <Gold.PLP.PLP>
-32.8864

> <Gold.PLP.part.hbond>
-5.8062

> <Gold.PLP.part.metal>
0.0000

> <Gold.PLP.part.buried>
-2.5731

> <Gold.PLP.part.nonpolar>
-25.6662

> <Gold.PLP.part.repulsive>
0.1181

> <Gold.PLP.ligand.clash>
0.0000

> <Gold.PLP.ligand.torsion>
0.6750

> <Gold.PLP.Chemscore.Hbond>
5.0000

> <Gold.PLP.Chemscore.CHOScore>
1.0000

> <Gold.PLP.Chemscore.Metal>
0.0000

> <Gold.Chemscore.Hbonds>
donor molecule, donor type, donor heavy atom, donor atom, acceptor molecule, acceptor atom, score
      L1  H     7    42       P1  7948  2.00
      L1  H    10    36       P1  7948  1.00
      P1  H  7997  8008       L1    17  0.44
      L1  C    15    39       P1  7949  0.74

> <Gold.PLP.Chemscore.Internal.Correction>
0.0302

> <Gold.Rescore>
     Score         DG    S(hbond)    S(metal)    S(lipo)     H(rot)  DE(clash)    DE(int)     intcor
     15.52     -16.98       3.57        0.00      54.90       2.67       0.86       0.61       ----

> <Gold.Chemscore.Fitness>
15.5169

> <Gold.Chemscore.DG>
-16.9824

> <Gold.Chemscore.ZeroCoef>
-5.4800

> <Gold.Chemscore.Hbond>
3.5651

> <Gold.Chemscore.Metal>
0.0000

> <Gold.Chemscore.Lipo>
54.9018

> <Gold.Chemscore.Internal_Hbond>
0.0000

> <Gold.Chemscore.DEClash>
0.8604

> <Gold.Chemscore.DEInternal>
0.6052

> <Gold.Chemscore.Rot>
2.6674

> <Gold.Chemscore.Internal.Correction>
   9.000000E+99

> <Gold.Chemscore.Hbonds>
donor molecule, donor type, donor heavy atom, donor atom, acceptor molecule, acceptor atom, score
      L1  H     7    42       P1  7948  0.74
      L1  H    10    36       P1  7948  1.00
      P1  H  7997  8008       L1    17  0.39

> <Gold.Chemscore.Hbond.Weighted>
-11.9075

> <Gold.Chemscore.Metal.Weighted>
-0.0000

> <Gold.Chemscore.Lipo.Weighted>
-6.4235

> <Gold.Chemscore.Internal_Hbond.Weighted>
0.0000

> <Gold.Chemscore.DEClash.Weighted>
0.8604

> <Gold.Chemscore.DEInternal.Weighted>
0.6052

> <Gold.Chemscore.Rot.Weighted>
6.8286

> <Gold.Chemscore.Internal.Correction.Weighted>
   9.000000E+99

> <Gold.Protein.RotatedTorsions>
[ 6907 6896 6895 6894 ] final -130.95 input  -60.11 | X-H torsion
[ 7974 7965 7964 7962 ] final   16.06 input  175.53 | X-H torsion
[ 8008 7997 7996 7995 ] final  -18.18 input   59.86 | X-H torsion
[ 10167 10162 10161 10158 ] final -102.01 input  -65.29 | X-H torsion
[ 10718 10713 10712 10709 ] final -168.55 input   66.30 | X-H torsion
[ 10763 10752 10751 10750 ] final  119.97 input  -60.55 | X-H torsion
[ 11005 11000 10999 10996 ] final  146.58 input  -57.11 | X-H torsion

> <Gold.Protein.ActiveResidues>
 VAL166  LYS551  ARG553  GLY616  TRP617  ASP618  TYR619  PRO620  LYS621  CYS622 
 ASP623  PHE694  ASN695  SER759  ASP760  ASP761  ALA762  ILE779  LEU786  VAL792 
 PHE793  MET794  SER795  GLU796  ALA797  LYS798  CYS799  TRP800  GLU811  SER814 

> <Gold.Protein.RotatedAtoms>
  150.9455  133.6608  159.2781 H   0  0  0  0  0  0  0  0  0  0  0  0  # atno 6907 bound_to 6896
  151.3982  135.0966  159.9557 H   0  0  0  0  0  0  0  0  0  0  0  0  # atno 6908 bound_to 6896
  152.5088  133.8954  159.7469 H   0  0  0  0  0  0  0  0  0  0  0  0  # atno 6909 bound_to 6896
  146.2260  139.8802  142.8572 H   0  0  0  0  0  0  0  0  0  0  0  0  # atno 7974 bound_to 7965
  154.4925  140.2123  155.9518 H   0  0  0  0  0  0  0  0  0  0  0  0  # atno 8008 bound_to 7997
  156.1324  140.3194  155.8338 H   0  0  0  0  0  0  0  0  0  0  0  0  # atno 8009 bound_to 7997
  155.4271  140.0501  157.3012 H   0  0  0  0  0  0  0  0  0  0  0  0  # atno 8010 bound_to 7997
  140.2352  143.3578  152.0851 H   0  0  0  0  0  0  0  0  0  0  0  0  # atno 10167 bound_to 10162
  156.6985  130.9187  151.3077 H   0  0  0  0  0  0  0  0  0  0  0  0  # atno 10718 bound_to 10713
  153.5913  135.3465  155.2911 H   0  0  0  0  0  0  0  0  0  0  0  0  # atno 10763 bound_to 10752
  154.8652  135.4205  154.2513 H   0  0  0  0  0  0  0  0  0  0  0  0  # atno 10764 bound_to 10752
  153.3321  135.7045  153.7009 H   0  0  0  0  0  0  0  0  0  0  0  0  # atno 10765 bound_to 10752
  140.0805  134.9100  157.1492 H   0  0  0  0  0  0  0  0  0  0  0  0  # atno 11005 bound_to 11000
  145.2520  141.0047  143.3876 LP  0  0  0  0  0  0  0  0  0  0  0  0  # atno 17320 bound_to 7965
  144.9367  139.4236  143.6469 LP  0  0  0  0  0  0  0  0  0  0  0  0  # atno 17321 bound_to 7965
  139.5096  144.6870  151.5861 LP  0  0  0  0  0  0  0  0  0  0  0  0  # atno 17342 bound_to 10162
  140.6155  143.9357  150.6485 LP  0  0  0  0  0  0  0  0  0  0  0  0  # atno 17343 bound_to 10162
  157.6982  130.9304  150.0706 LP  0  0  0  0  0  0  0  0  0  0  0  0  # atno 17370 bound_to 10713
  156.1746  130.3647  149.9118 LP  0  0  0  0  0  0  0  0  0  0  0  0  # atno 17371 bound_to 10713
  140.3495  134.2614  155.7200 LP  0  0  0  0  0  0  0  0  0  0  0  0  # atno 17394 bound_to 11000
  141.2045  133.7885  157.0285 LP  0  0  0  0  0  0  0  0  0  0  0  0  # atno 17395 bound_to 11000

$$$$
