AV-unprocessed.smi:918|AV-procd|sdf|4163|dock8
  -GOLD-   22720 2 73D 1   1.00000     0.00000
 Structure written by MMmdl.
 31 32  0  0  0  0  0  0  0  0  2 V2000
  148.2753  141.2839  156.0860 O   0  0  0  0  0  0  0  0  0  0  0  0
  148.6619  140.8463  154.9791 C   0  0  0  0  0  0  0  0  0  0  0  0
  148.1210  141.1308  153.8903 O   0  5  0  0  0  0  0  0  0  0  0  0
  149.9361  139.8637  155.0294 C   0  0  0  0  0  0  0  0  0  0  0  0
  149.8941  138.7588  154.2524 C   0  0  0  0  0  0  0  0  0  0  0  0
  150.9859  137.8310  154.2371 C   0  0  0  0  0  0  0  0  0  0  0  0
  152.0619  138.0559  154.9985 C   0  0  0  0  0  0  0  0  0  0  0  0
  152.1665  139.2321  155.8594 C   0  0  0  0  0  0  0  0  0  0  0  0
  153.1863  139.3721  156.5312 O   0  0  0  0  0  0  0  0  0  0  0  0
  151.0997  140.1148  155.8582 N   0  0  0  0  0  0  0  0  0  0  0  0
  151.1131  141.3465  156.7054 C   0  0  0  0  0  0  0  0  0  0  0  0
  151.1678  141.2800  158.2471 C   0  0  0  0  0  0  0  0  0  0  0  0
  151.3023  142.6048  158.7438 O   0  0  0  0  0  0  0  0  0  0  0  0
  151.9296  142.7904  159.9585 C   0  0  0  0  0  0  0  0  0  0  0  0
  152.8176  141.8496  160.5409 C   0  0  0  0  0  0  0  0  0  0  0  0
  153.4206  142.1105  161.7864 C   0  0  0  0  0  0  0  0  0  0  0  0
  153.1467  143.3109  162.4665 C   0  0  0  0  0  0  0  0  0  0  0  0
  152.2678  144.2510  161.8985 C   0  0  0  0  0  0  0  0  0  0  0  0
  151.6631  143.9924  160.6525 C   0  0  0  0  0  0  0  0  0  0  0  0
  150.5882  145.1654  159.9798 Cl  0  0  0  0  0  0  0  0  0  0  0  0
  149.0432  138.5415  153.6234 H   0  0  0  0  0  0  0  0  0  0  0  0
  150.9389  136.9521  153.6114 H   0  0  0  0  0  0  0  0  0  0  0  0
  152.8773  137.3477  154.9766 H   0  0  0  0  0  0  0  0  0  0  0  0
  151.9809  141.9377  156.4121 H   0  0  0  0  0  0  0  0  0  0  0  0
  150.2117  141.9144  156.4739 H   0  0  0  0  0  0  0  0  0  0  0  0
  150.2488  140.8444  158.6426 H   0  0  0  0  0  0  0  0  0  0  0  0
  152.0261  140.6901  158.5729 H   0  0  0  0  0  0  0  0  0  0  0  0
  153.0536  140.9172  160.0511 H   0  0  0  0  0  0  0  0  0  0  0  0
  154.0950  141.3869  162.2200 H   0  0  0  0  0  0  0  0  0  0  0  0
  153.6097  143.5103  163.4218 H   0  0  0  0  0  0  0  0  0  0  0  0
  152.0573  145.1729  162.4205 H   0  0  0  0  0  0  0  0  0  0  0  0
  1  2  2  0  0  0  0
  2  3  1  0  0  0  0
  2  4  1  0  0  0  0
  4 10  1  0  0  0  0
  4  5  2  0  0  0  0
  5  6  1  0  0  0  0
  5 21  1  0  0  0  0
  6  7  2  0  0  0  0
  6 22  1  0  0  0  0
  7  8  1  0  0  0  0
  7 23  1  0  0  0  0
  8  9  2  0  0  0  0
  8 10  1  0  0  0  0
 10 11  1  0  0  0  0
 11 12  1  0  0  0  0
 11 24  1  0  0  0  0
 11 25  1  0  0  0  0
 12 13  1  0  0  0  0
 12 26  1  0  0  0  0
 12 27  1  0  0  0  0
 13 14  1  0  0  0  0
 14 19  1  0  0  0  0
 14 15  2  0  0  0  0
 15 16  1  0  0  0  0
 15 28  1  0  0  0  0
 16 17  2  0  0  0  0
 16 29  1  0  0  0  0
 17 18  1  0  0  0  0
 17 30  1  0  0  0  0
 18 19  2  0  0  0  0
 18 31  1  0  0  0  0
 19 20  1  0  0  0  0
M  CHG  1   3  -1
M  END
> <s_m_source_file>
AV-unprocessed.smi

> <i_m_source_file_index>
918

> <i_lp_mmshare_version>
43012

> <i_f3d_flags>
0

> <s_epik_input>
Tz1DKFtPSF0pYzFbY0hdW2NIXVtjSF1jKD1PKW4xW0NIMl1bQ0gyXU9jMltjSF1bY0hdW2NIXVtjSF1jMkNs

> <s_epik_cmdline>
J2VwaWtfcHl0aG9uJywgJy1waCcsICc3LjAnLCAnLXRuJywgJzgnLCAnLW1hJywgJzIwMCcsICctbWV0YWxfYmluZGluZycsICctaW1hZScsICc8aW5maWxlLm1hZT4nLCAnLW9tYWUnLCAnPG91dGZpbGUubWFlPic=

> <r_lp_tautomer_probability>
1

> <r_epik_Ionization_Penalty>
4.91901e-05

> <r_epik_Ionization_Penalty_Charging>
4.91901e-05

> <r_epik_Ionization_Penalty_Neutral>
0

> <r_epik_State_Penalty>
-0

> <r_epik_Charging_Adjusted_Penalty>
4.91901e-05

> <i_epik_Tot_Q>
-1

> <i_epik_Tot_abs_Q>
1

> <r_epik_Metal_State_Penalty>
-0

> <b_epik_Metal_Only>
0

> <s_lp_Force_Field>
OPLS_2005

> <r_lp_Energy>
37.328

> <b_lp_Chiralities_Consistent>
1

> <s_lp_Variant>
AV-unprocessed.smi:918-1

> <Gold.Version>
5.8.1

> <Gold.Id.Protein>
6NUR|6NUR_protein|mol2

> <Gold.PLP.Fitness>
53.0300

> <Gold.PLP.PLP>
-50.1731

> <Gold.PLP.part.hbond>
-1.8427

> <Gold.PLP.part.metal>
0.0000

> <Gold.PLP.part.buried>
-5.3075

> <Gold.PLP.part.nonpolar>
-43.2565

> <Gold.PLP.part.repulsive>
0.8823

> <Gold.PLP.ligand.clash>
0.0000

> <Gold.PLP.ligand.torsion>
1.1729

> <Gold.PLP.Chemscore.Hbond>
1.6880

> <Gold.PLP.Chemscore.CHOScore>
0.0000

> <Gold.PLP.Chemscore.Metal>
0.0000

> <Gold.Chemscore.Hbonds>
donor molecule, donor type, donor heavy atom, donor atom, acceptor molecule, acceptor atom, score
      P1  H  7997  8008       L1     9  0.67

> <Gold.PLP.Chemscore.Internal.Correction>
0.1387

> <Gold.Rescore>
     Score         DG    S(hbond)    S(metal)    S(lipo)     H(rot)  DE(clash)    DE(int)     intcor
     18.95     -21.23       1.75        0.00     120.52       1.64       0.75       1.54       ----

> <Gold.Chemscore.Fitness>
18.9484

> <Gold.Chemscore.DG>
-21.2293

> <Gold.Chemscore.ZeroCoef>
-5.4800

> <Gold.Chemscore.Hbond>
1.7509

> <Gold.Chemscore.Metal>
0.0000

> <Gold.Chemscore.Lipo>
120.5194

> <Gold.Chemscore.Internal_Hbond>
0.0000

> <Gold.Chemscore.DEClash>
0.7452

> <Gold.Chemscore.DEInternal>
1.5357

> <Gold.Chemscore.Rot>
1.6405

> <Gold.Chemscore.Internal.Correction>
   9.000000E+99

> <Gold.Chemscore.Hbonds>
donor molecule, donor type, donor heavy atom, donor atom, acceptor molecule, acceptor atom, score
      P1  H  7997  8008       L1     9  0.66

> <Gold.Chemscore.Hbond.Weighted>
-5.8481

> <Gold.Chemscore.Metal.Weighted>
-0.0000

> <Gold.Chemscore.Lipo.Weighted>
-14.1008

> <Gold.Chemscore.Internal_Hbond.Weighted>
0.0000

> <Gold.Chemscore.DEClash.Weighted>
0.7452

> <Gold.Chemscore.DEInternal.Weighted>
1.5357

> <Gold.Chemscore.Rot.Weighted>
4.1996

> <Gold.Chemscore.Internal.Correction.Weighted>
   9.000000E+99

> <Gold.Protein.RotatedTorsions>
[ 6907 6896 6895 6894 ] final  -33.81 input  -60.11 | X-H torsion
[ 7974 7965 7964 7962 ] final  -16.27 input  175.53 | X-H torsion
[ 8008 7997 7996 7995 ] final  -39.19 input   59.86 | X-H torsion
[ 10167 10162 10161 10158 ] final   71.73 input  -65.29 | X-H torsion
[ 10718 10713 10712 10709 ] final  159.24 input   66.30 | X-H torsion
[ 10763 10752 10751 10750 ] final  171.91 input  -60.55 | X-H torsion
[ 11005 11000 10999 10996 ] final  130.67 input  -57.11 | X-H torsion

> <Gold.Protein.ActiveResidues>
 VAL166  LYS551  ARG553  GLY616  TRP617  ASP618  TYR619  PRO620  LYS621  CYS622 
 ASP623  PHE694  ASN695  SER759  ASP760  ASP761  ALA762  ILE779  LEU786  VAL792 
 PHE793  MET794  SER795  GLU796  ALA797  LYS798  CYS799  TRP800  GLU811  SER814 

> <Gold.Protein.RotatedAtoms>
  151.0607  134.9735  159.8258 H   0  0  0  0  0  0  0  0  0  0  0  0  # atno 6907 bound_to 6896
  152.5395  134.2421  159.8876 H   0  0  0  0  0  0  0  0  0  0  0  0  # atno 6908 bound_to 6896
  151.2441  133.4341  159.2642 H   0  0  0  0  0  0  0  0  0  0  0  0  # atno 6909 bound_to 6896
  146.1995  140.3612  142.8428 H   0  0  0  0  0  0  0  0  0  0  0  0  # atno 7974 bound_to 7965
  154.4026  140.1558  156.2824 H   0  0  0  0  0  0  0  0  0  0  0  0  # atno 8008 bound_to 7997
  155.8858  140.3441  155.5898 H   0  0  0  0  0  0  0  0  0  0  0  0  # atno 8009 bound_to 7997
  155.7615  140.0818  157.2143 H   0  0  0  0  0  0  0  0  0  0  0  0  # atno 8010 bound_to 7997
  140.0429  144.5374  150.7420 H   0  0  0  0  0  0  0  0  0  0  0  0  # atno 10167 bound_to 10162
  157.1669  131.0600  151.2203 H   0  0  0  0  0  0  0  0  0  0  0  0  # atno 10718 bound_to 10713
  154.4186  135.2757  155.1990 H   0  0  0  0  0  0  0  0  0  0  0  0  # atno 10763 bound_to 10752
  154.3945  135.6058  153.5866 H   0  0  0  0  0  0  0  0  0  0  0  0  # atno 10764 bound_to 10752
  152.9832  135.5911  154.4479 H   0  0  0  0  0  0  0  0  0  0  0  0  # atno 10765 bound_to 10752
  139.9685  134.9584  156.9327 H   0  0  0  0  0  0  0  0  0  0  0  0  # atno 11005 bound_to 11000
  144.8652  140.7196  143.6082 LP  0  0  0  0  0  0  0  0  0  0  0  0  # atno 17320 bound_to 7965
  145.3531  139.1701  143.4423 LP  0  0  0  0  0  0  0  0  0  0  0  0  # atno 17321 bound_to 7965
  140.7252  143.2628  151.4145 LP  0  0  0  0  0  0  0  0  0  0  0  0  # atno 17342 bound_to 10162
  139.6002  144.1312  152.2189 LP  0  0  0  0  0  0  0  0  0  0  0  0  # atno 17343 bound_to 10162
  157.4080  130.7369  149.6817 LP  0  0  0  0  0  0  0  0  0  0  0  0  # atno 17370 bound_to 10713
  155.9744  130.4103  150.3923 LP  0  0  0  0  0  0  0  0  0  0  0  0  # atno 17371 bound_to 10713
  140.5344  134.0782  155.7324 LP  0  0  0  0  0  0  0  0  0  0  0  0  # atno 17394 bound_to 11000
  141.1365  133.9212  157.2422 LP  0  0  0  0  0  0  0  0  0  0  0  0  # atno 17395 bound_to 11000

$$$$
