AV-unprocessed.smi:740|AV-procd|sdf|3552|dock1
  -GOLD-   22720 0543D 1   1.00000     0.00000
 Structure written by MMmdl.
 45 47  0  0  0  0  0  0  0  0  2 V2000
  152.0003  144.7664  160.9282 C   0  0  0  0  0  0  0  0  0  0  0  0
  151.9163  143.6904  159.8591 C   0  0  0  0  0  0  0  0  0  0  0  0
  151.1718  143.9596  158.6888 C   0  0  0  0  0  0  0  0  0  0  0  0
  151.1118  142.9553  157.7302 C   0  0  0  0  0  0  0  0  0  0  0  0
  150.4673  142.9126  156.4924 N   0  3  0  0  0  0  0  0  0  0  0  0
  150.6935  141.7058  155.9041 C   0  0  0  0  0  0  0  0  0  0  0  0
  151.4758  140.9779  156.7464 N   0  0  0  0  0  0  0  0  0  0  0  0
  152.0032  139.6153  156.5861 C   0  0  0  0  0  0  0  0  0  0  0  0
  150.8905  138.5564  156.4602 C   0  0  2  0  0  0  0  0  0  0  0  0
  149.7869  138.9580  157.2483 O   0  0  0  0  0  0  0  0  0  0  0  0
  151.3692  137.1708  156.9415 C   0  0  0  0  0  0  0  0  0  0  0  0
  150.4281  136.1048  156.5793 N   0  0  0  0  0  0  0  0  0  0  0  0
  149.5748  135.5322  157.4393 C   0  0  0  0  0  0  0  0  0  0  0  0
  149.4475  135.8093  158.6317 O   0  0  0  0  0  0  0  0  0  0  0  0
  148.7511  134.4515  156.7534 C   0  0  0  0  0  0  0  0  0  0  0  0
  149.2779  134.4677  155.3104 C   0  0  2  0  0  0  0  0  0  0  0  0
  149.8636  133.1225  154.8501 C   0  0  0  0  0  0  0  0  0  0  0  0
  150.3412  135.5635  155.3559 C   0  0  0  0  0  0  0  0  0  0  0  0
  151.0150  135.8778  154.3746 O   0  0  0  0  0  0  0  0  0  0  0  0
  151.7619  141.7173  157.9006 C   0  0  0  0  0  0  0  0  0  0  0  0
  152.5007  141.4368  159.0480 C   0  0  0  0  0  0  0  0  0  0  0  0
  152.5709  142.4441  160.0370 C   0  0  0  0  0  0  0  0  0  0  0  0
  153.3655  142.1632  161.3012 C   0  0  0  0  0  0  0  0  0  0  0  0
  151.4829  145.6755  160.6205 H   0  0  0  0  0  0  0  0  0  0  0  0
  153.0393  145.0278  161.1304 H   0  0  0  0  0  0  0  0  0  0  0  0
  151.5429  144.4197  161.8552 H   0  0  0  0  0  0  0  0  0  0  0  0
  150.6690  144.9050  158.5469 H   0  0  0  0  0  0  0  0  0  0  0  0
  150.3201  141.3838  154.9427 H   0  0  0  0  0  0  0  0  0  0  0  0
  152.6108  139.6199  155.6803 H   0  0  0  0  0  0  0  0  0  0  0  0
  152.6832  139.3875  157.4072 H   0  0  0  0  0  0  0  0  0  0  0  0
  150.5731  138.5043  155.4179 H   0  0  0  0  0  0  0  0  0  0  0  0
  149.1726  139.4155  156.6948 H   0  0  0  0  0  0  0  0  0  0  0  0
  152.3311  136.9386  156.4809 H   0  0  0  0  0  0  0  0  0  0  0  0
  151.5649  137.1817  158.0154 H   0  0  0  0  0  0  0  0  0  0  0  0
  148.9085  133.4910  157.2457 H   0  0  0  0  0  0  0  0  0  0  0  0
  147.6892  134.6952  156.7994 H   0  0  0  0  0  0  0  0  0  0  0  0
  148.4845  134.7771  154.6287 H   0  0  0  0  0  0  0  0  0  0  0  0
  150.1912  133.1705  153.8111 H   0  0  0  0  0  0  0  0  0  0  0  0
  149.1188  132.3297  154.9223 H   0  0  0  0  0  0  0  0  0  0  0  0
  150.7207  132.8280  155.4572 H   0  0  0  0  0  0  0  0  0  0  0  0
  152.9970  140.4881  159.1866 H   0  0  0  0  0  0  0  0  0  0  0  0
  153.7596  141.1465  161.3079 H   0  0  0  0  0  0  0  0  0  0  0  0
  152.7373  142.2806  162.1845 H   0  0  0  0  0  0  0  0  0  0  0  0
  154.2093  142.8489  161.3817 H   0  0  0  0  0  0  0  0  0  0  0  0
  149.9128  143.6507  156.0776 H   0  0  0  0  0  0  0  0  0  0  0  0
  1  2  1  0  0  0  0
  1 24  1  0  0  0  0
  1 25  1  0  0  0  0
  1 26  1  0  0  0  0
  2 22  1  0  0  0  0
  2  3  2  0  0  0  0
  3  4  1  0  0  0  0
  3 27  1  0  0  0  0
  4 20  2  0  0  0  0
  4  5  1  0  0  0  0
  5  6  2  0  0  0  0
  5 45  1  0  0  0  0
  6  7  1  0  0  0  0
  6 28  1  0  0  0  0
  7  8  1  0  0  0  0
  7 20  1  0  0  0  0
  8  9  1  0  0  0  0
  8 29  1  0  0  0  0
  8 30  1  0  0  0  0
  9 10  1  0  0  0  0
  9 11  1  0  0  0  0
  9 31  1  0  0  0  0
 10 32  1  0  0  0  0
 11 12  1  0  0  0  0
 11 33  1  0  0  0  0
 11 34  1  0  0  0  0
 12 18  1  0  0  0  0
 12 13  1  0  0  0  0
 13 14  2  0  0  0  0
 13 15  1  0  0  0  0
 15 16  1  0  0  0  0
 15 35  1  0  0  0  0
 15 36  1  0  0  0  0
 16 17  1  0  0  0  0
 16 18  1  0  0  0  0
 16 37  1  0  0  0  0
 17 38  1  0  0  0  0
 17 39  1  0  0  0  0
 17 40  1  0  0  0  0
 18 19  2  0  0  0  0
 20 21  1  0  0  0  0
 21 22  2  0  0  0  0
 21 41  1  0  0  0  0
 22 23  1  0  0  0  0
 23 42  1  0  0  0  0
 23 43  1  0  0  0  0
 23 44  1  0  0  0  0
M  CHG  1   5   1
M  END
> <s_m_source_file>
AV-unprocessed.smi

> <i_m_source_file_index>
740

> <i_lp_mmshare_version>
43012

> <i_f3d_flags>
0

> <s_epik_input>
W0NIM11jKFtjSF0xKWMoW0NIM10pW2NIXWMoYzEyKW4oW2NIXW4yKVtDSDJdW0NASF0oW09IXSlbQ0gyXU4zQyg9TylbQ0gyXVtDQEBIXShbQ0gzXSlDMz1P

> <s_epik_cmdline>
J2VwaWtfcHl0aG9uJywgJy1waCcsICc3LjAnLCAnLXRuJywgJzgnLCAnLW1hJywgJzIwMCcsICctbWV0YWxfYmluZGluZycsICctaW1hZScsICc8aW5maWxlLm1hZT4nLCAnLW9tYWUnLCAnPG91dGZpbGUubWFlPic=

> <r_lp_tautomer_probability>
1

> <r_epik_Ionization_Penalty>
1.08202

> <r_epik_Ionization_Penalty_Charging>
1.08202

> <r_epik_Ionization_Penalty_Neutral>
1.16605e-06

> <r_epik_State_Penalty>
1.13754

> <r_epik_Charging_Adjusted_Penalty>
2.21956

> <i_epik_Tot_Q>
1

> <i_epik_Tot_abs_Q>
1

> <r_epik_Metal_State_Penalty>
5.13645

> <b_epik_Metal_Only>
0

> <s_lp_Force_Field>
OPLS_2005

> <r_lp_Energy>
22.2654

> <b_lp_Chiralities_Consistent>
1

> <s_lp_Variant>
AV-unprocessed.smi:740-7

> <Gold.Version>
5.8.1

> <Gold.Id.Protein>
6NUR|6NUR_protein|mol2

> <Gold.PLP.Fitness>
51.5453

> <Gold.PLP.PLP>
-40.7260

> <Gold.PLP.part.hbond>
-3.0000

> <Gold.PLP.part.metal>
0.0000

> <Gold.PLP.part.buried>
-6.1387

> <Gold.PLP.part.nonpolar>
-33.2396

> <Gold.PLP.part.repulsive>
1.6282

> <Gold.PLP.ligand.clash>
0.0000

> <Gold.PLP.ligand.torsion>
0.6127

> <Gold.PLP.Chemscore.Hbond>
4.0000

> <Gold.PLP.Chemscore.CHOScore>
0.0000

> <Gold.PLP.Chemscore.Metal>
0.0000

> <Gold.Chemscore.Hbonds>
donor molecule, donor type, donor heavy atom, donor atom, acceptor molecule, acceptor atom, score
      L1  H     5    45       P1  8028  2.00
      P1  H  6896  6907       L1    14  1.00
      P1  H 10752 10763       L1    19  1.00

> <Gold.PLP.Chemscore.Internal.Correction>
0.0447

> <Gold.Rescore>
     Score         DG    S(hbond)    S(metal)    S(lipo)     H(rot)  DE(clash)    DE(int)     intcor
     20.08     -21.79       2.89        0.00     108.88       2.37       1.13       0.58       ----

> <Gold.Chemscore.Fitness>
20.0823

> <Gold.Chemscore.DG>
-21.7881

> <Gold.Chemscore.ZeroCoef>
-5.4800

> <Gold.Chemscore.Hbond>
2.8871

> <Gold.Chemscore.Metal>
0.0000

> <Gold.Chemscore.Lipo>
108.8753

> <Gold.Chemscore.Internal_Hbond>
0.0000

> <Gold.Chemscore.DEClash>
1.1282

> <Gold.Chemscore.DEInternal>
0.5776

> <Gold.Chemscore.Rot>
2.3724

> <Gold.Chemscore.Internal.Correction>
   9.000000E+99

> <Gold.Chemscore.Hbonds>
donor molecule, donor type, donor heavy atom, donor atom, acceptor molecule, acceptor atom, score
      L1  H     5    45       P1  8028  0.93
      P1  H  6896  6907       L1    14  0.64
      P1  H 10752 10763       L1    19  0.96

> <Gold.Chemscore.Hbond.Weighted>
-9.6431

> <Gold.Chemscore.Metal.Weighted>
-0.0000

> <Gold.Chemscore.Lipo.Weighted>
-12.7384

> <Gold.Chemscore.Internal_Hbond.Weighted>
0.0000

> <Gold.Chemscore.DEClash.Weighted>
1.1282

> <Gold.Chemscore.DEInternal.Weighted>
0.5776

> <Gold.Chemscore.Rot.Weighted>
6.0734

> <Gold.Chemscore.Internal.Correction.Weighted>
   9.000000E+99

> <Gold.Protein.RotatedTorsions>
[ 6907 6896 6895 6894 ] final  -54.90 input  -60.11 | X-H torsion
[ 7974 7965 7964 7962 ] final -177.23 input  175.53 | X-H torsion
[ 8008 7997 7996 7995 ] final  -77.52 input   59.86 | X-H torsion
[ 10167 10162 10161 10158 ] final -102.27 input  -65.29 | X-H torsion
[ 10718 10713 10712 10709 ] final   54.75 input   66.30 | X-H torsion
[ 10763 10752 10751 10750 ] final   50.47 input  -60.55 | X-H torsion
[ 11005 11000 10999 10996 ] final  155.98 input  -57.11 | X-H torsion

> <Gold.Protein.ActiveResidues>
 VAL166  LYS551  ARG553  GLY616  TRP617  ASP618  TYR619  PRO620  LYS621  CYS622 
 ASP623  PHE694  ASN695  SER759  ASP760  ASP761  ALA762  ILE779  LEU786  VAL792 
 PHE793  MET794  SER795  GLU796  ALA797  LYS798  CYS799  TRP800  GLU811  SER814 

> <Gold.Protein.RotatedAtoms>
  150.8297  134.7545  159.6843 H   0  0  0  0  0  0  0  0  0  0  0  0  # atno 6907 bound_to 6896
  152.4404  134.5600  159.9901 H   0  0  0  0  0  0  0  0  0  0  0  0  # atno 6908 bound_to 6896
  151.5764  133.3346  159.3035 H   0  0  0  0  0  0  0  0  0  0  0  0  # atno 6909 bound_to 6896
  144.7127  140.1051  143.6414 H   0  0  0  0  0  0  0  0  0  0  0  0  # atno 7974 bound_to 7965
  154.5603  140.0709  156.8809 H   0  0  0  0  0  0  0  0  0  0  0  0  # atno 8008 bound_to 7997
  155.2823  140.3372  155.4239 H   0  0  0  0  0  0  0  0  0  0  0  0  # atno 8009 bound_to 7997
  156.2037  140.1731  156.7831 H   0  0  0  0  0  0  0  0  0  0  0  0  # atno 8010 bound_to 7997
  140.2325  143.3596  152.0874 H   0  0  0  0  0  0  0  0  0  0  0  0  # atno 10167 bound_to 10162
  157.5284  130.8613  149.8654 H   0  0  0  0  0  0  0  0  0  0  0  0  # atno 10718 bound_to 10713
  152.9784  135.5878  154.4258 H   0  0  0  0  0  0  0  0  0  0  0  0  # atno 10763 bound_to 10752
  154.3877  135.2767  155.2175 H   0  0  0  0  0  0  0  0  0  0  0  0  # atno 10764 bound_to 10752
  154.4061  135.6092  153.5980 H   0  0  0  0  0  0  0  0  0  0  0  0  # atno 10765 bound_to 10752
  140.1632  134.8595  157.2600 H   0  0  0  0  0  0  0  0  0  0  0  0  # atno 11005 bound_to 11000
  145.9504  139.2729  143.1216 LP  0  0  0  0  0  0  0  0  0  0  0  0  # atno 17320 bound_to 7965
  145.9329  140.9035  143.0347 LP  0  0  0  0  0  0  0  0  0  0  0  0  # atno 17321 bound_to 7965
  139.5105  144.6885  151.5823 LP  0  0  0  0  0  0  0  0  0  0  0  0  # atno 17342 bound_to 10162
  140.6174  143.9322  150.6499 LP  0  0  0  0  0  0  0  0  0  0  0  0  # atno 17343 bound_to 10162
  156.0404  130.3740  150.1450 LP  0  0  0  0  0  0  0  0  0  0  0  0  # atno 17370 bound_to 10713
  156.9636  130.9812  151.3474 LP  0  0  0  0  0  0  0  0  0  0  0  0  # atno 17371 bound_to 10713
  140.2464  134.3734  155.7459 LP  0  0  0  0  0  0  0  0  0  0  0  0  # atno 17394 bound_to 11000
  141.2211  133.7293  156.8869 LP  0  0  0  0  0  0  0  0  0  0  0  0  # atno 17395 bound_to 11000

$$$$
