AV-unprocessed.smi:2855|AV-procd|sdf|10989|dock1
  -GOLD-   2272015443D 1   1.00000     0.00000
 Structure written by MMmdl.
 46 47  0  0  0  0  0  0  0  0  2 V2000
  144.4454  132.1139  149.6014 C   0  0  0  0  0  0  0  0  0  0  0  0
  144.6040  133.1885  150.6863 C   0  0  2  0  0  0  0  0  0  0  0  0
  144.2987  134.5924  150.1384 C   0  0  0  0  0  0  0  0  0  0  0  0
  144.4500  135.6645  151.2277 C   0  0  0  0  0  0  0  0  0  0  0  0
  145.8603  135.6513  151.8650 C   0  0  1  0  0  0  0  0  0  0  0  0
  146.0705  136.7889  152.9098 C   0  0  0  0  0  0  0  0  0  0  0  0
  144.9978  136.8344  154.0136 C   0  0  0  0  0  0  0  0  0  0  0  0
  146.2288  138.1704  152.2513 C   0  0  0  0  0  0  0  0  0  0  0  0
  146.1871  134.2287  152.4019 C   0  0  2  0  0  0  0  0  0  0  0  0
  147.5604  134.1550  152.8995 N   0  0  0  0  0  0  0  0  0  0  0  0
  148.0645  133.1977  153.6936 C   0  0  0  0  0  0  0  0  0  0  0  0
  147.4049  132.2428  154.1068 O   0  0  0  0  0  0  0  0  0  0  0  0
  149.5368  133.3775  154.0901 C   0  0  0  0  0  0  0  0  0  0  0  0
  149.7267  134.1944  155.2999 N   0  0  0  0  0  0  0  0  0  0  0  0
  149.9205  135.5761  155.1265 C   0  0  0  0  0  0  0  0  0  0  0  0
  150.1000  136.4054  156.1721 C   0  0  0  0  0  0  0  0  0  0  0  0
  150.0903  135.8359  157.5138 C   0  0  0  0  0  0  0  0  0  0  0  0
  150.2598  136.5769  158.4802 O   0  0  0  0  0  0  0  0  0  0  0  0
  149.8909  134.4902  157.6307 N   0  5  0  0  0  0  0  0  0  0  0  0
  149.7056  133.6595  156.5579 C   0  0  0  0  0  0  0  0  0  0  0  0
  149.5225  132.4485  156.6862 O   0  0  0  0  0  0  0  0  0  0  0  0
  146.0119  133.1591  151.3056 C   0  0  0  0  0  0  0  0  0  0  0  0
  145.1428  132.2746  148.7785 H   0  0  0  0  0  0  0  0  0  0  0  0
  143.4362  132.1181  149.1887 H   0  0  0  0  0  0  0  0  0  0  0  0
  144.6313  131.1185  150.0062 H   0  0  0  0  0  0  0  0  0  0  0  0
  143.8831  132.9687  151.4752 H   0  0  0  0  0  0  0  0  0  0  0  0
  144.9666  134.8205  149.3065 H   0  0  0  0  0  0  0  0  0  0  0  0
  143.2850  134.6233  149.7372 H   0  0  0  0  0  0  0  0  0  0  0  0
  144.2363  136.6380  150.7881 H   0  0  0  0  0  0  0  0  0  0  0  0
  143.6909  135.4980  151.9923 H   0  0  0  0  0  0  0  0  0  0  0  0
  146.5690  135.8438  151.0575 H   0  0  0  0  0  0  0  0  0  0  0  0
  147.0213  136.6046  153.4096 H   0  0  0  0  0  0  0  0  0  0  0  0
  144.0152  137.0834  153.6137 H   0  0  0  0  0  0  0  0  0  0  0  0
  145.2442  137.5894  154.7604 H   0  0  0  0  0  0  0  0  0  0  0  0
  144.9154  135.8837  154.5390 H   0  0  0  0  0  0  0  0  0  0  0  0
  145.2998  138.5148  151.7973 H   0  0  0  0  0  0  0  0  0  0  0  0
  146.9959  138.1547  151.4767 H   0  0  0  0  0  0  0  0  0  0  0  0
  146.5253  138.9187  152.9869 H   0  0  0  0  0  0  0  0  0  0  0  0
  145.4835  133.9877  153.2000 H   0  0  0  0  0  0  0  0  0  0  0  0
  148.1818  134.8982  152.6155 H   0  0  0  0  0  0  0  0  0  0  0  0
  149.9943  132.3946  154.2165 H   0  0  0  0  0  0  0  0  0  0  0  0
  150.0636  133.8307  153.2492 H   0  0  0  0  0  0  0  0  0  0  0  0
  149.9072  135.9164  154.1015 H   0  0  0  0  0  0  0  0  0  0  0  0
  150.2443  137.4652  156.0219 H   0  0  0  0  0  0  0  0  0  0  0  0
  146.2052  132.1710  151.7263 H   0  0  0  0  0  0  0  0  0  0  0  0
  146.7566  133.3095  150.5222 H   0  0  0  0  0  0  0  0  0  0  0  0
  1  2  1  0  0  0  0
  1 23  1  0  0  0  0
  1 24  1  0  0  0  0
  1 25  1  0  0  0  0
  2 22  1  0  0  0  0
  2  3  1  0  0  0  0
  2 26  1  0  0  0  0
  3  4  1  0  0  0  0
  3 27  1  0  0  0  0
  3 28  1  0  0  0  0
  4  5  1  0  0  0  0
  4 29  1  0  0  0  0
  4 30  1  0  0  0  0
  5  6  1  0  0  0  0
  5  9  1  0  0  0  0
  5 31  1  0  0  0  0
  6  7  1  0  0  0  0
  6  8  1  0  0  0  0
  6 32  1  0  0  0  0
  7 33  1  0  0  0  0
  7 34  1  0  0  0  0
  7 35  1  0  0  0  0
  8 36  1  0  0  0  0
  8 37  1  0  0  0  0
  8 38  1  0  0  0  0
  9 10  1  0  0  0  0
  9 22  1  0  0  0  0
  9 39  1  0  0  0  0
 10 11  1  0  0  0  0
 10 40  1  0  0  0  0
 11 12  2  0  0  0  0
 11 13  1  0  0  0  0
 13 14  1  0  0  0  0
 13 41  1  0  0  0  0
 13 42  1  0  0  0  0
 14 20  1  0  0  0  0
 14 15  1  0  0  0  0
 15 16  2  0  0  0  0
 15 43  1  0  0  0  0
 16 17  1  0  0  0  0
 16 44  1  0  0  0  0
 17 18  2  0  0  0  0
 17 19  1  0  0  0  0
 19 20  1  0  0  0  0
 20 21  2  0  0  0  0
 22 45  1  0  0  0  0
 22 46  1  0  0  0  0
M  CHG  1  19  -1
M  END
> <s_m_source_file>
AV-unprocessed.smi

> <i_m_source_file_index>
2855

> <i_lp_mmshare_version>
43012

> <i_f3d_flags>
0

> <s_epik_input>
W0NIM11bQ0BASF0xW0NIMl1bQ0gyXVtDQEBIXShbQ0hdKFtDSDNdKVtDSDNdKVtDQEhdKFtDSDJdMSlbTkhdQyg9TylbQ0gyXW4yW2NIXVtjSF1jKD1PKVtuSF1jMj1P

> <s_epik_cmdline>
J2VwaWtfcHl0aG9uJywgJy1waCcsICc3LjAnLCAnLXRuJywgJzgnLCAnLW1hJywgJzIwMCcsICctbWV0YWxfYmluZGluZycsICctaW1hZScsICc8aW5maWxlLm1hZT4nLCAnLW9tYWUnLCAnPG91dGZpbGUubWFlPic=

> <r_lp_tautomer_probability>
0.999537

> <r_epik_Ionization_Penalty>
3.12102

> <r_epik_Ionization_Penalty_Charging>
2.9581e-08

> <r_epik_Ionization_Penalty_Neutral>
3.12102

> <r_epik_State_Penalty>
3.12011

> <r_epik_Charging_Adjusted_Penalty>
3.12011

> <i_epik_Tot_Q>
-1

> <i_epik_Tot_abs_Q>
1

> <r_epik_Metal_State_Penalty>
0.463583

> <b_epik_Metal_Only>
1

> <s_lp_Force_Field>
OPLS_2005

> <r_lp_Energy>
24.0282

> <b_lp_Chiralities_Consistent>
1

> <s_lp_Variant>
AV-unprocessed.smi:2855-13

> <Gold.Version>
5.8.1

> <Gold.Id.Protein>
6NUR|6NUR_protein|mol2

> <Gold.PLP.Fitness>
42.1407

> <Gold.PLP.PLP>
-32.3058

> <Gold.PLP.part.hbond>
-2.6879

> <Gold.PLP.part.metal>
0.0000

> <Gold.PLP.part.buried>
-2.0214

> <Gold.PLP.part.nonpolar>
-28.6996

> <Gold.PLP.part.repulsive>
0.0469

> <Gold.PLP.ligand.clash>
0.0000

> <Gold.PLP.ligand.torsion>
1.1246

> <Gold.PLP.Chemscore.Hbond>
2.9840

> <Gold.PLP.Chemscore.CHOScore>
1.0000

> <Gold.PLP.Chemscore.Metal>
0.0000

> <Gold.Chemscore.Hbonds>
donor molecule, donor type, donor heavy atom, donor atom, acceptor molecule, acceptor atom, score
      L1  H    10    40       P1  7948  1.00
      P1  H  6896  6908       L1    19  1.89
      L1  C    15    43       P1  7948  0.93

> <Gold.PLP.Chemscore.Internal.Correction>
0.1320

> <Gold.Rescore>
     Score         DG    S(hbond)    S(metal)    S(lipo)     H(rot)  DE(clash)    DE(int)     intcor
     13.75     -14.87       1.68        0.00      72.05       1.81       0.01       1.11       ----

> <Gold.Chemscore.Fitness>
13.7453

> <Gold.Chemscore.DG>
-14.8718

> <Gold.Chemscore.ZeroCoef>
-5.4800

> <Gold.Chemscore.Hbond>
1.6752

> <Gold.Chemscore.Metal>
0.0000

> <Gold.Chemscore.Lipo>
72.0521

> <Gold.Chemscore.Internal_Hbond>
0.0000

> <Gold.Chemscore.DEClash>
0.0121

> <Gold.Chemscore.DEInternal>
1.1144

> <Gold.Chemscore.Rot>
1.8100

> <Gold.Chemscore.Internal.Correction>
   9.000000E+99

> <Gold.Chemscore.Hbonds>
donor molecule, donor type, donor heavy atom, donor atom, acceptor molecule, acceptor atom, score
      L1  H    10    40       P1  7948  0.70
      P1  H  6896  6908       L1    19  0.31

> <Gold.Chemscore.Hbond.Weighted>
-5.5952

> <Gold.Chemscore.Metal.Weighted>
-0.0000

> <Gold.Chemscore.Lipo.Weighted>
-8.4301

> <Gold.Chemscore.Internal_Hbond.Weighted>
0.0000

> <Gold.Chemscore.DEClash.Weighted>
0.0121

> <Gold.Chemscore.DEInternal.Weighted>
1.1144

> <Gold.Chemscore.Rot.Weighted>
4.6335

> <Gold.Chemscore.Internal.Correction.Weighted>
   9.000000E+99

> <Gold.Protein.RotatedTorsions>
[ 6907 6896 6895 6894 ] final  139.28 input  -60.11 | X-H torsion
[ 7974 7965 7964 7962 ] final  -92.47 input  175.53 | X-H torsion
[ 8008 7997 7996 7995 ] final   83.42 input   59.86 | X-H torsion
[ 10167 10162 10161 10158 ] final  -54.99 input  -65.29 | X-H torsion
[ 10718 10713 10712 10709 ] final  -44.82 input   66.30 | X-H torsion
[ 10763 10752 10751 10750 ] final  -85.76 input  -60.55 | X-H torsion
[ 11005 11000 10999 10996 ] final   79.34 input  -57.11 | X-H torsion

> <Gold.Protein.ActiveResidues>
 VAL166  LYS551  ARG553  GLY616  TRP617  ASP618  TYR619  PRO620  LYS621  CYS622 
 ASP623  PHE694  ASN695  SER759  ASP760  ASP761  ALA762  ILE779  LEU786  VAL792 
 PHE793  MET794  SER795  GLU796  ALA797  LYS798  CYS799  TRP800  GLU811  SER814 

> <Gold.Protein.RotatedAtoms>
  152.2568  133.5262  159.5357 H   0  0  0  0  0  0  0  0  0  0  0  0  # atno 6907 bound_to 6896
  150.7111  134.0885  159.3932 H   0  0  0  0  0  0  0  0  0  0  0  0  # atno 6908 bound_to 6896
  151.8803  135.0456  160.0539 H   0  0  0  0  0  0  0  0  0  0  0  0  # atno 6909 bound_to 6896
  145.3994  140.9536  143.2295 H   0  0  0  0  0  0  0  0  0  0  0  0  # atno 7974 bound_to 7965
  155.9236  140.3419  155.6193 H   0  0  0  0  0  0  0  0  0  0  0  0  # atno 8008 bound_to 7997
  155.7243  140.0787  157.2335 H   0  0  0  0  0  0  0  0  0  0  0  0  # atno 8009 bound_to 7997
  154.4073  140.1600  156.2424 H   0  0  0  0  0  0  0  0  0  0  0  0  # atno 8010 bound_to 7997
  140.6400  143.2502  151.5015 H   0  0  0  0  0  0  0  0  0  0  0  0  # atno 10167 bound_to 10162
  156.2346  130.4175  149.8833 H   0  0  0  0  0  0  0  0  0  0  0  0  # atno 10718 bound_to 10713
  154.6147  135.5473  153.7511 H   0  0  0  0  0  0  0  0  0  0  0  0  # atno 10763 bound_to 10752
  153.0211  135.6398  154.1527 H   0  0  0  0  0  0  0  0  0  0  0  0  # atno 10764 bound_to 10752
  154.1463  135.2905  155.3127 H   0  0  0  0  0  0  0  0  0  0  0  0  # atno 10765 bound_to 10752
  139.9176  134.7835  156.1766 H   0  0  0  0  0  0  0  0  0  0  0  0  # atno 11005 bound_to 11000
  144.8384  139.5512  143.6911 LP  0  0  0  0  0  0  0  0  0  0  0  0  # atno 17320 bound_to 7965
  146.2759  139.6752  142.9263 LP  0  0  0  0  0  0  0  0  0  0  0  0  # atno 17321 bound_to 7965
  139.5609  144.2158  152.1690 LP  0  0  0  0  0  0  0  0  0  0  0  0  # atno 17342 bound_to 10162
  140.1426  144.5188  150.6735 LP  0  0  0  0  0  0  0  0  0  0  0  0  # atno 17343 bound_to 10162
  156.6436  130.8715  151.3518 LP  0  0  0  0  0  0  0  0  0  0  0  0  # atno 17370 bound_to 10713
  157.7148  130.9484  150.1218 LP  0  0  0  0  0  0  0  0  0  0  0  0  # atno 17371 bound_to 10713
  141.0668  133.6815  156.2060 LP  0  0  0  0  0  0  0  0  0  0  0  0  # atno 17394 bound_to 11000
  140.6572  134.5005  157.5581 LP  0  0  0  0  0  0  0  0  0  0  0  0  # atno 17395 bound_to 11000

$$$$
