AV-unprocessed.smi:1622|AV-procd|sdf|6498|dock8
  -GOLD-   22720 7163D 1   1.00000     0.00000
 Structure written by MMmdl.
 41 42  0  0  0  0  0  0  0  0  2 V2000
  145.5133  143.1899  154.5469 C   0  0  0  0  0  0  0  0  0  0  0  0
  146.5785  142.1510  154.9289 C   0  0  0  0  0  0  0  0  0  0  0  0
  147.3214  141.5161  153.7219 C   0  0  1  0  0  0  0  0  0  0  0  0
  148.7780  141.1056  154.0786 C   0  0  0  0  0  0  0  0  0  0  0  0
  149.3906  141.9699  155.0870 N   0  0  0  0  0  0  0  0  0  0  0  0
  150.2338  141.5705  156.0496 C   0  0  0  0  0  0  0  0  0  0  0  0
  150.6018  140.4049  156.1884 O   0  0  0  0  0  0  0  0  0  0  0  0
  150.6158  142.6028  156.8182 N   0  0  0  0  0  0  0  0  0  0  0  0
  151.4882  142.5815  157.9350 C   0  0  0  0  0  0  0  0  0  0  0  0
  151.9293  143.7498  158.4092 N   0  0  0  0  0  0  0  0  0  0  0  0
  152.7681  143.5817  159.5028 N   0  0  0  0  0  0  0  0  0  0  0  0
  152.9374  142.2924  159.8228 C   0  0  0  0  0  0  0  0  0  0  0  0
  153.7869  141.8492  160.9644 C   0  0  0  0  0  0  0  0  0  0  0  0
  152.0715  141.1568  158.7955 S   0  0  0  0  0  0  0  0  0  0  0  0
  146.5665  140.3562  153.1563 N   0  3  0  0  0  0  0  0  0  0  0  0
  147.0066  139.8699  151.8301 C   0  0  0  0  0  0  0  0  0  0  0  0
  146.4432  138.4582  151.7199 C   0  0  0  0  0  0  0  0  0  0  0  0
  146.5778  137.9215  153.1396 C   0  0  0  0  0  0  0  0  0  0  0  0
  146.4942  139.1627  154.0385 C   0  0  0  0  0  0  0  0  0  0  0  0
  144.9560  143.5071  155.4284 H   0  0  0  0  0  0  0  0  0  0  0  0
  144.7971  142.7775  153.8357 H   0  0  0  0  0  0  0  0  0  0  0  0
  145.9491  144.0854  154.1070 H   0  0  0  0  0  0  0  0  0  0  0  0
  147.2916  142.5941  155.6243 H   0  0  0  0  0  0  0  0  0  0  0  0
  146.0544  141.3806  155.4931 H   0  0  0  0  0  0  0  0  0  0  0  0
  147.3726  142.2776  152.9419 H   0  0  0  0  0  0  0  0  0  0  0  0
  148.7845  140.0954  154.4875 H   0  0  0  0  0  0  0  0  0  0  0  0
  149.4049  141.0392  153.1897 H   0  0  0  0  0  0  0  0  0  0  0  0
  149.1359  142.9466  155.0619 H   0  0  0  0  0  0  0  0  0  0  0  0
  150.2362  143.5084  156.5847 H   0  0  0  0  0  0  0  0  0  0  0  0
  154.5137  142.6199  161.2233 H   0  0  0  0  0  0  0  0  0  0  0  0
  154.3244  140.9383  160.7007 H   0  0  0  0  0  0  0  0  0  0  0  0
  153.1629  141.6485  161.8352 H   0  0  0  0  0  0  0  0  0  0  0  0
  146.6515  140.5081  151.0204 H   0  0  0  0  0  0  0  0  0  0  0  0
  148.0969  139.8374  151.7916 H   0  0  0  0  0  0  0  0  0  0  0  0
  145.3902  138.5007  151.4376 H   0  0  0  0  0  0  0  0  0  0  0  0
  146.9658  137.8483  150.9823 H   0  0  0  0  0  0  0  0  0  0  0  0
  145.8139  137.1798  153.3768 H   0  0  0  0  0  0  0  0  0  0  0  0
  147.5514  137.4444  153.2618 H   0  0  0  0  0  0  0  0  0  0  0  0
  147.3133  139.1444  154.7589 H   0  0  0  0  0  0  0  0  0  0  0  0
  145.5591  139.1848  154.5991 H   0  0  0  0  0  0  0  0  0  0  0  0
  145.6131  140.6641  153.0280 H   0  0  0  0  0  0  0  0  0  0  0  0
  1  2  1  0  0  0  0
  1 20  1  0  0  0  0
  1 21  1  0  0  0  0
  1 22  1  0  0  0  0
  2  3  1  0  0  0  0
  2 23  1  0  0  0  0
  2 24  1  0  0  0  0
  3  4  1  0  0  0  0
  3 15  1  0  0  0  0
  3 25  1  0  0  0  0
  4  5  1  0  0  0  0
  4 26  1  0  0  0  0
  4 27  1  0  0  0  0
  5  6  1  0  0  0  0
  5 28  1  0  0  0  0
  6  7  2  0  0  0  0
  6  8  1  0  0  0  0
  8  9  1  0  0  0  0
  8 29  1  0  0  0  0
  9 14  1  0  0  0  0
  9 10  2  0  0  0  0
 10 11  1  0  0  0  0
 11 12  2  0  0  0  0
 12 13  1  0  0  0  0
 12 14  1  0  0  0  0
 13 30  1  0  0  0  0
 13 31  1  0  0  0  0
 13 32  1  0  0  0  0
 15 19  1  0  0  0  0
 15 16  1  0  0  0  0
 15 41  1  0  0  0  0
 16 17  1  0  0  0  0
 16 33  1  0  0  0  0
 16 34  1  0  0  0  0
 17 18  1  0  0  0  0
 17 35  1  0  0  0  0
 17 36  1  0  0  0  0
 18 19  1  0  0  0  0
 18 37  1  0  0  0  0
 18 38  1  0  0  0  0
 19 39  1  0  0  0  0
 19 40  1  0  0  0  0
M  CHG  1  15   1
M  END
> <s_m_source_file>
AV-unprocessed.smi

> <i_m_source_file_index>
1622

> <i_lp_mmshare_version>
43012

> <i_f3d_flags>
0

> <s_epik_input>
W0NIMl0xW0NIMl1bQ0gyXVtDSDJdTjFbQ0BIXShbQ0gyXVtDSDNdKVtDSDJdW05IXUMoPU8pW05IXWMybm5jKHMyKVtDSDNd

> <s_epik_cmdline>
J2VwaWtfcHl0aG9uJywgJy1waCcsICc3LjAnLCAnLXRuJywgJzgnLCAnLW1hJywgJzIwMCcsICctbWV0YWxfYmluZGluZycsICctaW1hZScsICc8aW5maWxlLm1hZT4nLCAnLW9tYWUnLCAnPG91dGZpbGUubWFlPic=

> <r_lp_tautomer_probability>
1

> <r_epik_Ionization_Penalty>
0.00164835

> <r_epik_Ionization_Penalty_Charging>
0.00115997

> <r_epik_Ionization_Penalty_Neutral>
0.00048838

> <r_epik_State_Penalty>
-0

> <r_epik_Charging_Adjusted_Penalty>
0.00115997

> <i_epik_Tot_Q>
1

> <i_epik_Tot_abs_Q>
1

> <r_epik_Metal_State_Penalty>
0.216651

> <b_epik_Metal_Only>
0

> <s_lp_Force_Field>
OPLS_2005

> <r_lp_Energy>
37.4677

> <b_lp_Chiralities_Consistent>
1

> <s_lp_Variant>
AV-unprocessed.smi:1622-2

> <Gold.Version>
5.8.1

> <Gold.Id.Protein>
6NUR|6NUR_protein|mol2

> <Gold.PLP.Fitness>
50.8636

> <Gold.PLP.PLP>
-40.5503

> <Gold.PLP.part.hbond>
-3.0000

> <Gold.PLP.part.metal>
0.0000

> <Gold.PLP.part.buried>
-3.1083

> <Gold.PLP.part.nonpolar>
-35.1803

> <Gold.PLP.part.repulsive>
0.3730

> <Gold.PLP.ligand.clash>
0.0000

> <Gold.PLP.ligand.torsion>
0.9020

> <Gold.PLP.Chemscore.Hbond>
4.0000

> <Gold.PLP.Chemscore.CHOScore>
0.0000

> <Gold.PLP.Chemscore.Metal>
0.0000

> <Gold.Chemscore.Hbonds>
donor molecule, donor type, donor heavy atom, donor atom, acceptor molecule, acceptor atom, score
      L1  H     5    28       P1  8028  1.00
      L1  H     8    29       P1  8028  1.00
      L1  H    15    41       P1 10175  2.00

> <Gold.PLP.Chemscore.Internal.Correction>
0.1174

> <Gold.Rescore>
     Score         DG    S(hbond)    S(metal)    S(lipo)     H(rot)  DE(clash)    DE(int)     intcor
     18.01     -20.23       2.91        0.00      81.98       1.77       0.14       2.09       ----

> <Gold.Chemscore.Fitness>
18.0054

> <Gold.Chemscore.DG>
-20.2343

> <Gold.Chemscore.ZeroCoef>
-5.4800

> <Gold.Chemscore.Hbond>
2.9054

> <Gold.Chemscore.Metal>
0.0000

> <Gold.Chemscore.Lipo>
81.9765

> <Gold.Chemscore.Internal_Hbond>
0.0000

> <Gold.Chemscore.DEClash>
0.1363

> <Gold.Chemscore.DEInternal>
2.0927

> <Gold.Chemscore.Rot>
1.7738

> <Gold.Chemscore.Internal.Correction>
   9.000000E+99

> <Gold.Chemscore.Hbonds>
donor molecule, donor type, donor heavy atom, donor atom, acceptor molecule, acceptor atom, score
      L1  H     5    28       P1  8028  1.00
      L1  H     8    29       P1  8028  0.91
      L1  H    15    41       P1 10175  0.66

> <Gold.Chemscore.Hbond.Weighted>
-9.7041

> <Gold.Chemscore.Metal.Weighted>
-0.0000

> <Gold.Chemscore.Lipo.Weighted>
-9.5913

> <Gold.Chemscore.Internal_Hbond.Weighted>
0.0000

> <Gold.Chemscore.DEClash.Weighted>
0.1363

> <Gold.Chemscore.DEInternal.Weighted>
2.0927

> <Gold.Chemscore.Rot.Weighted>
4.5411

> <Gold.Chemscore.Internal.Correction.Weighted>
   9.000000E+99

> <Gold.Protein.RotatedTorsions>
[ 6907 6896 6895 6894 ] final  169.70 input  -60.11 | X-H torsion
[ 7974 7965 7964 7962 ] final   76.96 input  175.53 | X-H torsion
[ 8008 7997 7996 7995 ] final  147.43 input   59.86 | X-H torsion
[ 10167 10162 10161 10158 ] final -139.90 input  -65.29 | X-H torsion
[ 10718 10713 10712 10709 ] final -103.89 input   66.30 | X-H torsion
[ 10763 10752 10751 10750 ] final  120.87 input  -60.55 | X-H torsion
[ 11005 11000 10999 10996 ] final   74.56 input  -57.11 | X-H torsion

> <Gold.Protein.ActiveResidues>
 VAL166  LYS551  ARG553  GLY616  TRP617  ASP618  TYR619  PRO620  LYS621  CYS622 
 ASP623  PHE694  ASN695  SER759  ASP760  ASP761  ALA762  ILE779  LEU786  VAL792 
 PHE793  MET794  SER795  GLU796  ALA797  LYS798  CYS799  TRP800  GLU811  SER814 

> <Gold.Protein.RotatedAtoms>
  151.8278  133.3404  159.3603 H   0  0  0  0  0  0  0  0  0  0  0  0  # atno 6907 bound_to 6896
  150.7274  134.5512  159.5805 H   0  0  0  0  0  0  0  0  0  0  0  0  # atno 6908 bound_to 6896
  152.2958  134.7669  160.0419 H   0  0  0  0  0  0  0  0  0  0  0  0  # atno 6909 bound_to 6896
  145.6961  139.2568  143.1732 H   0  0  0  0  0  0  0  0  0  0  0  0  # atno 7974 bound_to 7965
  156.2825  140.2156  156.5537 H   0  0  0  0  0  0  0  0  0  0  0  0  # atno 8008 bound_to 7997
  154.7270  140.0498  157.0714 H   0  0  0  0  0  0  0  0  0  0  0  0  # atno 8009 bound_to 7997
  155.0403  140.3145  155.4730 H   0  0  0  0  0  0  0  0  0  0  0  0  # atno 8010 bound_to 7997
  139.8334  143.7417  152.2665 H   0  0  0  0  0  0  0  0  0  0  0  0  # atno 10167 bound_to 10162
  156.0283  130.5489  150.7318 H   0  0  0  0  0  0  0  0  0  0  0  0  # atno 10718 bound_to 10713
  153.6052  135.3440  155.2959 H   0  0  0  0  0  0  0  0  0  0  0  0  # atno 10763 bound_to 10752
  154.8629  135.4237  154.2369 H   0  0  0  0  0  0  0  0  0  0  0  0  # atno 10764 bound_to 10752
  153.3207  135.7038  153.7105 H   0  0  0  0  0  0  0  0  0  0  0  0  # atno 10765 bound_to 10752
  139.9385  134.7444  156.1163 H   0  0  0  0  0  0  0  0  0  0  0  0  # atno 11005 bound_to 11000
  146.0839  140.7733  142.9628 LP  0  0  0  0  0  0  0  0  0  0  0  0  # atno 17320 bound_to 7965
  144.6982  140.3531  143.7178 LP  0  0  0  0  0  0  0  0  0  0  0  0  # atno 17321 bound_to 7965
  139.7632  144.7500  151.0334 LP  0  0  0  0  0  0  0  0  0  0  0  0  # atno 17342 bound_to 10162
  140.7805  143.4728  151.0123 LP  0  0  0  0  0  0  0  0  0  0  0  0  # atno 17343 bound_to 10162
  157.4909  131.0911  151.0428 LP  0  0  0  0  0  0  0  0  0  0  0  0  # atno 17370 bound_to 10713
  157.0835  130.5913  149.5425 LP  0  0  0  0  0  0  0  0  0  0  0  0  # atno 17371 bound_to 10713
  141.1009  133.6677  156.2753 LP  0  0  0  0  0  0  0  0  0  0  0  0  # atno 17394 bound_to 11000
  140.6013  134.5552  157.5518 LP  0  0  0  0  0  0  0  0  0  0  0  0  # atno 17395 bound_to 11000

$$$$
