AV-unprocessed.smi:1161|AV-procd|sdf|4917|dock7
  -GOLD-   22720 3493D 1   1.00000     0.00000
 Structure written by MMmdl.
 46 47  0  0  0  0  0  0  0  0  1 V2000
  143.4161  133.6732  151.7591 C   0  0  0  0  0  0  0  0  0  0  0  0
  143.2088  135.1603  152.0905 C   0  0  0  0  0  0  0  0  0  0  0  0
  144.5014  136.0168  152.1576 C   0  0  1  0  0  0  0  0  0  0  0  0
  145.3659  135.8597  150.8915 C   0  0  0  0  0  0  0  0  0  0  0  0
  144.1469  137.3851  152.2344 O   0  0  0  0  0  0  0  0  0  0  0  0
  145.3722  135.7045  153.4013 C   0  0  0  0  0  0  0  0  0  0  0  0
  146.6421  136.4297  153.4164 N   0  0  0  0  0  0  0  0  0  0  0  0
  147.0616  137.2529  154.3880 C   0  0  0  0  0  0  0  0  0  0  0  0
  146.4156  137.4841  155.4095 O   0  0  0  0  0  0  0  0  0  0  0  0
  148.2672  137.7703  154.0958 N   0  0  0  0  0  0  0  0  0  0  0  0
  149.0562  138.6714  154.8612 C   0  0  0  0  0  0  0  0  0  0  0  0
  148.6938  138.8861  156.2061 C   0  0  0  0  0  0  0  0  0  0  0  0
  149.4588  139.7672  156.9932 C   0  0  0  0  0  0  0  0  0  0  0  0
  150.5758  140.4039  156.4060 C   0  0  0  0  0  0  0  0  0  0  0  0
  151.3739  141.3014  157.1275 N   0  0  0  0  0  0  0  0  0  0  0  0
  150.7198  142.5755  157.3959 C   0  0  0  0  0  0  0  0  0  0  0  0
  151.7096  143.5412  158.0697 C   0  0  0  0  0  0  0  0  0  0  0  0
  152.2321  142.9398  159.2513 O   0  0  0  0  0  0  0  0  0  0  0  0
  152.9347  141.7320  158.9709 C   0  0  0  0  0  0  0  0  0  0  0  0
  151.9794  140.7179  158.3177 C   0  0  0  0  0  0  0  0  0  0  0  0
  150.9422  140.1898  155.1245 N   0  0  0  0  0  0  0  0  0  0  0  0
  150.2040  139.3438  154.3745 C   0  0  0  0  0  0  0  0  0  0  0  0
  142.4556  133.1674  151.6592 H   0  0  0  0  0  0  0  0  0  0  0  0
  143.9711  133.1574  152.5422 H   0  0  0  0  0  0  0  0  0  0  0  0
  143.9539  133.5431  150.8199 H   0  0  0  0  0  0  0  0  0  0  0  0
  142.5316  135.5711  151.3411 H   0  0  0  0  0  0  0  0  0  0  0  0
  142.6804  135.2344  153.0419 H   0  0  0  0  0  0  0  0  0  0  0  0
  145.6387  134.8164  150.7292 H   0  0  0  0  0  0  0  0  0  0  0  0
  146.2915  136.4314  150.9700 H   0  0  0  0  0  0  0  0  0  0  0  0
  144.8518  136.2101  149.9964 H   0  0  0  0  0  0  0  0  0  0  0  0
  144.3369  137.7910  151.4026 H   0  0  0  0  0  0  0  0  0  0  0  0
  144.8045  135.9294  154.3059 H   0  0  0  0  0  0  0  0  0  0  0  0
  145.5902  134.6369  153.4546 H   0  0  0  0  0  0  0  0  0  0  0  0
  147.2394  136.3042  152.6123 H   0  0  0  0  0  0  0  0  0  0  0  0
  148.6981  137.4329  153.2476 H   0  0  0  0  0  0  0  0  0  0  0  0
  147.8348  138.3876  156.6312 H   0  0  0  0  0  0  0  0  0  0  0  0
  149.1889  139.9491  158.0231 H   0  0  0  0  0  0  0  0  0  0  0  0
  150.3516  143.0056  156.4637 H   0  0  0  0  0  0  0  0  0  0  0  0
  149.8566  142.4207  158.0446 H   0  0  0  0  0  0  0  0  0  0  0  0
  152.5229  143.8010  157.3902 H   0  0  0  0  0  0  0  0  0  0  0  0
  151.2066  144.4708  158.3356 H   0  0  0  0  0  0  0  0  0  0  0  0
  153.7870  141.9376  158.3213 H   0  0  0  0  0  0  0  0  0  0  0  0
  153.3333  141.3284  159.9015 H   0  0  0  0  0  0  0  0  0  0  0  0
  151.2020  140.4321  159.0272 H   0  0  0  0  0  0  0  0  0  0  0  0
  152.5223  139.8108  158.0490 H   0  0  0  0  0  0  0  0  0  0  0  0
  150.5693  139.2035  153.3696 H   0  0  0  0  0  0  0  0  0  0  0  0
  1  2  1  0  0  0  0
  1 23  1  0  0  0  0
  1 24  1  0  0  0  0
  1 25  1  0  0  0  0
  2  3  1  0  0  0  0
  2 26  1  0  0  0  0
  2 27  1  0  0  0  0
  3  4  1  0  0  0  0
  3  5  1  0  0  0  0
  3  6  1  0  0  0  0
  4 28  1  0  0  0  0
  4 29  1  0  0  0  0
  4 30  1  0  0  0  0
  5 31  1  0  0  0  0
  6  7  1  0  0  0  0
  6 32  1  0  0  0  0
  6 33  1  0  0  0  0
  7  8  1  0  0  0  0
  7 34  1  0  0  0  0
  8  9  2  0  0  0  0
  8 10  1  0  0  0  0
 10 11  1  0  0  0  0
 10 35  1  0  0  0  0
 11 22  1  0  0  0  0
 11 12  2  0  0  0  0
 12 13  1  0  0  0  0
 12 36  1  0  0  0  0
 13 14  2  0  0  0  0
 13 37  1  0  0  0  0
 14 15  1  0  0  0  0
 14 21  1  0  0  0  0
 15 20  1  0  0  0  0
 15 16  1  0  0  0  0
 16 17  1  0  0  0  0
 16 38  1  0  0  0  0
 16 39  1  0  0  0  0
 17 18  1  0  0  0  0
 17 40  1  0  0  0  0
 17 41  1  0  0  0  0
 18 19  1  0  0  0  0
 19 20  1  0  0  0  0
 19 42  1  0  0  0  0
 19 43  1  0  0  0  0
 20 44  1  0  0  0  0
 20 45  1  0  0  0  0
 21 22  2  0  0  0  0
 22 46  1  0  0  0  0
M  END
> <s_m_source_file>
AV-unprocessed.smi

> <i_m_source_file_index>
1161

> <i_lp_mmshare_version>
43012

> <i_f3d_flags>
0

> <s_epik_input>
W0NIM11bQ0gyXVtDQEBdKFtDSDNdKShbT0hdKVtDSDJdW05IXUMoPU8pW05IXWMxW2NIXVtjSF1jKG5bY0hdMSlOMltDSDJdW0NIMl1PW0NIMl1bQ0gyXTI=

> <s_epik_cmdline>
J2VwaWtfcHl0aG9uJywgJy1waCcsICc3LjAnLCAnLXRuJywgJzgnLCAnLW1hJywgJzIwMCcsICctbWV0YWxfYmluZGluZycsICctaW1hZScsICc8aW5maWxlLm1hZT4nLCAnLW9tYWUnLCAnPG91dGZpbGUubWFlPic=

> <r_lp_tautomer_probability>
1

> <r_epik_Ionization_Penalty>
0.00208949

> <r_epik_Ionization_Penalty_Charging>
0

> <r_epik_Ionization_Penalty_Neutral>
0.00208949

> <r_epik_State_Penalty>
0.00140033

> <r_epik_Charging_Adjusted_Penalty>
0.00140033

> <i_epik_Tot_Q>
0

> <i_epik_Tot_abs_Q>
0

> <r_epik_Metal_State_Penalty>
-0

> <b_epik_Metal_Only>
0

> <s_lp_Force_Field>
OPLS_2005

> <r_lp_Energy>
26.851

> <b_lp_Chiralities_Consistent>
1

> <s_lp_Variant>
AV-unprocessed.smi:1161-1

> <Gold.Version>
5.8.1

> <Gold.Id.Protein>
6NUR|6NUR_protein|mol2

> <Gold.PLP.Fitness>
45.7609

> <Gold.PLP.PLP>
-33.0049

> <Gold.PLP.part.hbond>
-4.5727

> <Gold.PLP.part.metal>
0.0000

> <Gold.PLP.part.buried>
-6.0395

> <Gold.PLP.part.nonpolar>
-23.3919

> <Gold.PLP.part.repulsive>
0.0957

> <Gold.PLP.ligand.clash>
0.0000

> <Gold.PLP.ligand.torsion>
0.2689

> <Gold.PLP.Chemscore.Hbond>
3.4000

> <Gold.PLP.Chemscore.CHOScore>
0.9787

> <Gold.PLP.Chemscore.Metal>
0.0000

> <Gold.Chemscore.Hbonds>
donor molecule, donor type, donor heavy atom, donor atom, acceptor molecule, acceptor atom, score
      L1  H     5    31       P1 10171  1.00
      L1  H     7    34       P1  7948  1.00
      L1  H    10    35       P1  7948  1.00
      P1  H  7989  7998       L1    21  0.35
      L1  C    22    46       P1  7957  0.99

> <Gold.PLP.Chemscore.Internal.Correction>
0.1576

> <Gold.Rescore>
     Score         DG    S(hbond)    S(metal)    S(lipo)     H(rot)  DE(clash)    DE(int)     intcor
     17.09     -18.67       2.96        0.00      75.50       2.16       0.04       1.54       ----

> <Gold.Chemscore.Fitness>
17.0923

> <Gold.Chemscore.DG>
-18.6668

> <Gold.Chemscore.ZeroCoef>
-5.4800

> <Gold.Chemscore.Hbond>
2.9613

> <Gold.Chemscore.Metal>
0.0000

> <Gold.Chemscore.Lipo>
75.5046

> <Gold.Chemscore.Internal_Hbond>
0.0000

> <Gold.Chemscore.DEClash>
0.0358

> <Gold.Chemscore.DEInternal>
1.5387

> <Gold.Chemscore.Rot>
2.1633

> <Gold.Chemscore.Internal.Correction>
   9.000000E+99

> <Gold.Chemscore.Hbonds>
donor molecule, donor type, donor heavy atom, donor atom, acceptor molecule, acceptor atom, score
      L1  H     5    31       P1 10171  0.97
      L1  H     7    34       P1  7948  0.95
      L1  H    10    35       P1  7948  0.99
      P1  H  7989  7998       L1    21  0.01

> <Gold.Chemscore.Hbond.Weighted>
-9.8908

> <Gold.Chemscore.Metal.Weighted>
-0.0000

> <Gold.Chemscore.Lipo.Weighted>
-8.8340

> <Gold.Chemscore.Internal_Hbond.Weighted>
0.0000

> <Gold.Chemscore.DEClash.Weighted>
0.0358

> <Gold.Chemscore.DEInternal.Weighted>
1.5387

> <Gold.Chemscore.Rot.Weighted>
5.5379

> <Gold.Chemscore.Internal.Correction.Weighted>
   9.000000E+99

> <Gold.Protein.RotatedTorsions>
[ 6907 6896 6895 6894 ] final  101.08 input  -60.11 | X-H torsion
[ 7974 7965 7964 7962 ] final -168.41 input  175.53 | X-H torsion
[ 8008 7997 7996 7995 ] final -107.50 input   59.86 | X-H torsion
[ 10167 10162 10161 10158 ] final  109.23 input  -65.29 | X-H torsion
[ 10718 10713 10712 10709 ] final  149.93 input   66.30 | X-H torsion
[ 10763 10752 10751 10750 ] final  151.56 input  -60.55 | X-H torsion
[ 11005 11000 10999 10996 ] final   63.03 input  -57.11 | X-H torsion

> <Gold.Protein.ActiveResidues>
 VAL166  LYS551  ARG553  GLY616  TRP617  ASP618  TYR619  PRO620  LYS621  CYS622 
 ASP623  PHE694  ASN695  SER759  ASP760  ASP761  ALA762  ILE779  LEU786  VAL792 
 PHE793  MET794  SER795  GLU796  ALA797  LYS798  CYS799  TRP800  GLU811  SER814 

> <Gold.Protein.RotatedAtoms>
  152.5357  134.0180  159.7968 H   0  0  0  0  0  0  0  0  0  0  0  0  # atno 6907 bound_to 6896
  151.0371  133.5731  159.2662 H   0  0  0  0  0  0  0  0  0  0  0  0  # atno 6908 bound_to 6896
  151.2714  135.0693  159.9189 H   0  0  0  0  0  0  0  0  0  0  0  0  # atno 6909 bound_to 6896
  144.7204  140.2374  143.6296 H   0  0  0  0  0  0  0  0  0  0  0  0  # atno 7974 bound_to 7965
  154.9302  140.0405  157.2044 H   0  0  0  0  0  0  0  0  0  0  0  0  # atno 8008 bound_to 7997
  154.8168  140.2877  155.5793 H   0  0  0  0  0  0  0  0  0  0  0  0  # atno 8009 bound_to 7997
  156.2976  140.2526  156.3067 H   0  0  0  0  0  0  0  0  0  0  0  0  # atno 8010 bound_to 7997
  139.6783  144.7120  151.1562 H   0  0  0  0  0  0  0  0  0  0  0  0  # atno 10167 bound_to 10162
  157.2898  131.0851  151.1470 H   0  0  0  0  0  0  0  0  0  0  0  0  # atno 10718 bound_to 10713
  154.1058  135.2842  155.3241 H   0  0  0  0  0  0  0  0  0  0  0  0  # atno 10763 bound_to 10752
  154.6524  135.5364  153.7921 H   0  0  0  0  0  0  0  0  0  0  0  0  # atno 10764 bound_to 10752
  153.0363  135.6513  154.1219 H   0  0  0  0  0  0  0  0  0  0  0  0  # atno 10765 bound_to 10752
  140.0052  134.6381  155.9867 H   0  0  0  0  0  0  0  0  0  0  0  0  # atno 11005 bound_to 11000
  145.8352  139.2104  143.1859 LP  0  0  0  0  0  0  0  0  0  0  0  0  # atno 17320 bound_to 7965
  146.0395  140.8178  142.9835 LP  0  0  0  0  0  0  0  0  0  0  0  0  # atno 17321 bound_to 7965
  140.7643  143.5738  150.8967 LP  0  0  0  0  0  0  0  0  0  0  0  0  # atno 17342 bound_to 10162
  139.9409  143.6383  152.3054 LP  0  0  0  0  0  0  0  0  0  0  0  0  # atno 17343 bound_to 10162
  157.2871  130.6778  149.6095 LP  0  0  0  0  0  0  0  0  0  0  0  0  # atno 17370 bound_to 10713
  155.9667  130.4432  150.5412 LP  0  0  0  0  0  0  0  0  0  0  0  0  # atno 17371 bound_to 10713
  141.1671  133.6537  156.4519 LP  0  0  0  0  0  0  0  0  0  0  0  0  # atno 17394 bound_to 11000
  140.4655  134.6802  157.5105 LP  0  0  0  0  0  0  0  0  0  0  0  0  # atno 17395 bound_to 11000

$$$$
