AV-unprocessed.smi:269|AV-procd|sdf|2043|dock5
  -GOLD-   2262021263D 1   1.00000     0.00000
 Structure written by MMmdl.
 61 64  0  0  0  0  0  0  0  0  1 V2000
  147.5708  128.5537  153.4585 C   0  0  0  0  0  0  0  0  0  0  0  0
  148.6601  129.6309  153.5464 C   0  0  0  0  0  0  0  0  0  0  0  0
  148.0820  130.9627  153.6766 N   0  0  0  0  0  0  0  0  0  0  0  0
  148.2163  131.7606  154.7474 C   0  0  0  0  0  0  0  0  0  0  0  0
  148.8351  131.4375  155.7611 O   0  0  0  0  0  0  0  0  0  0  0  0
  147.5675  133.1464  154.6566 C   0  0  0  0  0  0  0  0  0  0  0  0
  148.4426  134.2574  155.0944 N   0  0  0  0  0  0  0  0  0  0  0  0
  147.9580  135.5162  154.5165 C   0  0  0  0  0  0  0  0  0  0  0  0
  148.7969  136.6968  155.0388 C   0  0  0  0  0  0  0  0  0  0  0  0
  150.2025  136.4960  154.7129 N   0  0  0  0  0  0  0  0  0  0  0  0
  150.9850  137.5588  154.9932 C   0  0  0  0  0  0  0  0  0  0  0  0
  152.3235  137.3866  154.8692 N   0  0  0  0  0  0  0  0  0  0  0  0
  153.1537  138.4008  155.1309 C   0  0  0  0  0  0  0  0  0  0  0  0
  152.8584  139.6420  155.5238 N   0  0  0  0  0  0  0  0  0  0  0  0
  151.5112  139.8164  155.6512 C   0  0  0  0  0  0  0  0  0  0  0  0
  150.5092  138.8367  155.4025 C   0  0  0  0  0  0  0  0  0  0  0  0
  149.2500  139.3804  155.6238 N   0  0  0  0  0  0  0  0  0  0  0  0
  149.4937  140.6106  155.9841 C   0  0  0  0  0  0  0  0  0  0  0  0
  150.8264  140.9538  156.0444 N   0  0  0  0  0  0  0  0  0  0  0  0
  151.3790  142.2493  156.4149 C   0  0  0  0  0  0  0  0  0  0  0  0
  151.1534  142.6565  157.9018 C   0  0  0  0  0  0  0  0  0  0  0  0
  149.6430  142.5934  158.2704 C   0  0  0  0  0  0  0  0  0  0  0  0
  148.9183  143.6891  157.7480 O   0  0  0  0  0  0  0  0  0  0  0  0
  151.9521  141.7091  158.8325 C   0  0  0  0  0  0  0  0  0  0  0  0
  152.0460  142.2242  160.2806 C   0  0  0  0  0  0  0  0  0  0  0  0
  152.6092  143.5290  160.2990 O   0  0  0  0  0  0  0  0  0  0  0  0
  151.8227  144.4800  159.5934 C   0  0  0  0  0  0  0  0  0  0  0  0
  151.7253  144.0816  158.1098 C   0  0  0  0  0  0  0  0  0  0  0  0
  150.7069  135.2303  155.2305 C   0  0  0  0  0  0  0  0  0  0  0  0
  149.8498  134.0608  154.7118 C   0  0  0  0  0  0  0  0  0  0  0  0
  148.0133  127.5592  153.3981 H   0  0  0  0  0  0  0  0  0  0  0  0
  146.9465  128.6914  152.5751 H   0  0  0  0  0  0  0  0  0  0  0  0
  146.9215  128.5768  154.3344 H   0  0  0  0  0  0  0  0  0  0  0  0
  149.2904  129.4465  154.4167 H   0  0  0  0  0  0  0  0  0  0  0  0
  149.3136  129.5837  152.6739 H   0  0  0  0  0  0  0  0  0  0  0  0
  147.5579  131.3129  152.8876 H   0  0  0  0  0  0  0  0  0  0  0  0
  147.2258  133.3258  153.6352 H   0  0  0  0  0  0  0  0  0  0  0  0
  146.6730  133.1249  155.2809 H   0  0  0  0  0  0  0  0  0  0  0  0
  147.9980  135.4779  153.4261 H   0  0  0  0  0  0  0  0  0  0  0  0
  146.9141  135.6729  154.7916 H   0  0  0  0  0  0  0  0  0  0  0  0
  148.4456  137.6274  154.5910 H   0  0  0  0  0  0  0  0  0  0  0  0
  148.6726  136.7935  156.1183 H   0  0  0  0  0  0  0  0  0  0  0  0
  154.2055  138.1870  155.0093 H   0  0  0  0  0  0  0  0  0  0  0  0
  148.7015  141.3047  156.2248 H   0  0  0  0  0  0  0  0  0  0  0  0
  152.4459  142.2325  156.1884 H   0  0  0  0  0  0  0  0  0  0  0  0
  150.9529  142.9987  155.7467 H   0  0  0  0  0  0  0  0  0  0  0  0
  149.1904  141.6737  157.9001 H   0  0  0  0  0  0  0  0  0  0  0  0
  149.4898  142.5840  159.3481 H   0  0  0  0  0  0  0  0  0  0  0  0
  149.1119  143.7652  156.8262 H   0  0  0  0  0  0  0  0  0  0  0  0
  151.5163  140.7093  158.8308 H   0  0  0  0  0  0  0  0  0  0  0  0
  152.9676  141.5978  158.4505 H   0  0  0  0  0  0  0  0  0  0  0  0
  151.0725  142.2259  160.7718 H   0  0  0  0  0  0  0  0  0  0  0  0
  152.6850  141.5630  160.8665 H   0  0  0  0  0  0  0  0  0  0  0  0
  150.8376  144.5723  160.0512 H   0  0  0  0  0  0  0  0  0  0  0  0
  152.2988  145.4566  159.6831 H   0  0  0  0  0  0  0  0  0  0  0  0
  152.7285  144.1332  157.6839 H   0  0  0  0  0  0  0  0  0  0  0  0
  151.1359  144.8197  157.5654 H   0  0  0  0  0  0  0  0  0  0  0  0
  151.7440  135.0952  154.9208 H   0  0  0  0  0  0  0  0  0  0  0  0
  150.6969  135.2387  156.3211 H   0  0  0  0  0  0  0  0  0  0  0  0
  150.2452  133.1381  155.1363 H   0  0  0  0  0  0  0  0  0  0  0  0
  149.9392  133.9758  153.6273 H   0  0  0  0  0  0  0  0  0  0  0  0
  1  2  1  0  0  0  0
  1 31  1  0  0  0  0
  1 32  1  0  0  0  0
  1 33  1  0  0  0  0
  2  3  1  0  0  0  0
  2 34  1  0  0  0  0
  2 35  1  0  0  0  0
  3  4  1  0  0  0  0
  3 36  1  0  0  0  0
  4  5  2  0  0  0  0
  4  6  1  0  0  0  0
  6  7  1  0  0  0  0
  6 37  1  0  0  0  0
  6 38  1  0  0  0  0
  7 30  1  0  0  0  0
  7  8  1  0  0  0  0
  8  9  1  0  0  0  0
  8 39  1  0  0  0  0
  8 40  1  0  0  0  0
  9 10  1  0  0  0  0
  9 41  1  0  0  0  0
  9 42  1  0  0  0  0
 10 11  1  0  0  0  0
 10 29  1  0  0  0  0
 11 16  1  0  0  0  0
 11 12  2  0  0  0  0
 12 13  1  0  0  0  0
 13 14  2  0  0  0  0
 13 43  1  0  0  0  0
 14 15  1  0  0  0  0
 15 19  1  0  0  0  0
 15 16  2  0  0  0  0
 16 17  1  0  0  0  0
 17 18  2  0  0  0  0
 18 19  1  0  0  0  0
 18 44  1  0  0  0  0
 19 20  1  0  0  0  0
 20 21  1  0  0  0  0
 20 45  1  0  0  0  0
 20 46  1  0  0  0  0
 21 28  1  0  0  0  0
 21 22  1  0  0  0  0
 21 24  1  0  0  0  0
 22 23  1  0  0  0  0
 22 47  1  0  0  0  0
 22 48  1  0  0  0  0
 23 49  1  0  0  0  0
 24 25  1  0  0  0  0
 24 50  1  0  0  0  0
 24 51  1  0  0  0  0
 25 26  1  0  0  0  0
 25 52  1  0  0  0  0
 25 53  1  0  0  0  0
 26 27  1  0  0  0  0
 27 28  1  0  0  0  0
 27 54  1  0  0  0  0
 27 55  1  0  0  0  0
 28 56  1  0  0  0  0
 28 57  1  0  0  0  0
 29 30  1  0  0  0  0
 29 58  1  0  0  0  0
 29 59  1  0  0  0  0
 30 60  1  0  0  0  0
 30 61  1  0  0  0  0
M  END
> <s_m_source_file>
AV-unprocessed.smi

> <i_m_source_file_index>
269

> <i_lp_mmshare_version>
43012

> <i_f3d_flags>
0

> <s_epik_input>
W0NIM11bQ0gyXVtOSF1DKD1PKVtDSDJdTjFbQ0gyXVtDSDJdTihbQ0gyXVtDSDJdMSljKG5bY0hdbjIpYyhjMjMpbltjSF1uM1tDSDJdQzQoW0NIMl1bT0hdKVtDSDJdW0NIMl1PW0NIMl1bQ0gyXTQ=

> <s_epik_cmdline>
J2VwaWtfcHl0aG9uJywgJy1waCcsICc3LjAnLCAnLXRuJywgJzgnLCAnLW1hJywgJzIwMCcsICctbWV0YWxfYmluZGluZycsICctaW1hZScsICc8aW5maWxlLm1hZT4nLCAnLW9tYWUnLCAnPG91dGZpbGUubWFlPic=

> <r_lp_tautomer_probability>
1

> <r_epik_Ionization_Penalty>
0.90547

> <r_epik_Ionization_Penalty_Charging>
0

> <r_epik_Ionization_Penalty_Neutral>
0.90547

> <r_epik_State_Penalty>
0.940417

> <r_epik_Charging_Adjusted_Penalty>
0.940417

> <i_epik_Tot_Q>
0

> <i_epik_Tot_abs_Q>
0

> <r_epik_Metal_State_Penalty>
0.947257

> <b_epik_Metal_Only>
0

> <s_lp_Force_Field>
OPLS_2005

> <r_lp_Energy>
47.1209

> <b_lp_Chiralities_Consistent>
1

> <s_lp_Variant>
AV-unprocessed.smi:269-2

> <Gold.Version>
5.8.1

> <Gold.Id.Protein>
6NUR|6NUR_protein|mol2

> <Gold.PLP.Fitness>
53.8140

> <Gold.PLP.PLP>
-47.0886

> <Gold.PLP.part.hbond>
-5.0000

> <Gold.PLP.part.metal>
0.0000

> <Gold.PLP.part.buried>
-6.8265

> <Gold.PLP.part.nonpolar>
-37.5031

> <Gold.PLP.part.repulsive>
1.0665

> <Gold.PLP.ligand.clash>
0.0000

> <Gold.PLP.ligand.torsion>
0.9458

> <Gold.PLP.Chemscore.Hbond>
2.7800

> <Gold.PLP.Chemscore.CHOScore>
0.0000

> <Gold.PLP.Chemscore.Metal>
0.0000

> <Gold.Chemscore.Hbonds>
donor molecule, donor type, donor heavy atom, donor atom, acceptor molecule, acceptor atom, score
      L1  H    23    49       P1  8028  0.74
      P1  H  7997  8009       L1    14  1.00
      P1  H 10752 10764       L1    12  0.61

> <Gold.PLP.Chemscore.Internal.Correction>
0.2769

> <Gold.Rescore>
     Score         DG    S(hbond)    S(metal)    S(lipo)     H(rot)  DE(clash)    DE(int)     intcor
     10.57     -16.49       2.22        0.00     103.34       3.32       1.73       4.20       ----

> <Gold.Chemscore.Fitness>
10.5654

> <Gold.Chemscore.DG>
-16.4927

> <Gold.Chemscore.ZeroCoef>
-5.4800

> <Gold.Chemscore.Hbond>
2.2227

> <Gold.Chemscore.Metal>
0.0000

> <Gold.Chemscore.Lipo>
103.3441

> <Gold.Chemscore.Internal_Hbond>
0.0000

> <Gold.Chemscore.DEClash>
1.7263

> <Gold.Chemscore.DEInternal>
4.2010

> <Gold.Chemscore.Rot>
3.3213

> <Gold.Chemscore.Internal.Correction>
   9.000000E+99

> <Gold.Chemscore.Hbonds>
donor molecule, donor type, donor heavy atom, donor atom, acceptor molecule, acceptor atom, score
      L1  H    23    49       P1  8028  0.49
      P1  H  7997  8009       L1    14  0.30
      P1  H 10752 10764       L1    12  0.57

> <Gold.Chemscore.Hbond.Weighted>
-7.4239

> <Gold.Chemscore.Metal.Weighted>
-0.0000

> <Gold.Chemscore.Lipo.Weighted>
-12.0913

> <Gold.Chemscore.Internal_Hbond.Weighted>
0.0000

> <Gold.Chemscore.DEClash.Weighted>
1.7263

> <Gold.Chemscore.DEInternal.Weighted>
4.2010

> <Gold.Chemscore.Rot.Weighted>
8.5024

> <Gold.Chemscore.Internal.Correction.Weighted>
   9.000000E+99

> <Gold.Protein.RotatedTorsions>
[ 6907 6896 6895 6894 ] final  -11.60 input  -60.11 | X-H torsion
[ 7974 7965 7964 7962 ] final  123.35 input  175.53 | X-H torsion
[ 8008 7997 7996 7995 ] final -148.08 input   59.86 | X-H torsion
[ 10167 10162 10161 10158 ] final  101.13 input  -65.29 | X-H torsion
[ 10718 10713 10712 10709 ] final   44.77 input   66.30 | X-H torsion
[ 10763 10752 10751 10750 ] final  -84.36 input  -60.55 | X-H torsion
[ 11005 11000 10999 10996 ] final  131.54 input  -57.11 | X-H torsion

> <Gold.Protein.ActiveResidues>
 VAL166  LYS551  ARG553  GLY616  TRP617  ASP618  TYR619  PRO620  LYS621  CYS622 
 ASP623  PHE694  ASN695  SER759  ASP760  ASP761  ALA762  ILE779  LEU786  VAL792 
 PHE793  MET794  SER795  GLU796  ALA797  LYS798  CYS799  TRP800  GLU811  SER814 

> <Gold.Protein.RotatedAtoms>
  151.3837  135.0944  159.9503 H   0  0  0  0  0  0  0  0  0  0  0  0  # atno 6907 bound_to 6896
  152.5100  133.9047  159.7469 H   0  0  0  0  0  0  0  0  0  0  0  0  # atno 6908 bound_to 6896
  150.9486  133.6519  159.2805 H   0  0  0  0  0  0  0  0  0  0  0  0  # atno 6909 bound_to 6896
  145.0969  139.3546  143.4832 H   0  0  0  0  0  0  0  0  0  0  0  0  # atno 7974 bound_to 7965
  155.5859  140.0648  157.2771 H   0  0  0  0  0  0  0  0  0  0  0  0  # atno 8008 bound_to 7997
  154.4319  140.1844  156.1071 H   0  0  0  0  0  0  0  0  0  0  0  0  # atno 8009 bound_to 7997
  156.0269  140.3310  155.7102 H   0  0  0  0  0  0  0  0  0  0  0  0  # atno 8010 bound_to 7997
  139.7465  144.6996  151.0496 H   0  0  0  0  0  0  0  0  0  0  0  0  # atno 10167 bound_to 10162
  157.4304  130.8021  149.7598 H   0  0  0  0  0  0  0  0  0  0  0  0  # atno 10718 bound_to 10713
  154.5986  135.5523  153.7351 H   0  0  0  0  0  0  0  0  0  0  0  0  # atno 10763 bound_to 10752
  153.0145  135.6361  154.1747 H   0  0  0  0  0  0  0  0  0  0  0  0  # atno 10764 bound_to 10752
  154.1687  135.2893  155.3067 H   0  0  0  0  0  0  0  0  0  0  0  0  # atno 10765 bound_to 10752
  139.9736  134.9570  156.9452 H   0  0  0  0  0  0  0  0  0  0  0  0  # atno 11005 bound_to 11000
  146.3530  140.0828  142.8616 LP  0  0  0  0  0  0  0  0  0  0  0  0  # atno 17320 bound_to 7965
  145.1001  140.9340  143.4718 LP  0  0  0  0  0  0  0  0  0  0  0  0  # atno 17321 bound_to 7965
  140.7793  143.4860  150.9955 LP  0  0  0  0  0  0  0  0  0  0  0  0  # atno 17342 bound_to 10162
  139.8548  143.7391  152.3176 LP  0  0  0  0  0  0  0  0  0  0  0  0  # atno 17343 bound_to 10162
  155.9911  130.3940  150.2999 LP  0  0  0  0  0  0  0  0  0  0  0  0  # atno 17370 bound_to 10713
  157.1155  131.0233  151.3031 LP  0  0  0  0  0  0  0  0  0  0  0  0  # atno 17371 bound_to 10713
  140.5241  134.0878  155.7299 LP  0  0  0  0  0  0  0  0  0  0  0  0  # atno 17394 bound_to 11000
  141.1414  133.9131  157.2316 LP  0  0  0  0  0  0  0  0  0  0  0  0  # atno 17395 bound_to 11000

$$$$
