AV-unprocessed.smi:704|AV-procd|sdf|3444|dock8
  -GOLD-   22720 0433D 1   1.00000     0.00000
 Structure written by MMmdl.
 38 39  0  0  0  0  0  0  0  0  1 V2000
  151.8135  145.5479  160.0196 C   0  0  0  0  0  0  0  0  0  0  0  0
  151.4764  144.4403  159.1914 O   0  0  0  0  0  0  0  0  0  0  0  0
  152.1438  143.2457  159.3835 C   0  0  0  0  0  0  0  0  0  0  0  0
  153.0658  143.1738  160.3766 N   0  0  0  0  0  0  0  0  0  0  0  0
  153.7196  142.0090  160.5634 C   0  0  0  0  0  0  0  0  0  0  0  0
  153.4971  140.8654  159.7747 C   0  0  0  0  0  0  0  0  0  0  0  0
  152.5418  140.9374  158.7443 C   0  0  0  0  0  0  0  0  0  0  0  0
  151.8367  142.1488  158.5451 C   0  0  0  0  0  0  0  0  0  0  0  0
  150.8699  142.3344  157.5194 N   0  0  0  0  0  0  0  0  0  0  0  0
  150.6409  141.5676  156.4404 C   0  0  0  0  0  0  0  0  0  0  0  0
  151.2323  140.5221  156.1709 O   0  0  0  0  0  0  0  0  0  0  0  0
  149.6490  142.0698  155.6919 N   0  0  0  0  0  0  0  0  0  0  0  0
  149.1292  141.4585  154.4675 C   0  0  2  0  0  0  0  0  0  0  0  0
  147.7609  142.0534  154.0843 C   0  0  0  0  0  0  0  0  0  0  0  0
  146.8853  140.8861  153.6098 C   0  0  0  0  0  0  0  0  0  0  0  0
  147.8143  139.6723  153.5180 C   0  0  0  0  0  0  0  0  0  0  0  0
  148.9328  139.9208  154.5411 C   0  0  2  0  0  0  0  0  0  0  0  0
  148.5419  139.3762  155.9325 C   0  0  0  0  0  0  0  0  0  0  0  0
  149.3732  138.4928  156.4907 N   0  0  0  0  0  0  0  0  0  0  0  0
  147.5156  139.7496  156.4984 O   0  0  0  0  0  0  0  0  0  0  0  0
  151.1931  146.4018  159.7487 H   0  0  0  0  0  0  0  0  0  0  0  0
  152.8559  145.8409  159.8875 H   0  0  0  0  0  0  0  0  0  0  0  0
  151.6327  145.3292  161.0730 H   0  0  0  0  0  0  0  0  0  0  0  0
  154.4470  141.9900  161.3614 H   0  0  0  0  0  0  0  0  0  0  0  0
  154.0509  139.9555  159.9523 H   0  0  0  0  0  0  0  0  0  0  0  0
  152.3804  140.0720  158.1203 H   0  0  0  0  0  0  0  0  0  0  0  0
  150.2345  143.1064  157.6601 H   0  0  0  0  0  0  0  0  0  0  0  0
  149.2099  142.9271  155.9942 H   0  0  0  0  0  0  0  0  0  0  0  0
  149.8216  141.6712  153.6503 H   0  0  0  0  0  0  0  0  0  0  0  0
  147.2831  142.5479  154.9315 H   0  0  0  0  0  0  0  0  0  0  0  0
  147.8773  142.8029  153.3007 H   0  0  0  0  0  0  0  0  0  0  0  0
  146.0983  140.6961  154.3406 H   0  0  0  0  0  0  0  0  0  0  0  0
  146.3980  141.0963  152.6574 H   0  0  0  0  0  0  0  0  0  0  0  0
  147.2792  138.7356  153.6810 H   0  0  0  0  0  0  0  0  0  0  0  0
  148.2486  139.6214  152.5186 H   0  0  0  0  0  0  0  0  0  0  0  0
  149.8467  139.4170  154.2214 H   0  0  0  0  0  0  0  0  0  0  0  0
  149.1603  138.1029  157.3976 H   0  0  0  0  0  0  0  0  0  0  0  0
  150.2107  138.2138  156.0004 H   0  0  0  0  0  0  0  0  0  0  0  0
  1  2  1  0  0  0  0
  1 21  1  0  0  0  0
  1 22  1  0  0  0  0
  1 23  1  0  0  0  0
  2  3  1  0  0  0  0
  3  8  1  0  0  0  0
  3  4  2  0  0  0  0
  4  5  1  0  0  0  0
  5  6  2  0  0  0  0
  5 24  1  0  0  0  0
  6  7  1  0  0  0  0
  6 25  1  0  0  0  0
  7  8  2  0  0  0  0
  7 26  1  0  0  0  0
  8  9  1  0  0  0  0
  9 10  1  0  0  0  0
  9 27  1  0  0  0  0
 10 11  2  0  0  0  0
 10 12  1  0  0  0  0
 12 13  1  0  0  0  0
 12 28  1  0  0  0  0
 13 17  1  0  0  0  0
 13 14  1  0  0  0  0
 13 29  1  0  0  0  0
 14 15  1  0  0  0  0
 14 30  1  0  0  0  0
 14 31  1  0  0  0  0
 15 16  1  0  0  0  0
 15 32  1  0  0  0  0
 15 33  1  0  0  0  0
 16 17  1  0  0  0  0
 16 34  1  0  0  0  0
 16 35  1  0  0  0  0
 17 18  1  0  0  0  0
 17 36  1  0  0  0  0
 18 19  1  0  0  0  0
 18 20  2  0  0  0  0
 19 37  1  0  0  0  0
 19 38  1  0  0  0  0
M  END
> <s_m_source_file>
AV-unprocessed.smi

> <i_m_source_file_index>
704

> <i_lp_mmshare_version>
43012

> <i_f3d_flags>
0

> <s_epik_input>
W0NIM11PYzFuW2NIXVtjSF1bY0hdYzFbTkhdQyg9TylbTkhdW0NAQEhdMltDSDJdW0NIMl1bQ0gyXVtDQEhdMkMoPU8pW05IMl0=

> <s_epik_cmdline>
J2VwaWtfcHl0aG9uJywgJy1waCcsICc3LjAnLCAnLXRuJywgJzgnLCAnLW1hJywgJzIwMCcsICctbWV0YWxfYmluZGluZycsICctaW1hZScsICc8aW5maWxlLm1hZT4nLCAnLW9tYWUnLCAnPG91dGZpbGUubWFlPic=

> <r_lp_tautomer_probability>
1

> <r_epik_Ionization_Penalty>
9.09123e-05

> <r_epik_Ionization_Penalty_Charging>
0

> <r_epik_Ionization_Penalty_Neutral>
9.09123e-05

> <r_epik_State_Penalty>
-0

> <r_epik_Charging_Adjusted_Penalty>
0

> <i_epik_Tot_Q>
0

> <i_epik_Tot_abs_Q>
0

> <r_epik_Metal_State_Penalty>
-0

> <b_epik_Metal_Only>
0

> <s_lp_Force_Field>
OPLS_2005

> <r_lp_Energy>
16.4905

> <b_lp_Chiralities_Consistent>
1

> <s_lp_Variant>
AV-unprocessed.smi:704-3

> <Gold.Version>
5.8.1

> <Gold.Id.Protein>
6NUR|6NUR_protein|mol2

> <Gold.PLP.Fitness>
39.9623

> <Gold.PLP.PLP>
-37.5209

> <Gold.PLP.part.hbond>
-1.0000

> <Gold.PLP.part.metal>
0.0000

> <Gold.PLP.part.buried>
-5.2324

> <Gold.PLP.part.nonpolar>
-31.4791

> <Gold.PLP.part.repulsive>
0.2529

> <Gold.PLP.ligand.clash>
0.0000

> <Gold.PLP.ligand.torsion>
0.2889

> <Gold.PLP.Chemscore.Hbond>
1.0000

> <Gold.PLP.Chemscore.CHOScore>
0.0000

> <Gold.PLP.Chemscore.Metal>
0.0000

> <Gold.Chemscore.Hbonds>
donor molecule, donor type, donor heavy atom, donor atom, acceptor molecule, acceptor atom, score
      L1  H    12    28       P1  8028  0.96

> <Gold.PLP.Chemscore.Internal.Correction>
0.0193

> <Gold.Rescore>
     Score         DG    S(hbond)    S(metal)    S(lipo)     H(rot)  DE(clash)    DE(int)     intcor
     11.40     -13.86       0.98        0.00      84.61       1.86       0.02       2.44       ----

> <Gold.Chemscore.Fitness>
11.4046

> <Gold.Chemscore.DG>
-13.8630

> <Gold.Chemscore.ZeroCoef>
-5.4800

> <Gold.Chemscore.Hbond>
0.9753

> <Gold.Chemscore.Metal>
0.0000

> <Gold.Chemscore.Lipo>
84.6092

> <Gold.Chemscore.Internal_Hbond>
0.0000

> <Gold.Chemscore.DEClash>
0.0233

> <Gold.Chemscore.DEInternal>
2.4351

> <Gold.Chemscore.Rot>
1.8648

> <Gold.Chemscore.Internal.Correction>
   9.000000E+99

> <Gold.Chemscore.Hbonds>
donor molecule, donor type, donor heavy atom, donor atom, acceptor molecule, acceptor atom, score
      L1  H    12    28       P1  8028  0.92

> <Gold.Chemscore.Hbond.Weighted>
-3.2576

> <Gold.Chemscore.Metal.Weighted>
-0.0000

> <Gold.Chemscore.Lipo.Weighted>
-9.8993

> <Gold.Chemscore.Internal_Hbond.Weighted>
0.0000

> <Gold.Chemscore.DEClash.Weighted>
0.0233

> <Gold.Chemscore.DEInternal.Weighted>
2.4351

> <Gold.Chemscore.Rot.Weighted>
4.7739

> <Gold.Chemscore.Internal.Correction.Weighted>
   9.000000E+99

> <Gold.Protein.RotatedTorsions>
[ 6907 6896 6895 6894 ] final -120.63 input  -60.11 | X-H torsion
[ 7974 7965 7964 7962 ] final   11.93 input  175.53 | X-H torsion
[ 8008 7997 7996 7995 ] final   57.79 input   59.86 | X-H torsion
[ 10167 10162 10161 10158 ] final  -14.12 input  -65.29 | X-H torsion
[ 10718 10713 10712 10709 ] final  177.90 input   66.30 | X-H torsion
[ 10763 10752 10751 10750 ] final -107.90 input  -60.55 | X-H torsion
[ 11005 11000 10999 10996 ] final  -39.98 input  -57.11 | X-H torsion

> <Gold.Protein.ActiveResidues>
 VAL166  LYS551  ARG553  GLY616  TRP617  ASP618  TYR619  PRO620  LYS621  CYS622 
 ASP623  PHE694  ASN695  SER759  ASP760  ASP761  ALA762  ILE779  LEU786  VAL792 
 PHE793  MET794  SER795  GLU796  ALA797  LYS798  CYS799  TRP800  GLU811  SER814 

> <Gold.Protein.RotatedAtoms>
  150.8411  133.7935  159.3060 H   0  0  0  0  0  0  0  0  0  0  0  0  # atno 6907 bound_to 6896
  151.5636  135.1063  159.9988 H   0  0  0  0  0  0  0  0  0  0  0  0  # atno 6908 bound_to 6896
  152.4474  133.7521  159.6756 H   0  0  0  0  0  0  0  0  0  0  0  0  # atno 6909 bound_to 6896
  146.2361  139.9413  142.8483 H   0  0  0  0  0  0  0  0  0  0  0  0  # atno 7974 bound_to 7965
  155.5395  140.3484  155.4443 H   0  0  0  0  0  0  0  0  0  0  0  0  # atno 8008 bound_to 7997
  156.0661  140.1352  156.9910 H   0  0  0  0  0  0  0  0  0  0  0  0  # atno 8009 bound_to 7997
  154.4504  140.0975  156.6574 H   0  0  0  0  0  0  0  0  0  0  0  0  # atno 8010 bound_to 7997
  140.7195  143.5355  150.9470 H   0  0  0  0  0  0  0  0  0  0  0  0  # atno 10167 bound_to 10162
  156.8986  130.9871  151.3039 H   0  0  0  0  0  0  0  0  0  0  0  0  # atno 10718 bound_to 10713
  154.8103  135.4658  154.0500 H   0  0  0  0  0  0  0  0  0  0  0  0  # atno 10763 bound_to 10752
  153.1935  135.6858  153.8328 H   0  0  0  0  0  0  0  0  0  0  0  0  # atno 10764 bound_to 10752
  153.7837  135.3253  155.3346 H   0  0  0  0  0  0  0  0  0  0  0  0  # atno 10765 bound_to 10752
  141.0142  133.6893  156.2260 H   0  0  0  0  0  0  0  0  0  0  0  0  # atno 11005 bound_to 11000
  145.1950  140.9829  143.4189 LP  0  0  0  0  0  0  0  0  0  0  0  0  # atno 17320 bound_to 7965
  144.9823  139.3770  143.6255 LP  0  0  0  0  0  0  0  0  0  0  0  0  # atno 17321 bound_to 7965
  139.9076  143.6759  152.3121 LP  0  0  0  0  0  0  0  0  0  0  0  0  # atno 17342 bound_to 10162
  139.7131  144.7617  151.1079 LP  0  0  0  0  0  0  0  0  0  0  0  0  # atno 17343 bound_to 10162
  157.6040  130.8533  149.8846 LP  0  0  0  0  0  0  0  0  0  0  0  0  # atno 17370 bound_to 10713
  156.0593  130.3702  150.1018 LP  0  0  0  0  0  0  0  0  0  0  0  0  # atno 17371 bound_to 10713
  140.6683  134.4895  157.5586 LP  0  0  0  0  0  0  0  0  0  0  0  0  # atno 17394 bound_to 11000
  139.9107  134.8351  156.1539 LP  0  0  0  0  0  0  0  0  0  0  0  0  # atno 17395 bound_to 11000

$$$$
