AV-unprocessed.smi:919|AV-procd|sdf|4166|dock3
  -GOLD-   22720 2 73D 1   1.00000     0.00000
 Structure written by MMmdl.
 43 45  0  0  0  0  0  0  0  0  1 V2000
  147.0155  141.4745  153.8529 C   0  0  0  0  0  0  0  0  0  0  0  0
  148.2747  140.6749  154.0282 C   0  0  0  0  0  0  0  0  0  0  0  0
  149.4496  141.2744  153.9317 N   0  0  0  0  0  0  0  0  0  0  0  0
  150.4065  140.2759  154.1388 O   0  0  0  0  0  0  0  0  0  0  0  0
  149.7623  139.1008  154.3553 C   0  0  0  0  0  0  0  0  0  0  0  0
  150.6205  137.9053  154.5947 C   0  0  0  0  0  0  0  0  0  0  0  0
  148.4080  139.2841  154.3028 C   0  0  0  0  0  0  0  0  0  0  0  0
  147.3090  138.2734  154.4837 C   0  0  0  0  0  0  0  0  0  0  0  0
  146.2586  138.3819  153.3674 C   0  0  0  0  0  0  0  0  0  0  0  0
  146.2519  137.1911  152.5279 N   0  0  0  0  0  0  0  0  0  0  0  0
  145.1481  136.5959  152.0454 C   0  0  0  0  0  0  0  0  0  0  0  0
  144.0096  137.0169  152.2422 O   0  0  0  0  0  0  0  0  0  0  0  0
  145.3799  135.4871  151.3214 N   0  0  0  0  0  0  0  0  0  0  0  0
  144.3963  134.6204  150.6665 C   0  0  2  0  0  0  0  0  0  0  0  0
  143.5130  133.8953  151.7058 C   0  0  0  0  0  0  0  0  0  0  0  0
  143.7412  132.4075  151.3823 C   0  0  2  0  0  0  0  0  0  0  0  0
  145.1626  131.9975  151.8125 C   0  0  0  0  0  0  0  0  0  0  0  0
  146.0485  132.6711  150.7476 C   0  0  0  0  0  0  0  0  0  0  0  0
  145.0188  133.4330  149.8856 C   0  0  1  0  0  0  0  0  0  0  0  0
  143.8647  132.4365  149.8649 C   0  0  0  0  0  0  0  0  0  0  0  0
  146.2502  140.8932  153.3380 H   0  0  0  0  0  0  0  0  0  0  0  0
  147.1908  142.3783  153.2679 H   0  0  0  0  0  0  0  0  0  0  0  0
  146.6091  141.7755  154.8187 H   0  0  0  0  0  0  0  0  0  0  0  0
  150.0482  136.9840  154.4851 H   0  0  0  0  0  0  0  0  0  0  0  0
  151.0392  137.9265  155.6008 H   0  0  0  0  0  0  0  0  0  0  0  0
  151.4469  137.8732  153.8844 H   0  0  0  0  0  0  0  0  0  0  0  0
  147.7149  137.2613  154.4998 H   0  0  0  0  0  0  0  0  0  0  0  0
  146.8273  138.4098  155.4525 H   0  0  0  0  0  0  0  0  0  0  0  0
  145.2652  138.5459  153.7888 H   0  0  0  0  0  0  0  0  0  0  0  0
  146.4738  139.2441  152.7353 H   0  0  0  0  0  0  0  0  0  0  0  0
  147.1475  136.7786  152.3109 H   0  0  0  0  0  0  0  0  0  0  0  0
  146.3475  135.2294  151.1904 H   0  0  0  0  0  0  0  0  0  0  0  0
  143.7572  135.2130  150.0093 H   0  0  0  0  0  0  0  0  0  0  0  0
  143.7747  134.1319  152.7384 H   0  0  0  0  0  0  0  0  0  0  0  0
  142.4650  134.1627  151.5648 H   0  0  0  0  0  0  0  0  0  0  0  0
  142.9607  131.7523  151.7697 H   0  0  0  0  0  0  0  0  0  0  0  0
  145.3994  132.3332  152.8228 H   0  0  0  0  0  0  0  0  0  0  0  0
  145.2839  130.9141  151.7820 H   0  0  0  0  0  0  0  0  0  0  0  0
  146.8168  133.3115  151.1808 H   0  0  0  0  0  0  0  0  0  0  0  0
  146.5586  131.9153  150.1489 H   0  0  0  0  0  0  0  0  0  0  0  0
  145.3981  133.7074  148.9008 H   0  0  0  0  0  0  0  0  0  0  0  0
  144.1317  131.4701  149.4331 H   0  0  0  0  0  0  0  0  0  0  0  0
  142.9724  132.8173  149.3648 H   0  0  0  0  0  0  0  0  0  0  0  0
  1  2  1  0  0  0  0
  1 21  1  0  0  0  0
  1 22  1  0  0  0  0
  1 23  1  0  0  0  0
  2  7  1  0  0  0  0
  2  3  2  0  0  0  0
  3  4  1  0  0  0  0
  4  5  1  0  0  0  0
  5  6  1  0  0  0  0
  5  7  2  0  0  0  0
  6 24  1  0  0  0  0
  6 25  1  0  0  0  0
  6 26  1  0  0  0  0
  7  8  1  0  0  0  0
  8  9  1  0  0  0  0
  8 27  1  0  0  0  0
  8 28  1  0  0  0  0
  9 10  1  0  0  0  0
  9 29  1  0  0  0  0
  9 30  1  0  0  0  0
 10 11  1  0  0  0  0
 10 31  1  0  0  0  0
 11 12  2  0  0  0  0
 11 13  1  0  0  0  0
 13 14  1  0  0  0  0
 13 32  1  0  0  0  0
 14 19  1  0  0  0  0
 14 15  1  0  0  0  0
 14 33  1  0  0  0  0
 15 16  1  0  0  0  0
 15 34  1  0  0  0  0
 15 35  1  0  0  0  0
 16 20  1  0  0  0  0
 16 17  1  0  0  0  0
 16 36  1  0  0  0  0
 17 18  1  0  0  0  0
 17 37  1  0  0  0  0
 17 38  1  0  0  0  0
 18 19  1  0  0  0  0
 18 39  1  0  0  0  0
 18 40  1  0  0  0  0
 19 20  1  0  0  0  0
 19 41  1  0  0  0  0
 20 42  1  0  0  0  0
 20 43  1  0  0  0  0
M  END
> <s_m_source_file>
AV-unprocessed.smi

> <i_m_source_file_index>
919

> <i_lp_mmshare_version>
43012

> <i_f3d_flags>
0

> <s_epik_input>
W0NIM11jMW5vYyhbQ0gzXSljMVtDSDJdW0NIMl1bTkhdQyg9TylbTkhdW0NASF0oW0NIMl1bQ0BASF0yMylbQ0BASF0oW0NIMl0zKVtDSDJdW0NIMl0y

> <s_epik_cmdline>
J2VwaWtfcHl0aG9uJywgJy1waCcsICc3LjAnLCAnLXRuJywgJzgnLCAnLW1hJywgJzIwMCcsICctbWV0YWxfYmluZGluZycsICctaW1hZScsICc8aW5maWxlLm1hZT4nLCAnLW9tYWUnLCAnPG91dGZpbGUubWFlPic=

> <r_lp_tautomer_probability>
1

> <r_epik_Ionization_Penalty>
6.40771e-05

> <r_epik_Ionization_Penalty_Charging>
0

> <r_epik_Ionization_Penalty_Neutral>
6.40771e-05

> <r_epik_State_Penalty>
-0

> <r_epik_Charging_Adjusted_Penalty>
0

> <i_epik_Tot_Q>
0

> <i_epik_Tot_abs_Q>
0

> <r_epik_Metal_State_Penalty>
-0

> <b_epik_Metal_Only>
0

> <s_lp_Force_Field>
OPLS_2005

> <r_lp_Energy>
47.1923

> <b_lp_Chiralities_Consistent>
1

> <s_lp_Variant>
AV-unprocessed.smi:919-3

> <Gold.Version>
5.8.1

> <Gold.Id.Protein>
6NUR|6NUR_protein|mol2

> <Gold.PLP.Fitness>
43.8067

> <Gold.PLP.PLP>
-36.8317

> <Gold.PLP.part.hbond>
-3.7606

> <Gold.PLP.part.metal>
0.0000

> <Gold.PLP.part.buried>
-5.4023

> <Gold.PLP.part.nonpolar>
-29.9920

> <Gold.PLP.part.repulsive>
2.1782

> <Gold.PLP.ligand.clash>
0.0000

> <Gold.PLP.ligand.torsion>
0.6575

> <Gold.PLP.Chemscore.Hbond>
2.7583

> <Gold.PLP.Chemscore.CHOScore>
0.0000

> <Gold.PLP.Chemscore.Metal>
0.0000

> <Gold.Chemscore.Hbonds>
donor molecule, donor type, donor heavy atom, donor atom, acceptor molecule, acceptor atom, score
      L1  H    10    31       P1  7948  1.00
      P1  H  7989  7998       L1     4  0.91
      P1  H  8011  8017       L1     3  0.80

> <Gold.PLP.Chemscore.Internal.Correction>
0.0153

> <Gold.Rescore>
     Score         DG    S(hbond)    S(metal)    S(lipo)     H(rot)  DE(clash)    DE(int)     intcor
     18.45     -19.63       2.11        0.00      93.88       1.52       0.46       0.72       ----

> <Gold.Chemscore.Fitness>
18.4485

> <Gold.Chemscore.DG>
-19.6275

> <Gold.Chemscore.ZeroCoef>
-5.4800

> <Gold.Chemscore.Hbond>
2.1091

> <Gold.Chemscore.Metal>
0.0000

> <Gold.Chemscore.Lipo>
93.8844

> <Gold.Chemscore.Internal_Hbond>
0.0000

> <Gold.Chemscore.DEClash>
0.4551

> <Gold.Chemscore.DEInternal>
0.7239

> <Gold.Chemscore.Rot>
1.5161

> <Gold.Chemscore.Internal.Correction>
   9.000000E+99

> <Gold.Chemscore.Hbonds>
donor molecule, donor type, donor heavy atom, donor atom, acceptor molecule, acceptor atom, score
      L1  H    10    31       P1  7948  1.00
      P1  H  7989  7998       L1     4  0.25
      P1  H  8011  8017       L1     3  0.66

> <Gold.Chemscore.Hbond.Weighted>
-7.0443

> <Gold.Chemscore.Metal.Weighted>
-0.0000

> <Gold.Chemscore.Lipo.Weighted>
-10.9845

> <Gold.Chemscore.Internal_Hbond.Weighted>
0.0000

> <Gold.Chemscore.DEClash.Weighted>
0.4551

> <Gold.Chemscore.DEInternal.Weighted>
0.7239

> <Gold.Chemscore.Rot.Weighted>
3.8813

> <Gold.Chemscore.Internal.Correction.Weighted>
   9.000000E+99

> <Gold.Protein.RotatedTorsions>
[ 6907 6896 6895 6894 ] final  150.88 input  -60.11 | X-H torsion
[ 7974 7965 7964 7962 ] final  137.86 input  175.53 | X-H torsion
[ 8008 7997 7996 7995 ] final   37.93 input   59.86 | X-H torsion
[ 10167 10162 10161 10158 ] final  -98.83 input  -65.29 | X-H torsion
[ 10718 10713 10712 10709 ] final   27.69 input   66.30 | X-H torsion
[ 10763 10752 10751 10750 ] final  133.54 input  -60.55 | X-H torsion
[ 11005 11000 10999 10996 ] final  130.68 input  -57.11 | X-H torsion

> <Gold.Protein.ActiveResidues>
 VAL166  LYS551  ARG553  GLY616  TRP617  ASP618  TYR619  PRO620  LYS621  CYS622 
 ASP623  PHE694  ASN695  SER759  ASP760  ASP761  ALA762  ILE779  LEU786  VAL792 
 PHE793  MET794  SER795  GLU796  ALA797  LYS798  CYS799  TRP800  GLU811  SER814 

> <Gold.Protein.RotatedAtoms>
  152.1083  133.4287  159.4618 H   0  0  0  0  0  0  0  0  0  0  0  0  # atno 6907 bound_to 6896
  150.6866  134.2678  159.4585 H   0  0  0  0  0  0  0  0  0  0  0  0  # atno 6908 bound_to 6896
  152.0544  134.9633  160.0625 H   0  0  0  0  0  0  0  0  0  0  0  0  # atno 6909 bound_to 6896
  144.9427  139.4912  143.5564 H   0  0  0  0  0  0  0  0  0  0  0  0  # atno 7974 bound_to 7965
  155.2119  140.3324  155.4327 H   0  0  0  0  0  0  0  0  0  0  0  0  # atno 8008 bound_to 7997
  156.2367  140.1875  156.7148 H   0  0  0  0  0  0  0  0  0  0  0  0  # atno 8009 bound_to 7997
  154.6072  140.0614  156.9432 H   0  0  0  0  0  0  0  0  0  0  0  0  # atno 8010 bound_to 7997
  140.2688  143.3358  152.0555 H   0  0  0  0  0  0  0  0  0  0  0  0  # atno 10167 bound_to 10162
  157.2235  130.6990  149.6281 H   0  0  0  0  0  0  0  0  0  0  0  0  # atno 10718 bound_to 10713
  153.8088  135.3132  155.3398 H   0  0  0  0  0  0  0  0  0  0  0  0  # atno 10763 bound_to 10752
  154.8059  135.4698  154.0395 H   0  0  0  0  0  0  0  0  0  0  0  0  # atno 10764 bound_to 10752
  153.1767  135.6887  153.8622 H   0  0  0  0  0  0  0  0  0  0  0  0  # atno 10765 bound_to 10752
  139.9686  134.9584  156.9328 H   0  0  0  0  0  0  0  0  0  0  0  0  # atno 11005 bound_to 11000
  146.3292  139.8457  142.8882 LP  0  0  0  0  0  0  0  0  0  0  0  0  # atno 17320 bound_to 7965
  145.2966  141.0182  143.3632 LP  0  0  0  0  0  0  0  0  0  0  0  0  # atno 17321 bound_to 7965
  139.4995  144.6670  151.6333 LP  0  0  0  0  0  0  0  0  0  0  0  0  # atno 17342 bound_to 10162
  140.5906  143.9786  150.6322 LP  0  0  0  0  0  0  0  0  0  0  0  0  # atno 17343 bound_to 10162
  155.9680  130.4512  150.5726 LP  0  0  0  0  0  0  0  0  0  0  0  0  # atno 17370 bound_to 10713
  157.3551  131.0740  151.1682 LP  0  0  0  0  0  0  0  0  0  0  0  0  # atno 17371 bound_to 10713
  140.5343  134.0783  155.7324 LP  0  0  0  0  0  0  0  0  0  0  0  0  # atno 17394 bound_to 11000
  141.1366  133.9212  157.2421 LP  0  0  0  0  0  0  0  0  0  0  0  0  # atno 17395 bound_to 11000

$$$$
