AV-unprocessed.smi:1645|AV-procd|sdf|6611|dock5
  -GOLD-   22720 7313D 1   1.00000     0.00000
 Structure written by MMmdl.
 56 59  0  0  0  0  0  0  0  0  3 V2000
  146.3624  136.8150  155.4081 O   0  0  0  0  0  0  0  0  0  0  0  0
  147.0905  136.5300  154.4576 C   0  0  0  0  0  0  0  0  0  0  0  0
  148.2953  137.0727  154.2133 N   0  0  0  0  0  0  0  0  0  0  0  0
  148.9714  138.0730  154.9613 C   0  0  0  0  0  0  0  0  0  0  0  0
  150.1570  138.7162  154.5257 C   0  0  0  0  0  0  0  0  0  0  0  0
  150.7617  139.6876  155.3493 C   0  0  0  0  0  0  0  0  0  0  0  0
  150.1798  139.9979  156.5996 C   0  0  0  0  0  0  0  0  0  0  0  0
  150.7090  140.9500  157.4802 N   0  0  0  0  0  0  0  0  0  0  0  0
  151.9898  140.5449  158.0544 C   0  0  0  0  0  0  0  0  0  0  0  0
  152.4355  141.5310  159.1480 C   0  0  0  0  0  0  0  0  0  0  0  0
  152.4642  142.9707  158.6100 C   0  0  0  0  0  0  0  0  0  0  0  0
  151.1050  143.3340  157.9908 C   0  0  0  0  0  0  0  0  0  0  0  0
  150.6920  142.3019  156.9273 C   0  0  0  0  0  0  0  0  0  0  0  0
  149.0578  139.3511  156.9837 N   0  3  0  0  0  0  0  0  0  0  0  0
  148.4488  138.4133  156.2266 C   0  0  0  0  0  0  0  0  0  0  0  0
  146.7770  135.6015  153.5431 N   0  0  0  0  0  0  0  0  0  0  0  0
  145.5418  134.8212  153.5454 C   0  0  1  0  0  0  0  0  0  0  0  0
  144.3090  135.6295  153.1195 C   0  0  0  0  0  0  0  0  0  0  0  0
  143.3816  134.6109  152.4321 C   0  0  0  0  0  0  0  0  0  0  0  0
  144.1035  133.3185  152.4484 N   0  3  1  0  0  0  0  0  0  0  0  0
  143.7382  132.3424  151.3901 C   0  0  0  0  0  0  0  0  0  0  0  0
  144.3809  132.6711  150.0323 C   0  0  0  0  0  0  0  0  0  0  0  0
  145.8979  132.8282  150.1767 C   0  0  0  0  0  0  0  0  0  0  0  0
  146.2060  133.9210  151.2055 C   0  0  0  0  0  0  0  0  0  0  0  0
  145.5454  133.6255  152.5771 C   0  0  1  0  0  0  0  0  0  0  0  0
  148.8180  136.6744  153.4466 H   0  0  0  0  0  0  0  0  0  0  0  0
  150.6217  138.4746  153.5822 H   0  0  0  0  0  0  0  0  0  0  0  0
  151.6641  140.1834  155.0221 H   0  0  0  0  0  0  0  0  0  0  0  0
  151.9046  139.5412  158.4733 H   0  0  0  0  0  0  0  0  0  0  0  0
  152.7453  140.5006  157.2687 H   0  0  0  0  0  0  0  0  0  0  0  0
  151.7504  141.4712  159.9949 H   0  0  0  0  0  0  0  0  0  0  0  0
  153.4197  141.2512  159.5250 H   0  0  0  0  0  0  0  0  0  0  0  0
  152.7132  143.6681  159.4104 H   0  0  0  0  0  0  0  0  0  0  0  0
  153.2477  143.0656  157.8570 H   0  0  0  0  0  0  0  0  0  0  0  0
  150.3463  143.3751  158.7738 H   0  0  0  0  0  0  0  0  0  0  0  0
  151.1479  144.3295  157.5482 H   0  0  0  0  0  0  0  0  0  0  0  0
  151.3728  142.3568  156.0767 H   0  0  0  0  0  0  0  0  0  0  0  0
  149.6939  142.5345  156.5536 H   0  0  0  0  0  0  0  0  0  0  0  0
  147.5594  137.9725  156.6531 H   0  0  0  0  0  0  0  0  0  0  0  0
  147.4325  135.4211  152.7966 H   0  0  0  0  0  0  0  0  0  0  0  0
  145.3613  134.4486  154.5561 H   0  0  0  0  0  0  0  0  0  0  0  0
  143.8303  136.1120  153.9721 H   0  0  0  0  0  0  0  0  0  0  0  0
  144.5818  136.4126  152.4103 H   0  0  0  0  0  0  0  0  0  0  0  0
  142.4279  134.5113  152.9509 H   0  0  0  0  0  0  0  0  0  0  0  0
  143.1725  134.9293  151.4101 H   0  0  0  0  0  0  0  0  0  0  0  0
  144.0741  131.3566  151.7146 H   0  0  0  0  0  0  0  0  0  0  0  0
  142.6528  132.2843  151.3004 H   0  0  0  0  0  0  0  0  0  0  0  0
  144.1555  131.8806  149.3160 H   0  0  0  0  0  0  0  0  0  0  0  0
  143.9515  133.5862  149.6232 H   0  0  0  0  0  0  0  0  0  0  0  0
  146.3438  131.8834  150.4906 H   0  0  0  0  0  0  0  0  0  0  0  0
  146.3431  133.0816  149.2141 H   0  0  0  0  0  0  0  0  0  0  0  0
  147.2864  134.0144  151.3206 H   0  0  0  0  0  0  0  0  0  0  0  0
  145.8572  134.8786  150.8167 H   0  0  0  0  0  0  0  0  0  0  0  0
  146.0473  132.7697  153.0310 H   0  0  0  0  0  0  0  0  0  0  0  0
  143.8433  132.8910  153.3258 H   0  0  0  0  0  0  0  0  0  0  0  0
  148.6511  139.5824  157.8906 H   0  0  0  0  0  0  0  0  0  0  0  0
  1  2  2  0  0  0  0
  2  3  1  0  0  0  0
  2 16  1  0  0  0  0
  3  4  1  0  0  0  0
  3 26  1  0  0  0  0
  4 15  1  0  0  0  0
  4  5  2  0  0  0  0
  5  6  1  0  0  0  0
  5 27  1  0  0  0  0
  6  7  2  0  0  0  0
  6 28  1  0  0  0  0
  7  8  1  0  0  0  0
  7 14  1  0  0  0  0
  8 13  1  0  0  0  0
  8  9  1  0  0  0  0
  9 10  1  0  0  0  0
  9 29  1  0  0  0  0
  9 30  1  0  0  0  0
 10 11  1  0  0  0  0
 10 31  1  0  0  0  0
 10 32  1  0  0  0  0
 11 12  1  0  0  0  0
 11 33  1  0  0  0  0
 11 34  1  0  0  0  0
 12 13  1  0  0  0  0
 12 35  1  0  0  0  0
 12 36  1  0  0  0  0
 13 37  1  0  0  0  0
 13 38  1  0  0  0  0
 14 15  2  0  0  0  0
 14 56  1  0  0  0  0
 15 39  1  0  0  0  0
 16 17  1  0  0  0  0
 16 40  1  0  0  0  0
 17 25  1  0  0  0  0
 17 18  1  0  0  0  0
 17 41  1  0  0  0  0
 18 19  1  0  0  0  0
 18 42  1  0  0  0  0
 18 43  1  0  0  0  0
 19 20  1  0  0  0  0
 19 44  1  0  0  0  0
 19 45  1  0  0  0  0
 20 25  1  0  0  0  0
 20 21  1  0  0  0  0
 20 55  1  0  0  0  0
 21 22  1  0  0  0  0
 21 46  1  0  0  0  0
 21 47  1  0  0  0  0
 22 23  1  0  0  0  0
 22 48  1  0  0  0  0
 22 49  1  0  0  0  0
 23 24  1  0  0  0  0
 23 50  1  0  0  0  0
 23 51  1  0  0  0  0
 24 25  1  0  0  0  0
 24 52  1  0  0  0  0
 24 53  1  0  0  0  0
 25 54  1  0  0  0  0
M  CHG  1  14   1
M  CHG  1  20   1
M  END
> <s_m_source_file>
AV-unprocessed.smi

> <i_m_source_file_index>
1645

> <i_lp_mmshare_version>
43012

> <i_f3d_flags>
0

> <s_epik_input>
W0NIMl0xW0NIMl1bQ0gyXVtDSDJdW0NASF0oTjEyKVtDQEBIXShbQ0gyXVtDSDJdMilbTkhdQyg9TylbTkhdYzNbY0hdW2NIXWMobltjSF0zKU40W0NIMl1bQ0gyXVtDSDJdW0NIMl1bQ0gyXTQ=

> <s_epik_cmdline>
J2VwaWtfcHl0aG9uJywgJy1waCcsICc3LjAnLCAnLXRuJywgJzgnLCAnLW1hJywgJzIwMCcsICctbWV0YWxfYmluZGluZycsICctaW1hZScsICc8aW5maWxlLm1hZT4nLCAnLW9tYWUnLCAnPG91dGZpbGUubWFlPic=

> <r_lp_tautomer_probability>
0.999994

> <r_epik_Ionization_Penalty>
1.26838

> <r_epik_Ionization_Penalty_Charging>
1.26836

> <r_epik_Ionization_Penalty_Neutral>
1.95562e-05

> <r_epik_State_Penalty>
1.33841

> <r_epik_Charging_Adjusted_Penalty>
2.60677

> <i_epik_Tot_Q>
2

> <i_epik_Tot_abs_Q>
2

> <r_epik_Metal_State_Penalty>
1.40601

> <b_epik_Metal_Only>
0

> <s_lp_Force_Field>
OPLS_2005

> <r_lp_Energy>
62.3043

> <b_lp_Chiralities_Consistent>
1

> <s_lp_Variant>
AV-unprocessed.smi:1645-12

> <Gold.Version>
5.8.1

> <Gold.Id.Protein>
6NUR|6NUR_protein|mol2

> <Gold.PLP.Fitness>
46.7131

> <Gold.PLP.PLP>
-37.5238

> <Gold.PLP.part.hbond>
-2.6725

> <Gold.PLP.part.metal>
0.0000

> <Gold.PLP.part.buried>
-5.9386

> <Gold.PLP.part.nonpolar>
-30.2857

> <Gold.PLP.part.repulsive>
0.0788

> <Gold.PLP.ligand.clash>
0.0000

> <Gold.PLP.ligand.torsion>
0.2472

> <Gold.PLP.Chemscore.Hbond>
3.1805

> <Gold.PLP.Chemscore.CHOScore>
0.0000

> <Gold.PLP.Chemscore.Metal>
0.0000

> <Gold.Chemscore.Hbonds>
donor molecule, donor type, donor heavy atom, donor atom, acceptor molecule, acceptor atom, score
      L1  H     3    26       P1  7948  1.00
      L1  H    16    40       P1  7948  0.85
      L1  H    20    55       P1 10957  1.27

> <Gold.PLP.Chemscore.Internal.Correction>
0.1422

> <Gold.Rescore>
     Score         DG    S(hbond)    S(metal)    S(lipo)     H(rot)  DE(clash)    DE(int)     intcor
     22.08     -23.77       2.68        0.00     105.80       1.18       0.00       1.69       ----

> <Gold.Chemscore.Fitness>
22.0801

> <Gold.Chemscore.DG>
-23.7729

> <Gold.Chemscore.ZeroCoef>
-5.4800

> <Gold.Chemscore.Hbond>
2.6778

> <Gold.Chemscore.Metal>
0.0000

> <Gold.Chemscore.Lipo>
105.7986

> <Gold.Chemscore.Internal_Hbond>
0.0000

> <Gold.Chemscore.DEClash>
0.0029

> <Gold.Chemscore.DEInternal>
1.6898

> <Gold.Chemscore.Rot>
1.1833

> <Gold.Chemscore.Internal.Correction>
   9.000000E+99

> <Gold.Chemscore.Hbonds>
donor molecule, donor type, donor heavy atom, donor atom, acceptor molecule, acceptor atom, score
      L1  H     3    26       P1  7948  0.96
      L1  H    16    40       P1  7948  0.84
      L1  H    20    55       P1 10957  0.38

> <Gold.Chemscore.Hbond.Weighted>
-8.9438

> <Gold.Chemscore.Metal.Weighted>
-0.0000

> <Gold.Chemscore.Lipo.Weighted>
-12.3784

> <Gold.Chemscore.Internal_Hbond.Weighted>
0.0000

> <Gold.Chemscore.DEClash.Weighted>
0.0029

> <Gold.Chemscore.DEInternal.Weighted>
1.6898

> <Gold.Chemscore.Rot.Weighted>
3.0293

> <Gold.Chemscore.Internal.Correction.Weighted>
   9.000000E+99

> <Gold.Protein.RotatedTorsions>
[ 6907 6896 6895 6894 ] final -131.01 input  -60.11 | X-H torsion
[ 7974 7965 7964 7962 ] final  -84.52 input  175.53 | X-H torsion
[ 8008 7997 7996 7995 ] final -179.44 input   59.86 | X-H torsion
[ 10167 10162 10161 10158 ] final  -49.33 input  -65.29 | X-H torsion
[ 10718 10713 10712 10709 ] final   31.34 input   66.30 | X-H torsion
[ 10763 10752 10751 10750 ] final  -20.29 input  -60.55 | X-H torsion
[ 11005 11000 10999 10996 ] final   -4.45 input  -57.11 | X-H torsion

> <Gold.Protein.ActiveResidues>
 VAL166  LYS551  ARG553  GLY616  TRP617  ASP618  TYR619  PRO620  LYS621  CYS622 
 ASP623  PHE694  ASN695  SER759  ASP760  ASP761  ALA762  ILE779  LEU786  VAL792 
 PHE793  MET794  SER795  GLU796  ALA797  LYS798  CYS799  TRP800  GLU811  SER814 

> <Gold.Protein.RotatedAtoms>
  150.9462  133.6601  159.2780 H   0  0  0  0  0  0  0  0  0  0  0  0  # atno 6907 bound_to 6896
  151.3973  135.0964  159.9554 H   0  0  0  0  0  0  0  0  0  0  0  0  # atno 6908 bound_to 6896
  152.5090  133.8963  159.7473 H   0  0  0  0  0  0  0  0  0  0  0  0  # atno 6909 bound_to 6896
  145.5055  140.9544  143.1736 H   0  0  0  0  0  0  0  0  0  0  0  0  # atno 7974 bound_to 7965
  156.0305  140.1281  157.0263 H   0  0  0  0  0  0  0  0  0  0  0  0  # atno 8008 bound_to 7997
  154.4348  140.1050  156.6163 H   0  0  0  0  0  0  0  0  0  0  0  0  # atno 8009 bound_to 7997
  155.5814  140.3468  155.4543 H   0  0  0  0  0  0  0  0  0  0  0  0  # atno 8010 bound_to 7997
  140.6690  143.2702  151.4200 H   0  0  0  0  0  0  0  0  0  0  0  0  # atno 10167 bound_to 10162
  157.2713  130.7209  149.6506 H   0  0  0  0  0  0  0  0  0  0  0  0  # atno 10718 bound_to 10713
  153.6182  135.6994  153.5321 H   0  0  0  0  0  0  0  0  0  0  0  0  # atno 10763 bound_to 10752
  153.2960  135.4143  155.1209 H   0  0  0  0  0  0  0  0  0  0  0  0  # atno 10764 bound_to 10752
  154.8549  135.3637  154.5722 H   0  0  0  0  0  0  0  0  0  0  0  0  # atno 10765 bound_to 10752
  140.6804  133.9158  155.8552 H   0  0  0  0  0  0  0  0  0  0  0  0  # atno 11005 bound_to 11000
  144.7756  139.6637  143.7176 LP  0  0  0  0  0  0  0  0  0  0  0  0  # atno 17320 bound_to 7965
  146.2199  139.5617  142.9625 LP  0  0  0  0  0  0  0  0  0  0  0  0  # atno 17321 bound_to 7965
  139.5950  144.1417  152.2133 LP  0  0  0  0  0  0  0  0  0  0  0  0  # atno 17342 bound_to 10162
  140.0783  144.5721  150.7140 LP  0  0  0  0  0  0  0  0  0  0  0  0  # atno 17343 bound_to 10162
  155.9663  130.4367  150.5144 LP  0  0  0  0  0  0  0  0  0  0  0  0  # atno 17370 bound_to 10713
  157.3068  131.0656  151.2029 LP  0  0  0  0  0  0  0  0  0  0  0  0  # atno 17371 bound_to 10713
  141.0322  134.0740  157.4001 LP  0  0  0  0  0  0  0  0  0  0  0  0  # atno 17394 bound_to 11000
  139.8953  135.0140  156.6997 LP  0  0  0  0  0  0  0  0  0  0  0  0  # atno 17395 bound_to 11000

$$$$
