AV-unprocessed.smi:637|AV-procd|sdf|3141|dock4
  -GOLD-   22720 0 63D 1   1.00000     0.00000
 Structure written by MMmdl.
 38 40  0  0  0  0  0  0  0  0  1 V2000
  151.5393  145.7023  159.9466 C   0  0  0  0  0  0  0  0  0  0  0  0
  152.1815  144.3681  160.1211 C   0  0  0  0  0  0  0  0  0  0  0  0
  152.2384  143.3388  159.2131 C   0  0  0  0  0  0  0  0  0  0  0  0
  152.9287  142.1895  159.7012 C   0  0  0  0  0  0  0  0  0  0  0  0
  153.3852  142.3737  160.9846 C   0  0  0  0  0  0  0  0  0  0  0  0
  154.1129  141.3294  161.6875 C   0  0  0  0  0  0  0  0  0  0  0  0
  153.9403  139.9272  161.3478 C   0  0  0  0  0  0  0  0  0  0  0  0
  154.6451  138.9936  162.0226 C   0  0  0  0  0  0  0  0  0  0  0  0
  155.5777  139.3541  163.0884 C   0  0  0  0  0  0  0  0  0  0  0  0
  156.2344  138.5263  163.7196 O   0  0  0  0  0  0  0  0  0  0  0  0
  155.6527  140.6973  163.3219 N   0  0  0  0  0  0  0  0  0  0  0  0
  156.5400  141.2452  164.3547 C   0  0  0  0  0  0  0  0  0  0  0  0
  156.2762  142.7422  164.6266 C   0  0  2  0  0  0  0  0  0  0  0  0
  156.6580  143.4871  163.4861 O   0  0  0  0  0  0  0  0  0  0  0  0
  157.0237  143.2057  165.8679 C   0  0  0  0  0  0  0  0  0  0  0  0
  156.8549  142.5181  167.0889 C   0  0  0  0  0  0  0  0  0  0  0  0
  157.5522  142.9335  168.2402 C   0  0  0  0  0  0  0  0  0  0  0  0
  158.4246  144.0368  168.1762 C   0  0  0  0  0  0  0  0  0  0  0  0
  158.6001  144.7246  166.9603 C   0  0  0  0  0  0  0  0  0  0  0  0
  159.4406  145.7842  166.8968 F   0  0  0  0  0  0  0  0  0  0  0  0
  157.9032  144.3097  165.8091 C   0  0  0  0  0  0  0  0  0  0  0  0
  154.9354  141.6580  162.6320 N   0  0  0  0  0  0  0  0  0  0  0  0
  152.9876  143.9496  161.6132 S   0  0  0  0  0  0  0  0  0  0  0  0
  151.0266  145.7698  158.9868 H   0  0  0  0  0  0  0  0  0  0  0  0
  152.2835  146.4977  159.9879 H   0  0  0  0  0  0  0  0  0  0  0  0
  150.8057  145.8838  160.7324 H   0  0  0  0  0  0  0  0  0  0  0  0
  151.8098  143.3700  158.2221 H   0  0  0  0  0  0  0  0  0  0  0  0
  153.0511  141.3019  159.0968 H   0  0  0  0  0  0  0  0  0  0  0  0
  153.2573  139.6325  160.5654 H   0  0  0  0  0  0  0  0  0  0  0  0
  154.5170  137.9514  161.7692 H   0  0  0  0  0  0  0  0  0  0  0  0
  156.3839  140.6757  165.2731 H   0  0  0  0  0  0  0  0  0  0  0  0
  157.5894  141.0836  164.0990 H   0  0  0  0  0  0  0  0  0  0  0  0
  155.2111  142.9141  164.7871 H   0  0  0  0  0  0  0  0  0  0  0  0
  155.8811  143.8612  163.0996 H   0  0  0  0  0  0  0  0  0  0  0  0
  156.1918  141.6672  167.1467 H   0  0  0  0  0  0  0  0  0  0  0  0
  157.4187  142.4046  169.1725 H   0  0  0  0  0  0  0  0  0  0  0  0
  158.9604  144.3541  169.0587 H   0  0  0  0  0  0  0  0  0  0  0  0
  158.0485  144.8402  164.8794 H   0  0  0  0  0  0  0  0  0  0  0  0
  1  2  1  0  0  0  0
  1 24  1  0  0  0  0
  1 25  1  0  0  0  0
  1 26  1  0  0  0  0
  2 23  1  0  0  0  0
  2  3  2  0  0  0  0
  3  4  1  0  0  0  0
  3 27  1  0  0  0  0
  4  5  2  0  0  0  0
  4 28  1  0  0  0  0
  5  6  1  0  0  0  0
  5 23  1  0  0  0  0
  6 22  2  0  0  0  0
  6  7  1  0  0  0  0
  7  8  2  0  0  0  0
  7 29  1  0  0  0  0
  8  9  1  0  0  0  0
  8 30  1  0  0  0  0
  9 10  2  0  0  0  0
  9 11  1  0  0  0  0
 11 12  1  0  0  0  0
 11 22  1  0  0  0  0
 12 13  1  0  0  0  0
 12 31  1  0  0  0  0
 12 32  1  0  0  0  0
 13 14  1  0  0  0  0
 13 15  1  0  0  0  0
 13 33  1  0  0  0  0
 14 34  1  0  0  0  0
 15 21  1  0  0  0  0
 15 16  2  0  0  0  0
 16 17  1  0  0  0  0
 16 35  1  0  0  0  0
 17 18  2  0  0  0  0
 17 36  1  0  0  0  0
 18 19  1  0  0  0  0
 18 37  1  0  0  0  0
 19 20  1  0  0  0  0
 19 21  2  0  0  0  0
 21 38  1  0  0  0  0
M  END
> <s_m_source_file>
AV-unprocessed.smi

> <i_m_source_file_index>
637

> <i_lp_mmshare_version>
43012

> <i_f3d_flags>
0

> <s_epik_input>
W0NIM11jMVtjSF1bY0hdYyhzMSktYzJbY0hdW2NIXWMoPU8pbihuMilbQ0gyXVtDQEhdKFtPSF0pYzNbY0hdW2NIXVtjSF1jKEYpW2NIXTM=

> <s_epik_cmdline>
J2VwaWtfcHl0aG9uJywgJy1waCcsICc3LjAnLCAnLXRuJywgJzgnLCAnLW1hJywgJzIwMCcsICctbWV0YWxfYmluZGluZycsICctaW1hZScsICc8aW5maWxlLm1hZT4nLCAnLW9tYWUnLCAnPG91dGZpbGUubWFlPic=

> <r_lp_tautomer_probability>
1

> <r_epik_Ionization_Penalty>
2.26963e-07

> <r_epik_Ionization_Penalty_Charging>
5.89185e-08

> <r_epik_Ionization_Penalty_Neutral>
1.68044e-07

> <r_epik_State_Penalty>
-0

> <r_epik_Charging_Adjusted_Penalty>
5.89185e-08

> <i_epik_Tot_Q>
0

> <i_epik_Tot_abs_Q>
0

> <r_epik_Metal_State_Penalty>
-0

> <b_epik_Metal_Only>
0

> <s_lp_Force_Field>
OPLS_2005

> <r_lp_Energy>
28.2523

> <b_lp_Chiralities_Consistent>
1

> <s_lp_Variant>
AV-unprocessed.smi:637-1

> <Gold.Version>
5.8.1

> <Gold.Id.Protein>
6NUR|6NUR_protein|mol2

> <Gold.PLP.Fitness>
55.0095

> <Gold.PLP.PLP>
-55.9513

> <Gold.PLP.part.hbond>
-2.0000

> <Gold.PLP.part.metal>
0.0000

> <Gold.PLP.part.buried>
-6.4539

> <Gold.PLP.part.nonpolar>
-48.2304

> <Gold.PLP.part.repulsive>
0.0000

> <Gold.PLP.ligand.clash>
0.0000

> <Gold.PLP.ligand.torsion>
0.4771

> <Gold.PLP.Chemscore.Hbond>
0.0000

> <Gold.PLP.Chemscore.CHOScore>
0.0000

> <Gold.PLP.Chemscore.Metal>
0.0000

> <Gold.PLP.Chemscore.Internal.Correction>
0.0125

> <Gold.Rescore>
     Score         DG    S(hbond)    S(metal)    S(lipo)     H(rot)  DE(clash)    DE(int)     intcor
     13.72     -16.88       0.00        0.00     137.35       1.82       1.90       1.26       ----

> <Gold.Chemscore.Fitness>
13.7161

> <Gold.Chemscore.DG>
-16.8847

> <Gold.Chemscore.ZeroCoef>
-5.4800

> <Gold.Chemscore.Hbond>
0.0000

> <Gold.Chemscore.Metal>
0.0000

> <Gold.Chemscore.Lipo>
137.3472

> <Gold.Chemscore.Internal_Hbond>
0.0000

> <Gold.Chemscore.DEClash>
1.9039

> <Gold.Chemscore.DEInternal>
1.2648

> <Gold.Chemscore.Rot>
1.8222

> <Gold.Chemscore.Internal.Correction>
   9.000000E+99

> <Gold.Chemscore.Hbond.Weighted>
-0.0000

> <Gold.Chemscore.Metal.Weighted>
-0.0000

> <Gold.Chemscore.Lipo.Weighted>
-16.0696

> <Gold.Chemscore.Internal_Hbond.Weighted>
0.0000

> <Gold.Chemscore.DEClash.Weighted>
1.9039

> <Gold.Chemscore.DEInternal.Weighted>
1.2648

> <Gold.Chemscore.Rot.Weighted>
4.6649

> <Gold.Chemscore.Internal.Correction.Weighted>
   9.000000E+99

> <Gold.Protein.RotatedTorsions>
[ 6907 6896 6895 6894 ] final   -6.65 input  -60.11 | X-H torsion
[ 7974 7965 7964 7962 ] final   60.20 input  175.53 | X-H torsion
[ 8008 7997 7996 7995 ] final  149.57 input   59.86 | X-H torsion
[ 10167 10162 10161 10158 ] final   89.41 input  -65.29 | X-H torsion
[ 10718 10713 10712 10709 ] final -128.95 input   66.30 | X-H torsion
[ 10763 10752 10751 10750 ] final  148.13 input  -60.55 | X-H torsion
[ 11005 11000 10999 10996 ] final  118.23 input  -57.11 | X-H torsion

> <Gold.Protein.ActiveResidues>
 VAL166  LYS551  ARG553  GLY616  TRP617  ASP618  TYR619  PRO620  LYS621  CYS622 
 ASP623  PHE694  ASN695  SER759  ASP760  ASP761  ALA762  ILE779  LEU786  VAL792 
 PHE793  MET794  SER795  GLU796  ALA797  LYS798  CYS799  TRP800  GLU811  SER814 

> <Gold.Protein.RotatedAtoms>
  151.4621  135.1039  159.9727 H   0  0  0  0  0  0  0  0  0  0  0  0  # atno 6907 bound_to 6896
  152.4849  133.8343  159.7130 H   0  0  0  0  0  0  0  0  0  0  0  0  # atno 6908 bound_to 6896
  150.8950  133.7133  159.2921 H   0  0  0  0  0  0  0  0  0  0  0  0  # atno 6909 bound_to 6896
  145.8987  139.3564  143.0606 H   0  0  0  0  0  0  0  0  0  0  0  0  # atno 7974 bound_to 7965
  156.2750  140.2098  156.5879 H   0  0  0  0  0  0  0  0  0  0  0  0  # atno 8008 bound_to 7997
  154.7006  140.0521  157.0478 H   0  0  0  0  0  0  0  0  0  0  0  0  # atno 8009 bound_to 7997
  155.0740  140.3179  155.4624 H   0  0  0  0  0  0  0  0  0  0  0  0  # atno 8010 bound_to 7997
  139.8576  144.6561  150.9096 H   0  0  0  0  0  0  0  0  0  0  0  0  # atno 10167 bound_to 10162
  156.2000  130.6851  151.0527 H   0  0  0  0  0  0  0  0  0  0  0  0  # atno 10718 bound_to 10713
  154.0497  135.2883  155.3342 H   0  0  0  0  0  0  0  0  0  0  0  0  # atno 10763 bound_to 10752
  154.6877  135.5239  153.8352 H   0  0  0  0  0  0  0  0  0  0  0  0  # atno 10764 bound_to 10752
  153.0566  135.6597  154.0694 H   0  0  0  0  0  0  0  0  0  0  0  0  # atno 10765 bound_to 10752
  139.9102  134.9618  156.7472 H   0  0  0  0  0  0  0  0  0  0  0  0  # atno 11005 bound_to 11000
  145.8819  140.9358  143.0597 LP  0  0  0  0  0  0  0  0  0  0  0  0  # atno 17320 bound_to 7965
  144.6734  140.0790  143.7470 LP  0  0  0  0  0  0  0  0  0  0  0  0  # atno 17321 bound_to 7965
  140.7779  143.3773  151.1541 LP  0  0  0  0  0  0  0  0  0  0  0  0  # atno 17342 bound_to 10162
  139.7405  143.8932  152.3048 LP  0  0  0  0  0  0  0  0  0  0  0  0  # atno 17343 bound_to 10162
  157.6980  131.0787  150.6909 LP  0  0  0  0  0  0  0  0  0  0  0  0  # atno 17370 bound_to 10713
  156.6967  130.4611  149.5584 LP  0  0  0  0  0  0  0  0  0  0  0  0  # atno 17371 bound_to 10713
  140.6802  133.9481  155.7906 LP  0  0  0  0  0  0  0  0  0  0  0  0  # atno 17394 bound_to 11000
  141.0515  134.0477  157.3777 LP  0  0  0  0  0  0  0  0  0  0  0  0  # atno 17395 bound_to 11000

$$$$
