AV-unprocessed.smi:1099|AV-procd|sdf|4757|dock1
  -GOLD-   22720 3293D 1   1.00000     0.00000
 Structure written by MMmdl.
 41 43  0  0  0  0  0  0  0  0  1 V2000
  153.3591  142.5237  161.8783 C   0  0  0  0  0  0  0  0  0  0  0  0
  152.5886  143.8258  161.6363 C   0  0  0  0  0  0  0  0  0  0  0  0
  152.0193  143.9074  160.2594 C   0  0  0  0  0  0  0  0  0  0  0  0
  151.2715  142.9453  159.7118 N   0  0  0  0  0  0  0  0  0  0  0  0
  150.8854  143.2437  158.4013 C   0  0  0  0  0  0  0  0  0  0  0  0
  150.0288  142.2826  157.6339 C   0  0  0  0  0  0  0  0  0  0  0  0
  150.5608  142.0328  156.2160 C   0  0  0  0  0  0  0  0  0  0  0  0
  149.5546  141.3675  155.3996 N   0  0  0  0  0  0  0  0  0  0  0  0
  149.7804  140.2724  154.6598 C   0  0  0  0  0  0  0  0  0  0  0  0
  150.8810  139.7230  154.5979 O   0  0  0  0  0  0  0  0  0  0  0  0
  148.5653  139.7052  153.9037 C   0  0  2  0  0  0  0  0  0  0  0  0
  147.2751  140.5539  154.0227 C   0  0  0  0  0  0  0  0  0  0  0  0
  146.2280  139.5274  154.4948 C   0  0  2  0  0  0  0  0  0  0  0  0
  146.4867  139.1701  155.9703 C   0  0  0  0  0  0  0  0  0  0  0  0
  147.7388  138.2780  155.8878 C   0  0  0  0  0  0  0  0  0  0  0  0
  148.0819  138.3103  154.3820 C   0  0  1  0  0  0  0  0  0  0  0  0
  146.6825  138.2623  153.7756 C   0  0  0  0  0  0  0  0  0  0  0  0
  151.3651  144.4507  157.9575 C   0  0  0  0  0  0  0  0  0  0  0  0
  152.3237  145.2549  159.1692 S   0  0  0  0  0  0  0  0  0  0  0  0
  153.7660  142.4959  162.8892 H   0  0  0  0  0  0  0  0  0  0  0  0
  154.1917  142.4237  161.1811 H   0  0  0  0  0  0  0  0  0  0  0  0
  152.7117  141.6550  161.7551 H   0  0  0  0  0  0  0  0  0  0  0  0
  151.7780  143.9192  162.3600 H   0  0  0  0  0  0  0  0  0  0  0  0
  153.2469  144.6809  161.7925 H   0  0  0  0  0  0  0  0  0  0  0  0
  149.9674  141.3349  158.1704 H   0  0  0  0  0  0  0  0  0  0  0  0
  149.0071  142.6607  157.5778 H   0  0  0  0  0  0  0  0  0  0  0  0
  150.8432  142.9768  155.7473 H   0  0  0  0  0  0  0  0  0  0  0  0
  151.4573  141.4121  156.2588 H   0  0  0  0  0  0  0  0  0  0  0  0
  148.6240  141.7592  155.4036 H   0  0  0  0  0  0  0  0  0  0  0  0
  148.8275  139.6357  152.8460 H   0  0  0  0  0  0  0  0  0  0  0  0
  147.3522  141.3993  154.7074 H   0  0  0  0  0  0  0  0  0  0  0  0
  147.0000  140.9556  153.0468 H   0  0  0  0  0  0  0  0  0  0  0  0
  145.1998  139.8294  154.2935 H   0  0  0  0  0  0  0  0  0  0  0  0
  146.6483  140.0560  156.5858 H   0  0  0  0  0  0  0  0  0  0  0  0
  145.6477  138.6162  156.3932 H   0  0  0  0  0  0  0  0  0  0  0  0
  148.5465  138.6175  156.5349 H   0  0  0  0  0  0  0  0  0  0  0  0
  147.4935  137.2604  156.1950 H   0  0  0  0  0  0  0  0  0  0  0  0
  148.7327  137.4944  154.0659 H   0  0  0  0  0  0  0  0  0  0  0  0
  146.1146  137.3745  154.0602 H   0  0  0  0  0  0  0  0  0  0  0  0
  146.6756  138.3558  152.6880 H   0  0  0  0  0  0  0  0  0  0  0  0
  151.2149  144.9131  156.9933 H   0  0  0  0  0  0  0  0  0  0  0  0
  1  2  1  0  0  0  0
  1 20  1  0  0  0  0
  1 21  1  0  0  0  0
  1 22  1  0  0  0  0
  2  3  1  0  0  0  0
  2 23  1  0  0  0  0
  2 24  1  0  0  0  0
  3 19  1  0  0  0  0
  3  4  2  0  0  0  0
  4  5  1  0  0  0  0
  5  6  1  0  0  0  0
  5 18  2  0  0  0  0
  6  7  1  0  0  0  0
  6 25  1  0  0  0  0
  6 26  1  0  0  0  0
  7  8  1  0  0  0  0
  7 27  1  0  0  0  0
  7 28  1  0  0  0  0
  8  9  1  0  0  0  0
  8 29  1  0  0  0  0
  9 10  2  0  0  0  0
  9 11  1  0  0  0  0
 11 16  1  0  0  0  0
 11 12  1  0  0  0  0
 11 30  1  0  0  0  0
 12 13  1  0  0  0  0
 12 31  1  0  0  0  0
 12 32  1  0  0  0  0
 13 17  1  0  0  0  0
 13 14  1  0  0  0  0
 13 33  1  0  0  0  0
 14 15  1  0  0  0  0
 14 34  1  0  0  0  0
 14 35  1  0  0  0  0
 15 16  1  0  0  0  0
 15 36  1  0  0  0  0
 15 37  1  0  0  0  0
 16 17  1  0  0  0  0
 16 38  1  0  0  0  0
 17 39  1  0  0  0  0
 17 40  1  0  0  0  0
 18 19  1  0  0  0  0
 18 41  1  0  0  0  0
M  END
> <s_m_source_file>
AV-unprocessed.smi

> <i_m_source_file_index>
1099

> <i_lp_mmshare_version>
43012

> <i_f3d_flags>
0

> <s_epik_input>
W0NIM11bQ0gyXWMxbmMoW2NIXXMxKVtDSDJdW0NIMl1bTkhdQyg9TylbQ0BIXShbQ0gyXVtDQEBIXTIzKVtDQEBIXShbQ0gyXTMpW0NIMl1bQ0gyXTI=

> <s_epik_cmdline>
J2VwaWtfcHl0aG9uJywgJy1waCcsICc3LjAnLCAnLXRuJywgJzgnLCAnLW1hJywgJzIwMCcsICctbWV0YWxfYmluZGluZycsICctaW1hZScsICc8aW5maWxlLm1hZT4nLCAnLW9tYWUnLCAnPG91dGZpbGUubWFlPic=

> <r_epik_Ionization_Penalty>
0.00110131

> <r_epik_Ionization_Penalty_Charging>
0

> <r_epik_Ionization_Penalty_Neutral>
0.00110131

> <r_epik_State_Penalty>
0.00072257

> <r_epik_Charging_Adjusted_Penalty>
0.00072257

> <i_epik_Tot_Q>
0

> <i_epik_Tot_abs_Q>
0

> <r_epik_Metal_State_Penalty>
-0

> <b_epik_Metal_Only>
0

> <s_lp_Force_Field>
OPLS_2005

> <r_lp_Energy>
38.6178

> <b_lp_Chiralities_Consistent>
1

> <s_lp_Variant>
AV-unprocessed.smi:1099-3

> <Gold.Version>
5.8.1

> <Gold.Id.Protein>
6NUR|6NUR_protein|mol2

> <Gold.PLP.Fitness>
41.4160

> <Gold.PLP.PLP>
-36.5025

> <Gold.PLP.part.hbond>
-1.7766

> <Gold.PLP.part.metal>
0.0000

> <Gold.PLP.part.buried>
-3.1501

> <Gold.PLP.part.nonpolar>
-31.7954

> <Gold.PLP.part.repulsive>
0.2373

> <Gold.PLP.ligand.clash>
0.0000

> <Gold.PLP.ligand.torsion>
0.3404

> <Gold.PLP.Chemscore.Hbond>
1.0000

> <Gold.PLP.Chemscore.CHOScore>
0.8396

> <Gold.PLP.Chemscore.Metal>
0.0000

> <Gold.Chemscore.Hbonds>
donor molecule, donor type, donor heavy atom, donor atom, acceptor molecule, acceptor atom, score
      P1  H  7989  7998       L1    10  0.85
      L1  C    18    41       P1  8028  0.61

> <Gold.PLP.Chemscore.Internal.Correction>
0.0753

> <Gold.Rescore>
     Score         DG    S(hbond)    S(metal)    S(lipo)     H(rot)  DE(clash)    DE(int)     intcor
     16.47     -16.98       0.92        0.00     102.99       1.42       0.05       0.46       ----

> <Gold.Chemscore.Fitness>
16.4708

> <Gold.Chemscore.DG>
-16.9821

> <Gold.Chemscore.ZeroCoef>
-5.4800

> <Gold.Chemscore.Hbond>
0.9216

> <Gold.Chemscore.Metal>
0.0000

> <Gold.Chemscore.Lipo>
102.9916

> <Gold.Chemscore.Internal_Hbond>
0.0000

> <Gold.Chemscore.DEClash>
0.0484

> <Gold.Chemscore.DEInternal>
0.4628

> <Gold.Chemscore.Rot>
1.4165

> <Gold.Chemscore.Internal.Correction>
   9.000000E+99

> <Gold.Chemscore.Hbonds>
donor molecule, donor type, donor heavy atom, donor atom, acceptor molecule, acceptor atom, score
      P1  H  7989  7998       L1    10  0.15

> <Gold.Chemscore.Hbond.Weighted>
-3.0782

> <Gold.Chemscore.Metal.Weighted>
-0.0000

> <Gold.Chemscore.Lipo.Weighted>
-12.0500

> <Gold.Chemscore.Internal_Hbond.Weighted>
0.0000

> <Gold.Chemscore.DEClash.Weighted>
0.0484

> <Gold.Chemscore.DEInternal.Weighted>
0.4628

> <Gold.Chemscore.Rot.Weighted>
3.6262

> <Gold.Chemscore.Internal.Correction.Weighted>
   9.000000E+99

> <Gold.Protein.RotatedTorsions>
[ 6907 6896 6895 6894 ] final  -85.53 input  -60.11 | X-H torsion
[ 7974 7965 7964 7962 ] final -145.70 input  175.53 | X-H torsion
[ 8008 7997 7996 7995 ] final  144.64 input   59.86 | X-H torsion
[ 10167 10162 10161 10158 ] final  136.29 input  -65.29 | X-H torsion
[ 10718 10713 10712 10709 ] final   28.78 input   66.30 | X-H torsion
[ 10763 10752 10751 10750 ] final   37.95 input  -60.55 | X-H torsion
[ 11005 11000 10999 10996 ] final  151.93 input  -57.11 | X-H torsion

> <Gold.Protein.ActiveResidues>
 VAL166  LYS551  ARG553  GLY616  TRP617  ASP618  TYR619  PRO620  LYS621  CYS622 
 ASP623  PHE694  ASN695  SER759  ASP760  ASP761  ALA762  ILE779  LEU786  VAL792 
 PHE793  MET794  SER795  GLU796  ALA797  LYS798  CYS799  TRP800  GLU811  SER814 

> <Gold.Protein.RotatedAtoms>
  150.6870  134.3190  159.4778 H   0  0  0  0  0  0  0  0  0  0  0  0  # atno 6907 bound_to 6896
  152.1068  134.9300  160.0577 H   0  0  0  0  0  0  0  0  0  0  0  0  # atno 6908 bound_to 6896
  152.0558  133.4005  159.4433 H   0  0  0  0  0  0  0  0  0  0  0  0  # atno 6909 bound_to 6896
  144.8209  140.5550  143.5579 H   0  0  0  0  0  0  0  0  0  0  0  0  # atno 7974 bound_to 7965
  156.2903  140.2230  156.5086 H   0  0  0  0  0  0  0  0  0  0  0  0  # atno 8008 bound_to 7997
  154.7628  140.0472  157.1009 H   0  0  0  0  0  0  0  0  0  0  0  0  # atno 8009 bound_to 7997
  154.9969  140.3097  155.4886 H   0  0  0  0  0  0  0  0  0  0  0  0  # atno 8010 bound_to 7997
  139.5185  144.6472  151.5405 H   0  0  0  0  0  0  0  0  0  0  0  0  # atno 10167 bound_to 10162
  157.2380  130.7055  149.6345 H   0  0  0  0  0  0  0  0  0  0  0  0  # atno 10718 bound_to 10713
  153.0018  135.6263  154.2227 H   0  0  0  0  0  0  0  0  0  0  0  0  # atno 10763 bound_to 10752
  154.1970  135.2806  155.3005 H   0  0  0  0  0  0  0  0  0  0  0  0  # atno 10764 bound_to 10752
  154.5714  135.5675  153.7158 H   0  0  0  0  0  0  0  0  0  0  0  0  # atno 10765 bound_to 10752
  140.1263  134.8831  157.2142 H   0  0  0  0  0  0  0  0  0  0  0  0  # atno 11005 bound_to 11000
  145.5107  139.1479  143.3606 LP  0  0  0  0  0  0  0  0  0  0  0  0  # atno 17320 bound_to 7965
  146.2514  140.5248  142.8891 LP  0  0  0  0  0  0  0  0  0  0  0  0  # atno 17321 bound_to 7965
  140.6262  143.9164  150.6567 LP  0  0  0  0  0  0  0  0  0  0  0  0  # atno 17342 bound_to 10162
  140.2453  143.3633  152.1452 LP  0  0  0  0  0  0  0  0  0  0  0  0  # atno 17343 bound_to 10162
  155.9671  130.4467  150.5552 LP  0  0  0  0  0  0  0  0  0  0  0  0  # atno 17370 bound_to 10713
  157.3409  131.0716  151.1789 LP  0  0  0  0  0  0  0  0  0  0  0  0  # atno 17371 bound_to 10713
  140.2900  134.3251  155.7318 LP  0  0  0  0  0  0  0  0  0  0  0  0  # atno 17394 bound_to 11000
  141.2162  133.7529  156.9489 LP  0  0  0  0  0  0  0  0  0  0  0  0  # atno 17395 bound_to 11000

$$$$
