AV-unprocessed.smi:110|AV-procd|sdf|1075|dock3
  -GOLD-   2262018163D 1   1.00000     0.00000
 Structure written by MMmdl.
 46 50  0  0  0  0  0  0  0  0  1 V2000
  144.2958  142.1797  154.6932 O   0  0  0  0  0  0  0  0  0  0  0  0
  145.6133  142.6655  154.8364 C   0  0  0  0  0  0  0  0  0  0  0  0
  146.5911  141.8169  154.0036 C   0  0  1  0  0  0  0  0  0  0  0  0
  147.9265  142.3022  154.1365 O   0  0  0  0  0  0  0  0  0  0  0  0
  148.8470  141.2513  154.1004 C   0  0  1  0  0  0  0  0  0  0  0  0
  149.5359  141.2093  155.4314 N   0  0  0  0  0  0  0  0  0  0  0  0
  149.1998  141.8425  156.6082 C   0  0  0  0  0  0  0  0  0  0  0  0
  150.0004  141.6134  157.6131 N   0  0  0  0  0  0  0  0  0  0  0  0
  150.9697  140.7631  157.0936 C   0  0  0  0  0  0  0  0  0  0  0  0
  152.1341  140.1344  157.6225 C   0  0  0  0  0  0  0  0  0  0  0  0
  152.5294  140.2532  158.9161 N   0  0  0  0  0  0  0  0  0  0  0  0
  153.4571  139.2606  159.4802 C   0  0  0  0  0  0  0  0  0  0  0  0
  154.1411  139.8934  160.7049 C   0  0  0  0  0  0  0  0  0  0  0  0
  153.4077  141.1902  160.7987 C   0  0  0  0  0  0  0  0  0  0  0  0
  153.5502  142.1751  161.7917 C   0  0  0  0  0  0  0  0  0  0  0  0
  152.7460  143.3308  161.7027 C   0  0  0  0  0  0  0  0  0  0  0  0
  151.8233  143.4780  160.6415 C   0  0  0  0  0  0  0  0  0  0  0  0
  151.6974  142.4752  159.6550 C   0  0  0  0  0  0  0  0  0  0  0  0
  152.5128  141.3259  159.7410 C   0  0  0  0  0  0  0  0  0  0  0  0
  152.8577  139.3562  156.7764 N   0  0  0  0  0  0  0  0  0  0  0  0
  152.4797  139.2048  155.5042 C   0  0  0  0  0  0  0  0  0  0  0  0
  151.4247  139.7301  154.8797 N   0  0  0  0  0  0  0  0  0  0  0  0
  150.6886  140.5118  155.7207 C   0  0  0  0  0  0  0  0  0  0  0  0
  148.0527  139.9616  153.8224 C   0  0  1  0  0  0  0  0  0  0  0  0
  148.5725  138.7822  154.4103 O   0  0  0  0  0  0  0  0  0  0  0  0
  146.6544  140.3124  154.3122 C   0  0  1  0  0  0  0  0  0  0  0  0
  146.4729  140.0463  155.6931 O   0  0  0  0  0  0  0  0  0  0  0  0
  146.3409  141.9309  152.9475 H   0  0  0  0  0  0  0  0  0  0  0  0
  149.6440  141.4432  153.3812 H   0  0  0  0  0  0  0  0  0  0  0  0
  148.0247  139.8288  152.7402 H   0  0  0  0  0  0  0  0  0  0  0  0
  145.8903  139.7602  153.7639 H   0  0  0  0  0  0  0  0  0  0  0  0
  144.3078  141.4524  154.0899 H   0  0  0  0  0  0  0  0  0  0  0  0
  145.6353  143.6996  154.4918 H   0  0  0  0  0  0  0  0  0  0  0  0
  145.8880  142.6792  155.8912 H   0  0  0  0  0  0  0  0  0  0  0  0
  148.3376  142.4851  156.7044 H   0  0  0  0  0  0  0  0  0  0  0  0
  152.8920  138.3797  159.7861 H   0  0  0  0  0  0  0  0  0  0  0  0
  154.1946  138.9445  158.7412 H   0  0  0  0  0  0  0  0  0  0  0  0
  154.0136  139.2955  161.6077 H   0  0  0  0  0  0  0  0  0  0  0  0
  155.2031  140.0708  160.5324 H   0  0  0  0  0  0  0  0  0  0  0  0
  154.2530  142.0491  162.6021 H   0  0  0  0  0  0  0  0  0  0  0  0
  152.8313  144.1038  162.4521 H   0  0  0  0  0  0  0  0  0  0  0  0
  151.2060  144.3624  160.5868 H   0  0  0  0  0  0  0  0  0  0  0  0
  150.9775  142.5941  158.8592 H   0  0  0  0  0  0  0  0  0  0  0  0
  153.1125  138.5701  154.9015 H   0  0  0  0  0  0  0  0  0  0  0  0
  148.1629  138.6704  155.2550 H   0  0  0  0  0  0  0  0  0  0  0  0
  147.2719  140.2688  156.1464 H   0  0  0  0  0  0  0  0  0  0  0  0
  1  2  1  0  0  0  0
  1 32  1  0  0  0  0
  2  3  1  0  0  0  0
  2 33  1  0  0  0  0
  2 34  1  0  0  0  0
  3 28  1  0  0  0  0
  3 26  1  0  0  0  0
  3  4  1  0  0  0  0
  4  5  1  0  0  0  0
  5 29  1  0  0  0  0
  5  6  1  0  0  0  0
  5 24  1  0  0  0  0
  6 23  1  0  0  0  0
  6  7  1  0  0  0  0
  7  8  2  0  0  0  0
  7 35  1  0  0  0  0
  8  9  1  0  0  0  0
  9 23  2  0  0  0  0
  9 10  1  0  0  0  0
 10 11  1  0  0  0  0
 10 20  2  0  0  0  0
 11 19  1  0  0  0  0
 11 12  1  0  0  0  0
 12 13  1  0  0  0  0
 12 36  1  0  0  0  0
 12 37  1  0  0  0  0
 13 14  1  0  0  0  0
 13 38  1  0  0  0  0
 13 39  1  0  0  0  0
 14 19  2  0  0  0  0
 14 15  1  0  0  0  0
 15 16  2  0  0  0  0
 15 40  1  0  0  0  0
 16 17  1  0  0  0  0
 16 41  1  0  0  0  0
 17 18  2  0  0  0  0
 17 42  1  0  0  0  0
 18 19  1  0  0  0  0
 18 43  1  0  0  0  0
 20 21  1  0  0  0  0
 21 22  2  0  0  0  0
 21 44  1  0  0  0  0
 22 23  1  0  0  0  0
 24 30  1  0  0  0  0
 24 25  1  0  0  0  0
 24 26  1  0  0  0  0
 25 45  1  0  0  0  0
 26 31  1  0  0  0  0
 26 27  1  0  0  0  0
 27 46  1  0  0  0  0
M  END
> <s_m_source_file>
AV-unprocessed.smi

> <i_m_source_file_index>
110

> <i_lp_mmshare_version>
43012

> <i_f3d_flags>
0

> <s_epik_input>
W09IXVtDSDJdW0NASF0xT1tDQEhdKFtDQEhdKFtPSF0pW0NAQEhdMVtPSF0pbihbY0hdbjIpYyhjMjMpbltjSF1uYzNOKFtDSDJdW0NIMl00KWMoYzQ1KVtjSF1bY0hdW2NIXVtjSF01

> <s_epik_cmdline>
J2VwaWtfcHl0aG9uJywgJy1waCcsICc3LjAnLCAnLXRuJywgJzgnLCAnLW1hJywgJzIwMCcsICctbWV0YWxfYmluZGluZycsICctaW1hZScsICc8aW5maWxlLm1hZT4nLCAnLW9tYWUnLCAnPG91dGZpbGUubWFlPic=

> <r_lp_tautomer_probability>
1

> <r_epik_Ionization_Penalty>
0.00068475

> <r_epik_Ionization_Penalty_Charging>
0

> <r_epik_Ionization_Penalty_Neutral>
0.00068475

> <r_epik_State_Penalty>
0.000417442

> <r_epik_Charging_Adjusted_Penalty>
0.000417442

> <i_epik_Tot_Q>
0

> <i_epik_Tot_abs_Q>
0

> <r_epik_Metal_State_Penalty>
-0

> <b_epik_Metal_Only>
0

> <s_epik_Chemistry_Notes>
This compound contains an acetal/aminal-like group ( X-CH(R)-Y where X, Y are N, S, or O) that may be acid/base labile, releasing an aldehyde.

> <s_lp_Force_Field>
OPLS_2005

> <r_lp_Energy>
64.6633

> <b_lp_Chiralities_Consistent>
1

> <s_lp_Variant>
AV-unprocessed.smi:110-13

> <Gold.Version>
5.8.1

> <Gold.Id.Protein>
6NUR|6NUR_protein|mol2

> <Gold.PLP.Fitness>
61.0147

> <Gold.PLP.PLP>
-51.0855

> <Gold.PLP.part.hbond>
-4.8137

> <Gold.PLP.part.metal>
0.0000

> <Gold.PLP.part.buried>
-2.6433

> <Gold.PLP.part.nonpolar>
-44.5624

> <Gold.PLP.part.repulsive>
1.4287

> <Gold.PLP.ligand.clash>
0.0000

> <Gold.PLP.ligand.torsion>
0.7489

> <Gold.PLP.Chemscore.Hbond>
2.9500

> <Gold.PLP.Chemscore.CHOScore>
0.6170

> <Gold.PLP.Chemscore.Metal>
0.0000

> <Gold.Chemscore.Hbonds>
donor molecule, donor type, donor heavy atom, donor atom, acceptor molecule, acceptor atom, score
      L1  H     1    32       P1 10175  1.00
      P1  H  7989  7998       L1    22  1.00
      P1  H  7997  8010       L1    20  1.00
      L1  C     7    35       P1  8028  0.59

> <Gold.PLP.Chemscore.Internal.Correction>
0.7261

> <Gold.Rescore>
     Score         DG    S(hbond)    S(metal)    S(lipo)     H(rot)  DE(clash)    DE(int)     intcor
     11.86     -15.21       1.95        0.00     101.39       3.38       0.22       3.12       ----

> <Gold.Chemscore.Fitness>
11.8599

> <Gold.Chemscore.DG>
-15.2090

> <Gold.Chemscore.ZeroCoef>
-5.4800

> <Gold.Chemscore.Hbond>
1.9545

> <Gold.Chemscore.Metal>
0.0000

> <Gold.Chemscore.Lipo>
101.3940

> <Gold.Chemscore.Internal_Hbond>
0.0000

> <Gold.Chemscore.DEClash>
0.2249

> <Gold.Chemscore.DEInternal>
3.1242

> <Gold.Chemscore.Rot>
3.3837

> <Gold.Chemscore.Internal.Correction>
   9.000000E+99

> <Gold.Chemscore.Hbonds>
donor molecule, donor type, donor heavy atom, donor atom, acceptor molecule, acceptor atom, score
      L1  H     1    32       P1 10175  0.28
      P1  H  7989  7998       L1    22  0.25
      P1  H  7997  8010       L1    20  0.31

> <Gold.Chemscore.Hbond.Weighted>
-6.5281

> <Gold.Chemscore.Metal.Weighted>
-0.0000

> <Gold.Chemscore.Lipo.Weighted>
-11.8631

> <Gold.Chemscore.Internal_Hbond.Weighted>
0.0000

> <Gold.Chemscore.DEClash.Weighted>
0.2249

> <Gold.Chemscore.DEInternal.Weighted>
3.1242

> <Gold.Chemscore.Rot.Weighted>
8.6622

> <Gold.Chemscore.Internal.Correction.Weighted>
   9.000000E+99

> <Gold.Protein.RotatedTorsions>
[ 6907 6896 6895 6894 ] final  113.98 input  -60.11 | X-H torsion
[ 7974 7965 7964 7962 ] final  169.06 input  175.53 | X-H torsion
[ 8008 7997 7996 7995 ] final   46.92 input   59.86 | X-H torsion
[ 10167 10162 10161 10158 ] final -119.66 input  -65.29 | X-H torsion
[ 10718 10713 10712 10709 ] final   76.89 input   66.30 | X-H torsion
[ 10763 10752 10751 10750 ] final  141.69 input  -60.55 | X-H torsion
[ 11005 11000 10999 10996 ] final  147.54 input  -57.11 | X-H torsion

> <Gold.Protein.ActiveResidues>
 VAL166  LYS551  ARG553  GLY616  TRP617  ASP618  TYR619  PRO620  LYS621  CYS622 
 ASP623  PHE694  ASN695  SER759  ASP760  ASP761  ALA762  ILE779  LEU786  VAL792 
 PHE793  MET794  SER795  GLU796  ALA797  LYS798  CYS799  TRP800  GLU811  SER814 

> <Gold.Protein.RotatedAtoms>
  152.4829  133.8300  159.7098 H   0  0  0  0  0  0  0  0  0  0  0  0  # atno 6907 bound_to 6896
  150.8893  133.7255  159.2916 H   0  0  0  0  0  0  0  0  0  0  0  0  # atno 6908 bound_to 6896
  151.4733  135.1051  159.9810 H   0  0  0  0  0  0  0  0  0  0  0  0  # atno 6909 bound_to 6896
  144.7367  139.8999  143.6408 H   0  0  0  0  0  0  0  0  0  0  0  0  # atno 7974 bound_to 7965
  155.3605  140.3418  155.4240 H   0  0  0  0  0  0  0  0  0  0  0  0  # atno 8008 bound_to 7997
  156.1716  140.1633  156.8472 H   0  0  0  0  0  0  0  0  0  0  0  0  # atno 8009 bound_to 7997
  154.5239  140.0760  156.8205 H   0  0  0  0  0  0  0  0  0  0  0  0  # atno 8010 bound_to 7997
  140.0443  143.5123  152.2114 H   0  0  0  0  0  0  0  0  0  0  0  0  # atno 10167 bound_to 10162
  157.6690  130.9796  150.1563 H   0  0  0  0  0  0  0  0  0  0  0  0  # atno 10718 bound_to 10713
  153.9434  135.2977  155.3442 H   0  0  0  0  0  0  0  0  0  0  0  0  # atno 10763 bound_to 10752
  154.7465  135.5000  153.9216 H   0  0  0  0  0  0  0  0  0  0  0  0  # atno 10764 bound_to 10752
  153.1031  135.6739  153.9744 H   0  0  0  0  0  0  0  0  0  0  0  0  # atno 10765 bound_to 10752
  140.0884  134.9055  157.1612 H   0  0  0  0  0  0  0  0  0  0  0  0  # atno 11005 bound_to 11000
  146.1079  139.4081  143.0306 LP  0  0  0  0  0  0  0  0  0  0  0  0  # atno 17320 bound_to 7965
  145.7485  140.9981  143.1263 LP  0  0  0  0  0  0  0  0  0  0  0  0  # atno 17321 bound_to 7965
  139.5994  144.7577  151.3208 LP  0  0  0  0  0  0  0  0  0  0  0  0  # atno 17342 bound_to 10162
  140.7246  143.7040  150.7822 LP  0  0  0  0  0  0  0  0  0  0  0  0  # atno 17343 bound_to 10162
  156.2350  130.3685  149.8402 LP  0  0  0  0  0  0  0  0  0  0  0  0  # atno 17370 bound_to 10713
  156.6218  130.8629  151.3477 LP  0  0  0  0  0  0  0  0  0  0  0  0  # atno 17371 bound_to 10713
  140.3387  134.2728  155.7215 LP  0  0  0  0  0  0  0  0  0  0  0  0  # atno 17394 bound_to 11000
  141.2070  133.7818  157.0144 LP  0  0  0  0  0  0  0  0  0  0  0  0  # atno 17395 bound_to 11000

$$$$
