AV-unprocessed.smi:193|AV-procd|sdf|1515|dock10
  -GOLD-   2262019353D 1   1.00000     0.00000
 Structure written by MMmdl.
 61 65  0  0  0  0  0  0  0  0  1 V2000
  147.2325  141.8448  157.6411 C   0  0  0  0  0  0  0  0  0  0  0  0
  148.7524  141.6673  157.7812 C   0  0  1  0  0  0  0  0  0  0  0  0
  149.3086  141.0000  156.5050 C   0  0  0  0  0  0  0  0  0  0  0  0
  150.6377  140.4053  156.6564 N   0  0  0  0  0  0  0  0  0  0  0  0
  150.9489  139.3182  155.8990 C   0  0  0  0  0  0  0  0  0  0  0  0
  151.8446  139.4590  154.8850 N   0  0  0  0  0  0  0  0  0  0  0  0
  152.1782  138.4161  154.1202 C   0  0  0  0  0  0  0  0  0  0  0  0
  151.7420  137.1579  154.1897 N   0  0  0  0  0  0  0  0  0  0  0  0
  150.8414  137.0038  155.2015 C   0  0  0  0  0  0  0  0  0  0  0  0
  150.3944  138.0178  156.0976 C   0  0  0  0  0  0  0  0  0  0  0  0
  149.4680  137.4784  156.9846 N   0  0  0  0  0  0  0  0  0  0  0  0
  149.3792  136.2239  156.6385 C   0  0  0  0  0  0  0  0  0  0  0  0
  150.1624  135.8552  155.5695 N   0  0  0  0  0  0  0  0  0  0  0  0
  150.2461  134.5333  154.9670 C   0  0  0  0  0  0  0  0  0  0  0  0
  148.8766  133.9621  154.5224 C   0  0  0  0  0  0  0  0  0  0  0  0
  148.1009  135.0419  154.0302 O   0  0  0  0  0  0  0  0  0  0  0  0
  149.0073  132.9044  153.4044 C   0  0  0  0  0  0  0  0  0  0  0  0
  147.6689  132.2038  153.1112 C   0  0  0  0  0  0  0  0  0  0  0  0
  147.1385  131.6394  154.3046 O   0  0  0  0  0  0  0  0  0  0  0  0
  146.8437  132.6189  155.2931 C   0  0  0  0  0  0  0  0  0  0  0  0
  148.1345  133.3397  155.7219 C   0  0  0  0  0  0  0  0  0  0  0  0
  151.5594  140.8457  157.7046 C   0  0  0  0  0  0  0  0  0  0  0  0
  151.7020  142.3726  157.7607 C   0  0  0  0  0  0  0  0  0  0  0  0
  150.7232  142.9493  158.6776 N   0  0  0  0  0  0  0  0  0  0  0  0
  151.1567  144.2973  159.0201 C   0  0  1  0  0  0  0  0  0  0  0  0
  150.8022  144.8243  160.3930 C   0  0  0  0  0  0  0  0  0  0  0  0
  152.2353  144.4699  160.0746 C   0  0  1  0  0  0  0  0  0  0  0  0
  152.9019  143.2960  160.7659 C   0  0  0  0  0  0  0  0  0  0  0  0
  149.4058  143.0412  158.0504 C   0  0  0  0  0  0  0  0  0  0  0  0
  146.9852  142.4915  156.7986 H   0  0  0  0  0  0  0  0  0  0  0  0
  146.8018  142.2879  158.5395 H   0  0  0  0  0  0  0  0  0  0  0  0
  146.7362  140.8869  157.4825 H   0  0  0  0  0  0  0  0  0  0  0  0
  148.9098  141.0108  158.6386 H   0  0  0  0  0  0  0  0  0  0  0  0
  148.6177  140.2096  156.2087 H   0  0  0  0  0  0  0  0  0  0  0  0
  149.3285  141.7190  155.6855 H   0  0  0  0  0  0  0  0  0  0  0  0
  152.8955  138.6202  153.3388 H   0  0  0  0  0  0  0  0  0  0  0  0
  148.7273  135.5303  157.1494 H   0  0  0  0  0  0  0  0  0  0  0  0
  150.9206  134.5935  154.1119 H   0  0  0  0  0  0  0  0  0  0  0  0
  150.7238  133.8618  155.6820 H   0  0  0  0  0  0  0  0  0  0  0  0
  148.3730  135.2272  153.1442 H   0  0  0  0  0  0  0  0  0  0  0  0
  149.3950  133.3497  152.4875 H   0  0  0  0  0  0  0  0  0  0  0  0
  149.7334  132.1492  153.7083 H   0  0  0  0  0  0  0  0  0  0  0  0
  146.9501  132.8979  152.6729 H   0  0  0  0  0  0  0  0  0  0  0  0
  147.8188  131.4063  152.3835 H   0  0  0  0  0  0  0  0  0  0  0  0
  146.1049  133.3255  154.9120 H   0  0  0  0  0  0  0  0  0  0  0  0
  146.3907  132.1239  156.1522 H   0  0  0  0  0  0  0  0  0  0  0  0
  148.7863  132.6158  156.2131 H   0  0  0  0  0  0  0  0  0  0  0  0
  147.9078  134.1011  156.4693 H   0  0  0  0  0  0  0  0  0  0  0  0
  151.2596  140.4363  158.6703 H   0  0  0  0  0  0  0  0  0  0  0  0
  152.5547  140.4479  157.5039 H   0  0  0  0  0  0  0  0  0  0  0  0
  152.6965  142.5856  158.1555 H   0  0  0  0  0  0  0  0  0  0  0  0
  151.6611  142.8299  156.7707 H   0  0  0  0  0  0  0  0  0  0  0  0
  151.1623  145.0479  158.2311 H   0  0  0  0  0  0  0  0  0  0  0  0
  150.5527  145.8800  160.4755 H   0  0  0  0  0  0  0  0  0  0  0  0
  150.2560  144.1654  161.0656 H   0  0  0  0  0  0  0  0  0  0  0  0
  152.9084  145.3102  159.9164 H   0  0  0  0  0  0  0  0  0  0  0  0
  152.1876  142.4947  160.9578 H   0  0  0  0  0  0  0  0  0  0  0  0
  153.3222  143.6157  161.7194 H   0  0  0  0  0  0  0  0  0  0  0  0
  153.7073  142.9036  160.1452 H   0  0  0  0  0  0  0  0  0  0  0  0
  149.4556  143.6309  157.1335 H   0  0  0  0  0  0  0  0  0  0  0  0
  148.7612  143.5959  158.7337 H   0  0  0  0  0  0  0  0  0  0  0  0
  1  2  1  0  0  0  0
  1 30  1  0  0  0  0
  1 31  1  0  0  0  0
  1 32  1  0  0  0  0
  2 29  1  0  0  0  0
  2  3  1  0  0  0  0
  2 33  1  0  0  0  0
  3  4  1  0  0  0  0
  3 34  1  0  0  0  0
  3 35  1  0  0  0  0
  4  5  1  0  0  0  0
  4 22  1  0  0  0  0
  5 10  1  0  0  0  0
  5  6  2  0  0  0  0
  6  7  1  0  0  0  0
  7  8  2  0  0  0  0
  7 36  1  0  0  0  0
  8  9  1  0  0  0  0
  9 13  1  0  0  0  0
  9 10  2  0  0  0  0
 10 11  1  0  0  0  0
 11 12  2  0  0  0  0
 12 13  1  0  0  0  0
 12 37  1  0  0  0  0
 13 14  1  0  0  0  0
 14 15  1  0  0  0  0
 14 38  1  0  0  0  0
 14 39  1  0  0  0  0
 15 21  1  0  0  0  0
 15 16  1  0  0  0  0
 15 17  1  0  0  0  0
 16 40  1  0  0  0  0
 17 18  1  0  0  0  0
 17 41  1  0  0  0  0
 17 42  1  0  0  0  0
 18 19  1  0  0  0  0
 18 43  1  0  0  0  0
 18 44  1  0  0  0  0
 19 20  1  0  0  0  0
 20 21  1  0  0  0  0
 20 45  1  0  0  0  0
 20 46  1  0  0  0  0
 21 47  1  0  0  0  0
 21 48  1  0  0  0  0
 22 23  1  0  0  0  0
 22 49  1  0  0  0  0
 22 50  1  0  0  0  0
 23 24  1  0  0  0  0
 23 51  1  0  0  0  0
 23 52  1  0  0  0  0
 24 25  1  0  0  0  0
 24 29  1  0  0  0  0
 25 27  1  0  0  0  0
 25 26  1  0  0  0  0
 25 53  1  0  0  0  0
 26 27  1  0  0  0  0
 26 54  1  0  0  0  0
 26 55  1  0  0  0  0
 27 28  1  0  0  0  0
 27 56  1  0  0  0  0
 28 57  1  0  0  0  0
 28 58  1  0  0  0  0
 28 59  1  0  0  0  0
 29 60  1  0  0  0  0
 29 61  1  0  0  0  0
M  END
> <s_m_source_file>
AV-unprocessed.smi

> <i_m_source_file_index>
193

> <i_lp_mmshare_version>
43012

> <i_f3d_flags>
0

> <s_epik_input>
W0NIM11bQ0BASF0xW0NIMl1bQ0BIXTFOKFtDSDJdMilbQ0gyXVtDSDJdTihbQ0gyXVtDQEhdMltDSDNdKWMobltjSF1uMyljKGMzNCluW2NIXW40W0NIMl1DNShbT0hdKVtDSDJdW0NIMl1PW0NIMl1bQ0gyXTU=

> <s_epik_cmdline>
J2VwaWtfcHl0aG9uJywgJy1waCcsICc3LjAnLCAnLXRuJywgJzgnLCAnLW1hJywgJzIwMCcsICctbWV0YWxfYmluZGluZycsICctaW1hZScsICc8aW5maWxlLm1hZT4nLCAnLW9tYWUnLCAnPG91dGZpbGUubWFlPic=

> <r_lp_tautomer_probability>
1

> <r_epik_Ionization_Penalty>
1.45227

> <r_epik_Ionization_Penalty_Charging>
0

> <r_epik_Ionization_Penalty_Neutral>
1.45227

> <r_epik_State_Penalty>
2.02377

> <r_epik_Charging_Adjusted_Penalty>
2.02377

> <i_epik_Tot_Q>
0

> <i_epik_Tot_abs_Q>
0

> <r_epik_Metal_State_Penalty>
2.01937

> <b_epik_Metal_Only>
0

> <s_lp_Force_Field>
OPLS_2005

> <r_lp_Energy>
52.058

> <b_lp_Chiralities_Consistent>
1

> <s_lp_Variant>
AV-unprocessed.smi:193-20

> <Gold.Version>
5.8.1

> <Gold.Id.Protein>
6NUR|6NUR_protein|mol2

> <Gold.PLP.Fitness>
48.2684

> <Gold.PLP.PLP>
-42.8364

> <Gold.PLP.part.hbond>
-2.7359

> <Gold.PLP.part.metal>
0.0000

> <Gold.PLP.part.buried>
-7.3985

> <Gold.PLP.part.nonpolar>
-34.0615

> <Gold.PLP.part.repulsive>
1.1027

> <Gold.PLP.ligand.clash>
0.0000

> <Gold.PLP.ligand.torsion>
2.3695

> <Gold.PLP.Chemscore.Hbond>
2.9913

> <Gold.PLP.Chemscore.CHOScore>
0.0000

> <Gold.PLP.Chemscore.Metal>
0.0000

> <Gold.Chemscore.Hbonds>
donor molecule, donor type, donor heavy atom, donor atom, acceptor molecule, acceptor atom, score
      L1  H    16    40       P1  7948  1.00
      P1  H  7989  7998       L1     6  1.00
      P1  H 10752 10763       L1     8  1.00

> <Gold.PLP.Chemscore.Internal.Correction>
1.1972

> <Gold.Rescore>
     Score         DG    S(hbond)    S(metal)    S(lipo)     H(rot)  DE(clash)    DE(int)     intcor
     16.83     -19.35       1.97        0.00     104.13       1.91       0.15       2.38       ----

> <Gold.Chemscore.Fitness>
16.8294

> <Gold.Chemscore.DG>
-19.3525

> <Gold.Chemscore.ZeroCoef>
-5.4800

> <Gold.Chemscore.Hbond>
1.9674

> <Gold.Chemscore.Metal>
0.0000

> <Gold.Chemscore.Lipo>
104.1269

> <Gold.Chemscore.Internal_Hbond>
0.0000

> <Gold.Chemscore.DEClash>
0.1457

> <Gold.Chemscore.DEInternal>
2.3774

> <Gold.Chemscore.Rot>
1.9068

> <Gold.Chemscore.Internal.Correction>
   9.000000E+99

> <Gold.Chemscore.Hbonds>
donor molecule, donor type, donor heavy atom, donor atom, acceptor molecule, acceptor atom, score
      L1  H    16    40       P1  7948  0.93
      P1  H  7989  7998       L1     6  0.24
      P1  H 10752 10763       L1     8  0.78

> <Gold.Chemscore.Hbond.Weighted>
-6.5710

> <Gold.Chemscore.Metal.Weighted>
-0.0000

> <Gold.Chemscore.Lipo.Weighted>
-12.1828

> <Gold.Chemscore.Internal_Hbond.Weighted>
0.0000

> <Gold.Chemscore.DEClash.Weighted>
0.1457

> <Gold.Chemscore.DEInternal.Weighted>
2.3774

> <Gold.Chemscore.Rot.Weighted>
4.8814

> <Gold.Chemscore.Internal.Correction.Weighted>
   9.000000E+99

> <Gold.Protein.RotatedTorsions>
[ 6907 6896 6895 6894 ] final   31.95 input  -60.11 | X-H torsion
[ 7974 7965 7964 7962 ] final  127.57 input  175.53 | X-H torsion
[ 8008 7997 7996 7995 ] final  -80.80 input   59.86 | X-H torsion
[ 10167 10162 10161 10158 ] final   -5.75 input  -65.29 | X-H torsion
[ 10718 10713 10712 10709 ] final  -89.58 input   66.30 | X-H torsion
[ 10763 10752 10751 10750 ] final   30.03 input  -60.55 | X-H torsion
[ 11005 11000 10999 10996 ] final  179.17 input  -57.11 | X-H torsion

> <Gold.Protein.ActiveResidues>
 VAL166  LYS551  ARG553  GLY616  TRP617  ASP618  TYR619  PRO620  LYS621  CYS622 
 ASP623  PHE694  ASN695  SER759  ASP760  ASP761  ALA762  ILE779  LEU786  VAL792 
 PHE793  MET794  SER795  GLU796  ALA797  LYS798  CYS799  TRP800  GLU811  SER814 

> <Gold.Protein.RotatedAtoms>
  152.0676  134.9554  160.0574 H   0  0  0  0  0  0  0  0  0  0  0  0  # atno 6907 bound_to 6896
  152.0893  133.4187  159.4545 H   0  0  0  0  0  0  0  0  0  0  0  0  # atno 6908 bound_to 6896
  150.6836  134.2810  159.4670 H   0  0  0  0  0  0  0  0  0  0  0  0  # atno 6909 bound_to 6896
  145.0491  139.3898  143.5063 H   0  0  0  0  0  0  0  0  0  0  0  0  # atno 7974 bound_to 7965
  154.5919  140.0657  156.9251 H   0  0  0  0  0  0  0  0  0  0  0  0  # atno 8008 bound_to 7997
  155.2280  140.3335  155.4288 H   0  0  0  0  0  0  0  0  0  0  0  0  # atno 8009 bound_to 7997
  156.2262  140.1820  156.7342 H   0  0  0  0  0  0  0  0  0  0  0  0  # atno 8010 bound_to 7997
  140.6974  143.6272  150.8557 H   0  0  0  0  0  0  0  0  0  0  0  0  # atno 10167 bound_to 10162
  155.9985  130.4877  150.5193 H   0  0  0  0  0  0  0  0  0  0  0  0  # atno 10718 bound_to 10713
  153.0395  135.6474  154.0981 H   0  0  0  0  0  0  0  0  0  0  0  0  # atno 10763 bound_to 10752
  154.0690  135.2882  155.3313 H   0  0  0  0  0  0  0  0  0  0  0  0  # atno 10764 bound_to 10752
  154.6607  135.5392  153.8079 H   0  0  0  0  0  0  0  0  0  0  0  0  # atno 10765 bound_to 10752
  140.4032  134.6759  157.4573 H   0  0  0  0  0  0  0  0  0  0  0  0  # atno 11005 bound_to 11000
  146.3516  140.0132  142.8665 LP  0  0  0  0  0  0  0  0  0  0  0  0  # atno 17320 bound_to 7965
  145.1550  140.9643  143.4411 LP  0  0  0  0  0  0  0  0  0  0  0  0  # atno 17321 bound_to 7965
  139.9991  143.5763  152.2882 LP  0  0  0  0  0  0  0  0  0  0  0  0  # atno 17342 bound_to 10162
  139.6446  144.7657  151.2269 LP  0  0  0  0  0  0  0  0  0  0  0  0  # atno 17343 bound_to 10162
  157.3156  131.0672  151.1969 LP  0  0  0  0  0  0  0  0  0  0  0  0  # atno 17370 bound_to 10713
  157.2900  130.6791  149.6109 LP  0  0  0  0  0  0  0  0  0  0  0  0  # atno 17371 bound_to 10713
  140.0321  134.6390  155.9092 LP  0  0  0  0  0  0  0  0  0  0  0  0  # atno 17394 bound_to 11000
  141.1849  133.6554  156.5176 LP  0  0  0  0  0  0  0  0  0  0  0  0  # atno 17395 bound_to 11000

$$$$
