AV-unprocessed.smi:1802|AV-procd|sdf|7278|dock3
  -GOLD-   22720 8543D 1   1.00000     0.00000
 Structure written by MMmdl.
 40 41  0  0  0  0  0  0  0  0  3 V2000
  145.6884  132.0263  149.7533 C   0  0  0  0  0  0  0  0  0  0  0  0
  146.0538  133.2744  150.5694 C   0  0  1  0  0  0  0  0  0  0  0  0
  144.8350  134.1907  150.7700 C   0  0  0  0  0  0  0  0  0  0  0  0
  145.2240  135.4139  151.6093 C   0  0  0  0  0  0  0  0  0  0  0  0
  145.8566  134.9865  152.9431 C   0  0  0  0  0  0  0  0  0  0  0  0
  147.0324  134.1063  152.7203 N   0  3  1  0  0  0  0  0  0  0  0  0
  147.7420  133.7871  153.9846 C   0  0  0  0  0  0  0  0  0  0  0  0
  147.9545  135.0288  154.8661 C   0  0  0  0  0  0  0  0  0  0  0  0
  149.2721  134.9653  155.6483 C   0  0  0  0  0  0  0  0  0  0  0  0
  149.0230  134.5984  157.0356 N   0  0  0  0  0  0  0  0  0  0  0  0
  148.8894  135.4615  158.0511 C   0  0  0  0  0  0  0  0  0  0  0  0
  148.9881  136.6731  157.8442 O   0  0  0  0  0  0  0  0  0  0  0  0
  148.6494  134.8663  159.2413 N   0  5  0  0  0  0  0  0  0  0  0  0
  148.0463  135.5524  160.2262 C   0  0  0  0  0  0  0  0  0  0  0  0
  147.8642  136.8814  160.1663 N   0  0  0  0  0  0  0  0  0  0  0  0
  147.2167  137.3948  161.2819 N   0  0  0  0  0  0  0  0  0  0  0  0
  146.9183  136.4335  162.1554 C   0  0  0  0  0  0  0  0  0  0  0  0
  147.3991  134.8143  161.6941 S   0  0  0  0  0  0  0  0  0  0  0  0
  146.6683  132.8973  151.9325 C   0  0  0  0  0  0  0  0  0  0  0  0
  144.9390  131.4222  150.2657 H   0  0  0  0  0  0  0  0  0  0  0  0
  146.5628  131.3976  149.5830 H   0  0  0  0  0  0  0  0  0  0  0  0
  145.2850  132.2990  148.7776 H   0  0  0  0  0  0  0  0  0  0  0  0
  146.8039  133.8287  150.0031 H   0  0  0  0  0  0  0  0  0  0  0  0
  144.4397  134.5128  149.8059 H   0  0  0  0  0  0  0  0  0  0  0  0
  144.0341  133.6431  151.2691 H   0  0  0  0  0  0  0  0  0  0  0  0
  145.9275  136.0333  151.0513 H   0  0  0  0  0  0  0  0  0  0  0  0
  144.3461  136.0334  151.7942 H   0  0  0  0  0  0  0  0  0  0  0  0
  146.1604  135.8776  153.4938 H   0  0  0  0  0  0  0  0  0  0  0  0
  145.1222  134.4664  153.5603 H   0  0  0  0  0  0  0  0  0  0  0  0
  147.1523  133.0693  154.5566 H   0  0  0  0  0  0  0  0  0  0  0  0
  148.6921  133.2976  153.7653 H   0  0  0  0  0  0  0  0  0  0  0  0
  147.9542  135.9328  154.2575 H   0  0  0  0  0  0  0  0  0  0  0  0
  147.1224  135.1253  155.5649 H   0  0  0  0  0  0  0  0  0  0  0  0
  149.9463  134.2332  155.2016 H   0  0  0  0  0  0  0  0  0  0  0  0
  149.7724  135.9342  155.6084 H   0  0  0  0  0  0  0  0  0  0  0  0
  148.9382  133.6149  157.2466 H   0  0  0  0  0  0  0  0  0  0  0  0
  146.4109  136.6789  163.0763 H   0  0  0  0  0  0  0  0  0  0  0  0
  145.9678  132.2885  152.5066 H   0  0  0  0  0  0  0  0  0  0  0  0
  147.5510  132.2818  151.7627 H   0  0  0  0  0  0  0  0  0  0  0  0
  147.6797  134.6412  152.1588 H   0  0  0  0  0  0  0  0  0  0  0  0
  1  2  1  0  0  0  0
  1 20  1  0  0  0  0
  1 21  1  0  0  0  0
  1 22  1  0  0  0  0
  2 19  1  0  0  0  0
  2  3  1  0  0  0  0
  2 23  1  0  0  0  0
  3  4  1  0  0  0  0
  3 24  1  0  0  0  0
  3 25  1  0  0  0  0
  4  5  1  0  0  0  0
  4 26  1  0  0  0  0
  4 27  1  0  0  0  0
  5  6  1  0  0  0  0
  5 28  1  0  0  0  0
  5 29  1  0  0  0  0
  6  7  1  0  0  0  0
  6 19  1  0  0  0  0
  6 40  1  0  0  0  0
  7  8  1  0  0  0  0
  7 30  1  0  0  0  0
  7 31  1  0  0  0  0
  8  9  1  0  0  0  0
  8 32  1  0  0  0  0
  8 33  1  0  0  0  0
  9 10  1  0  0  0  0
  9 34  1  0  0  0  0
  9 35  1  0  0  0  0
 10 11  1  0  0  0  0
 10 36  1  0  0  0  0
 11 12  2  0  0  0  0
 11 13  1  0  0  0  0
 13 14  1  0  0  0  0
 14 18  1  0  0  0  0
 14 15  2  0  0  0  0
 15 16  1  0  0  0  0
 16 17  2  0  0  0  0
 17 18  1  0  0  0  0
 17 37  1  0  0  0  0
 19 38  1  0  0  0  0
 19 39  1  0  0  0  0
M  CHG  1   6   1
M  CHG  1  13  -1
M  END
> <s_m_source_file>
AV-unprocessed.smi

> <i_m_source_file_index>
1802

> <i_lp_mmshare_version>
43012

> <i_f3d_flags>
0

> <s_epik_input>
W0NIM11bQ0BASF0xW0NIMl1bQ0gyXVtDSDJdTihbQ0gyXTEpW0NIMl1bQ0gyXVtDSDJdW05IXUMoPU8pW05IXWMybm5bY0hdczI=

> <s_epik_cmdline>
J2VwaWtfcHl0aG9uJywgJy1waCcsICc3LjAnLCAnLXRuJywgJzgnLCAnLW1hJywgJzIwMCcsICctbWV0YWxfYmluZGluZycsICctaW1hZScsICc8aW5maWxlLm1hZT4nLCAnLW9tYWUnLCAnPG91dGZpbGUubWFlPic=

> <r_lp_tautomer_probability>
1

> <r_epik_Ionization_Penalty>
3.29702

> <r_epik_Ionization_Penalty_Charging>
3.26059

> <r_epik_Ionization_Penalty_Neutral>
0.0364294

> <r_epik_State_Penalty>
3.25788

> <r_epik_Charging_Adjusted_Penalty>
6.51847

> <i_epik_Tot_Q>
0

> <i_epik_Tot_abs_Q>
2

> <r_epik_Metal_State_Penalty>
0.477639

> <b_epik_Metal_Only>
1

> <s_lp_Force_Field>
OPLS_2005

> <r_lp_Energy>
10.4103

> <b_lp_Chiralities_Consistent>
1

> <s_lp_Variant>
AV-unprocessed.smi:1802-8

> <Gold.Version>
5.8.1

> <Gold.Id.Protein>
6NUR|6NUR_protein|mol2

> <Gold.PLP.Fitness>
45.3400

> <Gold.PLP.PLP>
-31.1362

> <Gold.PLP.part.hbond>
-5.1154

> <Gold.PLP.part.metal>
0.0000

> <Gold.PLP.part.buried>
-2.5247

> <Gold.PLP.part.nonpolar>
-23.2337

> <Gold.PLP.part.repulsive>
0.0630

> <Gold.PLP.ligand.clash>
0.0000

> <Gold.PLP.ligand.torsion>
0.9113

> <Gold.PLP.Chemscore.Hbond>
5.3160

> <Gold.PLP.Chemscore.CHOScore>
0.0000

> <Gold.PLP.Chemscore.Metal>
0.0000

> <Gold.Chemscore.Hbonds>
donor molecule, donor type, donor heavy atom, donor atom, acceptor molecule, acceptor atom, score
      L1  H     6    40       P1  7948  2.00
      P1  H  6896  6908       L1    13  1.09
      P1  H  6931  6943       L1    16  0.31
      P1  H  6934  6947       L1    16  1.00

> <Gold.PLP.Chemscore.Internal.Correction>
0.0785

> <Gold.Rescore>
     Score         DG    S(hbond)    S(metal)    S(lipo)     H(rot)  DE(clash)    DE(int)     intcor
     12.16     -14.93       2.09        0.00      63.60       1.94       0.15       2.62       ----

> <Gold.Chemscore.Fitness>
12.1606

> <Gold.Chemscore.DG>
-14.9303

> <Gold.Chemscore.ZeroCoef>
-5.4800

> <Gold.Chemscore.Hbond>
2.0871

> <Gold.Chemscore.Metal>
0.0000

> <Gold.Chemscore.Lipo>
63.6011

> <Gold.Chemscore.Internal_Hbond>
0.0000

> <Gold.Chemscore.DEClash>
0.1524

> <Gold.Chemscore.DEInternal>
2.6173

> <Gold.Chemscore.Rot>
1.9383

> <Gold.Chemscore.Internal.Correction>
   9.000000E+99

> <Gold.Chemscore.Hbonds>
donor molecule, donor type, donor heavy atom, donor atom, acceptor molecule, acceptor atom, score
      L1  H     6    40       P1  7948  0.61
      P1  H  6896  6908       L1    13  0.04
      P1  H  6931  6943       L1    16  0.01
      P1  H  6934  6947       L1    16  0.33

> <Gold.Chemscore.Hbond.Weighted>
-6.9711

> <Gold.Chemscore.Metal.Weighted>
-0.0000

> <Gold.Chemscore.Lipo.Weighted>
-7.4413

> <Gold.Chemscore.Internal_Hbond.Weighted>
0.0000

> <Gold.Chemscore.DEClash.Weighted>
0.1524

> <Gold.Chemscore.DEInternal.Weighted>
2.6173

> <Gold.Chemscore.Rot.Weighted>
4.9620

> <Gold.Chemscore.Internal.Correction.Weighted>
   9.000000E+99

> <Gold.Protein.RotatedTorsions>
[ 6907 6896 6895 6894 ] final  150.86 input  -60.11 | X-H torsion
[ 7974 7965 7964 7962 ] final  -80.08 input  175.53 | X-H torsion
[ 8008 7997 7996 7995 ] final    0.19 input   59.86 | X-H torsion
[ 10167 10162 10161 10158 ] final -170.56 input  -65.29 | X-H torsion
[ 10718 10713 10712 10709 ] final   36.02 input   66.30 | X-H torsion
[ 10763 10752 10751 10750 ] final  -63.43 input  -60.55 | X-H torsion
[ 11005 11000 10999 10996 ] final   29.46 input  -57.11 | X-H torsion

> <Gold.Protein.ActiveResidues>
 VAL166  LYS551  ARG553  GLY616  TRP617  ASP618  TYR619  PRO620  LYS621  CYS622 
 ASP623  PHE694  ASN695  SER759  ASP760  ASP761  ALA762  ILE779  LEU786  VAL792 
 PHE793  MET794  SER795  GLU796  ALA797  LYS798  CYS799  TRP800  GLU811  SER814 

> <Gold.Protein.RotatedAtoms>
  152.1085  133.4288  159.4619 H   0  0  0  0  0  0  0  0  0  0  0  0  # atno 6907 bound_to 6896
  150.6866  134.2676  159.4584 H   0  0  0  0  0  0  0  0  0  0  0  0  # atno 6908 bound_to 6896
  152.0542  134.9634  160.0625 H   0  0  0  0  0  0  0  0  0  0  0  0  # atno 6909 bound_to 6896
  145.5646  140.9476  143.1428 H   0  0  0  0  0  0  0  0  0  0  0  0  # atno 7974 bound_to 7965
  154.6652  140.2599  155.7066 H   0  0  0  0  0  0  0  0  0  0  0  0  # atno 8008 bound_to 7997
  156.2635  140.2840  156.1061 H   0  0  0  0  0  0  0  0  0  0  0  0  # atno 8009 bound_to 7997
  155.1250  140.0377  157.2750 H   0  0  0  0  0  0  0  0  0  0  0  0  # atno 8010 bound_to 7997
  139.5854  144.1330  152.1569 H   0  0  0  0  0  0  0  0  0  0  0  0  # atno 10167 bound_to 10162
  157.3298  130.7492  149.6839 H   0  0  0  0  0  0  0  0  0  0  0  0  # atno 10718 bound_to 10713
  154.3149  135.6208  153.5482 H   0  0  0  0  0  0  0  0  0  0  0  0  # atno 10763 bound_to 10752
  152.9825  135.5710  154.5135 H   0  0  0  0  0  0  0  0  0  0  0  0  # atno 10764 bound_to 10752
  154.4792  135.2862  155.1560 H   0  0  0  0  0  0  0  0  0  0  0  0  # atno 10765 bound_to 10752
  140.3047  134.2717  155.7746 H   0  0  0  0  0  0  0  0  0  0  0  0  # atno 11005 bound_to 11000
  144.7466  139.7303  143.7289 LP  0  0  0  0  0  0  0  0  0  0  0  0  # atno 17320 bound_to 7965
  146.1827  139.5027  142.9856 LP  0  0  0  0  0  0  0  0  0  0  0  0  # atno 17321 bound_to 7965
  140.0892  144.5635  150.7067 LP  0  0  0  0  0  0  0  0  0  0  0  0  # atno 17342 bound_to 10162
  140.7127  143.2518  151.4532 LP  0  0  0  0  0  0  0  0  0  0  0  0  # atno 17343 bound_to 10162
  155.9694  130.4198  150.4395 LP  0  0  0  0  0  0  0  0  0  0  0  0  # atno 17370 bound_to 10713
  157.2425  131.0528  151.2428 LP  0  0  0  0  0  0  0  0  0  0  0  0  # atno 17371 bound_to 10713
  141.2121  133.7669  156.9819 LP  0  0  0  0  0  0  0  0  0  0  0  0  # atno 17394 bound_to 11000
  140.1078  134.9496  157.2020 LP  0  0  0  0  0  0  0  0  0  0  0  0  # atno 17395 bound_to 11000

$$$$
