AV-unprocessed.smi:117|AV-procd|sdf|1130|dock2
  -GOLD-   2262018253D 1   1.00000     0.00000
 Structure written by MMmdl.
 53 55  0  0  0  0  0  0  0  0  1 V2000
  145.9440  130.1607  151.2962 C   0  0  0  0  0  0  0  0  0  0  0  0
  145.9004  131.6707  151.4570 C   0  0  0  0  0  0  0  0  0  0  0  0
  144.8817  132.3942  150.8041 C   0  0  0  0  0  0  0  0  0  0  0  0
  144.8007  133.7897  150.9432 C   0  0  0  0  0  0  0  0  0  0  0  0
  145.7398  134.4709  151.7356 C   0  0  0  0  0  0  0  0  0  0  0  0
  146.7774  133.7637  152.3866 C   0  0  0  0  0  0  0  0  0  0  0  0
  147.6894  134.4413  153.2385 N   0  0  0  0  0  0  0  0  0  0  0  0
  147.4548  135.4983  154.0408 C   0  0  0  0  0  0  0  0  0  0  0  0
  146.3719  136.0789  154.1064 O   0  0  0  0  0  0  0  0  0  0  0  0
  148.6178  136.0024  154.9121 C   0  0  0  0  0  0  0  0  0  0  0  0
  149.2511  137.2163  154.3990 N   0  0  0  0  0  0  0  0  0  0  0  0
  150.5718  137.4644  154.3591 C   0  0  0  0  0  0  0  0  0  0  0  0
  151.4180  136.6262  154.6661 O   0  0  0  0  0  0  0  0  0  0  0  0
  151.0251  138.8829  153.9675 C   0  0  0  0  0  0  0  0  0  0  0  0
  150.3742  139.9715  154.7357 N   0  0  0  0  0  0  0  0  0  0  0  0
  149.0002  140.2413  154.5204 C   0  0  0  0  0  0  0  0  0  0  0  0
  148.3389  139.5880  153.7127 O   0  0  0  0  0  0  0  0  0  0  0  0
  148.4395  141.3252  155.3196 C   0  0  0  0  0  0  0  0  0  0  0  0
  147.1514  141.6727  155.1597 F   0  0  0  0  0  0  0  0  0  0  0  0
  149.1937  141.9842  156.2234 C   0  0  0  0  0  0  0  0  0  0  0  0
  150.5206  141.6814  156.4577 N   0  0  0  0  0  0  0  0  0  0  0  0
  151.2822  142.4705  157.5008 C   0  0  1  0  0  0  0  0  0  0  0  0
  151.3584  143.9727  157.1917 C   0  0  0  0  0  0  0  0  0  0  0  0
  151.3122  144.5614  158.5842 C   0  0  0  0  0  0  0  0  0  0  0  0
  150.3755  143.5972  159.3036 C   0  0  0  0  0  0  0  0  0  0  0  0
  150.6627  142.3161  158.7456 O   0  0  0  0  0  0  0  0  0  0  0  0
  151.1513  140.6805  155.6842 C   0  0  0  0  0  0  0  0  0  0  0  0
  152.3446  140.4184  155.8341 O   0  0  0  0  0  0  0  0  0  0  0  0
  146.8572  132.3511  152.2532 C   0  0  0  0  0  0  0  0  0  0  0  0
  147.9605  131.5487  152.9390 C   0  0  0  0  0  0  0  0  0  0  0  0
  145.1240  129.8031  150.6732 H   0  0  0  0  0  0  0  0  0  0  0  0
  145.8620  129.6704  152.2665 H   0  0  0  0  0  0  0  0  0  0  0  0
  146.8781  129.8515  150.8269 H   0  0  0  0  0  0  0  0  0  0  0  0
  144.1506  131.8801  150.1974 H   0  0  0  0  0  0  0  0  0  0  0  0
  144.0118  134.3375  150.4494 H   0  0  0  0  0  0  0  0  0  0  0  0
  145.6407  135.5400  151.8508 H   0  0  0  0  0  0  0  0  0  0  0  0
  148.6512  134.1398  153.1746 H   0  0  0  0  0  0  0  0  0  0  0  0
  148.2621  136.1515  155.9328 H   0  0  0  0  0  0  0  0  0  0  0  0
  149.3776  135.2219  154.9606 H   0  0  0  0  0  0  0  0  0  0  0  0
  148.6294  137.9616  154.1209 H   0  0  0  0  0  0  0  0  0  0  0  0
  152.1083  138.9417  154.0891 H   0  0  0  0  0  0  0  0  0  0  0  0
  150.8761  138.9961  152.8930 H   0  0  0  0  0  0  0  0  0  0  0  0
  148.7284  142.7771  156.7911 H   0  0  0  0  0  0  0  0  0  0  0  0
  152.2724  142.0172  157.5588 H   0  0  0  0  0  0  0  0  0  0  0  0
  152.2688  144.2153  156.6434 H   0  0  0  0  0  0  0  0  0  0  0  0
  150.5008  144.3026  156.6082 H   0  0  0  0  0  0  0  0  0  0  0  0
  152.3036  144.5286  159.0378 H   0  0  0  0  0  0  0  0  0  0  0  0
  150.9609  145.5929  158.6027 H   0  0  0  0  0  0  0  0  0  0  0  0
  150.5208  143.6019  160.3838 H   0  0  0  0  0  0  0  0  0  0  0  0
  149.3358  143.8570  159.1047 H   0  0  0  0  0  0  0  0  0  0  0  0
  148.5312  130.9870  152.1992 H   0  0  0  0  0  0  0  0  0  0  0  0
  147.5282  130.8387  153.6438 H   0  0  0  0  0  0  0  0  0  0  0  0
  148.6739  132.1598  153.4899 H   0  0  0  0  0  0  0  0  0  0  0  0
  1  2  1  0  0  0  0
  1 31  1  0  0  0  0
  1 32  1  0  0  0  0
  1 33  1  0  0  0  0
  2 29  1  0  0  0  0
  2  3  2  0  0  0  0
  3  4  1  0  0  0  0
  3 34  1  0  0  0  0
  4  5  2  0  0  0  0
  4 35  1  0  0  0  0
  5  6  1  0  0  0  0
  5 36  1  0  0  0  0
  6  7  1  0  0  0  0
  6 29  2  0  0  0  0
  7  8  1  0  0  0  0
  7 37  1  0  0  0  0
  8  9  2  0  0  0  0
  8 10  1  0  0  0  0
 10 11  1  0  0  0  0
 10 38  1  0  0  0  0
 10 39  1  0  0  0  0
 11 12  1  0  0  0  0
 11 40  1  0  0  0  0
 12 13  2  0  0  0  0
 12 14  1  0  0  0  0
 14 15  1  0  0  0  0
 14 41  1  0  0  0  0
 14 42  1  0  0  0  0
 15 27  1  0  0  0  0
 15 16  1  0  0  0  0
 16 17  2  0  0  0  0
 16 18  1  0  0  0  0
 18 19  1  0  0  0  0
 18 20  2  0  0  0  0
 20 21  1  0  0  0  0
 20 43  1  0  0  0  0
 21 22  1  0  0  0  0
 21 27  1  0  0  0  0
 22 26  1  0  0  0  0
 22 23  1  0  0  0  0
 22 44  1  0  0  0  0
 23 24  1  0  0  0  0
 23 45  1  0  0  0  0
 23 46  1  0  0  0  0
 24 25  1  0  0  0  0
 24 47  1  0  0  0  0
 24 48  1  0  0  0  0
 25 26  1  0  0  0  0
 25 49  1  0  0  0  0
 25 50  1  0  0  0  0
 27 28  2  0  0  0  0
 29 30  1  0  0  0  0
 30 51  1  0  0  0  0
 30 52  1  0  0  0  0
 30 53  1  0  0  0  0
M  END
> <s_m_source_file>
AV-unprocessed.smi

> <i_m_source_file_index>
117

> <i_lp_mmshare_version>
43012

> <i_f3d_flags>
0

> <s_epik_input>
W0NIM11jMVtjSF1bY0hdW2NIXWMoYzFbQ0gzXSlbTkhdQyg9TylbQ0gyXVtOSF1DKD1PKVtDSDJdbjJjKD1PKWMoRilbY0hdbihjMj1PKVtDQEBIXTNbQ0gyXVtDSDJdW0NIMl1PMw==

> <s_epik_cmdline>
J2VwaWtfcHl0aG9uJywgJy1waCcsICc3LjAnLCAnLXRuJywgJzgnLCAnLW1hJywgJzIwMCcsICctbWV0YWxfYmluZGluZycsICctaW1hZScsICc8aW5maWxlLm1hZT4nLCAnLW9tYWUnLCAnPG91dGZpbGUubWFlPic=

> <r_lp_tautomer_probability>
1

> <r_epik_Ionization_Penalty>
1.58439e-06

> <r_epik_Ionization_Penalty_Charging>
4.14583e-09

> <r_epik_Ionization_Penalty_Neutral>
1.58025e-06

> <r_epik_State_Penalty>
-0

> <r_epik_Charging_Adjusted_Penalty>
4.14583e-09

> <i_epik_Tot_Q>
0

> <i_epik_Tot_abs_Q>
0

> <r_epik_Metal_State_Penalty>
-0

> <b_epik_Metal_Only>
0

> <s_epik_Chemistry_Notes>
This compound contains an acetal/aminal-like group ( X-CH(R)-Y where X, Y are N, S, or O) that may be acid/base labile, releasing an aldehyde.

> <s_lp_Force_Field>
OPLS_2005

> <r_lp_Energy>
23.1061

> <b_lp_Chiralities_Consistent>
1

> <s_lp_Variant>
AV-unprocessed.smi:117-2

> <Gold.Version>
5.8.1

> <Gold.Id.Protein>
6NUR|6NUR_protein|mol2

> <Gold.PLP.Fitness>
59.0685

> <Gold.PLP.PLP>
-51.5818

> <Gold.PLP.part.hbond>
-4.0000

> <Gold.PLP.part.metal>
0.0000

> <Gold.PLP.part.buried>
-4.9666

> <Gold.PLP.part.nonpolar>
-45.0629

> <Gold.PLP.part.repulsive>
3.0797

> <Gold.PLP.ligand.clash>
0.0000

> <Gold.PLP.ligand.torsion>
0.7782

> <Gold.PLP.Chemscore.Hbond>
2.0000

> <Gold.PLP.Chemscore.CHOScore>
1.0000

> <Gold.PLP.Chemscore.Metal>
0.0000

> <Gold.Chemscore.Hbonds>
donor molecule, donor type, donor heavy atom, donor atom, acceptor molecule, acceptor atom, score
      P1  H  7997  8009       L1    28  0.84
      P1  H 10752 10764       L1    13  1.00
      L1  C    20    43       P1  8028  0.61

> <Gold.PLP.Chemscore.Internal.Correction>
0.0429

> <Gold.Rescore>
     Score         DG    S(hbond)    S(metal)    S(lipo)     H(rot)  DE(clash)    DE(int)     intcor
     13.21     -18.67       1.94        0.00     107.99       2.32       1.91       3.56       ----

> <Gold.Chemscore.Fitness>
13.2099

> <Gold.Chemscore.DG>
-18.6746

> <Gold.Chemscore.ZeroCoef>
-5.4800

> <Gold.Chemscore.Hbond>
1.9431

> <Gold.Chemscore.Metal>
0.0000

> <Gold.Chemscore.Lipo>
107.9921

> <Gold.Chemscore.Internal_Hbond>
0.0000

> <Gold.Chemscore.DEClash>
1.9055

> <Gold.Chemscore.DEInternal>
3.5593

> <Gold.Chemscore.Rot>
2.3166

> <Gold.Chemscore.Internal.Correction>
   9.000000E+99

> <Gold.Chemscore.Hbonds>
donor molecule, donor type, donor heavy atom, donor atom, acceptor molecule, acceptor atom, score
      P1  H  7997  8009       L1    28  0.79
      P1  H 10752 10764       L1    13  1.00

> <Gold.Chemscore.Hbond.Weighted>
-6.4901

> <Gold.Chemscore.Metal.Weighted>
-0.0000

> <Gold.Chemscore.Lipo.Weighted>
-12.6351

> <Gold.Chemscore.Internal_Hbond.Weighted>
0.0000

> <Gold.Chemscore.DEClash.Weighted>
1.9055

> <Gold.Chemscore.DEInternal.Weighted>
3.5593

> <Gold.Chemscore.Rot.Weighted>
5.9306

> <Gold.Chemscore.Internal.Correction.Weighted>
   9.000000E+99

> <Gold.Protein.RotatedTorsions>
[ 6907 6896 6895 6894 ] final  154.51 input  -60.11 | X-H torsion
[ 7974 7965 7964 7962 ] final  -19.40 input  175.53 | X-H torsion
[ 8008 7997 7996 7995 ] final -164.91 input   59.86 | X-H torsion
[ 10167 10162 10161 10158 ] final  -27.67 input  -65.29 | X-H torsion
[ 10718 10713 10712 10709 ] final    5.13 input   66.30 | X-H torsion
[ 10763 10752 10751 10750 ] final  -66.91 input  -60.55 | X-H torsion
[ 11005 11000 10999 10996 ] final -130.49 input  -57.11 | X-H torsion

> <Gold.Protein.ActiveResidues>
 VAL166  LYS551  ARG553  GLY616  TRP617  ASP618  TYR619  PRO620  LYS621  CYS622 
 ASP623  PHE694  ASN695  SER759  ASP760  ASP761  ALA762  ILE779  LEU786  VAL792 
 PHE793  MET794  SER795  GLU796  ALA797  LYS798  CYS799  TRP800  GLU811  SER814 

> <Gold.Protein.RotatedAtoms>
  152.0574  133.4046  159.4402 H   0  0  0  0  0  0  0  0  0  0  0  0  # atno 6907 bound_to 6896
  150.6867  134.3239  159.4807 H   0  0  0  0  0  0  0  0  0  0  0  0  # atno 6908 bound_to 6896
  152.1056  134.9310  160.0619 H   0  0  0  0  0  0  0  0  0  0  0  0  # atno 6909 bound_to 6896
  146.1843  140.4057  142.8482 H   0  0  0  0  0  0  0  0  0  0  0  0  # atno 7974 bound_to 7965
  155.8423  140.0950  157.1726 H   0  0  0  0  0  0  0  0  0  0  0  0  # atno 8008 bound_to 7997
  154.3982  140.1398  156.3805 H   0  0  0  0  0  0  0  0  0  0  0  0  # atno 8009 bound_to 7997
  155.8051  140.3451  155.5427 H   0  0  0  0  0  0  0  0  0  0  0  0  # atno 8010 bound_to 7997
  140.7275  143.4073  151.1163 H   0  0  0  0  0  0  0  0  0  0  0  0  # atno 10167 bound_to 10162
  156.9028  130.5728  149.5648 H   0  0  0  0  0  0  0  0  0  0  0  0  # atno 10718 bound_to 10713
  154.3668  135.6104  153.5719 H   0  0  0  0  0  0  0  0  0  0  0  0  # atno 10763 bound_to 10752
  152.9791  135.5828  154.4569 H   0  0  0  0  0  0  0  0  0  0  0  0  # atno 10764 bound_to 10752
  154.4316  135.2848  155.1886 H   0  0  0  0  0  0  0  0  0  0  0  0  # atno 10765 bound_to 10752
  140.9341  134.1280  157.4209 H   0  0  0  0  0  0  0  0  0  0  0  0  # atno 11005 bound_to 11000
  144.8369  140.6797  143.6254 LP  0  0  0  0  0  0  0  0  0  0  0  0  # atno 17320 bound_to 7965
  145.3985  139.1602  143.4190 LP  0  0  0  0  0  0  0  0  0  0  0  0  # atno 17321 bound_to 7965
  139.7702  143.8506  152.3119 LP  0  0  0  0  0  0  0  0  0  0  0  0  # atno 17342 bound_to 10162
  139.8421  144.7205  150.9317 LP  0  0  0  0  0  0  0  0  0  0  0  0  # atno 17343 bound_to 10162
  156.0573  130.5632  150.9119 LP  0  0  0  0  0  0  0  0  0  0  0  0  # atno 17370 bound_to 10713
  157.6015  131.0941  150.8951 LP  0  0  0  0  0  0  0  0  0  0  0  0  # atno 17371 bound_to 10713
  139.8803  135.0015  156.6071 LP  0  0  0  0  0  0  0  0  0  0  0  0  # atno 17394 bound_to 11000
  140.7822  133.8650  155.8577 LP  0  0  0  0  0  0  0  0  0  0  0  0  # atno 17395 bound_to 11000

$$$$
