AV-unprocessed.smi:3157|AV-procd|sdf|12037|dock7
  -GOLD-   2272017453D 1   1.00000     0.00000
 Structure written by MMmdl.
 40 41  0  0  0  0  0  0  0  0  2 V2000
  147.3603  141.9853  155.9537 C   0  0  0  0  0  0  0  0  0  0  0  0
  148.7105  141.2561  155.8137 C   0  0  2  0  0  0  0  0  0  0  0  0
  149.8178  142.1839  156.1450 N   0  3  0  0  0  0  0  0  0  0  0  0
  150.2272  142.2018  157.5646 C   0  0  0  0  0  0  0  0  0  0  0  0
  150.7443  143.5906  157.9722 C   0  0  0  0  0  0  0  0  0  0  0  0
  152.2701  143.7049  157.9441 C   0  0  0  0  0  0  0  0  0  0  0  0
  152.5935  144.9210  158.8187 C   0  0  0  0  0  0  0  0  0  0  0  0
  151.3988  145.0968  159.7684 C   0  0  0  0  0  0  0  0  0  0  0  0
  150.3977  143.9928  159.4094 C   0  0  0  0  0  0  0  0  0  0  0  0
  148.9265  140.6677  154.3948 C   0  0  2  0  0  0  0  0  0  0  0  0
  147.6813  139.9655  153.8214 C   0  0  0  0  0  0  0  0  0  0  0  0
  150.0593  139.7478  154.3856 N   0  0  0  0  0  0  0  0  0  0  0  0
  150.0914  138.4152  154.0237 C   0  0  0  0  0  0  0  0  0  0  0  0
  151.3673  137.9696  154.2169 C   0  0  0  0  0  0  0  0  0  0  0  0
  152.0526  139.1122  154.7151 C   0  0  0  0  0  0  0  0  0  0  0  0
  151.2655  140.1701  154.8249 N   0  0  0  0  0  0  0  0  0  0  0  0
  146.5198  141.3076  155.8072 H   0  0  0  0  0  0  0  0  0  0  0  0
  147.2690  142.7928  155.2264 H   0  0  0  0  0  0  0  0  0  0  0  0
  147.2370  142.4195  156.9455 H   0  0  0  0  0  0  0  0  0  0  0  0
  148.7331  140.4294  156.5258 H   0  0  0  0  0  0  0  0  0  0  0  0
  150.6236  141.8972  155.6067 H   0  0  0  0  0  0  0  0  0  0  0  0
  149.3946  141.9074  158.2034 H   0  0  0  0  0  0  0  0  0  0  0  0
  151.0173  141.4636  157.7092 H   0  0  0  0  0  0  0  0  0  0  0  0
  150.3379  144.3411  157.2917 H   0  0  0  0  0  0  0  0  0  0  0  0
  152.7185  142.8134  158.3854 H   0  0  0  0  0  0  0  0  0  0  0  0
  152.6637  143.8045  156.9321 H   0  0  0  0  0  0  0  0  0  0  0  0
  153.5303  144.7848  159.3600 H   0  0  0  0  0  0  0  0  0  0  0  0
  152.7028  145.8111  158.1979 H   0  0  0  0  0  0  0  0  0  0  0  0
  151.6981  145.0350  160.8153 H   0  0  0  0  0  0  0  0  0  0  0  0
  150.9483  146.0784  159.6160 H   0  0  0  0  0  0  0  0  0  0  0  0
  149.3635  144.3222  159.5150 H   0  0  0  0  0  0  0  0  0  0  0  0
  150.5422  143.1439  160.0793 H   0  0  0  0  0  0  0  0  0  0  0  0
  149.1673  141.4906  153.7185 H   0  0  0  0  0  0  0  0  0  0  0  0
  146.8699  140.6697  153.6396 H   0  0  0  0  0  0  0  0  0  0  0  0
  147.3088  139.1933  154.4949 H   0  0  0  0  0  0  0  0  0  0  0  0
  147.9066  139.4916  152.8651 H   0  0  0  0  0  0  0  0  0  0  0  0
  149.2141  137.8988  153.6627 H   0  0  0  0  0  0  0  0  0  0  0  0
  151.7524  136.9777  154.0322 H   0  0  0  0  0  0  0  0  0  0  0  0
  153.0896  139.2025  155.0032 H   0  0  0  0  0  0  0  0  0  0  0  0
  149.5609  143.1171  155.8565 H   0  0  0  0  0  0  0  0  0  0  0  0
  1  2  1  0  0  0  0
  1 17  1  0  0  0  0
  1 18  1  0  0  0  0
  1 19  1  0  0  0  0
  2  3  1  0  0  0  0
  2 10  1  0  0  0  0
  2 20  1  0  0  0  0
  3  4  1  0  0  0  0
  3 21  1  0  0  0  0
  3 40  1  0  0  0  0
  4  5  1  0  0  0  0
  4 22  1  0  0  0  0
  4 23  1  0  0  0  0
  5  9  1  0  0  0  0
  5  6  1  0  0  0  0
  5 24  1  0  0  0  0
  6  7  1  0  0  0  0
  6 25  1  0  0  0  0
  6 26  1  0  0  0  0
  7  8  1  0  0  0  0
  7 27  1  0  0  0  0
  7 28  1  0  0  0  0
  8  9  1  0  0  0  0
  8 29  1  0  0  0  0
  8 30  1  0  0  0  0
  9 31  1  0  0  0  0
  9 32  1  0  0  0  0
 10 11  1  0  0  0  0
 10 12  1  0  0  0  0
 10 33  1  0  0  0  0
 11 34  1  0  0  0  0
 11 35  1  0  0  0  0
 11 36  1  0  0  0  0
 12 16  1  0  0  0  0
 12 13  1  0  0  0  0
 13 14  2  0  0  0  0
 13 37  1  0  0  0  0
 14 15  1  0  0  0  0
 14 38  1  0  0  0  0
 15 16  2  0  0  0  0
 15 39  1  0  0  0  0
M  CHG  1   3   1
M  END
> <s_m_source_file>
AV-unprocessed.smi

> <i_m_source_file_index>
3157

> <i_lp_mmshare_version>
43012

> <i_f3d_flags>
0

> <s_epik_input>
bjFbY0hdW2NIXVtjSF1uMVtDQEBIXShbQ0gzXSlbQ0BIXShbQ0gzXSlbTkhdW0NIMl1bQ0hdMltDSDJdW0NIMl1bQ0gyXVtDSDJdMg==

> <s_epik_cmdline>
J2VwaWtfcHl0aG9uJywgJy1waCcsICc3LjAnLCAnLXRuJywgJzgnLCAnLW1hJywgJzIwMCcsICctbWV0YWxfYmluZGluZycsICctaW1hZScsICc8aW5maWxlLm1hZT4nLCAnLW9tYWUnLCAnPG91dGZpbGUubWFlPic=

> <r_lp_tautomer_probability>
1

> <r_epik_Ionization_Penalty>
0.00132192

> <r_epik_Ionization_Penalty_Charging>
0.0013111

> <r_epik_Ionization_Penalty_Neutral>
1.08112e-05

> <r_epik_State_Penalty>
-0

> <r_epik_Charging_Adjusted_Penalty>
0.0013111

> <i_epik_Tot_Q>
1

> <i_epik_Tot_abs_Q>
1

> <r_epik_Metal_State_Penalty>
-0

> <b_epik_Metal_Only>
0

> <s_lp_Force_Field>
OPLS_2005

> <r_lp_Energy>
31.0944

> <b_lp_Chiralities_Consistent>
1

> <s_lp_Variant>
AV-unprocessed.smi:3157-1

> <Gold.Version>
5.8.1

> <Gold.Id.Protein>
6NUR|6NUR_protein|mol2

> <Gold.PLP.Fitness>
46.4148

> <Gold.PLP.PLP>
-38.1335

> <Gold.PLP.part.hbond>
-2.0000

> <Gold.PLP.part.metal>
0.0000

> <Gold.PLP.part.buried>
-1.5289

> <Gold.PLP.part.nonpolar>
-33.6608

> <Gold.PLP.part.repulsive>
0.1521

> <Gold.PLP.ligand.clash>
0.0000

> <Gold.PLP.ligand.torsion>
1.3184

> <Gold.PLP.Chemscore.Hbond>
2.6000

> <Gold.PLP.Chemscore.CHOScore>
1.0000

> <Gold.PLP.Chemscore.Metal>
0.0000

> <Gold.Chemscore.Hbonds>
donor molecule, donor type, donor heavy atom, donor atom, acceptor molecule, acceptor atom, score
      L1  H     3    40       P1  8028  2.00
      P1  H  7989  7998       L1    16  0.68
      L1  C    13    37       P1  7948  0.99

> <Gold.PLP.Chemscore.Internal.Correction>
0.1181

> <Gold.Rescore>
     Score         DG    S(hbond)    S(metal)    S(lipo)     H(rot)  DE(clash)    DE(int)     intcor
     14.93     -17.88       1.02        0.00     109.80       1.50       0.32       2.63       ----

> <Gold.Chemscore.Fitness>
14.9341

> <Gold.Chemscore.DG>
-17.8799

> <Gold.Chemscore.ZeroCoef>
-5.4800

> <Gold.Chemscore.Hbond>
1.0194

> <Gold.Chemscore.Metal>
0.0000

> <Gold.Chemscore.Lipo>
109.8045

> <Gold.Chemscore.Internal_Hbond>
0.0000

> <Gold.Chemscore.DEClash>
0.3200

> <Gold.Chemscore.DEInternal>
2.6259

> <Gold.Chemscore.Rot>
1.5047

> <Gold.Chemscore.Internal.Correction>
   9.000000E+99

> <Gold.Chemscore.Hbonds>
donor molecule, donor type, donor heavy atom, donor atom, acceptor molecule, acceptor atom, score
      L1  H     3    40       P1  8028  1.00
      P1  H  7989  7998       L1    16  0.02

> <Gold.Chemscore.Hbond.Weighted>
-3.4047

> <Gold.Chemscore.Metal.Weighted>
-0.0000

> <Gold.Chemscore.Lipo.Weighted>
-12.8471

> <Gold.Chemscore.Internal_Hbond.Weighted>
0.0000

> <Gold.Chemscore.DEClash.Weighted>
0.3200

> <Gold.Chemscore.DEInternal.Weighted>
2.6259

> <Gold.Chemscore.Rot.Weighted>
3.8520

> <Gold.Chemscore.Internal.Correction.Weighted>
   9.000000E+99

> <Gold.Protein.RotatedTorsions>
[ 6907 6896 6895 6894 ] final -118.19 input  -60.11 | X-H torsion
[ 7974 7965 7964 7962 ] final  144.46 input  175.53 | X-H torsion
[ 8008 7997 7996 7995 ] final    2.61 input   59.86 | X-H torsion
[ 10167 10162 10161 10158 ] final  -58.02 input  -65.29 | X-H torsion
[ 10718 10713 10712 10709 ] final  -75.26 input   66.30 | X-H torsion
[ 10763 10752 10751 10750 ] final  -15.52 input  -60.55 | X-H torsion
[ 11005 11000 10999 10996 ] final  -71.61 input  -57.11 | X-H torsion

> <Gold.Protein.ActiveResidues>
 VAL166  LYS551  ARG553  GLY616  TRP617  ASP618  TYR619  PRO620  LYS621  CYS622 
 ASP623  PHE694  ASN695  SER759  ASP760  ASP761  ALA762  ILE779  LEU786  VAL792 
 PHE793  MET794  SER795  GLU796  ALA797  LYS798  CYS799  TRP800  GLU811  SER814 

> <Gold.Protein.RotatedAtoms>
  150.8199  133.8271  159.3143 H   0  0  0  0  0  0  0  0  0  0  0  0  # atno 6907 bound_to 6896
  151.6032  135.1044  160.0074 H   0  0  0  0  0  0  0  0  0  0  0  0  # atno 6908 bound_to 6896
  152.4289  133.7202  159.6585 H   0  0  0  0  0  0  0  0  0  0  0  0  # atno 6909 bound_to 6896
  144.8834  139.5665  143.5832 H   0  0  0  0  0  0  0  0  0  0  0  0  # atno 7974 bound_to 7965
  154.6937  140.2658  155.6787 H   0  0  0  0  0  0  0  0  0  0  0  0  # atno 8008 bound_to 7997
  156.2741  140.2786  156.1447 H   0  0  0  0  0  0  0  0  0  0  0  0  # atno 8009 bound_to 7997
  155.0861  140.0373  157.2644 H   0  0  0  0  0  0  0  0  0  0  0  0  # atno 8010 bound_to 7997
  140.6223  143.2424  151.5451 H   0  0  0  0  0  0  0  0  0  0  0  0  # atno 10167 bound_to 10162
  156.0214  130.4436  150.3015 H   0  0  0  0  0  0  0  0  0  0  0  0  # atno 10718 bound_to 10713
  153.5446  135.7012  153.5620 H   0  0  0  0  0  0  0  0  0  0  0  0  # atno 10763 bound_to 10752
  153.3571  135.3979  155.1690 H   0  0  0  0  0  0  0  0  0  0  0  0  # atno 10764 bound_to 10752
  154.8669  135.3779  154.4953 H   0  0  0  0  0  0  0  0  0  0  0  0  # atno 10765 bound_to 10752
  141.1595  133.6822  156.6932 H   0  0  0  0  0  0  0  0  0  0  0  0  # atno 11005 bound_to 11000
  146.3009  139.7423  142.9092 LP  0  0  0  0  0  0  0  0  0  0  0  0  # atno 17320 bound_to 7965
  145.3913  141.0373  143.3122 LP  0  0  0  0  0  0  0  0  0  0  0  0  # atno 17321 bound_to 7965
  139.5449  144.2548  152.1423 LP  0  0  0  0  0  0  0  0  0  0  0  0  # atno 17342 bound_to 10162
  140.1771  144.4880  150.6548 LP  0  0  0  0  0  0  0  0  0  0  0  0  # atno 17343 bound_to 10162
  157.1118  131.0223  151.3045 LP  0  0  0  0  0  0  0  0  0  0  0  0  # atno 17370 bound_to 10713
  157.4698  130.7702  149.7313 LP  0  0  0  0  0  0  0  0  0  0  0  0  # atno 17371 bound_to 10713
  140.3014  134.8160  157.4101 LP  0  0  0  0  0  0  0  0  0  0  0  0  # atno 17394 bound_to 11000
  140.1258  134.5159  155.8145 LP  0  0  0  0  0  0  0  0  0  0  0  0  # atno 17395 bound_to 11000

$$$$
