AV-unprocessed.smi:2390|AV-procd|sdf|9474|dock5
  -GOLD-   2272013103D 1   1.00000     0.00000
 Structure written by MMmdl.
 45 46  0  0  0  0  0  0  0  0  1 V2000
  152.2571  145.7010  160.2682 C   0  0  0  0  0  0  0  0  0  0  0  0
  152.0231  144.3223  159.6876 C   0  0  0  0  0  0  0  0  0  0  0  0
  152.6688  143.1904  160.2224 C   0  0  0  0  0  0  0  0  0  0  0  0
  152.4051  141.9391  159.6375 C   0  0  0  0  0  0  0  0  0  0  0  0
  151.5127  141.8711  158.5501 C   0  0  0  0  0  0  0  0  0  0  0  0
  150.9062  143.0552  158.0739 C   0  0  0  0  0  0  0  0  0  0  0  0
  150.0249  142.8820  156.9738 N   0  0  0  0  0  0  0  0  0  0  0  0
  149.2963  141.7968  156.6578 C   0  0  0  0  0  0  0  0  0  0  0  0
  149.2823  140.7395  157.2893 O   0  0  0  0  0  0  0  0  0  0  0  0
  148.5728  142.0027  155.5470 N   0  0  0  0  0  0  0  0  0  0  0  0
  147.6787  141.0232  154.9295 C   0  0  1  0  0  0  0  0  0  0  0  0
  146.7450  141.7474  153.9436 C   0  0  0  0  0  0  0  0  0  0  0  0
  148.4724  139.8411  154.2822 C   0  0  2  0  0  0  0  0  0  0  0  0
  147.4943  138.8924  153.5411 C   0  0  0  0  0  0  0  0  0  0  0  0
  149.3720  139.1288  155.2205 N   0  0  0  0  0  0  0  0  0  0  0  0
  150.3444  138.2702  154.5334 C   0  0  0  0  0  0  0  0  0  0  0  0
  151.2527  137.4970  155.5049 C   0  0  0  0  0  0  0  0  0  0  0  0
  150.4588  136.7244  156.3945 O   0  0  0  0  0  0  0  0  0  0  0  0
  149.5579  137.5305  157.1408 C   0  0  0  0  0  0  0  0  0  0  0  0
  148.6346  138.2990  156.1802 C   0  0  0  0  0  0  0  0  0  0  0  0
  151.1673  144.2574  158.6453 N   0  0  0  0  0  0  0  0  0  0  0  0
  153.0565  145.6876  161.0094 H   0  0  0  0  0  0  0  0  0  0  0  0
  151.3499  146.0661  160.7506 H   0  0  0  0  0  0  0  0  0  0  0  0
  152.5351  146.4040  159.4823 H   0  0  0  0  0  0  0  0  0  0  0  0
  153.3476  143.2761  161.0580 H   0  0  0  0  0  0  0  0  0  0  0  0
  152.8786  141.0454  160.0159 H   0  0  0  0  0  0  0  0  0  0  0  0
  151.2986  140.9173  158.0900 H   0  0  0  0  0  0  0  0  0  0  0  0
  149.9386  143.6764  156.3573 H   0  0  0  0  0  0  0  0  0  0  0  0
  148.6458  142.9004  155.0912 H   0  0  0  0  0  0  0  0  0  0  0  0
  147.0569  140.6536  155.7435 H   0  0  0  0  0  0  0  0  0  0  0  0
  146.0354  141.0555  153.4895 H   0  0  0  0  0  0  0  0  0  0  0  0
  147.2989  142.2318  153.1395 H   0  0  0  0  0  0  0  0  0  0  0  0
  146.1652  142.5185  154.4517 H   0  0  0  0  0  0  0  0  0  0  0  0
  149.1045  140.2824  153.5100 H   0  0  0  0  0  0  0  0  0  0  0  0
  146.7722  139.4319  152.9296 H   0  0  0  0  0  0  0  0  0  0  0  0
  146.9335  138.2714  154.2402 H   0  0  0  0  0  0  0  0  0  0  0  0
  148.0160  138.2290  152.8523 H   0  0  0  0  0  0  0  0  0  0  0  0
  149.8224  137.5645  153.8855 H   0  0  0  0  0  0  0  0  0  0  0  0
  150.9994  138.8613  153.8970 H   0  0  0  0  0  0  0  0  0  0  0  0
  151.9169  136.8319  154.9527 H   0  0  0  0  0  0  0  0  0  0  0  0
  151.8852  138.1827  156.0709 H   0  0  0  0  0  0  0  0  0  0  0  0
  148.9701  136.8906  157.7988 H   0  0  0  0  0  0  0  0  0  0  0  0
  150.1143  138.2199  157.7779 H   0  0  0  0  0  0  0  0  0  0  0  0
  147.9765  138.9137  156.7918 H   0  0  0  0  0  0  0  0  0  0  0  0
  148.0002  137.5906  155.6452 H   0  0  0  0  0  0  0  0  0  0  0  0
  1  2  1  0  0  0  0
  1 22  1  0  0  0  0
  1 23  1  0  0  0  0
  1 24  1  0  0  0  0
  2 21  1  0  0  0  0
  2  3  2  0  0  0  0
  3  4  1  0  0  0  0
  3 25  1  0  0  0  0
  4  5  2  0  0  0  0
  4 26  1  0  0  0  0
  5  6  1  0  0  0  0
  5 27  1  0  0  0  0
  6  7  1  0  0  0  0
  6 21  2  0  0  0  0
  7  8  1  0  0  0  0
  7 28  1  0  0  0  0
  8  9  2  0  0  0  0
  8 10  1  0  0  0  0
 10 11  1  0  0  0  0
 10 29  1  0  0  0  0
 11 12  1  0  0  0  0
 11 13  1  0  0  0  0
 11 30  1  0  0  0  0
 12 31  1  0  0  0  0
 12 32  1  0  0  0  0
 12 33  1  0  0  0  0
 13 14  1  0  0  0  0
 13 15  1  0  0  0  0
 13 34  1  0  0  0  0
 14 35  1  0  0  0  0
 14 36  1  0  0  0  0
 14 37  1  0  0  0  0
 15 20  1  0  0  0  0
 15 16  1  0  0  0  0
 16 17  1  0  0  0  0
 16 38  1  0  0  0  0
 16 39  1  0  0  0  0
 17 18  1  0  0  0  0
 17 40  1  0  0  0  0
 17 41  1  0  0  0  0
 18 19  1  0  0  0  0
 19 20  1  0  0  0  0
 19 42  1  0  0  0  0
 19 43  1  0  0  0  0
 20 44  1  0  0  0  0
 20 45  1  0  0  0  0
M  END
> <s_m_source_file>
AV-unprocessed.smi

> <i_m_source_file_index>
2390

> <i_lp_mmshare_version>
43012

> <i_f3d_flags>
0

> <s_epik_input>
W0NIM11jMVtjSF1bY0hdW2NIXWMobjEpW05IXUMoPU8pW05IXVtDQEhdKFtDSDNdKVtDQEhdKFtDSDNdKU4yW0NIMl1bQ0gyXU9bQ0gyXVtDSDJdMg==

> <s_epik_cmdline>
J2VwaWtfcHl0aG9uJywgJy1waCcsICc3LjAnLCAnLXRuJywgJzgnLCAnLW1hJywgJzIwMCcsICctbWV0YWxfYmluZGluZycsICctaW1hZScsICc8aW5maWxlLm1hZT4nLCAnLW9tYWUnLCAnPG91dGZpbGUubWFlPic=

> <r_epik_Ionization_Penalty>
0.266074

> <r_epik_Ionization_Penalty_Charging>
0

> <r_epik_Ionization_Penalty_Neutral>
0.266074

> <r_epik_State_Penalty>
0.257924

> <r_epik_Charging_Adjusted_Penalty>
0.257924

> <i_epik_Tot_Q>
0

> <i_epik_Tot_abs_Q>
0

> <r_epik_Metal_State_Penalty>
0.257919

> <b_epik_Metal_Only>
0

> <s_lp_Force_Field>
OPLS_2005

> <r_lp_Energy>
32.9653

> <b_lp_Chiralities_Consistent>
1

> <s_lp_Variant>
AV-unprocessed.smi:2390-2

> <Gold.Version>
5.8.1

> <Gold.Id.Protein>
6NUR|6NUR_protein|mol2

> <Gold.PLP.Fitness>
41.0126

> <Gold.PLP.PLP>
-36.2491

> <Gold.PLP.part.hbond>
-1.9376

> <Gold.PLP.part.metal>
0.0000

> <Gold.PLP.part.buried>
-4.7552

> <Gold.PLP.part.nonpolar>
-29.9951

> <Gold.PLP.part.repulsive>
0.4252

> <Gold.PLP.ligand.clash>
0.0000

> <Gold.PLP.ligand.torsion>
0.4627

> <Gold.PLP.Chemscore.Hbond>
1.8640

> <Gold.PLP.Chemscore.CHOScore>
0.0000

> <Gold.PLP.Chemscore.Metal>
0.0000

> <Gold.Chemscore.Hbonds>
donor molecule, donor type, donor heavy atom, donor atom, acceptor molecule, acceptor atom, score
      L1  H     7    28       P1  8028  0.91
      L1  H    10    29       P1  8028  0.74

> <Gold.PLP.Chemscore.Internal.Correction>
0.0970

> <Gold.Rescore>
     Score         DG    S(hbond)    S(metal)    S(lipo)     H(rot)  DE(clash)    DE(int)     intcor
     15.57     -19.05       1.81        0.00      95.90       1.44       0.07       3.41       ----

> <Gold.Chemscore.Fitness>
15.5655

> <Gold.Chemscore.DG>
-19.0465

> <Gold.Chemscore.ZeroCoef>
-5.4800

> <Gold.Chemscore.Hbond>
1.8058

> <Gold.Chemscore.Metal>
0.0000

> <Gold.Chemscore.Lipo>
95.9028

> <Gold.Chemscore.Internal_Hbond>
0.0000

> <Gold.Chemscore.DEClash>
0.0682

> <Gold.Chemscore.DEInternal>
3.4128

> <Gold.Chemscore.Rot>
1.4396

> <Gold.Chemscore.Internal.Correction>
   9.000000E+99

> <Gold.Chemscore.Hbonds>
donor molecule, donor type, donor heavy atom, donor atom, acceptor molecule, acceptor atom, score
      L1  H     7    28       P1  8028  0.88
      L1  H    10    29       P1  8028  0.74

> <Gold.Chemscore.Hbond.Weighted>
-6.0313

> <Gold.Chemscore.Metal.Weighted>
-0.0000

> <Gold.Chemscore.Lipo.Weighted>
-11.2206

> <Gold.Chemscore.Internal_Hbond.Weighted>
0.0000

> <Gold.Chemscore.DEClash.Weighted>
0.0682

> <Gold.Chemscore.DEInternal.Weighted>
3.4128

> <Gold.Chemscore.Rot.Weighted>
3.6855

> <Gold.Chemscore.Internal.Correction.Weighted>
   9.000000E+99

> <Gold.Protein.RotatedTorsions>
[ 6907 6896 6895 6894 ] final   90.89 input  -60.11 | X-H torsion
[ 7974 7965 7964 7962 ] final -136.50 input  175.53 | X-H torsion
[ 8008 7997 7996 7995 ] final   41.78 input   59.86 | X-H torsion
[ 10167 10162 10161 10158 ] final   32.40 input  -65.29 | X-H torsion
[ 10718 10713 10712 10709 ] final   14.33 input   66.30 | X-H torsion
[ 10763 10752 10751 10750 ] final   58.30 input  -60.55 | X-H torsion
[ 11005 11000 10999 10996 ] final  124.46 input  -57.11 | X-H torsion

> <Gold.Protein.ActiveResidues>
 VAL166  LYS551  ARG553  GLY616  TRP617  ASP618  TYR619  PRO620  LYS621  CYS622 
 ASP623  PHE694  ASN695  SER759  ASP760  ASP761  ALA762  ILE779  LEU786  VAL792 
 PHE793  MET794  SER795  GLU796  ALA797  LYS798  CYS799  TRP800  GLU811  SER814 

> <Gold.Protein.RotatedAtoms>
  152.5447  134.1742  159.8608 H   0  0  0  0  0  0  0  0  0  0  0  0  # atno 6907 bound_to 6896
  151.1749  133.4754  159.2601 H   0  0  0  0  0  0  0  0  0  0  0  0  # atno 6908 bound_to 6896
  151.1237  135.0104  159.8605 H   0  0  0  0  0  0  0  0  0  0  0  0  # atno 6909 bound_to 6896
  144.8922  140.6657  143.5138 H   0  0  0  0  0  0  0  0  0  0  0  0  # atno 7974 bound_to 7965
  155.2752  140.3368  155.4262 H   0  0  0  0  0  0  0  0  0  0  0  0  # atno 8008 bound_to 7997
  156.2115  140.1771  156.7727 H   0  0  0  0  0  0  0  0  0  0  0  0  # atno 8009 bound_to 7997
  154.5692  140.0673  156.8923 H   0  0  0  0  0  0  0  0  0  0  0  0  # atno 8010 bound_to 7997
  140.4502  144.1059  150.6190 H   0  0  0  0  0  0  0  0  0  0  0  0  # atno 10167 bound_to 10162
  157.0375  130.6218  149.5745 H   0  0  0  0  0  0  0  0  0  0  0  0  # atno 10718 bound_to 10713
  152.9868  135.5611  154.5529 H   0  0  0  0  0  0  0  0  0  0  0  0  # atno 10763 bound_to 10752
  154.4963  135.2795  155.1459 H   0  0  0  0  0  0  0  0  0  0  0  0  # atno 10764 bound_to 10752
  154.2907  135.6326  153.5437 H   0  0  0  0  0  0  0  0  0  0  0  0  # atno 10765 bound_to 10752
  139.9360  134.9639  156.8413 H   0  0  0  0  0  0  0  0  0  0  0  0  # atno 11005 bound_to 11000
  145.3763  139.1647  143.4304 LP  0  0  0  0  0  0  0  0  0  0  0  0  # atno 17320 bound_to 7965
  146.3060  140.3840  142.8687 LP  0  0  0  0  0  0  0  0  0  0  0  0  # atno 17321 bound_to 7965
  140.4216  143.2609  151.9708 LP  0  0  0  0  0  0  0  0  0  0  0  0  # atno 17342 bound_to 10162
  139.4796  144.5825  151.7908 LP  0  0  0  0  0  0  0  0  0  0  0  0  # atno 17343 bound_to 10162
  156.0049  130.5134  150.7794 LP  0  0  0  0  0  0  0  0  0  0  0  0  # atno 17370 bound_to 10713
  157.5130  131.0926  151.0175 LP  0  0  0  0  0  0  0  0  0  0  0  0  # atno 17371 bound_to 10713
  140.6075  134.0114  155.7563 LP  0  0  0  0  0  0  0  0  0  0  0  0  # atno 17394 bound_to 11000
  141.0973  133.9823  157.3138 LP  0  0  0  0  0  0  0  0  0  0  0  0  # atno 17395 bound_to 11000

$$$$
