AV-unprocessed.smi:1878|AV-procd|sdf|7628|dock7
  -GOLD-   22720 9353D 1   1.00000     0.00000
 Structure written by MMmdl.
 34 35  0  0  0  0  0  0  0  0  2 V2000
  149.0056  138.3937  154.7671 O   0  0  0  0  0  0  0  0  0  0  0  0
  149.4778  139.4972  154.4848 C   0  0  0  0  0  0  0  0  0  0  0  0
  148.6719  140.4772  154.0578 N   0  0  0  0  0  0  0  0  0  0  0  0
  147.2290  140.3594  153.8850 C   0  0  0  0  0  0  0  0  0  0  0  0
  146.4751  141.2505  154.8822 C   0  0  0  0  0  0  0  0  0  0  0  0
  147.2615  141.5047  155.9275 F   0  0  0  0  0  0  0  0  0  0  0  0
  146.1381  142.4064  154.3097 F   0  0  0  0  0  0  0  0  0  0  0  0
  145.3738  140.6362  155.3151 F   0  0  0  0  0  0  0  0  0  0  0  0
  150.7808  139.8547  154.5582 N   0  5  0  0  0  0  0  0  0  0  0  0
  151.3060  140.2501  155.7283 C   0  0  0  0  0  0  0  0  0  0  0  0
  150.8480  141.4080  156.3927 C   0  0  0  0  0  0  0  0  0  0  0  0
  151.4232  141.7860  157.6206 C   0  0  0  0  0  0  0  0  0  0  0  0
  152.4508  140.9856  158.1703 C   0  0  0  0  0  0  0  0  0  0  0  0
  153.0601  141.3260  159.3946 N   0  0  0  0  0  0  0  0  0  0  0  0
  153.7314  140.3340  160.2198 C   0  0  0  0  0  0  0  0  0  0  0  0
  154.1232  141.0896  161.4886 C   0  0  0  0  0  0  0  0  0  0  0  0
  153.0010  142.1165  161.6409 C   0  0  0  0  0  0  0  0  0  0  0  0
  152.5979  142.4482  160.1992 C   0  0  0  0  0  0  0  0  0  0  0  0
  152.8976  139.8741  157.5407 N   0  0  0  0  0  0  0  0  0  0  0  0
  152.3381  139.5241  156.3631 C   0  0  0  0  0  0  0  0  0  0  0  0
  149.0914  141.3681  153.8354 H   0  0  0  0  0  0  0  0  0  0  0  0
  146.9671  140.6392  152.8635 H   0  0  0  0  0  0  0  0  0  0  0  0
  146.9307  139.3185  154.0200 H   0  0  0  0  0  0  0  0  0  0  0  0
  150.0616  142.0101  155.9612 H   0  0  0  0  0  0  0  0  0  0  0  0
  151.0750  142.6810  158.1135 H   0  0  0  0  0  0  0  0  0  0  0  0
  153.0383  139.5242  160.4518 H   0  0  0  0  0  0  0  0  0  0  0  0
  154.6018  139.9121  159.7162 H   0  0  0  0  0  0  0  0  0  0  0  0
  154.2281  140.4374  162.3558 H   0  0  0  0  0  0  0  0  0  0  0  0
  155.0732  141.6029  161.3342 H   0  0  0  0  0  0  0  0  0  0  0  0
  152.1577  141.6575  162.1589 H   0  0  0  0  0  0  0  0  0  0  0  0
  153.3034  142.9969  162.2086 H   0  0  0  0  0  0  0  0  0  0  0  0
  153.0970  143.3549  159.8564 H   0  0  0  0  0  0  0  0  0  0  0  0
  151.5206  142.5975  160.1208 H   0  0  0  0  0  0  0  0  0  0  0  0
  152.7333  138.6272  155.9085 H   0  0  0  0  0  0  0  0  0  0  0  0
  1  2  2  0  0  0  0
  2  3  1  0  0  0  0
  2  9  1  0  0  0  0
  3  4  1  0  0  0  0
  3 21  1  0  0  0  0
  4  5  1  0  0  0  0
  4 22  1  0  0  0  0
  4 23  1  0  0  0  0
  5  6  1  0  0  0  0
  5  7  1  0  0  0  0
  5  8  1  0  0  0  0
  9 10  1  0  0  0  0
 10 20  1  0  0  0  0
 10 11  2  0  0  0  0
 11 12  1  0  0  0  0
 11 24  1  0  0  0  0
 12 13  2  0  0  0  0
 12 25  1  0  0  0  0
 13 14  1  0  0  0  0
 13 19  1  0  0  0  0
 14 18  1  0  0  0  0
 14 15  1  0  0  0  0
 15 16  1  0  0  0  0
 15 26  1  0  0  0  0
 15 27  1  0  0  0  0
 16 17  1  0  0  0  0
 16 28  1  0  0  0  0
 16 29  1  0  0  0  0
 17 18  1  0  0  0  0
 17 30  1  0  0  0  0
 17 31  1  0  0  0  0
 18 32  1  0  0  0  0
 18 33  1  0  0  0  0
 19 20  2  0  0  0  0
 20 34  1  0  0  0  0
M  CHG  1   9  -1
M  END
> <s_m_source_file>
AV-unprocessed.smi

> <i_m_source_file_index>
1878

> <i_lp_mmshare_version>
43012

> <i_f3d_flags>
0

> <s_epik_input>
RkMoRikoRilbQ0gyXVtOSF1DKD1PKVtOSF1jMVtjSF1bY0hdYyhuW2NIXTEpTjJbQ0gyXVtDSDJdW0NIMl1bQ0gyXTI=

> <s_epik_cmdline>
J2VwaWtfcHl0aG9uJywgJy1waCcsICc3LjAnLCAnLXRuJywgJzgnLCAnLW1hJywgJzIwMCcsICctbWV0YWxfYmluZGluZycsICctaW1hZScsICc8aW5maWxlLm1hZT4nLCAnLW9tYWUnLCAnPG91dGZpbGUubWFlPic=

> <r_lp_tautomer_probability>
1

> <r_epik_Ionization_Penalty>
8.41125

> <r_epik_Ionization_Penalty_Charging>
6.79601

> <r_epik_Ionization_Penalty_Neutral>
1.61524

> <r_epik_State_Penalty>
6.86553

> <r_epik_Charging_Adjusted_Penalty>
13.6615

> <i_epik_Tot_Q>
-1

> <i_epik_Tot_abs_Q>
1

> <r_epik_Metal_State_Penalty>
2.85642

> <b_epik_Metal_Only>
1

> <s_lp_Force_Field>
OPLS_2005

> <r_lp_Energy>
22.1987

> <b_lp_Chiralities_Consistent>
1

> <s_lp_Variant>
AV-unprocessed.smi:1878-3

> <Gold.Version>
5.8.1

> <Gold.Id.Protein>
6NUR|6NUR_protein|mol2

> <Gold.PLP.Fitness>
44.9479

> <Gold.PLP.PLP>
-42.7833

> <Gold.PLP.part.hbond>
-3.0000

> <Gold.PLP.part.metal>
0.0000

> <Gold.PLP.part.buried>
-3.9021

> <Gold.PLP.part.nonpolar>
-35.9404

> <Gold.PLP.part.repulsive>
0.3752

> <Gold.PLP.ligand.clash>
0.0000

> <Gold.PLP.ligand.torsion>
2.2528

> <Gold.PLP.Chemscore.Hbond>
1.9760

> <Gold.PLP.Chemscore.CHOScore>
0.0000

> <Gold.PLP.Chemscore.Metal>
0.0000

> <Gold.Chemscore.Hbonds>
donor molecule, donor type, donor heavy atom, donor atom, acceptor molecule, acceptor atom, score
      P1  H  7989  7998       L1     9  1.00
      P1  H  7997  8008       L1    19  0.93

> <Gold.PLP.Chemscore.Internal.Correction>
0.7423

> <Gold.Rescore>
     Score         DG    S(hbond)    S(metal)    S(lipo)     H(rot)  DE(clash)    DE(int)     intcor
     13.75     -15.85       0.88        0.00      85.46       1.00       0.04       2.06       ----

> <Gold.Chemscore.Fitness>
13.7527

> <Gold.Chemscore.DG>
-15.8524

> <Gold.Chemscore.ZeroCoef>
-5.4800

> <Gold.Chemscore.Hbond>
0.8783

> <Gold.Chemscore.Metal>
0.0000

> <Gold.Chemscore.Lipo>
85.4618

> <Gold.Chemscore.Internal_Hbond>
0.0000

> <Gold.Chemscore.DEClash>
0.0383

> <Gold.Chemscore.DEInternal>
2.0614

> <Gold.Chemscore.Rot>
1.0000

> <Gold.Chemscore.Internal.Correction>
   9.000000E+99

> <Gold.Chemscore.Hbonds>
donor molecule, donor type, donor heavy atom, donor atom, acceptor molecule, acceptor atom, score
      P1  H  7989  7998       L1     9  0.26
      P1  H  7997  8008       L1    19  0.18

> <Gold.Chemscore.Hbond.Weighted>
-2.9334

> <Gold.Chemscore.Metal.Weighted>
-0.0000

> <Gold.Chemscore.Lipo.Weighted>
-9.9990

> <Gold.Chemscore.Internal_Hbond.Weighted>
0.0000

> <Gold.Chemscore.DEClash.Weighted>
0.0383

> <Gold.Chemscore.DEInternal.Weighted>
2.0614

> <Gold.Chemscore.Rot.Weighted>
2.5600

> <Gold.Chemscore.Internal.Correction.Weighted>
   9.000000E+99

> <Gold.Protein.RotatedTorsions>
[ 6907 6896 6895 6894 ] final  -54.87 input  -60.11 | X-H torsion
[ 7974 7965 7964 7962 ] final   -6.68 input  175.53 | X-H torsion
[ 8008 7997 7996 7995 ] final  -88.34 input   59.86 | X-H torsion
[ 10167 10162 10161 10158 ] final -156.40 input  -65.29 | X-H torsion
[ 10718 10713 10712 10709 ] final   90.86 input   66.30 | X-H torsion
[ 10763 10752 10751 10750 ] final   -0.90 input  -60.55 | X-H torsion
[ 11005 11000 10999 10996 ] final  134.96 input  -57.11 | X-H torsion

> <Gold.Protein.ActiveResidues>
 VAL166  LYS551  ARG553  GLY616  TRP617  ASP618  TYR619  PRO620  LYS621  CYS622 
 ASP623  PHE694  ASN695  SER759  ASP760  ASP761  ALA762  ILE779  LEU786  VAL792 
 PHE793  MET794  SER795  GLU796  ALA797  LYS798  CYS799  TRP800  GLU811  SER814 

> <Gold.Protein.RotatedAtoms>
  150.8300  134.7549  159.6845 H   0  0  0  0  0  0  0  0  0  0  0  0  # atno 6907 bound_to 6896
  152.4406  134.5595  159.9900 H   0  0  0  0  0  0  0  0  0  0  0  0  # atno 6908 bound_to 6896
  151.5758  133.3346  159.3034 H   0  0  0  0  0  0  0  0  0  0  0  0  # atno 6909 bound_to 6896
  146.2325  140.2207  142.8337 H   0  0  0  0  0  0  0  0  0  0  0  0  # atno 7974 bound_to 7965
  154.6737  140.0555  157.0193 H   0  0  0  0  0  0  0  0  0  0  0  0  # atno 8008 bound_to 7997
  155.1051  140.3233  155.4518 H   0  0  0  0  0  0  0  0  0  0  0  0  # atno 8009 bound_to 7997
  156.2667  140.2024  156.6177 H   0  0  0  0  0  0  0  0  0  0  0  0  # atno 8010 bound_to 7997
  139.6853  143.9512  152.2358 H   0  0  0  0  0  0  0  0  0  0  0  0  # atno 10167 bound_to 10162
  157.6959  131.0386  150.3641 H   0  0  0  0  0  0  0  0  0  0  0  0  # atno 10718 bound_to 10713
  153.3379  135.6979  153.6892 H   0  0  0  0  0  0  0  0  0  0  0  0  # atno 10763 bound_to 10752
  153.5668  135.3524  155.2822 H   0  0  0  0  0  0  0  0  0  0  0  0  # atno 10764 bound_to 10752
  154.8631  135.4262  154.2584 H   0  0  0  0  0  0  0  0  0  0  0  0  # atno 10765 bound_to 10752
  139.9949  134.9501  156.9941 H   0  0  0  0  0  0  0  0  0  0  0  0  # atno 11005 bound_to 11000
  144.9634  140.8298  143.5499 LP  0  0  0  0  0  0  0  0  0  0  0  0  # atno 17320 bound_to 7965
  145.2180  139.2172  143.5108 LP  0  0  0  0  0  0  0  0  0  0  0  0  # atno 17321 bound_to 7965
  139.9313  144.6739  150.8360 LP  0  0  0  0  0  0  0  0  0  0  0  0  # atno 17342 bound_to 10162
  140.7665  143.3307  151.2417 LP  0  0  0  0  0  0  0  0  0  0  0  0  # atno 17343 bound_to 10162
  156.4074  130.3927  149.6916 LP  0  0  0  0  0  0  0  0  0  0  0  0  # atno 17370 bound_to 10713
  156.4212  130.7769  151.2786 LP  0  0  0  0  0  0  0  0  0  0  0  0  # atno 17371 bound_to 10713
  140.4838  134.1263  155.7221 LP  0  0  0  0  0  0  0  0  0  0  0  0  # atno 17394 bound_to 11000
  141.1596  133.8818  157.1884 LP  0  0  0  0  0  0  0  0  0  0  0  0  # atno 17395 bound_to 11000

$$$$
