AV-unprocessed.smi:3215|AV-procd|sdf|12286|dock6
  -GOLD-   2272018123D 1   1.00000     0.00000
 Structure written by MMmdl.
 37 38  0  0  0  0  0  0  0  0  1 V2000
  146.8887  140.6347  153.8397 C   0  0  0  0  0  0  0  0  0  0  0  0
  148.3183  140.3293  154.1819 C   0  0  0  0  0  0  0  0  0  0  0  0
  149.3079  141.2248  154.6789 C   0  0  0  0  0  0  0  0  0  0  0  0
  150.4774  140.6395  154.8796 N   0  0  0  0  0  0  0  0  0  0  0  0
  150.2773  139.3544  154.5182 N   0  0  0  0  0  0  0  0  0  0  0  0
  151.3664  138.4014  154.6106 C   0  0  0  0  0  0  0  0  0  0  0  0
  152.6806  139.0810  155.0214 C   0  0  0  0  0  0  0  0  0  0  0  0
  152.8357  139.0055  156.4659 N   0  0  0  0  0  0  0  0  0  0  0  0
  151.8606  139.8740  157.1377 C   0  0  0  0  0  0  0  0  0  0  0  0
  152.3758  140.4478  158.4681 C   0  0  0  0  0  0  0  0  0  0  0  0
  152.8706  139.6979  159.3119 O   0  0  0  0  0  0  0  0  0  0  0  0
  152.2618  141.7768  158.6726 N   0  0  0  0  0  0  0  0  0  0  0  0
  151.6945  142.6996  157.6915 C   0  0  0  0  0  0  0  0  0  0  0  0
  152.0188  144.1018  158.2070 C   0  0  0  0  0  0  0  0  0  0  0  0
  152.1585  143.9214  159.7121 C   0  0  0  0  0  0  0  0  0  0  0  0
  152.6892  142.4963  159.8725 C   0  0  0  0  0  0  0  0  0  0  0  0
  148.9837  139.1392  154.0926 C   0  0  0  0  0  0  0  0  0  0  0  0
  146.4540  141.3570  154.5309 H   0  0  0  0  0  0  0  0  0  0  0  0
  146.2634  139.7422  153.8748 H   0  0  0  0  0  0  0  0  0  0  0  0
  146.7969  141.0530  152.8373 H   0  0  0  0  0  0  0  0  0  0  0  0
  149.2109  142.2778  154.8989 H   0  0  0  0  0  0  0  0  0  0  0  0
  151.0912  137.6334  155.3349 H   0  0  0  0  0  0  0  0  0  0  0  0
  151.4756  137.9028  153.6460 H   0  0  0  0  0  0  0  0  0  0  0  0
  153.5255  138.5941  154.5315 H   0  0  0  0  0  0  0  0  0  0  0  0
  152.6741  140.1254  154.7057 H   0  0  0  0  0  0  0  0  0  0  0  0
  152.7375  138.0452  156.7632 H   0  0  0  0  0  0  0  0  0  0  0  0
  151.6047  140.7031  156.4764 H   0  0  0  0  0  0  0  0  0  0  0  0
  150.9468  139.3090  157.3283 H   0  0  0  0  0  0  0  0  0  0  0  0
  152.1022  142.5414  156.6918 H   0  0  0  0  0  0  0  0  0  0  0  0
  150.6151  142.5479  157.6454 H   0  0  0  0  0  0  0  0  0  0  0  0
  152.9709  144.4340  157.7906 H   0  0  0  0  0  0  0  0  0  0  0  0
  151.2610  144.8377  157.9363 H   0  0  0  0  0  0  0  0  0  0  0  0
  152.8082  144.6682  160.1694 H   0  0  0  0  0  0  0  0  0  0  0  0
  151.1768  144.0013  160.1808 H   0  0  0  0  0  0  0  0  0  0  0  0
  152.3095  142.0409  160.7880 H   0  0  0  0  0  0  0  0  0  0  0  0
  153.7791  142.4989  159.9181 H   0  0  0  0  0  0  0  0  0  0  0  0
  148.6465  138.1665  153.7658 H   0  0  0  0  0  0  0  0  0  0  0  0
  1  2  1  0  0  0  0
  1 18  1  0  0  0  0
  1 19  1  0  0  0  0
  1 20  1  0  0  0  0
  2 17  2  0  0  0  0
  2  3  1  0  0  0  0
  3  4  2  0  0  0  0
  3 21  1  0  0  0  0
  4  5  1  0  0  0  0
  5  6  1  0  0  0  0
  5 17  1  0  0  0  0
  6  7  1  0  0  0  0
  6 22  1  0  0  0  0
  6 23  1  0  0  0  0
  7  8  1  0  0  0  0
  7 24  1  0  0  0  0
  7 25  1  0  0  0  0
  8  9  1  0  0  0  0
  8 26  1  0  0  0  0
  9 10  1  0  0  0  0
  9 27  1  0  0  0  0
  9 28  1  0  0  0  0
 10 11  2  0  0  0  0
 10 12  1  0  0  0  0
 12 16  1  0  0  0  0
 12 13  1  0  0  0  0
 13 14  1  0  0  0  0
 13 29  1  0  0  0  0
 13 30  1  0  0  0  0
 14 15  1  0  0  0  0
 14 31  1  0  0  0  0
 14 32  1  0  0  0  0
 15 16  1  0  0  0  0
 15 33  1  0  0  0  0
 15 34  1  0  0  0  0
 16 35  1  0  0  0  0
 16 36  1  0  0  0  0
 17 37  1  0  0  0  0
M  END
> <s_m_source_file>
AV-unprocessed.smi

> <i_m_source_file_index>
3215

> <i_lp_mmshare_version>
43012

> <i_f3d_flags>
0

> <s_epik_input>
W0NIM11jMVtjSF1ubihbY0hdMSlbQ0gyXVtDSDJdW05IXVtDSDJdQyg9TylOMltDSDJdW0NIMl1bQ0gyXVtDSDJdMg==

> <s_epik_cmdline>
J2VwaWtfcHl0aG9uJywgJy1waCcsICc3LjAnLCAnLXRuJywgJzgnLCAnLW1hJywgJzIwMCcsICctbWV0YWxfYmluZGluZycsICctaW1hZScsICc8aW5maWxlLm1hZT4nLCAnLW9tYWUnLCAnPG91dGZpbGUubWFlPic=

> <r_lp_tautomer_probability>
1

> <r_epik_Ionization_Penalty>
0.736363

> <r_epik_Ionization_Penalty_Charging>
0

> <r_epik_Ionization_Penalty_Neutral>
0.736363

> <r_epik_State_Penalty>
0.758951

> <r_epik_Charging_Adjusted_Penalty>
0.758951

> <i_epik_Tot_Q>
0

> <i_epik_Tot_abs_Q>
0

> <r_epik_Metal_State_Penalty>
0.755698

> <b_epik_Metal_Only>
0

> <s_lp_Force_Field>
OPLS_2005

> <r_lp_Energy>
29.5089

> <b_lp_Chiralities_Consistent>
1

> <s_lp_Variant>
AV-unprocessed.smi:3215-2

> <Gold.Version>
5.8.1

> <Gold.Id.Protein>
6NUR|6NUR_protein|mol2

> <Gold.PLP.Fitness>
49.1402

> <Gold.PLP.PLP>
-41.0435

> <Gold.PLP.part.hbond>
-2.0000

> <Gold.PLP.part.metal>
0.0000

> <Gold.PLP.part.buried>
-3.4356

> <Gold.PLP.part.nonpolar>
-35.5575

> <Gold.PLP.part.repulsive>
0.0955

> <Gold.PLP.ligand.clash>
0.0000

> <Gold.PLP.ligand.torsion>
0.5612

> <Gold.PLP.Chemscore.Hbond>
1.8024

> <Gold.PLP.Chemscore.CHOScore>
1.2640

> <Gold.PLP.Chemscore.Metal>
0.0000

> <Gold.Chemscore.Hbonds>
donor molecule, donor type, donor heavy atom, donor atom, acceptor molecule, acceptor atom, score
      P1  H  7989  7998       L1     4  0.51
      P1  H  7997  8009       L1     8  0.95
      L1  C     3    21       P1  8028  0.91
      L1  C    17    37       P1  7948  0.54

> <Gold.PLP.Chemscore.Internal.Correction>
0.0200

> <Gold.Rescore>
     Score         DG    S(hbond)    S(metal)    S(lipo)     H(rot)  DE(clash)    DE(int)     intcor
     15.16     -15.81       1.25        0.00      90.82       1.74       0.11       0.54       ----

> <Gold.Chemscore.Fitness>
15.1605

> <Gold.Chemscore.DG>
-15.8120

> <Gold.Chemscore.ZeroCoef>
-5.4800

> <Gold.Chemscore.Hbond>
1.2491

> <Gold.Chemscore.Metal>
0.0000

> <Gold.Chemscore.Lipo>
90.8186

> <Gold.Chemscore.Internal_Hbond>
0.0000

> <Gold.Chemscore.DEClash>
0.1101

> <Gold.Chemscore.DEInternal>
0.5414

> <Gold.Chemscore.Rot>
1.7444

> <Gold.Chemscore.Internal.Correction>
   9.000000E+99

> <Gold.Chemscore.Hbonds>
donor molecule, donor type, donor heavy atom, donor atom, acceptor molecule, acceptor atom, score
      P1  H  7989  7998       L1     4  0.02
      P1  H  7997  8009       L1     8  0.05

> <Gold.Chemscore.Hbond.Weighted>
-4.1719

> <Gold.Chemscore.Metal.Weighted>
-0.0000

> <Gold.Chemscore.Lipo.Weighted>
-10.6258

> <Gold.Chemscore.Internal_Hbond.Weighted>
0.0000

> <Gold.Chemscore.DEClash.Weighted>
0.1101

> <Gold.Chemscore.DEInternal.Weighted>
0.5414

> <Gold.Chemscore.Rot.Weighted>
4.4657

> <Gold.Chemscore.Internal.Correction.Weighted>
   9.000000E+99

> <Gold.Protein.RotatedTorsions>
[ 6907 6896 6895 6894 ] final -157.82 input  -60.11 | X-H torsion
[ 7974 7965 7964 7962 ] final   38.60 input  175.53 | X-H torsion
[ 8008 7997 7996 7995 ] final  178.36 input   59.86 | X-H torsion
[ 10167 10162 10161 10158 ] final  -93.09 input  -65.29 | X-H torsion
[ 10718 10713 10712 10709 ] final   51.06 input   66.30 | X-H torsion
[ 10763 10752 10751 10750 ] final -123.01 input  -60.55 | X-H torsion
[ 11005 11000 10999 10996 ] final  -17.81 input  -57.11 | X-H torsion

> <Gold.Protein.ActiveResidues>
 VAL166  LYS551  ARG553  GLY616  TRP617  ASP618  TYR619  PRO620  LYS621  CYS622 
 ASP623  PHE694  ASN695  SER759  ASP760  ASP761  ALA762  ILE779  LEU786  VAL792 
 PHE793  MET794  SER795  GLU796  ALA797  LYS798  CYS799  TRP800  GLU811  SER814 

> <Gold.Protein.RotatedAtoms>
  151.3087  133.4090  159.2644 H   0  0  0  0  0  0  0  0  0  0  0  0  # atno 6907 bound_to 6896
  151.0133  134.9414  159.8029 H   0  0  0  0  0  0  0  0  0  0  0  0  # atno 6908 bound_to 6896
  152.5306  134.3051  159.9145 H   0  0  0  0  0  0  0  0  0  0  0  0  # atno 6909 bound_to 6896
  146.1049  139.5752  142.9390 H   0  0  0  0  0  0  0  0  0  0  0  0  # atno 7974 bound_to 7965
  156.0554  140.1335  157.0002 H   0  0  0  0  0  0  0  0  0  0  0  0  # atno 8008 bound_to 7997
  154.4455  140.1002  156.6509 H   0  0  0  0  0  0  0  0  0  0  0  0  # atno 8009 bound_to 7997
  155.5459  140.3462  155.4459 H   0  0  0  0  0  0  0  0  0  0  0  0  # atno 8010 bound_to 7997
  140.3281  143.3010  151.9972 H   0  0  0  0  0  0  0  0  0  0  0  0  # atno 10167 bound_to 10162
  157.4944  130.8397  149.8241 H   0  0  0  0  0  0  0  0  0  0  0  0  # atno 10718 bound_to 10713
  154.8700  135.4113  154.2874 H   0  0  0  0  0  0  0  0  0  0  0  0  # atno 10763 bound_to 10752
  153.3756  135.7009  153.6610 H   0  0  0  0  0  0  0  0  0  0  0  0  # atno 10764 bound_to 10752
  153.5453  135.3639  155.2708 H   0  0  0  0  0  0  0  0  0  0  0  0  # atno 10765 bound_to 10752
  140.8206  133.8071  155.9655 H   0  0  0  0  0  0  0  0  0  0  0  0  # atno 11005 bound_to 11000
  145.5780  141.0386  143.2137 LP  0  0  0  0  0  0  0  0  0  0  0  0  # atno 17320 bound_to 7965
  144.7463  139.7312  143.7291 LP  0  0  0  0  0  0  0  0  0  0  0  0  # atno 17321 bound_to 7965
  139.4861  144.6257  151.7169 LP  0  0  0  0  0  0  0  0  0  0  0  0  # atno 17342 bound_to 10162
  140.5422  144.0561  150.6093 LP  0  0  0  0  0  0  0  0  0  0  0  0  # atno 17343 bound_to 10162
  156.0192  130.3802  150.2014 LP  0  0  0  0  0  0  0  0  0  0  0  0  # atno 17370 bound_to 10713
  157.0203  130.9977  151.3341 LP  0  0  0  0  0  0  0  0  0  0  0  0  # atno 17371 bound_to 10713
  140.9103  134.2269  157.4990 LP  0  0  0  0  0  0  0  0  0  0  0  0  # atno 17394 bound_to 11000
  139.8709  134.9747  156.4856 LP  0  0  0  0  0  0  0  0  0  0  0  0  # atno 17395 bound_to 11000

$$$$
