AV-unprocessed.smi:467|AV-procd|sdf|2643|dock3
  -GOLD-   2262023 53D 1   1.00000     0.00000
 Structure written by MMmdl.
 44 46  0  0  0  0  0  0  0  0  1 V2000
  153.0906  142.4552  161.7066 C   0  0  0  0  0  0  0  0  0  0  0  0
  152.5091  142.2061  160.3260 C   0  0  0  0  0  0  0  0  0  0  0  0
  152.8955  141.0466  159.6167 C   0  0  0  0  0  0  0  0  0  0  0  0
  152.3803  140.7795  158.3293 C   0  0  0  0  0  0  0  0  0  0  0  0
  152.6192  139.7226  157.4676 N   0  0  0  0  0  0  0  0  0  0  0  0
  151.8530  140.0453  156.4296 C   0  0  0  0  0  0  0  0  0  0  0  0
  151.1443  141.1869  156.5173 N   0  0  0  0  0  0  0  0  0  0  0  0
  150.2535  141.7375  155.5115 C   0  0  0  0  0  0  0  0  0  0  0  0
  149.4043  140.6509  154.8211 C   0  0  2  0  0  0  0  0  0  0  0  0
  150.2150  139.9263  153.9178 O   0  0  0  0  0  0  0  0  0  0  0  0
  148.2207  141.2339  154.0238 C   0  0  0  0  0  0  0  0  0  0  0  0
  147.2319  141.9738  154.8092 N   0  0  0  0  0  0  0  0  0  0  0  0
  146.6332  141.1653  155.8699 C   0  0  0  0  0  0  0  0  0  0  0  0
  145.5702  141.9485  156.6608 C   0  0  0  0  0  0  0  0  0  0  0  0
  144.5746  142.4417  155.7707 O   0  0  0  0  0  0  0  0  0  0  0  0
  145.1165  143.2771  154.7535 C   0  0  0  0  0  0  0  0  0  0  0  0
  146.1700  142.4923  153.9533 C   0  0  0  0  0  0  0  0  0  0  0  0
  151.4601  141.7117  157.7661 C   0  0  0  0  0  0  0  0  0  0  0  0
  151.0670  142.8684  158.4627 C   0  0  0  0  0  0  0  0  0  0  0  0
  151.5911  143.1194  159.7482 C   0  0  0  0  0  0  0  0  0  0  0  0
  151.1613  144.3716  160.4919 C   0  0  0  0  0  0  0  0  0  0  0  0
  153.8008  141.6767  161.9866 H   0  0  0  0  0  0  0  0  0  0  0  0
  152.2990  142.4728  162.4561 H   0  0  0  0  0  0  0  0  0  0  0  0
  153.6154  143.4104  161.7343 H   0  0  0  0  0  0  0  0  0  0  0  0
  153.5951  140.3510  160.0561 H   0  0  0  0  0  0  0  0  0  0  0  0
  151.8048  139.4168  155.5522 H   0  0  0  0  0  0  0  0  0  0  0  0
  149.6081  142.4700  155.9982 H   0  0  0  0  0  0  0  0  0  0  0  0
  150.8464  142.2864  154.7790 H   0  0  0  0  0  0  0  0  0  0  0  0
  149.0468  139.9367  155.5623 H   0  0  0  0  0  0  0  0  0  0  0  0
  149.7620  139.8642  153.0909 H   0  0  0  0  0  0  0  0  0  0  0  0
  148.6275  141.8932  153.2555 H   0  0  0  0  0  0  0  0  0  0  0  0
  147.7186  140.4279  153.4858 H   0  0  0  0  0  0  0  0  0  0  0  0
  146.1775  140.2709  155.4422 H   0  0  0  0  0  0  0  0  0  0  0  0
  147.3987  140.8245  156.5659 H   0  0  0  0  0  0  0  0  0  0  0  0
  145.0979  141.3037  157.4020 H   0  0  0  0  0  0  0  0  0  0  0  0
  146.0268  142.7784  157.2020 H   0  0  0  0  0  0  0  0  0  0  0  0
  144.3112  143.6091  154.0982 H   0  0  0  0  0  0  0  0  0  0  0  0
  145.5562  144.1698  155.2009 H   0  0  0  0  0  0  0  0  0  0  0  0
  146.5953  143.1416  153.1872 H   0  0  0  0  0  0  0  0  0  0  0  0
  145.6821  141.6693  153.4285 H   0  0  0  0  0  0  0  0  0  0  0  0
  150.3703  143.5580  158.0097 H   0  0  0  0  0  0  0  0  0  0  0  0
  150.4488  144.9559  159.9092 H   0  0  0  0  0  0  0  0  0  0  0  0
  152.0230  145.0060  160.7001 H   0  0  0  0  0  0  0  0  0  0  0  0
  150.6861  144.1105  161.4378 H   0  0  0  0  0  0  0  0  0  0  0  0
  1  2  1  0  0  0  0
  1 22  1  0  0  0  0
  1 23  1  0  0  0  0
  1 24  1  0  0  0  0
  2 20  1  0  0  0  0
  2  3  2  0  0  0  0
  3  4  1  0  0  0  0
  3 25  1  0  0  0  0
  4 18  2  0  0  0  0
  4  5  1  0  0  0  0
  5  6  2  0  0  0  0
  6  7  1  0  0  0  0
  6 26  1  0  0  0  0
  7  8  1  0  0  0  0
  7 18  1  0  0  0  0
  8  9  1  0  0  0  0
  8 27  1  0  0  0  0
  8 28  1  0  0  0  0
  9 10  1  0  0  0  0
  9 11  1  0  0  0  0
  9 29  1  0  0  0  0
 10 30  1  0  0  0  0
 11 12  1  0  0  0  0
 11 31  1  0  0  0  0
 11 32  1  0  0  0  0
 12 17  1  0  0  0  0
 12 13  1  0  0  0  0
 13 14  1  0  0  0  0
 13 33  1  0  0  0  0
 13 34  1  0  0  0  0
 14 15  1  0  0  0  0
 14 35  1  0  0  0  0
 14 36  1  0  0  0  0
 15 16  1  0  0  0  0
 16 17  1  0  0  0  0
 16 37  1  0  0  0  0
 16 38  1  0  0  0  0
 17 39  1  0  0  0  0
 17 40  1  0  0  0  0
 18 19  1  0  0  0  0
 19 20  2  0  0  0  0
 19 41  1  0  0  0  0
 20 21  1  0  0  0  0
 21 42  1  0  0  0  0
 21 43  1  0  0  0  0
 21 44  1  0  0  0  0
M  END
> <s_m_source_file>
AV-unprocessed.smi

> <i_m_source_file_index>
467

> <i_lp_mmshare_version>
43012

> <i_f3d_flags>
0

> <s_epik_input>
W0NIM11jKFtjSF0xKWMoW0NIM10pW2NIXWMoYzEyKW4oW2NIXW4yKVtDSDJdW0NASF0oW09IXSlbQ0gyXU4zW0NIMl1bQ0gyXU9bQ0gyXVtDSDJdMw==

> <s_epik_cmdline>
J2VwaWtfcHl0aG9uJywgJy1waCcsICc3LjAnLCAnLXRuJywgJzgnLCAnLW1hJywgJzIwMCcsICctbWV0YWxfYmluZGluZycsICctaW1hZScsICc8aW5maWxlLm1hZT4nLCAnLW9tYWUnLCAnPG91dGZpbGUubWFlPic=

> <r_epik_Ionization_Penalty>
0.345029

> <r_epik_Ionization_Penalty_Charging>
0

> <r_epik_Ionization_Penalty_Neutral>
0.345029

> <r_epik_State_Penalty>
0.314465

> <r_epik_Charging_Adjusted_Penalty>
0.314465

> <i_epik_Tot_Q>
0

> <i_epik_Tot_abs_Q>
0

> <r_epik_Metal_State_Penalty>
0.239717

> <b_epik_Metal_Only>
0

> <s_lp_Force_Field>
OPLS_2005

> <r_lp_Energy>
28.2503

> <b_lp_Chiralities_Consistent>
1

> <s_lp_Variant>
AV-unprocessed.smi:467-1

> <Gold.Version>
5.8.1

> <Gold.Id.Protein>
6NUR|6NUR_protein|mol2

> <Gold.PLP.Fitness>
54.6194

> <Gold.PLP.PLP>
-46.3635

> <Gold.PLP.part.hbond>
-3.0000

> <Gold.PLP.part.metal>
0.0000

> <Gold.PLP.part.buried>
-6.8159

> <Gold.PLP.part.nonpolar>
-37.1132

> <Gold.PLP.part.repulsive>
0.3007

> <Gold.PLP.ligand.clash>
0.0000

> <Gold.PLP.ligand.torsion>
0.3864

> <Gold.PLP.Chemscore.Hbond>
3.0000

> <Gold.PLP.Chemscore.CHOScore>
0.0000

> <Gold.PLP.Chemscore.Metal>
0.0000

> <Gold.Chemscore.Hbonds>
donor molecule, donor type, donor heavy atom, donor atom, acceptor molecule, acceptor atom, score
      L1  H    10    30       P1  7957  1.00
      P1  H  7989  7998       L1    10  0.96
      P1  H  7997  8008       L1     5  1.00

> <Gold.PLP.Chemscore.Internal.Correction>
0.0287

> <Gold.Rescore>
     Score         DG    S(hbond)    S(metal)    S(lipo)     H(rot)  DE(clash)    DE(int)     intcor
     18.55     -19.87       2.02        0.00     109.68       2.02       0.10       1.21       ----

> <Gold.Chemscore.Fitness>
18.5459

> <Gold.Chemscore.DG>
-19.8651

> <Gold.Chemscore.ZeroCoef>
-5.4800

> <Gold.Chemscore.Hbond>
2.0151

> <Gold.Chemscore.Metal>
0.0000

> <Gold.Chemscore.Lipo>
109.6812

> <Gold.Chemscore.Internal_Hbond>
0.0000

> <Gold.Chemscore.DEClash>
0.1046

> <Gold.Chemscore.DEInternal>
1.2145

> <Gold.Chemscore.Rot>
2.0227

> <Gold.Chemscore.Internal.Correction>
   9.000000E+99

> <Gold.Chemscore.Hbonds>
donor molecule, donor type, donor heavy atom, donor atom, acceptor molecule, acceptor atom, score
      L1  H    10    30       P1  7957  0.97
      P1  H  7989  7998       L1    10  0.21
      P1  H  7997  8008       L1     5  0.15

> <Gold.Chemscore.Hbond.Weighted>
-6.7304

> <Gold.Chemscore.Metal.Weighted>
-0.0000

> <Gold.Chemscore.Lipo.Weighted>
-12.8327

> <Gold.Chemscore.Internal_Hbond.Weighted>
0.0000

> <Gold.Chemscore.DEClash.Weighted>
0.1046

> <Gold.Chemscore.DEInternal.Weighted>
1.2145

> <Gold.Chemscore.Rot.Weighted>
5.1780

> <Gold.Chemscore.Internal.Correction.Weighted>
   9.000000E+99

> <Gold.Protein.RotatedTorsions>
[ 6907 6896 6895 6894 ] final  -28.39 input  -60.11 | X-H torsion
[ 7974 7965 7964 7962 ] final  143.69 input  175.53 | X-H torsion
[ 8008 7997 7996 7995 ] final  -68.08 input   59.86 | X-H torsion
[ 10167 10162 10161 10158 ] final   90.99 input  -65.29 | X-H torsion
[ 10718 10713 10712 10709 ] final -148.08 input   66.30 | X-H torsion
[ 10763 10752 10751 10750 ] final -178.95 input  -60.55 | X-H torsion
[ 11005 11000 10999 10996 ] final  -78.33 input  -57.11 | X-H torsion

> <Gold.Protein.ActiveResidues>
 VAL166  LYS551  ARG553  GLY616  TRP617  ASP618  TYR619  PRO620  LYS621  CYS622 
 ASP623  PHE694  ASN695  SER759  ASP760  ASP761  ALA762  ILE779  LEU786  VAL792 
 PHE793  MET794  SER795  GLU796  ALA797  LYS798  CYS799  TRP800  GLU811  SER814 

> <Gold.Protein.RotatedAtoms>
  151.1336  135.0143  159.8593 H   0  0  0  0  0  0  0  0  0  0  0  0  # atno 6907 bound_to 6896
  152.5451  134.1581  159.8556 H   0  0  0  0  0  0  0  0  0  0  0  0  # atno 6908 bound_to 6896
  151.1650  133.4775  159.2627 H   0  0  0  0  0  0  0  0  0  0  0  0  # atno 6909 bound_to 6896
  144.8899  139.5573  143.5803 H   0  0  0  0  0  0  0  0  0  0  0  0  # atno 7974 bound_to 7965
  154.4843  140.0880  156.7450 H   0  0  0  0  0  0  0  0  0  0  0  0  # atno 8008 bound_to 7997
  155.4390  140.3453  155.4269 H   0  0  0  0  0  0  0  0  0  0  0  0  # atno 8009 bound_to 7997
  156.1238  140.1481  156.9154 H   0  0  0  0  0  0  0  0  0  0  0  0  # atno 8010 bound_to 7997
  139.8419  144.6637  150.9273 H   0  0  0  0  0  0  0  0  0  0  0  0  # atno 10167 bound_to 10162
  156.4157  130.8004  151.2224 H   0  0  0  0  0  0  0  0  0  0  0  0  # atno 10718 bound_to 10713
  154.5413  135.2806  155.1093 H   0  0  0  0  0  0  0  0  0  0  0  0  # atno 10763 bound_to 10752
  154.2574  135.6328  153.5266 H   0  0  0  0  0  0  0  0  0  0  0  0  # atno 10764 bound_to 10752
  152.9979  135.5597  154.5953 H   0  0  0  0  0  0  0  0  0  0  0  0  # atno 10765 bound_to 10752
  141.1664  133.7058  156.7955 H   0  0  0  0  0  0  0  0  0  0  0  0  # atno 11005 bound_to 11000
  146.3047  139.7542  142.9065 LP  0  0  0  0  0  0  0  0  0  0  0  0  # atno 17320 bound_to 7965
  145.3801  141.0357  143.3182 LP  0  0  0  0  0  0  0  0  0  0  0  0  # atno 17321 bound_to 7965
  140.7797  143.3905  151.1318 LP  0  0  0  0  0  0  0  0  0  0  0  0  # atno 17342 bound_to 10162
  139.7551  143.8720  152.3086 LP  0  0  0  0  0  0  0  0  0  0  0  0  # atno 17343 bound_to 10162
  157.7508  131.0243  150.3873 LP  0  0  0  0  0  0  0  0  0  0  0  0  # atno 17370 bound_to 10713
  156.4180  130.3947  149.6845 LP  0  0  0  0  0  0  0  0  0  0  0  0  # atno 17371 bound_to 10713
  140.2294  134.8697  157.3461 LP  0  0  0  0  0  0  0  0  0  0  0  0  # atno 17394 bound_to 11000
  140.1906  134.4376  155.7718 LP  0  0  0  0  0  0  0  0  0  0  0  0  # atno 17395 bound_to 11000

$$$$
