AV-unprocessed.smi:2294|AV-procd|sdf|9217|dock2
  -GOLD-   2272012433D 1   1.00000     0.00000
 Structure written by MMmdl.
 34 35  0  0  0  0  0  0  0  0  1 V2000
  152.3313  144.1867  160.4540 C   0  0  0  0  0  0  0  0  0  0  0  0
  151.8048  143.0873  159.5487 C   0  0  0  0  0  0  0  0  0  0  0  0
  150.7233  143.4402  158.7363 N   0  0  0  0  0  0  0  0  0  0  0  0
  150.2047  142.5658  157.9375 C   0  0  0  0  0  0  0  0  0  0  0  0
  150.7030  141.2554  157.8545 N   0  0  0  0  0  0  0  0  0  0  0  0
  150.0163  140.3542  156.9134 C   0  0  0  0  0  0  0  0  0  0  0  0
  150.2709  140.7436  155.4402 C   0  0  1  0  0  0  0  0  0  0  0  0
  151.5177  140.2074  155.0407 O   0  0  0  0  0  0  0  0  0  0  0  0
  149.1390  140.2549  154.5450 C   0  0  0  0  0  0  0  0  0  0  0  0
  148.2651  141.1779  153.9267 C   0  0  0  0  0  0  0  0  0  0  0  0
  147.2230  140.7255  153.0947 C   0  0  0  0  0  0  0  0  0  0  0  0
  147.0493  139.3469  152.8701 C   0  0  0  0  0  0  0  0  0  0  0  0
  147.9210  138.4219  153.4753 C   0  0  0  0  0  0  0  0  0  0  0  0
  148.9641  138.8721  154.3081 C   0  0  0  0  0  0  0  0  0  0  0  0
  149.7967  137.9666  154.8758 F   0  0  0  0  0  0  0  0  0  0  0  0
  151.7551  140.8283  158.6114 C   0  0  0  0  0  0  0  0  0  0  0  0
  152.1802  139.6739  158.5351 O   0  0  0  0  0  0  0  0  0  0  0  0
  152.3331  141.8334  159.5179 C   0  0  0  0  0  0  0  0  0  0  0  0
  153.5072  141.3905  160.3823 C   0  0  0  0  0  0  0  0  0  0  0  0
  153.3817  144.3876  160.2413 H   0  0  0  0  0  0  0  0  0  0  0  0
  152.2356  143.8966  161.5007 H   0  0  0  0  0  0  0  0  0  0  0  0
  151.7785  145.1165  160.3132 H   0  0  0  0  0  0  0  0  0  0  0  0
  149.3550  142.7876  157.2895 H   0  0  0  0  0  0  0  0  0  0  0  0
  150.2662  139.3046  157.0819 H   0  0  0  0  0  0  0  0  0  0  0  0
  148.9452  140.4099  157.1186 H   0  0  0  0  0  0  0  0  0  0  0  0
  150.3441  141.8271  155.3439 H   0  0  0  0  0  0  0  0  0  0  0  0
  151.4379  139.2667  154.9965 H   0  0  0  0  0  0  0  0  0  0  0  0
  148.3914  142.2387  154.0863 H   0  0  0  0  0  0  0  0  0  0  0  0
  146.5575  141.4367  152.6277 H   0  0  0  0  0  0  0  0  0  0  0  0
  146.2503  138.9993  152.2318 H   0  0  0  0  0  0  0  0  0  0  0  0
  147.7906  137.3642  153.2993 H   0  0  0  0  0  0  0  0  0  0  0  0
  153.2111  140.5548  161.0174 H   0  0  0  0  0  0  0  0  0  0  0  0
  153.8832  142.1784  161.0331 H   0  0  0  0  0  0  0  0  0  0  0  0
  154.3347  141.0615  159.7528 H   0  0  0  0  0  0  0  0  0  0  0  0
  1  2  1  0  0  0  0
  1 20  1  0  0  0  0
  1 21  1  0  0  0  0
  1 22  1  0  0  0  0
  2 18  2  0  0  0  0
  2  3  1  0  0  0  0
  3  4  2  0  0  0  0
  4  5  1  0  0  0  0
  4 23  1  0  0  0  0
  5  6  1  0  0  0  0
  5 16  1  0  0  0  0
  6  7  1  0  0  0  0
  6 24  1  0  0  0  0
  6 25  1  0  0  0  0
  7  8  1  0  0  0  0
  7  9  1  0  0  0  0
  7 26  1  0  0  0  0
  8 27  1  0  0  0  0
  9 14  1  0  0  0  0
  9 10  2  0  0  0  0
 10 11  1  0  0  0  0
 10 28  1  0  0  0  0
 11 12  2  0  0  0  0
 11 29  1  0  0  0  0
 12 13  1  0  0  0  0
 12 30  1  0  0  0  0
 13 14  2  0  0  0  0
 13 31  1  0  0  0  0
 14 15  1  0  0  0  0
 16 17  2  0  0  0  0
 16 18  1  0  0  0  0
 18 19  1  0  0  0  0
 19 32  1  0  0  0  0
 19 33  1  0  0  0  0
 19 34  1  0  0  0  0
M  END
> <s_m_source_file>
AV-unprocessed.smi

> <i_m_source_file_index>
2294

> <i_lp_mmshare_version>
43012

> <i_f3d_flags>
0

> <s_epik_input>
W0NIM11jMW5bY0hdbihjKD1PKWMxW0NIM10pW0NIMl1bQ0BIXShbT0hdKWMyW2NIXVtjSF1bY0hdW2NIXWMyRg==

> <s_epik_cmdline>
J2VwaWtfcHl0aG9uJywgJy1waCcsICc3LjAnLCAnLXRuJywgJzgnLCAnLW1hJywgJzIwMCcsICctbWV0YWxfYmluZGluZycsICctaW1hZScsICc8aW5maWxlLm1hZT4nLCAnLW9tYWUnLCAnPG91dGZpbGUubWFlPic=

> <r_lp_tautomer_probability>
1

> <r_epik_Ionization_Penalty>
5.07259e-05

> <r_epik_Ionization_Penalty_Charging>
7.56727e-08

> <r_epik_Ionization_Penalty_Neutral>
5.06502e-05

> <r_epik_State_Penalty>
-0

> <r_epik_Charging_Adjusted_Penalty>
7.56727e-08

> <i_epik_Tot_Q>
0

> <i_epik_Tot_abs_Q>
0

> <r_epik_Metal_State_Penalty>
-0

> <b_epik_Metal_Only>
0

> <s_lp_Force_Field>
OPLS_2005

> <r_lp_Energy>
19.7062

> <b_lp_Chiralities_Consistent>
1

> <s_lp_Variant>
AV-unprocessed.smi:2294-2

> <Gold.Version>
5.8.1

> <Gold.Id.Protein>
6NUR|6NUR_protein|mol2

> <Gold.PLP.Fitness>
42.1528

> <Gold.PLP.PLP>
-37.0640

> <Gold.PLP.part.hbond>
-1.0000

> <Gold.PLP.part.metal>
0.0000

> <Gold.PLP.part.buried>
-4.6010

> <Gold.PLP.part.nonpolar>
-32.2856

> <Gold.PLP.part.repulsive>
0.1076

> <Gold.PLP.ligand.clash>
0.0000

> <Gold.PLP.ligand.torsion>
0.4630

> <Gold.PLP.Chemscore.Hbond>
1.0000

> <Gold.PLP.Chemscore.CHOScore>
1.0000

> <Gold.PLP.Chemscore.Metal>
0.0000

> <Gold.Chemscore.Hbonds>
donor molecule, donor type, donor heavy atom, donor atom, acceptor molecule, acceptor atom, score
      P1  H  7989  7998       L1     8  1.00
      L1  C     4    23       P1  8028  0.91

> <Gold.PLP.Chemscore.Internal.Correction>
0.0149

> <Gold.Rescore>
     Score         DG    S(hbond)    S(metal)    S(lipo)     H(rot)  DE(clash)    DE(int)     intcor
     12.03     -13.70       0.87        0.00      89.64       2.02       0.02       1.65       ----

> <Gold.Chemscore.Fitness>
12.0308

> <Gold.Chemscore.DG>
-13.6970

> <Gold.Chemscore.ZeroCoef>
-5.4800

> <Gold.Chemscore.Hbond>
0.8668

> <Gold.Chemscore.Metal>
0.0000

> <Gold.Chemscore.Lipo>
89.6415

> <Gold.Chemscore.Internal_Hbond>
0.0000

> <Gold.Chemscore.DEClash>
0.0162

> <Gold.Chemscore.DEInternal>
1.6499

> <Gold.Chemscore.Rot>
2.0181

> <Gold.Chemscore.Internal.Correction>
   9.000000E+99

> <Gold.Chemscore.Hbonds>
donor molecule, donor type, donor heavy atom, donor atom, acceptor molecule, acceptor atom, score
      P1  H  7989  7998       L1     8  0.19

> <Gold.Chemscore.Hbond.Weighted>
-2.8953

> <Gold.Chemscore.Metal.Weighted>
-0.0000

> <Gold.Chemscore.Lipo.Weighted>
-10.4881

> <Gold.Chemscore.Internal_Hbond.Weighted>
0.0000

> <Gold.Chemscore.DEClash.Weighted>
0.0162

> <Gold.Chemscore.DEInternal.Weighted>
1.6499

> <Gold.Chemscore.Rot.Weighted>
5.1663

> <Gold.Chemscore.Internal.Correction.Weighted>
   9.000000E+99

> <Gold.Protein.RotatedTorsions>
[ 6907 6896 6895 6894 ] final  129.21 input  -60.11 | X-H torsion
[ 7974 7965 7964 7962 ] final  -37.09 input  175.53 | X-H torsion
[ 8008 7997 7996 7995 ] final  -85.41 input   59.86 | X-H torsion
[ 10167 10162 10161 10158 ] final  108.00 input  -65.29 | X-H torsion
[ 10718 10713 10712 10709 ] final   36.50 input   66.30 | X-H torsion
[ 10763 10752 10751 10750 ] final   57.30 input  -60.55 | X-H torsion
[ 11005 11000 10999 10996 ] final  111.40 input  -57.11 | X-H torsion

> <Gold.Protein.ActiveResidues>
 VAL166  LYS551  ARG553  GLY616  TRP617  ASP618  TYR619  PRO620  LYS621  CYS622 
 ASP623  PHE694  ASN695  SER759  ASP760  ASP761  ALA762  ILE779  LEU786  VAL792 
 PHE793  MET794  SER795  GLU796  ALA797  LYS798  CYS799  TRP800  GLU811  SER814 

> <Gold.Protein.RotatedAtoms>
  152.3646  133.6340  159.6040 H   0  0  0  0  0  0  0  0  0  0  0  0  # atno 6907 bound_to 6896
  150.7625  133.9369  159.3453 H   0  0  0  0  0  0  0  0  0  0  0  0  # atno 6908 bound_to 6896
  151.7202  135.0897  160.0334 H   0  0  0  0  0  0  0  0  0  0  0  0  # atno 6909 bound_to 6896
  146.0605  140.6355  142.8999 H   0  0  0  0  0  0  0  0  0  0  0  0  # atno 7974 bound_to 7965
  154.6404  140.0592  156.9839 H   0  0  0  0  0  0  0  0  0  0  0  0  # atno 8008 bound_to 7997
  155.1525  140.3275  155.4409 H   0  0  0  0  0  0  0  0  0  0  0  0  # atno 8009 bound_to 7997
  156.2528  140.1945  156.6636 H   0  0  0  0  0  0  0  0  0  0  0  0  # atno 8010 bound_to 7997
  139.6882  144.7111  151.1396 H   0  0  0  0  0  0  0  0  0  0  0  0  # atno 10167 bound_to 10162
  157.3356  130.7520  149.6876 H   0  0  0  0  0  0  0  0  0  0  0  0  # atno 10718 bound_to 10713
  152.9847  135.5646  154.5368 H   0  0  0  0  0  0  0  0  0  0  0  0  # atno 10763 bound_to 10752
  154.4830  135.2789  155.1558 H   0  0  0  0  0  0  0  0  0  0  0  0  # atno 10764 bound_to 10752
  154.3059  135.6298  153.5497 H   0  0  0  0  0  0  0  0  0  0  0  0  # atno 10765 bound_to 10752
  139.8903  134.9507  156.6426 H   0  0  0  0  0  0  0  0  0  0  0  0  # atno 11005 bound_to 11000
  144.7172  140.4251  143.7035 LP  0  0  0  0  0  0  0  0  0  0  0  0  # atno 17320 bound_to 7965
  145.6568  139.1574  143.2831 LP  0  0  0  0  0  0  0  0  0  0  0  0  # atno 17321 bound_to 7965
  140.7674  143.5599  150.9111 LP  0  0  0  0  0  0  0  0  0  0  0  0  # atno 17342 bound_to 10162
  139.9275  143.6533  152.3084 LP  0  0  0  0  0  0  0  0  0  0  0  0  # atno 17343 bound_to 10162
  155.9701  130.4182  150.4318 LP  0  0  0  0  0  0  0  0  0  0  0  0  # atno 17370 bound_to 10713
  157.2358  131.0514  151.2466 LP  0  0  0  0  0  0  0  0  0  0  0  0  # atno 17371 bound_to 10713
  140.7582  133.8840  155.8398 LP  0  0  0  0  0  0  0  0  0  0  0  0  # atno 17394 bound_to 11000
  140.9944  134.1235  157.4377 LP  0  0  0  0  0  0  0  0  0  0  0  0  # atno 17395 bound_to 11000

$$$$
