AV-unprocessed.smi:2693|AV-procd|sdf|10402|dock5
  -GOLD-   2272014433D 1   1.00000     0.00000
 Structure written by MMmdl.
 45 47  0  0  0  0  0  0  0  0  1 V2000
  143.5385  132.4021  149.8820 C   0  0  0  0  0  0  0  0  0  0  0  0
  144.6491  132.7446  150.7660 N   0  0  0  0  0  0  0  0  0  0  0  0
  145.5872  131.6821  151.1163 C   0  0  0  0  0  0  0  0  0  0  0  0
  144.8125  134.0447  151.2530 C   0  0  0  0  0  0  0  0  0  0  0  0
  143.7827  134.8899  151.1131 N   0  0  0  0  0  0  0  0  0  0  0  0
  143.9327  136.1483  151.5783 C   0  0  0  0  0  0  0  0  0  0  0  0
  145.1319  136.5727  152.1989 C   0  0  0  0  0  0  0  0  0  0  0  0
  145.3822  137.8823  152.6895 N   0  0  0  0  0  0  0  0  0  0  0  0
  146.3760  138.2967  153.4933 C   0  0  0  0  0  0  0  0  0  0  0  0
  147.3130  137.6014  153.8843 O   0  0  0  0  0  0  0  0  0  0  0  0
  146.2304  139.5881  153.8180 N   0  0  0  0  0  0  0  0  0  0  0  0
  147.1401  140.3237  154.6904 C   0  0  1  0  0  0  0  0  0  0  0  0
  148.5181  140.5507  154.0494 C   0  0  2  0  0  0  0  0  0  0  0  0
  149.7377  139.9011  154.6449 C   0  0  0  0  0  0  0  0  0  0  0  0
  150.2992  140.9978  155.5544 C   0  0  0  0  0  0  0  0  0  0  0  0
  149.1901  141.8564  155.8113 O   0  0  0  0  0  0  0  0  0  0  0  0
  148.4441  141.9664  154.6013 C   0  0  2  0  0  0  0  0  0  0  0  0
  146.9095  141.8566  154.7210 C   0  0  0  0  0  0  0  0  0  0  0  0
  146.1412  142.4834  153.5482 C   0  0  0  0  0  0  0  0  0  0  0  0
  146.2942  142.4211  156.0024 C   0  0  0  0  0  0  0  0  0  0  0  0
  146.1519  135.6045  152.2852 C   0  0  0  0  0  0  0  0  0  0  0  0
  145.9886  134.3491  151.8176 N   0  0  0  0  0  0  0  0  0  0  0  0
  143.5510  133.0314  148.9915 H   0  0  0  0  0  0  0  0  0  0  0  0
  142.5874  132.5496  150.3943 H   0  0  0  0  0  0  0  0  0  0  0  0
  143.5837  131.3638  149.5534 H   0  0  0  0  0  0  0  0  0  0  0  0
  146.5849  131.9198  150.7468 H   0  0  0  0  0  0  0  0  0  0  0  0
  145.2937  130.7222  150.6914 H   0  0  0  0  0  0  0  0  0  0  0  0
  145.6413  131.5621  152.1987 H   0  0  0  0  0  0  0  0  0  0  0  0
  143.0895  136.8028  151.4226 H   0  0  0  0  0  0  0  0  0  0  0  0
  144.7316  138.5911  152.3837 H   0  0  0  0  0  0  0  0  0  0  0  0
  145.4371  140.0919  153.4497 H   0  0  0  0  0  0  0  0  0  0  0  0
  147.2265  139.8987  155.6931 H   0  0  0  0  0  0  0  0  0  0  0  0
  148.4833  140.5442  152.9585 H   0  0  0  0  0  0  0  0  0  0  0  0
  149.4650  139.0179  155.2237 H   0  0  0  0  0  0  0  0  0  0  0  0
  150.4626  139.5968  153.8893 H   0  0  0  0  0  0  0  0  0  0  0  0
  150.7237  140.6034  156.4777 H   0  0  0  0  0  0  0  0  0  0  0  0
  151.0741  141.5651  155.0367 H   0  0  0  0  0  0  0  0  0  0  0  0
  148.8226  142.7315  153.9217 H   0  0  0  0  0  0  0  0  0  0  0  0
  146.2350  143.5697  153.5472 H   0  0  0  0  0  0  0  0  0  0  0  0
  145.0771  142.2487  153.5908 H   0  0  0  0  0  0  0  0  0  0  0  0
  146.5128  142.1311  152.5857 H   0  0  0  0  0  0  0  0  0  0  0  0
  146.4065  143.5043  156.0573 H   0  0  0  0  0  0  0  0  0  0  0  0
  146.7643  142.0026  156.8926 H   0  0  0  0  0  0  0  0  0  0  0  0
  145.2296  142.1942  156.0676 H   0  0  0  0  0  0  0  0  0  0  0  0
  147.1081  135.8361  152.7313 H   0  0  0  0  0  0  0  0  0  0  0  0
  1  2  1  0  0  0  0
  1 23  1  0  0  0  0
  1 24  1  0  0  0  0
  1 25  1  0  0  0  0
  2  3  1  0  0  0  0
  2  4  1  0  0  0  0
  3 26  1  0  0  0  0
  3 27  1  0  0  0  0
  3 28  1  0  0  0  0
  4 22  1  0  0  0  0
  4  5  2  0  0  0  0
  5  6  1  0  0  0  0
  6  7  2  0  0  0  0
  6 29  1  0  0  0  0
  7  8  1  0  0  0  0
  7 21  1  0  0  0  0
  8  9  1  0  0  0  0
  8 30  1  0  0  0  0
  9 10  2  0  0  0  0
  9 11  1  0  0  0  0
 11 12  1  0  0  0  0
 11 31  1  0  0  0  0
 12 18  1  0  0  0  0
 12 13  1  0  0  0  0
 12 32  1  0  0  0  0
 13 17  1  0  0  0  0
 13 14  1  0  0  0  0
 13 33  1  0  0  0  0
 14 15  1  0  0  0  0
 14 34  1  0  0  0  0
 14 35  1  0  0  0  0
 15 16  1  0  0  0  0
 15 36  1  0  0  0  0
 15 37  1  0  0  0  0
 16 17  1  0  0  0  0
 17 18  1  0  0  0  0
 17 38  1  0  0  0  0
 18 19  1  0  0  0  0
 18 20  1  0  0  0  0
 19 39  1  0  0  0  0
 19 40  1  0  0  0  0
 19 41  1  0  0  0  0
 20 42  1  0  0  0  0
 20 43  1  0  0  0  0
 20 44  1  0  0  0  0
 21 22  2  0  0  0  0
 21 45  1  0  0  0  0
M  END
> <s_m_source_file>
AV-unprocessed.smi

> <i_m_source_file_index>
2693

> <i_lp_mmshare_version>
43012

> <i_f3d_flags>
0

> <s_epik_input>
W0NIM11OKFtDSDNdKWMxbltjSF1jKFtjSF1uMSlbTkhdQyg9TylbTkhdW0NASF0yQyhbQ0gzXSkoW0NIM10pW0NAQEhdKFtDQEhdMjMpT1tDSDJdW0NIMl0z

> <s_epik_cmdline>
J2VwaWtfcHl0aG9uJywgJy1waCcsICc3LjAnLCAnLXRuJywgJzgnLCAnLW1hJywgJzIwMCcsICctbWV0YWxfYmluZGluZycsICctaW1hZScsICc8aW5maWxlLm1hZT4nLCAnLW9tYWUnLCAnPG91dGZpbGUubWFlPic=

> <r_lp_tautomer_probability>
1

> <r_epik_Ionization_Penalty>
0.00031779

> <r_epik_Ionization_Penalty_Charging>
0

> <r_epik_Ionization_Penalty_Neutral>
0.00031779

> <r_epik_State_Penalty>
-0

> <r_epik_Charging_Adjusted_Penalty>
0

> <i_epik_Tot_Q>
0

> <i_epik_Tot_abs_Q>
0

> <r_epik_Metal_State_Penalty>
-0

> <b_epik_Metal_Only>
0

> <s_lp_Force_Field>
OPLS_2005

> <r_lp_Energy>
29.1856

> <b_lp_Chiralities_Consistent>
1

> <s_lp_Variant>
AV-unprocessed.smi:2693-6

> <Gold.Version>
5.8.1

> <Gold.Id.Protein>
6NUR|6NUR_protein|mol2

> <Gold.PLP.Fitness>
40.1689

> <Gold.PLP.PLP>
-30.6872

> <Gold.PLP.part.hbond>
-1.8524

> <Gold.PLP.part.metal>
0.0000

> <Gold.PLP.part.buried>
-0.6796

> <Gold.PLP.part.nonpolar>
-30.8003

> <Gold.PLP.part.repulsive>
2.9730

> <Gold.PLP.ligand.clash>
0.0000

> <Gold.PLP.ligand.torsion>
0.2146

> <Gold.PLP.Chemscore.Hbond>
1.7063

> <Gold.PLP.Chemscore.CHOScore>
1.5386

> <Gold.PLP.Chemscore.Metal>
0.0000

> <Gold.Chemscore.Hbonds>
donor molecule, donor type, donor heavy atom, donor atom, acceptor molecule, acceptor atom, score
      L1  H     8    30       P1 10175  0.73
      L1  H    11    31       P1 10175  0.96
      L1  C     6    29       P1 10171  0.54
      L1  C    21    45       P1  7948  1.00

> <Gold.PLP.Chemscore.Internal.Correction>
0.1762

> <Gold.Rescore>
     Score         DG    S(hbond)    S(metal)    S(lipo)     H(rot)  DE(clash)    DE(int)     intcor
     15.21     -17.69       1.67        0.00      78.39       1.00       0.97       1.51       ----

> <Gold.Chemscore.Fitness>
15.2058

> <Gold.Chemscore.DG>
-17.6861

> <Gold.Chemscore.ZeroCoef>
-5.4800

> <Gold.Chemscore.Hbond>
1.6748

> <Gold.Chemscore.Metal>
0.0000

> <Gold.Chemscore.Lipo>
78.3937

> <Gold.Chemscore.Internal_Hbond>
0.0000

> <Gold.Chemscore.DEClash>
0.9682

> <Gold.Chemscore.DEInternal>
1.5120

> <Gold.Chemscore.Rot>
1.0000

> <Gold.Chemscore.Internal.Correction>
   9.000000E+99

> <Gold.Chemscore.Hbonds>
donor molecule, donor type, donor heavy atom, donor atom, acceptor molecule, acceptor atom, score
      L1  H     8    30       P1 10175  0.72
      L1  H    11    31       P1 10175  0.91

> <Gold.Chemscore.Hbond.Weighted>
-5.5940

> <Gold.Chemscore.Metal.Weighted>
-0.0000

> <Gold.Chemscore.Lipo.Weighted>
-9.1721

> <Gold.Chemscore.Internal_Hbond.Weighted>
0.0000

> <Gold.Chemscore.DEClash.Weighted>
0.9682

> <Gold.Chemscore.DEInternal.Weighted>
1.5120

> <Gold.Chemscore.Rot.Weighted>
2.5600

> <Gold.Chemscore.Internal.Correction.Weighted>
   9.000000E+99

> <Gold.Protein.RotatedTorsions>
[ 6907 6896 6895 6894 ] final   32.87 input  -60.11 | X-H torsion
[ 7974 7965 7964 7962 ] final   51.63 input  175.53 | X-H torsion
[ 8008 7997 7996 7995 ] final  -72.63 input   59.86 | X-H torsion
[ 10167 10162 10161 10158 ] final  -98.57 input  -65.29 | X-H torsion
[ 10718 10713 10712 10709 ] final -132.97 input   66.30 | X-H torsion
[ 10763 10752 10751 10750 ] final  154.50 input  -60.55 | X-H torsion
[ 11005 11000 10999 10996 ] final   14.76 input  -57.11 | X-H torsion

> <Gold.Protein.ActiveResidues>
 VAL166  LYS551  ARG553  GLY616  TRP617  ASP618  TYR619  PRO620  LYS621  CYS622 
 ASP623  PHE694  ASN695  SER759  ASP760  ASP761  ALA762  ILE779  LEU786  VAL792 
 PHE793  MET794  SER795  GLU796  ALA797  LYS798  CYS799  TRP800  GLU811  SER814 

> <Gold.Protein.RotatedAtoms>
  152.0805  134.9474  160.0573 H   0  0  0  0  0  0  0  0  0  0  0  0  # atno 6907 bound_to 6896
  152.0764  133.4127  159.4490 H   0  0  0  0  0  0  0  0  0  0  0  0  # atno 6908 bound_to 6896
  150.6836  134.2952  159.4727 H   0  0  0  0  0  0  0  0  0  0  0  0  # atno 6909 bound_to 6896
  145.9894  139.4323  143.0083 H   0  0  0  0  0  0  0  0  0  0  0  0  # atno 7974 bound_to 7965
  154.5182  140.0794  156.8121 H   0  0  0  0  0  0  0  0  0  0  0  0  # atno 8008 bound_to 7997
  155.3635  140.3419  155.4223 H   0  0  0  0  0  0  0  0  0  0  0  0  # atno 8009 bound_to 7997
  156.1651  140.1601  156.8532 H   0  0  0  0  0  0  0  0  0  0  0  0  # atno 8010 bound_to 7997
  140.2716  143.3340  152.0529 H   0  0  0  0  0  0  0  0  0  0  0  0  # atno 10167 bound_to 10162
  156.2401  130.7090  151.0948 H   0  0  0  0  0  0  0  0  0  0  0  0  # atno 10718 bound_to 10713
  154.1533  135.2814  155.3129 H   0  0  0  0  0  0  0  0  0  0  0  0  # atno 10763 bound_to 10752
  154.6201  135.5470  153.7569 H   0  0  0  0  0  0  0  0  0  0  0  0  # atno 10764 bound_to 10752
  153.0214  135.6437  154.1677 H   0  0  0  0  0  0  0  0  0  0  0  0  # atno 10765 bound_to 10752
  140.4659  134.1080  155.7724 H   0  0  0  0  0  0  0  0  0  0  0  0  # atno 11005 bound_to 11000
  145.7652  140.9919  143.1179 LP  0  0  0  0  0  0  0  0  0  0  0  0  # atno 17320 bound_to 7965
  144.6884  139.9379  143.7474 LP  0  0  0  0  0  0  0  0  0  0  0  0  # atno 17321 bound_to 7965
  139.4987  144.6652  151.6372 LP  0  0  0  0  0  0  0  0  0  0  0  0  # atno 17342 bound_to 10162
  140.5885  143.9821  150.6310 LP  0  0  0  0  0  0  0  0  0  0  0  0  # atno 17343 bound_to 10162
  157.7171  131.0703  150.6283 LP  0  0  0  0  0  0  0  0  0  0  0  0  # atno 17370 bound_to 10713
  156.6356  130.4444  149.5771 LP  0  0  0  0  0  0  0  0  0  0  0  0  # atno 17371 bound_to 10713
  141.1599  133.8812  157.1875 LP  0  0  0  0  0  0  0  0  0  0  0  0  # atno 17394 bound_to 11000
  139.9915  135.0062  156.9986 LP  0  0  0  0  0  0  0  0  0  0  0  0  # atno 17395 bound_to 11000

$$$$
