AV-unprocessed.smi:3234|AV-procd|sdf|12354|dock3
  -GOLD-   2272018213D 1   1.00000     0.00000
 Structure written by MMmdl.
 38 40  0  0  0  0  0  0  0  0  3 V2000
  146.7878  132.0973  153.9331 O   0  0  0  0  0  0  0  0  0  0  0  0
  147.4157  131.7000  152.9521 C   0  0  0  0  0  0  0  0  0  0  0  0
  146.9982  131.7821  151.6766 N   0  0  0  0  0  0  0  0  0  0  0  0
  145.7713  132.3019  151.1794 C   0  0  0  0  0  0  0  0  0  0  0  0
  145.4754  132.0883  149.8146 C   0  0  0  0  0  0  0  0  0  0  0  0
  144.2636  132.5723  149.2810 C   0  0  0  0  0  0  0  0  0  0  0  0
  143.3912  133.2254  150.0781 N   0  3  0  0  0  0  0  0  0  0  0  0
  143.6226  133.4410  151.3910 C   0  0  0  0  0  0  0  0  0  0  0  0
  144.8178  132.9809  151.9806 C   0  0  0  0  0  0  0  0  0  0  0  0
  148.6321  131.1416  153.0346 N   0  0  0  0  0  0  0  0  0  0  0  0
  149.3618  130.9271  154.2805 C   0  0  2  0  0  0  0  0  0  0  0  0
  150.3500  132.0418  154.6355 C   0  0  0  0  0  0  0  0  0  0  0  0
  151.4616  131.3344  155.4301 C   0  0  0  0  0  0  0  0  0  0  0  0
  151.2030  129.8790  155.3284 N   0  3  2  0  0  0  0  0  0  0  0  0
  152.4220  129.0480  155.2342 C   0  0  0  0  0  0  0  0  0  0  0  0
  153.6475  129.7050  155.8233 C   0  0  0  0  0  0  0  0  0  0  0  0
  153.4777  129.6249  154.3216 C   0  0  0  0  0  0  0  0  0  0  0  0
  150.2600  129.6959  154.2108 C   0  0  0  0  0  0  0  0  0  0  0  0
  147.6614  131.4915  150.9730 H   0  0  0  0  0  0  0  0  0  0  0  0
  146.1715  131.5635  149.1760 H   0  0  0  0  0  0  0  0  0  0  0  0
  143.9674  132.4558  148.2487 H   0  0  0  0  0  0  0  0  0  0  0  0
  142.8474  133.9667  151.9291 H   0  0  0  0  0  0  0  0  0  0  0  0
  144.9724  133.1473  153.0357 H   0  0  0  0  0  0  0  0  0  0  0  0
  149.0830  130.8458  152.1809 H   0  0  0  0  0  0  0  0  0  0  0  0
  148.6554  130.7954  155.1030 H   0  0  0  0  0  0  0  0  0  0  0  0
  150.7728  132.4800  153.7301 H   0  0  0  0  0  0  0  0  0  0  0  0
  149.8785  132.8450  155.2026 H   0  0  0  0  0  0  0  0  0  0  0  0
  152.4389  131.5933  155.0197 H   0  0  0  0  0  0  0  0  0  0  0  0
  151.4551  131.6294  156.4797 H   0  0  0  0  0  0  0  0  0  0  0  0
  152.2832  127.9706  155.3063 H   0  0  0  0  0  0  0  0  0  0  0  0
  153.5355  130.6820  156.2901 H   0  0  0  0  0  0  0  0  0  0  0  0
  154.3965  129.0575  156.2749 H   0  0  0  0  0  0  0  0  0  0  0  0
  154.1154  128.9251  153.7852 H   0  0  0  0  0  0  0  0  0  0  0  0
  153.2525  130.5487  153.7912 H   0  0  0  0  0  0  0  0  0  0  0  0
  149.7026  128.7633  154.3056 H   0  0  0  0  0  0  0  0  0  0  0  0
  150.8080  129.6731  153.2666 H   0  0  0  0  0  0  0  0  0  0  0  0
  150.7095  129.6137  156.1688 H   0  0  0  0  0  0  0  0  0  0  0  0
  142.5187  133.5661  149.6730 H   0  0  0  0  0  0  0  0  0  0  0  0
  1  2  2  0  0  0  0
  2  3  1  0  0  0  0
  2 10  1  0  0  0  0
  3  4  1  0  0  0  0
  3 19  1  0  0  0  0
  4  9  1  0  0  0  0
  4  5  2  0  0  0  0
  5  6  1  0  0  0  0
  5 20  1  0  0  0  0
  6  7  2  0  0  0  0
  6 21  1  0  0  0  0
  7  8  1  0  0  0  0
  7 38  1  0  0  0  0
  8  9  2  0  0  0  0
  8 22  1  0  0  0  0
  9 23  1  0  0  0  0
 10 11  1  0  0  0  0
 10 24  1  0  0  0  0
 11 18  1  0  0  0  0
 11 12  1  0  0  0  0
 11 25  1  0  0  0  0
 12 13  1  0  0  0  0
 12 26  1  0  0  0  0
 12 27  1  0  0  0  0
 13 14  1  0  0  0  0
 13 28  1  0  0  0  0
 13 29  1  0  0  0  0
 14 15  1  0  0  0  0
 14 18  1  0  0  0  0
 14 37  1  0  0  0  0
 15 17  1  0  0  0  0
 15 16  1  0  0  0  0
 15 30  1  0  0  0  0
 16 17  1  0  0  0  0
 16 31  1  0  0  0  0
 16 32  1  0  0  0  0
 17 33  1  0  0  0  0
 17 34  1  0  0  0  0
 18 35  1  0  0  0  0
 18 36  1  0  0  0  0
M  CHG  1   7   1
M  CHG  1  14   1
M  END
> <s_m_source_file>
AV-unprocessed.smi

> <i_m_source_file_index>
3234

> <i_lp_mmshare_version>
43012

> <i_f3d_flags>
0

> <s_epik_input>
W2NIXTFbY0hdbltjSF1bY0hdYzFbTkhdQyg9TylbTkhdW0NAQEhdMltDSDJdW0NIMl1OKFtDSDJdMilbQ0hdM1tDSDJdW0NIMl0z

> <s_epik_cmdline>
J2VwaWtfcHl0aG9uJywgJy1waCcsICc3LjAnLCAnLXRuJywgJzgnLCAnLW1hJywgJzIwMCcsICctbWV0YWxfYmluZGluZycsICctaW1hZScsICc8aW5maWxlLm1hZT4nLCAnLW9tYWUnLCAnPG91dGZpbGUubWFlPic=

> <r_epik_Ionization_Penalty>
1.14489

> <r_epik_Ionization_Penalty_Charging>
1.14487

> <r_epik_Ionization_Penalty_Neutral>
1.95212e-05

> <r_epik_State_Penalty>
1.205

> <r_epik_Charging_Adjusted_Penalty>
2.34987

> <i_epik_Tot_Q>
2

> <i_epik_Tot_abs_Q>
2

> <r_epik_Metal_State_Penalty>
1.28709

> <b_epik_Metal_Only>
0

> <s_lp_Force_Field>
OPLS_2005

> <r_lp_Energy>
48.7284

> <b_lp_Chiralities_Consistent>
1

> <s_lp_Variant>
AV-unprocessed.smi:3234-7

> <Gold.Version>
5.8.1

> <Gold.Id.Protein>
6NUR|6NUR_protein|mol2

> <Gold.PLP.Fitness>
45.5401

> <Gold.PLP.PLP>
-34.4778

> <Gold.PLP.part.hbond>
-3.0000

> <Gold.PLP.part.metal>
0.0000

> <Gold.PLP.part.buried>
-5.2228

> <Gold.PLP.part.nonpolar>
-26.1271

> <Gold.PLP.part.repulsive>
0.2223

> <Gold.PLP.ligand.clash>
0.0000

> <Gold.PLP.ligand.torsion>
1.0165

> <Gold.PLP.Chemscore.Hbond>
3.9440

> <Gold.PLP.Chemscore.CHOScore>
0.0000

> <Gold.PLP.Chemscore.Metal>
0.0000

> <Gold.Chemscore.Hbonds>
donor molecule, donor type, donor heavy atom, donor atom, acceptor molecule, acceptor atom, score
      L1  H     3    19       P1 10747  1.00
      L1  H     7    38       P1 10186  2.00
      L1  H    10    24       P1 10747  0.93

> <Gold.PLP.Chemscore.Internal.Correction>
1.2632

> <Gold.Rescore>
     Score         DG    S(hbond)    S(metal)    S(lipo)     H(rot)  DE(clash)    DE(int)     intcor
     18.33     -20.59       2.57        0.00      82.56       1.22       0.01       2.25       ----

> <Gold.Chemscore.Fitness>
18.3290

> <Gold.Chemscore.DG>
-20.5864

> <Gold.Chemscore.ZeroCoef>
-5.4800

> <Gold.Chemscore.Hbond>
2.5695

> <Gold.Chemscore.Metal>
0.0000

> <Gold.Chemscore.Lipo>
82.5625

> <Gold.Chemscore.Internal_Hbond>
0.0000

> <Gold.Chemscore.DEClash>
0.0077

> <Gold.Chemscore.DEInternal>
2.2496

> <Gold.Chemscore.Rot>
1.2248

> <Gold.Chemscore.Internal.Correction>
   9.000000E+99

> <Gold.Chemscore.Hbonds>
donor molecule, donor type, donor heavy atom, donor atom, acceptor molecule, acceptor atom, score
      L1  H     3    19       P1 10747  0.99
      L1  H     7    38       P1 10186  0.99
      L1  H    10    24       P1 10747  0.27

> <Gold.Chemscore.Hbond.Weighted>
-8.5821

> <Gold.Chemscore.Metal.Weighted>
-0.0000

> <Gold.Chemscore.Lipo.Weighted>
-9.6598

> <Gold.Chemscore.Internal_Hbond.Weighted>
0.0000

> <Gold.Chemscore.DEClash.Weighted>
0.0077

> <Gold.Chemscore.DEInternal.Weighted>
2.2496

> <Gold.Chemscore.Rot.Weighted>
3.1355

> <Gold.Chemscore.Internal.Correction.Weighted>
   9.000000E+99

> <Gold.Protein.RotatedTorsions>
[ 6907 6896 6895 6894 ] final  -29.53 input  -60.11 | X-H torsion
[ 7974 7965 7964 7962 ] final -146.37 input  175.53 | X-H torsion
[ 8008 7997 7996 7995 ] final   -3.47 input   59.86 | X-H torsion
[ 10167 10162 10161 10158 ] final  168.54 input  -65.29 | X-H torsion
[ 10718 10713 10712 10709 ] final   -5.64 input   66.30 | X-H torsion
[ 10763 10752 10751 10750 ] final   30.25 input  -60.55 | X-H torsion
[ 11005 11000 10999 10996 ] final  -67.89 input  -57.11 | X-H torsion

> <Gold.Protein.ActiveResidues>
 VAL166  LYS551  ARG553  GLY616  TRP617  ASP618  TYR619  PRO620  LYS621  CYS622 
 ASP623  PHE694  ASN695  SER759  ASP760  ASP761  ALA762  ILE779  LEU786  VAL792 
 PHE793  MET794  SER795  GLU796  ALA797  LYS798  CYS799  TRP800  GLU811  SER814 

> <Gold.Protein.RotatedAtoms>
  151.1179  135.0063  159.8524 H   0  0  0  0  0  0  0  0  0  0  0  0  # atno 6907 bound_to 6896
  152.5446  134.1758  159.8625 H   0  0  0  0  0  0  0  0  0  0  0  0  # atno 6908 bound_to 6896
  151.1813  133.4678  159.2627 H   0  0  0  0  0  0  0  0  0  0  0  0  # atno 6909 bound_to 6896
  144.8164  140.5464  143.5608 H   0  0  0  0  0  0  0  0  0  0  0  0  # atno 7974 bound_to 7965
  154.6246  140.2508  155.7507 H   0  0  0  0  0  0  0  0  0  0  0  0  # atno 8008 bound_to 7997
  156.2446  140.2919  156.0489 H   0  0  0  0  0  0  0  0  0  0  0  0  # atno 8009 bound_to 7997
  155.1842  140.0390  157.2878 H   0  0  0  0  0  0  0  0  0  0  0  0  # atno 8010 bound_to 7997
  139.4970  144.3803  151.9629 H   0  0  0  0  0  0  0  0  0  0  0  0  # atno 10167 bound_to 10162
  156.7436  130.5217  149.5819 H   0  0  0  0  0  0  0  0  0  0  0  0  # atno 10718 bound_to 10713
  153.0382  135.6469  154.1016 H   0  0  0  0  0  0  0  0  0  0  0  0  # atno 10763 bound_to 10752
  154.0727  135.2879  155.3307 H   0  0  0  0  0  0  0  0  0  0  0  0  # atno 10764 bound_to 10752
  154.6583  135.5401  153.8051 H   0  0  0  0  0  0  0  0  0  0  0  0  # atno 10765 bound_to 10752
  141.1519  133.6728  156.6362 H   0  0  0  0  0  0  0  0  0  0  0  0  # atno 11005 bound_to 11000
  145.5205  139.1477  143.3554 LP  0  0  0  0  0  0  0  0  0  0  0  0  # atno 17320 bound_to 7965
  146.2467  140.5346  142.8911 LP  0  0  0  0  0  0  0  0  0  0  0  0  # atno 17321 bound_to 7965
  140.3239  144.3395  150.6003 LP  0  0  0  0  0  0  0  0  0  0  0  0  # atno 17342 bound_to 10162
  140.5700  143.2182  151.7616 LP  0  0  0  0  0  0  0  0  0  0  0  0  # atno 17343 bound_to 10162
  156.1448  130.6269  151.0516 LP  0  0  0  0  0  0  0  0  0  0  0  0  # atno 17370 bound_to 10713
  157.6808  131.0838  150.7375 LP  0  0  0  0  0  0  0  0  0  0  0  0  # atno 17371 bound_to 10713
  140.3429  134.7834  157.4411 LP  0  0  0  0  0  0  0  0  0  0  0  0  # atno 17394 bound_to 11000
  140.0923  134.5584  155.8432 LP  0  0  0  0  0  0  0  0  0  0  0  0  # atno 17395 bound_to 11000

$$$$
