AV-unprocessed.smi:609|AV-procd|sdf|3048|dock3
  -GOLD-   2262023563D 1   1.00000     0.00000
 Structure written by MMmdl.
 42 44  0  0  0  0  0  0  0  0  1 V2000
  152.3542  144.3298  159.4728 C   0  0  0  0  0  0  0  0  0  0  0  0
  152.0821  143.0809  158.6528 C   0  0  0  0  0  0  0  0  0  0  0  0
  151.2436  143.1720  157.5189 C   0  0  0  0  0  0  0  0  0  0  0  0
  150.9656  142.0342  156.7302 C   0  0  0  0  0  0  0  0  0  0  0  0
  150.1864  141.8965  155.5942 N   0  0  0  0  0  0  0  0  0  0  0  0
  150.3255  140.6009  155.3292 C   0  0  0  0  0  0  0  0  0  0  0  0
  151.1041  139.8818  156.1600 N   0  0  0  0  0  0  0  0  0  0  0  0
  151.3999  138.4633  156.0675 C   0  0  0  0  0  0  0  0  0  0  0  0
  150.8051  137.8210  154.8009 C   0  0  1  0  0  0  0  0  0  0  0  0
  151.8446  137.2727  154.0131 O   0  0  0  0  0  0  0  0  0  0  0  0
  149.7900  136.7139  155.1428 C   0  0  0  0  0  0  0  0  0  0  0  0
  150.5605  135.2530  155.9102 S   0  0  0  0  0  0  0  0  0  0  0  0
  149.8750  133.9725  154.9033 C   0  0  0  0  0  0  0  0  0  0  0  0
  148.9379  134.1506  153.9753 N   0  0  0  0  0  0  0  0  0  0  0  0
  148.7052  132.8847  153.4495 C   0  0  0  0  0  0  0  0  0  0  0  0
  149.5132  131.9739  154.0849 C   0  0  0  0  0  0  0  0  0  0  0  0
  150.2556  132.6864  155.0170 N   0  0  0  0  0  0  0  0  0  0  0  0
  151.2443  132.1354  155.9229 C   0  0  0  0  0  0  0  0  0  0  0  0
  151.5534  140.7924  157.1104 C   0  0  0  0  0  0  0  0  0  0  0  0
  152.3897  140.6889  158.2360 C   0  0  0  0  0  0  0  0  0  0  0  0
  152.6576  141.8357  159.0127 C   0  0  0  0  0  0  0  0  0  0  0  0
  153.5631  141.7140  160.2254 C   0  0  0  0  0  0  0  0  0  0  0  0
  151.8344  145.1965  159.0635 H   0  0  0  0  0  0  0  0  0  0  0  0
  153.4208  144.5547  159.4851 H   0  0  0  0  0  0  0  0  0  0  0  0
  152.0171  144.1929  160.5004 H   0  0  0  0  0  0  0  0  0  0  0  0
  150.8056  144.1203  157.2442 H   0  0  0  0  0  0  0  0  0  0  0  0
  149.8347  140.1465  154.4809 H   0  0  0  0  0  0  0  0  0  0  0  0
  152.4817  138.3267  156.0973 H   0  0  0  0  0  0  0  0  0  0  0  0
  151.0007  137.9755  156.9579 H   0  0  0  0  0  0  0  0  0  0  0  0
  150.3185  138.5995  154.2133 H   0  0  0  0  0  0  0  0  0  0  0  0
  151.4855  137.0224  153.1755 H   0  0  0  0  0  0  0  0  0  0  0  0
  149.0372  137.1015  155.8301 H   0  0  0  0  0  0  0  0  0  0  0  0
  149.2509  136.3989  154.2491 H   0  0  0  0  0  0  0  0  0  0  0  0
  147.9815  132.7288  152.6633 H   0  0  0  0  0  0  0  0  0  0  0  0
  149.6174  130.9067  153.9553 H   0  0  0  0  0  0  0  0  0  0  0  0
  151.3321  131.0586  155.7753 H   0  0  0  0  0  0  0  0  0  0  0  0
  150.9473  132.3273  156.9541 H   0  0  0  0  0  0  0  0  0  0  0  0
  152.2138  132.5981  155.7358 H   0  0  0  0  0  0  0  0  0  0  0  0
  152.8233  139.7349  158.4971 H   0  0  0  0  0  0  0  0  0  0  0  0
  153.9188  140.6914  160.3556 H   0  0  0  0  0  0  0  0  0  0  0  0
  153.0291  142.0002  161.1318 H   0  0  0  0  0  0  0  0  0  0  0  0
  154.4347  142.3597  160.1174 H   0  0  0  0  0  0  0  0  0  0  0  0
  1  2  1  0  0  0  0
  1 23  1  0  0  0  0
  1 24  1  0  0  0  0
  1 25  1  0  0  0  0
  2 21  1  0  0  0  0
  2  3  2  0  0  0  0
  3  4  1  0  0  0  0
  3 26  1  0  0  0  0
  4 19  2  0  0  0  0
  4  5  1  0  0  0  0
  5  6  2  0  0  0  0
  6  7  1  0  0  0  0
  6 27  1  0  0  0  0
  7  8  1  0  0  0  0
  7 19  1  0  0  0  0
  8  9  1  0  0  0  0
  8 28  1  0  0  0  0
  8 29  1  0  0  0  0
  9 10  1  0  0  0  0
  9 11  1  0  0  0  0
  9 30  1  0  0  0  0
 10 31  1  0  0  0  0
 11 12  1  0  0  0  0
 11 32  1  0  0  0  0
 11 33  1  0  0  0  0
 12 13  1  0  0  0  0
 13 17  1  0  0  0  0
 13 14  2  0  0  0  0
 14 15  1  0  0  0  0
 15 16  2  0  0  0  0
 15 34  1  0  0  0  0
 16 17  1  0  0  0  0
 16 35  1  0  0  0  0
 17 18  1  0  0  0  0
 18 36  1  0  0  0  0
 18 37  1  0  0  0  0
 18 38  1  0  0  0  0
 19 20  1  0  0  0  0
 20 21  2  0  0  0  0
 20 39  1  0  0  0  0
 21 22  1  0  0  0  0
 22 40  1  0  0  0  0
 22 41  1  0  0  0  0
 22 42  1  0  0  0  0
M  END
> <s_m_source_file>
AV-unprocessed.smi

> <i_m_source_file_index>
609

> <i_lp_mmshare_version>
43012

> <i_f3d_flags>
0

> <s_epik_input>
W0NIM11jKFtjSF0xKWMoW0NIM10pW2NIXWMoYzEyKW4oW2NIXW4yKVtDSDJdW0NASF0oW09IXSlbQ0gyXVNjM25bY0hdW2NIXW4zW0NIM10=

> <s_epik_cmdline>
J2VwaWtfcHl0aG9uJywgJy1waCcsICc3LjAnLCAnLXRuJywgJzgnLCAnLW1hJywgJzIwMCcsICctbWV0YWxfYmluZGluZycsICctaW1hZScsICc8aW5maWxlLm1hZT4nLCAnLW9tYWUnLCAnPG91dGZpbGUubWFlPic=

> <r_lp_tautomer_probability>
1

> <r_epik_Ionization_Penalty>
1.15618

> <r_epik_Ionization_Penalty_Charging>
1.04908

> <r_epik_Ionization_Penalty_Neutral>
0.107097

> <r_epik_State_Penalty>
1.19446

> <r_epik_Charging_Adjusted_Penalty>
2.24354

> <i_epik_Tot_Q>
0

> <i_epik_Tot_abs_Q>
0

> <r_epik_Metal_State_Penalty>
0.487262

> <b_epik_Metal_Only>
0

> <s_lp_Force_Field>
OPLS_2005

> <r_lp_Energy>
7.62781

> <b_lp_Chiralities_Consistent>
1

> <s_lp_Variant>
AV-unprocessed.smi:609-4

> <Gold.Version>
5.8.1

> <Gold.Id.Protein>
6NUR|6NUR_protein|mol2

> <Gold.PLP.Fitness>
51.6182

> <Gold.PLP.PLP>
-47.9346

> <Gold.PLP.part.hbond>
-2.0012

> <Gold.PLP.part.metal>
0.0000

> <Gold.PLP.part.buried>
-5.2922

> <Gold.PLP.part.nonpolar>
-39.4953

> <Gold.PLP.part.repulsive>
1.0550

> <Gold.PLP.ligand.clash>
0.0000

> <Gold.PLP.ligand.torsion>
1.1925

> <Gold.PLP.Chemscore.Hbond>
2.0000

> <Gold.PLP.Chemscore.CHOScore>
0.0000

> <Gold.PLP.Chemscore.Metal>
0.0000

> <Gold.Chemscore.Hbonds>
donor molecule, donor type, donor heavy atom, donor atom, acceptor molecule, acceptor atom, score
      L1  H    10    31       P1  7949  1.00
      P1  H 10752 10764       L1    10  0.89

> <Gold.PLP.Chemscore.Internal.Correction>
0.0686

> <Gold.Rescore>
     Score         DG    S(hbond)    S(metal)    S(lipo)     H(rot)  DE(clash)    DE(int)     intcor
     16.80     -17.95       1.63        0.00     112.62       2.41       0.02       1.13       ----

> <Gold.Chemscore.Fitness>
16.8048

> <Gold.Chemscore.DG>
-17.9459

> <Gold.Chemscore.ZeroCoef>
-5.4800

> <Gold.Chemscore.Hbond>
1.6323

> <Gold.Chemscore.Metal>
0.0000

> <Gold.Chemscore.Lipo>
112.6248

> <Gold.Chemscore.Internal_Hbond>
0.0000

> <Gold.Chemscore.DEClash>
0.0154

> <Gold.Chemscore.DEInternal>
1.1257

> <Gold.Chemscore.Rot>
2.4074

> <Gold.Chemscore.Internal.Correction>
   9.000000E+99

> <Gold.Chemscore.Hbonds>
donor molecule, donor type, donor heavy atom, donor atom, acceptor molecule, acceptor atom, score
      L1  H    10    31       P1  7949  0.84
      P1  H 10752 10764       L1    10  0.16

> <Gold.Chemscore.Hbond.Weighted>
-5.4519

> <Gold.Chemscore.Metal.Weighted>
-0.0000

> <Gold.Chemscore.Lipo.Weighted>
-13.1771

> <Gold.Chemscore.Internal_Hbond.Weighted>
0.0000

> <Gold.Chemscore.DEClash.Weighted>
0.0154

> <Gold.Chemscore.DEInternal.Weighted>
1.1257

> <Gold.Chemscore.Rot.Weighted>
6.1630

> <Gold.Chemscore.Internal.Correction.Weighted>
   9.000000E+99

> <Gold.Protein.RotatedTorsions>
[ 6907 6896 6895 6894 ] final -112.21 input  -60.11 | X-H torsion
[ 7974 7965 7964 7962 ] final   99.95 input  175.53 | X-H torsion
[ 8008 7997 7996 7995 ] final   44.27 input   59.86 | X-H torsion
[ 10167 10162 10161 10158 ] final   26.66 input  -65.29 | X-H torsion
[ 10718 10713 10712 10709 ] final   76.78 input   66.30 | X-H torsion
[ 10763 10752 10751 10750 ] final  -74.53 input  -60.55 | X-H torsion
[ 11005 11000 10999 10996 ] final  -63.28 input  -57.11 | X-H torsion

> <Gold.Protein.ActiveResidues>
 VAL166  LYS551  ARG553  GLY616  TRP617  ASP618  TYR619  PRO620  LYS621  CYS622 
 ASP623  PHE694  ASN695  SER759  ASP760  ASP761  ALA762  ILE779  LEU786  VAL792 
 PHE793  MET794  SER795  GLU796  ALA797  LYS798  CYS799  TRP800  GLU811  SER814 

> <Gold.Protein.RotatedAtoms>
  150.7743  133.9122  159.3372 H   0  0  0  0  0  0  0  0  0  0  0  0  # atno 6907 bound_to 6896
  151.7001  135.0929  160.0259 H   0  0  0  0  0  0  0  0  0  0  0  0  # atno 6908 bound_to 6896
  152.3773  133.6460  159.6169 H   0  0  0  0  0  0  0  0  0  0  0  0  # atno 6909 bound_to 6896
  145.3920  139.2361  143.3346 H   0  0  0  0  0  0  0  0  0  0  0  0  # atno 7974 bound_to 7965
  155.3165  140.3394  155.4242 H   0  0  0  0  0  0  0  0  0  0  0  0  # atno 8008 bound_to 7997
  156.1930  140.1704  156.8092 H   0  0  0  0  0  0  0  0  0  0  0  0  # atno 8009 bound_to 7997
  154.5464  140.0714  156.8580 H   0  0  0  0  0  0  0  0  0  0  0  0  # atno 8010 bound_to 7997
  140.5004  144.0324  150.6330 H   0  0  0  0  0  0  0  0  0  0  0  0  # atno 10167 bound_to 10162
  157.6686  130.9790  150.1546 H   0  0  0  0  0  0  0  0  0  0  0  0  # atno 10718 bound_to 10713
  154.4743  135.5861  153.6344 H   0  0  0  0  0  0  0  0  0  0  0  0  # atno 10763 bound_to 10752
  152.9839  135.6074  154.3327 H   0  0  0  0  0  0  0  0  0  0  0  0  # atno 10764 bound_to 10752
  154.3212  135.2843  155.2498 H   0  0  0  0  0  0  0  0  0  0  0  0  # atno 10765 bound_to 10752
  141.1388  133.6650  156.5657 H   0  0  0  0  0  0  0  0  0  0  0  0  # atno 11005 bound_to 11000
  146.2793  140.4605  142.8783 LP  0  0  0  0  0  0  0  0  0  0  0  0  # atno 17320 bound_to 7965
  144.8433  140.6891  143.6215 LP  0  0  0  0  0  0  0  0  0  0  0  0  # atno 17321 bound_to 7965
  140.3619  143.2903  152.0374 LP  0  0  0  0  0  0  0  0  0  0  0  0  # atno 17342 bound_to 10162
  139.4871  144.6296  151.7095 LP  0  0  0  0  0  0  0  0  0  0  0  0  # atno 17343 bound_to 10162
  156.2337  130.3684  149.8415 LP  0  0  0  0  0  0  0  0  0  0  0  0  # atno 17370 bound_to 10713
  156.6235  130.8636  151.3480 LP  0  0  0  0  0  0  0  0  0  0  0  0  # atno 17371 bound_to 10713
  140.3953  134.7404  157.4747 LP  0  0  0  0  0  0  0  0  0  0  0  0  # atno 17394 bound_to 11000
  140.0536  134.6095  155.8832 LP  0  0  0  0  0  0  0  0  0  0  0  0  # atno 17395 bound_to 11000

$$$$
