AV-unprocessed.smi:2647|AV-procd|sdf|10283|dock8
  -GOLD-   2272014293D 1   1.00000     0.00000
 Structure written by MMmdl.
 32 33  0  0  0  0  0  0  0  0  1 V2000
  145.0832  137.7190  153.2042 O   0  0  0  0  0  0  0  0  0  0  0  0
  146.1858  137.3190  152.8292 C   0  0  0  0  0  0  0  0  0  0  0  0
  147.3114  138.0377  152.9463 N   0  0  0  0  0  0  0  0  0  0  0  0
  147.3962  139.3721  153.5309 C   0  0  0  0  0  0  0  0  0  0  0  0
  148.7564  139.6327  154.2017 C   0  0  0  0  0  0  0  0  0  0  0  0
  148.9250  141.0758  154.7137 C   0  0  0  0  0  0  0  0  0  0  0  0
  149.8080  141.1259  155.8829 N   0  0  0  0  0  0  0  0  0  0  0  0
  151.0568  140.6391  155.9028 C   0  0  0  0  0  0  0  0  0  0  0  0
  151.6348  140.0777  154.9726 O   0  0  0  0  0  0  0  0  0  0  0  0
  151.7135  140.8740  157.2564 C   0  0  0  0  0  0  0  0  0  0  0  0
  150.6232  141.6033  158.0482 C   0  0  0  0  0  0  0  0  0  0  0  0
  149.4768  141.6965  157.0500 C   0  0  0  0  0  0  0  0  0  0  0  0
  148.4048  142.2381  157.3185 O   0  0  0  0  0  0  0  0  0  0  0  0
  146.4285  136.1253  152.2599 N   0  0  0  0  0  0  0  0  0  0  0  0
  145.5038  135.0934  151.9499 C   0  0  0  0  0  0  0  0  0  0  0  0
  145.5827  133.8484  152.4456 N   0  0  0  0  0  0  0  0  0  0  0  0
  144.5514  133.0396  151.9858 N   0  0  0  0  0  0  0  0  0  0  0  0
  143.7368  133.7051  151.1621 C   0  0  0  0  0  0  0  0  0  0  0  0
  144.1495  135.3855  150.8680 S   0  0  0  0  0  0  0  0  0  0  0  0
  148.1734  137.6325  152.6118 H   0  0  0  0  0  0  0  0  0  0  0  0
  147.2282  140.1025  152.7391 H   0  0  0  0  0  0  0  0  0  0  0  0
  146.5897  139.5118  154.2528 H   0  0  0  0  0  0  0  0  0  0  0  0
  148.8694  138.9402  155.0365 H   0  0  0  0  0  0  0  0  0  0  0  0
  149.5599  139.3940  153.5034 H   0  0  0  0  0  0  0  0  0  0  0  0
  149.3246  141.7141  153.9239 H   0  0  0  0  0  0  0  0  0  0  0  0
  147.9497  141.4968  154.9644 H   0  0  0  0  0  0  0  0  0  0  0  0
  151.9868  139.9251  157.7190 H   0  0  0  0  0  0  0  0  0  0  0  0
  152.6111  141.4833  157.1450 H   0  0  0  0  0  0  0  0  0  0  0  0
  150.3172  141.0414  158.9312 H   0  0  0  0  0  0  0  0  0  0  0  0
  150.9427  142.5992  158.3570 H   0  0  0  0  0  0  0  0  0  0  0  0
  147.3883  135.9341  152.0133 H   0  0  0  0  0  0  0  0  0  0  0  0
  142.8866  133.2032  150.7246 H   0  0  0  0  0  0  0  0  0  0  0  0
  1  2  2  0  0  0  0
  2  3  1  0  0  0  0
  2 14  1  0  0  0  0
  3  4  1  0  0  0  0
  3 20  1  0  0  0  0
  4  5  1  0  0  0  0
  4 21  1  0  0  0  0
  4 22  1  0  0  0  0
  5  6  1  0  0  0  0
  5 23  1  0  0  0  0
  5 24  1  0  0  0  0
  6  7  1  0  0  0  0
  6 25  1  0  0  0  0
  6 26  1  0  0  0  0
  7 12  1  0  0  0  0
  7  8  1  0  0  0  0
  8  9  2  0  0  0  0
  8 10  1  0  0  0  0
 10 11  1  0  0  0  0
 10 27  1  0  0  0  0
 10 28  1  0  0  0  0
 11 12  1  0  0  0  0
 11 29  1  0  0  0  0
 11 30  1  0  0  0  0
 12 13  2  0  0  0  0
 14 15  1  0  0  0  0
 14 31  1  0  0  0  0
 15 19  1  0  0  0  0
 15 16  2  0  0  0  0
 16 17  1  0  0  0  0
 17 18  2  0  0  0  0
 18 19  1  0  0  0  0
 18 32  1  0  0  0  0
M  END
> <s_m_source_file>
AV-unprocessed.smi

> <i_m_source_file_index>
2647

> <i_lp_mmshare_version>
43012

> <i_f3d_flags>
0

> <s_epik_input>
czFbY0hdbm5jMVtOSF1DKD1PKVtOSF1bQ0gyXVtDSDJdW0NIMl1OMkMoPU8pW0NIMl1bQ0gyXUMyPU8=

> <s_epik_cmdline>
J2VwaWtfcHl0aG9uJywgJy1waCcsICc3LjAnLCAnLXRuJywgJzgnLCAnLW1hJywgJzIwMCcsICctbWV0YWxfYmluZGluZycsICctaW1hZScsICc8aW5maWxlLm1hZT4nLCAnLW9tYWUnLCAnPG91dGZpbGUubWFlPic=

> <r_lp_tautomer_probability>
1

> <r_epik_Ionization_Penalty>
0.00175263

> <r_epik_Ionization_Penalty_Charging>
0

> <r_epik_Ionization_Penalty_Neutral>
0.00175263

> <r_epik_State_Penalty>
-0

> <r_epik_Charging_Adjusted_Penalty>
0

> <i_epik_Tot_Q>
0

> <i_epik_Tot_abs_Q>
0

> <r_epik_Metal_State_Penalty>
0.330668

> <b_epik_Metal_Only>
0

> <s_lp_Force_Field>
OPLS_2005

> <r_lp_Energy>
10.1998

> <b_lp_Chiralities_Consistent>
1

> <s_lp_Variant>
AV-unprocessed.smi:2647-1

> <Gold.Version>
5.8.1

> <Gold.Id.Protein>
6NUR|6NUR_protein|mol2

> <Gold.PLP.Fitness>
37.3407

> <Gold.PLP.PLP>
-27.7860

> <Gold.PLP.part.hbond>
-2.9685

> <Gold.PLP.part.metal>
0.0000

> <Gold.PLP.part.buried>
-4.1202

> <Gold.PLP.part.nonpolar>
-22.4941

> <Gold.PLP.part.repulsive>
1.3599

> <Gold.PLP.ligand.clash>
0.0000

> <Gold.PLP.ligand.torsion>
0.9649

> <Gold.PLP.Chemscore.Hbond>
2.9440

> <Gold.PLP.Chemscore.CHOScore>
0.8722

> <Gold.PLP.Chemscore.Metal>
0.0000

> <Gold.Chemscore.Hbonds>
donor molecule, donor type, donor heavy atom, donor atom, acceptor molecule, acceptor atom, score
      L1  H     3    20       P1  7948  0.94
      L1  H    14    31       P1  7948  1.00
      P1  H  7989  7998       L1     9  1.00
      L1  C    18    32       P1 10186  0.87

> <Gold.PLP.Chemscore.Internal.Correction>
0.0360

> <Gold.Rescore>
     Score         DG    S(hbond)    S(metal)    S(lipo)     H(rot)  DE(clash)    DE(int)     intcor
     12.88     -13.85       2.88        0.00      41.07       2.36       0.03       0.95       ----

> <Gold.Chemscore.Fitness>
12.8760

> <Gold.Chemscore.DG>
-13.8541

> <Gold.Chemscore.ZeroCoef>
-5.4800

> <Gold.Chemscore.Hbond>
2.8796

> <Gold.Chemscore.Metal>
0.0000

> <Gold.Chemscore.Lipo>
41.0690

> <Gold.Chemscore.Internal_Hbond>
0.0000

> <Gold.Chemscore.DEClash>
0.0304

> <Gold.Chemscore.DEInternal>
0.9477

> <Gold.Chemscore.Rot>
2.3629

> <Gold.Chemscore.Internal.Correction>
   9.000000E+99

> <Gold.Chemscore.Hbonds>
donor molecule, donor type, donor heavy atom, donor atom, acceptor molecule, acceptor atom, score
      L1  H     3    20       P1  7948  0.91
      L1  H    14    31       P1  7948  0.97
      P1  H  7989  7998       L1     9  0.90

> <Gold.Chemscore.Hbond.Weighted>
-9.6180

> <Gold.Chemscore.Metal.Weighted>
-0.0000

> <Gold.Chemscore.Lipo.Weighted>
-4.8051

> <Gold.Chemscore.Internal_Hbond.Weighted>
0.0000

> <Gold.Chemscore.DEClash.Weighted>
0.0304

> <Gold.Chemscore.DEInternal.Weighted>
0.9477

> <Gold.Chemscore.Rot.Weighted>
6.0490

> <Gold.Chemscore.Internal.Correction.Weighted>
   9.000000E+99

> <Gold.Protein.RotatedTorsions>
[ 6907 6896 6895 6894 ] final -168.06 input  -60.11 | X-H torsion
[ 7974 7965 7964 7962 ] final   32.65 input  175.53 | X-H torsion
[ 8008 7997 7996 7995 ] final   28.86 input   59.86 | X-H torsion
[ 10167 10162 10161 10158 ] final  -73.12 input  -65.29 | X-H torsion
[ 10718 10713 10712 10709 ] final  -40.81 input   66.30 | X-H torsion
[ 10763 10752 10751 10750 ] final   16.36 input  -60.55 | X-H torsion
[ 11005 11000 10999 10996 ] final -126.42 input  -57.11 | X-H torsion

> <Gold.Protein.ActiveResidues>
 VAL166  LYS551  ARG553  GLY616  TRP617  ASP618  TYR619  PRO620  LYS621  CYS622 
 ASP623  PHE694  ASN695  SER759  ASP760  ASP761  ALA762  ILE779  LEU786  VAL792 
 PHE793  MET794  SER795  GLU796  ALA797  LYS798  CYS799  TRP800  GLU811  SER814 

> <Gold.Protein.RotatedAtoms>
  151.4695  133.3572  159.2821 H   0  0  0  0  0  0  0  0  0  0  0  0  # atno 6907 bound_to 6896
  150.8970  134.8381  159.7344 H   0  0  0  0  0  0  0  0  0  0  0  0  # atno 6908 bound_to 6896
  152.4857  134.4611  159.9657 H   0  0  0  0  0  0  0  0  0  0  0  0  # atno 6909 bound_to 6896
  146.1473  139.6499  142.9123 H   0  0  0  0  0  0  0  0  0  0  0  0  # atno 7974 bound_to 7965
  155.0654  140.3194  155.4647 H   0  0  0  0  0  0  0  0  0  0  0  0  # atno 8008 bound_to 7997
  156.2803  140.2121  156.5726 H   0  0  0  0  0  0  0  0  0  0  0  0  # atno 8009 bound_to 7997
  154.7098  140.0499  157.0527 H   0  0  0  0  0  0  0  0  0  0  0  0  # atno 8010 bound_to 7997
  140.5136  143.2341  151.7551 H   0  0  0  0  0  0  0  0  0  0  0  0  # atno 10167 bound_to 10162
  156.2772  130.4213  149.8375 H   0  0  0  0  0  0  0  0  0  0  0  0  # atno 10718 bound_to 10713
  153.1438  135.6765  153.8986 H   0  0  0  0  0  0  0  0  0  0  0  0  # atno 10763 bound_to 10752
  153.8435  135.3102  155.3429 H   0  0  0  0  0  0  0  0  0  0  0  0  # atno 10764 bound_to 10752
  154.7809  135.4889  153.9926 H   0  0  0  0  0  0  0  0  0  0  0  0  # atno 10765 bound_to 10752
  140.9683  134.0841  157.3897 H   0  0  0  0  0  0  0  0  0  0  0  0  # atno 11005 bound_to 11000
  145.4908  141.0438  143.2594 LP  0  0  0  0  0  0  0  0  0  0  0  0  # atno 17320 bound_to 7965
  144.7861  139.6424  143.7133 LP  0  0  0  0  0  0  0  0  0  0  0  0  # atno 17321 bound_to 7965
  139.4903  144.4356  151.9823 LP  0  0  0  0  0  0  0  0  0  0  0  0  # atno 17342 bound_to 10162
  140.3449  144.3159  150.5960 LP  0  0  0  0  0  0  0  0  0  0  0  0  # atno 17343 bound_to 10162
  156.5835  130.8476  151.3389 LP  0  0  0  0  0  0  0  0  0  0  0  0  # atno 17370 bound_to 10713
  157.7303  130.9683  150.1827 LP  0  0  0  0  0  0  0  0  0  0  0  0  # atno 17371 bound_to 10713
  139.8902  135.0110  156.6725 LP  0  0  0  0  0  0  0  0  0  0  0  0  # atno 17394 bound_to 11000
  140.7367  133.9012  155.8249 LP  0  0  0  0  0  0  0  0  0  0  0  0  # atno 17395 bound_to 11000

$$$$
