AV-unprocessed.smi:168|AV-procd|sdf|1396|dock3
  -GOLD-   2262019143D 1   1.00000     0.00000
 Structure written by MMmdl.
 62 66  0  0  0  0  0  0  0  0  1 V2000
  148.2647  132.2087  161.3964 C   0  0  0  0  0  0  0  0  0  0  0  0
  146.9775  132.4217  160.5807 C   0  0  0  0  0  0  0  0  0  0  0  0
  146.9025  131.3512  159.4788 C   0  0  0  0  0  0  0  0  0  0  0  0
  146.8966  133.8387  159.9888 C   0  0  2  0  0  0  0  0  0  0  0  0
  148.1541  134.3085  159.4137 N   0  0  0  0  0  0  0  0  0  0  0  0
  148.3401  134.0798  158.0232 C   0  0  0  0  0  0  0  0  0  0  0  0
  149.6234  134.0717  157.5828 N   0  0  0  0  0  0  0  0  0  0  0  0
  149.9127  133.8550  156.2971 C   0  0  0  0  0  0  0  0  0  0  0  0
  149.0783  133.6319  155.2822 N   0  0  0  0  0  0  0  0  0  0  0  0
  147.7819  133.6481  155.7022 C   0  0  0  0  0  0  0  0  0  0  0  0
  147.3302  133.8565  157.0379 C   0  0  0  0  0  0  0  0  0  0  0  0
  145.9417  133.7863  157.0744 N   0  0  0  0  0  0  0  0  0  0  0  0
  145.5963  133.5427  155.8404 C   0  0  0  0  0  0  0  0  0  0  0  0
  146.6370  133.4756  154.9433 N   0  0  0  0  0  0  0  0  0  0  0  0
  146.5432  133.1856  153.5417 C   0  0  0  0  0  0  0  0  0  0  0  0
  145.7996  134.1270  152.5868 C   0  0  0  0  0  0  0  0  0  0  0  0
  145.2649  132.9142  151.7918 C   0  0  0  0  0  0  0  0  0  0  0  0
  143.7729  132.9527  151.4107 C   0  0  0  0  0  0  0  0  0  0  0  0
  143.5004  133.8425  150.3460 O   0  0  0  0  0  0  0  0  0  0  0  0
  146.0059  132.5791  150.4803 C   0  0  0  0  0  0  0  0  0  0  0  0
  147.4120  132.6671  150.5909 O   0  0  0  0  0  0  0  0  0  0  0  0
  145.6376  132.0605  153.0258 C   0  0  0  0  0  0  0  0  0  0  0  0
  147.8252  135.6842  159.7511 C   0  0  0  0  0  0  0  0  0  0  0  0
  146.9373  135.1126  160.8685 C   0  0  0  0  0  0  0  0  0  0  0  0
  147.6161  135.0182  162.2545 C   0  0  0  0  0  0  0  0  0  0  0  0
  147.7964  136.3909  162.9254 C   0  0  0  0  0  0  0  0  0  0  0  0
  146.4540  137.1203  163.0649 C   0  0  0  0  0  0  0  0  0  0  0  0
  145.7234  137.2017  161.7183 C   0  0  0  0  0  0  0  0  0  0  0  0
  145.5843  135.8119  161.0749 C   0  0  0  0  0  0  0  0  0  0  0  0
  149.1525  132.4079  160.7954 H   0  0  0  0  0  0  0  0  0  0  0  0
  148.3336  131.1840  161.7624 H   0  0  0  0  0  0  0  0  0  0  0  0
  148.3002  132.8602  162.2685 H   0  0  0  0  0  0  0  0  0  0  0  0
  146.1319  132.2603  161.2503 H   0  0  0  0  0  0  0  0  0  0  0  0
  147.7432  131.4378  158.7900 H   0  0  0  0  0  0  0  0  0  0  0  0
  145.9909  131.4286  158.8898 H   0  0  0  0  0  0  0  0  0  0  0  0
  146.9256  130.3477  159.9045 H   0  0  0  0  0  0  0  0  0  0  0  0
  146.0779  133.9218  159.2739 H   0  0  0  0  0  0  0  0  0  0  0  0
  150.9631  133.8636  156.0463 H   0  0  0  0  0  0  0  0  0  0  0  0
  144.5641  133.4120  155.5495 H   0  0  0  0  0  0  0  0  0  0  0  0
  147.5694  133.0348  153.2045 H   0  0  0  0  0  0  0  0  0  0  0  0
  145.0195  134.6958  153.0945 H   0  0  0  0  0  0  0  0  0  0  0  0
  146.4525  134.7926  152.0213 H   0  0  0  0  0  0  0  0  0  0  0  0
  143.4236  131.9634  151.1132 H   0  0  0  0  0  0  0  0  0  0  0  0
  143.1634  133.2581  152.2620 H   0  0  0  0  0  0  0  0  0  0  0  0
  142.5933  133.7469  150.0985 H   0  0  0  0  0  0  0  0  0  0  0  0
  145.7646  131.5690  150.1476 H   0  0  0  0  0  0  0  0  0  0  0  0
  145.6959  133.2526  149.6804 H   0  0  0  0  0  0  0  0  0  0  0  0
  147.7790  131.8076  150.4509 H   0  0  0  0  0  0  0  0  0  0  0  0
  146.1653  131.1338  152.7982 H   0  0  0  0  0  0  0  0  0  0  0  0
  144.7955  131.8683  153.6920 H   0  0  0  0  0  0  0  0  0  0  0  0
  148.6823  136.2622  160.0968 H   0  0  0  0  0  0  0  0  0  0  0  0
  147.2643  136.2135  158.9798 H   0  0  0  0  0  0  0  0  0  0  0  0
  147.0370  134.3840  162.9237 H   0  0  0  0  0  0  0  0  0  0  0  0
  148.5924  134.5394  162.1708 H   0  0  0  0  0  0  0  0  0  0  0  0
  148.2551  136.2681  163.9068 H   0  0  0  0  0  0  0  0  0  0  0  0
  148.4847  137.0007  162.3396 H   0  0  0  0  0  0  0  0  0  0  0  0
  145.8283  136.5908  163.7844 H   0  0  0  0  0  0  0  0  0  0  0  0
  146.6110  138.1213  163.4681 H   0  0  0  0  0  0  0  0  0  0  0  0
  144.7382  137.6478  161.8571 H   0  0  0  0  0  0  0  0  0  0  0  0
  146.2697  137.8632  161.0450 H   0  0  0  0  0  0  0  0  0  0  0  0
  145.0646  135.9165  160.1219 H   0  0  0  0  0  0  0  0  0  0  0  0
  144.9350  135.1930  161.6953 H   0  0  0  0  0  0  0  0  0  0  0  0
  1  2  1  0  0  0  0
  1 30  1  0  0  0  0
  1 31  1  0  0  0  0
  1 32  1  0  0  0  0
  2  3  1  0  0  0  0
  2  4  1  0  0  0  0
  2 33  1  0  0  0  0
  3 34  1  0  0  0  0
  3 35  1  0  0  0  0
  3 36  1  0  0  0  0
  4 24  1  0  0  0  0
  4  5  1  0  0  0  0
  4 37  1  0  0  0  0
  5  6  1  0  0  0  0
  5 23  1  0  0  0  0
  6 11  1  0  0  0  0
  6  7  2  0  0  0  0
  7  8  1  0  0  0  0
  8  9  2  0  0  0  0
  8 38  1  0  0  0  0
  9 10  1  0  0  0  0
 10 14  1  0  0  0  0
 10 11  2  0  0  0  0
 11 12  1  0  0  0  0
 12 13  2  0  0  0  0
 13 14  1  0  0  0  0
 13 39  1  0  0  0  0
 14 15  1  0  0  0  0
 15 22  1  0  0  0  0
 15 16  1  0  0  0  0
 15 40  1  0  0  0  0
 16 17  1  0  0  0  0
 16 41  1  0  0  0  0
 16 42  1  0  0  0  0
 17 18  1  0  0  0  0
 17 20  1  0  0  0  0
 17 22  1  0  0  0  0
 18 19  1  0  0  0  0
 18 43  1  0  0  0  0
 18 44  1  0  0  0  0
 19 45  1  0  0  0  0
 20 21  1  0  0  0  0
 20 46  1  0  0  0  0
 20 47  1  0  0  0  0
 21 48  1  0  0  0  0
 22 49  1  0  0  0  0
 22 50  1  0  0  0  0
 23 24  1  0  0  0  0
 23 51  1  0  0  0  0
 23 52  1  0  0  0  0
 24 29  1  0  0  0  0
 24 25  1  0  0  0  0
 25 26  1  0  0  0  0
 25 53  1  0  0  0  0
 25 54  1  0  0  0  0
 26 27  1  0  0  0  0
 26 55  1  0  0  0  0
 26 56  1  0  0  0  0
 27 28  1  0  0  0  0
 27 57  1  0  0  0  0
 27 58  1  0  0  0  0
 28 29  1  0  0  0  0
 28 59  1  0  0  0  0
 28 60  1  0  0  0  0
 29 61  1  0  0  0  0
 29 62  1  0  0  0  0
M  END
> <s_m_source_file>
AV-unprocessed.smi

> <i_m_source_file_index>
168

> <i_lp_mmshare_version>
43012

> <i_f3d_flags>
0

> <s_epik_input>
W0NIMl0xW0NIMl1bQ0gyXVtDSDJdW0NIMl1DMTJbQ0BIXShbQ0hdKFtDSDNdKVtDSDNdKU4oW0NIMl0yKWMobltjSF1uMyljKGMzNCluW2NIXW40W0NIXShbQ0gyXTUpW0NIMl1DNShbQ0gyXVtPSF0pW0NIMl1bT0hd

> <s_epik_cmdline>
J2VwaWtfcHl0aG9uJywgJy1waCcsICc3LjAnLCAnLXRuJywgJzgnLCAnLW1hJywgJzIwMCcsICctbWV0YWxfYmluZGluZycsICctaW1hZScsICc8aW5maWxlLm1hZT4nLCAnLW9tYWUnLCAnPG91dGZpbGUubWFlPic=

> <r_lp_tautomer_probability>
1

> <r_epik_Ionization_Penalty>
0.00324652

> <r_epik_Ionization_Penalty_Charging>
0

> <r_epik_Ionization_Penalty_Neutral>
0.00324652

> <r_epik_State_Penalty>
0.00223464

> <r_epik_Charging_Adjusted_Penalty>
0.00223464

> <i_epik_Tot_Q>
0

> <i_epik_Tot_abs_Q>
0

> <r_epik_Metal_State_Penalty>
-0

> <b_epik_Metal_Only>
0

> <s_lp_Force_Field>
OPLS_2005

> <r_lp_Energy>
66.0346

> <b_lp_Chiralities_Consistent>
1

> <s_lp_Variant>
AV-unprocessed.smi:168-1

> <Gold.Version>
5.8.1

> <Gold.Id.Protein>
6NUR|6NUR_protein|mol2

> <Gold.PLP.Fitness>
45.8772

> <Gold.PLP.PLP>
-35.8818

> <Gold.PLP.part.hbond>
-2.5834

> <Gold.PLP.part.metal>
0.0000

> <Gold.PLP.part.buried>
-7.1869

> <Gold.PLP.part.nonpolar>
-26.4939

> <Gold.PLP.part.repulsive>
0.0665

> <Gold.PLP.ligand.clash>
0.0000

> <Gold.PLP.ligand.torsion>
1.1211

> <Gold.PLP.Chemscore.Hbond>
2.9913

> <Gold.PLP.Chemscore.CHOScore>
0.8016

> <Gold.PLP.Chemscore.Metal>
0.0000

> <Gold.Chemscore.Hbonds>
donor molecule, donor type, donor heavy atom, donor atom, acceptor molecule, acceptor atom, score
      L1  H    19    45       P1 10186  1.00
      L1  H    21    48       P1 10747  1.00
      P1  H  6896  6909       L1     7  0.99
      L1  C    13    39       P1 10957  0.79

> <Gold.PLP.Chemscore.Internal.Correction>
0.8590

> <Gold.Rescore>
     Score         DG    S(hbond)    S(metal)    S(lipo)     H(rot)  DE(clash)    DE(int)     intcor
     15.09     -17.23       2.47        0.00      98.02       3.12       0.08       2.06       ----

> <Gold.Chemscore.Fitness>
15.0858

> <Gold.Chemscore.DG>
-17.2260

> <Gold.Chemscore.ZeroCoef>
-5.4800

> <Gold.Chemscore.Hbond>
2.4731

> <Gold.Chemscore.Metal>
0.0000

> <Gold.Chemscore.Lipo>
98.0193

> <Gold.Chemscore.Internal_Hbond>
0.0000

> <Gold.Chemscore.DEClash>
0.0843

> <Gold.Chemscore.DEInternal>
2.0559

> <Gold.Chemscore.Rot>
3.1181

> <Gold.Chemscore.Internal.Correction>
   9.000000E+99

> <Gold.Chemscore.Hbonds>
donor molecule, donor type, donor heavy atom, donor atom, acceptor molecule, acceptor atom, score
      L1  H    19    45       P1 10186  0.96
      L1  H    21    48       P1 10747  0.89
      P1  H  6896  6909       L1     7  0.41

> <Gold.Chemscore.Hbond.Weighted>
-8.2600

> <Gold.Chemscore.Metal.Weighted>
-0.0000

> <Gold.Chemscore.Lipo.Weighted>
-11.4683

> <Gold.Chemscore.Internal_Hbond.Weighted>
0.0000

> <Gold.Chemscore.DEClash.Weighted>
0.0843

> <Gold.Chemscore.DEInternal.Weighted>
2.0559

> <Gold.Chemscore.Rot.Weighted>
7.9823

> <Gold.Chemscore.Internal.Correction.Weighted>
   9.000000E+99

> <Gold.Protein.RotatedTorsions>
[ 6907 6896 6895 6894 ] final    9.29 input  -60.11 | X-H torsion
[ 7974 7965 7964 7962 ] final    0.85 input  175.53 | X-H torsion
[ 8008 7997 7996 7995 ] final  -97.64 input   59.86 | X-H torsion
[ 10167 10162 10161 10158 ] final  -55.39 input  -65.29 | X-H torsion
[ 10718 10713 10712 10709 ] final  -59.12 input   66.30 | X-H torsion
[ 10763 10752 10751 10750 ] final   75.80 input  -60.55 | X-H torsion
[ 11005 11000 10999 10996 ] final  166.35 input  -57.11 | X-H torsion

> <Gold.Protein.ActiveResidues>
 VAL166  LYS551  ARG553  GLY616  TRP617  ASP618  TYR619  PRO620  LYS621  CYS622 
 ASP623  PHE694  ASN695  SER759  ASP760  ASP761  ALA762  ILE779  LEU786  VAL792 
 PHE793  MET794  SER795  GLU796  ALA797  LYS798  CYS799  TRP800  GLU811  SER814 

> <Gold.Protein.RotatedAtoms>
  151.7199  135.0896  160.0281 H   0  0  0  0  0  0  0  0  0  0  0  0  # atno 6907 bound_to 6896
  152.3609  133.6291  159.6022 H   0  0  0  0  0  0  0  0  0  0  0  0  # atno 6908 bound_to 6896
  150.7603  133.9342  159.3477 H   0  0  0  0  0  0  0  0  0  0  0  0  # atno 6909 bound_to 6896
  146.2437  140.1076  142.8345 H   0  0  0  0  0  0  0  0  0  0  0  0  # atno 7974 bound_to 7965
  154.7905  140.0461  157.1197 H   0  0  0  0  0  0  0  0  0  0  0  0  # atno 8008 bound_to 7997
  154.9597  140.3076  155.5017 H   0  0  0  0  0  0  0  0  0  0  0  0  # atno 8009 bound_to 7997
  156.2949  140.2273  156.4681 H   0  0  0  0  0  0  0  0  0  0  0  0  # atno 8010 bound_to 7997
  140.6377  143.2491  151.5073 H   0  0  0  0  0  0  0  0  0  0  0  0  # atno 10167 bound_to 10162
  156.1085  130.4178  150.0672 H   0  0  0  0  0  0  0  0  0  0  0  0  # atno 10718 bound_to 10713
  153.0680  135.4975  154.8242 H   0  0  0  0  0  0  0  0  0  0  0  0  # atno 10763 bound_to 10752
  154.6981  135.2996  154.9383 H   0  0  0  0  0  0  0  0  0  0  0  0  # atno 10764 bound_to 10752
  154.0116  135.6753  153.4818 H   0  0  0  0  0  0  0  0  0  0  0  0  # atno 10765 bound_to 10752
  140.2655  134.7868  157.3628 H   0  0  0  0  0  0  0  0  0  0  0  0  # atno 11005 bound_to 11000
  145.0515  140.9021  143.4993 LP  0  0  0  0  0  0  0  0  0  0  0  0  # atno 17320 bound_to 7965
  145.1174  139.2716  143.5606 LP  0  0  0  0  0  0  0  0  0  0  0  0  # atno 17321 bound_to 7965
  139.5587  144.2210  152.1656 LP  0  0  0  0  0  0  0  0  0  0  0  0  # atno 17342 bound_to 10162
  140.1472  144.5148  150.6709 LP  0  0  0  0  0  0  0  0  0  0  0  0  # atno 17343 bound_to 10162
  156.8641  130.9502  151.3615 LP  0  0  0  0  0  0  0  0  0  0  0  0  # atno 17370 bound_to 10713
  157.6264  130.8694  149.9196 LP  0  0  0  0  0  0  0  0  0  0  0  0  # atno 17371 bound_to 10713
  140.1423  134.4955  155.8022 LP  0  0  0  0  0  0  0  0  0  0  0  0  # atno 17394 bound_to 11000
  141.2185  133.6830  156.7233 LP  0  0  0  0  0  0  0  0  0  0  0  0  # atno 17395 bound_to 11000

$$$$
