AV-unprocessed.smi:1764|AV-procd|sdf|7132|dock1
  -GOLD-   22720 8363D 1   1.00000     0.00000
 Structure written by MMmdl.
 31 32  0  0  0  0  0  0  0  0  1 V2000
  150.5819  140.5351  156.3621 O   0  0  0  0  0  0  0  0  0  0  0  0
  150.2481  141.6916  156.1022 C   0  0  0  0  0  0  0  0  0  0  0  0
  149.4344  142.0165  155.0870 N   0  0  0  0  0  0  0  0  0  0  0  0
  148.8456  141.0690  154.1469 C   0  0  0  0  0  0  0  0  0  0  0  0
  147.3108  141.1614  154.1403 C   0  0  2  0  0  0  0  0  0  0  0  0
  146.7801  142.5823  153.9539 C   0  0  0  0  0  0  0  0  0  0  0  0
  145.4150  142.5514  154.6253 C   0  0  0  0  0  0  0  0  0  0  0  0
  145.4155  141.2402  155.4159 C   0  0  0  0  0  0  0  0  0  0  0  0
  146.7663  140.8032  155.4004 O   0  0  0  0  0  0  0  0  0  0  0  0
  150.6393  142.7849  156.7805 N   0  0  0  0  0  0  0  0  0  0  0  0
  151.4825  142.8560  157.9217 C   0  0  0  0  0  0  0  0  0  0  0  0
  151.7136  144.1602  158.4149 C   0  0  0  0  0  0  0  0  0  0  0  0
  152.5346  144.3386  159.5452 C   0  0  0  0  0  0  0  0  0  0  0  0
  153.1039  143.2066  160.1550 C   0  0  0  0  0  0  0  0  0  0  0  0
  152.8231  141.9437  159.6014 C   0  0  0  0  0  0  0  0  0  0  0  0
  152.0367  141.7708  158.5180 N   0  0  0  0  0  0  0  0  0  0  0  0
  149.2112  142.9911  154.9481 H   0  0  0  0  0  0  0  0  0  0  0  0
  149.2474  141.2138  153.1425 H   0  0  0  0  0  0  0  0  0  0  0  0
  149.1476  140.0685  154.4574 H   0  0  0  0  0  0  0  0  0  0  0  0
  146.8922  140.5080  153.3722 H   0  0  0  0  0  0  0  0  0  0  0  0
  147.4222  143.2964  154.4717 H   0  0  0  0  0  0  0  0  0  0  0  0
  146.7307  142.8758  152.9050 H   0  0  0  0  0  0  0  0  0  0  0  0
  145.2882  143.4136  155.2809 H   0  0  0  0  0  0  0  0  0  0  0  0
  144.6050  142.5623  153.8951 H   0  0  0  0  0  0  0  0  0  0  0  0
  145.0534  141.3649  156.4367 H   0  0  0  0  0  0  0  0  0  0  0  0
  144.7922  140.4939  154.9212 H   0  0  0  0  0  0  0  0  0  0  0  0
  150.2894  143.6696  156.4440 H   0  0  0  0  0  0  0  0  0  0  0  0
  151.2678  145.0193  157.9347 H   0  0  0  0  0  0  0  0  0  0  0  0
  152.7236  145.3271  159.9371 H   0  0  0  0  0  0  0  0  0  0  0  0
  153.7384  143.3027  161.0236 H   0  0  0  0  0  0  0  0  0  0  0  0
  153.2399  141.0488  160.0394 H   0  0  0  0  0  0  0  0  0  0  0  0
  1  2  2  0  0  0  0
  2  3  1  0  0  0  0
  2 10  1  0  0  0  0
  3  4  1  0  0  0  0
  3 17  1  0  0  0  0
  4  5  1  0  0  0  0
  4 18  1  0  0  0  0
  4 19  1  0  0  0  0
  5  9  1  0  0  0  0
  5  6  1  0  0  0  0
  5 20  1  0  0  0  0
  6  7  1  0  0  0  0
  6 21  1  0  0  0  0
  6 22  1  0  0  0  0
  7  8  1  0  0  0  0
  7 23  1  0  0  0  0
  7 24  1  0  0  0  0
  8  9  1  0  0  0  0
  8 25  1  0  0  0  0
  8 26  1  0  0  0  0
 10 11  1  0  0  0  0
 10 27  1  0  0  0  0
 11 16  1  0  0  0  0
 11 12  2  0  0  0  0
 12 13  1  0  0  0  0
 12 28  1  0  0  0  0
 13 14  2  0  0  0  0
 13 29  1  0  0  0  0
 14 15  1  0  0  0  0
 14 30  1  0  0  0  0
 15 16  2  0  0  0  0
 15 31  1  0  0  0  0
M  END
> <s_m_source_file>
AV-unprocessed.smi

> <i_m_source_file_index>
1764

> <i_lp_mmshare_version>
43012

> <i_f3d_flags>
0

> <s_epik_input>
bjFbY0hdW2NIXVtjSF1bY0hdYzFbTkhdQyg9TylbTkhdW0NIMl1bQ0BASF0yW0NIMl1bQ0gyXVtDSDJdTzI=

> <s_epik_cmdline>
J2VwaWtfcHl0aG9uJywgJy1waCcsICc3LjAnLCAnLXRuJywgJzgnLCAnLW1hJywgJzIwMCcsICctbWV0YWxfYmluZGluZycsICctaW1hZScsICc8aW5maWxlLm1hZT4nLCAnLW9tYWUnLCAnPG91dGZpbGUubWFlPic=

> <r_lp_tautomer_probability>
1

> <r_epik_Ionization_Penalty>
4.47751e-05

> <r_epik_Ionization_Penalty_Charging>
0

> <r_epik_Ionization_Penalty_Neutral>
4.47751e-05

> <r_epik_State_Penalty>
-0

> <r_epik_Charging_Adjusted_Penalty>
0

> <i_epik_Tot_Q>
0

> <i_epik_Tot_abs_Q>
0

> <r_epik_Metal_State_Penalty>
-0

> <b_epik_Metal_Only>
0

> <s_lp_Force_Field>
OPLS_2005

> <r_lp_Energy>
19.1165

> <b_lp_Chiralities_Consistent>
1

> <s_lp_Variant>
AV-unprocessed.smi:1764-1

> <Gold.Version>
5.8.1

> <Gold.Id.Protein>
6NUR|6NUR_protein|mol2

> <Gold.PLP.Fitness>
42.1870

> <Gold.PLP.PLP>
-36.2291

> <Gold.PLP.part.hbond>
-2.0000

> <Gold.PLP.part.metal>
0.0000

> <Gold.PLP.part.buried>
-4.9469

> <Gold.PLP.part.nonpolar>
-29.8992

> <Gold.PLP.part.repulsive>
0.3546

> <Gold.PLP.ligand.clash>
0.0000

> <Gold.PLP.ligand.torsion>
0.0265

> <Gold.PLP.Chemscore.Hbond>
2.0000

> <Gold.PLP.Chemscore.CHOScore>
0.0000

> <Gold.PLP.Chemscore.Metal>
0.0000

> <Gold.Chemscore.Hbonds>
donor molecule, donor type, donor heavy atom, donor atom, acceptor molecule, acceptor atom, score
      L1  H     3    17       P1  8028  1.00
      L1  H    10    27       P1  8028  1.00

> <Gold.PLP.Chemscore.Internal.Correction>
0.0108

> <Gold.Rescore>
     Score         DG    S(hbond)    S(metal)    S(lipo)     H(rot)  DE(clash)    DE(int)     intcor
     16.55     -17.87       1.95        0.00      77.93       1.27       0.00       1.32       ----

> <Gold.Chemscore.Fitness>
16.5460

> <Gold.Chemscore.DG>
-17.8678

> <Gold.Chemscore.ZeroCoef>
-5.4800

> <Gold.Chemscore.Hbond>
1.9508

> <Gold.Chemscore.Metal>
0.0000

> <Gold.Chemscore.Lipo>
77.9283

> <Gold.Chemscore.Internal_Hbond>
0.0000

> <Gold.Chemscore.DEClash>
0.0015

> <Gold.Chemscore.DEInternal>
1.3203

> <Gold.Chemscore.Rot>
1.2678

> <Gold.Chemscore.Internal.Correction>
   9.000000E+99

> <Gold.Chemscore.Hbonds>
donor molecule, donor type, donor heavy atom, donor atom, acceptor molecule, acceptor atom, score
      L1  H     3    17       P1  8028  0.95
      L1  H    10    27       P1  8028  0.95

> <Gold.Chemscore.Hbond.Weighted>
-6.5157

> <Gold.Chemscore.Metal.Weighted>
-0.0000

> <Gold.Chemscore.Lipo.Weighted>
-9.1176

> <Gold.Chemscore.Internal_Hbond.Weighted>
0.0000

> <Gold.Chemscore.DEClash.Weighted>
0.0015

> <Gold.Chemscore.DEInternal.Weighted>
1.3203

> <Gold.Chemscore.Rot.Weighted>
3.2455

> <Gold.Chemscore.Internal.Correction.Weighted>
   9.000000E+99

> <Gold.Protein.RotatedTorsions>
[ 6907 6896 6895 6894 ] final  -38.50 input  -60.11 | X-H torsion
[ 7974 7965 7964 7962 ] final -135.93 input  175.53 | X-H torsion
[ 8008 7997 7996 7995 ] final  176.59 input   59.86 | X-H torsion
[ 10167 10162 10161 10158 ] final  -18.14 input  -65.29 | X-H torsion
[ 10718 10713 10712 10709 ] final  106.60 input   66.30 | X-H torsion
[ 10763 10752 10751 10750 ] final  147.08 input  -60.55 | X-H torsion
[ 11005 11000 10999 10996 ] final  112.14 input  -57.11 | X-H torsion

> <Gold.Protein.ActiveResidues>
 VAL166  LYS551  ARG553  GLY616  TRP617  ASP618  TYR619  PRO620  LYS621  CYS622 
 ASP623  PHE694  ASN695  SER759  ASP760  ASP761  ALA762  ILE779  LEU786  VAL792 
 PHE793  MET794  SER795  GLU796  ALA797  LYS798  CYS799  TRP800  GLU811  SER814 

> <Gold.Protein.RotatedAtoms>
  151.0017  134.9327  159.7957 H   0  0  0  0  0  0  0  0  0  0  0  0  # atno 6907 bound_to 6896
  152.5279  134.3146  159.9136 H   0  0  0  0  0  0  0  0  0  0  0  0  # atno 6908 bound_to 6896
  151.3151  133.4022  159.2684 H   0  0  0  0  0  0  0  0  0  0  0  0  # atno 6909 bound_to 6896
  144.8971  140.6721  143.5108 H   0  0  0  0  0  0  0  0  0  0  0  0  # atno 7974 bound_to 7965
  156.0748  140.1380  156.9785 H   0  0  0  0  0  0  0  0  0  0  0  0  # atno 8008 bound_to 7997
  154.4552  140.0964  156.6786 H   0  0  0  0  0  0  0  0  0  0  0  0  # atno 8009 bound_to 7997
  155.5170  140.3455  155.4401 H   0  0  0  0  0  0  0  0  0  0  0  0  # atno 8010 bound_to 7997
  140.7255  143.4946  150.9948 H   0  0  0  0  0  0  0  0  0  0  0  0  # atno 10167 bound_to 10162
  157.6662  131.0854  150.6030 H   0  0  0  0  0  0  0  0  0  0  0  0  # atno 10718 bound_to 10713
  154.0325  135.2896  155.3366 H   0  0  0  0  0  0  0  0  0  0  0  0  # atno 10763 bound_to 10752
  154.6979  135.5200  153.8488 H   0  0  0  0  0  0  0  0  0  0  0  0  # atno 10764 bound_to 10752
  153.0634  135.6622  154.0536 H   0  0  0  0  0  0  0  0  0  0  0  0  # atno 10765 bound_to 10752
  139.8920  134.9523  156.6540 H   0  0  0  0  0  0  0  0  0  0  0  0  # atno 11005 bound_to 11000
  145.3681  139.1665  143.4347 LP  0  0  0  0  0  0  0  0  0  0  0  0  # atno 17320 bound_to 7965
  146.3087  140.3750  142.8678 LP  0  0  0  0  0  0  0  0  0  0  0  0  # atno 17321 bound_to 7965
  139.8652  143.7263  152.3170 LP  0  0  0  0  0  0  0  0  0  0  0  0  # atno 17342 bound_to 10162
  139.7492  144.7539  151.0532 LP  0  0  0  0  0  0  0  0  0  0  0  0  # atno 17343 bound_to 10162
  156.6331  130.4437  149.5779 LP  0  0  0  0  0  0  0  0  0  0  0  0  # atno 17370 bound_to 10713
  156.2266  130.6769  151.1422 LP  0  0  0  0  0  0  0  0  0  0  0  0  # atno 17371 bound_to 10713
  140.7498  133.8907  155.8339 LP  0  0  0  0  0  0  0  0  0  0  0  0  # atno 17394 bound_to 11000
  141.0010  134.1151  157.4317 LP  0  0  0  0  0  0  0  0  0  0  0  0  # atno 17395 bound_to 11000

$$$$
