AV-unprocessed.smi:54|AV-procd|sdf|534|dock2
  -GOLD-   2262016413D 1   1.00000     0.00000
 Structure written by MMmdl.
 44 46  0  0  0  0  0  0  0  0  1 V2000
  149.9508  138.3542  157.5509 C   0  0  0  0  0  0  0  0  0  0  0  0
  151.0083  137.4540  156.8914 C   0  0  0  0  0  0  0  0  0  0  0  0
  151.5029  138.0540  155.5651 C   0  0  0  0  0  0  0  0  0  0  0  0
  150.4542  136.0411  156.6744 C   0  0  0  0  0  0  0  0  0  0  0  0
  150.3819  135.2211  157.5906 O   0  0  0  0  0  0  0  0  0  0  0  0
  150.0309  135.7400  155.3179 N   0  0  0  0  0  0  0  0  0  0  0  0
  149.5207  134.5756  154.8529 C   0  0  0  0  0  0  0  0  0  0  0  0
  148.5373  134.5155  153.9657 N   0  0  0  0  0  0  0  0  0  0  0  0
  148.1571  133.2479  153.6235 C   0  0  0  0  0  0  0  0  0  0  0  0
  148.6916  132.0704  154.1016 C   0  0  0  0  0  0  0  0  0  0  0  0
  148.0448  130.9830  153.5252 N   0  0  0  0  0  0  0  0  0  0  0  0
  147.1573  131.5231  152.7366 C   0  0  0  0  0  0  0  0  0  0  0  0
  147.1550  132.8992  152.7444 N   0  0  0  0  0  0  0  0  0  0  0  0
  146.2976  133.8615  151.9773 C   0  0  1  0  0  0  0  0  0  0  0  0
  146.0295  133.3126  150.7222 O   0  0  0  0  0  0  0  0  0  0  0  0
  144.7183  132.7601  150.7112 C   0  0  2  0  0  0  0  0  0  0  0  0
  144.2032  132.5695  149.2744 C   0  0  0  0  0  0  0  0  0  0  0  0
  142.8869  132.0605  149.2971 O   0  0  0  0  0  0  0  0  0  0  0  0
  143.9361  133.7633  151.5674 C   0  0  2  0  0  0  0  0  0  0  0  0
  143.5881  134.9098  150.8124 O   0  0  0  0  0  0  0  0  0  0  0  0
  144.9329  134.1247  152.6627 C   0  0  1  0  0  0  0  0  0  0  0  0
  144.6941  133.3240  153.8078 O   0  0  0  0  0  0  0  0  0  0  0  0
  149.7611  132.1181  155.0563 C   0  0  0  0  0  0  0  0  0  0  0  0
  150.3548  131.1797  155.5831 O   0  0  0  0  0  0  0  0  0  0  0  0
  150.1197  133.4327  155.3833 N   0  0  0  0  0  0  0  0  0  0  0  0
  146.9154  134.7544  151.8723 H   0  0  0  0  0  0  0  0  0  0  0  0
  144.7274  131.8022  151.2349 H   0  0  0  0  0  0  0  0  0  0  0  0
  143.0161  133.3286  151.9615 H   0  0  0  0  0  0  0  0  0  0  0  0
  144.8651  135.1735  152.9554 H   0  0  0  0  0  0  0  0  0  0  0  0
  149.5901  137.9230  158.4856 H   0  0  0  0  0  0  0  0  0  0  0  0
  149.0892  138.5054  156.8992 H   0  0  0  0  0  0  0  0  0  0  0  0
  150.3650  139.3357  157.7831 H   0  0  0  0  0  0  0  0  0  0  0  0
  151.8604  137.3852  157.5692 H   0  0  0  0  0  0  0  0  0  0  0  0
  152.2551  137.4177  155.0975 H   0  0  0  0  0  0  0  0  0  0  0  0
  151.9574  139.0322  155.7258 H   0  0  0  0  0  0  0  0  0  0  0  0
  150.6863  138.1838  154.8534 H   0  0  0  0  0  0  0  0  0  0  0  0
  150.1438  136.4843  154.6456 H   0  0  0  0  0  0  0  0  0  0  0  0
  146.4875  130.9290  152.1321 H   0  0  0  0  0  0  0  0  0  0  0  0
  144.1747  133.5283  148.7558 H   0  0  0  0  0  0  0  0  0  0  0  0
  144.8538  131.9077  148.7018 H   0  0  0  0  0  0  0  0  0  0  0  0
  142.2839  132.7880  149.3037 H   0  0  0  0  0  0  0  0  0  0  0  0
  142.7909  134.7266  150.3392 H   0  0  0  0  0  0  0  0  0  0  0  0
  143.8333  132.9419  153.7285 H   0  0  0  0  0  0  0  0  0  0  0  0
  150.8650  133.5418  156.0553 H   0  0  0  0  0  0  0  0  0  0  0  0
  1  2  1  0  0  0  0
  1 30  1  0  0  0  0
  1 31  1  0  0  0  0
  1 32  1  0  0  0  0
  2  3  1  0  0  0  0
  2  4  1  0  0  0  0
  2 33  1  0  0  0  0
  3 34  1  0  0  0  0
  3 35  1  0  0  0  0
  3 36  1  0  0  0  0
  4  5  2  0  0  0  0
  4  6  1  0  0  0  0
  6 37  1  0  0  0  0
  6  7  1  0  0  0  0
  7 25  1  0  0  0  0
  7  8  2  0  0  0  0
  8  9  1  0  0  0  0
  9 13  1  0  0  0  0
  9 10  2  0  0  0  0
 10 11  1  0  0  0  0
 10 23  1  0  0  0  0
 11 12  2  0  0  0  0
 12 13  1  0  0  0  0
 12 38  1  0  0  0  0
 13 14  1  0  0  0  0
 14 26  1  0  0  0  0
 14 21  1  0  0  0  0
 14 15  1  0  0  0  0
 15 16  1  0  0  0  0
 16 27  1  0  0  0  0
 16 17  1  0  0  0  0
 16 19  1  0  0  0  0
 17 18  1  0  0  0  0
 17 39  1  0  0  0  0
 17 40  1  0  0  0  0
 18 41  1  0  0  0  0
 19 28  1  0  0  0  0
 19 20  1  0  0  0  0
 19 21  1  0  0  0  0
 20 42  1  0  0  0  0
 21 29  1  0  0  0  0
 21 22  1  0  0  0  0
 22 43  1  0  0  0  0
 23 24  2  0  0  0  0
 23 25  1  0  0  0  0
 25 44  1  0  0  0  0
M  END
> <s_m_source_file>
AV-unprocessed.smi

> <i_m_source_file_index>
54

> <i_lp_mmshare_version>
43012

> <i_f3d_flags>
0

> <s_epik_input>
W0NIM11bQ0hdKFtDSDNdKUMoPU8pW05IXWMobjEpW25IXWMoPU8pYyhjMTIpbltjSF1uMltDQEBIXTNPW0NASF0oW0NIMl1bT0hdKVtDQEBIXShbT0hdKVtDQEhdM1tPSF0=

> <s_epik_cmdline>
J2VwaWtfcHl0aG9uJywgJy1waCcsICc3LjAnLCAnLXRuJywgJzgnLCAnLW1hJywgJzIwMCcsICctbWV0YWxfYmluZGluZycsICctaW1hZScsICc8aW5maWxlLm1hZT4nLCAnLW9tYWUnLCAnPG91dGZpbGUubWFlPic=

> <r_lp_tautomer_probability>
0.85571

> <r_epik_Ionization_Penalty>
0.0316551

> <r_epik_Ionization_Penalty_Charging>
0.0316043

> <r_epik_Ionization_Penalty_Neutral>
5.07097e-05

> <r_epik_State_Penalty>
3.15494e-07

> <r_epik_Charging_Adjusted_Penalty>
0.0316047

> <i_epik_Tot_Q>
0

> <i_epik_Tot_abs_Q>
0

> <r_epik_Metal_State_Penalty>
0.421206

> <b_epik_Metal_Only>
0

> <s_epik_Chemistry_Notes>
This compound contains an acetal/aminal-like group ( X-CH(R)-Y where X, Y are N, S, or O) that may be acid/base labile, releasing an aldehyde.

> <s_lp_Force_Field>
OPLS_2005

> <r_lp_Energy>
41.1485

> <b_lp_Chiralities_Consistent>
1

> <s_lp_Variant>
AV-unprocessed.smi:54-6

> <Gold.Version>
5.8.1

> <Gold.Id.Protein>
6NUR|6NUR_protein|mol2

> <Gold.PLP.Fitness>
44.2105

> <Gold.PLP.PLP>
-34.5853

> <Gold.PLP.part.hbond>
-6.0000

> <Gold.PLP.part.metal>
0.0000

> <Gold.PLP.part.buried>
-7.6489

> <Gold.PLP.part.nonpolar>
-24.4946

> <Gold.PLP.part.repulsive>
3.0231

> <Gold.PLP.ligand.clash>
0.0000

> <Gold.PLP.ligand.torsion>
1.5508

> <Gold.PLP.Chemscore.Hbond>
4.2130

> <Gold.PLP.Chemscore.CHOScore>
0.0000

> <Gold.PLP.Chemscore.Metal>
0.0000

> <Gold.Chemscore.Hbonds>
donor molecule, donor type, donor heavy atom, donor atom, acceptor molecule, acceptor atom, score
      L1  H    18    41       P1 10186  0.88
      L1  H    20    42       P1 10186  1.00
      L1  H    22    43       P1 10957  0.75
      P1  H  6896  6909       L1     5  0.56
      P1  H 10785 10796       L1    18  1.00

> <Gold.PLP.Chemscore.Internal.Correction>
0.0877

> <Gold.Rescore>
     Score         DG    S(hbond)    S(metal)    S(lipo)     H(rot)  DE(clash)    DE(int)     intcor
      8.78     -10.81       3.18        0.00      43.41       4.05       0.78       1.25       ----

> <Gold.Chemscore.Fitness>
8.7840

> <Gold.Chemscore.DG>
-10.8143

> <Gold.Chemscore.ZeroCoef>
-5.4800

> <Gold.Chemscore.Hbond>
3.1799

> <Gold.Chemscore.Metal>
0.0000

> <Gold.Chemscore.Lipo>
43.4144

> <Gold.Chemscore.Internal_Hbond>
0.0000

> <Gold.Chemscore.DEClash>
0.7807

> <Gold.Chemscore.DEInternal>
1.2496

> <Gold.Chemscore.Rot>
4.0493

> <Gold.Chemscore.Internal.Correction>
   9.000000E+99

> <Gold.Chemscore.Hbonds>
donor molecule, donor type, donor heavy atom, donor atom, acceptor molecule, acceptor atom, score
      L1  H    18    41       P1 10186  0.86
      L1  H    20    42       P1 10186  0.34
      L1  H    22    43       P1 10957  0.68
      P1  H  6896  6909       L1     5  0.54
      P1  H 10785 10796       L1    18  0.28

> <Gold.Chemscore.Hbond.Weighted>
-10.6210

> <Gold.Chemscore.Metal.Weighted>
-0.0000

> <Gold.Chemscore.Lipo.Weighted>
-5.0795

> <Gold.Chemscore.Internal_Hbond.Weighted>
0.0000

> <Gold.Chemscore.DEClash.Weighted>
0.7807

> <Gold.Chemscore.DEInternal.Weighted>
1.2496

> <Gold.Chemscore.Rot.Weighted>
10.3662

> <Gold.Chemscore.Internal.Correction.Weighted>
   9.000000E+99

> <Gold.Protein.RotatedTorsions>
[ 6907 6896 6895 6894 ] final   32.08 input  -60.11 | X-H torsion
[ 7974 7965 7964 7962 ] final -173.94 input  175.53 | X-H torsion
[ 8008 7997 7996 7995 ] final  168.88 input   59.86 | X-H torsion
[ 10167 10162 10161 10158 ] final -132.93 input  -65.29 | X-H torsion
[ 10718 10713 10712 10709 ] final   90.13 input   66.30 | X-H torsion
[ 10763 10752 10751 10750 ] final -142.93 input  -60.55 | X-H torsion
[ 11005 11000 10999 10996 ] final   77.89 input  -57.11 | X-H torsion

> <Gold.Protein.ActiveResidues>
 VAL166  LYS551  ARG553  GLY616  TRP617  ASP618  TYR619  PRO620  LYS621  CYS622 
 ASP623  PHE694  ASN695  SER759  ASP760  ASP761  ALA762  ILE779  LEU786  VAL792 
 PHE793  MET794  SER795  GLU796  ALA797  LYS798  CYS799  TRP800  GLU811  SER814 

> <Gold.Protein.RotatedAtoms>
  152.0694  134.9543  160.0574 H   0  0  0  0  0  0  0  0  0  0  0  0  # atno 6907 bound_to 6896
  152.0875  133.4179  159.4537 H   0  0  0  0  0  0  0  0  0  0  0  0  # atno 6908 bound_to 6896
  150.6836  134.2829  159.4678 H   0  0  0  0  0  0  0  0  0  0  0  0  # atno 6909 bound_to 6896
  144.7134  140.1546  143.6381 H   0  0  0  0  0  0  0  0  0  0  0  0  # atno 7974 bound_to 7965
  156.1507  140.1579  156.8774 H   0  0  0  0  0  0  0  0  0  0  0  0  # atno 8008 bound_to 7997
  154.5069  140.0811  156.7948 H   0  0  0  0  0  0  0  0  0  0  0  0  # atno 8009 bound_to 7997
  155.3901  140.3409  155.4253 H   0  0  0  0  0  0  0  0  0  0  0  0  # atno 8010 bound_to 7997
  139.9035  143.6579  152.2590 H   0  0  0  0  0  0  0  0  0  0  0  0  # atno 10167 bound_to 10162
  157.6958  131.0359  150.3531 H   0  0  0  0  0  0  0  0  0  0  0  0  # atno 10718 bound_to 10713
  154.8490  135.3482  154.6106 H   0  0  0  0  0  0  0  0  0  0  0  0  # atno 10763 bound_to 10752
  153.6715  135.6985  153.5150 H   0  0  0  0  0  0  0  0  0  0  0  0  # atno 10764 bound_to 10752
  153.2739  135.4284  155.0971 H   0  0  0  0  0  0  0  0  0  0  0  0  # atno 10765 bound_to 10752
  139.9235  134.7719  156.1580 H   0  0  0  0  0  0  0  0  0  0  0  0  # atno 11005 bound_to 11000
  145.9085  139.2473  143.1451 LP  0  0  0  0  0  0  0  0  0  0  0  0  # atno 17320 bound_to 7965
  145.9740  140.8737  143.0148 LP  0  0  0  0  0  0  0  0  0  0  0  0  # atno 17321 bound_to 7965
  139.7004  144.7636  151.1283 LP  0  0  0  0  0  0  0  0  0  0  0  0  # atno 17342 bound_to 10162
  140.7701  143.5465  150.9252 LP  0  0  0  0  0  0  0  0  0  0  0  0  # atno 17343 bound_to 10162
  156.3977  130.3910  149.6982 LP  0  0  0  0  0  0  0  0  0  0  0  0  # atno 17370 bound_to 10713
  156.4310  130.7815  151.2835 LP  0  0  0  0  0  0  0  0  0  0  0  0  # atno 17371 bound_to 10713
  141.0775  133.6769  156.2267 LP  0  0  0  0  0  0  0  0  0  0  0  0  # atno 17394 bound_to 11000
  140.6403  134.5172  157.5569 LP  0  0  0  0  0  0  0  0  0  0  0  0  # atno 17395 bound_to 11000

$$$$
