AV-unprocessed.smi:573|AV-procd|sdf|2971|dock2
  -GOLD-   2262023473D 1   1.00000     0.00000
 Structure written by MMmdl.
 44 46  0  0  0  0  0  0  0  0  1 V2000
  147.2497  140.4868  154.0258 C   0  0  0  0  0  0  0  0  0  0  0  0
  147.4906  141.8949  154.5923 C   0  0  2  0  0  0  0  0  0  0  0  0
  148.7582  142.3728  154.1920 O   0  0  0  0  0  0  0  0  0  0  0  0
  147.3560  142.0110  156.1230 C   0  0  0  0  0  0  0  0  0  0  0  0
  148.3791  141.2720  156.8428 N   0  0  0  0  0  0  0  0  0  0  0  0
  149.4838  141.6817  157.5801 C   0  0  0  0  0  0  0  0  0  0  0  0
  149.8202  142.9560  157.7714 N   0  0  0  0  0  0  0  0  0  0  0  0
  150.9602  142.8444  158.5449 C   0  0  0  0  0  0  0  0  0  0  0  0
  151.8029  143.8424  159.0849 C   0  0  0  0  0  0  0  0  0  0  0  0
  152.9299  143.4855  159.8542 C   0  0  0  0  0  0  0  0  0  0  0  0
  153.2313  142.1290  160.0929 C   0  0  0  0  0  0  0  0  0  0  0  0
  152.4051  141.1182  159.5651 C   0  0  0  0  0  0  0  0  0  0  0  0
  151.2794  141.4786  158.8002 C   0  0  0  0  0  0  0  0  0  0  0  0
  150.2832  140.7524  158.1540 N   0  0  0  0  0  0  0  0  0  0  0  0
  150.1489  139.3030  158.1138 C   0  0  0  0  0  0  0  0  0  0  0  0
  151.0279  138.6727  157.0213 C   0  0  2  0  0  0  0  0  0  0  0  0
  151.5222  139.7172  156.0027 C   0  0  0  0  0  0  0  0  0  0  0  0
  152.3400  139.0426  154.8955 C   0  0  0  0  0  0  0  0  0  0  0  0
  151.5313  137.8948  154.2812 C   0  0  0  0  0  0  0  0  0  0  0  0
  151.0289  136.9451  155.3805 C   0  0  0  0  0  0  0  0  0  0  0  0
  150.2710  137.6728  156.3415 O   0  0  0  0  0  0  0  0  0  0  0  0
  146.2755  140.1044  154.3317 H   0  0  0  0  0  0  0  0  0  0  0  0
  148.0073  139.7793  154.3641 H   0  0  0  0  0  0  0  0  0  0  0  0
  147.2736  140.4953  152.9359 H   0  0  0  0  0  0  0  0  0  0  0  0
  146.7566  142.5662  154.1457 H   0  0  0  0  0  0  0  0  0  0  0  0
  149.0315  143.0421  154.8003 H   0  0  0  0  0  0  0  0  0  0  0  0
  147.3879  143.0564  156.4314 H   0  0  0  0  0  0  0  0  0  0  0  0
  146.3820  141.6289  156.4310 H   0  0  0  0  0  0  0  0  0  0  0  0
  148.2181  140.2754  156.8544 H   0  0  0  0  0  0  0  0  0  0  0  0
  151.5823  144.8842  158.9061 H   0  0  0  0  0  0  0  0  0  0  0  0
  153.5667  144.2566  160.2622 H   0  0  0  0  0  0  0  0  0  0  0  0
  154.0981  141.8648  160.6809 H   0  0  0  0  0  0  0  0  0  0  0  0
  152.6354  140.0785  159.7442 H   0  0  0  0  0  0  0  0  0  0  0  0
  150.4176  138.9016  159.0914 H   0  0  0  0  0  0  0  0  0  0  0  0
  149.1000  139.0486  157.9575 H   0  0  0  0  0  0  0  0  0  0  0  0
  151.8891  138.1993  157.4967 H   0  0  0  0  0  0  0  0  0  0  0  0
  150.6689  140.2343  155.5617 H   0  0  0  0  0  0  0  0  0  0  0  0
  152.1253  140.4767  156.5011 H   0  0  0  0  0  0  0  0  0  0  0  0
  152.6156  139.7675  154.1294 H   0  0  0  0  0  0  0  0  0  0  0  0
  153.2708  138.6547  155.3112 H   0  0  0  0  0  0  0  0  0  0  0  0
  150.6793  138.2991  153.7333 H   0  0  0  0  0  0  0  0  0  0  0  0
  152.1383  137.3493  153.5584 H   0  0  0  0  0  0  0  0  0  0  0  0
  150.3955  136.1713  154.9467 H   0  0  0  0  0  0  0  0  0  0  0  0
  151.8622  136.4372  155.8682 H   0  0  0  0  0  0  0  0  0  0  0  0
  1  2  1  0  0  0  0
  1 22  1  0  0  0  0
  1 23  1  0  0  0  0
  1 24  1  0  0  0  0
  2  3  1  0  0  0  0
  2  4  1  0  0  0  0
  2 25  1  0  0  0  0
  3 26  1  0  0  0  0
  4  5  1  0  0  0  0
  4 27  1  0  0  0  0
  4 28  1  0  0  0  0
  5  6  1  0  0  0  0
  5 29  1  0  0  0  0
  6 14  1  0  0  0  0
  6  7  2  0  0  0  0
  7  8  1  0  0  0  0
  8 13  2  0  0  0  0
  8  9  1  0  0  0  0
  9 10  2  0  0  0  0
  9 30  1  0  0  0  0
 10 11  1  0  0  0  0
 10 31  1  0  0  0  0
 11 12  2  0  0  0  0
 11 32  1  0  0  0  0
 12 13  1  0  0  0  0
 12 33  1  0  0  0  0
 13 14  1  0  0  0  0
 14 15  1  0  0  0  0
 15 16  1  0  0  0  0
 15 34  1  0  0  0  0
 15 35  1  0  0  0  0
 16 21  1  0  0  0  0
 16 17  1  0  0  0  0
 16 36  1  0  0  0  0
 17 18  1  0  0  0  0
 17 37  1  0  0  0  0
 17 38  1  0  0  0  0
 18 19  1  0  0  0  0
 18 39  1  0  0  0  0
 18 40  1  0  0  0  0
 19 20  1  0  0  0  0
 19 41  1  0  0  0  0
 19 42  1  0  0  0  0
 20 21  1  0  0  0  0
 20 43  1  0  0  0  0
 20 44  1  0  0  0  0
M  END
> <s_m_source_file>
AV-unprocessed.smi

> <i_m_source_file_index>
573

> <i_lp_mmshare_version>
43012

> <i_f3d_flags>
0

> <s_epik_input>
W0NIM11bQ0BIXShbT0hdKVtDSDJdW05IXWMobjEpbihjKGMxMilbY0hdW2NIXVtjSF1bY0hdMilbQ0gyXVtDQEBIXTNbQ0gyXVtDSDJdW0NIMl1bQ0gyXU8z

> <s_epik_cmdline>
J2VwaWtfcHl0aG9uJywgJy1waCcsICc3LjAnLCAnLXRuJywgJzgnLCAnLW1hJywgJzIwMCcsICctbWV0YWxfYmluZGluZycsICctaW1hZScsICc8aW5maWxlLm1hZT4nLCAnLW9tYWUnLCAnPG91dGZpbGUubWFlPic=

> <r_epik_Ionization_Penalty>
1.30635

> <r_epik_Ionization_Penalty_Charging>
0

> <r_epik_Ionization_Penalty_Neutral>
1.30635

> <r_epik_State_Penalty>
1.38073

> <r_epik_Charging_Adjusted_Penalty>
1.38073

> <i_epik_Tot_Q>
0

> <i_epik_Tot_abs_Q>
0

> <r_epik_Metal_State_Penalty>
0.00547412

> <b_epik_Metal_Only>
0

> <s_lp_Force_Field>
OPLS_2005

> <r_lp_Energy>
12.415

> <b_lp_Chiralities_Consistent>
1

> <s_lp_Variant>
AV-unprocessed.smi:573-5

> <Gold.Version>
5.8.1

> <Gold.Id.Protein>
6NUR|6NUR_protein|mol2

> <Gold.PLP.Fitness>
41.1032

> <Gold.PLP.PLP>
-39.5278

> <Gold.PLP.part.hbond>
-2.0000

> <Gold.PLP.part.metal>
0.0000

> <Gold.PLP.part.buried>
-5.5313

> <Gold.PLP.part.nonpolar>
-34.0702

> <Gold.PLP.part.repulsive>
1.4462

> <Gold.PLP.ligand.clash>
0.0000

> <Gold.PLP.ligand.torsion>
1.0211

> <Gold.PLP.Chemscore.Hbond>
1.1989

> <Gold.PLP.Chemscore.CHOScore>
0.0000

> <Gold.PLP.Chemscore.Metal>
0.0000

> <Gold.Chemscore.Hbonds>
donor molecule, donor type, donor heavy atom, donor atom, acceptor molecule, acceptor atom, score
      L1  H     3    26       P1  8028  1.00
      P1  H  8011  8017       L1     3  0.17

> <Gold.PLP.Chemscore.Internal.Correction>
0.0208

> <Gold.Rescore>
     Score         DG    S(hbond)    S(metal)    S(lipo)     H(rot)  DE(clash)    DE(int)     intcor
     16.41     -17.56       1.19        0.00     113.60       2.02       0.09       1.06       ----

> <Gold.Chemscore.Fitness>
16.4080

> <Gold.Chemscore.DG>
-17.5640

> <Gold.Chemscore.ZeroCoef>
-5.4800

> <Gold.Chemscore.Hbond>
1.1887

> <Gold.Chemscore.Metal>
0.0000

> <Gold.Chemscore.Lipo>
113.6000

> <Gold.Chemscore.Internal_Hbond>
0.0000

> <Gold.Chemscore.DEClash>
0.0918

> <Gold.Chemscore.DEInternal>
1.0641

> <Gold.Chemscore.Rot>
2.0224

> <Gold.Chemscore.Internal.Correction>
   9.000000E+99

> <Gold.Chemscore.Hbonds>
donor molecule, donor type, donor heavy atom, donor atom, acceptor molecule, acceptor atom, score
      L1  H     3    26       P1  8028  0.97
      P1  H  8011  8017       L1     3  0.14

> <Gold.Chemscore.Hbond.Weighted>
-3.9702

> <Gold.Chemscore.Metal.Weighted>
-0.0000

> <Gold.Chemscore.Lipo.Weighted>
-13.2912

> <Gold.Chemscore.Internal_Hbond.Weighted>
0.0000

> <Gold.Chemscore.DEClash.Weighted>
0.0918

> <Gold.Chemscore.DEInternal.Weighted>
1.0641

> <Gold.Chemscore.Rot.Weighted>
5.1773

> <Gold.Chemscore.Internal.Correction.Weighted>
   9.000000E+99

> <Gold.Protein.RotatedTorsions>
[ 6907 6896 6895 6894 ] final   94.99 input  -60.11 | X-H torsion
[ 7974 7965 7964 7962 ] final   15.23 input  175.53 | X-H torsion
[ 8008 7997 7996 7995 ] final  -37.71 input   59.86 | X-H torsion
[ 10167 10162 10161 10158 ] final   67.45 input  -65.29 | X-H torsion
[ 10718 10713 10712 10709 ] final   76.77 input   66.30 | X-H torsion
[ 10763 10752 10751 10750 ] final   53.10 input  -60.55 | X-H torsion
[ 11005 11000 10999 10996 ] final -135.24 input  -57.11 | X-H torsion

> <Gold.Protein.ActiveResidues>
 VAL166  LYS551  ARG553  GLY616  TRP617  ASP618  TYR619  PRO620  LYS621  CYS622 
 ASP623  PHE694  ASN695  SER759  ASP760  ASP761  ALA762  ILE779  LEU786  VAL792 
 PHE793  MET794  SER795  GLU796  ALA797  LYS798  CYS799  TRP800  GLU811  SER814 

> <Gold.Protein.RotatedAtoms>
  152.5446  134.1109  159.8357 H   0  0  0  0  0  0  0  0  0  0  0  0  # atno 6907 bound_to 6896
  151.1175  133.5120  159.2610 H   0  0  0  0  0  0  0  0  0  0  0  0  # atno 6908 bound_to 6896
  151.1815  135.0372  159.8849 H   0  0  0  0  0  0  0  0  0  0  0  0  # atno 6909 bound_to 6896
  146.2284  139.8925  142.8552 H   0  0  0  0  0  0  0  0  0  0  0  0  # atno 7974 bound_to 7965
  154.4049  140.1597  156.2581 H   0  0  0  0  0  0  0  0  0  0  0  0  # atno 8008 bound_to 7997
  155.9061  140.3430  155.6040 H   0  0  0  0  0  0  0  0  0  0  0  0  # atno 8009 bound_to 7997
  155.7391  140.0790  157.2244 H   0  0  0  0  0  0  0  0  0  0  0  0  # atno 8010 bound_to 7997
  140.0894  144.5001  150.7109 H   0  0  0  0  0  0  0  0  0  0  0  0  # atno 10167 bound_to 10162
  157.6686  130.9790  150.1545 H   0  0  0  0  0  0  0  0  0  0  0  0  # atno 10718 bound_to 10713
  152.9793  135.5790  154.4686 H   0  0  0  0  0  0  0  0  0  0  0  0  # atno 10763 bound_to 10752
  154.4252  135.2772  155.1951 H   0  0  0  0  0  0  0  0  0  0  0  0  # atno 10764 bound_to 10752
  154.3683  135.6173  153.5780 H   0  0  0  0  0  0  0  0  0  0  0  0  # atno 10765 bound_to 10752
  140.8916  134.1804  157.4524 H   0  0  0  0  0  0  0  0  0  0  0  0  # atno 11005 bound_to 11000
  145.2403  141.0007  143.3939 LP  0  0  0  0  0  0  0  0  0  0  0  0  # atno 17320 bound_to 7965
  144.9457  139.4138  143.6427 LP  0  0  0  0  0  0  0  0  0  0  0  0  # atno 17321 bound_to 7965
  140.7036  143.2452  151.4791 LP  0  0  0  0  0  0  0  0  0  0  0  0  # atno 17342 bound_to 10162
  139.5733  144.1876  152.1868 LP  0  0  0  0  0  0  0  0  0  0  0  0  # atno 17343 bound_to 10162
  156.2336  130.3684  149.8416 LP  0  0  0  0  0  0  0  0  0  0  0  0  # atno 17370 bound_to 10713
  156.6236  130.8636  151.3480 LP  0  0  0  0  0  0  0  0  0  0  0  0  # atno 17371 bound_to 10713
  139.8730  134.9861  156.5309 LP  0  0  0  0  0  0  0  0  0  0  0  0  # atno 17394 bound_to 11000
  140.8340  133.8257  155.9011 LP  0  0  0  0  0  0  0  0  0  0  0  0  # atno 17395 bound_to 11000

$$$$
