AV-unprocessed.smi:1419|AV-procd|sdf|5780|dock4
  -GOLD-   22720 5423D 1   1.00000     0.00000
 Structure written by MMmdl.
 41 42  0  0  0  0  0  0  0  0  1 V2000
  151.1433  139.5677  155.8688 C   0  0  0  0  0  0  0  0  0  0  0  0
  150.4255  140.8708  156.2448 C   0  0  2  0  0  0  0  0  0  0  0  0
  149.9653  141.6432  154.9900 C   0  0  0  0  0  0  0  0  0  0  0  0
  148.5908  141.3508  154.6243 N   0  0  0  0  0  0  0  0  0  0  0  0
  148.1539  140.4214  153.6892 C   0  0  0  0  0  0  0  0  0  0  0  0
  146.7802  140.5041  153.6647 C   0  0  0  0  0  0  0  0  0  0  0  0
  146.3525  141.4653  154.5773 N   0  0  0  0  0  0  0  0  0  0  0  0
  147.4792  141.9209  155.1097 C   0  0  0  0  0  0  0  0  0  0  0  0
  151.3222  141.6965  157.0530 N   0  0  0  0  0  0  0  0  0  0  0  0
  151.9526  141.3080  158.1757 C   0  0  0  0  0  0  0  0  0  0  0  0
  151.9201  140.1450  158.5804 O   0  0  0  0  0  0  0  0  0  0  0  0
  152.6238  142.2961  158.8168 N   0  0  0  0  0  0  0  0  0  0  0  0
  152.3495  143.7367  158.7303 C   0  0  0  0  0  0  0  0  0  0  0  0
  151.6158  144.1586  160.0197 C   0  0  2  0  0  0  0  0  0  0  0  0
  151.3224  145.6618  160.0555 C   0  0  0  0  0  0  0  0  0  0  0  0
  152.4308  143.8362  161.1468 O   0  0  0  0  0  0  0  0  0  0  0  0
  152.7694  142.4521  161.2394 C   0  0  2  0  0  0  0  0  0  0  0  0
  153.6253  142.2496  162.4941 C   0  0  0  0  0  0  0  0  0  0  0  0
  153.5075  142.0282  159.9532 C   0  0  0  0  0  0  0  0  0  0  0  0
  150.4905  138.9148  155.2888 H   0  0  0  0  0  0  0  0  0  0  0  0
  151.4515  139.0177  156.7588 H   0  0  0  0  0  0  0  0  0  0  0  0
  152.0348  139.7623  155.2714 H   0  0  0  0  0  0  0  0  0  0  0  0
  149.5435  140.5960  156.8260 H   0  0  0  0  0  0  0  0  0  0  0  0
  150.0625  142.7185  155.1472 H   0  0  0  0  0  0  0  0  0  0  0  0
  150.6014  141.3928  154.1400 H   0  0  0  0  0  0  0  0  0  0  0  0
  148.8374  139.8013  153.1283 H   0  0  0  0  0  0  0  0  0  0  0  0
  146.0727  139.9497  153.0660 H   0  0  0  0  0  0  0  0  0  0  0  0
  147.4973  142.6952  155.8625 H   0  0  0  0  0  0  0  0  0  0  0  0
  151.4174  142.6626  156.7764 H   0  0  0  0  0  0  0  0  0  0  0  0
  153.2935  144.2766  158.6401 H   0  0  0  0  0  0  0  0  0  0  0  0
  151.7659  144.0228  157.8554 H   0  0  0  0  0  0  0  0  0  0  0  0
  150.6716  143.6174  160.0996 H   0  0  0  0  0  0  0  0  0  0  0  0
  150.6885  145.9584  159.2197 H   0  0  0  0  0  0  0  0  0  0  0  0
  152.2427  146.2442  160.0020 H   0  0  0  0  0  0  0  0  0  0  0  0
  150.8075  145.9359  160.9766 H   0  0  0  0  0  0  0  0  0  0  0  0
  151.8520  141.8697  161.3457 H   0  0  0  0  0  0  0  0  0  0  0  0
  153.8997  141.2016  162.6156 H   0  0  0  0  0  0  0  0  0  0  0  0
  153.0831  142.5570  163.3885 H   0  0  0  0  0  0  0  0  0  0  0  0
  154.5446  142.8337  162.4438 H   0  0  0  0  0  0  0  0  0  0  0  0
  153.8059  140.9805  160.0148 H   0  0  0  0  0  0  0  0  0  0  0  0
  154.4324  142.5957  159.8381 H   0  0  0  0  0  0  0  0  0  0  0  0
  1  2  1  0  0  0  0
  1 20  1  0  0  0  0
  1 21  1  0  0  0  0
  1 22  1  0  0  0  0
  2  3  1  0  0  0  0
  2  9  1  0  0  0  0
  2 23  1  0  0  0  0
  3  4  1  0  0  0  0
  3 24  1  0  0  0  0
  3 25  1  0  0  0  0
  4  8  1  0  0  0  0
  4  5  1  0  0  0  0
  5  6  2  0  0  0  0
  5 26  1  0  0  0  0
  6  7  1  0  0  0  0
  6 27  1  0  0  0  0
  7  8  2  0  0  0  0
  8 28  1  0  0  0  0
  9 10  1  0  0  0  0
  9 29  1  0  0  0  0
 10 11  2  0  0  0  0
 10 12  1  0  0  0  0
 12 19  1  0  0  0  0
 12 13  1  0  0  0  0
 13 14  1  0  0  0  0
 13 30  1  0  0  0  0
 13 31  1  0  0  0  0
 14 15  1  0  0  0  0
 14 16  1  0  0  0  0
 14 32  1  0  0  0  0
 15 33  1  0  0  0  0
 15 34  1  0  0  0  0
 15 35  1  0  0  0  0
 16 17  1  0  0  0  0
 17 18  1  0  0  0  0
 17 19  1  0  0  0  0
 17 36  1  0  0  0  0
 18 37  1  0  0  0  0
 18 38  1  0  0  0  0
 18 39  1  0  0  0  0
 19 40  1  0  0  0  0
 19 41  1  0  0  0  0
M  END
> <s_m_source_file>
AV-unprocessed.smi

> <i_m_source_file_index>
1419

> <i_lp_mmshare_version>
43012

> <i_f3d_flags>
0

> <s_epik_input>
W2NIXTFuW2NIXVtjSF1uMVtDSDJdW0NAQEhdKFtDSDNdKVtOSF1DKD1PKU4yW0NIMl1bQ0BASF0oW0NIM10pT1tDQEBIXShbQ0gzXSlbQ0gyXTI=

> <s_epik_cmdline>
J2VwaWtfcHl0aG9uJywgJy1waCcsICc3LjAnLCAnLXRuJywgJzgnLCAnLW1hJywgJzIwMCcsICctbWV0YWxfYmluZGluZycsICctaW1hZScsICc8aW5maWxlLm1hZT4nLCAnLW9tYWUnLCAnPG91dGZpbGUubWFlPic=

> <r_lp_tautomer_probability>
1

> <r_epik_Ionization_Penalty>
0.625124

> <r_epik_Ionization_Penalty_Charging>
0.625093

> <r_epik_Ionization_Penalty_Neutral>
3.17415e-05

> <r_epik_State_Penalty>
0.641455

> <r_epik_Charging_Adjusted_Penalty>
1.26655

> <i_epik_Tot_Q>
0

> <i_epik_Tot_abs_Q>
0

> <r_epik_Metal_State_Penalty>
0.307717

> <b_epik_Metal_Only>
0

> <s_lp_Force_Field>
OPLS_2005

> <r_lp_Energy>
27.7679

> <b_lp_Chiralities_Consistent>
1

> <s_lp_Variant>
AV-unprocessed.smi:1419-7

> <Gold.Version>
5.8.1

> <Gold.Id.Protein>
6NUR|6NUR_protein|mol2

> <Gold.PLP.Fitness>
48.6688

> <Gold.PLP.PLP>
-42.0786

> <Gold.PLP.part.hbond>
0.0000

> <Gold.PLP.part.metal>
0.0000

> <Gold.PLP.part.buried>
-1.9480

> <Gold.PLP.part.nonpolar>
-39.8613

> <Gold.PLP.part.repulsive>
0.3214

> <Gold.PLP.ligand.clash>
0.0000

> <Gold.PLP.ligand.torsion>
0.9846

> <Gold.PLP.Chemscore.Hbond>
0.0000

> <Gold.PLP.Chemscore.CHOScore>
2.8266

> <Gold.PLP.Chemscore.Metal>
0.0000

> <Gold.Chemscore.Hbonds>
donor molecule, donor type, donor heavy atom, donor atom, acceptor molecule, acceptor atom, score
      L1  C     5    26       P1  7957  1.00
      L1  C     6    27       P1 10175  1.00
      L1  C     8    28       P1  8028  0.86

> <Gold.PLP.Chemscore.Internal.Correction>
0.0795

> <Gold.Rescore>
     Score         DG    S(hbond)    S(metal)    S(lipo)     H(rot)  DE(clash)    DE(int)     intcor
     12.65     -13.42       0.00        0.00     102.35       1.58       0.00       0.77       ----

> <Gold.Chemscore.Fitness>
12.6492

> <Gold.Chemscore.DG>
-13.4181

> <Gold.Chemscore.ZeroCoef>
-5.4800

> <Gold.Chemscore.Hbond>
0.0000

> <Gold.Chemscore.Metal>
0.0000

> <Gold.Chemscore.Lipo>
102.3507

> <Gold.Chemscore.Internal_Hbond>
0.0000

> <Gold.Chemscore.DEClash>
0.0000

> <Gold.Chemscore.DEInternal>
0.7689

> <Gold.Chemscore.Rot>
1.5769

> <Gold.Chemscore.Internal.Correction>
   9.000000E+99

> <Gold.Chemscore.Hbond.Weighted>
-0.0000

> <Gold.Chemscore.Metal.Weighted>
-0.0000

> <Gold.Chemscore.Lipo.Weighted>
-11.9750

> <Gold.Chemscore.Internal_Hbond.Weighted>
0.0000

> <Gold.Chemscore.DEClash.Weighted>
0.0000

> <Gold.Chemscore.DEInternal.Weighted>
0.7689

> <Gold.Chemscore.Rot.Weighted>
4.0369

> <Gold.Chemscore.Internal.Correction.Weighted>
   9.000000E+99

> <Gold.Protein.RotatedTorsions>
[ 6907 6896 6895 6894 ] final  134.47 input  -60.11 | X-H torsion
[ 7974 7965 7964 7962 ] final  175.10 input  175.53 | X-H torsion
[ 8008 7997 7996 7995 ] final  122.32 input   59.86 | X-H torsion
[ 10167 10162 10161 10158 ] final  155.85 input  -65.29 | X-H torsion
[ 10718 10713 10712 10709 ] final -125.82 input   66.30 | X-H torsion
[ 10763 10752 10751 10750 ] final  -83.52 input  -60.55 | X-H torsion
[ 11005 11000 10999 10996 ] final   10.40 input  -57.11 | X-H torsion

> <Gold.Protein.ActiveResidues>
 VAL166  LYS551  ARG553  GLY616  TRP617  ASP618  TYR619  PRO620  LYS621  CYS622 
 ASP623  PHE694  ASN695  SER759  ASP760  ASP761  ALA762  ILE779  LEU786  VAL792 
 PHE793  MET794  SER795  GLU796  ALA797  LYS798  CYS799  TRP800  GLU811  SER814 

> <Gold.Protein.RotatedAtoms>
  152.3110  133.5752  159.5680 H   0  0  0  0  0  0  0  0  0  0  0  0  # atno 6907 bound_to 6896
  150.7323  134.0152  159.3692 H   0  0  0  0  0  0  0  0  0  0  0  0  # atno 6908 bound_to 6896
  151.8045  135.0699  160.0455 H   0  0  0  0  0  0  0  0  0  0  0  0  # atno 6909 bound_to 6896
  144.7208  139.9897  143.6440 H   0  0  0  0  0  0  0  0  0  0  0  0  # atno 7974 bound_to 7965
  156.2723  140.2788  156.1449 H   0  0  0  0  0  0  0  0  0  0  0  0  # atno 8008 bound_to 7997
  155.0914  140.0388  157.2687 H   0  0  0  0  0  0  0  0  0  0  0  0  # atno 8009 bound_to 7997
  154.6886  140.2624  155.6841 H   0  0  0  0  0  0  0  0  0  0  0  0  # atno 8010 bound_to 7997
  139.4821  144.5062  151.8094 H   0  0  0  0  0  0  0  0  0  0  0  0  # atno 10167 bound_to 10162
  156.1710  130.6667  151.0179 H   0  0  0  0  0  0  0  0  0  0  0  0  # atno 10718 bound_to 10713
  154.5887  135.5553  153.7257 H   0  0  0  0  0  0  0  0  0  0  0  0  # atno 10763 bound_to 10752
  153.0108  135.6338  154.1879 H   0  0  0  0  0  0  0  0  0  0  0  0  # atno 10764 bound_to 10752
  154.1820  135.2886  155.3029 H   0  0  0  0  0  0  0  0  0  0  0  0  # atno 10765 bound_to 10752
  140.5149  134.0615  155.7828 H   0  0  0  0  0  0  0  0  0  0  0  0  # atno 11005 bound_to 11000
  146.0422  139.3432  143.0690 LP  0  0  0  0  0  0  0  0  0  0  0  0  # atno 17320 bound_to 7965
  145.8321  140.9625  143.0844 LP  0  0  0  0  0  0  0  0  0  0  0  0  # atno 17321 bound_to 7965
  140.4560  144.1789  150.5901 LP  0  0  0  0  0  0  0  0  0  0  0  0  # atno 17342 bound_to 10162
  140.4535  143.2477  151.9316 LP  0  0  0  0  0  0  0  0  0  0  0  0  # atno 17343 bound_to 10162
  157.6802  131.0840  150.7389 LP  0  0  0  0  0  0  0  0  0  0  0  0  # atno 17370 bound_to 10713
  156.7448  130.4750  149.5469 LP  0  0  0  0  0  0  0  0  0  0  0  0  # atno 17371 bound_to 10713
  141.1365  133.9212  157.2421 LP  0  0  0  0  0  0  0  0  0  0  0  0  # atno 17394 bound_to 11000
  139.9638  135.0147  156.9332 LP  0  0  0  0  0  0  0  0  0  0  0  0  # atno 17395 bound_to 11000

$$$$
