AV-unprocessed.smi:1943|AV-procd|sdf|7851|dock3
  -GOLD-   22720 9593D 1   1.00000     0.00000
 Structure written by MMmdl.
 48 49  0  0  0  0  0  0  0  0  2 V2000
  143.4437  133.1002  151.3702 C   0  0  0  0  0  0  0  0  0  0  0  0
  143.8190  133.6778  152.6883 N   0  3  0  0  0  0  0  0  0  0  0  0
  142.9894  134.8779  152.9733 C   0  0  0  0  0  0  0  0  0  0  0  0
  145.3003  133.8306  152.9288 C   0  0  0  0  0  0  0  0  0  0  0  0
  146.0522  132.5141  152.6092 C   0  0  0  0  0  0  0  0  0  0  0  0
  145.8962  134.9491  152.0323 C   0  0  0  0  0  0  0  0  0  0  0  0
  145.5181  134.2489  154.4151 C   0  0  0  0  0  0  0  0  0  0  0  0
  146.8954  134.6286  154.7270 N   0  0  0  0  0  0  0  0  0  0  0  0
  147.8060  133.8487  155.3333 C   0  0  0  0  0  0  0  0  0  0  0  0
  147.5730  132.7006  155.7122 O   0  0  0  0  0  0  0  0  0  0  0  0
  149.1703  134.4629  155.4748 C   0  0  0  0  0  0  0  0  0  0  0  0
  149.3793  135.6460  154.8494 N   0  0  0  0  0  0  0  0  0  0  0  0
  150.5726  136.2386  154.9821 C   0  0  0  0  0  0  0  0  0  0  0  0
  150.7695  137.4569  154.3206 N   0  0  0  0  0  0  0  0  0  0  0  0
  149.7712  138.5254  154.3420 C   0  0  0  0  0  0  0  0  0  0  0  0
  150.1129  139.5271  155.4597 C   0  0  0  0  0  0  0  0  0  0  0  0
  151.4259  140.0423  155.2488 O   0  0  0  0  0  0  0  0  0  0  0  0
  152.4208  139.0199  155.2357 C   0  0  0  0  0  0  0  0  0  0  0  0
  152.1073  138.0110  154.1156 C   0  0  0  0  0  0  0  0  0  0  0  0
  151.5941  135.7503  155.6954 N   0  0  0  0  0  0  0  0  0  0  0  0
  151.4111  134.5731  156.3286 C   0  0  0  0  0  0  0  0  0  0  0  0
  150.1949  133.8673  156.2535 C   0  0  0  0  0  0  0  0  0  0  0  0
  150.0294  132.3465  157.0625 Cl  0  0  0  0  0  0  0  0  0  0  0  0
  143.6205  133.8086  150.5601 H   0  0  0  0  0  0  0  0  0  0  0  0
  142.3817  132.8531  151.3586 H   0  0  0  0  0  0  0  0  0  0  0  0
  143.9777  132.1808  151.1399 H   0  0  0  0  0  0  0  0  0  0  0  0
  143.3144  135.7368  152.3855 H   0  0  0  0  0  0  0  0  0  0  0  0
  143.0119  135.1466  154.0291 H   0  0  0  0  0  0  0  0  0  0  0  0
  141.9426  134.6891  152.7327 H   0  0  0  0  0  0  0  0  0  0  0  0
  147.1331  132.6487  152.6582 H   0  0  0  0  0  0  0  0  0  0  0  0
  145.8279  132.1535  151.6054 H   0  0  0  0  0  0  0  0  0  0  0  0
  145.8029  131.7188  153.3120 H   0  0  0  0  0  0  0  0  0  0  0  0
  146.9503  135.1270  152.2462 H   0  0  0  0  0  0  0  0  0  0  0  0
  145.3746  135.8963  152.1755 H   0  0  0  0  0  0  0  0  0  0  0  0
  145.8523  134.6967  150.9725 H   0  0  0  0  0  0  0  0  0  0  0  0
  144.8876  135.1082  154.6468 H   0  0  0  0  0  0  0  0  0  0  0  0
  145.2051  133.4670  155.1054 H   0  0  0  0  0  0  0  0  0  0  0  0
  147.1875  135.5564  154.4542 H   0  0  0  0  0  0  0  0  0  0  0  0
  149.7862  139.0335  153.3771 H   0  0  0  0  0  0  0  0  0  0  0  0
  148.7565  138.1460  154.4610 H   0  0  0  0  0  0  0  0  0  0  0  0
  149.4025  140.3538  155.4549 H   0  0  0  0  0  0  0  0  0  0  0  0
  150.0483  139.0540  156.4410 H   0  0  0  0  0  0  0  0  0  0  0  0
  153.3961  139.4772  155.0692 H   0  0  0  0  0  0  0  0  0  0  0  0
  152.4611  138.5238  156.2069 H   0  0  0  0  0  0  0  0  0  0  0  0
  152.8795  137.2436  154.0709 H   0  0  0  0  0  0  0  0  0  0  0  0
  152.1311  138.5151  153.1488 H   0  0  0  0  0  0  0  0  0  0  0  0
  152.2463  134.1889  156.8952 H   0  0  0  0  0  0  0  0  0  0  0  0
  143.5182  132.9957  153.3700 H   0  0  0  0  0  0  0  0  0  0  0  0
  1  2  1  0  0  0  0
  1 24  1  0  0  0  0
  1 25  1  0  0  0  0
  1 26  1  0  0  0  0
  2  3  1  0  0  0  0
  2  4  1  0  0  0  0
  2 48  1  0  0  0  0
  3 27  1  0  0  0  0
  3 28  1  0  0  0  0
  3 29  1  0  0  0  0
  4  5  1  0  0  0  0
  4  6  1  0  0  0  0
  4  7  1  0  0  0  0
  5 30  1  0  0  0  0
  5 31  1  0  0  0  0
  5 32  1  0  0  0  0
  6 33  1  0  0  0  0
  6 34  1  0  0  0  0
  6 35  1  0  0  0  0
  7  8  1  0  0  0  0
  7 36  1  0  0  0  0
  7 37  1  0  0  0  0
  8  9  1  0  0  0  0
  8 38  1  0  0  0  0
  9 10  2  0  0  0  0
  9 11  1  0  0  0  0
 11 22  1  0  0  0  0
 11 12  2  0  0  0  0
 12 13  1  0  0  0  0
 13 14  1  0  0  0  0
 13 20  2  0  0  0  0
 14 19  1  0  0  0  0
 14 15  1  0  0  0  0
 15 16  1  0  0  0  0
 15 39  1  0  0  0  0
 15 40  1  0  0  0  0
 16 17  1  0  0  0  0
 16 41  1  0  0  0  0
 16 42  1  0  0  0  0
 17 18  1  0  0  0  0
 18 19  1  0  0  0  0
 18 43  1  0  0  0  0
 18 44  1  0  0  0  0
 19 45  1  0  0  0  0
 19 46  1  0  0  0  0
 20 21  1  0  0  0  0
 21 22  2  0  0  0  0
 21 47  1  0  0  0  0
 22 23  1  0  0  0  0
M  CHG  1   2   1
M  END
> <s_m_source_file>
AV-unprocessed.smi

> <i_m_source_file_index>
1943

> <i_lp_mmshare_version>
43012

> <i_f3d_flags>
0

> <s_epik_input>
W0NIM11OKFtDSDNdKUMoW0NIM10pKFtDSDNdKVtDSDJdW05IXUMoPU8pYzFuYyhuW2NIXWMxQ2wpTjJbQ0gyXVtDSDJdT1tDSDJdW0NIMl0y

> <s_epik_cmdline>
J2VwaWtfcHl0aG9uJywgJy1waCcsICc3LjAnLCAnLXRuJywgJzgnLCAnLW1hJywgJzIwMCcsICctbWV0YWxfYmluZGluZycsICctaW1hZScsICc8aW5maWxlLm1hZT4nLCAnLW9tYWUnLCAnPG91dGZpbGUubWFlPic=

> <r_lp_tautomer_probability>
1

> <r_epik_Ionization_Penalty>
0.00747112

> <r_epik_Ionization_Penalty_Charging>
0.00734137

> <r_epik_Ionization_Penalty_Neutral>
0.000129757

> <r_epik_State_Penalty>
0.00547931

> <r_epik_Charging_Adjusted_Penalty>
0.0128207

> <i_epik_Tot_Q>
1

> <i_epik_Tot_abs_Q>
1

> <r_epik_Metal_State_Penalty>
0.0979204

> <b_epik_Metal_Only>
0

> <s_lp_Force_Field>
OPLS_2005

> <r_lp_Energy>
30.7364

> <b_lp_Chiralities_Consistent>
1

> <s_lp_Variant>
AV-unprocessed.smi:1943-1

> <Gold.Version>
5.8.1

> <Gold.Id.Protein>
6NUR|6NUR_protein|mol2

> <Gold.PLP.Fitness>
42.3356

> <Gold.PLP.PLP>
-31.4648

> <Gold.PLP.part.hbond>
-2.9964

> <Gold.PLP.part.metal>
0.0000

> <Gold.PLP.part.buried>
-6.2579

> <Gold.PLP.part.nonpolar>
-24.5667

> <Gold.PLP.part.repulsive>
0.3493

> <Gold.PLP.ligand.clash>
0.0000

> <Gold.PLP.ligand.torsion>
0.7281

> <Gold.PLP.Chemscore.Hbond>
4.0000

> <Gold.PLP.Chemscore.CHOScore>
0.0000

> <Gold.PLP.Chemscore.Metal>
0.0000

> <Gold.Chemscore.Hbonds>
donor molecule, donor type, donor heavy atom, donor atom, acceptor molecule, acceptor atom, score
      L1  H     2    48       P1 10957  1.89
      P1  H  7989  7998       L1    17  1.00
      P1  H 10752 10763       L1    20  1.00

> <Gold.PLP.Chemscore.Internal.Correction>
0.3270

> <Gold.Rescore>
     Score         DG    S(hbond)    S(metal)    S(lipo)     H(rot)  DE(clash)    DE(int)     intcor
     15.05     -17.48       2.21        0.00      70.82       1.43       0.23       2.20       ----

> <Gold.Chemscore.Fitness>
15.0476

> <Gold.Chemscore.DG>
-17.4775

> <Gold.Chemscore.ZeroCoef>
-5.4800

> <Gold.Chemscore.Hbond>
2.2073

> <Gold.Chemscore.Metal>
0.0000

> <Gold.Chemscore.Lipo>
70.8175

> <Gold.Chemscore.Internal_Hbond>
0.0000

> <Gold.Chemscore.DEClash>
0.2319

> <Gold.Chemscore.DEInternal>
2.1980

> <Gold.Chemscore.Rot>
1.4298

> <Gold.Chemscore.Internal.Correction>
   9.000000E+99

> <Gold.Chemscore.Hbonds>
donor molecule, donor type, donor heavy atom, donor atom, acceptor molecule, acceptor atom, score
      L1  H     2    48       P1 10957  0.71
      P1  H  7989  7998       L1    17  0.29
      P1  H 10752 10763       L1    20  0.42

> <Gold.Chemscore.Hbond.Weighted>
-7.3722

> <Gold.Chemscore.Metal.Weighted>
-0.0000

> <Gold.Chemscore.Lipo.Weighted>
-8.2856

> <Gold.Chemscore.Internal_Hbond.Weighted>
0.0000

> <Gold.Chemscore.DEClash.Weighted>
0.2319

> <Gold.Chemscore.DEInternal.Weighted>
2.1980

> <Gold.Chemscore.Rot.Weighted>
3.6604

> <Gold.Chemscore.Internal.Correction.Weighted>
   9.000000E+99

> <Gold.Protein.RotatedTorsions>
[ 6907 6896 6895 6894 ] final  150.20 input  -60.11 | X-H torsion
[ 7974 7965 7964 7962 ] final   93.57 input  175.53 | X-H torsion
[ 8008 7997 7996 7995 ] final   92.66 input   59.86 | X-H torsion
[ 10167 10162 10161 10158 ] final   -6.46 input  -65.29 | X-H torsion
[ 10718 10713 10712 10709 ] final -110.67 input   66.30 | X-H torsion
[ 10763 10752 10751 10750 ] final   62.95 input  -60.55 | X-H torsion
[ 11005 11000 10999 10996 ] final  -21.48 input  -57.11 | X-H torsion

> <Gold.Protein.ActiveResidues>
 VAL166  LYS551  ARG553  GLY616  TRP617  ASP618  TYR619  PRO620  LYS621  CYS622 
 ASP623  PHE694  ASN695  SER759  ASP760  ASP761  ALA762  ILE779  LEU786  VAL792 
 PHE793  MET794  SER795  GLU796  ALA797  LYS798  CYS799  TRP800  GLU811  SER814 

> <Gold.Protein.RotatedAtoms>
  152.1177  133.4336  159.4660 H   0  0  0  0  0  0  0  0  0  0  0  0  # atno 6907 bound_to 6896
  150.6870  134.2572  159.4544 H   0  0  0  0  0  0  0  0  0  0  0  0  # atno 6908 bound_to 6896
  152.0446  134.9690  160.0625 H   0  0  0  0  0  0  0  0  0  0  0  0  # atno 6909 bound_to 6896
  145.4772  139.2279  143.2902 H   0  0  0  0  0  0  0  0  0  0  0  0  # atno 7974 bound_to 7965
  156.0379  140.3322  155.7211 H   0  0  0  0  0  0  0  0  0  0  0  0  # atno 8008 bound_to 7997
  155.5788  140.0635  157.2806 H   0  0  0  0  0  0  0  0  0  0  0  0  # atno 8009 bound_to 7997
  154.4380  140.1848  156.0943 H   0  0  0  0  0  0  0  0  0  0  0  0  # atno 8010 bound_to 7997
  140.6998  143.6191  150.8630 H   0  0  0  0  0  0  0  0  0  0  0  0  # atno 10167 bound_to 10162
  156.0604  130.5827  150.8269 H   0  0  0  0  0  0  0  0  0  0  0  0  # atno 10718 bound_to 10713
  153.0000  135.5446  154.6275 H   0  0  0  0  0  0  0  0  0  0  0  0  # atno 10763 bound_to 10752
  154.5560  135.2830  155.0966 H   0  0  0  0  0  0  0  0  0  0  0  0  # atno 10764 bound_to 10752
  154.2187  135.6454  153.5190 H   0  0  0  0  0  0  0  0  0  0  0  0  # atno 10765 bound_to 10752
  140.8565  133.7819  156.0026 H   0  0  0  0  0  0  0  0  0  0  0  0  # atno 11005 bound_to 11000
  146.2362  140.5555  142.8954 LP  0  0  0  0  0  0  0  0  0  0  0  0  # atno 17320 bound_to 7965
  144.7910  140.6032  143.6541 LP  0  0  0  0  0  0  0  0  0  0  0  0  # atno 17321 bound_to 7965
  139.9912  143.5845  152.2909 LP  0  0  0  0  0  0  0  0  0  0  0  0  # atno 17342 bound_to 10162
  139.6501  144.7660  151.2166 LP  0  0  0  0  0  0  0  0  0  0  0  0  # atno 17343 bound_to 10162
  157.5608  131.0946  150.9562 LP  0  0  0  0  0  0  0  0  0  0  0  0  # atno 17370 bound_to 10713
  156.9800  130.5523  149.5296 LP  0  0  0  0  0  0  0  0  0  0  0  0  # atno 17371 bound_to 10713
  140.8731  134.2702  157.5181 LP  0  0  0  0  0  0  0  0  0  0  0  0  # atno 17394 bound_to 11000
  139.8705  134.9577  156.4278 LP  0  0  0  0  0  0  0  0  0  0  0  0  # atno 17395 bound_to 11000

$$$$
