AV-unprocessed.smi:315|AV-procd|sdf|2318|dock8
  -GOLD-   2262022223D 1   1.00000     0.00000
 Structure written by MMmdl.
 47 49  0  0  0  0  0  0  0  0  2 V2000
  151.6692  138.5084  155.7995 C   0  0  0  0  0  0  0  0  0  0  0  0
  151.6312  138.2462  154.2920 C   0  0  0  0  0  0  0  0  0  0  0  0
  150.2725  138.2529  153.8678 O   0  0  0  0  0  0  0  0  0  0  0  0
  149.5187  139.3949  154.0620 C   0  0  0  0  0  0  0  0  0  0  0  0
  150.1122  140.4754  154.6274 N   0  0  0  0  0  0  0  0  0  0  0  0
  149.3722  141.5874  154.8166 C   0  0  0  0  0  0  0  0  0  0  0  0
  148.0131  141.6782  154.4628 C   0  0  0  0  0  0  0  0  0  0  0  0
  147.3953  140.5579  153.8765 C   0  0  0  0  0  0  0  0  0  0  0  0
  148.1639  139.3894  153.6585 C   0  0  0  0  0  0  0  0  0  0  0  0
  147.6484  138.1934  153.0912 N   0  0  0  0  0  0  0  0  0  0  0  0
  146.4002  137.9228  152.6647 C   0  0  0  0  0  0  0  0  0  0  0  0
  145.4405  138.6830  152.7668 O   0  0  0  0  0  0  0  0  0  0  0  0
  146.2747  136.7164  152.0835 N   0  0  0  0  0  0  0  0  0  0  0  0
  145.0662  136.1157  151.5159 C   0  0  2  0  0  0  0  0  0  0  0  0
  143.7978  136.3126  152.3717 C   0  0  0  0  0  0  0  0  0  0  0  0
  143.0205  134.9861  152.2660 C   0  0  0  0  0  0  0  0  0  0  0  0
  143.7854  134.1614  151.3116 N   0  3  2  0  0  0  0  0  0  0  0  0
  143.6288  132.6938  151.4101 C   0  0  0  0  0  0  0  0  0  0  0  0
  144.4403  132.0197  150.2852 C   0  0  0  0  0  0  0  0  0  0  0  0
  145.9114  132.4845  150.2821 C   0  0  0  0  0  0  0  0  0  0  0  0
  146.0088  134.0222  150.2718 C   0  0  0  0  0  0  0  0  0  0  0  0
  145.1852  134.5946  151.4367 C   0  0  1  0  0  0  0  0  0  0  0  0
  152.6947  138.5120  156.1688 H   0  0  0  0  0  0  0  0  0  0  0  0
  151.1203  137.7392  156.3433 H   0  0  0  0  0  0  0  0  0  0  0  0
  151.2231  139.4736  156.0404 H   0  0  0  0  0  0  0  0  0  0  0  0
  152.1968  139.0196  153.7696 H   0  0  0  0  0  0  0  0  0  0  0  0
  152.0948  137.2821  154.0767 H   0  0  0  0  0  0  0  0  0  0  0  0
  149.8768  142.4282  155.2690 H   0  0  0  0  0  0  0  0  0  0  0  0
  147.4555  142.5857  154.6411 H   0  0  0  0  0  0  0  0  0  0  0  0
  146.3489  140.6140  153.6207 H   0  0  0  0  0  0  0  0  0  0  0  0
  148.3413  137.4878  152.8889 H   0  0  0  0  0  0  0  0  0  0  0  0
  147.1133  136.1560  152.0307 H   0  0  0  0  0  0  0  0  0  0  0  0
  144.8910  136.5072  150.5115 H   0  0  0  0  0  0  0  0  0  0  0  0
  144.0483  136.5100  153.4150 H   0  0  0  0  0  0  0  0  0  0  0  0
  143.2074  137.1563  152.0118 H   0  0  0  0  0  0  0  0  0  0  0  0
  142.9836  134.4963  153.2404 H   0  0  0  0  0  0  0  0  0  0  0  0
  141.9968  135.1301  151.9196 H   0  0  0  0  0  0  0  0  0  0  0  0
  143.9699  132.3481  152.3871 H   0  0  0  0  0  0  0  0  0  0  0  0
  142.5740  132.4310  151.3241 H   0  0  0  0  0  0  0  0  0  0  0  0
  144.3912  130.9352  150.3868 H   0  0  0  0  0  0  0  0  0  0  0  0
  143.9876  132.2586  149.3220 H   0  0  0  0  0  0  0  0  0  0  0  0
  146.4153  132.0956  151.1680 H   0  0  0  0  0  0  0  0  0  0  0  0
  146.4354  132.0689  149.4209 H   0  0  0  0  0  0  0  0  0  0  0  0
  147.0506  134.3330  150.3546 H   0  0  0  0  0  0  0  0  0  0  0  0
  145.6395  134.4107  149.3217 H   0  0  0  0  0  0  0  0  0  0  0  0
  145.5817  134.2164  152.3823 H   0  0  0  0  0  0  0  0  0  0  0  0
  143.4829  134.4358  150.3878 H   0  0  0  0  0  0  0  0  0  0  0  0
  1  2  1  0  0  0  0
  1 23  1  0  0  0  0
  1 24  1  0  0  0  0
  1 25  1  0  0  0  0
  2  3  1  0  0  0  0
  2 26  1  0  0  0  0
  2 27  1  0  0  0  0
  3  4  1  0  0  0  0
  4  9  1  0  0  0  0
  4  5  2  0  0  0  0
  5  6  1  0  0  0  0
  6  7  2  0  0  0  0
  6 28  1  0  0  0  0
  7  8  1  0  0  0  0
  7 29  1  0  0  0  0
  8  9  2  0  0  0  0
  8 30  1  0  0  0  0
  9 10  1  0  0  0  0
 10 11  1  0  0  0  0
 10 31  1  0  0  0  0
 11 12  2  0  0  0  0
 11 13  1  0  0  0  0
 13 14  1  0  0  0  0
 13 32  1  0  0  0  0
 14 22  1  0  0  0  0
 14 15  1  0  0  0  0
 14 33  1  0  0  0  0
 15 16  1  0  0  0  0
 15 34  1  0  0  0  0
 15 35  1  0  0  0  0
 16 17  1  0  0  0  0
 16 36  1  0  0  0  0
 16 37  1  0  0  0  0
 17 22  1  0  0  0  0
 17 18  1  0  0  0  0
 17 47  1  0  0  0  0
 18 19  1  0  0  0  0
 18 38  1  0  0  0  0
 18 39  1  0  0  0  0
 19 20  1  0  0  0  0
 19 40  1  0  0  0  0
 19 41  1  0  0  0  0
 20 21  1  0  0  0  0
 20 42  1  0  0  0  0
 20 43  1  0  0  0  0
 21 22  1  0  0  0  0
 21 44  1  0  0  0  0
 21 45  1  0  0  0  0
 22 46  1  0  0  0  0
M  CHG  1  17   1
M  END
> <s_m_source_file>
AV-unprocessed.smi

> <i_m_source_file_index>
315

> <i_lp_mmshare_version>
43012

> <i_f3d_flags>
0

> <s_epik_input>
W0NIM11bQ0gyXU9jMW5bY0hdW2NIXVtjSF1jMVtOSF1DKD1PKVtOSF1bQ0BIXShbQ0gyXVtDSDJdMilbQ0BASF0oTjIzKVtDSDJdW0NIMl1bQ0gyXVtDSDJdMw==

> <s_epik_cmdline>
J2VwaWtfcHl0aG9uJywgJy1waCcsICc3LjAnLCAnLXRuJywgJzgnLCAnLW1hJywgJzIwMCcsICctbWV0YWxfYmluZGluZycsICctaW1hZScsICc8aW5maWxlLm1hZT4nLCAnLW9tYWUnLCAnPG91dGZpbGUubWFlPic=

> <r_lp_tautomer_probability>
1

> <r_epik_Ionization_Penalty>
0.00106455

> <r_epik_Ionization_Penalty_Charging>
0.000974069

> <r_epik_Ionization_Penalty_Neutral>
9.04821e-05

> <r_epik_State_Penalty>
0.000633842

> <r_epik_Charging_Adjusted_Penalty>
0.00160791

> <i_epik_Tot_Q>
1

> <i_epik_Tot_abs_Q>
1

> <r_epik_Metal_State_Penalty>
-0

> <b_epik_Metal_Only>
0

> <s_lp_Force_Field>
OPLS_2005

> <r_lp_Energy>
47.5763

> <b_lp_Chiralities_Consistent>
1

> <s_lp_Variant>
AV-unprocessed.smi:315-3

> <Gold.Version>
5.8.1

> <Gold.Id.Protein>
6NUR|6NUR_protein|mol2

> <Gold.PLP.Fitness>
45.3380

> <Gold.PLP.PLP>
-34.8721

> <Gold.PLP.part.hbond>
-3.1062

> <Gold.PLP.part.metal>
0.0000

> <Gold.PLP.part.buried>
-2.1033

> <Gold.PLP.part.nonpolar>
-34.9568

> <Gold.PLP.part.repulsive>
4.5648

> <Gold.PLP.ligand.clash>
0.0000

> <Gold.PLP.ligand.torsion>
0.2700

> <Gold.PLP.Chemscore.Hbond>
2.7520

> <Gold.PLP.Chemscore.CHOScore>
0.9129

> <Gold.PLP.Chemscore.Metal>
0.0000

> <Gold.Chemscore.Hbonds>
donor molecule, donor type, donor heavy atom, donor atom, acceptor molecule, acceptor atom, score
      L1  H    10    31       P1  7948  1.00
      L1  H    13    32       P1  7948  0.88
      P1  H  7989  7998       L1     5  0.93
      L1  C     6    28       P1  8028  0.92

> <Gold.PLP.Chemscore.Internal.Correction>
0.0111

> <Gold.Rescore>
     Score         DG    S(hbond)    S(metal)    S(lipo)     H(rot)  DE(clash)    DE(int)     intcor
     13.92     -19.98       2.21        0.00      90.90       1.38       1.94       4.13       ----

> <Gold.Chemscore.Fitness>
13.9159

> <Gold.Chemscore.DG>
-19.9838

> <Gold.Chemscore.ZeroCoef>
-5.4800

> <Gold.Chemscore.Hbond>
2.2138

> <Gold.Chemscore.Metal>
0.0000

> <Gold.Chemscore.Lipo>
90.8973

> <Gold.Chemscore.Internal_Hbond>
0.0000

> <Gold.Chemscore.DEClash>
1.9408

> <Gold.Chemscore.DEInternal>
4.1270

> <Gold.Chemscore.Rot>
1.3770

> <Gold.Chemscore.Internal.Correction>
   9.000000E+99

> <Gold.Chemscore.Hbonds>
donor molecule, donor type, donor heavy atom, donor atom, acceptor molecule, acceptor atom, score
      L1  H    10    31       P1  7948  0.94
      L1  H    13    32       P1  7948  0.87
      P1  H  7989  7998       L1     5  0.31

> <Gold.Chemscore.Hbond.Weighted>
-7.3940

> <Gold.Chemscore.Metal.Weighted>
-0.0000

> <Gold.Chemscore.Lipo.Weighted>
-10.6350

> <Gold.Chemscore.Internal_Hbond.Weighted>
0.0000

> <Gold.Chemscore.DEClash.Weighted>
1.9408

> <Gold.Chemscore.DEInternal.Weighted>
4.1270

> <Gold.Chemscore.Rot.Weighted>
3.5252

> <Gold.Chemscore.Internal.Correction.Weighted>
   9.000000E+99

> <Gold.Protein.RotatedTorsions>
[ 6907 6896 6895 6894 ] final   75.87 input  -60.11 | X-H torsion
[ 7974 7965 7964 7962 ] final  -28.29 input  175.53 | X-H torsion
[ 8008 7997 7996 7995 ] final  157.00 input   59.86 | X-H torsion
[ 10167 10162 10161 10158 ] final    7.90 input  -65.29 | X-H torsion
[ 10718 10713 10712 10709 ] final -149.24 input   66.30 | X-H torsion
[ 10763 10752 10751 10750 ] final  -86.17 input  -60.55 | X-H torsion
[ 11005 11000 10999 10996 ] final   24.04 input  -57.11 | X-H torsion

> <Gold.Protein.ActiveResidues>
 VAL166  LYS551  ARG553  GLY616  TRP617  ASP618  TYR619  PRO620  LYS621  CYS622 
 ASP623  PHE694  ASN695  SER759  ASP760  ASP761  ALA762  ILE779  LEU786  VAL792 
 PHE793  MET794  SER795  GLU796  ALA797  LYS798  CYS799  TRP800  GLU811  SER814 

> <Gold.Protein.RotatedAtoms>
  152.5046  134.4055  159.9430 H   0  0  0  0  0  0  0  0  0  0  0  0  # atno 6907 bound_to 6896
  151.4021  133.3748  159.2741 H   0  0  0  0  0  0  0  0  0  0  0  0  # atno 6908 bound_to 6896
  150.9354  134.8788  159.7637 H   0  0  0  0  0  0  0  0  0  0  0  0  # atno 6909 bound_to 6896
  146.1299  140.5263  142.8698 H   0  0  0  0  0  0  0  0  0  0  0  0  # atno 7974 bound_to 7965
  156.2390  140.1897  156.7041 H   0  0  0  0  0  0  0  0  0  0  0  0  # atno 8008 bound_to 7997
  154.6160  140.0615  156.9582 H   0  0  0  0  0  0  0  0  0  0  0  0  # atno 8009 bound_to 7997
  155.1938  140.3286  155.4357 H   0  0  0  0  0  0  0  0  0  0  0  0  # atno 8010 bound_to 7997
  140.6345  143.7917  150.7341 H   0  0  0  0  0  0  0  0  0  0  0  0  # atno 10167 bound_to 10162
  156.4305  130.8073  151.2300 H   0  0  0  0  0  0  0  0  0  0  0  0  # atno 10718 bound_to 10713
  154.6194  135.5459  153.7559 H   0  0  0  0  0  0  0  0  0  0  0  0  # atno 10763 bound_to 10752
  153.0231  135.6409  154.1462 H   0  0  0  0  0  0  0  0  0  0  0  0  # atno 10764 bound_to 10752
  154.1397  135.2909  155.3144 H   0  0  0  0  0  0  0  0  0  0  0  0  # atno 10765 bound_to 10752
  140.3630  134.2105  155.7671 H   0  0  0  0  0  0  0  0  0  0  0  0  # atno 11005 bound_to 11000
  144.7679  140.5573  143.6690 LP  0  0  0  0  0  0  0  0  0  0  0  0  # atno 17320 bound_to 7965
  145.5284  139.1475  143.3513 LP  0  0  0  0  0  0  0  0  0  0  0  0  # atno 17321 bound_to 7965
  140.1535  143.4337  152.2115 LP  0  0  0  0  0  0  0  0  0  0  0  0  # atno 17342 bound_to 10162
  139.5557  144.7371  151.4302 LP  0  0  0  0  0  0  0  0  0  0  0  0  # atno 17343 bound_to 10162
  157.7508  131.0200  150.3689 LP  0  0  0  0  0  0  0  0  0  0  0  0  # atno 17370 bound_to 10713
  156.4025  130.3918  149.6949 LP  0  0  0  0  0  0  0  0  0  0  0  0  # atno 17371 bound_to 10713
  141.1978  133.8050  157.0610 LP  0  0  0  0  0  0  0  0  0  0  0  0  # atno 17394 bound_to 11000
  140.0611  134.9754  157.1307 LP  0  0  0  0  0  0  0  0  0  0  0  0  # atno 17395 bound_to 11000

$$$$
