AV-unprocessed.smi:103|AV-procd|sdf|991|dock6
  -GOLD-   2262017573D 1   1.00000     0.00000
 Structure written by MMmdl.
 53 55  0  0  0  0  0  0  0  0  1 V2000
  139.3279  135.1890  160.6910 C   0  0  0  0  0  0  0  0  0  0  0  0
  140.7927  135.3188  160.2958 C   0  0  0  0  0  0  0  0  0  0  0  0
  141.2053  134.9031  159.2126 O   0  0  0  0  0  0  0  0  0  0  0  0
  141.5267  135.9220  161.2439 O   0  0  0  0  0  0  0  0  0  0  0  0
  142.9209  136.1002  161.0509 C   0  0  0  0  0  0  0  0  0  0  0  0
  143.4266  137.2069  161.9926 C   0  0  2  0  0  0  0  0  0  0  0  0
  143.1264  138.4669  161.3862 O   0  0  0  0  0  0  0  0  0  0  0  0
  144.2960  139.1695  161.0957 C   0  0  2  0  0  0  0  0  0  0  0  0
  144.1447  139.8848  159.7853 N   0  0  0  0  0  0  0  0  0  0  0  0
  144.3122  141.2261  159.5062 C   0  0  0  0  0  0  0  0  0  0  0  0
  144.6804  142.5169  160.6875 S   0  0  0  0  0  0  0  0  0  0  0  0
  144.3635  144.0306  159.6942 C   0  0  0  0  0  0  0  0  0  0  0  0
  143.6798  142.4270  161.7617 O   0  0  0  0  0  0  0  0  0  0  0  0
  146.1165  142.4224  160.9931 O   0  0  0  0  0  0  0  0  0  0  0  0
  144.0720  141.6065  158.2811 N   0  0  0  0  0  0  0  0  0  0  0  0
  143.7854  140.4136  157.6337 C   0  0  0  0  0  0  0  0  0  0  0  0
  143.4699  140.0725  156.2943 C   0  0  0  0  0  0  0  0  0  0  0  0
  143.3863  140.9780  155.3097 N   0  0  0  0  0  0  0  0  0  0  0  0
  143.2451  138.7725  155.9929 N   0  0  0  0  0  0  0  0  0  0  0  0
  143.3223  137.8506  156.9574 C   0  0  0  0  0  0  0  0  0  0  0  0
  143.6016  138.0197  158.2519 N   0  0  0  0  0  0  0  0  0  0  0  0
  143.8304  139.3303  158.5580 C   0  0  0  0  0  0  0  0  0  0  0  0
  145.4452  138.1536  161.1025 C   0  0  2  0  0  0  0  0  0  0  0  0
  145.5634  137.4833  159.8478 O   0  0  0  0  0  0  0  0  0  0  0  0
  146.7680  137.1348  159.3621 C   0  0  0  0  0  0  0  0  0  0  0  0
  146.6566  136.2808  158.1069 C   0  0  0  0  0  0  0  0  0  0  0  0
  147.8606  137.4609  159.8254 O   0  0  0  0  0  0  0  0  0  0  0  0
  144.9529  137.2212  162.1925 C   0  0  2  0  0  0  0  0  0  0  0  0
  145.5938  135.9515  162.1312 O   0  0  0  0  0  0  0  0  0  0  0  0
  146.9175  135.8517  162.3375 C   0  0  0  0  0  0  0  0  0  0  0  0
  147.3573  134.4173  162.5982 C   0  0  0  0  0  0  0  0  0  0  0  0
  147.7234  136.7822  162.3355 O   0  0  0  0  0  0  0  0  0  0  0  0
  138.9540  136.1358  161.0812 H   0  0  0  0  0  0  0  0  0  0  0  0
  139.2104  134.4255  161.4602 H   0  0  0  0  0  0  0  0  0  0  0  0
  138.7224  134.9086  159.8285 H   0  0  0  0  0  0  0  0  0  0  0  0
  143.4175  135.1546  161.2699 H   0  0  0  0  0  0  0  0  0  0  0  0
  143.1480  136.3513  160.0148 H   0  0  0  0  0  0  0  0  0  0  0  0
  142.9267  137.1249  162.9582 H   0  0  0  0  0  0  0  0  0  0  0  0
  144.4144  139.9516  161.8449 H   0  0  0  0  0  0  0  0  0  0  0  0
  144.5534  144.9123  160.3056 H   0  0  0  0  0  0  0  0  0  0  0  0
  143.3269  144.0370  159.3581 H   0  0  0  0  0  0  0  0  0  0  0  0
  145.0248  144.0404  158.8278 H   0  0  0  0  0  0  0  0  0  0  0  0
  143.5520  141.9542  155.5090 H   0  0  0  0  0  0  0  0  0  0  0  0
  143.1610  140.6825  154.3710 H   0  0  0  0  0  0  0  0  0  0  0  0
  143.1326  136.8327  156.6498 H   0  0  0  0  0  0  0  0  0  0  0  0
  146.3781  138.6373  161.3927 H   0  0  0  0  0  0  0  0  0  0  0  0
  146.0374  136.7831  157.3629 H   0  0  0  0  0  0  0  0  0  0  0  0
  146.2037  135.3178  158.3435 H   0  0  0  0  0  0  0  0  0  0  0  0
  147.6418  136.1044  157.6744 H   0  0  0  0  0  0  0  0  0  0  0  0
  145.1723  137.7011  163.1481 H   0  0  0  0  0  0  0  0  0  0  0  0
  146.9283  133.7457  161.8542 H   0  0  0  0  0  0  0  0  0  0  0  0
  147.0286  134.0963  163.5867 H   0  0  0  0  0  0  0  0  0  0  0  0
  148.4434  134.3354  162.5506 H   0  0  0  0  0  0  0  0  0  0  0  0
  1  2  1  0  0  0  0
  1 33  1  0  0  0  0
  1 34  1  0  0  0  0
  1 35  1  0  0  0  0
  2  3  2  0  0  0  0
  2  4  1  0  0  0  0
  4  5  1  0  0  0  0
  5  6  1  0  0  0  0
  5 36  1  0  0  0  0
  5 37  1  0  0  0  0
  6 28  1  0  0  0  0
  6  7  1  0  0  0  0
  6 38  1  0  0  0  0
  7  8  1  0  0  0  0
  8  9  1  0  0  0  0
  8 23  1  0  0  0  0
  8 39  1  0  0  0  0
  9 22  1  0  0  0  0
  9 10  1  0  0  0  0
 10 11  1  0  0  0  0
 10 15  2  0  0  0  0
 11 12  1  0  0  0  0
 11 13  2  0  0  0  0
 11 14  2  0  0  0  0
 12 40  1  0  0  0  0
 12 41  1  0  0  0  0
 12 42  1  0  0  0  0
 15 16  1  0  0  0  0
 16 22  2  0  0  0  0
 16 17  1  0  0  0  0
 17 18  1  0  0  0  0
 17 19  2  0  0  0  0
 18 43  1  0  0  0  0
 18 44  1  0  0  0  0
 19 20  1  0  0  0  0
 20 21  2  0  0  0  0
 20 45  1  0  0  0  0
 21 22  1  0  0  0  0
 23 24  1  0  0  0  0
 23 28  1  0  0  0  0
 23 46  1  0  0  0  0
 24 25  1  0  0  0  0
 25 26  1  0  0  0  0
 25 27  2  0  0  0  0
 26 47  1  0  0  0  0
 26 48  1  0  0  0  0
 26 49  1  0  0  0  0
 28 29  1  0  0  0  0
 28 50  1  0  0  0  0
 29 30  1  0  0  0  0
 30 31  1  0  0  0  0
 30 32  2  0  0  0  0
 31 51  1  0  0  0  0
 31 52  1  0  0  0  0
 31 53  1  0  0  0  0
M  END
> <s_m_source_file>
AV-unprocessed.smi

> <i_m_source_file_index>
103

> <i_lp_mmshare_version>
43012

> <i_f3d_flags>
0

> <s_epik_input>
W0NIM11DKD1PKU9bQ0gyXVtDQEBIXTFPW0NASF0oW0NAQEhdKE9DKD1PKVtDSDNdKVtDQEhdMU9DKD1PKVtDSDNdKW4oYyhuMilTKD1PKSg9TylbQ0gzXSljKGMyMyluW2NIXW5jM1tOSDJd

> <s_epik_cmdline>
J2VwaWtfcHl0aG9uJywgJy1waCcsICc3LjAnLCAnLXRuJywgJzgnLCAnLW1hJywgJzIwMCcsICctbWV0YWxfYmluZGluZycsICctaW1hZScsICc8aW5maWxlLm1hZT4nLCAnLW9tYWUnLCAnPG91dGZpbGUubWFlPic=

> <r_lp_tautomer_probability>
1

> <r_epik_Ionization_Penalty>
1.51338e-05

> <r_epik_Ionization_Penalty_Charging>
0

> <r_epik_Ionization_Penalty_Neutral>
1.51338e-05

> <r_epik_State_Penalty>
-0

> <r_epik_Charging_Adjusted_Penalty>
0

> <i_epik_Tot_Q>
0

> <i_epik_Tot_abs_Q>
0

> <r_epik_Metal_State_Penalty>
-0

> <b_epik_Metal_Only>
0

> <s_epik_Chemistry_Notes>
This compound has an ester and may undergo hydrolysis at high or low pH. This compound contains an acetal/aminal-like group ( X-CH(R)-Y where X, Y are N, S, or O) that may be acid/base labile, releasing an aldehyde.

> <s_lp_Force_Field>
OPLS_2005

> <r_lp_Energy>
16.3317

> <b_lp_Chiralities_Consistent>
1

> <s_lp_Variant>
AV-unprocessed.smi:103-15

> <Gold.Version>
5.8.1

> <Gold.Id.Protein>
6NUR|6NUR_protein|mol2

> <Gold.PLP.Fitness>
38.3010

> <Gold.PLP.PLP>
-26.6709

> <Gold.PLP.part.hbond>
-8.0543

> <Gold.PLP.part.metal>
0.0000

> <Gold.PLP.part.buried>
-2.2090

> <Gold.PLP.part.nonpolar>
-16.9464

> <Gold.PLP.part.repulsive>
0.0547

> <Gold.PLP.ligand.clash>
0.0000

> <Gold.PLP.ligand.torsion>
2.3421

> <Gold.PLP.Chemscore.Hbond>
4.6256

> <Gold.PLP.Chemscore.CHOScore>
0.0000

> <Gold.PLP.Chemscore.Metal>
0.0000

> <Gold.Chemscore.Hbonds>
donor molecule, donor type, donor heavy atom, donor atom, acceptor molecule, acceptor atom, score
      L1  H    18    44       P1 10175  1.00
      P1  H  6931  6943       L1    32  1.00
      P1  H  6933  6944       L1    14  0.04
      P1  H  6934  6946       L1    14  1.00
      P1  H  6934  6947       L1    27  0.58
      P1  H 11000 11005       L1     3  1.00

> <Gold.PLP.Chemscore.Internal.Correction>
2.4374

> <Gold.Rescore>
     Score         DG    S(hbond)    S(metal)    S(lipo)     H(rot)  DE(clash)    DE(int)     intcor
      1.58     -10.57       3.81        0.00      27.47       4.25       2.72       6.27       ----

> <Gold.Chemscore.Fitness>
1.5800

> <Gold.Chemscore.DG>
-10.5669

> <Gold.Chemscore.ZeroCoef>
-5.4800

> <Gold.Chemscore.Hbond>
3.8148

> <Gold.Chemscore.Metal>
0.0000

> <Gold.Chemscore.Lipo>
27.4707

> <Gold.Chemscore.Internal_Hbond>
0.0000

> <Gold.Chemscore.DEClash>
2.7206

> <Gold.Chemscore.DEInternal>
6.2664

> <Gold.Chemscore.Rot>
4.2456

> <Gold.Chemscore.Internal.Correction>
   9.000000E+99

> <Gold.Chemscore.Hbonds>
donor molecule, donor type, donor heavy atom, donor atom, acceptor molecule, acceptor atom, score
      L1  H    18    44       P1 10175  0.88
      P1  H  6931  6943       L1    32  0.94
      P1  H  6933  6944       L1    14  0.07
      P1  H  6934  6946       L1    14  0.92
      P1  H  6934  6947       L1    27  0.09
      P1  H 11000 11005       L1     3  1.00

> <Gold.Chemscore.Hbond.Weighted>
-12.7415

> <Gold.Chemscore.Metal.Weighted>
-0.0000

> <Gold.Chemscore.Lipo.Weighted>
-3.2141

> <Gold.Chemscore.Internal_Hbond.Weighted>
0.0000

> <Gold.Chemscore.DEClash.Weighted>
2.7206

> <Gold.Chemscore.DEInternal.Weighted>
6.2664

> <Gold.Chemscore.Rot.Weighted>
10.8687

> <Gold.Chemscore.Internal.Correction.Weighted>
   9.000000E+99

> <Gold.Protein.RotatedTorsions>
[ 6907 6896 6895 6894 ] final  140.44 input  -60.11 | X-H torsion
[ 7974 7965 7964 7962 ] final   96.62 input  175.53 | X-H torsion
[ 8008 7997 7996 7995 ] final    0.85 input   59.86 | X-H torsion
[ 10167 10162 10161 10158 ] final   44.49 input  -65.29 | X-H torsion
[ 10718 10713 10712 10709 ] final  108.95 input   66.30 | X-H torsion
[ 10763 10752 10751 10750 ] final  143.47 input  -60.55 | X-H torsion
[ 11005 11000 10999 10996 ] final -156.79 input  -57.11 | X-H torsion

> <Gold.Protein.ActiveResidues>
 VAL166  LYS551  ARG553  GLY616  TRP617  ASP618  TYR619  PRO620  LYS621  CYS622 
 ASP623  PHE694  ASN695  SER759  ASP760  ASP761  ALA762  ILE779  LEU786  VAL792 
 PHE793  MET794  SER795  GLU796  ALA797  LYS798  CYS799  TRP800  GLU811  SER814 

> <Gold.Protein.RotatedAtoms>
  152.2431  133.5151  159.5281 H   0  0  0  0  0  0  0  0  0  0  0  0  # atno 6907 bound_to 6896
  150.7070  134.1062  159.3993 H   0  0  0  0  0  0  0  0  0  0  0  0  # atno 6908 bound_to 6896
  151.8983  135.0388  160.0555 H   0  0  0  0  0  0  0  0  0  0  0  0  # atno 6909 bound_to 6896
  145.4364  139.2305  143.3116 H   0  0  0  0  0  0  0  0  0  0  0  0  # atno 7974 bound_to 7965
  154.6729  140.2616  155.6988 H   0  0  0  0  0  0  0  0  0  0  0  0  # atno 8008 bound_to 7997
  156.2666  140.2825  156.1167 H   0  0  0  0  0  0  0  0  0  0  0  0  # atno 8009 bound_to 7997
  155.1142  140.0376  157.2722 H   0  0  0  0  0  0  0  0  0  0  0  0  # atno 8010 bound_to 7997
  140.3338  144.2556  150.6164 H   0  0  0  0  0  0  0  0  0  0  0  0  # atno 10167 bound_to 10162
  157.6563  131.0904  150.6381 H   0  0  0  0  0  0  0  0  0  0  0  0  # atno 10718 bound_to 10713
  153.9729  135.2949  155.3426 H   0  0  0  0  0  0  0  0  0  0  0  0  # atno 10763 bound_to 10752
  154.7312  135.5067  153.8970 H   0  0  0  0  0  0  0  0  0  0  0  0  # atno 10764 bound_to 10752
  153.0891  135.6702  154.0002 H   0  0  0  0  0  0  0  0  0  0  0  0  # atno 10765 bound_to 10752
  140.6717  134.4240  157.5231 H   0  0  0  0  0  0  0  0  0  0  0  0  # atno 11005 bound_to 11000
  146.2580  140.5107  142.8865 LP  0  0  0  0  0  0  0  0  0  0  0  0  # atno 17320 bound_to 7965
  144.8150  140.6451  143.6390 LP  0  0  0  0  0  0  0  0  0  0  0  0  # atno 17321 bound_to 7965
  140.5373  143.2230  151.8142 LP  0  0  0  0  0  0  0  0  0  0  0  0  # atno 17342 bound_to 10162
  139.4852  144.4645  151.9500 LP  0  0  0  0  0  0  0  0  0  0  0  0  # atno 17343 bound_to 10162
  156.6688  130.4533  149.5664 LP  0  0  0  0  0  0  0  0  0  0  0  0  # atno 17370 bound_to 10713
  156.2013  130.6621  151.1170 LP  0  0  0  0  0  0  0  0  0  0  0  0  # atno 17371 bound_to 10713
  139.8979  134.8625  156.2022 LP  0  0  0  0  0  0  0  0  0  0  0  0  # atno 17394 bound_to 11000
  141.0387  133.6949  156.1559 LP  0  0  0  0  0  0  0  0  0  0  0  0  # atno 17395 bound_to 11000

$$$$
