AV-unprocessed.smi:189|AV-procd|sdf|1481|dock4
  -GOLD-   2262019303D 1   1.00000     0.00000
 Structure written by MMmdl.
 53 57  0  0  0  0  0  0  0  0  1 V2000
  150.8834  137.9999  154.7372 C   0  0  0  0  0  0  0  0  0  0  0  0
  150.3314  139.3793  155.1468 C   0  0  2  0  0  0  0  0  0  0  0  0
  151.3932  140.4593  155.3876 C   0  0  0  0  0  0  0  0  0  0  0  0
  150.6229  141.5349  156.1675 C   0  0  2  0  0  0  0  0  0  0  0  0
  151.3972  142.1776  157.3317 C   0  0  0  0  0  0  0  0  0  0  0  0
  150.5207  143.1601  158.1386 C   0  0  0  0  0  0  0  0  0  0  0  0
  149.0456  142.7171  158.2787 C   0  0  0  0  0  0  0  0  0  0  0  0
  148.8639  141.2078  158.0606 C   0  0  0  0  0  0  0  0  0  0  0  0
  149.3313  140.8246  156.6331 C   0  0  2  0  0  0  0  0  0  0  0  0
  149.4757  139.3957  156.3345 N   0  0  0  0  0  0  0  0  0  0  0  0
  149.8203  138.5652  157.3516 C   0  0  0  0  0  0  0  0  0  0  0  0
  151.1233  138.3685  157.6879 N   0  0  0  0  0  0  0  0  0  0  0  0
  151.4393  137.5467  158.6927 C   0  0  0  0  0  0  0  0  0  0  0  0
  150.6258  136.8321  159.4730 N   0  0  0  0  0  0  0  0  0  0  0  0
  149.3189  137.0203  159.1310 C   0  0  0  0  0  0  0  0  0  0  0  0
  148.8342  137.8662  158.0948 C   0  0  0  0  0  0  0  0  0  0  0  0
  147.4475  137.8133  158.0433 N   0  0  0  0  0  0  0  0  0  0  0  0
  147.1288  136.9807  158.9967 C   0  0  0  0  0  0  0  0  0  0  0  0
  148.1910  136.4481  159.6933 N   0  0  0  0  0  0  0  0  0  0  0  0
  148.1229  135.5024  160.7962 C   0  0  0  0  0  0  0  0  0  0  0  0
  147.4726  136.0784  162.0801 C   0  0  1  0  0  0  0  0  0  0  0  0
  148.1489  137.2572  162.4739 O   0  0  0  0  0  0  0  0  0  0  0  0
  145.9958  136.3830  161.8866 C   0  0  0  0  0  0  0  0  0  0  0  0
  145.3249  135.0420  162.1807 C   0  0  0  0  0  0  0  0  0  0  0  0
  146.2176  134.3285  163.0323 O   0  0  0  0  0  0  0  0  0  0  0  0
  147.4001  135.0899  163.2498 C   0  0  0  0  0  0  0  0  0  0  0  0
  151.4231  138.0693  153.7927 H   0  0  0  0  0  0  0  0  0  0  0  0
  150.0763  137.2790  154.6030 H   0  0  0  0  0  0  0  0  0  0  0  0
  151.5759  137.5962  155.4761 H   0  0  0  0  0  0  0  0  0  0  0  0
  149.6969  139.7165  154.3253 H   0  0  0  0  0  0  0  0  0  0  0  0
  152.2155  140.0625  155.9838 H   0  0  0  0  0  0  0  0  0  0  0  0
  151.8161  140.8390  154.4573 H   0  0  0  0  0  0  0  0  0  0  0  0
  150.3371  142.3276  155.4744 H   0  0  0  0  0  0  0  0  0  0  0  0
  151.7538  141.3941  158.0008 H   0  0  0  0  0  0  0  0  0  0  0  0
  152.2884  142.6865  156.9637 H   0  0  0  0  0  0  0  0  0  0  0  0
  150.9619  143.2875  159.1276 H   0  0  0  0  0  0  0  0  0  0  0  0
  150.5474  144.1451  157.6716 H   0  0  0  0  0  0  0  0  0  0  0  0
  148.6608  143.0095  159.2562 H   0  0  0  0  0  0  0  0  0  0  0  0
  148.4399  143.2501  157.5447 H   0  0  0  0  0  0  0  0  0  0  0  0
  149.4325  140.6915  158.8334 H   0  0  0  0  0  0  0  0  0  0  0  0
  147.8212  140.9218  158.2017 H   0  0  0  0  0  0  0  0  0  0  0  0
  148.5388  141.1628  155.9634 H   0  0  0  0  0  0  0  0  0  0  0  0
  152.4941  137.4470  158.9006 H   0  0  0  0  0  0  0  0  0  0  0  0
  146.1022  136.7246  159.2157 H   0  0  0  0  0  0  0  0  0  0  0  0
  147.5706  134.6250  160.4570 H   0  0  0  0  0  0  0  0  0  0  0  0
  149.1368  135.1587  161.0052 H   0  0  0  0  0  0  0  0  0  0  0  0
  148.4696  137.1403  163.3550 H   0  0  0  0  0  0  0  0  0  0  0  0
  145.6588  137.1157  162.6222 H   0  0  0  0  0  0  0  0  0  0  0  0
  145.7555  136.7735  160.8971 H   0  0  0  0  0  0  0  0  0  0  0  0
  144.3489  135.1679  162.6500 H   0  0  0  0  0  0  0  0  0  0  0  0
  145.1864  134.4696  161.2630 H   0  0  0  0  0  0  0  0  0  0  0  0
  148.2789  134.4552  163.3558 H   0  0  0  0  0  0  0  0  0  0  0  0
  147.2729  135.6252  164.1924 H   0  0  0  0  0  0  0  0  0  0  0  0
  1  2  1  0  0  0  0
  1 27  1  0  0  0  0
  1 28  1  0  0  0  0
  1 29  1  0  0  0  0
  2 10  1  0  0  0  0
  2  3  1  0  0  0  0
  2 30  1  0  0  0  0
  3  4  1  0  0  0  0
  3 31  1  0  0  0  0
  3 32  1  0  0  0  0
  4  9  1  0  0  0  0
  4  5  1  0  0  0  0
  4 33  1  0  0  0  0
  5  6  1  0  0  0  0
  5 34  1  0  0  0  0
  5 35  1  0  0  0  0
  6  7  1  0  0  0  0
  6 36  1  0  0  0  0
  6 37  1  0  0  0  0
  7  8  1  0  0  0  0
  7 38  1  0  0  0  0
  7 39  1  0  0  0  0
  8  9  1  0  0  0  0
  8 40  1  0  0  0  0
  8 41  1  0  0  0  0
  9 10  1  0  0  0  0
  9 42  1  0  0  0  0
 10 11  1  0  0  0  0
 11 16  1  0  0  0  0
 11 12  2  0  0  0  0
 12 13  1  0  0  0  0
 13 14  2  0  0  0  0
 13 43  1  0  0  0  0
 14 15  1  0  0  0  0
 15 19  1  0  0  0  0
 15 16  2  0  0  0  0
 16 17  1  0  0  0  0
 17 18  2  0  0  0  0
 18 19  1  0  0  0  0
 18 44  1  0  0  0  0
 19 20  1  0  0  0  0
 20 21  1  0  0  0  0
 20 45  1  0  0  0  0
 20 46  1  0  0  0  0
 21 26  1  0  0  0  0
 21 22  1  0  0  0  0
 21 23  1  0  0  0  0
 22 47  1  0  0  0  0
 23 24  1  0  0  0  0
 23 48  1  0  0  0  0
 23 49  1  0  0  0  0
 24 25  1  0  0  0  0
 24 50  1  0  0  0  0
 24 51  1  0  0  0  0
 25 26  1  0  0  0  0
 26 52  1  0  0  0  0
 26 53  1  0  0  0  0
M  END
> <s_m_source_file>
AV-unprocessed.smi

> <i_m_source_file_index>
189

> <i_lp_mmshare_version>
43012

> <i_f3d_flags>
0

> <s_epik_input>
W0NIMl0xW0NIMl1bQ0gyXVtDSDJdW0NASF0oW0NASF0xMilOKFtDQEhdKFtDSDNdKVtDSDJdMiljKG5bY0hdbjMpYyhjMzQpbltjSF1uNFtDSDJdW0NAQF01KFtPSF0pW0NIMl1bQ0gyXU9bQ0gyXTU=

> <s_epik_cmdline>
J2VwaWtfcHl0aG9uJywgJy1waCcsICc3LjAnLCAnLXRuJywgJzgnLCAnLW1hJywgJzIwMCcsICctbWV0YWxfYmluZGluZycsICctaW1hZScsICc8aW5maWxlLm1hZT4nLCAnLW9tYWUnLCAnPG91dGZpbGUubWFlPic=

> <r_lp_tautomer_probability>
1

> <r_epik_Ionization_Penalty>
0.00594261

> <r_epik_Ionization_Penalty_Charging>
0

> <r_epik_Ionization_Penalty_Neutral>
0.00594261

> <r_epik_State_Penalty>
0.00429776

> <r_epik_Charging_Adjusted_Penalty>
0.00429776

> <i_epik_Tot_Q>
0

> <i_epik_Tot_abs_Q>
0

> <r_epik_Metal_State_Penalty>
-0

> <b_epik_Metal_Only>
0

> <s_lp_Force_Field>
OPLS_2005

> <r_lp_Energy>
68.3564

> <b_lp_Chiralities_Consistent>
1

> <s_lp_Variant>
AV-unprocessed.smi:189-7

> <Gold.Version>
5.8.1

> <Gold.Id.Protein>
6NUR|6NUR_protein|mol2

> <Gold.PLP.Fitness>
43.5893

> <Gold.PLP.PLP>
-39.1373

> <Gold.PLP.part.hbond>
-3.1233

> <Gold.PLP.part.metal>
0.0000

> <Gold.PLP.part.buried>
-4.8353

> <Gold.PLP.part.nonpolar>
-31.9463

> <Gold.PLP.part.repulsive>
0.0177

> <Gold.PLP.ligand.clash>
0.0000

> <Gold.PLP.ligand.torsion>
0.7168

> <Gold.PLP.Chemscore.Hbond>
1.9500

> <Gold.PLP.Chemscore.CHOScore>
0.0000

> <Gold.PLP.Chemscore.Metal>
0.0000

> <Gold.Chemscore.Hbonds>
donor molecule, donor type, donor heavy atom, donor atom, acceptor molecule, acceptor atom, score
      P1  H  6896  6909       L1    14  1.00
      P1  H  6931  6943       L1    22  0.71

> <Gold.PLP.Chemscore.Internal.Correction>
0.0356

> <Gold.Rescore>
     Score         DG    S(hbond)    S(metal)    S(lipo)     H(rot)  DE(clash)    DE(int)     intcor
     15.02     -17.65       1.88        0.00      94.59       2.03       0.63       2.00       ----

> <Gold.Chemscore.Fitness>
15.0163

> <Gold.Chemscore.DG>
-17.6459

> <Gold.Chemscore.ZeroCoef>
-5.4800

> <Gold.Chemscore.Hbond>
1.8845

> <Gold.Chemscore.Metal>
0.0000

> <Gold.Chemscore.Lipo>
94.5949

> <Gold.Chemscore.Internal_Hbond>
0.0000

> <Gold.Chemscore.DEClash>
0.6260

> <Gold.Chemscore.DEInternal>
2.0035

> <Gold.Chemscore.Rot>
2.0297

> <Gold.Chemscore.Internal.Correction>
   9.000000E+99

> <Gold.Chemscore.Hbonds>
donor molecule, donor type, donor heavy atom, donor atom, acceptor molecule, acceptor atom, score
      P1  H  6896  6909       L1    14  0.66
      P1  H  6931  6943       L1    22  0.24

> <Gold.Chemscore.Hbond.Weighted>
-6.2942

> <Gold.Chemscore.Metal.Weighted>
-0.0000

> <Gold.Chemscore.Lipo.Weighted>
-11.0676

> <Gold.Chemscore.Internal_Hbond.Weighted>
0.0000

> <Gold.Chemscore.DEClash.Weighted>
0.6260

> <Gold.Chemscore.DEInternal.Weighted>
2.0035

> <Gold.Chemscore.Rot.Weighted>
5.1960

> <Gold.Chemscore.Internal.Correction.Weighted>
   9.000000E+99

> <Gold.Protein.RotatedTorsions>
[ 6907 6896 6895 6894 ] final   76.92 input  -60.11 | X-H torsion
[ 7974 7965 7964 7962 ] final   14.93 input  175.53 | X-H torsion
[ 8008 7997 7996 7995 ] final   76.63 input   59.86 | X-H torsion
[ 10167 10162 10161 10158 ] final   77.01 input  -65.29 | X-H torsion
[ 10718 10713 10712 10709 ] final   82.80 input   66.30 | X-H torsion
[ 10763 10752 10751 10750 ] final   47.02 input  -60.55 | X-H torsion
[ 11005 11000 10999 10996 ] final -147.42 input  -57.11 | X-H torsion

> <Gold.Protein.ActiveResidues>
 VAL166  LYS551  ARG553  GLY616  TRP617  ASP618  TYR619  PRO620  LYS621  CYS622 
 ASP623  PHE694  ASN695  SER759  ASP760  ASP761  ALA762  ILE779  LEU786  VAL792 
 PHE793  MET794  SER795  GLU796  ALA797  LYS798  CYS799  TRP800  GLU811  SER814 

> <Gold.Protein.RotatedAtoms>
  152.5095  134.3895  159.9378 H   0  0  0  0  0  0  0  0  0  0  0  0  # atno 6907 bound_to 6896
  151.3855  133.3800  159.2722 H   0  0  0  0  0  0  0  0  0  0  0  0  # atno 6908 bound_to 6896
  150.9472  134.8896  159.7708 H   0  0  0  0  0  0  0  0  0  0  0  0  # atno 6909 bound_to 6896
  146.2292  139.8969  142.8545 H   0  0  0  0  0  0  0  0  0  0  0  0  # atno 7974 bound_to 7965
  155.8300  140.3466  155.5566 H   0  0  0  0  0  0  0  0  0  0  0  0  # atno 8008 bound_to 7997
  155.8252  140.0919  157.1845 H   0  0  0  0  0  0  0  0  0  0  0  0  # atno 8009 bound_to 7997
  154.4004  140.1422  156.3535 H   0  0  0  0  0  0  0  0  0  0  0  0  # atno 8010 bound_to 7997
  139.9862  144.5790  150.7857 H   0  0  0  0  0  0  0  0  0  0  0  0  # atno 10167 bound_to 10162
  157.6865  131.0063  150.2428 H   0  0  0  0  0  0  0  0  0  0  0  0  # atno 10718 bound_to 10713
  152.9804  135.5990  154.3694 H   0  0  0  0  0  0  0  0  0  0  0  0  # atno 10763 bound_to 10752
  154.3369  135.2768  155.2445 H   0  0  0  0  0  0  0  0  0  0  0  0  # atno 10764 bound_to 10752
  154.4544  135.5981  153.6268 H   0  0  0  0  0  0  0  0  0  0  0  0  # atno 10765 bound_to 10752
  140.7718  134.3180  157.5072 H   0  0  0  0  0  0  0  0  0  0  0  0  # atno 11005 bound_to 11000
  145.2362  140.9992  143.3962 LP  0  0  0  0  0  0  0  0  0  0  0  0  # atno 17320 bound_to 7965
  144.9489  139.4104  143.6412 LP  0  0  0  0  0  0  0  0  0  0  0  0  # atno 17321 bound_to 7965
  140.7471  143.2901  151.3353 LP  0  0  0  0  0  0  0  0  0  0  0  0  # atno 17342 bound_to 10162
  139.6373  144.0605  152.2526 LP  0  0  0  0  0  0  0  0  0  0  0  0  # atno 17343 bound_to 10162
  156.3039  130.3762  149.7724 LP  0  0  0  0  0  0  0  0  0  0  0  0  # atno 17370 bound_to 10713
  156.5346  130.8273  151.3248 LP  0  0  0  0  0  0  0  0  0  0  0  0  # atno 17371 bound_to 10713
  139.8754  134.9265  156.3402 LP  0  0  0  0  0  0  0  0  0  0  0  0  # atno 17394 bound_to 11000
  140.9566  133.7416  156.0344 LP  0  0  0  0  0  0  0  0  0  0  0  0  # atno 17395 bound_to 11000

$$$$
