AV-unprocessed.smi:2399|AV-procd|sdf|9499|dock8
  -GOLD-   2272013133D 1   1.00000     0.00000
 Structure written by MMmdl.
 53 55  0  0  0  0  0  0  0  0  2 V2000
  145.9537  133.1626  151.6962 C   0  0  0  0  0  0  0  0  0  0  0  0
  146.7894  133.4364  152.8112 O   0  0  0  0  0  0  0  0  0  0  0  0
  147.5876  132.4183  153.2953 C   0  0  0  0  0  0  0  0  0  0  0  0
  147.2420  131.0450  153.2166 C   0  0  0  0  0  0  0  0  0  0  0  0
  148.1215  130.0801  153.7376 C   0  0  0  0  0  0  0  0  0  0  0  0
  149.3217  130.5218  154.3220 C   0  0  0  0  0  0  0  0  0  0  0  0
  150.3170  129.5380  154.9000 C   0  0  0  0  0  0  0  0  0  0  0  0
  149.6617  131.8238  154.4012 N   0  0  0  0  0  0  0  0  0  0  0  0
  148.8221  132.7649  153.9030 C   0  0  0  0  0  0  0  0  0  0  0  0
  149.1083  134.1570  153.9533 N   0  0  0  0  0  0  0  0  0  0  0  0
  149.7891  134.8361  154.8924 C   0  0  0  0  0  0  0  0  0  0  0  0
  150.3062  134.3447  155.8964 O   0  0  0  0  0  0  0  0  0  0  0  0
  149.8506  136.1428  154.5969 N   0  0  0  0  0  0  0  0  0  0  0  0
  150.5332  137.1517  155.4015 C   0  0  2  0  0  0  0  0  0  0  0  0
  149.5041  138.0476  156.1044 C   0  0  0  0  0  0  0  0  0  0  0  0
  150.1925  139.1727  156.8955 C   0  0  0  0  0  0  0  0  0  0  0  0
  151.0762  139.9956  156.0228 N   0  3  1  0  0  0  0  0  0  0  0  0
  151.6748  141.1654  156.7297 C   0  0  0  0  0  0  0  0  0  0  0  0
  152.3149  140.8190  158.0815 C   0  0  0  0  0  0  0  0  0  0  0  0
  152.4214  142.1565  158.8162 C   0  0  0  0  0  0  0  0  0  0  0  0
  151.2767  143.0243  158.2784 C   0  0  0  0  0  0  0  0  0  0  0  0
  150.6456  142.2374  157.1228 C   0  0  0  0  0  0  0  0  0  0  0  0
  152.0980  139.1469  155.3488 C   0  0  0  0  0  0  0  0  0  0  0  0
  151.4480  138.0235  154.5259 C   0  0  0  0  0  0  0  0  0  0  0  0
  145.4028  134.0646  151.4303 H   0  0  0  0  0  0  0  0  0  0  0  0
  145.2230  132.3861  151.9260 H   0  0  0  0  0  0  0  0  0  0  0  0
  146.5373  132.8642  150.8243 H   0  0  0  0  0  0  0  0  0  0  0  0
  146.3193  130.7109  152.7672 H   0  0  0  0  0  0  0  0  0  0  0  0
  147.8777  129.0292  153.6874 H   0  0  0  0  0  0  0  0  0  0  0  0
  149.8785  128.5444  154.9971 H   0  0  0  0  0  0  0  0  0  0  0  0
  150.6455  129.8611  155.8884 H   0  0  0  0  0  0  0  0  0  0  0  0
  151.1922  129.4644  154.2543 H   0  0  0  0  0  0  0  0  0  0  0  0
  148.7569  134.6941  153.1744 H   0  0  0  0  0  0  0  0  0  0  0  0
  149.3965  136.4605  153.7529 H   0  0  0  0  0  0  0  0  0  0  0  0
  151.1347  136.6546  156.1655 H   0  0  0  0  0  0  0  0  0  0  0  0
  148.8261  138.4845  155.3694 H   0  0  0  0  0  0  0  0  0  0  0  0
  148.8873  137.4502  156.7772 H   0  0  0  0  0  0  0  0  0  0  0  0
  149.4150  139.7884  157.3459 H   0  0  0  0  0  0  0  0  0  0  0  0
  150.7783  138.7527  157.7149 H   0  0  0  0  0  0  0  0  0  0  0  0
  152.4334  141.6196  156.0893 H   0  0  0  0  0  0  0  0  0  0  0  0
  151.6652  140.1462  158.6433 H   0  0  0  0  0  0  0  0  0  0  0  0
  153.2893  140.3393  157.9825 H   0  0  0  0  0  0  0  0  0  0  0  0
  152.3743  142.0321  159.8985 H   0  0  0  0  0  0  0  0  0  0  0  0
  153.3766  142.6287  158.5831 H   0  0  0  0  0  0  0  0  0  0  0  0
  150.5377  143.2361  159.0521 H   0  0  0  0  0  0  0  0  0  0  0  0
  151.6646  143.9819  157.9289 H   0  0  0  0  0  0  0  0  0  0  0  0
  150.3797  142.8904  156.2909 H   0  0  0  0  0  0  0  0  0  0  0  0
  149.7285  141.7614  157.4741 H   0  0  0  0  0  0  0  0  0  0  0  0
  152.7119  139.7453  154.6769 H   0  0  0  0  0  0  0  0  0  0  0  0
  152.7701  138.7227  156.0965 H   0  0  0  0  0  0  0  0  0  0  0  0
  152.2259  137.4117  154.0673 H   0  0  0  0  0  0  0  0  0  0  0  0
  150.8744  138.4589  153.7061 H   0  0  0  0  0  0  0  0  0  0  0  0
  150.4880  140.3733  155.2938 H   0  0  0  0  0  0  0  0  0  0  0  0
  1  2  1  0  0  0  0
  1 25  1  0  0  0  0
  1 26  1  0  0  0  0
  1 27  1  0  0  0  0
  2  3  1  0  0  0  0
  3  9  1  0  0  0  0
  3  4  2  0  0  0  0
  4  5  1  0  0  0  0
  4 28  1  0  0  0  0
  5  6  2  0  0  0  0
  5 29  1  0  0  0  0
  6  7  1  0  0  0  0
  6  8  1  0  0  0  0
  7 30  1  0  0  0  0
  7 31  1  0  0  0  0
  7 32  1  0  0  0  0
  8  9  2  0  0  0  0
  9 10  1  0  0  0  0
 10 11  1  0  0  0  0
 10 33  1  0  0  0  0
 11 12  2  0  0  0  0
 11 13  1  0  0  0  0
 13 14  1  0  0  0  0
 13 34  1  0  0  0  0
 14 24  1  0  0  0  0
 14 15  1  0  0  0  0
 14 35  1  0  0  0  0
 15 16  1  0  0  0  0
 15 36  1  0  0  0  0
 15 37  1  0  0  0  0
 16 17  1  0  0  0  0
 16 38  1  0  0  0  0
 16 39  1  0  0  0  0
 17 18  1  0  0  0  0
 17 23  1  0  0  0  0
 17 53  1  0  0  0  0
 18 22  1  0  0  0  0
 18 19  1  0  0  0  0
 18 40  1  0  0  0  0
 19 20  1  0  0  0  0
 19 41  1  0  0  0  0
 19 42  1  0  0  0  0
 20 21  1  0  0  0  0
 20 43  1  0  0  0  0
 20 44  1  0  0  0  0
 21 22  1  0  0  0  0
 21 45  1  0  0  0  0
 21 46  1  0  0  0  0
 22 47  1  0  0  0  0
 22 48  1  0  0  0  0
 23 24  1  0  0  0  0
 23 49  1  0  0  0  0
 23 50  1  0  0  0  0
 24 51  1  0  0  0  0
 24 52  1  0  0  0  0
M  CHG  1  17   1
M  END
> <s_m_source_file>
AV-unprocessed.smi

> <i_m_source_file_index>
2399

> <i_lp_mmshare_version>
43012

> <i_f3d_flags>
0

> <s_epik_input>
W0NIM11PYzFbY0hdW2NIXWMoW0NIM10pbmMxW05IXUMoPU8pW05IXVtDSF0yW0NIMl1bQ0gyXU4oW0NIMl1bQ0gyXTIpW0NIXTNbQ0gyXVtDSDJdW0NIMl1bQ0gyXTM=

> <s_epik_cmdline>
J2VwaWtfcHl0aG9uJywgJy1waCcsICc3LjAnLCAnLXRuJywgJzgnLCAnLW1hJywgJzIwMCcsICctbWV0YWxfYmluZGluZycsICctaW1hZScsICc8aW5maWxlLm1hZT4nLCAnLW9tYWUnLCAnPG91dGZpbGUubWFlPic=

> <r_lp_tautomer_probability>
1

> <r_epik_Ionization_Penalty>
0.00183805

> <r_epik_Ionization_Penalty_Charging>
0.00179121

> <r_epik_Ionization_Penalty_Neutral>
4.68398e-05

> <r_epik_State_Penalty>
0.00121448

> <r_epik_Charging_Adjusted_Penalty>
0.0030057

> <i_epik_Tot_Q>
1

> <i_epik_Tot_abs_Q>
1

> <r_epik_Metal_State_Penalty>
-0

> <b_epik_Metal_Only>
0

> <s_lp_Force_Field>
OPLS_2005

> <r_lp_Energy>
41.4811

> <b_lp_Chiralities_Consistent>
1

> <s_lp_Variant>
AV-unprocessed.smi:2399-1

> <Gold.Version>
5.8.1

> <Gold.Id.Protein>
6NUR|6NUR_protein|mol2

> <Gold.PLP.Fitness>
42.3889

> <Gold.PLP.PLP>
-38.5633

> <Gold.PLP.part.hbond>
-2.1718

> <Gold.PLP.part.metal>
0.0000

> <Gold.PLP.part.buried>
-4.8335

> <Gold.PLP.part.nonpolar>
-31.5449

> <Gold.PLP.part.repulsive>
0.3715

> <Gold.PLP.ligand.clash>
0.0000

> <Gold.PLP.ligand.torsion>
0.8874

> <Gold.PLP.Chemscore.Hbond>
1.8500

> <Gold.PLP.Chemscore.CHOScore>
0.0000

> <Gold.PLP.Chemscore.Metal>
0.0000

> <Gold.Chemscore.Hbonds>
donor molecule, donor type, donor heavy atom, donor atom, acceptor molecule, acceptor atom, score
      L1  H    10    33       P1  7948  0.94
      L1  H    13    34       P1  7948  0.99

> <Gold.PLP.Chemscore.Internal.Correction>
0.0504

> <Gold.Rescore>
     Score         DG    S(hbond)    S(metal)    S(lipo)     H(rot)  DE(clash)    DE(int)     intcor
     16.46     -17.46       1.36        0.00      93.90       1.38       0.19       0.82       ----

> <Gold.Chemscore.Fitness>
16.4617

> <Gold.Chemscore.DG>
-17.4626

> <Gold.Chemscore.ZeroCoef>
-5.4800

> <Gold.Chemscore.Hbond>
1.3580

> <Gold.Chemscore.Metal>
0.0000

> <Gold.Chemscore.Lipo>
93.9034

> <Gold.Chemscore.Internal_Hbond>
0.0000

> <Gold.Chemscore.DEClash>
0.1857

> <Gold.Chemscore.DEInternal>
0.8152

> <Gold.Chemscore.Rot>
1.3828

> <Gold.Chemscore.Internal.Correction>
   9.000000E+99

> <Gold.Chemscore.Hbonds>
donor molecule, donor type, donor heavy atom, donor atom, acceptor molecule, acceptor atom, score
      L1  H    10    33       P1  7948  0.20
      L1  H    13    34       P1  7948  0.80

> <Gold.Chemscore.Hbond.Weighted>
-4.5358

> <Gold.Chemscore.Metal.Weighted>
-0.0000

> <Gold.Chemscore.Lipo.Weighted>
-10.9867

> <Gold.Chemscore.Internal_Hbond.Weighted>
0.0000

> <Gold.Chemscore.DEClash.Weighted>
0.1857

> <Gold.Chemscore.DEInternal.Weighted>
0.8152

> <Gold.Chemscore.Rot.Weighted>
3.5399

> <Gold.Chemscore.Internal.Correction.Weighted>
   9.000000E+99

> <Gold.Protein.RotatedTorsions>
[ 6907 6896 6895 6894 ] final  -78.70 input  -60.11 | X-H torsion
[ 7974 7965 7964 7962 ] final   47.15 input  175.53 | X-H torsion
[ 8008 7997 7996 7995 ] final   26.04 input   59.86 | X-H torsion
[ 10167 10162 10161 10158 ] final  -84.50 input  -65.29 | X-H torsion
[ 10718 10713 10712 10709 ] final -142.50 input   66.30 | X-H torsion
[ 10763 10752 10751 10750 ] final   28.91 input  -60.55 | X-H torsion
[ 11005 11000 10999 10996 ] final  -68.84 input  -57.11 | X-H torsion

> <Gold.Protein.ActiveResidues>
 VAL166  LYS551  ARG553  GLY616  TRP617  ASP618  TYR619  PRO620  LYS621  CYS622 
 ASP623  PHE694  ASN695  SER759  ASP760  ASP761  ALA762  ILE779  LEU786  VAL792 
 PHE793  MET794  SER795  GLU796  ALA797  LYS798  CYS799  TRP800  GLU811  SER814 

> <Gold.Protein.RotatedAtoms>
  150.6966  134.4232  159.5214 H   0  0  0  0  0  0  0  0  0  0  0  0  # atno 6907 bound_to 6896
  152.1971  134.8618  160.0521 H   0  0  0  0  0  0  0  0  0  0  0  0  # atno 6908 bound_to 6896
  151.9552  133.3643  159.4051 H   0  0  0  0  0  0  0  0  0  0  0  0  # atno 6909 bound_to 6896
  146.0324  139.4779  142.9829 H   0  0  0  0  0  0  0  0  0  0  0  0  # atno 7974 bound_to 7965
  155.0211  140.3147  155.4793 H   0  0  0  0  0  0  0  0  0  0  0  0  # atno 8008 bound_to 7997
  156.2892  140.2197  156.5271 H   0  0  0  0  0  0  0  0  0  0  0  0  # atno 8009 bound_to 7997
  154.7451  140.0470  157.0833 H   0  0  0  0  0  0  0  0  0  0  0  0  # atno 8010 bound_to 7997
  140.4126  143.2616  151.8997 H   0  0  0  0  0  0  0  0  0  0  0  0  # atno 10167 bound_to 10162
  156.3467  130.7666  151.1812 H   0  0  0  0  0  0  0  0  0  0  0  0  # atno 10718 bound_to 10713
  153.0463  135.6502  154.0809 H   0  0  0  0  0  0  0  0  0  0  0  0  # atno 10763 bound_to 10752
  154.0506  135.2896  155.3342 H   0  0  0  0  0  0  0  0  0  0  0  0  # atno 10764 bound_to 10752
  154.6722  135.5352  153.8219 H   0  0  0  0  0  0  0  0  0  0  0  0  # atno 10765 bound_to 10752
  141.1541  133.6750  156.6508 H   0  0  0  0  0  0  0  0  0  0  0  0  # atno 11005 bound_to 11000
  145.7019  141.0133  143.1500 LP  0  0  0  0  0  0  0  0  0  0  0  0  # atno 17320 bound_to 7965
  144.7036  139.8655  143.7437 LP  0  0  0  0  0  0  0  0  0  0  0  0  # atno 17321 bound_to 7965
  139.4782  144.5521  151.8370 LP  0  0  0  0  0  0  0  0  0  0  0  0  # atno 17342 bound_to 10162
  140.4621  144.1707  150.5907 LP  0  0  0  0  0  0  0  0  0  0  0  0  # atno 17343 bound_to 10162
  157.7455  131.0439  150.4767 LP  0  0  0  0  0  0  0  0  0  0  0  0  # atno 17370 bound_to 10713
  156.4955  130.4105  149.6382 LP  0  0  0  0  0  0  0  0  0  0  0  0  # atno 17371 bound_to 10713
  140.3321  134.7920  157.4334 LP  0  0  0  0  0  0  0  0  0  0  0  0  # atno 17394 bound_to 11000
  140.1008  134.5476  155.8355 LP  0  0  0  0  0  0  0  0  0  0  0  0  # atno 17395 bound_to 11000

$$$$
