AV-unprocessed.smi:701|AV-procd|sdf|3409|dock8
  -GOLD-   22720 0393D 1   1.00000     0.00000
 Structure written by MMmdl.
 49 51  0  0  0  0  0  0  0  0  1 V2000
  154.0619  141.2939  160.1983 C   0  0  0  0  0  0  0  0  0  0  0  0
  152.7580  140.5552  159.8679 C   0  0  0  0  0  0  0  0  0  0  0  0
  151.7552  141.4187  159.3490 O   0  0  0  0  0  0  0  0  0  0  0  0
  151.9264  141.7838  157.9869 C   0  0  1  0  0  0  0  0  0  0  0  0
  151.1019  140.9362  157.0134 C   0  0  0  0  0  0  0  0  0  0  0  0
  150.8903  142.2310  156.2323 C   0  0  1  0  0  0  0  0  0  0  0  0
  149.5548  142.3234  155.6535 N   0  0  0  0  0  0  0  0  0  0  0  0
  149.0588  141.4656  154.7506 C   0  0  0  0  0  0  0  0  0  0  0  0
  149.6953  140.5049  154.3154 O   0  0  0  0  0  0  0  0  0  0  0  0
  147.6392  141.7610  154.2472 C   0  0  0  0  0  0  0  0  0  0  0  0
  146.7741  140.5726  154.2437 N   0  0  0  0  0  0  0  0  0  0  0  0
  147.0242  139.5268  153.3665 C   0  0  0  0  0  0  0  0  0  0  0  0
  146.2766  138.3989  153.3191 C   0  0  0  0  0  0  0  0  0  0  0  0
  145.1393  138.2283  154.2170 C   0  0  0  0  0  0  0  0  0  0  0  0
  144.4023  137.2454  154.2489 O   0  0  0  0  0  0  0  0  0  0  0  0
  144.9219  139.3010  155.0859 N   0  0  0  0  0  0  0  0  0  0  0  0
  145.6898  140.4650  155.1417 C   0  0  0  0  0  0  0  0  0  0  0  0
  145.4141  141.3495  155.9514 O   0  0  0  0  0  0  0  0  0  0  0  0
  151.0908  143.0217  157.5548 C   0  0  0  0  0  0  0  0  0  0  0  0
  149.8135  143.3358  158.3780 C   0  0  0  0  0  0  0  0  0  0  0  0
  150.0908  144.0294  159.7261 C   0  0  0  0  0  0  0  0  0  0  0  0
  150.9403  145.2929  159.5482 C   0  0  0  0  0  0  0  0  0  0  0  0
  152.2131  144.9925  158.7488 C   0  0  0  0  0  0  0  0  0  0  0  0
  151.8718  144.3367  157.4021 C   0  0  0  0  0  0  0  0  0  0  0  0
  144.1465  139.2271  155.7284 H   0  0  0  0  0  0  0  0  0  0  0  0
  154.8427  140.5878  160.4817 H   0  0  0  0  0  0  0  0  0  0  0  0
  153.9328  141.9851  161.0302 H   0  0  0  0  0  0  0  0  0  0  0  0
  154.4210  141.8600  159.3385 H   0  0  0  0  0  0  0  0  0  0  0  0
  152.9633  139.8035  159.1055 H   0  0  0  0  0  0  0  0  0  0  0  0
  152.3839  140.0151  160.7388 H   0  0  0  0  0  0  0  0  0  0  0  0
  152.9727  141.8775  157.6852 H   0  0  0  0  0  0  0  0  0  0  0  0
  151.6646  140.1729  156.4762 H   0  0  0  0  0  0  0  0  0  0  0  0
  150.1917  140.5310  157.4590 H   0  0  0  0  0  0  0  0  0  0  0  0
  151.6976  142.3979  155.5147 H   0  0  0  0  0  0  0  0  0  0  0  0
  148.9734  143.0915  155.9561 H   0  0  0  0  0  0  0  0  0  0  0  0
  147.1890  142.5543  154.8479 H   0  0  0  0  0  0  0  0  0  0  0  0
  147.7178  142.1735  153.2403 H   0  0  0  0  0  0  0  0  0  0  0  0
  147.8600  139.6080  152.6861 H   0  0  0  0  0  0  0  0  0  0  0  0
  146.5221  137.6181  152.6138 H   0  0  0  0  0  0  0  0  0  0  0  0
  149.1532  143.9826  157.7991 H   0  0  0  0  0  0  0  0  0  0  0  0
  149.2398  142.4277  158.5652 H   0  0  0  0  0  0  0  0  0  0  0  0
  149.1476  144.2856  160.2093 H   0  0  0  0  0  0  0  0  0  0  0  0
  150.5990  143.3465  160.4059 H   0  0  0  0  0  0  0  0  0  0  0  0
  150.3570  146.0529  159.0271 H   0  0  0  0  0  0  0  0  0  0  0  0
  151.1972  145.7122  160.5214 H   0  0  0  0  0  0  0  0  0  0  0  0
  152.7723  145.9139  158.5836 H   0  0  0  0  0  0  0  0  0  0  0  0
  152.8638  144.3328  159.3246 H   0  0  0  0  0  0  0  0  0  0  0  0
  152.7964  144.1661  156.8497 H   0  0  0  0  0  0  0  0  0  0  0  0
  151.2979  145.0404  156.7976 H   0  0  0  0  0  0  0  0  0  0  0  0
  1  2  1  0  0  0  0
  1 26  1  0  0  0  0
  1 27  1  0  0  0  0
  1 28  1  0  0  0  0
  2  3  1  0  0  0  0
  2 29  1  0  0  0  0
  2 30  1  0  0  0  0
  3  4  1  0  0  0  0
  4 19  1  0  0  0  0
  4  5  1  0  0  0  0
  4 31  1  0  0  0  0
  5  6  1  0  0  0  0
  5 32  1  0  0  0  0
  5 33  1  0  0  0  0
  6  7  1  0  0  0  0
  6 19  1  0  0  0  0
  6 34  1  0  0  0  0
  7  8  1  0  0  0  0
  7 35  1  0  0  0  0
  8  9  2  0  0  0  0
  8 10  1  0  0  0  0
 10 11  1  0  0  0  0
 10 36  1  0  0  0  0
 10 37  1  0  0  0  0
 11 17  1  0  0  0  0
 11 12  1  0  0  0  0
 12 13  2  0  0  0  0
 12 38  1  0  0  0  0
 13 14  1  0  0  0  0
 13 39  1  0  0  0  0
 14 15  2  0  0  0  0
 14 16  1  0  0  0  0
 16 25  1  0  0  0  0
 16 17  1  0  0  0  0
 17 18  2  0  0  0  0
 19 24  1  0  0  0  0
 19 20  1  0  0  0  0
 20 21  1  0  0  0  0
 20 40  1  0  0  0  0
 20 41  1  0  0  0  0
 21 22  1  0  0  0  0
 21 42  1  0  0  0  0
 21 43  1  0  0  0  0
 22 23  1  0  0  0  0
 22 44  1  0  0  0  0
 22 45  1  0  0  0  0
 23 24  1  0  0  0  0
 23 46  1  0  0  0  0
 23 47  1  0  0  0  0
 24 48  1  0  0  0  0
 24 49  1  0  0  0  0
M  END
> <s_m_source_file>
AV-unprocessed.smi

> <i_m_source_file_index>
701

> <i_lp_mmshare_version>
43012

> <i_f3d_flags>
0

> <s_epik_input>
W0NIMl0xW0NIMl1bQ0gyXVtDSDJdW0NIMl1DMTJbQ0BIXShPW0NIMl1bQ0gzXSlbQ0gyXVtDQEhdMltOSF1DKD1PKVtDSDJdbjNbY0hdW2NIXWMoPU8pW25IXWMzPU8=

> <s_epik_cmdline>
J2VwaWtfcHl0aG9uJywgJy1waCcsICc3LjAnLCAnLXRuJywgJzgnLCAnLW1hJywgJzIwMCcsICctbWV0YWxfYmluZGluZycsICctaW1hZScsICc8aW5maWxlLm1hZT4nLCAnLW9tYWUnLCAnPG91dGZpbGUubWFlPic=

> <r_lp_tautomer_probability>
0.999537

> <r_epik_Ionization_Penalty>
0.00304597

> <r_epik_Ionization_Penalty_Charging>
0.00304595

> <r_epik_Ionization_Penalty_Neutral>
1.88422e-08

> <r_epik_State_Penalty>
0.00214084

> <r_epik_Charging_Adjusted_Penalty>
0.00518679

> <i_epik_Tot_Q>
0

> <i_epik_Tot_abs_Q>
0

> <r_epik_Metal_State_Penalty>
0.361872

> <b_epik_Metal_Only>
0

> <s_lp_Force_Field>
OPLS_2005

> <r_lp_Energy>
28.8847

> <b_lp_Chiralities_Consistent>
1

> <s_lp_Variant>
AV-unprocessed.smi:701-2

> <Gold.Version>
5.8.1

> <Gold.Id.Protein>
6NUR|6NUR_protein|mol2

> <Gold.PLP.Fitness>
51.7553

> <Gold.PLP.PLP>
-45.0598

> <Gold.PLP.part.hbond>
-2.7857

> <Gold.PLP.part.metal>
0.0000

> <Gold.PLP.part.buried>
-6.5124

> <Gold.PLP.part.nonpolar>
-36.5651

> <Gold.PLP.part.repulsive>
0.4591

> <Gold.PLP.ligand.clash>
0.0000

> <Gold.PLP.ligand.torsion>
0.7363

> <Gold.PLP.Chemscore.Hbond>
1.6160

> <Gold.PLP.Chemscore.CHOScore>
1.0000

> <Gold.PLP.Chemscore.Metal>
0.0000

> <Gold.Chemscore.Hbonds>
donor molecule, donor type, donor heavy atom, donor atom, acceptor molecule, acceptor atom, score
      L1  H     7    35       P1  8028  0.74
      P1  H  7989  7998       L1     9  0.59
      L1  C    12    38       P1  7957  1.00

> <Gold.PLP.Chemscore.Internal.Correction>
0.3201

> <Gold.Rescore>
     Score         DG    S(hbond)    S(metal)    S(lipo)     H(rot)  DE(clash)    DE(int)     intcor
     18.98     -20.32       1.70        0.00     123.95       2.09       0.69       0.64       ----

> <Gold.Chemscore.Fitness>
18.9830

> <Gold.Chemscore.DG>
-20.3172

> <Gold.Chemscore.ZeroCoef>
-5.4800

> <Gold.Chemscore.Hbond>
1.7047

> <Gold.Chemscore.Metal>
0.0000

> <Gold.Chemscore.Lipo>
123.9520

> <Gold.Chemscore.Internal_Hbond>
0.0000

> <Gold.Chemscore.DEClash>
0.6915

> <Gold.Chemscore.DEInternal>
0.6426

> <Gold.Chemscore.Rot>
2.0933

> <Gold.Chemscore.Internal.Correction>
   9.000000E+99

> <Gold.Chemscore.Hbonds>
donor molecule, donor type, donor heavy atom, donor atom, acceptor molecule, acceptor atom, score
      L1  H     7    35       P1  8028  0.74
      P1  H  7989  7998       L1     9  0.56

> <Gold.Chemscore.Hbond.Weighted>
-5.6935

> <Gold.Chemscore.Metal.Weighted>
-0.0000

> <Gold.Chemscore.Lipo.Weighted>
-14.5024

> <Gold.Chemscore.Internal_Hbond.Weighted>
0.0000

> <Gold.Chemscore.DEClash.Weighted>
0.6915

> <Gold.Chemscore.DEInternal.Weighted>
0.6426

> <Gold.Chemscore.Rot.Weighted>
5.3588

> <Gold.Chemscore.Internal.Correction.Weighted>
   9.000000E+99

> <Gold.Protein.RotatedTorsions>
[ 6907 6896 6895 6894 ] final -171.64 input  -60.11 | X-H torsion
[ 7974 7965 7964 7962 ] final  131.61 input  175.53 | X-H torsion
[ 8008 7997 7996 7995 ] final  -29.29 input   59.86 | X-H torsion
[ 10167 10162 10161 10158 ] final   56.28 input  -65.29 | X-H torsion
[ 10718 10713 10712 10709 ] final  -98.04 input   66.30 | X-H torsion
[ 10763 10752 10751 10750 ] final -159.75 input  -60.55 | X-H torsion
[ 11005 11000 10999 10996 ] final -120.52 input  -57.11 | X-H torsion

> <Gold.Protein.ActiveResidues>
 VAL166  LYS551  ARG553  GLY616  TRP617  ASP618  TYR619  PRO620  LYS621  CYS622 
 ASP623  PHE694  ASN695  SER759  ASP760  ASP761  ALA762  ILE779  LEU786  VAL792 
 PHE793  MET794  SER795  GLU796  ALA797  LYS798  CYS799  TRP800  GLU811  SER814 

> <Gold.Protein.RotatedAtoms>
  151.5271  133.3456  159.2911 H   0  0  0  0  0  0  0  0  0  0  0  0  # atno 6907 bound_to 6896
  150.8616  134.7972  159.7098 H   0  0  0  0  0  0  0  0  0  0  0  0  # atno 6908 bound_to 6896
  152.4634  134.5141  159.9814 H   0  0  0  0  0  0  0  0  0  0  0  0  # atno 6909 bound_to 6896
  145.0055  139.4270  143.5271 H   0  0  0  0  0  0  0  0  0  0  0  0  # atno 7974 bound_to 7965
  154.4296  140.1822  156.1225 H   0  0  0  0  0  0  0  0  0  0  0  0  # atno 8008 bound_to 7997
  156.0132  140.3348  155.6937 H   0  0  0  0  0  0  0  0  0  0  0  0  # atno 8009 bound_to 7997
  155.6081  140.0647  157.2704 H   0  0  0  0  0  0  0  0  0  0  0  0  # atno 8010 bound_to 7997
  140.2104  144.3895  150.6491 H   0  0  0  0  0  0  0  0  0  0  0  0  # atno 10167 bound_to 10162
  156.0098  130.5220  150.6463 H   0  0  0  0  0  0  0  0  0  0  0  0  # atno 10718 bound_to 10713
  154.7448  135.3077  154.8663 H   0  0  0  0  0  0  0  0  0  0  0  0  # atno 10763 bound_to 10752
  153.9467  135.6768  153.4748 H   0  0  0  0  0  0  0  0  0  0  0  0  # atno 10764 bound_to 10752
  153.1045  135.4895  154.8853 H   0  0  0  0  0  0  0  0  0  0  0  0  # atno 10765 bound_to 10752
  141.0137  134.0226  157.3379 H   0  0  0  0  0  0  0  0  0  0  0  0  # atno 11005 bound_to 11000
  146.3460  139.9469  142.8734 LP  0  0  0  0  0  0  0  0  0  0  0  0  # atno 17320 bound_to 7965
  145.2094  140.9889  143.4109 LP  0  0  0  0  0  0  0  0  0  0  0  0  # atno 17321 bound_to 7965
  140.6327  143.2190  151.6460 LP  0  0  0  0  0  0  0  0  0  0  0  0  # atno 17342 bound_to 10162
  139.5182  144.3291  152.0842 LP  0  0  0  0  0  0  0  0  0  0  0  0  # atno 17343 bound_to 10162
  157.4233  131.0840  151.1109 LP  0  0  0  0  0  0  0  0  0  0  0  0  # atno 17370 bound_to 10713
  157.1704  130.6265  149.5639 LP  0  0  0  0  0  0  0  0  0  0  0  0  # atno 17371 bound_to 10713
  139.9105  135.0189  156.7669 LP  0  0  0  0  0  0  0  0  0  0  0  0  # atno 17394 bound_to 11000
  140.6690  133.9576  155.7846 LP  0  0  0  0  0  0  0  0  0  0  0  0  # atno 17395 bound_to 11000

$$$$
