AV-unprocessed.smi:1207|AV-procd|sdf|5055|dock1
  -GOLD-   22720 4 83D 1   1.00000     0.00000
 Structure written by MMmdl.
 52 54  0  0  0  0  0  0  0  0  2 V2000
  152.8152  142.8271  160.7413 C   0  0  0  0  0  0  0  0  0  0  0  0
  152.1711  142.3923  159.4360 C   0  0  0  0  0  0  0  0  0  0  0  0
  152.1642  141.0165  159.1124 C   0  0  0  0  0  0  0  0  0  0  0  0
  151.5622  140.6495  157.9145 C   0  0  0  0  0  0  0  0  0  0  0  0
  151.3901  139.3968  157.3211 N   0  3  0  0  0  0  0  0  0  0  0  0
  150.7296  139.5410  156.1386 C   0  0  0  0  0  0  0  0  0  0  0  0
  150.4788  140.8673  155.9690 N   0  0  0  0  0  0  0  0  0  0  0  0
  149.7902  141.5670  154.8767 C   0  0  0  0  0  0  0  0  0  0  0  0
  148.3706  141.0245  154.6208 C   0  0  2  0  0  0  0  0  0  0  0  0
  148.4580  139.8566  153.8286 O   0  0  0  0  0  0  0  0  0  0  0  0
  147.4944  142.0525  153.8762 C   0  0  0  0  0  0  0  0  0  0  0  0
  146.1129  142.1576  154.3510 N   0  0  0  0  0  0  0  0  0  0  0  0
  145.4383  143.2658  153.6803 C   0  0  0  0  0  0  0  0  0  0  0  0
  146.0399  142.3108  155.8082 C   0  0  0  0  0  0  0  0  0  0  0  0
  144.6260  142.3266  156.3297 C   0  0  0  0  0  0  0  0  0  0  0  0
  143.6721  141.2694  156.3046 C   0  0  0  0  0  0  0  0  0  0  0  0
  143.8357  139.8799  155.7591 C   0  0  0  0  0  0  0  0  0  0  0  0
  142.5210  141.6290  156.8477 N   0  0  0  0  0  0  0  0  0  0  0  0
  142.6870  142.9574  157.2514 O   0  0  0  0  0  0  0  0  0  0  0  0
  143.9468  143.3496  156.9325 C   0  0  0  0  0  0  0  0  0  0  0  0
  144.3180  144.7511  157.2821 C   0  0  0  0  0  0  0  0  0  0  0  0
  150.9823  141.5976  157.0499 C   0  0  0  0  0  0  0  0  0  0  0  0
  150.9841  142.9572  157.3504 C   0  0  0  0  0  0  0  0  0  0  0  0
  151.5889  143.3504  158.5656 C   0  0  0  0  0  0  0  0  0  0  0  0
  151.6009  144.8267  158.9237 C   0  0  0  0  0  0  0  0  0  0  0  0
  153.2202  141.9757  161.2894 H   0  0  0  0  0  0  0  0  0  0  0  0
  152.0840  143.3189  161.3833 H   0  0  0  0  0  0  0  0  0  0  0  0
  153.6342  143.5217  160.5525 H   0  0  0  0  0  0  0  0  0  0  0  0
  152.6051  140.2817  159.7701 H   0  0  0  0  0  0  0  0  0  0  0  0
  150.4497  138.7470  155.4610 H   0  0  0  0  0  0  0  0  0  0  0  0
  149.7653  142.6314  155.1144 H   0  0  0  0  0  0  0  0  0  0  0  0
  150.4043  141.4628  153.9808 H   0  0  0  0  0  0  0  0  0  0  0  0
  147.9281  140.7464  155.5752 H   0  0  0  0  0  0  0  0  0  0  0  0
  148.9110  140.0747  153.0279 H   0  0  0  0  0  0  0  0  0  0  0  0
  147.9609  143.0372  153.9359 H   0  0  0  0  0  0  0  0  0  0  0  0
  147.5026  141.7922  152.8163 H   0  0  0  0  0  0  0  0  0  0  0  0
  144.3872  143.3212  153.9639 H   0  0  0  0  0  0  0  0  0  0  0  0
  145.4709  143.1411  152.5974 H   0  0  0  0  0  0  0  0  0  0  0  0
  145.9075  144.2195  153.9257 H   0  0  0  0  0  0  0  0  0  0  0  0
  146.5754  141.5001  156.2978 H   0  0  0  0  0  0  0  0  0  0  0  0
  146.5717  143.2166  156.1029 H   0  0  0  0  0  0  0  0  0  0  0  0
  143.9346  139.8985  154.6738 H   0  0  0  0  0  0  0  0  0  0  0  0
  142.9831  139.2451  156.0029 H   0  0  0  0  0  0  0  0  0  0  0  0
  144.7282  139.4045  156.1662 H   0  0  0  0  0  0  0  0  0  0  0  0
  145.3997  144.8634  157.3558 H   0  0  0  0  0  0  0  0  0  0  0  0
  143.8845  145.0401  158.2397 H   0  0  0  0  0  0  0  0  0  0  0  0
  143.9568  145.4452  156.5235 H   0  0  0  0  0  0  0  0  0  0  0  0
  150.5393  143.6848  156.6876 H   0  0  0  0  0  0  0  0  0  0  0  0
  151.1171  145.4281  158.1536 H   0  0  0  0  0  0  0  0  0  0  0  0
  152.6244  145.1863  159.0326 H   0  0  0  0  0  0  0  0  0  0  0  0
  151.0712  144.9979  159.8612 H   0  0  0  0  0  0  0  0  0  0  0  0
  151.6964  138.5073  157.6942 H   0  0  0  0  0  0  0  0  0  0  0  0
  1  2  1  0  0  0  0
  1 26  1  0  0  0  0
  1 27  1  0  0  0  0
  1 28  1  0  0  0  0
  2 24  1  0  0  0  0
  2  3  2  0  0  0  0
  3  4  1  0  0  0  0
  3 29  1  0  0  0  0
  4 22  2  0  0  0  0
  4  5  1  0  0  0  0
  5  6  2  0  0  0  0
  5 52  1  0  0  0  0
  6  7  1  0  0  0  0
  6 30  1  0  0  0  0
  7  8  1  0  0  0  0
  7 22  1  0  0  0  0
  8  9  1  0  0  0  0
  8 31  1  0  0  0  0
  8 32  1  0  0  0  0
  9 10  1  0  0  0  0
  9 11  1  0  0  0  0
  9 33  1  0  0  0  0
 10 34  1  0  0  0  0
 11 12  1  0  0  0  0
 11 35  1  0  0  0  0
 11 36  1  0  0  0  0
 12 13  1  0  0  0  0
 12 14  1  0  0  0  0
 13 37  1  0  0  0  0
 13 38  1  0  0  0  0
 13 39  1  0  0  0  0
 14 15  1  0  0  0  0
 14 40  1  0  0  0  0
 14 41  1  0  0  0  0
 15 20  2  0  0  0  0
 15 16  1  0  0  0  0
 16 17  1  0  0  0  0
 16 18  2  0  0  0  0
 17 42  1  0  0  0  0
 17 43  1  0  0  0  0
 17 44  1  0  0  0  0
 18 19  1  0  0  0  0
 19 20  1  0  0  0  0
 20 21  1  0  0  0  0
 21 45  1  0  0  0  0
 21 46  1  0  0  0  0
 21 47  1  0  0  0  0
 22 23  1  0  0  0  0
 23 24  2  0  0  0  0
 23 48  1  0  0  0  0
 24 25  1  0  0  0  0
 25 49  1  0  0  0  0
 25 50  1  0  0  0  0
 25 51  1  0  0  0  0
M  CHG  1   5   1
M  END
> <s_m_source_file>
AV-unprocessed.smi

> <i_m_source_file_index>
1207

> <i_lp_mmshare_version>
43012

> <i_f3d_flags>
0

> <s_epik_input>
W0NIM11jKFtjSF0xKWMoW0NIM10pW2NIXWMoYzEyKW4oW2NIXW4yKVtDSDJdW0NASF0oW09IXSlbQ0gyXU4oW0NIM10pW0NIMl1jM2MoW0NIM10pbm9jM1tDSDNd

> <s_epik_cmdline>
J2VwaWtfcHl0aG9uJywgJy1waCcsICc3LjAnLCAnLXRuJywgJzgnLCAnLW1hJywgJzIwMCcsICctbWV0YWxfYmluZGluZycsICctaW1hZScsICc8aW5maWxlLm1hZT4nLCAnLW9tYWUnLCAnPG91dGZpbGUubWFlPic=

> <r_epik_Ionization_Penalty>
1.48114

> <r_epik_Ionization_Penalty_Charging>
1.21121

> <r_epik_Ionization_Penalty_Neutral>
0.269933

> <r_epik_State_Penalty>
1.53013

> <r_epik_Charging_Adjusted_Penalty>
2.74134

> <i_epik_Tot_Q>
1

> <i_epik_Tot_abs_Q>
1

> <r_epik_Metal_State_Penalty>
1.60462

> <b_epik_Metal_Only>
0

> <s_lp_Force_Field>
OPLS_2005

> <r_lp_Energy>
21.4613

> <b_lp_Chiralities_Consistent>
1

> <s_lp_Variant>
AV-unprocessed.smi:1207-7

> <Gold.Version>
5.8.1

> <Gold.Id.Protein>
6NUR|6NUR_protein|mol2

> <Gold.PLP.Fitness>
46.3225

> <Gold.PLP.PLP>
-44.6433

> <Gold.PLP.part.hbond>
-1.0000

> <Gold.PLP.part.metal>
0.0000

> <Gold.PLP.part.buried>
-4.2357

> <Gold.PLP.part.nonpolar>
-39.4066

> <Gold.PLP.part.repulsive>
0.2347

> <Gold.PLP.ligand.clash>
0.0000

> <Gold.PLP.ligand.torsion>
0.8805

> <Gold.PLP.Chemscore.Hbond>
1.0000

> <Gold.PLP.Chemscore.CHOScore>
0.0000

> <Gold.PLP.Chemscore.Metal>
0.0000

> <Gold.Chemscore.Hbonds>
donor molecule, donor type, donor heavy atom, donor atom, acceptor molecule, acceptor atom, score
      L1  H    10    34       P1  7957  1.00

> <Gold.PLP.Chemscore.Internal.Correction>
0.4402

> <Gold.Rescore>
     Score         DG    S(hbond)    S(metal)    S(lipo)     H(rot)  DE(clash)    DE(int)     intcor
     14.05     -16.49       0.97        0.00     120.20       2.46       1.55       0.90       ----

> <Gold.Chemscore.Fitness>
14.0457

> <Gold.Chemscore.DG>
-16.4886

> <Gold.Chemscore.ZeroCoef>
-5.4800

> <Gold.Chemscore.Hbond>
0.9674

> <Gold.Chemscore.Metal>
0.0000

> <Gold.Chemscore.Lipo>
120.2003

> <Gold.Chemscore.Internal_Hbond>
0.0000

> <Gold.Chemscore.DEClash>
1.5467

> <Gold.Chemscore.DEInternal>
0.8962

> <Gold.Chemscore.Rot>
2.4555

> <Gold.Chemscore.Internal.Correction>
   9.000000E+99

> <Gold.Chemscore.Hbonds>
donor molecule, donor type, donor heavy atom, donor atom, acceptor molecule, acceptor atom, score
      L1  H    10    34       P1  7957  0.97

> <Gold.Chemscore.Hbond.Weighted>
-3.2313

> <Gold.Chemscore.Metal.Weighted>
-0.0000

> <Gold.Chemscore.Lipo.Weighted>
-14.0634

> <Gold.Chemscore.Internal_Hbond.Weighted>
0.0000

> <Gold.Chemscore.DEClash.Weighted>
1.5467

> <Gold.Chemscore.DEInternal.Weighted>
0.8962

> <Gold.Chemscore.Rot.Weighted>
6.2861

> <Gold.Chemscore.Internal.Correction.Weighted>
   9.000000E+99

> <Gold.Protein.RotatedTorsions>
[ 6907 6896 6895 6894 ] final   26.44 input  -60.11 | X-H torsion
[ 7974 7965 7964 7962 ] final  -10.13 input  175.53 | X-H torsion
[ 8008 7997 7996 7995 ] final   50.27 input   59.86 | X-H torsion
[ 10167 10162 10161 10158 ] final   -4.32 input  -65.29 | X-H torsion
[ 10718 10713 10712 10709 ] final   93.24 input   66.30 | X-H torsion
[ 10763 10752 10751 10750 ] final   -4.95 input  -60.55 | X-H torsion
[ 11005 11000 10999 10996 ] final -151.71 input  -57.11 | X-H torsion

> <Gold.Protein.ActiveResidues>
 VAL166  LYS551  ARG553  GLY616  TRP617  ASP618  TYR619  PRO620  LYS621  CYS622 
 ASP623  PHE694  ASN695  SER759  ASP760  ASP761  ALA762  ILE779  LEU786  VAL792 
 PHE793  MET794  SER795  GLU796  ALA797  LYS798  CYS799  TRP800  GLU811  SER814 

> <Gold.Protein.RotatedAtoms>
  151.9875  134.9996  160.0559 H   0  0  0  0  0  0  0  0  0  0  0  0  # atno 6907 bound_to 6896
  152.1639  133.4595  159.4883 H   0  0  0  0  0  0  0  0  0  0  0  0  # atno 6908 bound_to 6896
  150.6891  134.1955  159.4344 H   0  0  0  0  0  0  0  0  0  0  0  0  # atno 6909 bound_to 6896
  146.2230  140.2718  142.8357 H   0  0  0  0  0  0  0  0  0  0  0  0  # atno 7974 bound_to 7965
  155.4160  140.3444  155.4267 H   0  0  0  0  0  0  0  0  0  0  0  0  # atno 8008 bound_to 7997
  156.1421  140.1545  156.8936 H   0  0  0  0  0  0  0  0  0  0  0  0  # atno 8009 bound_to 7997
  154.4979  140.0822  156.7717 H   0  0  0  0  0  0  0  0  0  0  0  0  # atno 8010 bound_to 7997
  140.6923  143.6437  150.8412 H   0  0  0  0  0  0  0  0  0  0  0  0  # atno 10167 bound_to 10162
  157.6955  131.0471  150.4003 H   0  0  0  0  0  0  0  0  0  0  0  0  # atno 10718 bound_to 10713
  153.3918  135.7002  153.6489 H   0  0  0  0  0  0  0  0  0  0  0  0  # atno 10763 bound_to 10752
  153.5058  135.3642  155.2563 H   0  0  0  0  0  0  0  0  0  0  0  0  # atno 10764 bound_to 10752
  154.8703  135.4123  154.3237 H   0  0  0  0  0  0  0  0  0  0  0  0  # atno 10765 bound_to 10752
  140.7266  134.3668  157.5174 H   0  0  0  0  0  0  0  0  0  0  0  0  # atno 11005 bound_to 11000
  144.9262  140.7924  143.5717 LP  0  0  0  0  0  0  0  0  0  0  0  0  # atno 17320 bound_to 7965
  145.2658  139.1974  143.4868 LP  0  0  0  0  0  0  0  0  0  0  0  0  # atno 17321 bound_to 7965
  140.0152  143.5601  152.2823 LP  0  0  0  0  0  0  0  0  0  0  0  0  # atno 17342 bound_to 10162
  139.6339  144.7647  151.2479 LP  0  0  0  0  0  0  0  0  0  0  0  0  # atno 17343 bound_to 10162
  156.4397  130.3989  149.6705 LP  0  0  0  0  0  0  0  0  0  0  0  0  # atno 17370 bound_to 10713
  156.3893  130.7619  151.2618 LP  0  0  0  0  0  0  0  0  0  0  0  0  # atno 17371 bound_to 10713
  139.8836  134.8990  156.2758 LP  0  0  0  0  0  0  0  0  0  0  0  0  # atno 17394 bound_to 11000
  140.9957  133.7181  156.0882 LP  0  0  0  0  0  0  0  0  0  0  0  0  # atno 17395 bound_to 11000

$$$$
