AV-unprocessed.smi:2758|AV-procd|sdf|10624|dock3
  -GOLD-   2272015 73D 1   1.00000     0.00000
 Structure written by MMmdl.
 33 34  0  0  0  0  0  0  0  0  2 V2000
  150.4216  135.7449  155.0720 C   0  0  0  0  0  0  0  0  0  0  0  0
  151.5829  136.5016  155.3651 O   0  0  0  0  0  0  0  0  0  0  0  0
  151.5414  137.8039  154.8027 C   0  0  0  0  0  0  0  0  0  0  0  0
  152.2979  138.7994  155.6982 C   0  0  1  0  0  0  0  0  0  0  0  0
  152.7103  139.9077  154.9238 O   0  0  0  0  0  0  0  0  0  0  0  0
  151.5006  139.2455  156.9408 C   0  0  0  0  0  0  0  0  0  0  0  0
  151.2742  140.6980  156.9843 N   0  0  0  0  0  0  0  0  0  0  0  0
  150.4836  141.4922  156.2068 C   0  0  0  0  0  0  0  0  0  0  0  0
  149.6225  141.0538  155.0701 C   0  0  0  0  0  0  0  0  0  0  0  0
  150.6242  142.7698  156.6610 N   0  3  0  0  0  0  0  0  0  0  0  0
  151.5102  142.7926  157.7396 C   0  0  0  0  0  0  0  0  0  0  0  0
  151.9642  143.8477  158.5252 C   0  0  0  0  0  0  0  0  0  0  0  0
  152.8722  143.5243  159.5551 C   0  0  0  0  0  0  0  0  0  0  0  0
  153.2946  142.1963  159.7721 C   0  0  0  0  0  0  0  0  0  0  0  0
  152.8274  141.1350  158.9692 C   0  0  0  0  0  0  0  0  0  0  0  0
  151.9305  141.4640  157.9535 C   0  0  0  0  0  0  0  0  0  0  0  0
  153.2150  138.3108  156.0281 H   0  0  0  0  0  0  0  0  0  0  0  0
  150.5001  134.7602  155.5327 H   0  0  0  0  0  0  0  0  0  0  0  0
  150.3035  135.6052  153.9967 H   0  0  0  0  0  0  0  0  0  0  0  0
  149.5256  136.2290  155.4631 H   0  0  0  0  0  0  0  0  0  0  0  0
  152.0160  137.7760  153.8206 H   0  0  0  0  0  0  0  0  0  0  0  0
  150.5106  138.1291  154.6508 H   0  0  0  0  0  0  0  0  0  0  0  0
  151.9526  140.4391  154.7345 H   0  0  0  0  0  0  0  0  0  0  0  0
  150.5234  138.7620  156.9623 H   0  0  0  0  0  0  0  0  0  0  0  0
  152.0097  138.9473  157.8582 H   0  0  0  0  0  0  0  0  0  0  0  0
  149.1939  141.9155  154.5576 H   0  0  0  0  0  0  0  0  0  0  0  0
  148.8093  140.4267  155.4357 H   0  0  0  0  0  0  0  0  0  0  0  0
  150.2086  140.4800  154.3519 H   0  0  0  0  0  0  0  0  0  0  0  0
  151.6423  144.8657  158.3611 H   0  0  0  0  0  0  0  0  0  0  0  0
  153.2521  144.3105  160.1915 H   0  0  0  0  0  0  0  0  0  0  0  0
  153.9908  141.9872  160.5715 H   0  0  0  0  0  0  0  0  0  0  0  0
  153.1561  140.1211  159.1431 H   0  0  0  0  0  0  0  0  0  0  0  0
  150.1453  143.5667  156.2614 H   0  0  0  0  0  0  0  0  0  0  0  0
  1  2  1  0  0  0  0
  1 18  1  0  0  0  0
  1 19  1  0  0  0  0
  1 20  1  0  0  0  0
  2  3  1  0  0  0  0
  3  4  1  0  0  0  0
  3 21  1  0  0  0  0
  3 22  1  0  0  0  0
  4 17  1  0  0  0  0
  4  5  1  0  0  0  0
  4  6  1  0  0  0  0
  5 23  1  0  0  0  0
  6  7  1  0  0  0  0
  6 24  1  0  0  0  0
  6 25  1  0  0  0  0
  7 16  1  0  0  0  0
  7  8  1  0  0  0  0
  8  9  1  0  0  0  0
  8 10  2  0  0  0  0
  9 26  1  0  0  0  0
  9 27  1  0  0  0  0
  9 28  1  0  0  0  0
 10 11  1  0  0  0  0
 10 33  1  0  0  0  0
 11 16  2  0  0  0  0
 11 12  1  0  0  0  0
 12 13  2  0  0  0  0
 12 29  1  0  0  0  0
 13 14  1  0  0  0  0
 13 30  1  0  0  0  0
 14 15  2  0  0  0  0
 14 31  1  0  0  0  0
 15 16  1  0  0  0  0
 15 32  1  0  0  0  0
M  CHG  1  10   1
M  END
> <s_m_source_file>
AV-unprocessed.smi

> <i_m_source_file_index>
2758

> <i_lp_mmshare_version>
43012

> <i_f3d_flags>
0

> <s_epik_input>
W0NIM11PW0NIMl1bQ0BASF0oW09IXSlbQ0gyXW4oYyhuMSlbQ0gzXSljKGMxMilbY0hdW2NIXVtjSF1bY0hdMg==

> <s_epik_cmdline>
J2VwaWtfcHl0aG9uJywgJy1waCcsICc3LjAnLCAnLXRuJywgJzgnLCAnLW1hJywgJzIwMCcsICctbWV0YWxfYmluZGluZycsICctaW1hZScsICc8aW5maWxlLm1hZT4nLCAnLW9tYWUnLCAnPG91dGZpbGUubWFlPic=

> <r_epik_Ionization_Penalty>
0.974942

> <r_epik_Ionization_Penalty_Charging>
0.974941

> <r_epik_Ionization_Penalty_Neutral>
8.70205e-07

> <r_epik_State_Penalty>
1.02127

> <r_epik_Charging_Adjusted_Penalty>
1.99621

> <i_epik_Tot_Q>
1

> <i_epik_Tot_abs_Q>
1

> <r_epik_Metal_State_Penalty>
4.99771

> <b_epik_Metal_Only>
0

> <s_lp_Force_Field>
OPLS_2005

> <r_lp_Energy>
13.0774

> <b_lp_Chiralities_Consistent>
1

> <s_lp_Variant>
AV-unprocessed.smi:2758-3

> <Gold.Version>
5.8.1

> <Gold.Id.Protein>
6NUR|6NUR_protein|mol2

> <Gold.PLP.Fitness>
47.6675

> <Gold.PLP.PLP>
-38.1178

> <Gold.PLP.part.hbond>
-4.0000

> <Gold.PLP.part.metal>
0.0000

> <Gold.PLP.part.buried>
-3.2472

> <Gold.PLP.part.nonpolar>
-31.0204

> <Gold.PLP.part.repulsive>
0.1465

> <Gold.PLP.ligand.clash>
0.0000

> <Gold.PLP.ligand.torsion>
1.2351

> <Gold.PLP.Chemscore.Hbond>
4.0000

> <Gold.PLP.Chemscore.CHOScore>
0.0000

> <Gold.PLP.Chemscore.Metal>
0.0000

> <Gold.Chemscore.Hbonds>
donor molecule, donor type, donor heavy atom, donor atom, acceptor molecule, acceptor atom, score
      L1  H    10    33       P1  8028  2.00
      P1  H  7997  8008       L1     5  0.95
      P1  H 10752 10763       L1     2  1.00

> <Gold.PLP.Chemscore.Internal.Correction>
0.0199

> <Gold.Rescore>
     Score         DG    S(hbond)    S(metal)    S(lipo)     H(rot)  DE(clash)    DE(int)     intcor
     18.95     -20.58       2.93        0.00      91.70       2.12       0.08       1.55       ----

> <Gold.Chemscore.Fitness>
18.9519

> <Gold.Chemscore.DG>
-20.5782

> <Gold.Chemscore.ZeroCoef>
-5.4800

> <Gold.Chemscore.Hbond>
2.9342

> <Gold.Chemscore.Metal>
0.0000

> <Gold.Chemscore.Lipo>
91.6970

> <Gold.Chemscore.Internal_Hbond>
0.0000

> <Gold.Chemscore.DEClash>
0.0785

> <Gold.Chemscore.DEInternal>
1.5477

> <Gold.Chemscore.Rot>
2.1213

> <Gold.Chemscore.Internal.Correction>
   9.000000E+99

> <Gold.Chemscore.Hbonds>
donor molecule, donor type, donor heavy atom, donor atom, acceptor molecule, acceptor atom, score
      L1  H    10    33       P1  8028  1.00
      P1  H  7997  8008       L1     5  0.20
      P1  H 10752 10763       L1     2  0.24

> <Gold.Chemscore.Hbond.Weighted>
-9.8002

> <Gold.Chemscore.Metal.Weighted>
-0.0000

> <Gold.Chemscore.Lipo.Weighted>
-10.7285

> <Gold.Chemscore.Internal_Hbond.Weighted>
0.0000

> <Gold.Chemscore.DEClash.Weighted>
0.0785

> <Gold.Chemscore.DEInternal.Weighted>
1.5477

> <Gold.Chemscore.Rot.Weighted>
5.4306

> <Gold.Chemscore.Internal.Correction.Weighted>
   9.000000E+99

> <Gold.Protein.RotatedTorsions>
[ 6907 6896 6895 6894 ] final   34.87 input  -60.11 | X-H torsion
[ 7974 7965 7964 7962 ] final  -18.81 input  175.53 | X-H torsion
[ 8008 7997 7996 7995 ] final   -6.96 input   59.86 | X-H torsion
[ 10167 10162 10161 10158 ] final  -36.85 input  -65.29 | X-H torsion
[ 10718 10713 10712 10709 ] final  112.03 input   66.30 | X-H torsion
[ 10763 10752 10751 10750 ] final   52.58 input  -60.55 | X-H torsion
[ 11005 11000 10999 10996 ] final  -60.20 input  -57.11 | X-H torsion

> <Gold.Protein.ActiveResidues>
 VAL166  LYS551  ARG553  GLY616  TRP617  ASP618  TYR619  PRO620  LYS621  CYS622 
 ASP623  PHE694  ASN695  SER759  ASP760  ASP761  ALA762  ILE779  LEU786  VAL792 
 PHE793  MET794  SER795  GLU796  ALA797  LYS798  CYS799  TRP800  GLU811  SER814 

> <Gold.Protein.RotatedAtoms>
  152.1083  134.9293  160.0567 H   0  0  0  0  0  0  0  0  0  0  0  0  # atno 6907 bound_to 6896
  152.0480  133.4001  159.4373 H   0  0  0  0  0  0  0  0  0  0  0  0  # atno 6908 bound_to 6896
  150.6842  134.3260  159.4850 H   0  0  0  0  0  0  0  0  0  0  0  0  # atno 6909 bound_to 6896
  146.1873  140.3974  142.8471 H   0  0  0  0  0  0  0  0  0  0  0  0  # atno 7974 bound_to 7965
  154.5886  140.2419  155.7952 H   0  0  0  0  0  0  0  0  0  0  0  0  # atno 8008 bound_to 7997
  156.2231  140.2991  155.9955 H   0  0  0  0  0  0  0  0  0  0  0  0  # atno 8009 bound_to 7997
  155.2414  140.0407  157.2966 H   0  0  0  0  0  0  0  0  0  0  0  0  # atno 8010 bound_to 7997
  140.7133  143.3381  151.2418 H   0  0  0  0  0  0  0  0  0  0  0  0  # atno 10167 bound_to 10162
  157.6414  131.0961  150.6836 H   0  0  0  0  0  0  0  0  0  0  0  0  # atno 10718 bound_to 10713
  152.9789  135.5808  154.4602 H   0  0  0  0  0  0  0  0  0  0  0  0  # atno 10763 bound_to 10752
  154.4179  135.2771  155.1997 H   0  0  0  0  0  0  0  0  0  0  0  0  # atno 10764 bound_to 10752
  154.3758  135.6157  153.5818 H   0  0  0  0  0  0  0  0  0  0  0  0  # atno 10765 bound_to 10752
  141.1278  133.6620  156.5187 H   0  0  0  0  0  0  0  0  0  0  0  0  # atno 11005 bound_to 11000
  144.8421  140.6873  143.6223 LP  0  0  0  0  0  0  0  0  0  0  0  0  # atno 17320 bound_to 7965
  145.3900  139.1618  143.4234 LP  0  0  0  0  0  0  0  0  0  0  0  0  # atno 17321 bound_to 7965
  139.6881  143.9738  152.2845 LP  0  0  0  0  0  0  0  0  0  0  0  0  # atno 17342 bound_to 10162
  139.9391  144.6693  150.8285 LP  0  0  0  0  0  0  0  0  0  0  0  0  # atno 17343 bound_to 10162
  156.7159  130.4666  149.5535 LP  0  0  0  0  0  0  0  0  0  0  0  0  # atno 17370 bound_to 10713
  156.1698  130.6429  151.0823 LP  0  0  0  0  0  0  0  0  0  0  0  0  # atno 17371 bound_to 10713
  140.4310  134.7102  157.4941 LP  0  0  0  0  0  0  0  0  0  0  0  0  # atno 17394 bound_to 11000
  140.0294  134.6429  155.9127 LP  0  0  0  0  0  0  0  0  0  0  0  0  # atno 17395 bound_to 11000

$$$$
