AV-unprocessed.smi:713|AV-procd|sdf|3478|dock3
  -GOLD-   22720 0473D 1   1.00000     0.00000
 Structure written by MMmdl.
 41 42  0  0  0  0  0  0  0  0  1 V2000
  151.3564  144.6821  158.0167 C   0  0  0  0  0  0  0  0  0  0  0  0
  152.0386  143.3230  158.2733 C   0  0  2  0  0  0  0  0  0  0  0  0
  151.1865  142.1421  157.7838 C   0  0  0  0  0  0  0  0  0  0  0  0
  151.4199  140.9972  158.1730 O   0  0  0  0  0  0  0  0  0  0  0  0
  150.1982  142.4372  156.9241 N   0  0  0  0  0  0  0  0  0  0  0  0
  149.2795  141.4716  156.3290 C   0  0  2  0  0  0  0  0  0  0  0  0
  149.4844  141.4405  154.8033 C   0  0  0  0  0  0  0  0  0  0  0  0
  148.4979  140.4781  154.1241 C   0  0  0  0  0  0  0  0  0  0  0  0
  147.0444  140.8302  154.4759 C   0  0  0  0  0  0  0  0  0  0  0  0
  146.8261  140.8524  155.9995 C   0  0  2  0  0  0  0  0  0  0  0  0
  145.0747  141.3155  156.3764 S   0  0  0  0  0  0  0  0  0  0  0  0
  144.9175  142.9772  155.5990 C   0  0  0  0  0  0  0  0  0  0  0  0
  144.1804  140.3939  155.6589 O   0  0  0  0  0  0  0  0  0  0  0  0
  144.9407  141.4698  157.8330 O   0  0  0  0  0  0  0  0  0  0  0  0
  147.8169  141.8193  156.6773 C   0  0  0  0  0  0  0  0  0  0  0  0
  152.4004  143.1352  159.6740 N   0  0  0  0  0  0  0  0  0  0  0  0
  153.0463  142.0568  160.2442 C   0  0  0  0  0  0  0  0  0  0  0  0
  153.1352  142.2923  161.5862 C   0  0  0  0  0  0  0  0  0  0  0  0
  152.4940  143.5510  161.7511 C   0  0  0  0  0  0  0  0  0  0  0  0
  152.0475  144.0478  160.6096 N   0  0  0  0  0  0  0  0  0  0  0  0
  151.1532  144.8238  156.9547 H   0  0  0  0  0  0  0  0  0  0  0  0
  151.9965  145.5039  158.3388 H   0  0  0  0  0  0  0  0  0  0  0  0
  150.4082  144.7753  158.5479 H   0  0  0  0  0  0  0  0  0  0  0  0
  152.9685  143.3207  157.7020 H   0  0  0  0  0  0  0  0  0  0  0  0
  150.0765  143.4035  156.6580 H   0  0  0  0  0  0  0  0  0  0  0  0
  149.5106  140.4799  156.7233 H   0  0  0  0  0  0  0  0  0  0  0  0
  149.3513  142.4420  154.3910 H   0  0  0  0  0  0  0  0  0  0  0  0
  150.5074  141.1430  154.5685 H   0  0  0  0  0  0  0  0  0  0  0  0
  148.6352  140.5071  153.0427 H   0  0  0  0  0  0  0  0  0  0  0  0
  148.7119  139.4549  154.4352 H   0  0  0  0  0  0  0  0  0  0  0  0
  146.7926  141.8042  154.0543 H   0  0  0  0  0  0  0  0  0  0  0  0
  146.3709  140.1095  154.0115 H   0  0  0  0  0  0  0  0  0  0  0  0
  146.9796  139.8465  156.3919 H   0  0  0  0  0  0  0  0  0  0  0  0
  143.9400  143.3944  155.8397 H   0  0  0  0  0  0  0  0  0  0  0  0
  145.0098  142.8945  154.5168 H   0  0  0  0  0  0  0  0  0  0  0  0
  145.6948  143.6370  155.9839 H   0  0  0  0  0  0  0  0  0  0  0  0
  147.6819  141.7907  157.7578 H   0  0  0  0  0  0  0  0  0  0  0  0
  147.6023  142.8426  156.3662 H   0  0  0  0  0  0  0  0  0  0  0  0
  153.3863  141.2191  159.6532 H   0  0  0  0  0  0  0  0  0  0  0  0
  153.5846  141.6593  162.3367 H   0  0  0  0  0  0  0  0  0  0  0  0
  152.3361  144.1125  162.6602 H   0  0  0  0  0  0  0  0  0  0  0  0
  1  2  1  0  0  0  0
  1 21  1  0  0  0  0
  1 22  1  0  0  0  0
  1 23  1  0  0  0  0
  2  3  1  0  0  0  0
  2 16  1  0  0  0  0
  2 24  1  0  0  0  0
  3  4  2  0  0  0  0
  3  5  1  0  0  0  0
  5  6  1  0  0  0  0
  5 25  1  0  0  0  0
  6 15  1  0  0  0  0
  6  7  1  0  0  0  0
  6 26  1  0  0  0  0
  7  8  1  0  0  0  0
  7 27  1  0  0  0  0
  7 28  1  0  0  0  0
  8  9  1  0  0  0  0
  8 29  1  0  0  0  0
  8 30  1  0  0  0  0
  9 10  1  0  0  0  0
  9 31  1  0  0  0  0
  9 32  1  0  0  0  0
 10 11  1  0  0  0  0
 10 15  1  0  0  0  0
 10 33  1  0  0  0  0
 11 12  1  0  0  0  0
 11 13  2  0  0  0  0
 11 14  2  0  0  0  0
 12 34  1  0  0  0  0
 12 35  1  0  0  0  0
 12 36  1  0  0  0  0
 15 37  1  0  0  0  0
 15 38  1  0  0  0  0
 16 20  1  0  0  0  0
 16 17  1  0  0  0  0
 17 18  2  0  0  0  0
 17 39  1  0  0  0  0
 18 19  1  0  0  0  0
 18 40  1  0  0  0  0
 19 20  2  0  0  0  0
 19 41  1  0  0  0  0
M  END
> <s_m_source_file>
AV-unprocessed.smi

> <i_m_source_file_index>
713

> <i_lp_mmshare_version>
43012

> <i_f3d_flags>
0

> <s_epik_input>
bjFbY0hdW2NIXVtjSF1uMVtDQEhdKFtDSDNdKUMoPU8pW05IXVtDQEBIXTJbQ0gyXVtDSDJdW0NIMl1bQ0BIXShbQ0gyXTIpUyg9TykoPU8pW0NIM10=

> <s_epik_cmdline>
J2VwaWtfcHl0aG9uJywgJy1waCcsICc3LjAnLCAnLXRuJywgJzgnLCAnLW1hJywgJzIwMCcsICctbWV0YWxfYmluZGluZycsICctaW1hZScsICc8aW5maWxlLm1hZT4nLCAnLW9tYWUnLCAnPG91dGZpbGUubWFlPic=

> <r_lp_tautomer_probability>
1

> <r_epik_Ionization_Penalty>
4.07816e-05

> <r_epik_Ionization_Penalty_Charging>
0

> <r_epik_Ionization_Penalty_Neutral>
4.07816e-05

> <r_epik_State_Penalty>
-0

> <r_epik_Charging_Adjusted_Penalty>
0

> <i_epik_Tot_Q>
0

> <i_epik_Tot_abs_Q>
0

> <r_epik_Metal_State_Penalty>
-0

> <b_epik_Metal_Only>
0

> <s_lp_Force_Field>
OPLS_2005

> <r_lp_Energy>
7.47495

> <b_lp_Chiralities_Consistent>
1

> <s_lp_Variant>
AV-unprocessed.smi:713-5

> <Gold.Version>
5.8.1

> <Gold.Id.Protein>
6NUR|6NUR_protein|mol2

> <Gold.PLP.Fitness>
40.8576

> <Gold.PLP.PLP>
-39.2146

> <Gold.PLP.part.hbond>
-1.0000

> <Gold.PLP.part.metal>
0.0000

> <Gold.PLP.part.buried>
-4.8725

> <Gold.PLP.part.nonpolar>
-33.2432

> <Gold.PLP.part.repulsive>
0.2436

> <Gold.PLP.ligand.clash>
0.0000

> <Gold.PLP.ligand.torsion>
0.6646

> <Gold.PLP.Chemscore.Hbond>
0.9120

> <Gold.PLP.Chemscore.CHOScore>
0.0000

> <Gold.PLP.Chemscore.Metal>
0.0000

> <Gold.Chemscore.Hbonds>
donor molecule, donor type, donor heavy atom, donor atom, acceptor molecule, acceptor atom, score
      L1  H     5    25       P1  8028  0.91

> <Gold.PLP.Chemscore.Internal.Correction>
0.2361

> <Gold.Rescore>
     Score         DG    S(hbond)    S(metal)    S(lipo)     H(rot)  DE(clash)    DE(int)     intcor
     13.10     -15.09       0.97        0.00      92.26       1.72       0.04       1.95       ----

> <Gold.Chemscore.Fitness>
13.1007

> <Gold.Chemscore.DG>
-15.0886

> <Gold.Chemscore.ZeroCoef>
-5.4800

> <Gold.Chemscore.Hbond>
0.9669

> <Gold.Chemscore.Metal>
0.0000

> <Gold.Chemscore.Lipo>
92.2648

> <Gold.Chemscore.Internal_Hbond>
0.0000

> <Gold.Chemscore.DEClash>
0.0363

> <Gold.Chemscore.DEInternal>
1.9517

> <Gold.Chemscore.Rot>
1.7249

> <Gold.Chemscore.Internal.Correction>
   9.000000E+99

> <Gold.Chemscore.Hbonds>
donor molecule, donor type, donor heavy atom, donor atom, acceptor molecule, acceptor atom, score
      L1  H     5    25       P1  8028  0.84

> <Gold.Chemscore.Hbond.Weighted>
-3.2294

> <Gold.Chemscore.Metal.Weighted>
-0.0000

> <Gold.Chemscore.Lipo.Weighted>
-10.7950

> <Gold.Chemscore.Internal_Hbond.Weighted>
0.0000

> <Gold.Chemscore.DEClash.Weighted>
0.0363

> <Gold.Chemscore.DEInternal.Weighted>
1.9517

> <Gold.Chemscore.Rot.Weighted>
4.4157

> <Gold.Chemscore.Internal.Correction.Weighted>
   9.000000E+99

> <Gold.Protein.RotatedTorsions>
[ 6907 6896 6895 6894 ] final   14.18 input  -60.11 | X-H torsion
[ 7974 7965 7964 7962 ] final  144.76 input  175.53 | X-H torsion
[ 8008 7997 7996 7995 ] final  -58.22 input   59.86 | X-H torsion
[ 10167 10162 10161 10158 ] final   60.41 input  -65.29 | X-H torsion
[ 10718 10713 10712 10709 ] final  -90.20 input   66.30 | X-H torsion
[ 10763 10752 10751 10750 ] final  -94.84 input  -60.55 | X-H torsion
[ 11005 11000 10999 10996 ] final   35.31 input  -57.11 | X-H torsion

> <Gold.Protein.ActiveResidues>
 VAL166  LYS551  ARG553  GLY616  TRP617  ASP618  TYR619  PRO620  LYS621  CYS622 
 ASP623  PHE694  ASN695  SER759  ASP760  ASP761  ALA762  ILE779  LEU786  VAL792 
 PHE793  MET794  SER795  GLU796  ALA797  LYS798  CYS799  TRP800  GLU811  SER814 

> <Gold.Protein.RotatedAtoms>
  151.7981  135.0716  160.0396 H   0  0  0  0  0  0  0  0  0  0  0  0  # atno 6907 bound_to 6896
  152.3108  133.5747  159.5688 H   0  0  0  0  0  0  0  0  0  0  0  0  # atno 6908 bound_to 6896
  150.7319  134.0070  159.3699 H   0  0  0  0  0  0  0  0  0  0  0  0  # atno 6909 bound_to 6896
  144.8808  139.5702  143.5843 H   0  0  0  0  0  0  0  0  0  0  0  0  # atno 7974 bound_to 7965
  154.4300  140.1089  156.5923 H   0  0  0  0  0  0  0  0  0  0  0  0  # atno 8008 bound_to 7997
  155.5999  140.3493  155.4572 H   0  0  0  0  0  0  0  0  0  0  0  0  # atno 8009 bound_to 7997
  156.0181  140.1233  157.0375 H   0  0  0  0  0  0  0  0  0  0  0  0  # atno 8010 bound_to 7997
  140.1659  144.4325  150.6686 H   0  0  0  0  0  0  0  0  0  0  0  0  # atno 10167 bound_to 10162
  155.9987  130.4901  150.5287 H   0  0  0  0  0  0  0  0  0  0  0  0  # atno 10718 bound_to 10713
  154.7093  135.5142  153.8642 H   0  0  0  0  0  0  0  0  0  0  0  0  # atno 10763 bound_to 10752
  153.0767  135.6618  154.0140 H   0  0  0  0  0  0  0  0  0  0  0  0  # atno 10764 bound_to 10752
  153.9985  135.3013  155.3384 H   0  0  0  0  0  0  0  0  0  0  0  0  # atno 10765 bound_to 10752
  140.2440  134.3382  155.7915 H   0  0  0  0  0  0  0  0  0  0  0  0  # atno 11005 bound_to 11000
  146.2993  139.7377  142.9103 LP  0  0  0  0  0  0  0  0  0  0  0  0  # atno 17320 bound_to 7965
  145.3957  141.0378  143.3099 LP  0  0  0  0  0  0  0  0  0  0  0  0  # atno 17321 bound_to 7965
  140.6613  143.2253  151.5848 LP  0  0  0  0  0  0  0  0  0  0  0  0  # atno 17342 bound_to 10162
  139.5360  144.2780  152.1252 LP  0  0  0  0  0  0  0  0  0  0  0  0  # atno 17343 bound_to 10162
  157.3239  131.0687  151.1911 LP  0  0  0  0  0  0  0  0  0  0  0  0  # atno 17370 bound_to 10713
  157.2815  130.6752  149.6068 LP  0  0  0  0  0  0  0  0  0  0  0  0  # atno 17371 bound_to 10713
  141.2208  133.7315  156.8930 LP  0  0  0  0  0  0  0  0  0  0  0  0  # atno 17394 bound_to 11000
  140.1625  134.9156  157.2732 LP  0  0  0  0  0  0  0  0  0  0  0  0  # atno 17395 bound_to 11000

$$$$
