AV-unprocessed.smi:117|AV-procd|sdf|1130|dock4
  -GOLD-   2262018253D 1   1.00000     0.00000
 Structure written by MMmdl.
 53 55  0  0  0  0  0  0  0  0  1 V2000
  144.9832  132.8144  149.9357 C   0  0  0  0  0  0  0  0  0  0  0  0
  145.7762  132.3441  151.1432 C   0  0  0  0  0  0  0  0  0  0  0  0
  145.9298  130.9592  151.3575 C   0  0  0  0  0  0  0  0  0  0  0  0
  146.6701  130.4881  152.4545 C   0  0  0  0  0  0  0  0  0  0  0  0
  147.2604  131.4000  153.3455 C   0  0  0  0  0  0  0  0  0  0  0  0
  147.1051  132.7929  153.1547 C   0  0  0  0  0  0  0  0  0  0  0  0
  147.7530  133.7168  154.0170 N   0  0  0  0  0  0  0  0  0  0  0  0
  148.9600  133.6045  154.6055 C   0  0  0  0  0  0  0  0  0  0  0  0
  149.6774  132.6095  154.5080 O   0  0  0  0  0  0  0  0  0  0  0  0
  149.4528  134.7912  155.4509 C   0  0  0  0  0  0  0  0  0  0  0  0
  149.9589  135.9080  154.6543 N   0  0  0  0  0  0  0  0  0  0  0  0
  150.9989  136.6991  154.9706 C   0  0  0  0  0  0  0  0  0  0  0  0
  151.7207  136.4949  155.9453 O   0  0  0  0  0  0  0  0  0  0  0  0
  151.2463  137.9438  154.0985 C   0  0  0  0  0  0  0  0  0  0  0  0
  150.8040  139.2209  154.7087 N   0  0  0  0  0  0  0  0  0  0  0  0
  149.5060  139.7099  154.4203 C   0  0  0  0  0  0  0  0  0  0  0  0
  148.7405  139.0937  153.6782 O   0  0  0  0  0  0  0  0  0  0  0  0
  149.1513  140.9697  155.0645 C   0  0  0  0  0  0  0  0  0  0  0  0
  147.9517  141.5256  154.8243 F   0  0  0  0  0  0  0  0  0  0  0  0
  150.0084  141.5865  155.9042 C   0  0  0  0  0  0  0  0  0  0  0  0
  151.2538  141.0764  156.2139 N   0  0  0  0  0  0  0  0  0  0  0  0
  152.1414  141.8359  157.1762 C   0  0  1  0  0  0  0  0  0  0  0  0
  151.5942  143.2228  157.5433 C   0  0  0  0  0  0  0  0  0  0  0  0
  152.0503  143.3473  158.9800 C   0  0  0  0  0  0  0  0  0  0  0  0
  151.9261  141.9110  159.4761 C   0  0  0  0  0  0  0  0  0  0  0  0
  152.2837  141.1007  158.3578 O   0  0  0  0  0  0  0  0  0  0  0  0
  151.6926  139.8877  155.5873 C   0  0  0  0  0  0  0  0  0  0  0  0
  152.8150  139.4314  155.8043 O   0  0  0  0  0  0  0  0  0  0  0  0
  146.3626  133.2721  152.0417 C   0  0  0  0  0  0  0  0  0  0  0  0
  146.1706  134.7671  151.7981 C   0  0  0  0  0  0  0  0  0  0  0  0
  144.6257  131.9728  149.3422 H   0  0  0  0  0  0  0  0  0  0  0  0
  145.6033  133.4365  149.2898 H   0  0  0  0  0  0  0  0  0  0  0  0
  144.1146  133.3939  150.2488 H   0  0  0  0  0  0  0  0  0  0  0  0
  145.4856  130.2492  150.6754 H   0  0  0  0  0  0  0  0  0  0  0  0
  146.7936  129.4262  152.6077 H   0  0  0  0  0  0  0  0  0  0  0  0
  147.8486  131.0151  154.1652 H   0  0  0  0  0  0  0  0  0  0  0  0
  147.2053  134.5229  154.2820 H   0  0  0  0  0  0  0  0  0  0  0  0
  148.6486  135.1184  156.1118 H   0  0  0  0  0  0  0  0  0  0  0  0
  150.2611  134.4449  156.0956 H   0  0  0  0  0  0  0  0  0  0  0  0
  149.4264  136.1472  153.8307 H   0  0  0  0  0  0  0  0  0  0  0  0
  152.3122  137.9941  153.8685 H   0  0  0  0  0  0  0  0  0  0  0  0
  150.7774  137.7707  153.1291 H   0  0  0  0  0  0  0  0  0  0  0  0
  149.6949  142.5160  156.3569 H   0  0  0  0  0  0  0  0  0  0  0  0
  153.1200  141.8989  156.6987 H   0  0  0  0  0  0  0  0  0  0  0  0
  152.0005  143.9921  156.8864 H   0  0  0  0  0  0  0  0  0  0  0  0
  150.5077  143.2504  157.4830 H   0  0  0  0  0  0  0  0  0  0  0  0
  153.0925  143.6669  159.0158 H   0  0  0  0  0  0  0  0  0  0  0  0
  151.4554  144.0530  159.5597 H   0  0  0  0  0  0  0  0  0  0  0  0
  152.5669  141.7089  160.3344 H   0  0  0  0  0  0  0  0  0  0  0  0
  150.8982  141.6966  159.7681 H   0  0  0  0  0  0  0  0  0  0  0  0
  145.1080  135.0090  151.7685 H   0  0  0  0  0  0  0  0  0  0  0  0
  146.6098  135.0531  150.8426 H   0  0  0  0  0  0  0  0  0  0  0  0
  146.6170  135.4003  152.5634 H   0  0  0  0  0  0  0  0  0  0  0  0
  1  2  1  0  0  0  0
  1 31  1  0  0  0  0
  1 32  1  0  0  0  0
  1 33  1  0  0  0  0
  2 29  1  0  0  0  0
  2  3  2  0  0  0  0
  3  4  1  0  0  0  0
  3 34  1  0  0  0  0
  4  5  2  0  0  0  0
  4 35  1  0  0  0  0
  5  6  1  0  0  0  0
  5 36  1  0  0  0  0
  6  7  1  0  0  0  0
  6 29  2  0  0  0  0
  7  8  1  0  0  0  0
  7 37  1  0  0  0  0
  8  9  2  0  0  0  0
  8 10  1  0  0  0  0
 10 11  1  0  0  0  0
 10 38  1  0  0  0  0
 10 39  1  0  0  0  0
 11 12  1  0  0  0  0
 11 40  1  0  0  0  0
 12 13  2  0  0  0  0
 12 14  1  0  0  0  0
 14 15  1  0  0  0  0
 14 41  1  0  0  0  0
 14 42  1  0  0  0  0
 15 27  1  0  0  0  0
 15 16  1  0  0  0  0
 16 17  2  0  0  0  0
 16 18  1  0  0  0  0
 18 19  1  0  0  0  0
 18 20  2  0  0  0  0
 20 21  1  0  0  0  0
 20 43  1  0  0  0  0
 21 22  1  0  0  0  0
 21 27  1  0  0  0  0
 22 26  1  0  0  0  0
 22 23  1  0  0  0  0
 22 44  1  0  0  0  0
 23 24  1  0  0  0  0
 23 45  1  0  0  0  0
 23 46  1  0  0  0  0
 24 25  1  0  0  0  0
 24 47  1  0  0  0  0
 24 48  1  0  0  0  0
 25 26  1  0  0  0  0
 25 49  1  0  0  0  0
 25 50  1  0  0  0  0
 27 28  2  0  0  0  0
 29 30  1  0  0  0  0
 30 51  1  0  0  0  0
 30 52  1  0  0  0  0
 30 53  1  0  0  0  0
M  END
> <s_m_source_file>
AV-unprocessed.smi

> <i_m_source_file_index>
117

> <i_lp_mmshare_version>
43012

> <i_f3d_flags>
0

> <s_epik_input>
W0NIM11jMVtjSF1bY0hdW2NIXWMoYzFbQ0gzXSlbTkhdQyg9TylbQ0gyXVtOSF1DKD1PKVtDSDJdbjJjKD1PKWMoRilbY0hdbihjMj1PKVtDQEBIXTNbQ0gyXVtDSDJdW0NIMl1PMw==

> <s_epik_cmdline>
J2VwaWtfcHl0aG9uJywgJy1waCcsICc3LjAnLCAnLXRuJywgJzgnLCAnLW1hJywgJzIwMCcsICctbWV0YWxfYmluZGluZycsICctaW1hZScsICc8aW5maWxlLm1hZT4nLCAnLW9tYWUnLCAnPG91dGZpbGUubWFlPic=

> <r_lp_tautomer_probability>
1

> <r_epik_Ionization_Penalty>
1.58439e-06

> <r_epik_Ionization_Penalty_Charging>
4.14583e-09

> <r_epik_Ionization_Penalty_Neutral>
1.58025e-06

> <r_epik_State_Penalty>
-0

> <r_epik_Charging_Adjusted_Penalty>
4.14583e-09

> <i_epik_Tot_Q>
0

> <i_epik_Tot_abs_Q>
0

> <r_epik_Metal_State_Penalty>
-0

> <b_epik_Metal_Only>
0

> <s_epik_Chemistry_Notes>
This compound contains an acetal/aminal-like group ( X-CH(R)-Y where X, Y are N, S, or O) that may be acid/base labile, releasing an aldehyde.

> <s_lp_Force_Field>
OPLS_2005

> <r_lp_Energy>
23.1061

> <b_lp_Chiralities_Consistent>
1

> <s_lp_Variant>
AV-unprocessed.smi:117-2

> <Gold.Version>
5.8.1

> <Gold.Id.Protein>
6NUR|6NUR_protein|mol2

> <Gold.PLP.Fitness>
61.7324

> <Gold.PLP.PLP>
-52.5497

> <Gold.PLP.part.hbond>
-3.0000

> <Gold.PLP.part.metal>
0.0000

> <Gold.PLP.part.buried>
-8.0566

> <Gold.PLP.part.nonpolar>
-42.3842

> <Gold.PLP.part.repulsive>
1.5250

> <Gold.PLP.ligand.clash>
0.0000

> <Gold.PLP.ligand.torsion>
1.3941

> <Gold.PLP.Chemscore.Hbond>
2.9760

> <Gold.PLP.Chemscore.CHOScore>
1.0000

> <Gold.PLP.Chemscore.Metal>
0.0000

> <Gold.Chemscore.Hbonds>
donor molecule, donor type, donor heavy atom, donor atom, acceptor molecule, acceptor atom, score
      L1  H    11    40       P1  7948  1.00
      P1  H  7997  8009       L1    28  1.00
      P1  H 10752 10765       L1    13  0.90
      L1  C    20    43       P1  8028  1.00

> <Gold.PLP.Chemscore.Internal.Correction>
0.0429

> <Gold.Rescore>
     Score         DG    S(hbond)    S(metal)    S(lipo)     H(rot)  DE(clash)    DE(int)     intcor
     16.86     -21.12       2.63        0.00     109.18       2.32       0.93       3.33       ----

> <Gold.Chemscore.Fitness>
16.8603

> <Gold.Chemscore.DG>
-21.1205

> <Gold.Chemscore.ZeroCoef>
-5.4800

> <Gold.Chemscore.Hbond>
2.6339

> <Gold.Chemscore.Metal>
0.0000

> <Gold.Chemscore.Lipo>
109.1791

> <Gold.Chemscore.Internal_Hbond>
0.0000

> <Gold.Chemscore.DEClash>
0.9262

> <Gold.Chemscore.DEInternal>
3.3340

> <Gold.Chemscore.Rot>
2.3166

> <Gold.Chemscore.Internal.Correction>
   9.000000E+99

> <Gold.Chemscore.Hbonds>
donor molecule, donor type, donor heavy atom, donor atom, acceptor molecule, acceptor atom, score
      L1  H    11    40       P1  7948  0.66
      P1  H  7997  8009       L1    28  1.00
      P1  H 10752 10765       L1    13  0.18

> <Gold.Chemscore.Hbond.Weighted>
-8.7971

> <Gold.Chemscore.Metal.Weighted>
-0.0000

> <Gold.Chemscore.Lipo.Weighted>
-12.7740

> <Gold.Chemscore.Internal_Hbond.Weighted>
0.0000

> <Gold.Chemscore.DEClash.Weighted>
0.9262

> <Gold.Chemscore.DEInternal.Weighted>
3.3340

> <Gold.Chemscore.Rot.Weighted>
5.9306

> <Gold.Chemscore.Internal.Correction.Weighted>
   9.000000E+99

> <Gold.Protein.RotatedTorsions>
[ 6907 6896 6895 6894 ] final -123.28 input  -60.11 | X-H torsion
[ 7974 7965 7964 7962 ] final  138.17 input  175.53 | X-H torsion
[ 8008 7997 7996 7995 ] final -145.11 input   59.86 | X-H torsion
[ 10167 10162 10161 10158 ] final  148.44 input  -65.29 | X-H torsion
[ 10718 10713 10712 10709 ] final -119.98 input   66.30 | X-H torsion
[ 10763 10752 10751 10750 ] final -150.54 input  -60.55 | X-H torsion
[ 11005 11000 10999 10996 ] final  158.42 input  -57.11 | X-H torsion

> <Gold.Protein.ActiveResidues>
 VAL166  LYS551  ARG553  GLY616  TRP617  ASP618  TYR619  PRO620  LYS621  CYS622 
 ASP623  PHE694  ASN695  SER759  ASP760  ASP761  ALA762  ILE779  LEU786  VAL792 
 PHE793  MET794  SER795  GLU796  ALA797  LYS798  CYS799  TRP800  GLU811  SER814 

> <Gold.Protein.RotatedAtoms>
  150.8656  133.7580  159.2977 H   0  0  0  0  0  0  0  0  0  0  0  0  # atno 6907 bound_to 6896
  151.5208  135.1065  159.9887 H   0  0  0  0  0  0  0  0  0  0  0  0  # atno 6908 bound_to 6896
  152.4658  133.7876  159.6940 H   0  0  0  0  0  0  0  0  0  0  0  0  # atno 6909 bound_to 6896
  144.9398  139.4945  143.5577 H   0  0  0  0  0  0  0  0  0  0  0  0  # atno 7974 bound_to 7965
  155.5379  140.0605  157.2876 H   0  0  0  0  0  0  0  0  0  0  0  0  # atno 8008 bound_to 7997
  154.4462  140.1924  156.0605 H   0  0  0  0  0  0  0  0  0  0  0  0  # atno 8009 bound_to 7997
  156.0606  140.3273  155.7460 H   0  0  0  0  0  0  0  0  0  0  0  0  # atno 8010 bound_to 7997
  139.4875  144.5679  151.7110 H   0  0  0  0  0  0  0  0  0  0  0  0  # atno 10167 bound_to 10162
  156.1223  130.6332  150.9484 H   0  0  0  0  0  0  0  0  0  0  0  0  # atno 10718 bound_to 10713
  154.8113  135.3282  154.7298 H   0  0  0  0  0  0  0  0  0  0  0  0  # atno 10763 bound_to 10752
  153.7947  135.6908  153.4870 H   0  0  0  0  0  0  0  0  0  0  0  0  # atno 10764 bound_to 10752
  153.1893  135.4557  155.0076 H   0  0  0  0  0  0  0  0  0  0  0  0  # atno 10765 bound_to 10752
  140.1863  134.8439  157.2861 H   0  0  0  0  0  0  0  0  0  0  0  0  # atno 11005 bound_to 11000
  146.3281  139.8409  142.8890 LP  0  0  0  0  0  0  0  0  0  0  0  0  # atno 17320 bound_to 7965
  145.3009  141.0194  143.3609 LP  0  0  0  0  0  0  0  0  0  0  0  0  # atno 17321 bound_to 7965
  140.5261  144.0804  150.6038 LP  0  0  0  0  0  0  0  0  0  0  0  0  # atno 17342 bound_to 10162
  140.3778  143.2819  152.0205 LP  0  0  0  0  0  0  0  0  0  0  0  0  # atno 17343 bound_to 10162
  157.6406  131.0910  150.8259 LP  0  0  0  0  0  0  0  0  0  0  0  0  # atno 17370 bound_to 10713
  156.8354  130.5030  149.5327 LP  0  0  0  0  0  0  0  0  0  0  0  0  # atno 17371 bound_to 10713
  140.2210  134.4024  155.7566 LP  0  0  0  0  0  0  0  0  0  0  0  0  # atno 17394 bound_to 11000
  141.2225  133.7166  156.8490 LP  0  0  0  0  0  0  0  0  0  0  0  0  # atno 17395 bound_to 11000

$$$$
