AV-unprocessed.smi:3186|AV-procd|sdf|12174|dock10
  -GOLD-   2272018 13D 1   1.00000     0.00000
 Structure written by MMmdl.
 37 38  0  0  0  0  0  0  0  0  2 V2000
  148.5370  139.1397  154.0147 C   0  0  0  0  0  0  0  0  0  0  0  0
  149.9290  139.1384  154.6214 C   0  0  0  0  0  0  0  0  0  0  0  0
  150.8191  138.0824  154.3261 C   0  0  0  0  0  0  0  0  0  0  0  0
  152.0713  138.0001  154.8218 N   0  0  0  0  0  0  0  0  0  0  0  0
  152.4895  138.9825  155.6458 C   0  0  0  0  0  0  0  0  0  0  0  0
  151.6861  140.0814  156.0074 C   0  0  0  0  0  0  0  0  0  0  0  0
  150.3771  140.1663  155.4882 C   0  0  0  0  0  0  0  0  0  0  0  0
  149.5015  141.3508  155.8654 C   0  0  0  0  0  0  0  0  0  0  0  0
  149.9834  142.0413  157.1489 C   0  0  0  0  0  0  0  0  0  0  0  0
  150.9551  143.1116  156.8414 N   0  3  0  0  0  0  0  0  0  0  0  0
  151.6638  143.6761  158.0119 C   0  0  1  0  0  0  0  0  0  0  0  0
  150.8578  144.8351  158.6407 C   0  0  0  0  0  0  0  0  0  0  0  0
  151.5797  145.4890  159.8303 C   0  0  0  0  0  0  0  0  0  0  0  0
  151.8418  144.5019  160.9757 C   0  0  0  0  0  0  0  0  0  0  0  0
  152.9171  143.1471  160.4347 S   0  0  0  0  0  0  0  0  0  0  0  0
  151.9230  142.5574  159.0374 C   0  0  0  0  0  0  0  0  0  0  0  0
  148.4216  138.3310  153.2921 H   0  0  0  0  0  0  0  0  0  0  0  0
  148.3380  140.0776  153.4967 H   0  0  0  0  0  0  0  0  0  0  0  0
  147.7843  139.0045  154.7916 H   0  0  0  0  0  0  0  0  0  0  0  0
  150.5192  137.2770  153.6716 H   0  0  0  0  0  0  0  0  0  0  0  0
  153.4955  138.8919  156.0281 H   0  0  0  0  0  0  0  0  0  0  0  0
  152.0724  140.8417  156.6703 H   0  0  0  0  0  0  0  0  0  0  0  0
  149.4651  142.0630  155.0408 H   0  0  0  0  0  0  0  0  0  0  0  0
  148.4771  141.0000  155.9988 H   0  0  0  0  0  0  0  0  0  0  0  0
  149.1337  142.4716  157.6808 H   0  0  0  0  0  0  0  0  0  0  0  0
  150.4370  141.3070  157.8135 H   0  0  0  0  0  0  0  0  0  0  0  0
  151.6392  142.7655  156.1839 H   0  0  0  0  0  0  0  0  0  0  0  0
  152.6309  144.0511  157.6725 H   0  0  0  0  0  0  0  0  0  0  0  0
  150.6643  145.6074  157.8970 H   0  0  0  0  0  0  0  0  0  0  0  0
  149.8801  144.4738  158.9628 H   0  0  0  0  0  0  0  0  0  0  0  0
  152.5223  145.9252  159.4970 H   0  0  0  0  0  0  0  0  0  0  0  0
  150.9770  146.3176  160.2038 H   0  0  0  0  0  0  0  0  0  0  0  0
  152.3172  145.0125  161.8137 H   0  0  0  0  0  0  0  0  0  0  0  0
  150.9029  144.0873  161.3443 H   0  0  0  0  0  0  0  0  0  0  0  0
  150.9826  142.1565  159.4179 H   0  0  0  0  0  0  0  0  0  0  0  0
  152.4566  141.7291  158.5700 H   0  0  0  0  0  0  0  0  0  0  0  0
  150.4414  143.8625  156.4024 H   0  0  0  0  0  0  0  0  0  0  0  0
  1  2  1  0  0  0  0
  1 17  1  0  0  0  0
  1 18  1  0  0  0  0
  1 19  1  0  0  0  0
  2  7  1  0  0  0  0
  2  3  2  0  0  0  0
  3  4  1  0  0  0  0
  3 20  1  0  0  0  0
  4  5  2  0  0  0  0
  5  6  1  0  0  0  0
  5 21  1  0  0  0  0
  6  7  2  0  0  0  0
  6 22  1  0  0  0  0
  7  8  1  0  0  0  0
  8  9  1  0  0  0  0
  8 23  1  0  0  0  0
  8 24  1  0  0  0  0
  9 10  1  0  0  0  0
  9 25  1  0  0  0  0
  9 26  1  0  0  0  0
 10 11  1  0  0  0  0
 10 27  1  0  0  0  0
 10 37  1  0  0  0  0
 11 16  1  0  0  0  0
 11 12  1  0  0  0  0
 11 28  1  0  0  0  0
 12 13  1  0  0  0  0
 12 29  1  0  0  0  0
 12 30  1  0  0  0  0
 13 14  1  0  0  0  0
 13 31  1  0  0  0  0
 13 32  1  0  0  0  0
 14 15  1  0  0  0  0
 14 33  1  0  0  0  0
 14 34  1  0  0  0  0
 15 16  1  0  0  0  0
 16 35  1  0  0  0  0
 16 36  1  0  0  0  0
M  CHG  1  10   1
M  END
> <s_m_source_file>
AV-unprocessed.smi

> <i_m_source_file_index>
3186

> <i_lp_mmshare_version>
43012

> <i_f3d_flags>
0

> <s_epik_input>
W0NIM11jMVtjSF1uW2NIXVtjSF1jMVtDSDJdW0NIMl1bTkhdW0NAQEhdMltDSDJdW0NIMl1bQ0gyXVNbQ0gyXTI=

> <s_epik_cmdline>
J2VwaWtfcHl0aG9uJywgJy1waCcsICc3LjAnLCAnLXRuJywgJzgnLCAnLW1hJywgJzIwMCcsICctbWV0YWxfYmluZGluZycsICctaW1hZScsICc8aW5maWxlLm1hZT4nLCAnLW9tYWUnLCAnPG91dGZpbGUubWFlPic=

> <r_epik_Ionization_Penalty>
0.00563987

> <r_epik_Ionization_Penalty_Charging>
0.00306352

> <r_epik_Ionization_Penalty_Neutral>
0.00257635

> <r_epik_State_Penalty>
0.00506628

> <r_epik_Charging_Adjusted_Penalty>
0.0081298

> <i_epik_Tot_Q>
1

> <i_epik_Tot_abs_Q>
1

> <r_epik_Metal_State_Penalty>
-0

> <b_epik_Metal_Only>
0

> <s_lp_Force_Field>
OPLS_2005

> <r_lp_Energy>
10.8164

> <b_lp_Chiralities_Consistent>
1

> <s_lp_Variant>
AV-unprocessed.smi:3186-2

> <Gold.Version>
5.8.1

> <Gold.Id.Protein>
6NUR|6NUR_protein|mol2

> <Gold.PLP.Fitness>
50.7601

> <Gold.PLP.PLP>
-42.8516

> <Gold.PLP.part.hbond>
-1.0000

> <Gold.PLP.part.metal>
0.0000

> <Gold.PLP.part.buried>
-4.8111

> <Gold.PLP.part.nonpolar>
-38.4907

> <Gold.PLP.part.repulsive>
0.1387

> <Gold.PLP.ligand.clash>
0.0000

> <Gold.PLP.ligand.torsion>
0.7953

> <Gold.PLP.Chemscore.Hbond>
2.0000

> <Gold.PLP.Chemscore.CHOScore>
1.1631

> <Gold.PLP.Chemscore.Metal>
0.0000

> <Gold.Chemscore.Hbonds>
donor molecule, donor type, donor heavy atom, donor atom, acceptor molecule, acceptor atom, score
      L1  H    10    37       P1  8028  2.00
      L1  C     3    20       P1  7948  0.64
      L1  C     3    20       P1  7949  0.45

> <Gold.PLP.Chemscore.Internal.Correction>
0.0098

> <Gold.Rescore>
     Score         DG    S(hbond)    S(metal)    S(lipo)     H(rot)  DE(clash)    DE(int)     intcor
     19.65     -20.37       0.98        0.00     127.88       1.30       0.06       0.67       ----

> <Gold.Chemscore.Fitness>
19.6475

> <Gold.Chemscore.DG>
-20.3734

> <Gold.Chemscore.ZeroCoef>
-5.4800

> <Gold.Chemscore.Hbond>
0.9783

> <Gold.Chemscore.Metal>
0.0000

> <Gold.Chemscore.Lipo>
127.8802

> <Gold.Chemscore.Internal_Hbond>
0.0000

> <Gold.Chemscore.DEClash>
0.0581

> <Gold.Chemscore.DEInternal>
0.6677

> <Gold.Chemscore.Rot>
1.3031

> <Gold.Chemscore.Internal.Correction>
   9.000000E+99

> <Gold.Chemscore.Hbonds>
donor molecule, donor type, donor heavy atom, donor atom, acceptor molecule, acceptor atom, score
      L1  H    10    37       P1  8028  0.99

> <Gold.Chemscore.Hbond.Weighted>
-3.2674

> <Gold.Chemscore.Metal.Weighted>
-0.0000

> <Gold.Chemscore.Lipo.Weighted>
-14.9620

> <Gold.Chemscore.Internal_Hbond.Weighted>
0.0000

> <Gold.Chemscore.DEClash.Weighted>
0.0581

> <Gold.Chemscore.DEInternal.Weighted>
0.6677

> <Gold.Chemscore.Rot.Weighted>
3.3361

> <Gold.Chemscore.Internal.Correction.Weighted>
   9.000000E+99

> <Gold.Protein.RotatedTorsions>
[ 6907 6896 6895 6894 ] final  -54.51 input  -60.11 | X-H torsion
[ 7974 7965 7964 7962 ] final -177.28 input  175.53 | X-H torsion
[ 8008 7997 7996 7995 ] final    3.19 input   59.86 | X-H torsion
[ 10167 10162 10161 10158 ] final   83.43 input  -65.29 | X-H torsion
[ 10718 10713 10712 10709 ] final -158.20 input   66.30 | X-H torsion
[ 10763 10752 10751 10750 ] final  136.07 input  -60.55 | X-H torsion
[ 11005 11000 10999 10996 ] final   31.99 input  -57.11 | X-H torsion

> <Gold.Protein.ActiveResidues>
 VAL166  LYS551  ARG553  GLY616  TRP617  ASP618  TYR619  PRO620  LYS621  CYS622 
 ASP623  PHE694  ASN695  SER759  ASP760  ASP761  ALA762  ILE779  LEU786  VAL792 
 PHE793  MET794  SER795  GLU796  ALA797  LYS798  CYS799  TRP800  GLU811  SER814 

> <Gold.Protein.RotatedAtoms>
  150.8332  134.7594  159.6870 H   0  0  0  0  0  0  0  0  0  0  0  0  # atno 6907 bound_to 6896
  152.4433  134.5543  159.9885 H   0  0  0  0  0  0  0  0  0  0  0  0  # atno 6908 bound_to 6896
  151.5699  133.3354  159.3023 H   0  0  0  0  0  0  0  0  0  0  0  0  # atno 6909 bound_to 6896
  144.7127  140.1044  143.6414 H   0  0  0  0  0  0  0  0  0  0  0  0  # atno 7974 bound_to 7965
  154.7007  140.2672  155.6722 H   0  0  0  0  0  0  0  0  0  0  0  0  # atno 8008 bound_to 7997
  156.2764  140.2773  156.1540 H   0  0  0  0  0  0  0  0  0  0  0  0  # atno 8009 bound_to 7997
  155.0769  140.0372  157.2616 H   0  0  0  0  0  0  0  0  0  0  0  0  # atno 8010 bound_to 7997
  139.9185  144.6228  150.8465 H   0  0  0  0  0  0  0  0  0  0  0  0  # atno 10167 bound_to 10162
  156.5509  130.8605  151.2779 H   0  0  0  0  0  0  0  0  0  0  0  0  # atno 10718 bound_to 10713
  153.8504  135.3080  155.3432 H   0  0  0  0  0  0  0  0  0  0  0  0  # atno 10763 bound_to 10752
  154.7894  135.4791  154.0020 H   0  0  0  0  0  0  0  0  0  0  0  0  # atno 10764 bound_to 10752
  153.1522  135.6845  153.8959 H   0  0  0  0  0  0  0  0  0  0  0  0  # atno 10765 bound_to 10752
  140.2781  134.3004  155.7808 H   0  0  0  0  0  0  0  0  0  0  0  0  # atno 11005 bound_to 11000
  145.9510  139.2733  143.1212 LP  0  0  0  0  0  0  0  0  0  0  0  0  # atno 17320 bound_to 7965
  145.9323  140.9039  143.0350 LP  0  0  0  0  0  0  0  0  0  0  0  0  # atno 17321 bound_to 7965
  140.7668  143.3314  151.2402 LP  0  0  0  0  0  0  0  0  0  0  0  0  # atno 17342 bound_to 10162
  139.6882  143.9737  152.2845 LP  0  0  0  0  0  0  0  0  0  0  0  0  # atno 17343 bound_to 10162
  157.7387  130.9819  150.2272 LP  0  0  0  0  0  0  0  0  0  0  0  0  # atno 17370 bound_to 10713
  156.2885  130.3742  149.7864 LP  0  0  0  0  0  0  0  0  0  0  0  0  # atno 17371 bound_to 10713
  141.2167  133.7508  156.9438 LP  0  0  0  0  0  0  0  0  0  0  0  0  # atno 17394 bound_to 11000
  140.1309  134.9356  157.2336 LP  0  0  0  0  0  0  0  0  0  0  0  0  # atno 17395 bound_to 11000

$$$$
