AV-unprocessed.smi:157|AV-procd|sdf|1313|dock1
  -GOLD-   2262019 03D 1   1.00000     0.00000
 Structure written by MMmdl.
 36 38  0  0  0  0  0  0  0  0  2 V2000
  151.2201  136.3962  154.1302 O   0  0  0  0  0  0  0  0  0  0  0  0
  151.1348  137.7551  154.5026 C   0  0  0  0  0  0  0  0  0  0  0  0
  149.7616  138.3167  154.1060 C   0  0  1  0  0  0  0  0  0  0  0  0
  148.7297  137.5504  154.7193 O   0  0  0  0  0  0  0  0  0  0  0  0
  147.5669  138.3175  154.8256 C   0  0  2  0  0  0  0  0  0  0  0  0
  146.5946  137.8710  153.7772 N   0  0  0  0  0  0  0  0  0  0  0  0
  146.5005  138.3224  152.5074 C   0  0  0  0  0  0  0  0  0  0  0  0
  145.5485  137.7466  151.7931 N   0  3  0  0  0  0  0  0  0  0  0  0
  144.9373  136.8302  152.6222 C   0  0  0  0  0  0  0  0  0  0  0  0
  145.6060  136.9167  153.8459 C   0  0  0  0  0  0  0  0  0  0  0  0
  145.3952  136.2067  155.0378 N   0  0  0  0  0  0  0  0  0  0  0  0
  144.7132  135.1090  155.0881 C   0  0  0  0  0  0  0  0  0  0  0  0
  144.0051  134.4757  154.0805 N   0  0  0  0  0  0  0  0  0  0  0  0
  143.0888  135.1773  153.1988 C   0  0  0  0  0  0  0  0  0  0  0  0
  143.7887  136.0126  152.1182 C   0  0  2  0  0  0  0  0  0  0  0  0
  144.1575  135.1565  151.0565 O   0  0  0  0  0  0  0  0  0  0  0  0
  147.9650  139.7790  154.5830 C   0  0  0  0  0  0  0  0  0  0  0  0
  149.4791  139.7142  154.6588 C   0  0  2  0  0  0  0  0  0  0  0  0
  150.0685  140.7315  153.8755 O   0  0  0  0  0  0  0  0  0  0  0  0
  149.6308  138.3154  153.0218 H   0  0  0  0  0  0  0  0  0  0  0  0
  147.0660  138.1376  155.7775 H   0  0  0  0  0  0  0  0  0  0  0  0
  143.0509  136.7010  151.7044 H   0  0  0  0  0  0  0  0  0  0  0  0
  149.8099  139.7930  155.6956 H   0  0  0  0  0  0  0  0  0  0  0  0
  151.2838  136.3463  153.1885 H   0  0  0  0  0  0  0  0  0  0  0  0
  151.3198  137.8701  155.5711 H   0  0  0  0  0  0  0  0  0  0  0  0
  151.9259  138.2899  153.9764 H   0  0  0  0  0  0  0  0  0  0  0  0
  147.1459  139.0854  152.1101 H   0  0  0  0  0  0  0  0  0  0  0  0
  144.6486  134.5700  156.0345 H   0  0  0  0  0  0  0  0  0  0  0  0
  143.7209  133.5163  154.2196 H   0  0  0  0  0  0  0  0  0  0  0  0
  142.3938  134.4665  152.7504 H   0  0  0  0  0  0  0  0  0  0  0  0
  142.4839  135.8397  153.8201 H   0  0  0  0  0  0  0  0  0  0  0  0
  143.3800  134.7393  150.7188 H   0  0  0  0  0  0  0  0  0  0  0  0
  147.6333  140.0958  153.5920 H   0  0  0  0  0  0  0  0  0  0  0  0
  147.5212  140.4367  155.3308 H   0  0  0  0  0  0  0  0  0  0  0  0
  149.6679  140.7239  153.0195 H   0  0  0  0  0  0  0  0  0  0  0  0
  145.3164  137.9478  150.8286 H   0  0  0  0  0  0  0  0  0  0  0  0
  1  2  1  0  0  0  0
  1 24  1  0  0  0  0
  2  3  1  0  0  0  0
  2 25  1  0  0  0  0
  2 26  1  0  0  0  0
  3 20  1  0  0  0  0
  3 18  1  0  0  0  0
  3  4  1  0  0  0  0
  4  5  1  0  0  0  0
  5 21  1  0  0  0  0
  5  6  1  0  0  0  0
  5 17  1  0  0  0  0
  6 10  1  0  0  0  0
  6  7  1  0  0  0  0
  7  8  2  0  0  0  0
  7 27  1  0  0  0  0
  8  9  1  0  0  0  0
  8 36  1  0  0  0  0
  9 15  1  0  0  0  0
  9 10  2  0  0  0  0
 10 11  1  0  0  0  0
 11 12  2  0  0  0  0
 12 13  1  0  0  0  0
 12 28  1  0  0  0  0
 13 14  1  0  0  0  0
 13 29  1  0  0  0  0
 14 15  1  0  0  0  0
 14 30  1  0  0  0  0
 14 31  1  0  0  0  0
 15 22  1  0  0  0  0
 15 16  1  0  0  0  0
 16 32  1  0  0  0  0
 17 18  1  0  0  0  0
 17 33  1  0  0  0  0
 17 34  1  0  0  0  0
 18 23  1  0  0  0  0
 18 19  1  0  0  0  0
 19 35  1  0  0  0  0
M  CHG  1   8   1
M  END
> <s_m_source_file>
AV-unprocessed.smi

> <i_m_source_file_index>
157

> <i_lp_mmshare_version>
43012

> <i_f3d_flags>
0

> <s_epik_input>
W09IXVtDSDJdW0NASF0xT1tDQEhdKFtDSDJdW0NAQEhdMVtPSF0pbihbY0hdbjIpYyhjMjMpTj1bQ0hdW05IXVtDSDJdW0NASF0zW09IXQ==

> <s_epik_cmdline>
J2VwaWtfcHl0aG9uJywgJy1waCcsICc3LjAnLCAnLXRuJywgJzgnLCAnLW1hJywgJzIwMCcsICctbWV0YWxfYmluZGluZycsICctaW1hZScsICc8aW5maWxlLm1hZT4nLCAnLW9tYWUnLCAnPG91dGZpbGUubWFlPic=

> <r_epik_Ionization_Penalty>
1.68594

> <r_epik_Ionization_Penalty_Charging>
0

> <r_epik_Ionization_Penalty_Neutral>
1.68594

> <r_epik_State_Penalty>
1.79006

> <r_epik_Charging_Adjusted_Penalty>
1.79006

> <i_epik_Tot_Q>
1

> <i_epik_Tot_abs_Q>
1

> <r_epik_Metal_State_Penalty>
5.85324

> <b_epik_Metal_Only>
0

> <s_epik_Chemistry_Notes>
This compound has an imine and may undergo hydrolysis. This compound contains an acetal/aminal-like group ( X-CH(R)-Y where X, Y are N, S, or O) that may be acid/base labile, releasing an aldehyde.

> <s_lp_Force_Field>
OPLS_2005

> <r_lp_Energy>
52.2724

> <b_lp_Chiralities_Consistent>
1

> <s_lp_Variant>
AV-unprocessed.smi:157-23

> <Gold.Version>
5.8.1

> <Gold.Id.Protein>
6NUR|6NUR_protein|mol2

> <Gold.PLP.Fitness>
39.6560

> <Gold.PLP.PLP>
-24.5358

> <Gold.PLP.part.hbond>
-6.3387

> <Gold.PLP.part.metal>
0.0000

> <Gold.PLP.part.buried>
-3.0611

> <Gold.PLP.part.nonpolar>
-15.5071

> <Gold.PLP.part.repulsive>
0.2191

> <Gold.PLP.ligand.clash>
0.0000

> <Gold.PLP.ligand.torsion>
0.7680

> <Gold.PLP.Chemscore.Hbond>
5.1640

> <Gold.PLP.Chemscore.CHOScore>
0.3812

> <Gold.PLP.Chemscore.Metal>
0.0000

> <Gold.Chemscore.Hbonds>
donor molecule, donor type, donor heavy atom, donor atom, acceptor molecule, acceptor atom, score
      L1  H     1    24       P1  7949  1.00
      L1  H     8    36       P1 10171  0.80
      L1  H    13    29       P1 10957  0.76
      L1  H    19    35       P1  7957  0.99
      P1  H  7989  7998       L1    19  0.58
      P1  H 10752 10764       L1     1  0.95
      L1  C     7    27       P1  7957  0.39

> <Gold.PLP.Chemscore.Internal.Correction>
0.0205

> <Gold.Rescore>
     Score         DG    S(hbond)    S(metal)    S(lipo)     H(rot)  DE(clash)    DE(int)     intcor
     14.11     -14.97       4.36        0.00      36.80       3.67       0.11       0.75       ----

> <Gold.Chemscore.Fitness>
14.1070

> <Gold.Chemscore.DG>
-14.9663

> <Gold.Chemscore.ZeroCoef>
-5.4800

> <Gold.Chemscore.Hbond>
4.3608

> <Gold.Chemscore.Metal>
0.0000

> <Gold.Chemscore.Lipo>
36.8047

> <Gold.Chemscore.Internal_Hbond>
0.0000

> <Gold.Chemscore.DEClash>
0.1090

> <Gold.Chemscore.DEInternal>
0.7503

> <Gold.Chemscore.Rot>
3.6659

> <Gold.Chemscore.Internal.Correction>
   9.000000E+99

> <Gold.Chemscore.Hbonds>
donor molecule, donor type, donor heavy atom, donor atom, acceptor molecule, acceptor atom, score
      L1  H     1    24       P1  7949  0.65
      L1  H     8    36       P1 10171  0.80
      L1  H    13    29       P1 10957  0.77
      L1  H    19    35       P1  7957  0.92
      P1  H  7989  7998       L1    19  0.15
      P1  H 10752 10764       L1     1  0.18

> <Gold.Chemscore.Hbond.Weighted>
-14.5649

> <Gold.Chemscore.Metal.Weighted>
-0.0000

> <Gold.Chemscore.Lipo.Weighted>
-4.3061

> <Gold.Chemscore.Internal_Hbond.Weighted>
0.0000

> <Gold.Chemscore.DEClash.Weighted>
0.1090

> <Gold.Chemscore.DEInternal.Weighted>
0.7503

> <Gold.Chemscore.Rot.Weighted>
9.3848

> <Gold.Chemscore.Internal.Correction.Weighted>
   9.000000E+99

> <Gold.Protein.RotatedTorsions>
[ 6907 6896 6895 6894 ] final -138.52 input  -60.11 | X-H torsion
[ 7974 7965 7964 7962 ] final   61.59 input  175.53 | X-H torsion
[ 8008 7997 7996 7995 ] final  -43.57 input   59.86 | X-H torsion
[ 10167 10162 10161 10158 ] final  144.73 input  -65.29 | X-H torsion
[ 10718 10713 10712 10709 ] final -106.04 input   66.30 | X-H torsion
[ 10763 10752 10751 10750 ] final  -58.18 input  -60.55 | X-H torsion
[ 11005 11000 10999 10996 ] final -148.15 input  -57.11 | X-H torsion

> <Gold.Protein.ActiveResidues>
 VAL166  LYS551  ARG553  GLY616  TRP617  ASP618  TYR619  PRO620  LYS621  CYS622 
 ASP623  PHE694  ASN695  SER759  ASP760  ASP761  ALA762  ILE779  LEU786  VAL792 
 PHE793  MET794  SER795  GLU796  ALA797  LYS798  CYS799  TRP800  GLU811  SER814 

> <Gold.Protein.RotatedAtoms>
  151.0361  133.5747  159.2655 H   0  0  0  0  0  0  0  0  0  0  0  0  # atno 6907 bound_to 6896
  151.2811  135.0713  159.9179 H   0  0  0  0  0  0  0  0  0  0  0  0  # atno 6908 bound_to 6896
  152.5355  134.0075  159.7977 H   0  0  0  0  0  0  0  0  0  0  0  0  # atno 6909 bound_to 6896
  145.8830  139.3457  143.0694 H   0  0  0  0  0  0  0  0  0  0  0  0  # atno 7974 bound_to 7965
  154.3997  140.1444  156.3540 H   0  0  0  0  0  0  0  0  0  0  0  0  # atno 8008 bound_to 7997
  155.8242  140.3468  155.5512 H   0  0  0  0  0  0  0  0  0  0  0  0  # atno 8009 bound_to 7997
  155.8256  140.0904  157.1814 H   0  0  0  0  0  0  0  0  0  0  0  0  # atno 8010 bound_to 7997
  139.4941  144.5951  151.6599 H   0  0  0  0  0  0  0  0  0  0  0  0  # atno 10167 bound_to 10162
  156.0372  130.5593  150.7624 H   0  0  0  0  0  0  0  0  0  0  0  0  # atno 10718 bound_to 10713
  154.2341  135.6355  153.5185 H   0  0  0  0  0  0  0  0  0  0  0  0  # atno 10763 bound_to 10752
  152.9943  135.5526  154.5981 H   0  0  0  0  0  0  0  0  0  0  0  0  # atno 10764 bound_to 10752
  154.5471  135.2899  155.1017 H   0  0  0  0  0  0  0  0  0  0  0  0  # atno 10765 bound_to 10752
  140.7642  134.3263  157.5093 H   0  0  0  0  0  0  0  0  0  0  0  0  # atno 11005 bound_to 11000
  145.9000  140.9249  143.0507 LP  0  0  0  0  0  0  0  0  0  0  0  0  # atno 17320 bound_to 7965
  144.6728  140.1020  143.7460 LP  0  0  0  0  0  0  0  0  0  0  0  0  # atno 17321 bound_to 7965
  140.5588  144.0304  150.6160 LP  0  0  0  0  0  0  0  0  0  0  0  0  # atno 17342 bound_to 10162
  140.3383  143.3035  152.0615 LP  0  0  0  0  0  0  0  0  0  0  0  0  # atno 17343 bound_to 10162
  157.5140  131.0927  151.0162 LP  0  0  0  0  0  0  0  0  0  0  0  0  # atno 17370 bound_to 10713
  157.0510  130.5787  149.5370 LP  0  0  0  0  0  0  0  0  0  0  0  0  # atno 17371 bound_to 10713
  139.8766  134.9221  156.3292 LP  0  0  0  0  0  0  0  0  0  0  0  0  # atno 17394 bound_to 11000
  140.9634  133.7373  156.0433 LP  0  0  0  0  0  0  0  0  0  0  0  0  # atno 17395 bound_to 11000

$$$$
