AV-unprocessed.smi:261|AV-procd|sdf|1996|dock6
  -GOLD-   2262021183D 1   1.00000     0.00000
 Structure written by MMmdl.
 51 54  0  0  0  0  0  0  0  0  1 V2000
  144.1061  132.6596  149.4873 C   0  0  0  0  0  0  0  0  0  0  0  0
  145.0656  131.7958  150.0745 O   0  0  0  0  0  0  0  0  0  0  0  0
  145.5690  132.2681  151.3155 C   0  0  2  0  0  0  0  0  0  0  0  0
  146.5786  133.4106  151.1673 C   0  0  0  0  0  0  0  0  0  0  0  0
  147.4389  133.3277  152.4395 C   0  0  1  0  0  0  0  0  0  0  0  0
  146.8691  134.1980  153.5737 C   0  0  0  0  0  0  0  0  0  0  0  0
  146.9729  135.5205  153.4251 N   0  0  0  0  0  0  0  0  0  0  0  0
  146.3345  133.6926  154.5595 O   0  0  0  0  0  0  0  0  0  0  0  0
  147.4069  131.9018  152.7740 N   0  0  0  0  0  0  0  0  0  0  0  0
  148.3496  131.2844  153.5384 C   0  0  0  0  0  0  0  0  0  0  0  0
  148.5231  129.9436  153.3909 N   0  0  0  0  0  0  0  0  0  0  0  0
  149.4367  129.2880  154.1109 C   0  0  0  0  0  0  0  0  0  0  0  0
  150.2766  129.7692  155.0272 N   0  0  0  0  0  0  0  0  0  0  0  0
  150.1125  131.1129  155.1861 C   0  0  0  0  0  0  0  0  0  0  0  0
  149.1830  131.9426  154.4931 C   0  0  0  0  0  0  0  0  0  0  0  0
  149.3208  133.2554  154.9345 N   0  0  0  0  0  0  0  0  0  0  0  0
  150.2701  133.2043  155.8273 C   0  0  0  0  0  0  0  0  0  0  0  0
  150.8050  131.9551  156.0366 N   0  0  0  0  0  0  0  0  0  0  0  0
  151.8706  131.6049  156.9594 C   0  0  0  0  0  0  0  0  0  0  0  0
  153.1856  132.3544  156.6540 C   0  0  1  0  0  0  0  0  0  0  0  0
  153.6107  132.9949  157.8419 O   0  0  0  0  0  0  0  0  0  0  0  0
  154.3196  131.4203  156.1866 C   0  0  1  0  0  0  0  0  0  0  0  0
  154.0629  130.7190  154.8509 C   0  0  0  0  0  0  0  0  0  0  0  0
  155.4578  130.4107  154.3324 C   0  0  0  0  0  0  0  0  0  0  0  0
  156.3634  131.3432  155.1396 C   0  0  0  0  0  0  0  0  0  0  0  0
  155.4768  132.1799  155.8694 O   0  0  0  0  0  0  0  0  0  0  0  0
  146.3917  131.1848  152.0142 C   0  0  0  0  0  0  0  0  0  0  0  0
  144.7530  132.5730  151.9736 H   0  0  0  0  0  0  0  0  0  0  0  0
  148.4554  133.6504  152.2064 H   0  0  0  0  0  0  0  0  0  0  0  0
  143.7433  132.2219  148.5575 H   0  0  0  0  0  0  0  0  0  0  0  0
  144.5343  133.6342  149.2515 H   0  0  0  0  0  0  0  0  0  0  0  0
  143.2489  132.8032  150.1464 H   0  0  0  0  0  0  0  0  0  0  0  0
  147.2083  133.2323  150.2944 H   0  0  0  0  0  0  0  0  0  0  0  0
  146.0991  134.3808  151.0294 H   0  0  0  0  0  0  0  0  0  0  0  0
  146.6110  136.1380  154.1370 H   0  0  0  0  0  0  0  0  0  0  0  0
  147.4096  135.8982  152.5967 H   0  0  0  0  0  0  0  0  0  0  0  0
  149.5049  128.2263  153.9251 H   0  0  0  0  0  0  0  0  0  0  0  0
  150.6120  134.0827  156.3555 H   0  0  0  0  0  0  0  0  0  0  0  0
  151.5372  131.8188  157.9760 H   0  0  0  0  0  0  0  0  0  0  0  0
  152.0181  130.5263  156.9004 H   0  0  0  0  0  0  0  0  0  0  0  0
  153.0010  133.1136  155.8928 H   0  0  0  0  0  0  0  0  0  0  0  0
  154.5501  132.9127  157.9052 H   0  0  0  0  0  0  0  0  0  0  0  0
  154.5601  130.6788  156.9515 H   0  0  0  0  0  0  0  0  0  0  0  0
  153.4448  129.8266  154.9533 H   0  0  0  0  0  0  0  0  0  0  0  0
  153.5616  131.3992  154.1607 H   0  0  0  0  0  0  0  0  0  0  0  0
  155.7265  129.3691  154.5117 H   0  0  0  0  0  0  0  0  0  0  0  0
  155.5292  130.5977  153.2605 H   0  0  0  0  0  0  0  0  0  0  0  0
  156.9780  130.7729  155.8377 H   0  0  0  0  0  0  0  0  0  0  0  0
  157.0254  131.9350  154.5071 H   0  0  0  0  0  0  0  0  0  0  0  0
  145.7578  130.5704  152.6540 H   0  0  0  0  0  0  0  0  0  0  0  0
  146.8834  130.5399  151.2844 H   0  0  0  0  0  0  0  0  0  0  0  0
  1  2  1  0  0  0  0
  1 30  1  0  0  0  0
  1 31  1  0  0  0  0
  1 32  1  0  0  0  0
  2  3  1  0  0  0  0
  3 28  1  0  0  0  0
  3 27  1  0  0  0  0
  3  4  1  0  0  0  0
  4  5  1  0  0  0  0
  4 33  1  0  0  0  0
  4 34  1  0  0  0  0
  5 29  1  0  0  0  0
  5  6  1  0  0  0  0
  5  9  1  0  0  0  0
  6  7  1  0  0  0  0
  6  8  2  0  0  0  0
  7 35  1  0  0  0  0
  7 36  1  0  0  0  0
  9 10  1  0  0  0  0
  9 27  1  0  0  0  0
 10 15  1  0  0  0  0
 10 11  2  0  0  0  0
 11 12  1  0  0  0  0
 12 13  2  0  0  0  0
 12 37  1  0  0  0  0
 13 14  1  0  0  0  0
 14 18  1  0  0  0  0
 14 15  2  0  0  0  0
 15 16  1  0  0  0  0
 16 17  2  0  0  0  0
 17 18  1  0  0  0  0
 17 38  1  0  0  0  0
 18 19  1  0  0  0  0
 19 20  1  0  0  0  0
 19 39  1  0  0  0  0
 19 40  1  0  0  0  0
 20 21  1  0  0  0  0
 20 22  1  0  0  0  0
 20 41  1  0  0  0  0
 21 42  1  0  0  0  0
 22 26  1  0  0  0  0
 22 23  1  0  0  0  0
 22 43  1  0  0  0  0
 23 24  1  0  0  0  0
 23 44  1  0  0  0  0
 23 45  1  0  0  0  0
 24 25  1  0  0  0  0
 24 46  1  0  0  0  0
 24 47  1  0  0  0  0
 25 26  1  0  0  0  0
 25 48  1  0  0  0  0
 25 49  1  0  0  0  0
 27 50  1  0  0  0  0
 27 51  1  0  0  0  0
M  END
> <s_m_source_file>
AV-unprocessed.smi

> <i_m_source_file_index>
261

> <i_lp_mmshare_version>
43012

> <i_f3d_flags>
0

> <s_epik_input>
W0NIM11PW0NASF0xW0NIMl1bQ0BASF0oQyg9TylbTkgyXSlOKFtDSDJdMSljKG5bY0hdbjIpYyhjMjMpbltjSF1uM1tDSDJdW0NASF0oW09IXSlbQ0BASF00W0NIMl1bQ0gyXVtDSDJdTzQ=

> <s_epik_cmdline>
J2VwaWtfcHl0aG9uJywgJy1waCcsICc3LjAnLCAnLXRuJywgJzgnLCAnLW1hJywgJzIwMCcsICctbWV0YWxfYmluZGluZycsICctaW1hZScsICc8aW5maWxlLm1hZT4nLCAnLW9tYWUnLCAnPG91dGZpbGUubWFlPic=

> <r_lp_tautomer_probability>
1

> <r_epik_Ionization_Penalty>
0.000713824

> <r_epik_Ionization_Penalty_Charging>
0

> <r_epik_Ionization_Penalty_Neutral>
0.000713824

> <r_epik_State_Penalty>
0.000402132

> <r_epik_Charging_Adjusted_Penalty>
0.000402132

> <i_epik_Tot_Q>
0

> <i_epik_Tot_abs_Q>
0

> <r_epik_Metal_State_Penalty>
-0

> <b_epik_Metal_Only>
0

> <s_lp_Force_Field>
OPLS_2005

> <r_lp_Energy>
41.8336

> <b_lp_Chiralities_Consistent>
1

> <s_lp_Variant>
AV-unprocessed.smi:261-14

> <Gold.Version>
5.8.1

> <Gold.Id.Protein>
6NUR|6NUR_protein|mol2

> <Gold.PLP.Fitness>
42.6044

> <Gold.PLP.PLP>
-38.8240

> <Gold.PLP.part.hbond>
-1.8934

> <Gold.PLP.part.metal>
0.0000

> <Gold.PLP.part.buried>
-5.3069

> <Gold.PLP.part.nonpolar>
-32.8696

> <Gold.PLP.part.repulsive>
0.3517

> <Gold.PLP.ligand.clash>
0.0000

> <Gold.PLP.ligand.torsion>
1.1571

> <Gold.PLP.Chemscore.Hbond>
1.9920

> <Gold.PLP.Chemscore.CHOScore>
0.0000

> <Gold.PLP.Chemscore.Metal>
0.0000

> <Gold.Chemscore.Hbonds>
donor molecule, donor type, donor heavy atom, donor atom, acceptor molecule, acceptor atom, score
      L1  H     7    36       P1  7948  0.88
      P1  H  6896  6908       L1    21  0.67

> <Gold.PLP.Chemscore.Internal.Correction>
0.1186

> <Gold.Rescore>
     Score         DG    S(hbond)    S(metal)    S(lipo)     H(rot)  DE(clash)    DE(int)     intcor
     10.16     -12.52       1.96        0.00      74.04       3.18       0.02       2.34       ----

> <Gold.Chemscore.Fitness>
10.1554

> <Gold.Chemscore.DG>
-12.5244

> <Gold.Chemscore.ZeroCoef>
-5.4800

> <Gold.Chemscore.Hbond>
1.9550

> <Gold.Chemscore.Metal>
0.0000

> <Gold.Chemscore.Lipo>
74.0449

> <Gold.Chemscore.Internal_Hbond>
0.0000

> <Gold.Chemscore.DEClash>
0.0243

> <Gold.Chemscore.DEInternal>
2.3447

> <Gold.Chemscore.Rot>
3.1831

> <Gold.Chemscore.Internal.Correction>
   9.000000E+99

> <Gold.Chemscore.Hbonds>
donor molecule, donor type, donor heavy atom, donor atom, acceptor molecule, acceptor atom, score
      L1  H     7    36       P1  7948  0.87
      P1  H  6896  6908       L1    21  0.64

> <Gold.Chemscore.Hbond.Weighted>
-6.5298

> <Gold.Chemscore.Metal.Weighted>
-0.0000

> <Gold.Chemscore.Lipo.Weighted>
-8.6632

> <Gold.Chemscore.Internal_Hbond.Weighted>
0.0000

> <Gold.Chemscore.DEClash.Weighted>
0.0243

> <Gold.Chemscore.DEInternal.Weighted>
2.3447

> <Gold.Chemscore.Rot.Weighted>
8.1486

> <Gold.Chemscore.Internal.Correction.Weighted>
   9.000000E+99

> <Gold.Protein.RotatedTorsions>
[ 6907 6896 6895 6894 ] final   16.42 input  -60.11 | X-H torsion
[ 7974 7965 7964 7962 ] final  -92.17 input  175.53 | X-H torsion
[ 8008 7997 7996 7995 ] final   55.16 input   59.86 | X-H torsion
[ 10167 10162 10161 10158 ] final  122.98 input  -65.29 | X-H torsion
[ 10718 10713 10712 10709 ] final    5.28 input   66.30 | X-H torsion
[ 10763 10752 10751 10750 ] final  131.47 input  -60.55 | X-H torsion
[ 11005 11000 10999 10996 ] final   97.50 input  -57.11 | X-H torsion

> <Gold.Protein.ActiveResidues>
 VAL166  LYS551  ARG553  GLY616  TRP617  ASP618  TYR619  PRO620  LYS621  CYS622 
 ASP623  PHE694  ASN695  SER759  ASP760  ASP761  ALA762  ILE779  LEU786  VAL792 
 PHE793  MET794  SER795  GLU796  ALA797  LYS798  CYS799  TRP800  GLU811  SER814 

> <Gold.Protein.RotatedAtoms>
  151.8335  135.0613  160.0439 H   0  0  0  0  0  0  0  0  0  0  0  0  # atno 6907 bound_to 6896
  152.2862  133.5513  159.5537 H   0  0  0  0  0  0  0  0  0  0  0  0  # atno 6908 bound_to 6896
  150.7210  134.0409  159.3808 H   0  0  0  0  0  0  0  0  0  0  0  0  # atno 6909 bound_to 6896
  145.4034  140.9539  143.2274 H   0  0  0  0  0  0  0  0  0  0  0  0  # atno 7974 bound_to 7965
  155.4966  140.3473  155.4364 H   0  0  0  0  0  0  0  0  0  0  0  0  # atno 8008 bound_to 7997
  156.0942  140.1418  156.9581 H   0  0  0  0  0  0  0  0  0  0  0  0  # atno 8009 bound_to 7997
  154.4653  140.0920  156.6981 H   0  0  0  0  0  0  0  0  0  0  0  0  # atno 8010 bound_to 7997
  139.5826  144.6993  151.3489 H   0  0  0  0  0  0  0  0  0  0  0  0  # atno 10167 bound_to 10162
  156.9051  130.5736  149.5647 H   0  0  0  0  0  0  0  0  0  0  0  0  # atno 10718 bound_to 10713
  153.7749  135.3177  155.3357 H   0  0  0  0  0  0  0  0  0  0  0  0  # atno 10763 bound_to 10752
  154.8183  135.4621  154.0708 H   0  0  0  0  0  0  0  0  0  0  0  0  # atno 10764 bound_to 10752
  153.1979  135.6918  153.8354 H   0  0  0  0  0  0  0  0  0  0  0  0  # atno 10765 bound_to 10752
  139.8776  134.9004  156.4317 H   0  0  0  0  0  0  0  0  0  0  0  0  # atno 11005 bound_to 11000
  144.8358  139.5553  143.6923 LP  0  0  0  0  0  0  0  0  0  0  0  0  # atno 17320 bound_to 7965
  146.2740  139.6707  142.9276 LP  0  0  0  0  0  0  0  0  0  0  0  0  # atno 17321 bound_to 7965
  140.7103  143.7409  150.7554 LP  0  0  0  0  0  0  0  0  0  0  0  0  # atno 17342 bound_to 10162
  140.0945  143.4846  152.2460 LP  0  0  0  0  0  0  0  0  0  0  0  0  # atno 17343 bound_to 10162
  156.0563  130.5624  150.9098 LP  0  0  0  0  0  0  0  0  0  0  0  0  # atno 17370 bound_to 10713
  157.6002  131.0941  150.8973 LP  0  0  0  0  0  0  0  0  0  0  0  0  # atno 17371 bound_to 10713
  140.9062  133.7744  155.9738 LP  0  0  0  0  0  0  0  0  0  0  0  0  # atno 17394 bound_to 11000
  140.8596  134.2856  157.5240 LP  0  0  0  0  0  0  0  0  0  0  0  0  # atno 17395 bound_to 11000

$$$$
