AV-unprocessed.smi:34|AV-procd|sdf|241|dock2
  -GOLD-   2262015593D 1   1.00000     0.00000
 Structure written by MMmdl.
 54 58  0  0  0  0  0  0  0  0  2 V2000
  150.0625  139.7667  157.2447 O   0  0  0  0  0  0  0  0  0  0  0  0
  150.5183  140.7165  156.6042 C   0  0  0  0  0  0  0  0  0  0  0  0
  150.4459  140.9278  155.2653 N   0  5  0  0  0  0  0  0  0  0  0  0
  149.2898  140.7190  154.6172 C   0  0  0  0  0  0  0  0  0  0  0  0
  148.7236  141.7158  153.8898 N   0  0  0  0  0  0  0  0  0  0  0  0
  147.5695  141.5109  153.2437 C   0  0  0  0  0  0  0  0  0  0  0  0
  146.8203  140.4046  153.1908 N   0  0  0  0  0  0  0  0  0  0  0  0
  147.3765  139.3992  153.9269 C   0  0  0  0  0  0  0  0  0  0  0  0
  148.5925  139.4803  154.6639 C   0  0  0  0  0  0  0  0  0  0  0  0
  148.8602  138.2771  155.3001 N   0  0  0  0  0  0  0  0  0  0  0  0
  147.8203  137.5352  154.9237 C   0  0  0  0  0  0  0  0  0  0  0  0
  146.9099  138.1099  154.1100 N   0  0  0  0  0  0  0  0  0  0  0  0
  145.6487  137.5392  153.5371 C   0  0  2  0  0  0  0  0  0  0  0  0
  145.4230  136.2772  154.0999 O   0  0  0  0  0  0  0  0  0  0  0  0
  145.5334  135.2520  153.1161 C   0  0  2  0  0  0  0  0  0  0  0  0
  146.9486  134.6515  153.1450 C   0  0  0  0  0  0  0  0  0  0  0  0
  146.8682  133.2469  152.9663 O   0  0  0  0  0  0  0  0  0  0  0  0
  147.8468  132.4488  153.4345 C   0  0  0  0  0  0  0  0  0  0  0  0
  148.8331  132.8651  154.0454 O   0  0  0  0  0  0  0  0  0  0  0  0
  147.6119  131.0070  153.1333 C   0  0  0  0  0  0  0  0  0  0  0  0
  146.4384  130.6253  152.4416 C   0  0  0  0  0  0  0  0  0  0  0  0
  146.1877  129.2710  152.1471 C   0  0  0  0  0  0  0  0  0  0  0  0
  147.1074  128.2814  152.5404 C   0  0  0  0  0  0  0  0  0  0  0  0
  148.2786  128.6481  153.2288 C   0  0  0  0  0  0  0  0  0  0  0  0
  148.5311  130.0020  153.5243 C   0  0  0  0  0  0  0  0  0  0  0  0
  145.1843  135.9589  151.8052 C   0  0  1  0  0  0  0  0  0  0  0  0
  143.8581  135.9968  151.6646 F   0  0  0  0  0  0  0  0  0  0  0  0
  145.7121  137.3690  152.0020 C   0  0  2  0  0  0  0  0  0  0  0  0
  147.0068  137.4971  151.4400 O   0  0  0  0  0  0  0  0  0  0  0  0
  151.3155  141.7662  157.3325 C   0  0  0  0  0  0  0  0  0  0  0  0
  152.1058  141.3979  158.4453 C   0  0  0  0  0  0  0  0  0  0  0  0
  152.8370  142.3679  159.1581 C   0  0  0  0  0  0  0  0  0  0  0  0
  152.7798  143.7195  158.7706 C   0  0  0  0  0  0  0  0  0  0  0  0
  151.9870  144.1008  157.6723 C   0  0  0  0  0  0  0  0  0  0  0  0
  151.2544  143.1316  156.9599 C   0  0  0  0  0  0  0  0  0  0  0  0
  147.1926  142.3556  152.6865 H   0  0  0  0  0  0  0  0  0  0  0  0
  147.7194  136.5153  155.2630 H   0  0  0  0  0  0  0  0  0  0  0  0
  144.8683  138.2287  153.8615 H   0  0  0  0  0  0  0  0  0  0  0  0
  144.8131  134.4637  153.3385 H   0  0  0  0  0  0  0  0  0  0  0  0
  147.5754  135.0921  152.3693 H   0  0  0  0  0  0  0  0  0  0  0  0
  147.4205  134.8643  154.1051 H   0  0  0  0  0  0  0  0  0  0  0  0
  145.7171  131.3674  152.1305 H   0  0  0  0  0  0  0  0  0  0  0  0
  145.2878  128.9917  151.6190 H   0  0  0  0  0  0  0  0  0  0  0  0
  146.9146  127.2430  152.3149 H   0  0  0  0  0  0  0  0  0  0  0  0
  148.9854  127.8896  153.5317 H   0  0  0  0  0  0  0  0  0  0  0  0
  149.4389  130.2485  154.0554 H   0  0  0  0  0  0  0  0  0  0  0  0
  145.5774  135.4608  150.9178 H   0  0  0  0  0  0  0  0  0  0  0  0
  145.0671  138.1103  151.5289 H   0  0  0  0  0  0  0  0  0  0  0  0
  147.6163  137.0149  151.9788 H   0  0  0  0  0  0  0  0  0  0  0  0
  152.1590  140.3649  158.7577 H   0  0  0  0  0  0  0  0  0  0  0  0
  153.4403  142.0738  160.0040 H   0  0  0  0  0  0  0  0  0  0  0  0
  153.3399  144.4634  159.3175 H   0  0  0  0  0  0  0  0  0  0  0  0
  151.9363  145.1386  157.3774 H   0  0  0  0  0  0  0  0  0  0  0  0
  150.6427  143.4483  156.1274 H   0  0  0  0  0  0  0  0  0  0  0  0
  1  2  2  0  0  0  0
  2  3  1  0  0  0  0
  2 30  1  0  0  0  0
  3  4  1  0  0  0  0
  4  9  1  0  0  0  0
  4  5  2  0  0  0  0
  5  6  1  0  0  0  0
  6  7  2  0  0  0  0
  6 36  1  0  0  0  0
  7  8  1  0  0  0  0
  8 12  1  0  0  0  0
  8  9  2  0  0  0  0
  9 10  1  0  0  0  0
 10 11  2  0  0  0  0
 11 12  1  0  0  0  0
 11 37  1  0  0  0  0
 12 13  1  0  0  0  0
 13 28  1  0  0  0  0
 13 14  1  0  0  0  0
 13 38  1  0  0  0  0
 14 15  1  0  0  0  0
 15 16  1  0  0  0  0
 15 26  1  0  0  0  0
 15 39  1  0  0  0  0
 16 17  1  0  0  0  0
 16 40  1  0  0  0  0
 16 41  1  0  0  0  0
 17 18  1  0  0  0  0
 18 19  2  0  0  0  0
 18 20  1  0  0  0  0
 20 25  1  0  0  0  0
 20 21  2  0  0  0  0
 21 22  1  0  0  0  0
 21 42  1  0  0  0  0
 22 23  2  0  0  0  0
 22 43  1  0  0  0  0
 23 24  1  0  0  0  0
 23 44  1  0  0  0  0
 24 25  2  0  0  0  0
 24 45  1  0  0  0  0
 25 46  1  0  0  0  0
 26 27  1  0  0  0  0
 26 28  1  0  0  0  0
 26 47  1  0  0  0  0
 28 29  1  0  0  0  0
 28 48  1  0  0  0  0
 29 49  1  0  0  0  0
 30 35  1  0  0  0  0
 30 31  2  0  0  0  0
 31 32  1  0  0  0  0
 31 50  1  0  0  0  0
 32 33  2  0  0  0  0
 32 51  1  0  0  0  0
 33 34  1  0  0  0  0
 33 52  1  0  0  0  0
 34 35  2  0  0  0  0
 34 53  1  0  0  0  0
 35 54  1  0  0  0  0
M  CHG  1   3  -1
M  END
> <s_m_source_file>
AV-unprocessed.smi

> <i_m_source_file_index>
34

> <i_lp_mmshare_version>
43012

> <i_f3d_flags>
0

> <s_epik_input>
W2NIXTFbY0hdW2NIXVtjSF1bY0hdYzFDKD1PKVtOSF1jKG5bY0hdbjIpYyhjMjMpbltjSF1uM1tDQEBIXTRPW0NASF0oW0NAQEhdKEYpW0NASF00W09IXSlbQ0gyXU9DKD1PKWM1W2NIXVtjSF1bY0hdW2NIXVtjSF01

> <s_epik_cmdline>
J2VwaWtfcHl0aG9uJywgJy1waCcsICc3LjAnLCAnLXRuJywgJzgnLCAnLW1hJywgJzIwMCcsICctbWV0YWxfYmluZGluZycsICctaW1hZScsICc8aW5maWxlLm1hZT4nLCAnLW9tYWUnLCAnPG91dGZpbGUubWFlPic=

> <r_lp_tautomer_probability>
1

> <r_epik_Ionization_Penalty>
4.33227

> <r_epik_Ionization_Penalty_Charging>
3.41027

> <r_epik_Ionization_Penalty_Neutral>
0.922001

> <r_epik_State_Penalty>
3.41358

> <r_epik_Charging_Adjusted_Penalty>
6.82385

> <i_epik_Tot_Q>
-1

> <i_epik_Tot_abs_Q>
1

> <r_epik_Metal_State_Penalty>
0.496292

> <b_epik_Metal_Only>
1

> <s_epik_Chemistry_Notes>
This compound has an ester and may undergo hydrolysis at high or low pH. This compound contains an acetal/aminal-like group ( X-CH(R)-Y where X, Y are N, S, or O) that may be acid/base labile, releasing an aldehyde.

> <s_lp_Force_Field>
OPLS_2005

> <r_lp_Energy>
50.7645

> <b_lp_Chiralities_Consistent>
1

> <s_lp_Variant>
AV-unprocessed.smi:34-27

> <Gold.Version>
5.8.1

> <Gold.Id.Protein>
6NUR|6NUR_protein|mol2

> <Gold.PLP.Fitness>
56.8315

> <Gold.PLP.PLP>
-52.4312

> <Gold.PLP.part.hbond>
-3.3282

> <Gold.PLP.part.metal>
0.0000

> <Gold.PLP.part.buried>
-2.9937

> <Gold.PLP.part.nonpolar>
-46.2684

> <Gold.PLP.part.repulsive>
0.8220

> <Gold.PLP.ligand.clash>
0.0000

> <Gold.PLP.ligand.torsion>
2.2019

> <Gold.PLP.Chemscore.Hbond>
2.6936

> <Gold.PLP.Chemscore.CHOScore>
0.0000

> <Gold.PLP.Chemscore.Metal>
0.0000

> <Gold.Chemscore.Hbonds>
donor molecule, donor type, donor heavy atom, donor atom, acceptor molecule, acceptor atom, score
      L1  H    29    49       P1  7948  0.77
      P1  H  7954  7966       L1    29  0.95
      P1  H  7989  7998       L1     3  0.42
      P1  H  8011  8017       L1     5  0.52

> <Gold.PLP.Chemscore.Internal.Correction>
0.7232

> <Gold.Rescore>
     Score         DG    S(hbond)    S(metal)    S(lipo)     H(rot)  DE(clash)    DE(int)     intcor
     13.23     -17.09       1.01        0.00     129.36       2.69       0.41       3.44       ----

> <Gold.Chemscore.Fitness>
13.2334

> <Gold.Chemscore.DG>
-17.0883

> <Gold.Chemscore.ZeroCoef>
-5.4800

> <Gold.Chemscore.Hbond>
1.0091

> <Gold.Chemscore.Metal>
0.0000

> <Gold.Chemscore.Lipo>
129.3634

> <Gold.Chemscore.Internal_Hbond>
0.0000

> <Gold.Chemscore.DEClash>
0.4129

> <Gold.Chemscore.DEInternal>
3.4420

> <Gold.Chemscore.Rot>
2.6944

> <Gold.Chemscore.Internal.Correction>
   9.000000E+99

> <Gold.Chemscore.Hbonds>
donor molecule, donor type, donor heavy atom, donor atom, acceptor molecule, acceptor atom, score
      L1  H    29    49       P1  7948  0.71
      P1  H  7954  7966       L1    29  0.21
      P1  H  7989  7998       L1     3  0.04
      P1  H  8011  8017       L1     5  0.09

> <Gold.Chemscore.Hbond.Weighted>
-3.3704

> <Gold.Chemscore.Metal.Weighted>
-0.0000

> <Gold.Chemscore.Lipo.Weighted>
-15.1355

> <Gold.Chemscore.Internal_Hbond.Weighted>
0.0000

> <Gold.Chemscore.DEClash.Weighted>
0.4129

> <Gold.Chemscore.DEInternal.Weighted>
3.4420

> <Gold.Chemscore.Rot.Weighted>
6.8975

> <Gold.Chemscore.Internal.Correction.Weighted>
   9.000000E+99

> <Gold.Protein.RotatedTorsions>
[ 6907 6896 6895 6894 ] final  101.04 input  -60.11 | X-H torsion
[ 7974 7965 7964 7962 ] final  147.91 input  175.53 | X-H torsion
[ 8008 7997 7996 7995 ] final   53.11 input   59.86 | X-H torsion
[ 10167 10162 10161 10158 ] final -171.23 input  -65.29 | X-H torsion
[ 10718 10713 10712 10709 ] final -129.49 input   66.30 | X-H torsion
[ 10763 10752 10751 10750 ] final -114.75 input  -60.55 | X-H torsion
[ 11005 11000 10999 10996 ] final   53.21 input  -57.11 | X-H torsion

> <Gold.Protein.ActiveResidues>
 VAL166  LYS551  ARG553  GLY616  TRP617  ASP618  TYR619  PRO620  LYS621  CYS622 
 ASP623  PHE694  ASN695  SER759  ASP760  ASP761  ALA762  ILE779  LEU786  VAL792 
 PHE793  MET794  SER795  GLU796  ALA797  LYS798  CYS799  TRP800  GLU811  SER814 

> <Gold.Protein.RotatedAtoms>
  152.5358  134.0185  159.7970 H   0  0  0  0  0  0  0  0  0  0  0  0  # atno 6907 bound_to 6896
  151.0375  133.5727  159.2661 H   0  0  0  0  0  0  0  0  0  0  0  0  # atno 6908 bound_to 6896
  151.2709  135.0691  159.9187 H   0  0  0  0  0  0  0  0  0  0  0  0  # atno 6909 bound_to 6896
  144.8555  139.6087  143.5954 H   0  0  0  0  0  0  0  0  0  0  0  0  # atno 7974 bound_to 7965
  155.4628  140.3462  155.4315 H   0  0  0  0  0  0  0  0  0  0  0  0  # atno 8008 bound_to 7997
  156.1150  140.1471  156.9315 H   0  0  0  0  0  0  0  0  0  0  0  0  # atno 8009 bound_to 7997
  154.4782  140.0878  156.7293 H   0  0  0  0  0  0  0  0  0  0  0  0  # atno 8010 bound_to 7997
  139.5815  144.1414  152.1520 H   0  0  0  0  0  0  0  0  0  0  0  0  # atno 10167 bound_to 10162
  156.2052  130.6883  151.0585 H   0  0  0  0  0  0  0  0  0  0  0  0  # atno 10718 bound_to 10713
  154.8453  135.4406  154.1554 H   0  0  0  0  0  0  0  0  0  0  0  0  # atno 10763 bound_to 10752
  153.2704  135.6944  153.7492 H   0  0  0  0  0  0  0  0  0  0  0  0  # atno 10764 bound_to 10752
  153.6735  135.3415  155.3135 H   0  0  0  0  0  0  0  0  0  0  0  0  # atno 10765 bound_to 10752
  140.0786  134.5370  155.8970 H   0  0  0  0  0  0  0  0  0  0  0  0  # atno 11005 bound_to 11000
  146.2819  139.6901  142.9223 LP  0  0  0  0  0  0  0  0  0  0  0  0  # atno 17320 bound_to 7965
  145.4415  141.0422  143.2855 LP  0  0  0  0  0  0  0  0  0  0  0  0  # atno 17321 bound_to 7965
  140.0968  144.5574  150.7016 LP  0  0  0  0  0  0  0  0  0  0  0  0  # atno 17342 bound_to 10162
  140.7092  143.2492  151.4633 LP  0  0  0  0  0  0  0  0  0  0  0  0  # atno 17343 bound_to 10162
  157.7008  131.0776  150.6826 LP  0  0  0  0  0  0  0  0  0  0  0  0  # atno 17370 bound_to 10713
  156.6884  130.4588  149.5607 LP  0  0  0  0  0  0  0  0  0  0  0  0  # atno 17371 bound_to 10713
  141.2038  133.6635  156.6087 LP  0  0  0  0  0  0  0  0  0  0  0  0  # atno 17394 bound_to 11000
  140.3521  134.7760  157.4474 LP  0  0  0  0  0  0  0  0  0  0  0  0  # atno 17395 bound_to 11000

$$$$
