AV-unprocessed.smi:598|AV-procd|sdf|3028|dock9
  -GOLD-   2262023543D 1   1.00000     0.00000
 Structure written by MMmdl.
 43 44  0  0  0  0  0  0  0  0  3 V2000
  151.3993  142.4997  157.6596 C   0  0  0  0  0  0  0  0  0  0  0  0
  150.7231  141.1839  157.2338 C   0  0  1  0  0  0  0  0  0  0  0  0
  150.4346  141.2151  155.7185 C   0  0  0  0  0  0  0  0  0  0  0  0
  149.7487  139.9316  155.2316 C   0  0  0  0  0  0  0  0  0  0  0  0
  150.5795  138.6921  155.5946 C   0  0  0  0  0  0  0  0  0  0  0  0
  150.8762  138.6216  157.1039 C   0  0  2  0  0  0  0  0  0  0  0  0
  149.6414  138.3244  157.8343 N   0  0  0  0  0  0  0  0  0  0  0  0
  149.4325  137.2797  158.6506 C   0  0  0  0  0  0  0  0  0  0  0  0
  150.2938  136.4371  158.9074 O   0  0  0  0  0  0  0  0  0  0  0  0
  148.0322  137.1973  159.2757 C   0  0  0  0  0  0  0  0  0  0  0  0
  147.8326  136.0108  160.1255 N   0  0  0  0  0  0  0  0  0  0  0  0
  147.9227  134.7530  159.4971 C   0  0  0  0  0  0  0  0  0  0  0  0
  147.7542  133.6004  160.1744 C   0  0  0  0  0  0  0  0  0  0  0  0
  147.8483  132.3178  159.5120 N   0  3  0  0  0  0  0  0  0  0  0  0
  147.7265  131.2983  160.1836 O   0  0  0  0  0  0  0  0  0  0  0  0
  148.0486  132.2861  158.3014 O   0  5  0  0  0  0  0  0  0  0  0  0
  147.4723  133.6875  161.5942 C   0  0  0  0  0  0  0  0  0  0  0  0
  147.3814  134.8875  162.2005 C   0  0  0  0  0  0  0  0  0  0  0  0
  147.5626  136.1408  161.4609 C   0  0  0  0  0  0  0  0  0  0  0  0
  147.4766  137.2403  162.0082 O   0  0  0  0  0  0  0  0  0  0  0  0
  151.5548  139.9248  157.6075 C   0  0  2  0  0  0  0  0  0  0  0  0
  151.8942  139.8468  159.1098 C   0  0  0  0  0  0  0  0  0  0  0  0
  152.3969  142.5909  157.2288 H   0  0  0  0  0  0  0  0  0  0  0  0
  151.4921  142.5754  158.7427 H   0  0  0  0  0  0  0  0  0  0  0  0
  150.8175  143.3623  157.3326 H   0  0  0  0  0  0  0  0  0  0  0  0
  149.7657  141.1290  157.7540 H   0  0  0  0  0  0  0  0  0  0  0  0
  149.8063  142.0731  155.4761 H   0  0  0  0  0  0  0  0  0  0  0  0
  151.3673  141.3546  155.1701 H   0  0  0  0  0  0  0  0  0  0  0  0
  148.7534  139.8566  155.6712 H   0  0  0  0  0  0  0  0  0  0  0  0
  149.6039  139.9764  154.1517 H   0  0  0  0  0  0  0  0  0  0  0  0
  150.0646  137.7876  155.2679 H   0  0  0  0  0  0  0  0  0  0  0  0
  151.5209  138.7199  155.0444 H   0  0  0  0  0  0  0  0  0  0  0  0
  151.5792  137.7992  157.2477 H   0  0  0  0  0  0  0  0  0  0  0  0
  148.8749  138.9666  157.6936 H   0  0  0  0  0  0  0  0  0  0  0  0
  147.8596  138.1091  159.8499 H   0  0  0  0  0  0  0  0  0  0  0  0
  147.2876  137.2207  158.4777 H   0  0  0  0  0  0  0  0  0  0  0  0
  148.1288  134.7958  158.4371 H   0  0  0  0  0  0  0  0  0  0  0  0
  147.3319  132.7915  162.1811 H   0  0  0  0  0  0  0  0  0  0  0  0
  147.1698  134.9295  163.2589 H   0  0  0  0  0  0  0  0  0  0  0  0
  152.5075  140.0010  157.0809 H   0  0  0  0  0  0  0  0  0  0  0  0
  150.9993  139.9085  159.7291 H   0  0  0  0  0  0  0  0  0  0  0  0
  152.5642  140.6509  159.4128 H   0  0  0  0  0  0  0  0  0  0  0  0
  152.3994  138.9102  159.3472 H   0  0  0  0  0  0  0  0  0  0  0  0
  1  2  1  0  0  0  0
  1 23  1  0  0  0  0
  1 24  1  0  0  0  0
  1 25  1  0  0  0  0
  2 21  1  0  0  0  0
  2  3  1  0  0  0  0
  2 26  1  0  0  0  0
  3  4  1  0  0  0  0
  3 27  1  0  0  0  0
  3 28  1  0  0  0  0
  4  5  1  0  0  0  0
  4 29  1  0  0  0  0
  4 30  1  0  0  0  0
  5  6  1  0  0  0  0
  5 31  1  0  0  0  0
  5 32  1  0  0  0  0
  6  7  1  0  0  0  0
  6 21  1  0  0  0  0
  6 33  1  0  0  0  0
  7  8  1  0  0  0  0
  7 34  1  0  0  0  0
  8  9  2  0  0  0  0
  8 10  1  0  0  0  0
 10 11  1  0  0  0  0
 10 35  1  0  0  0  0
 10 36  1  0  0  0  0
 11 19  1  0  0  0  0
 11 12  1  0  0  0  0
 12 13  2  0  0  0  0
 12 37  1  0  0  0  0
 13 14  1  0  0  0  0
 13 17  1  0  0  0  0
 14 15  2  0  0  0  0
 14 16  1  0  0  0  0
 17 18  2  0  0  0  0
 17 38  1  0  0  0  0
 18 19  1  0  0  0  0
 18 39  1  0  0  0  0
 19 20  2  0  0  0  0
 21 22  1  0  0  0  0
 21 40  1  0  0  0  0
 22 41  1  0  0  0  0
 22 42  1  0  0  0  0
 22 43  1  0  0  0  0
M  CHG  1  14   1
M  CHG  1  16  -1
M  END
> <s_m_source_file>
AV-unprocessed.smi

> <i_m_source_file_index>
598

> <i_lp_mmshare_version>
43012

> <i_f3d_flags>
0

> <s_epik_input>
W0NIM11bQ0BASF0xW0NIMl1bQ0gyXVtDSDJdW0NASF0oW0NASF0xW0NIM10pW05IXUMoPU8pW0NIMl1uMltjSF1jKFtOK10oPU8pW08tXSlbY0hdW2NIXWMyPU8=

> <s_epik_cmdline>
J2VwaWtfcHl0aG9uJywgJy1waCcsICc3LjAnLCAnLXRuJywgJzgnLCAnLW1hJywgJzIwMCcsICctbWV0YWxfYmluZGluZycsICctaW1hZScsICc8aW5maWxlLm1hZT4nLCAnLW9tYWUnLCAnPG91dGZpbGUubWFlPic=

> <r_lp_tautomer_probability>
1

> <r_epik_Ionization_Penalty>
1.91291e-08

> <r_epik_Ionization_Penalty_Charging>
8.21931e-11

> <r_epik_Ionization_Penalty_Neutral>
1.90469e-08

> <r_epik_State_Penalty>
-0

> <r_epik_Charging_Adjusted_Penalty>
8.21931e-11

> <i_epik_Tot_Q>
0

> <i_epik_Tot_abs_Q>
2

> <r_epik_Metal_State_Penalty>
-0

> <b_epik_Metal_Only>
0

> <s_lp_Force_Field>
OPLS_2005

> <r_lp_Energy>
23.1067

> <b_lp_Chiralities_Consistent>
1

> <s_lp_Variant>
AV-unprocessed.smi:598-8

> <Gold.Version>
5.8.1

> <Gold.Id.Protein>
6NUR|6NUR_protein|mol2

> <Gold.PLP.Fitness>
43.6577

> <Gold.PLP.PLP>
-35.9159

> <Gold.PLP.part.hbond>
-3.0000

> <Gold.PLP.part.metal>
0.0000

> <Gold.PLP.part.buried>
-4.7926

> <Gold.PLP.part.nonpolar>
-27.8081

> <Gold.PLP.part.repulsive>
0.0766

> <Gold.PLP.ligand.clash>
0.0000

> <Gold.PLP.ligand.torsion>
0.0373

> <Gold.PLP.Chemscore.Hbond>
2.6000

> <Gold.PLP.Chemscore.CHOScore>
0.0000

> <Gold.PLP.Chemscore.Metal>
0.0000

> <Gold.Chemscore.Hbonds>
donor molecule, donor type, donor heavy atom, donor atom, acceptor molecule, acceptor atom, score
      P1  H  6896  6908       L1     9  1.00
      P1  H  6931  6943       L1    20  0.90
      P1  H  6934  6947       L1    20  0.57

> <Gold.PLP.Chemscore.Internal.Correction>
0.0164

> <Gold.Rescore>
     Score         DG    S(hbond)    S(metal)    S(lipo)     H(rot)  DE(clash)    DE(int)     intcor
     18.74     -18.89       2.55        0.00      75.55       1.54       0.01       0.14       ----

> <Gold.Chemscore.Fitness>
18.7415

> <Gold.Chemscore.DG>
-18.8945

> <Gold.Chemscore.ZeroCoef>
-5.4800

> <Gold.Chemscore.Hbond>
2.5496

> <Gold.Chemscore.Metal>
0.0000

> <Gold.Chemscore.Lipo>
75.5530

> <Gold.Chemscore.Internal_Hbond>
0.0000

> <Gold.Chemscore.DEClash>
0.0098

> <Gold.Chemscore.DEInternal>
0.1433

> <Gold.Chemscore.Rot>
1.5393

> <Gold.Chemscore.Internal.Correction>
   9.000000E+99

> <Gold.Chemscore.Hbonds>
donor molecule, donor type, donor heavy atom, donor atom, acceptor molecule, acceptor atom, score
      P1  H  6896  6908       L1     9  0.99
      P1  H  6931  6943       L1    20  0.80
      P1  H  6934  6947       L1    20  0.56

> <Gold.Chemscore.Hbond.Weighted>
-8.5156

> <Gold.Chemscore.Metal.Weighted>
-0.0000

> <Gold.Chemscore.Lipo.Weighted>
-8.8397

> <Gold.Chemscore.Internal_Hbond.Weighted>
0.0000

> <Gold.Chemscore.DEClash.Weighted>
0.0098

> <Gold.Chemscore.DEInternal.Weighted>
0.1433

> <Gold.Chemscore.Rot.Weighted>
3.9407

> <Gold.Chemscore.Internal.Correction.Weighted>
   9.000000E+99

> <Gold.Protein.RotatedTorsions>
[ 6907 6896 6895 6894 ] final -151.74 input  -60.11 | X-H torsion
[ 7974 7965 7964 7962 ] final -157.17 input  175.53 | X-H torsion
[ 8008 7997 7996 7995 ] final   -0.15 input   59.86 | X-H torsion
[ 10167 10162 10161 10158 ] final -133.25 input  -65.29 | X-H torsion
[ 10718 10713 10712 10709 ] final -165.30 input   66.30 | X-H torsion
[ 10763 10752 10751 10750 ] final -157.67 input  -60.55 | X-H torsion
[ 11005 11000 10999 10996 ] final  142.61 input  -57.11 | X-H torsion

> <Gold.Protein.ActiveResidues>
 VAL166  LYS551  ARG553  GLY616  TRP617  ASP618  TYR619  PRO620  LYS621  CYS622 
 ASP623  PHE694  ASN695  SER759  ASP760  ASP761  ALA762  ILE779  LEU786  VAL792 
 PHE793  MET794  SER795  GLU796  ALA797  LYS798  CYS799  TRP800  GLU811  SER814 

> <Gold.Protein.RotatedAtoms>
  151.2175  133.4521  159.2599 H   0  0  0  0  0  0  0  0  0  0  0  0  # atno 6907 bound_to 6896
  151.0916  134.9920  159.8416 H   0  0  0  0  0  0  0  0  0  0  0  0  # atno 6908 bound_to 6896
  152.5435  134.2108  159.8802 H   0  0  0  0  0  0  0  0  0  0  0  0  # atno 6909 bound_to 6896
  144.7560  140.4007  143.6012 H   0  0  0  0  0  0  0  0  0  0  0  0  # atno 7974 bound_to 7965
  154.6613  140.2591  155.7105 H   0  0  0  0  0  0  0  0  0  0  0  0  # atno 8008 bound_to 7997
  156.2620  140.2848  156.1008 H   0  0  0  0  0  0  0  0  0  0  0  0  # atno 8009 bound_to 7997
  155.1304  140.0378  157.2763 H   0  0  0  0  0  0  0  0  0  0  0  0  # atno 8010 bound_to 7997
  139.9002  143.6617  152.2596 H   0  0  0  0  0  0  0  0  0  0  0  0  # atno 10167 bound_to 10162
  156.6515  130.9009  151.3014 H   0  0  0  0  0  0  0  0  0  0  0  0  # atno 10718 bound_to 10713
  154.7618  135.3120  154.8364 H   0  0  0  0  0  0  0  0  0  0  0  0  # atno 10763 bound_to 10752
  153.9123  135.6804  153.4755 H   0  0  0  0  0  0  0  0  0  0  0  0  # atno 10764 bound_to 10752
  153.1219  135.4818  154.9141 H   0  0  0  0  0  0  0  0  0  0  0  0  # atno 10765 bound_to 10752
  140.0490  134.9265  157.0983 H   0  0  0  0  0  0  0  0  0  0  0  0  # atno 11005 bound_to 11000
  145.6778  139.1612  143.2718 LP  0  0  0  0  0  0  0  0  0  0  0  0  # atno 17320 bound_to 7965
  146.1571  140.6842  142.9295 LP  0  0  0  0  0  0  0  0  0  0  0  0  # atno 17321 bound_to 7965
  139.7032  144.7632  151.1237 LP  0  0  0  0  0  0  0  0  0  0  0  0  # atno 17342 bound_to 10162
  140.7708  143.5429  150.9291 LP  0  0  0  0  0  0  0  0  0  0  0  0  # atno 17343 bound_to 10162
  157.7139  130.9474  150.1186 LP  0  0  0  0  0  0  0  0  0  0  0  0  # atno 17370 bound_to 10713
  156.2081  130.3665  149.8704 LP  0  0  0  0  0  0  0  0  0  0  0  0  # atno 17371 bound_to 10713
  140.3947  134.2146  155.7165 LP  0  0  0  0  0  0  0  0  0  0  0  0  # atno 17394 bound_to 11000
  141.1921  133.8180  157.0852 LP  0  0  0  0  0  0  0  0  0  0  0  0  # atno 17395 bound_to 11000

$$$$
