AV-unprocessed.smi:3165|AV-procd|sdf|12090|dock5
  -GOLD-   2272017523D 1   1.00000     0.00000
 Structure written by MMmdl.
 37 38  0  0  0  0  0  0  0  0  1 V2000
  149.5984  141.8257  156.1385 C   0  0  0  0  0  0  0  0  0  0  0  0
  150.3744  140.9296  157.1259 C   0  0  1  0  0  0  0  0  0  0  0  0
  151.7056  140.4179  156.5383 C   0  0  0  0  0  0  0  0  0  0  0  0
  151.5276  139.3270  155.5965 N   0  0  0  0  0  0  0  0  0  0  0  0
  152.0773  138.0632  155.6414 C   0  0  0  0  0  0  0  0  0  0  0  0
  151.6331  137.3875  154.5412 C   0  0  0  0  0  0  0  0  0  0  0  0
  150.8091  138.3353  153.8725 C   0  0  0  0  0  0  0  0  0  0  0  0
  150.7500  139.4961  154.5049 N   0  0  0  0  0  0  0  0  0  0  0  0
  150.6464  141.6185  158.3905 N   0  0  0  0  0  0  0  0  0  0  0  0
  151.6279  142.7026  158.3259 C   0  0  0  0  0  0  0  0  0  0  0  0
  152.4021  142.8499  159.6467 C   0  0  2  0  0  0  0  0  0  0  0  0
  152.9413  141.5157  160.2050 C   0  0  0  0  0  0  0  0  0  0  0  0
  153.6595  141.7448  161.5391 C   0  0  0  0  0  0  0  0  0  0  0  0
  152.7394  142.5139  162.4937 C   0  0  0  0  0  0  0  0  0  0  0  0
  152.2287  143.8012  161.8261 C   0  0  0  0  0  0  0  0  0  0  0  0
  151.5625  143.4909  160.6055 O   0  0  0  0  0  0  0  0  0  0  0  0
  149.4099  141.3112  155.1964 H   0  0  0  0  0  0  0  0  0  0  0  0
  150.1540  142.7361  155.9110 H   0  0  0  0  0  0  0  0  0  0  0  0
  148.6236  142.1159  156.5290 H   0  0  0  0  0  0  0  0  0  0  0  0
  149.7564  140.0556  157.3353 H   0  0  0  0  0  0  0  0  0  0  0  0
  152.2403  141.2320  156.0449 H   0  0  0  0  0  0  0  0  0  0  0  0
  152.3557  140.0614  157.3386 H   0  0  0  0  0  0  0  0  0  0  0  0
  152.7303  137.7541  156.4442 H   0  0  0  0  0  0  0  0  0  0  0  0
  151.8631  136.3716  154.2568 H   0  0  0  0  0  0  0  0  0  0  0  0
  150.2574  138.2158  152.9519 H   0  0  0  0  0  0  0  0  0  0  0  0
  149.7781  141.9768  158.7755 H   0  0  0  0  0  0  0  0  0  0  0  0
  152.3392  142.5238  157.5200 H   0  0  0  0  0  0  0  0  0  0  0  0
  151.1277  143.6449  158.0995 H   0  0  0  0  0  0  0  0  0  0  0  0
  153.2489  143.5103  159.4516 H   0  0  0  0  0  0  0  0  0  0  0  0
  152.1226  140.8123  160.3594 H   0  0  0  0  0  0  0  0  0  0  0  0
  153.6197  141.0520  159.4885 H   0  0  0  0  0  0  0  0  0  0  0  0
  153.9562  140.7928  161.9799 H   0  0  0  0  0  0  0  0  0  0  0  0
  154.5751  142.3131  161.3718 H   0  0  0  0  0  0  0  0  0  0  0  0
  151.8912  141.8865  162.7700 H   0  0  0  0  0  0  0  0  0  0  0  0
  153.2676  142.7510  163.4175 H   0  0  0  0  0  0  0  0  0  0  0  0
  151.5293  144.3129  162.4876 H   0  0  0  0  0  0  0  0  0  0  0  0
  153.0508  144.4931  161.6373 H   0  0  0  0  0  0  0  0  0  0  0  0
  1  2  1  0  0  0  0
  1 17  1  0  0  0  0
  1 18  1  0  0  0  0
  1 19  1  0  0  0  0
  2  3  1  0  0  0  0
  2  9  1  0  0  0  0
  2 20  1  0  0  0  0
  3  4  1  0  0  0  0
  3 21  1  0  0  0  0
  3 22  1  0  0  0  0
  4  8  1  0  0  0  0
  4  5  1  0  0  0  0
  5  6  2  0  0  0  0
  5 23  1  0  0  0  0
  6  7  1  0  0  0  0
  6 24  1  0  0  0  0
  7  8  2  0  0  0  0
  7 25  1  0  0  0  0
  9 10  1  0  0  0  0
  9 26  1  0  0  0  0
 10 11  1  0  0  0  0
 10 27  1  0  0  0  0
 10 28  1  0  0  0  0
 11 16  1  0  0  0  0
 11 12  1  0  0  0  0
 11 29  1  0  0  0  0
 12 13  1  0  0  0  0
 12 30  1  0  0  0  0
 12 31  1  0  0  0  0
 13 14  1  0  0  0  0
 13 32  1  0  0  0  0
 13 33  1  0  0  0  0
 14 15  1  0  0  0  0
 14 34  1  0  0  0  0
 14 35  1  0  0  0  0
 15 16  1  0  0  0  0
 15 36  1  0  0  0  0
 15 37  1  0  0  0  0
M  END
> <s_m_source_file>
AV-unprocessed.smi

> <i_m_source_file_index>
3165

> <i_lp_mmshare_version>
43012

> <i_f3d_flags>
0

> <s_epik_input>
bjFbY0hdW2NIXVtjSF1uMVtDSDJdW0NAQEhdKFtDSDNdKVtOSF1bQ0gyXVtDQEBIXTJbQ0gyXVtDSDJdW0NIMl1bQ0gyXU8y

> <s_epik_cmdline>
J2VwaWtfcHl0aG9uJywgJy1waCcsICc3LjAnLCAnLXRuJywgJzgnLCAnLW1hJywgJzIwMCcsICctbWV0YWxfYmluZGluZycsICctaW1hZScsICc8aW5maWxlLm1hZT4nLCAnLW9tYWUnLCAnPG91dGZpbGUubWFlPic=

> <r_lp_tautomer_probability>
1

> <r_epik_Ionization_Penalty>
2.51982

> <r_epik_Ionization_Penalty_Charging>
0

> <r_epik_Ionization_Penalty_Neutral>
2.51982

> <r_epik_State_Penalty>
2.68614

> <r_epik_Charging_Adjusted_Penalty>
2.68614

> <i_epik_Tot_Q>
0

> <i_epik_Tot_abs_Q>
0

> <r_epik_Metal_State_Penalty>
2.6861

> <b_epik_Metal_Only>
0

> <s_lp_Force_Field>
OPLS_2005

> <r_lp_Energy>
15.9673

> <b_lp_Chiralities_Consistent>
1

> <s_lp_Variant>
AV-unprocessed.smi:3165-6

> <Gold.Version>
5.8.1

> <Gold.Id.Protein>
6NUR|6NUR_protein|mol2

> <Gold.PLP.Fitness>
45.6965

> <Gold.PLP.PLP>
-37.8883

> <Gold.PLP.part.hbond>
-1.0000

> <Gold.PLP.part.metal>
0.0000

> <Gold.PLP.part.buried>
-2.5705

> <Gold.PLP.part.nonpolar>
-33.8361

> <Gold.PLP.part.repulsive>
0.2059

> <Gold.PLP.ligand.clash>
0.0000

> <Gold.PLP.ligand.torsion>
0.5148

> <Gold.PLP.Chemscore.Hbond>
1.0000

> <Gold.PLP.Chemscore.CHOScore>
1.9337

> <Gold.PLP.Chemscore.Metal>
0.0000

> <Gold.Chemscore.Hbonds>
donor molecule, donor type, donor heavy atom, donor atom, acceptor molecule, acceptor atom, score
      P1  H  7989  7998       L1     8  1.00
      L1  C     7    25       P1  7948  0.82
      L1  C     7    25       P1  7949  0.06
      L1  C     7    25       P1  7957  0.74

> <Gold.PLP.Chemscore.Internal.Correction>
0.0367

> <Gold.Rescore>
     Score         DG    S(hbond)    S(metal)    S(lipo)     H(rot)  DE(clash)    DE(int)     intcor
     16.02     -16.95       0.96        0.00     105.12       1.57       0.41       0.51       ----

> <Gold.Chemscore.Fitness>
16.0217

> <Gold.Chemscore.DG>
-16.9458

> <Gold.Chemscore.ZeroCoef>
-5.4800

> <Gold.Chemscore.Hbond>
0.9561

> <Gold.Chemscore.Metal>
0.0000

> <Gold.Chemscore.Lipo>
105.1247

> <Gold.Chemscore.Internal_Hbond>
0.0000

> <Gold.Chemscore.DEClash>
0.4140

> <Gold.Chemscore.DEInternal>
0.5102

> <Gold.Chemscore.Rot>
1.5731

> <Gold.Chemscore.Internal.Correction>
   9.000000E+99

> <Gold.Chemscore.Hbonds>
donor molecule, donor type, donor heavy atom, donor atom, acceptor molecule, acceptor atom, score
      P1  H  7989  7998       L1     8  0.37

> <Gold.Chemscore.Hbond.Weighted>
-3.1935

> <Gold.Chemscore.Metal.Weighted>
-0.0000

> <Gold.Chemscore.Lipo.Weighted>
-12.2996

> <Gold.Chemscore.Internal_Hbond.Weighted>
0.0000

> <Gold.Chemscore.DEClash.Weighted>
0.4140

> <Gold.Chemscore.DEInternal.Weighted>
0.5102

> <Gold.Chemscore.Rot.Weighted>
4.0273

> <Gold.Chemscore.Internal.Correction.Weighted>
   9.000000E+99

> <Gold.Protein.RotatedTorsions>
[ 6907 6896 6895 6894 ] final  -36.86 input  -60.11 | X-H torsion
[ 7974 7965 7964 7962 ] final   18.28 input  175.53 | X-H torsion
[ 8008 7997 7996 7995 ] final   62.70 input   59.86 | X-H torsion
[ 10167 10162 10161 10158 ] final -121.44 input  -65.29 | X-H torsion
[ 10718 10713 10712 10709 ] final  107.72 input   66.30 | X-H torsion
[ 10763 10752 10751 10750 ] final  179.89 input  -60.55 | X-H torsion
[ 11005 11000 10999 10996 ] final  171.12 input  -57.11 | X-H torsion

> <Gold.Protein.ActiveResidues>
 VAL166  LYS551  ARG553  GLY616  TRP617  ASP618  TYR619  PRO620  LYS621  CYS622 
 ASP623  PHE694  ASN695  SER759  ASP760  ASP761  ALA762  ILE779  LEU786  VAL792 
 PHE793  MET794  SER795  GLU796  ALA797  LYS798  CYS799  TRP800  GLU811  SER814 

> <Gold.Protein.RotatedAtoms>
  151.0219  134.9475  159.8063 H   0  0  0  0  0  0  0  0  0  0  0  0  # atno 6907 bound_to 6896
  152.5327  134.2892  159.9047 H   0  0  0  0  0  0  0  0  0  0  0  0  # atno 6908 bound_to 6896
  151.2900  133.4128  159.2666 H   0  0  0  0  0  0  0  0  0  0  0  0  # atno 6909 bound_to 6896
  146.2190  139.8480  142.8628 H   0  0  0  0  0  0  0  0  0  0  0  0  # atno 7974 bound_to 7965
  155.6185  140.3495  155.4644 H   0  0  0  0  0  0  0  0  0  0  0  0  # atno 8008 bound_to 7997
  156.0098  140.1231  157.0489 H   0  0  0  0  0  0  0  0  0  0  0  0  # atno 8009 bound_to 7997
  154.4277  140.1084  156.5800 H   0  0  0  0  0  0  0  0  0  0  0  0  # atno 8010 bound_to 7997
  140.0250  143.5306  152.2203 H   0  0  0  0  0  0  0  0  0  0  0  0  # atno 10167 bound_to 10162
  157.6617  131.0878  150.6198 H   0  0  0  0  0  0  0  0  0  0  0  0  # atno 10718 bound_to 10713
  154.5264  135.2797  155.1218 H   0  0  0  0  0  0  0  0  0  0  0  0  # atno 10763 bound_to 10752
  154.2755  135.6295  153.5330 H   0  0  0  0  0  0  0  0  0  0  0  0  # atno 10764 bound_to 10752
  152.9947  135.5638  154.5767 H   0  0  0  0  0  0  0  0  0  0  0  0  # atno 10765 bound_to 10752
  140.3156  134.7480  157.4025 H   0  0  0  0  0  0  0  0  0  0  0  0  # atno 11005 bound_to 11000
  145.2830  141.0144  143.3706 LP  0  0  0  0  0  0  0  0  0  0  0  0  # atno 17320 bound_to 7965
  144.9135  139.4499  143.6575 LP  0  0  0  0  0  0  0  0  0  0  0  0  # atno 17321 bound_to 7965
  139.6114  144.7609  151.2943 LP  0  0  0  0  0  0  0  0  0  0  0  0  # atno 17342 bound_to 10162
  140.7326  143.6817  150.7995 LP  0  0  0  0  0  0  0  0  0  0  0  0  # atno 17343 bound_to 10162
  156.6500  130.4482  149.5722 LP  0  0  0  0  0  0  0  0  0  0  0  0  # atno 17370 bound_to 10713
  156.2144  130.6699  151.1304 LP  0  0  0  0  0  0  0  0  0  0  0  0  # atno 17371 bound_to 10713
  140.0986  134.5503  155.8374 LP  0  0  0  0  0  0  0  0  0  0  0  0  # atno 17394 bound_to 11000
  141.2098  133.6688  156.6467 LP  0  0  0  0  0  0  0  0  0  0  0  0  # atno 17395 bound_to 11000

$$$$
