AV-unprocessed.smi:1157|AV-procd|sdf|4907|dock1
  -GOLD-   22720 3483D 1   1.00000     0.00000
 Structure written by MMmdl.
 55 57  0  0  0  0  0  0  0  0  2 V2000
  144.1208  136.6552  152.9877 C   0  0  0  0  0  0  0  0  0  0  0  0
  145.5192  136.6105  152.3217 C   0  0  0  0  0  0  0  0  0  0  0  0
  145.3150  135.9383  150.9409 C   0  0  0  0  0  0  0  0  0  0  0  0
  146.0777  138.0524  152.1245 C   0  0  0  0  0  0  0  0  0  0  0  0
  147.3820  138.2639  152.7519 N   0  0  0  0  0  0  0  0  0  0  0  0
  147.6567  139.1844  153.6873 C   0  0  0  0  0  0  0  0  0  0  0  0
  146.8241  139.9813  154.1191 O   0  0  0  0  0  0  0  0  0  0  0  0
  148.9477  139.1304  154.0566 N   0  0  0  0  0  0  0  0  0  0  0  0
  149.6296  139.9316  155.0120 C   0  0  0  0  0  0  0  0  0  0  0  0
  150.9441  139.6830  155.4712 C   0  0  0  0  0  0  0  0  0  0  0  0
  151.5173  140.5641  156.4081 C   0  0  0  0  0  0  0  0  0  0  0  0
  150.7689  141.6782  156.8564 C   0  0  0  0  0  0  0  0  0  0  0  0
  151.3047  142.5794  157.7974 N   0  0  0  0  0  0  0  0  0  0  0  0
  151.5122  143.9846  157.4830 C   0  0  0  0  0  0  0  0  0  0  0  0
  152.2289  144.5521  158.7072 C   0  0  0  0  0  0  0  0  0  0  0  0
  153.0598  143.3683  159.2026 C   0  0  0  0  0  0  0  0  0  0  0  0
  152.2112  142.1412  158.8500 C   0  0  0  0  0  0  0  0  0  0  0  0
  149.5128  141.9176  156.4100 N   0  0  0  0  0  0  0  0  0  0  0  0
  148.9685  141.0714  155.5111 C   0  0  0  0  0  0  0  0  0  0  0  0
  146.4480  135.7732  153.1644 N   0  3  0  0  0  0  0  0  0  0  0  0
  146.4688  136.0900  154.6208 C   0  0  0  0  0  0  0  0  0  0  0  0
  147.5822  135.3015  155.3308 C   0  0  0  0  0  0  0  0  0  0  0  0
  147.3941  133.9095  155.1208 O   0  0  0  0  0  0  0  0  0  0  0  0
  147.4619  133.5734  153.7425 C   0  0  0  0  0  0  0  0  0  0  0  0
  146.3419  134.2980  152.9776 C   0  0  0  0  0  0  0  0  0  0  0  0
  143.3644  137.0616  152.3157 H   0  0  0  0  0  0  0  0  0  0  0  0
  144.1044  137.2858  153.8765 H   0  0  0  0  0  0  0  0  0  0  0  0
  143.7851  135.6584  153.2762 H   0  0  0  0  0  0  0  0  0  0  0  0
  144.5010  136.4022  150.3825 H   0  0  0  0  0  0  0  0  0  0  0  0
  145.0673  134.8813  151.0456 H   0  0  0  0  0  0  0  0  0  0  0  0
  146.1976  136.0164  150.3064 H   0  0  0  0  0  0  0  0  0  0  0  0
  146.1353  138.3100  151.0668 H   0  0  0  0  0  0  0  0  0  0  0  0
  145.4048  138.7840  152.5705 H   0  0  0  0  0  0  0  0  0  0  0  0
  148.1313  137.6566  152.4535 H   0  0  0  0  0  0  0  0  0  0  0  0
  149.5268  138.4736  153.5543 H   0  0  0  0  0  0  0  0  0  0  0  0
  151.5281  138.8473  155.1188 H   0  0  0  0  0  0  0  0  0  0  0  0
  152.5166  140.3717  156.7691 H   0  0  0  0  0  0  0  0  0  0  0  0
  152.1399  144.0705  156.5949 H   0  0  0  0  0  0  0  0  0  0  0  0
  150.5696  144.4990  157.2927 H   0  0  0  0  0  0  0  0  0  0  0  0
  152.8313  145.4313  158.4770 H   0  0  0  0  0  0  0  0  0  0  0  0
  151.4977  144.8318  159.4671 H   0  0  0  0  0  0  0  0  0  0  0  0
  154.0011  143.3305  158.6530 H   0  0  0  0  0  0  0  0  0  0  0  0
  153.2958  143.4278  160.2656 H   0  0  0  0  0  0  0  0  0  0  0  0
  151.6228  141.8175  159.7091 H   0  0  0  0  0  0  0  0  0  0  0  0
  152.8424  141.3107  158.5322 H   0  0  0  0  0  0  0  0  0  0  0  0
  147.9674  141.3124  155.1837 H   0  0  0  0  0  0  0  0  0  0  0  0
  146.6488  137.1481  154.7992 H   0  0  0  0  0  0  0  0  0  0  0  0
  145.5086  135.8447  155.0750 H   0  0  0  0  0  0  0  0  0  0  0  0
  148.5665  135.6075  154.9726 H   0  0  0  0  0  0  0  0  0  0  0  0
  147.5584  135.5018  156.4021 H   0  0  0  0  0  0  0  0  0  0  0  0
  148.4419  133.8317  153.3379 H   0  0  0  0  0  0  0  0  0  0  0  0
  147.3496  132.4941  153.6380 H   0  0  0  0  0  0  0  0  0  0  0  0
  145.3760  133.9392  153.3334 H   0  0  0  0  0  0  0  0  0  0  0  0
  146.4224  134.0187  151.9290 H   0  0  0  0  0  0  0  0  0  0  0  0
  147.3718  136.0118  152.8322 H   0  0  0  0  0  0  0  0  0  0  0  0
  1  2  1  0  0  0  0
  1 26  1  0  0  0  0
  1 27  1  0  0  0  0
  1 28  1  0  0  0  0
  2  3  1  0  0  0  0
  2  4  1  0  0  0  0
  2 20  1  0  0  0  0
  3 29  1  0  0  0  0
  3 30  1  0  0  0  0
  3 31  1  0  0  0  0
  4  5  1  0  0  0  0
  4 32  1  0  0  0  0
  4 33  1  0  0  0  0
  5  6  1  0  0  0  0
  5 34  1  0  0  0  0
  6  7  2  0  0  0  0
  6  8  1  0  0  0  0
  8  9  1  0  0  0  0
  8 35  1  0  0  0  0
  9 19  1  0  0  0  0
  9 10  2  0  0  0  0
 10 11  1  0  0  0  0
 10 36  1  0  0  0  0
 11 12  2  0  0  0  0
 11 37  1  0  0  0  0
 12 13  1  0  0  0  0
 12 18  1  0  0  0  0
 13 17  1  0  0  0  0
 13 14  1  0  0  0  0
 14 15  1  0  0  0  0
 14 38  1  0  0  0  0
 14 39  1  0  0  0  0
 15 16  1  0  0  0  0
 15 40  1  0  0  0  0
 15 41  1  0  0  0  0
 16 17  1  0  0  0  0
 16 42  1  0  0  0  0
 16 43  1  0  0  0  0
 17 44  1  0  0  0  0
 17 45  1  0  0  0  0
 18 19  2  0  0  0  0
 19 46  1  0  0  0  0
 20 25  1  0  0  0  0
 20 21  1  0  0  0  0
 20 55  1  0  0  0  0
 21 22  1  0  0  0  0
 21 47  1  0  0  0  0
 21 48  1  0  0  0  0
 22 23  1  0  0  0  0
 22 49  1  0  0  0  0
 22 50  1  0  0  0  0
 23 24  1  0  0  0  0
 24 25  1  0  0  0  0
 24 51  1  0  0  0  0
 24 52  1  0  0  0  0
 25 53  1  0  0  0  0
 25 54  1  0  0  0  0
M  CHG  1  20   1
M  END
> <s_m_source_file>
AV-unprocessed.smi

> <i_m_source_file_index>
1157

> <i_lp_mmshare_version>
43012

> <i_f3d_flags>
0

> <s_epik_input>
W0NIMl0xW0NIMl1PW0NIMl1bQ0gyXU4xQyhbQ0gzXSkoW0NIM10pW0NIMl1bTkhdQyg9TylbTkhdYzJbY0hdW2NIXWMobltjSF0yKU4zW0NIMl1bQ0gyXVtDSDJdW0NIMl0z

> <s_epik_cmdline>
J2VwaWtfcHl0aG9uJywgJy1waCcsICc3LjAnLCAnLXRuJywgJzgnLCAnLW1hJywgJzIwMCcsICctbWV0YWxfYmluZGluZycsICctaW1hZScsICc8aW5maWxlLm1hZT4nLCAnLW9tYWUnLCAnPG91dGZpbGUubWFlPic=

> <r_lp_tautomer_probability>
1

> <r_epik_Ionization_Penalty>
0.687101

> <r_epik_Ionization_Penalty_Charging>
0.602531

> <r_epik_Ionization_Penalty_Neutral>
0.0845707

> <r_epik_State_Penalty>
0.681137

> <r_epik_Charging_Adjusted_Penalty>
1.28367

> <i_epik_Tot_Q>
1

> <i_epik_Tot_abs_Q>
1

> <r_epik_Metal_State_Penalty>
0.680046

> <b_epik_Metal_Only>
0

> <s_lp_Force_Field>
OPLS_2005

> <r_lp_Energy>
50.3969

> <b_lp_Chiralities_Consistent>
1

> <s_lp_Variant>
AV-unprocessed.smi:1157-2

> <Gold.Version>
5.8.1

> <Gold.Id.Protein>
6NUR|6NUR_protein|mol2

> <Gold.PLP.Fitness>
51.2674

> <Gold.PLP.PLP>
-46.8443

> <Gold.PLP.part.hbond>
-3.9738

> <Gold.PLP.part.metal>
0.0000

> <Gold.PLP.part.buried>
-2.8801

> <Gold.PLP.part.nonpolar>
-43.5246

> <Gold.PLP.part.repulsive>
1.8456

> <Gold.PLP.ligand.clash>
0.0000

> <Gold.PLP.ligand.torsion>
2.4702

> <Gold.PLP.Chemscore.Hbond>
3.0000

> <Gold.PLP.Chemscore.CHOScore>
0.0000

> <Gold.PLP.Chemscore.Metal>
0.0000

> <Gold.Chemscore.Hbonds>
donor molecule, donor type, donor heavy atom, donor atom, acceptor molecule, acceptor atom, score
      L1  H     5    34       P1  7948  1.00
      L1  H    20    55       P1  7948  2.00

> <Gold.PLP.Chemscore.Internal.Correction>
0.3634

> <Gold.Rescore>
     Score         DG    S(hbond)    S(metal)    S(lipo)     H(rot)  DE(clash)    DE(int)     intcor
     16.86     -21.18       1.97        0.00     109.05       1.42       0.13       4.19       ----

> <Gold.Chemscore.Fitness>
16.8632

> <Gold.Chemscore.DG>
-21.1847

> <Gold.Chemscore.ZeroCoef>
-5.4800

> <Gold.Chemscore.Hbond>
1.9736

> <Gold.Chemscore.Metal>
0.0000

> <Gold.Chemscore.Lipo>
109.0504

> <Gold.Chemscore.Internal_Hbond>
0.0000

> <Gold.Chemscore.DEClash>
0.1300

> <Gold.Chemscore.DEInternal>
4.1914

> <Gold.Chemscore.Rot>
1.4243

> <Gold.Chemscore.Internal.Correction>
   9.000000E+99

> <Gold.Chemscore.Hbonds>
donor molecule, donor type, donor heavy atom, donor atom, acceptor molecule, acceptor atom, score
      L1  H     5    34       P1  7948  1.00
      L1  H    20    55       P1  7948  1.00

> <Gold.Chemscore.Hbond.Weighted>
-6.5920

> <Gold.Chemscore.Metal.Weighted>
-0.0000

> <Gold.Chemscore.Lipo.Weighted>
-12.7589

> <Gold.Chemscore.Internal_Hbond.Weighted>
0.0000

> <Gold.Chemscore.DEClash.Weighted>
0.1300

> <Gold.Chemscore.DEInternal.Weighted>
4.1914

> <Gold.Chemscore.Rot.Weighted>
3.6462

> <Gold.Chemscore.Internal.Correction.Weighted>
   9.000000E+99

> <Gold.Protein.RotatedTorsions>
[ 6907 6896 6895 6894 ] final    6.16 input  -60.11 | X-H torsion
[ 7974 7965 7964 7962 ] final  107.27 input  175.53 | X-H torsion
[ 8008 7997 7996 7995 ] final  143.28 input   59.86 | X-H torsion
[ 10167 10162 10161 10158 ] final   48.42 input  -65.29 | X-H torsion
[ 10718 10713 10712 10709 ] final  -34.87 input   66.30 | X-H torsion
[ 10763 10752 10751 10750 ] final -145.84 input  -60.55 | X-H torsion
[ 11005 11000 10999 10996 ] final   81.99 input  -57.11 | X-H torsion

> <Gold.Protein.ActiveResidues>
 VAL166  LYS551  ARG553  GLY616  TRP617  ASP618  TYR619  PRO620  LYS621  CYS622 
 ASP623  PHE694  ASN695  SER759  ASP760  ASP761  ALA762  ILE779  LEU786  VAL792 
 PHE793  MET794  SER795  GLU796  ALA797  LYS798  CYS799  TRP800  GLU811  SER814 

> <Gold.Protein.RotatedAtoms>
  151.6692  135.0978  160.0194 H   0  0  0  0  0  0  0  0  0  0  0  0  # atno 6907 bound_to 6896
  152.3901  133.6663  159.6239 H   0  0  0  0  0  0  0  0  0  0  0  0  # atno 6908 bound_to 6896
  150.7818  133.8885  159.3347 H   0  0  0  0  0  0  0  0  0  0  0  0  # atno 6909 bound_to 6896
  145.2958  139.2585  143.3840 H   0  0  0  0  0  0  0  0  0  0  0  0  # atno 7974 bound_to 7965
  156.2933  140.2266  156.4864 H   0  0  0  0  0  0  0  0  0  0  0  0  # atno 8008 bound_to 7997
  154.7808  140.0460  157.1147 H   0  0  0  0  0  0  0  0  0  0  0  0  # atno 8009 bound_to 7997
  154.9761  140.3072  155.4970 H   0  0  0  0  0  0  0  0  0  0  0  0  # atno 8010 bound_to 7997
  140.2934  144.3019  150.6235 H   0  0  0  0  0  0  0  0  0  0  0  0  # atno 10167 bound_to 10162
  156.3454  130.4300  149.7751 H   0  0  0  0  0  0  0  0  0  0  0  0  # atno 10718 bound_to 10713
  154.8364  135.3402  154.6568 H   0  0  0  0  0  0  0  0  0  0  0  0  # atno 10763 bound_to 10752
  153.7182  135.6960  153.5024 H   0  0  0  0  0  0  0  0  0  0  0  0  # atno 10764 bound_to 10752
  153.2401  135.4387  155.0642 H   0  0  0  0  0  0  0  0  0  0  0  0  # atno 10765 bound_to 10752
  139.9079  134.8038  156.2115 H   0  0  0  0  0  0  0  0  0  0  0  0  # atno 11005 bound_to 11000
  146.3169  140.3460  142.8652 LP  0  0  0  0  0  0  0  0  0  0  0  0  # atno 17320 bound_to 7965
  144.9135  140.7785  143.5793 LP  0  0  0  0  0  0  0  0  0  0  0  0  # atno 17321 bound_to 7965
  140.5713  143.2180  151.7595 LP  0  0  0  0  0  0  0  0  0  0  0  0  # atno 17342 bound_to 10162
  139.4932  144.4213  151.9974 LP  0  0  0  0  0  0  0  0  0  0  0  0  # atno 17343 bound_to 10162
  156.4971  130.8112  151.3118 LP  0  0  0  0  0  0  0  0  0  0  0  0  # atno 17370 bound_to 10713
  157.7453  130.9956  150.2751 LP  0  0  0  0  0  0  0  0  0  0  0  0  # atno 17371 bound_to 10713
  141.0462  133.6912  156.1688 LP  0  0  0  0  0  0  0  0  0  0  0  0  # atno 17394 bound_to 11000
  140.6880  134.4697  157.5589 LP  0  0  0  0  0  0  0  0  0  0  0  0  # atno 17395 bound_to 11000

$$$$
