AV-unprocessed.smi:283|AV-procd|sdf|2126|dock5
  -GOLD-   2262021433D 1   1.00000     0.00000
 Structure written by MMmdl.
 48 51  0  0  0  0  0  0  0  0  1 V2000
  148.2926  136.4731  161.5943 C   0  0  0  0  0  0  0  0  0  0  0  0
  147.1105  136.3035  160.6228 C   0  0  1  0  0  0  0  0  0  0  0  0
  147.4429  135.3737  159.5440 N   0  0  0  0  0  0  0  0  0  0  0  0
  148.3744  135.6712  158.6109 C   0  0  0  0  0  0  0  0  0  0  0  0
  149.2202  134.7238  158.1273 N   0  0  0  0  0  0  0  0  0  0  0  0
  150.1339  135.0482  157.2072 C   0  0  0  0  0  0  0  0  0  0  0  0
  150.3699  136.2374  156.6478 N   0  0  0  0  0  0  0  0  0  0  0  0
  149.5258  137.1916  157.1360 C   0  0  0  0  0  0  0  0  0  0  0  0
  148.5088  136.9914  158.1096 C   0  0  0  0  0  0  0  0  0  0  0  0
  147.8502  138.1897  158.3537 N   0  0  0  0  0  0  0  0  0  0  0  0
  148.4470  139.0449  157.5668 C   0  0  0  0  0  0  0  0  0  0  0  0
  149.4682  138.5255  156.7989 N   0  0  0  0  0  0  0  0  0  0  0  0
  150.3462  139.2084  155.8008 C   0  0  2  0  0  0  0  0  0  0  0  0
  151.1635  140.1078  156.4936 O   0  0  0  0  0  0  0  0  0  0  0  0
  150.8888  141.4520  156.1029 C   0  0  2  0  0  0  0  0  0  0  0  0
  151.0283  142.3824  157.3178 C   0  0  0  0  0  0  0  0  0  0  0  0
  150.9631  143.7337  156.9147 O   0  0  0  0  0  0  0  0  0  0  0  0
  149.4853  141.3917  155.4959 C   0  0  1  0  0  0  0  0  0  0  0  0
  149.2152  142.4390  154.5842 O   0  0  0  0  0  0  0  0  0  0  0  0
  149.4764  140.0215  154.8343 C   0  0  1  0  0  0  0  0  0  0  0  0
  150.0356  140.0241  153.5333 O   0  0  0  0  0  0  0  0  0  0  0  0
  145.8585  135.8870  161.3934 C   0  0  0  0  0  0  0  0  0  0  0  0
  144.6934  136.6884  161.3360 C   0  0  0  0  0  0  0  0  0  0  0  0
  143.5293  136.3151  162.0339 C   0  0  0  0  0  0  0  0  0  0  0  0
  143.5137  135.1316  162.7930 C   0  0  0  0  0  0  0  0  0  0  0  0
  144.6616  134.3200  162.8475 C   0  0  0  0  0  0  0  0  0  0  0  0
  145.8300  134.6878  162.1504 C   0  0  0  0  0  0  0  0  0  0  0  0
  147.2027  133.6397  162.2402 Cl  0  0  0  0  0  0  0  0  0  0  0  0
  150.9182  138.4029  155.3378 H   0  0  0  0  0  0  0  0  0  0  0  0
  151.6196  141.7143  155.3354 H   0  0  0  0  0  0  0  0  0  0  0  0
  148.7382  141.4113  156.2907 H   0  0  0  0  0  0  0  0  0  0  0  0
  148.4693  139.6070  154.7669 H   0  0  0  0  0  0  0  0  0  0  0  0
  148.0584  137.2030  162.3696 H   0  0  0  0  0  0  0  0  0  0  0  0
  149.1916  136.8204  161.0856 H   0  0  0  0  0  0  0  0  0  0  0  0
  148.5353  135.5318  162.0884 H   0  0  0  0  0  0  0  0  0  0  0  0
  146.9014  137.2653  160.1565 H   0  0  0  0  0  0  0  0  0  0  0  0
  146.9950  134.4701  159.5959 H   0  0  0  0  0  0  0  0  0  0  0  0
  150.7660  134.2392  156.8722 H   0  0  0  0  0  0  0  0  0  0  0  0
  148.1528  140.0834  157.5274 H   0  0  0  0  0  0  0  0  0  0  0  0
  150.2554  142.1819  158.0602 H   0  0  0  0  0  0  0  0  0  0  0  0
  151.9908  142.2210  157.8035 H   0  0  0  0  0  0  0  0  0  0  0  0
  150.2414  143.8333  156.3121 H   0  0  0  0  0  0  0  0  0  0  0  0
  149.0000  143.2149  155.0799 H   0  0  0  0  0  0  0  0  0  0  0  0
  149.3517  139.8213  152.9133 H   0  0  0  0  0  0  0  0  0  0  0  0
  144.6803  137.5960  160.7511 H   0  0  0  0  0  0  0  0  0  0  0  0
  142.6471  136.9364  161.9843 H   0  0  0  0  0  0  0  0  0  0  0  0
  142.6211  134.8432  163.3284 H   0  0  0  0  0  0  0  0  0  0  0  0
  144.6436  133.4077  163.4255 H   0  0  0  0  0  0  0  0  0  0  0  0
  1  2  1  0  0  0  0
  1 33  1  0  0  0  0
  1 34  1  0  0  0  0
  1 35  1  0  0  0  0
  2  3  1  0  0  0  0
  2 22  1  0  0  0  0
  2 36  1  0  0  0  0
  3  4  1  0  0  0  0
  3 37  1  0  0  0  0
  4  9  1  0  0  0  0
  4  5  2  0  0  0  0
  5  6  1  0  0  0  0
  6  7  2  0  0  0  0
  6 38  1  0  0  0  0
  7  8  1  0  0  0  0
  8 12  1  0  0  0  0
  8  9  2  0  0  0  0
  9 10  1  0  0  0  0
 10 11  2  0  0  0  0
 11 12  1  0  0  0  0
 11 39  1  0  0  0  0
 12 13  1  0  0  0  0
 13 29  1  0  0  0  0
 13 20  1  0  0  0  0
 13 14  1  0  0  0  0
 14 15  1  0  0  0  0
 15 30  1  0  0  0  0
 15 16  1  0  0  0  0
 15 18  1  0  0  0  0
 16 17  1  0  0  0  0
 16 40  1  0  0  0  0
 16 41  1  0  0  0  0
 17 42  1  0  0  0  0
 18 31  1  0  0  0  0
 18 19  1  0  0  0  0
 18 20  1  0  0  0  0
 19 43  1  0  0  0  0
 20 32  1  0  0  0  0
 20 21  1  0  0  0  0
 21 44  1  0  0  0  0
 22 27  1  0  0  0  0
 22 23  2  0  0  0  0
 23 24  1  0  0  0  0
 23 45  1  0  0  0  0
 24 25  2  0  0  0  0
 24 46  1  0  0  0  0
 25 26  1  0  0  0  0
 25 47  1  0  0  0  0
 26 27  2  0  0  0  0
 26 48  1  0  0  0  0
 27 28  1  0  0  0  0
M  END
> <s_m_source_file>
AV-unprocessed.smi

> <i_m_source_file_index>
283

> <i_lp_mmshare_version>
43012

> <i_f3d_flags>
0

> <s_epik_input>
Q2xjMVtjSF1bY0hdW2NIXVtjSF1jMVtDQEhdKFtDSDNdKVtOSF1jKG5bY0hdbjIpYyhjMjMpbltjSF1uM1tDQEBIXTRPW0NASF0oW0NIMl1bT0hdKVtDQEBIXShbT0hdKVtDQEhdNFtPSF0=

> <s_epik_cmdline>
J2VwaWtfcHl0aG9uJywgJy1waCcsICc3LjAnLCAnLXRuJywgJzgnLCAnLW1hJywgJzIwMCcsICctbWV0YWxfYmluZGluZycsICctaW1hZScsICc8aW5maWxlLm1hZT4nLCAnLW9tYWUnLCAnPG91dGZpbGUubWFlPic=

> <r_lp_tautomer_probability>
1

> <r_epik_Ionization_Penalty>
0.000266407

> <r_epik_Ionization_Penalty_Charging>
0

> <r_epik_Ionization_Penalty_Neutral>
0.000266407

> <r_epik_State_Penalty>
-0

> <r_epik_Charging_Adjusted_Penalty>
0

> <i_epik_Tot_Q>
0

> <i_epik_Tot_abs_Q>
0

> <r_epik_Metal_State_Penalty>
-0

> <b_epik_Metal_Only>
0

> <s_epik_Chemistry_Notes>
This compound contains an acetal/aminal-like group ( X-CH(R)-Y where X, Y are N, S, or O) that may be acid/base labile, releasing an aldehyde.

> <s_lp_Force_Field>
OPLS_2005

> <r_lp_Energy>
43.9323

> <b_lp_Chiralities_Consistent>
1

> <s_lp_Variant>
AV-unprocessed.smi:283-2

> <Gold.Version>
5.8.1

> <Gold.Id.Protein>
6NUR|6NUR_protein|mol2

> <Gold.PLP.Fitness>
49.3353

> <Gold.PLP.PLP>
-39.3130

> <Gold.PLP.part.hbond>
-5.6408

> <Gold.PLP.part.metal>
0.0000

> <Gold.PLP.part.buried>
-3.5718

> <Gold.PLP.part.nonpolar>
-28.3715

> <Gold.PLP.part.repulsive>
0.0457

> <Gold.PLP.ligand.clash>
0.0000

> <Gold.PLP.ligand.torsion>
0.6053

> <Gold.PLP.Chemscore.Hbond>
3.7155

> <Gold.PLP.Chemscore.CHOScore>
0.0000

> <Gold.PLP.Chemscore.Metal>
0.0000

> <Gold.Chemscore.Hbonds>
donor molecule, donor type, donor heavy atom, donor atom, acceptor molecule, acceptor atom, score
      L1  H    17    42       P1  8028  1.00
      L1  H    19    43       P1  8028  1.00
      L1  H    21    44       P1  7957  0.42
      P1  H  6896  6908       L1     5  0.55
      P1  H  7989  7998       L1    21  0.69
      P1  H  8011  8017       L1    19  0.04

> <Gold.PLP.Chemscore.Internal.Correction>
0.0864

> <Gold.Rescore>
     Score         DG    S(hbond)    S(metal)    S(lipo)     H(rot)  DE(clash)    DE(int)     intcor
     14.61     -16.10       3.42        0.00      82.73       4.10       0.18       1.31       ----

> <Gold.Chemscore.Fitness>
14.6120

> <Gold.Chemscore.DG>
-16.0990

> <Gold.Chemscore.ZeroCoef>
-5.4800

> <Gold.Chemscore.Hbond>
3.4215

> <Gold.Chemscore.Metal>
0.0000

> <Gold.Chemscore.Lipo>
82.7281

> <Gold.Chemscore.Internal_Hbond>
0.0000

> <Gold.Chemscore.DEClash>
0.1812

> <Gold.Chemscore.DEInternal>
1.3059

> <Gold.Chemscore.Rot>
4.0968

> <Gold.Chemscore.Internal.Correction>
   9.000000E+99

> <Gold.Chemscore.Hbonds>
donor molecule, donor type, donor heavy atom, donor atom, acceptor molecule, acceptor atom, score
      L1  H    17    42       P1  8028  0.95
      L1  H    19    43       P1  8028  0.99
      L1  H    21    44       P1  7957  0.42
      P1  H  6896  6908       L1     5  0.02
      P1  H  7989  7998       L1    21  0.58
      P1  H  8011  8017       L1    19  0.05

> <Gold.Chemscore.Hbond.Weighted>
-11.4277

> <Gold.Chemscore.Metal.Weighted>
-0.0000

> <Gold.Chemscore.Lipo.Weighted>
-9.6792

> <Gold.Chemscore.Internal_Hbond.Weighted>
0.0000

> <Gold.Chemscore.DEClash.Weighted>
0.1812

> <Gold.Chemscore.DEInternal.Weighted>
1.3059

> <Gold.Chemscore.Rot.Weighted>
10.4879

> <Gold.Chemscore.Internal.Correction.Weighted>
   9.000000E+99

> <Gold.Protein.RotatedTorsions>
[ 6907 6896 6895 6894 ] final  157.07 input  -60.11 | X-H torsion
[ 7974 7965 7964 7962 ] final  -81.13 input  175.53 | X-H torsion
[ 8008 7997 7996 7995 ] final  111.78 input   59.86 | X-H torsion
[ 10167 10162 10161 10158 ] final  -77.76 input  -65.29 | X-H torsion
[ 10718 10713 10712 10709 ] final  -87.28 input   66.30 | X-H torsion
[ 10763 10752 10751 10750 ] final  -66.34 input  -60.55 | X-H torsion
[ 11005 11000 10999 10996 ] final  110.47 input  -57.11 | X-H torsion

> <Gold.Protein.ActiveResidues>
 VAL166  LYS551  ARG553  GLY616  TRP617  ASP618  TYR619  PRO620  LYS621  CYS622 
 ASP623  PHE694  ASN695  SER759  ASP760  ASP761  ALA762  ILE779  LEU786  VAL792 
 PHE793  MET794  SER795  GLU796  ALA797  LYS798  CYS799  TRP800  GLU811  SER814 

> <Gold.Protein.RotatedAtoms>
  152.0205  133.3897  159.4255 H   0  0  0  0  0  0  0  0  0  0  0  0  # atno 6907 bound_to 6896
  150.6891  134.3631  159.4968 H   0  0  0  0  0  0  0  0  0  0  0  0  # atno 6908 bound_to 6896
  152.1404  134.9066  160.0604 H   0  0  0  0  0  0  0  0  0  0  0  0  # atno 6909 bound_to 6896
  145.5507  140.9497  143.1500 H   0  0  0  0  0  0  0  0  0  0  0  0  # atno 7974 bound_to 7965
  156.2147  140.3012  155.9812 H   0  0  0  0  0  0  0  0  0  0  0  0  # atno 8008 bound_to 7997
  155.2635  140.0430  157.3017 H   0  0  0  0  0  0  0  0  0  0  0  0  # atno 8009 bound_to 7997
  154.5750  140.2359  155.8144 H   0  0  0  0  0  0  0  0  0  0  0  0  # atno 8010 bound_to 7997
  140.4741  143.2419  151.8159 H   0  0  0  0  0  0  0  0  0  0  0  0  # atno 10167 bound_to 10162
  155.9986  130.4794  150.4843 H   0  0  0  0  0  0  0  0  0  0  0  0  # atno 10718 bound_to 10713
  154.3584  135.6121  153.5678 H   0  0  0  0  0  0  0  0  0  0  0  0  # atno 10763 bound_to 10752
  152.9794  135.5809  154.4662 H   0  0  0  0  0  0  0  0  0  0  0  0  # atno 10764 bound_to 10752
  154.4395  135.2850  155.1834 H   0  0  0  0  0  0  0  0  0  0  0  0  # atno 10765 bound_to 10752
  139.8882  134.9484  156.6283 H   0  0  0  0  0  0  0  0  0  0  0  0  # atno 11005 bound_to 11000
  144.7530  139.7144  143.7265 LP  0  0  0  0  0  0  0  0  0  0  0  0  # atno 17320 bound_to 7965
  146.1918  139.5163  142.9800 LP  0  0  0  0  0  0  0  0  0  0  0  0  # atno 17321 bound_to 7965
  139.4823  144.4855  151.9253 LP  0  0  0  0  0  0  0  0  0  0  0  0  # atno 17342 bound_to 10162
  140.3940  144.2579  150.5897 LP  0  0  0  0  0  0  0  0  0  0  0  0  # atno 17343 bound_to 10162
  157.2845  131.0613  151.2176 LP  0  0  0  0  0  0  0  0  0  0  0  0  # atno 17370 bound_to 10713
  157.3210  130.6937  149.6269 LP  0  0  0  0  0  0  0  0  0  0  0  0  # atno 17371 bound_to 10713
  140.7686  133.8757  155.8474 LP  0  0  0  0  0  0  0  0  0  0  0  0  # atno 17394 bound_to 11000
  140.9861  134.1340  157.4450 LP  0  0  0  0  0  0  0  0  0  0  0  0  # atno 17395 bound_to 11000

$$$$
