AV-unprocessed.smi:1071|AV-procd|sdf|4679|dock3
  -GOLD-   22720 3193D 1   1.00000     0.00000
 Structure written by MMmdl.
 47 48  0  0  0  0  0  0  0  0  2 V2000
  152.6936  138.3679  155.1489 C   0  0  0  0  0  0  0  0  0  0  0  0
  151.7768  139.4496  155.2063 O   0  0  0  0  0  0  0  0  0  0  0  0
  151.1888  139.6406  156.4855 C   0  0  0  0  0  0  0  0  0  0  0  0
  150.1253  140.7481  156.4675 C   0  0  0  0  0  0  0  0  0  0  0  0
  149.7885  141.0321  155.1132 O   0  0  0  0  0  0  0  0  0  0  0  0
  148.8546  140.2337  154.4850 C   0  0  0  0  0  0  0  0  0  0  0  0
  148.2371  140.7141  153.3130 C   0  0  0  0  0  0  0  0  0  0  0  0
  147.2841  139.9057  152.6643 C   0  0  0  0  0  0  0  0  0  0  0  0
  146.9844  138.6333  153.2065 C   0  0  0  0  0  0  0  0  0  0  0  0
  146.0290  137.7354  152.6586 N   0  0  0  0  0  0  0  0  0  0  0  0
  145.3552  136.7429  153.2735 C   0  0  0  0  0  0  0  0  0  0  0  0
  145.4196  136.5476  154.4875 O   0  0  0  0  0  0  0  0  0  0  0  0
  144.5270  136.0345  152.4572 N   0  0  0  0  0  0  0  0  0  0  0  0
  144.4860  136.1534  150.9834 C   0  0  0  0  0  0  0  0  0  0  0  0
  144.6508  134.7862  150.3032 C   0  0  0  0  0  0  0  0  0  0  0  0
  143.6462  133.8220  150.8008 N   0  3  1  0  0  0  0  0  0  0  0  0
  143.7098  132.5230  150.0973 C   0  0  0  0  0  0  0  0  0  0  0  0
  143.7046  133.6732  152.2722 C   0  0  0  0  0  0  0  0  0  0  0  0
  143.5909  135.0274  153.0044 C   0  0  2  0  0  0  0  0  0  0  0  0
  142.1550  135.5792  153.0468 C   0  0  0  0  0  0  0  0  0  0  0  0
  147.6459  138.2529  154.3923 C   0  0  0  0  0  0  0  0  0  0  0  0
  148.5605  139.0223  155.0185 N   0  0  0  0  0  0  0  0  0  0  0  0
  153.1279  138.3138  154.1508 H   0  0  0  0  0  0  0  0  0  0  0  0
  152.2090  137.4127  155.3499 H   0  0  0  0  0  0  0  0  0  0  0  0
  153.5090  138.5036  155.8606 H   0  0  0  0  0  0  0  0  0  0  0  0
  150.7811  138.7066  156.8755 H   0  0  0  0  0  0  0  0  0  0  0  0
  151.9901  139.9349  157.1639 H   0  0  0  0  0  0  0  0  0  0  0  0
  149.2393  140.4104  157.0078 H   0  0  0  0  0  0  0  0  0  0  0  0
  150.5016  141.6459  156.9588 H   0  0  0  0  0  0  0  0  0  0  0  0
  148.4865  141.6888  152.9205 H   0  0  0  0  0  0  0  0  0  0  0  0
  146.7954  140.2814  151.7787 H   0  0  0  0  0  0  0  0  0  0  0  0
  145.7974  137.8917  151.6886 H   0  0  0  0  0  0  0  0  0  0  0  0
  143.5321  136.5973  150.6968 H   0  0  0  0  0  0  0  0  0  0  0  0
  145.2488  136.8131  150.5700 H   0  0  0  0  0  0  0  0  0  0  0  0
  144.5449  134.9000  149.2237 H   0  0  0  0  0  0  0  0  0  0  0  0
  145.6537  134.3964  150.4859 H   0  0  0  0  0  0  0  0  0  0  0  0
  144.6653  132.0276  150.2751 H   0  0  0  0  0  0  0  0  0  0  0  0
  143.5908  132.6608  149.0221 H   0  0  0  0  0  0  0  0  0  0  0  0
  142.9130  131.8608  150.4375 H   0  0  0  0  0  0  0  0  0  0  0  0
  142.9164  132.9978  152.6083 H   0  0  0  0  0  0  0  0  0  0  0  0
  144.6520  133.1999  152.5361 H   0  0  0  0  0  0  0  0  0  0  0  0
  143.8386  134.7993  154.0418 H   0  0  0  0  0  0  0  0  0  0  0  0
  141.4804  134.8728  153.5308 H   0  0  0  0  0  0  0  0  0  0  0  0
  141.7640  135.7738  152.0481 H   0  0  0  0  0  0  0  0  0  0  0  0
  142.1097  136.5119  153.6099 H   0  0  0  0  0  0  0  0  0  0  0  0
  147.4394  137.2978  154.8529 H   0  0  0  0  0  0  0  0  0  0  0  0
  142.7414  134.2191  150.5910 H   0  0  0  0  0  0  0  0  0  0  0  0
  1  2  1  0  0  0  0
  1 23  1  0  0  0  0
  1 24  1  0  0  0  0
  1 25  1  0  0  0  0
  2  3  1  0  0  0  0
  3  4  1  0  0  0  0
  3 26  1  0  0  0  0
  3 27  1  0  0  0  0
  4  5  1  0  0  0  0
  4 28  1  0  0  0  0
  4 29  1  0  0  0  0
  5  6  1  0  0  0  0
  6 22  1  0  0  0  0
  6  7  2  0  0  0  0
  7  8  1  0  0  0  0
  7 30  1  0  0  0  0
  8  9  2  0  0  0  0
  8 31  1  0  0  0  0
  9 10  1  0  0  0  0
  9 21  1  0  0  0  0
 10 11  1  0  0  0  0
 10 32  1  0  0  0  0
 11 12  2  0  0  0  0
 11 13  1  0  0  0  0
 13 19  1  0  0  0  0
 13 14  1  0  0  0  0
 14 15  1  0  0  0  0
 14 33  1  0  0  0  0
 14 34  1  0  0  0  0
 15 16  1  0  0  0  0
 15 35  1  0  0  0  0
 15 36  1  0  0  0  0
 16 17  1  0  0  0  0
 16 18  1  0  0  0  0
 16 47  1  0  0  0  0
 17 37  1  0  0  0  0
 17 38  1  0  0  0  0
 17 39  1  0  0  0  0
 18 19  1  0  0  0  0
 18 40  1  0  0  0  0
 18 41  1  0  0  0  0
 19 20  1  0  0  0  0
 19 42  1  0  0  0  0
 20 43  1  0  0  0  0
 20 44  1  0  0  0  0
 20 45  1  0  0  0  0
 21 22  2  0  0  0  0
 21 46  1  0  0  0  0
M  CHG  1  16   1
M  END
> <s_m_source_file>
AV-unprocessed.smi

> <i_m_source_file_index>
1071

> <i_lp_mmshare_version>
43012

> <i_f3d_flags>
0

> <s_epik_input>
W0NIM11PW0NIMl1bQ0gyXU9jMVtjSF1bY0hdYyhbY0hdbjEpW05IXUMoPU8pTjJbQ0gyXVtDSDJdTihbQ0gzXSlbQ0gyXVtDQEhdMltDSDNd

> <s_epik_cmdline>
J2VwaWtfcHl0aG9uJywgJy1waCcsICc3LjAnLCAnLXRuJywgJzgnLCAnLW1hJywgJzIwMCcsICctbWV0YWxfYmluZGluZycsICctaW1hZScsICc8aW5maWxlLm1hZT4nLCAnLW9tYWUnLCAnPG91dGZpbGUubWFlPic=

> <r_lp_tautomer_probability>
1

> <r_epik_Ionization_Penalty>
0.25455

> <r_epik_Ionization_Penalty_Charging>
0.254506

> <r_epik_Ionization_Penalty_Neutral>
4.43365e-05

> <r_epik_State_Penalty>
0.245983

> <r_epik_Charging_Adjusted_Penalty>
0.500488

> <i_epik_Tot_Q>
1

> <i_epik_Tot_abs_Q>
1

> <r_epik_Metal_State_Penalty>
0.245987

> <b_epik_Metal_Only>
0

> <s_lp_Force_Field>
OPLS_2005

> <r_lp_Energy>
58.5188

> <b_lp_Chiralities_Consistent>
1

> <s_lp_Variant>
AV-unprocessed.smi:1071-3

> <Gold.Version>
5.8.1

> <Gold.Id.Protein>
6NUR|6NUR_protein|mol2

> <Gold.PLP.Fitness>
39.5734

> <Gold.PLP.PLP>
-32.1771

> <Gold.PLP.part.hbond>
-2.1682

> <Gold.PLP.part.metal>
0.0000

> <Gold.PLP.part.buried>
1.4288

> <Gold.PLP.part.nonpolar>
-32.0063

> <Gold.PLP.part.repulsive>
0.3134

> <Gold.PLP.ligand.clash>
0.0000

> <Gold.PLP.ligand.torsion>
0.8248

> <Gold.PLP.Chemscore.Hbond>
3.0000

> <Gold.PLP.Chemscore.CHOScore>
0.0000

> <Gold.PLP.Chemscore.Metal>
0.0000

> <Gold.Chemscore.Hbonds>
donor molecule, donor type, donor heavy atom, donor atom, acceptor molecule, acceptor atom, score
      L1  H    16    47       P1 10186  2.00
      P1  H  7989  7998       L1     2  0.54

> <Gold.PLP.Chemscore.Internal.Correction>
0.0460

> <Gold.Rescore>
     Score         DG    S(hbond)    S(metal)    S(lipo)     H(rot)  DE(clash)    DE(int)     intcor
     11.56     -15.75       1.41        0.00      82.72       1.60       1.18       3.02       ----

> <Gold.Chemscore.Fitness>
11.5575

> <Gold.Chemscore.DG>
-15.7533

> <Gold.Chemscore.ZeroCoef>
-5.4800

> <Gold.Chemscore.Hbond>
1.4080

> <Gold.Chemscore.Metal>
0.0000

> <Gold.Chemscore.Lipo>
82.7183

> <Gold.Chemscore.Internal_Hbond>
0.0000

> <Gold.Chemscore.DEClash>
1.1766

> <Gold.Chemscore.DEInternal>
3.0192

> <Gold.Chemscore.Rot>
1.6045

> <Gold.Chemscore.Internal.Correction>
   9.000000E+99

> <Gold.Chemscore.Hbonds>
donor molecule, donor type, donor heavy atom, donor atom, acceptor molecule, acceptor atom, score
      L1  H    16    47       P1 10186  0.60
      P1  H  7989  7998       L1     2  0.50

> <Gold.Chemscore.Hbond.Weighted>
-4.7028

> <Gold.Chemscore.Metal.Weighted>
-0.0000

> <Gold.Chemscore.Lipo.Weighted>
-9.6780

> <Gold.Chemscore.Internal_Hbond.Weighted>
0.0000

> <Gold.Chemscore.DEClash.Weighted>
1.1766

> <Gold.Chemscore.DEInternal.Weighted>
3.0192

> <Gold.Chemscore.Rot.Weighted>
4.1075

> <Gold.Chemscore.Internal.Correction.Weighted>
   9.000000E+99

> <Gold.Protein.RotatedTorsions>
[ 6907 6896 6895 6894 ] final  101.23 input  -60.11 | X-H torsion
[ 7974 7965 7964 7962 ] final  158.56 input  175.53 | X-H torsion
[ 8008 7997 7996 7995 ] final  -52.73 input   59.86 | X-H torsion
[ 10167 10162 10161 10158 ] final  135.53 input  -65.29 | X-H torsion
[ 10718 10713 10712 10709 ] final  126.04 input   66.30 | X-H torsion
[ 10763 10752 10751 10750 ] final   37.43 input  -60.55 | X-H torsion
[ 11005 11000 10999 10996 ] final  160.39 input  -57.11 | X-H torsion

> <Gold.Protein.ActiveResidues>
 VAL166  LYS551  ARG553  GLY616  TRP617  ASP618  TYR619  PRO620  LYS621  CYS622 
 ASP623  PHE694  ASN695  SER759  ASP760  ASP761  ALA762  ILE779  LEU786  VAL792 
 PHE793  MET794  SER795  GLU796  ALA797  LYS798  CYS799  TRP800  GLU811  SER814 

> <Gold.Protein.RotatedAtoms>
  152.5354  134.0158  159.7958 H   0  0  0  0  0  0  0  0  0  0  0  0  # atno 6907 bound_to 6896
  151.0352  133.5747  159.2664 H   0  0  0  0  0  0  0  0  0  0  0  0  # atno 6908 bound_to 6896
  151.2736  135.0699  159.9197 H   0  0  0  0  0  0  0  0  0  0  0  0  # atno 6909 bound_to 6896
  144.7839  139.7495  143.6249 H   0  0  0  0  0  0  0  0  0  0  0  0  # atno 7974 bound_to 7965
  154.4114  140.1217  156.5039 H   0  0  0  0  0  0  0  0  0  0  0  0  # atno 8008 bound_to 7997
  155.6867  140.3495  155.4857 H   0  0  0  0  0  0  0  0  0  0  0  0  # atno 8009 bound_to 7997
  155.9504  140.1104  157.0971 H   0  0  0  0  0  0  0  0  0  0  0  0  # atno 8010 bound_to 7997
  139.5213  144.6512  151.5297 H   0  0  0  0  0  0  0  0  0  0  0  0  # atno 10167 bound_to 10162
  157.5453  131.1096  150.8792 H   0  0  0  0  0  0  0  0  0  0  0  0  # atno 10718 bound_to 10713
  153.0038  135.6278  154.2144 H   0  0  0  0  0  0  0  0  0  0  0  0  # atno 10763 bound_to 10752
  154.1887  135.2809  155.3030 H   0  0  0  0  0  0  0  0  0  0  0  0  # atno 10764 bound_to 10752
  154.5777  135.5657  153.7214 H   0  0  0  0  0  0  0  0  0  0  0  0  # atno 10765 bound_to 10752
  140.2054  134.8307  157.3064 H   0  0  0  0  0  0  0  0  0  0  0  0  # atno 11005 bound_to 11000
  146.2061  139.5387  142.9711 LP  0  0  0  0  0  0  0  0  0  0  0  0  # atno 17320 bound_to 7965
  145.5975  141.0360  143.2037 LP  0  0  0  0  0  0  0  0  0  0  0  0  # atno 17321 bound_to 7965
  140.6317  143.9062  150.6612 LP  0  0  0  0  0  0  0  0  0  0  0  0  # atno 17342 bound_to 10162
  140.2368  143.3693  152.1519 LP  0  0  0  0  0  0  0  0  0  0  0  0  # atno 17343 bound_to 10162
  156.9333  130.5357  149.5279 LP  0  0  0  0  0  0  0  0  0  0  0  0  # atno 17370 bound_to 10713
  156.0530  130.5596  150.9031 LP  0  0  0  0  0  0  0  0  0  0  0  0  # atno 17371 bound_to 10713
  140.2008  134.4257  155.7664 LP  0  0  0  0  0  0  0  0  0  0  0  0  # atno 17394 bound_to 11000
  141.2227  133.7071  156.8181 LP  0  0  0  0  0  0  0  0  0  0  0  0  # atno 17395 bound_to 11000

$$$$
