AV-unprocessed.smi:3113|AV-procd|sdf|11853|dock4
  -GOLD-   2272017233D 1   1.00000     0.00000
 Structure written by MMmdl.
 35 36  0  0  0  0  0  0  0  0  2 V2000
  152.8152  143.0879  162.2025 C   0  0  0  0  0  0  0  0  0  0  0  0
  153.1534  142.1603  161.1776 C   0  0  0  0  0  0  0  0  0  0  0  0
  152.7659  142.5623  159.9777 N   0  0  0  0  0  0  0  0  0  0  0  0
  152.1676  143.7528  160.1966 N   0  0  0  0  0  0  0  0  0  0  0  0
  151.6153  144.4939  159.0798 C   0  0  0  0  0  0  0  0  0  0  0  0
  151.9050  143.8002  157.7414 C   0  0  0  0  0  0  0  0  0  0  0  0
  150.7086  143.0971  157.2406 N   0  3  0  0  0  0  0  0  0  0  0  0
  151.0073  141.8639  156.4860 C   0  0  0  0  0  0  0  0  0  0  0  0
  149.8931  141.5506  155.4774 C   0  0  1  0  0  0  0  0  0  0  0  0
  150.0216  140.1280  154.8994 C   0  0  0  0  0  0  0  0  0  0  0  0
  148.8479  139.8200  153.9625 C   0  0  0  0  0  0  0  0  0  0  0  0
  147.5235  140.0853  154.6860 C   0  0  0  0  0  0  0  0  0  0  0  0
  147.5175  141.4977  155.2926 C   0  0  0  0  0  0  0  0  0  0  0  0
  148.6416  141.6639  156.1521 O   0  0  0  0  0  0  0  0  0  0  0  0
  152.1829  144.0958  161.5324 C   0  0  0  0  0  0  0  0  0  0  0  0
  153.0069  143.0229  163.2634 H   0  0  0  0  0  0  0  0  0  0  0  0
  153.6665  141.2141  161.2692 H   0  0  0  0  0  0  0  0  0  0  0  0
  150.5401  144.6022  159.2309 H   0  0  0  0  0  0  0  0  0  0  0  0
  152.0391  145.4989  159.0880 H   0  0  0  0  0  0  0  0  0  0  0  0
  152.2255  144.5360  157.0025 H   0  0  0  0  0  0  0  0  0  0  0  0
  152.7180  143.0819  157.8573 H   0  0  0  0  0  0  0  0  0  0  0  0
  150.1253  142.8536  158.0289 H   0  0  0  0  0  0  0  0  0  0  0  0
  151.9534  141.9990  155.9601 H   0  0  0  0  0  0  0  0  0  0  0  0
  151.1392  141.0302  157.1774 H   0  0  0  0  0  0  0  0  0  0  0  0
  149.9355  142.2764  154.6628 H   0  0  0  0  0  0  0  0  0  0  0  0
  150.9640  140.0207  154.3613 H   0  0  0  0  0  0  0  0  0  0  0  0
  150.0408  139.3997  155.7115 H   0  0  0  0  0  0  0  0  0  0  0  0
  148.9135  140.4482  153.0733 H   0  0  0  0  0  0  0  0  0  0  0  0
  148.8942  138.7860  153.6199 H   0  0  0  0  0  0  0  0  0  0  0  0
  146.6867  139.9665  153.9971 H   0  0  0  0  0  0  0  0  0  0  0  0
  147.3839  139.3483  155.4781 H   0  0  0  0  0  0  0  0  0  0  0  0
  147.5296  142.2582  154.5104 H   0  0  0  0  0  0  0  0  0  0  0  0
  146.6065  141.6523  155.8710 H   0  0  0  0  0  0  0  0  0  0  0  0
  151.7495  145.0177  161.8913 H   0  0  0  0  0  0  0  0  0  0  0  0
  150.1940  143.7249  156.6398 H   0  0  0  0  0  0  0  0  0  0  0  0
  1 15  2  0  0  0  0
  1  2  1  0  0  0  0
  1 16  1  0  0  0  0
  2  3  2  0  0  0  0
  2 17  1  0  0  0  0
  3  4  1  0  0  0  0
  4  5  1  0  0  0  0
  4 15  1  0  0  0  0
  5  6  1  0  0  0  0
  5 18  1  0  0  0  0
  5 19  1  0  0  0  0
  6  7  1  0  0  0  0
  6 20  1  0  0  0  0
  6 21  1  0  0  0  0
  7  8  1  0  0  0  0
  7 22  1  0  0  0  0
  7 35  1  0  0  0  0
  8  9  1  0  0  0  0
  8 23  1  0  0  0  0
  8 24  1  0  0  0  0
  9 14  1  0  0  0  0
  9 10  1  0  0  0  0
  9 25  1  0  0  0  0
 10 11  1  0  0  0  0
 10 26  1  0  0  0  0
 10 27  1  0  0  0  0
 11 12  1  0  0  0  0
 11 28  1  0  0  0  0
 11 29  1  0  0  0  0
 12 13  1  0  0  0  0
 12 30  1  0  0  0  0
 12 31  1  0  0  0  0
 13 14  1  0  0  0  0
 13 32  1  0  0  0  0
 13 33  1  0  0  0  0
 15 34  1  0  0  0  0
M  CHG  1   7   1
M  END
> <s_m_source_file>
AV-unprocessed.smi

> <i_m_source_file_index>
3113

> <i_lp_mmshare_version>
43012

> <i_f3d_flags>
0

> <s_epik_input>
W2NIXTFbY0hdW2NIXW5uMVtDSDJdW0NIMl1bTkhdW0NIMl1bQ0BASF0yW0NIMl1bQ0gyXVtDSDJdW0NIMl1PMg==

> <s_epik_cmdline>
J2VwaWtfcHl0aG9uJywgJy1waCcsICc3LjAnLCAnLXRuJywgJzgnLCAnLW1hJywgJzIwMCcsICctbWV0YWxfYmluZGluZycsICctaW1hZScsICc8aW5maWxlLm1hZT4nLCAnLW9tYWUnLCAnPG91dGZpbGUubWFlPic=

> <r_lp_tautomer_probability>
1

> <r_epik_Ionization_Penalty>
0.00849054

> <r_epik_Ionization_Penalty_Charging>
0.00848754

> <r_epik_Ionization_Penalty_Neutral>
3.00382e-06

> <r_epik_State_Penalty>
0.00639836

> <r_epik_Charging_Adjusted_Penalty>
0.0148859

> <i_epik_Tot_Q>
1

> <i_epik_Tot_abs_Q>
1

> <r_epik_Metal_State_Penalty>
0.00641155

> <b_epik_Metal_Only>
0

> <s_lp_Force_Field>
OPLS_2005

> <r_lp_Energy>
10.7636

> <b_lp_Chiralities_Consistent>
1

> <s_lp_Variant>
AV-unprocessed.smi:3113-2

> <Gold.Version>
5.8.1

> <Gold.Id.Protein>
6NUR|6NUR_protein|mol2

> <Gold.PLP.Fitness>
42.6619

> <Gold.PLP.PLP>
-38.1462

> <Gold.PLP.part.hbond>
-1.0000

> <Gold.PLP.part.metal>
0.0000

> <Gold.PLP.part.buried>
-3.7539

> <Gold.PLP.part.nonpolar>
-33.4850

> <Gold.PLP.part.repulsive>
0.5057

> <Gold.PLP.ligand.clash>
0.0000

> <Gold.PLP.ligand.torsion>
0.7685

> <Gold.PLP.Chemscore.Hbond>
2.0000

> <Gold.PLP.Chemscore.CHOScore>
0.0000

> <Gold.PLP.Chemscore.Metal>
0.0000

> <Gold.Chemscore.Hbonds>
donor molecule, donor type, donor heavy atom, donor atom, acceptor molecule, acceptor atom, score
      L1  H     7    35       P1  8028  2.00

> <Gold.PLP.Chemscore.Internal.Correction>
0.0528

> <Gold.Rescore>
     Score         DG    S(hbond)    S(metal)    S(lipo)     H(rot)  DE(clash)    DE(int)     intcor
     15.23     -15.96       1.00        0.00      98.24       1.70       0.05       0.68       ----

> <Gold.Chemscore.Fitness>
15.2313

> <Gold.Chemscore.DG>
-15.9624

> <Gold.Chemscore.ZeroCoef>
-5.4800

> <Gold.Chemscore.Hbond>
0.9991

> <Gold.Chemscore.Metal>
0.0000

> <Gold.Chemscore.Lipo>
98.2367

> <Gold.Chemscore.Internal_Hbond>
0.0000

> <Gold.Chemscore.DEClash>
0.0485

> <Gold.Chemscore.DEInternal>
0.6826

> <Gold.Chemscore.Rot>
1.6985

> <Gold.Chemscore.Internal.Correction>
   9.000000E+99

> <Gold.Chemscore.Hbonds>
donor molecule, donor type, donor heavy atom, donor atom, acceptor molecule, acceptor atom, score
      L1  H     7    35       P1  8028  1.00

> <Gold.Chemscore.Hbond.Weighted>
-3.3370

> <Gold.Chemscore.Metal.Weighted>
-0.0000

> <Gold.Chemscore.Lipo.Weighted>
-11.4937

> <Gold.Chemscore.Internal_Hbond.Weighted>
0.0000

> <Gold.Chemscore.DEClash.Weighted>
0.0485

> <Gold.Chemscore.DEInternal.Weighted>
0.6826

> <Gold.Chemscore.Rot.Weighted>
4.3482

> <Gold.Chemscore.Internal.Correction.Weighted>
   9.000000E+99

> <Gold.Protein.RotatedTorsions>
[ 6907 6896 6895 6894 ] final -129.73 input  -60.11 | X-H torsion
[ 7974 7965 7964 7962 ] final  118.70 input  175.53 | X-H torsion
[ 8008 7997 7996 7995 ] final -136.57 input   59.86 | X-H torsion
[ 10167 10162 10161 10158 ] final   -6.44 input  -65.29 | X-H torsion
[ 10718 10713 10712 10709 ] final -128.18 input   66.30 | X-H torsion
[ 10763 10752 10751 10750 ] final -165.35 input  -60.55 | X-H torsion
[ 11005 11000 10999 10996 ] final  150.48 input  -57.11 | X-H torsion

> <Gold.Protein.ActiveResidues>
 VAL166  LYS551  ARG553  GLY616  TRP617  ASP618  TYR619  PRO620  LYS621  CYS622 
 ASP623  PHE694  ASN695  SER759  ASP760  ASP761  ALA762  ILE779  LEU786  VAL792 
 PHE793  MET794  SER795  GLU796  ALA797  LYS798  CYS799  TRP800  GLU811  SER814 

> <Gold.Protein.RotatedAtoms>
  150.9319  133.6756  159.2808 H   0  0  0  0  0  0  0  0  0  0  0  0  # atno 6907 bound_to 6896
  151.4175  135.0992  159.9613 H   0  0  0  0  0  0  0  0  0  0  0  0  # atno 6908 bound_to 6896
  152.5030  133.8779  159.7386 H   0  0  0  0  0  0  0  0  0  0  0  0  # atno 6909 bound_to 6896
  145.1520  139.3205  143.4562 H   0  0  0  0  0  0  0  0  0  0  0  0  # atno 7974 bound_to 7965
  155.3974  140.0504  157.3038 H   0  0  0  0  0  0  0  0  0  0  0  0  # atno 8008 bound_to 7997
  154.5007  140.2155  155.9314 H   0  0  0  0  0  0  0  0  0  0  0  0  # atno 8009 bound_to 7997
  156.1463  140.3144  155.8581 H   0  0  0  0  0  0  0  0  0  0  0  0  # atno 8010 bound_to 7997
  140.6997  143.6193  150.8628 H   0  0  0  0  0  0  0  0  0  0  0  0  # atno 10167 bound_to 10162
  156.1927  130.6806  151.0444 H   0  0  0  0  0  0  0  0  0  0  0  0  # atno 10718 bound_to 10713
  154.6940  135.2976  154.9438 H   0  0  0  0  0  0  0  0  0  0  0  0  # atno 10763 bound_to 10752
  154.0391  135.6660  153.4792 H   0  0  0  0  0  0  0  0  0  0  0  0  # atno 10764 bound_to 10752
  153.0633  135.5103  154.8048 H   0  0  0  0  0  0  0  0  0  0  0  0  # atno 10765 bound_to 10752
  140.1135  134.8909  157.1970 H   0  0  0  0  0  0  0  0  0  0  0  0  # atno 11005 bound_to 11000
  146.3493  140.1598  142.8591 LP  0  0  0  0  0  0  0  0  0  0  0  0  # atno 17320 bound_to 7965
  145.0421  140.8953  143.5046 LP  0  0  0  0  0  0  0  0  0  0  0  0  # atno 17321 bound_to 7965
  139.9914  143.5842  152.2908 LP  0  0  0  0  0  0  0  0  0  0  0  0  # atno 17342 bound_to 10162
  139.6499  144.7660  151.2169 LP  0  0  0  0  0  0  0  0  0  0  0  0  # atno 17343 bound_to 10162
  157.6939  131.0801  150.7028 LP  0  0  0  0  0  0  0  0  0  0  0  0  # atno 17370 bound_to 10713
  156.7084  130.4644  149.5554 LP  0  0  0  0  0  0  0  0  0  0  0  0  # atno 17371 bound_to 10713
  140.3060  134.3078  155.7278 LP  0  0  0  0  0  0  0  0  0  0  0  0  # atno 17394 bound_to 11000
  141.2136  133.7621  156.9708 LP  0  0  0  0  0  0  0  0  0  0  0  0  # atno 17395 bound_to 11000

$$$$
