AV-unprocessed.smi:3067|AV-procd|sdf|11697|dock5
  -GOLD-   2272017103D 1   1.00000     0.00000
 Structure written by MMmdl.
 34 35  0  0  0  0  0  0  0  0  1 V2000
  145.4647  129.0133  151.7853 C   0  0  0  0  0  0  0  0  0  0  0  0
  145.5992  130.3599  152.2121 O   0  0  0  0  0  0  0  0  0  0  0  0
  145.5452  131.3170  151.1598 C   0  0  1  0  0  0  0  0  0  0  0  0
  144.0821  131.4881  150.6967 C   0  0  0  0  0  0  0  0  0  0  0  0
  143.9386  132.6200  149.6691 C   0  0  0  0  0  0  0  0  0  0  0  0
  144.4947  133.9388  150.2226 C   0  0  0  0  0  0  0  0  0  0  0  0
  145.9548  133.7745  150.6675 C   0  0  0  0  0  0  0  0  0  0  0  0
  146.1092  132.6460  151.7102 C   0  0  2  0  0  0  0  0  0  0  0  0
  147.5095  132.4823  152.0844 N   0  0  0  0  0  0  0  0  0  0  0  0
  147.9788  132.7428  153.3811 C   0  0  0  0  0  0  0  0  0  0  0  0
  149.3310  133.0233  153.6878 C   0  0  0  0  0  0  0  0  0  0  0  0
  149.6912  133.2749  155.0256 C   0  0  0  0  0  0  0  0  0  0  0  0
  148.6874  133.2395  156.0158 C   0  0  0  0  0  0  0  0  0  0  0  0
  149.0381  133.4985  157.4018 C   0  0  0  0  0  0  0  0  0  0  0  0
  149.3169  133.7045  158.5059 N   0  0  0  0  0  0  0  0  0  0  0  0
  147.3939  132.9726  155.7339 N   0  0  0  0  0  0  0  0  0  0  0  0
  147.0569  132.7320  154.4490 C   0  0  0  0  0  0  0  0  0  0  0  0
  145.5477  128.3513  152.6470 H   0  0  0  0  0  0  0  0  0  0  0  0
  146.2516  128.7426  151.0804 H   0  0  0  0  0  0  0  0  0  0  0  0
  144.4976  128.8286  151.3186 H   0  0  0  0  0  0  0  0  0  0  0  0
  146.1628  130.9941  150.3189 H   0  0  0  0  0  0  0  0  0  0  0  0
  143.7054  130.5628  150.2618 H   0  0  0  0  0  0  0  0  0  0  0  0
  143.4503  131.7023  151.5597 H   0  0  0  0  0  0  0  0  0  0  0  0
  144.4679  132.3535  148.7534 H   0  0  0  0  0  0  0  0  0  0  0  0
  142.8901  132.7441  149.3966 H   0  0  0  0  0  0  0  0  0  0  0  0
  144.4220  134.7197  149.4652 H   0  0  0  0  0  0  0  0  0  0  0  0
  143.8887  134.2679  151.0676 H   0  0  0  0  0  0  0  0  0  0  0  0
  146.5745  133.5576  149.7961 H   0  0  0  0  0  0  0  0  0  0  0  0
  146.3164  134.7213  151.0688 H   0  0  0  0  0  0  0  0  0  0  0  0
  145.5322  132.9012  152.5995 H   0  0  0  0  0  0  0  0  0  0  0  0
  148.1352  132.0659  151.4096 H   0  0  0  0  0  0  0  0  0  0  0  0
  150.0956  133.0489  152.9264 H   0  0  0  0  0  0  0  0  0  0  0  0
  150.7188  133.4909  155.2806 H   0  0  0  0  0  0  0  0  0  0  0  0
  146.0119  132.5248  154.2688 H   0  0  0  0  0  0  0  0  0  0  0  0
  1  2  1  0  0  0  0
  1 18  1  0  0  0  0
  1 19  1  0  0  0  0
  1 20  1  0  0  0  0
  2  3  1  0  0  0  0
  3  8  1  0  0  0  0
  3  4  1  0  0  0  0
  3 21  1  0  0  0  0
  4  5  1  0  0  0  0
  4 22  1  0  0  0  0
  4 23  1  0  0  0  0
  5  6  1  0  0  0  0
  5 24  1  0  0  0  0
  5 25  1  0  0  0  0
  6  7  1  0  0  0  0
  6 26  1  0  0  0  0
  6 27  1  0  0  0  0
  7  8  1  0  0  0  0
  7 28  1  0  0  0  0
  7 29  1  0  0  0  0
  8  9  1  0  0  0  0
  8 30  1  0  0  0  0
  9 10  1  0  0  0  0
  9 31  1  0  0  0  0
 10 17  1  0  0  0  0
 10 11  2  0  0  0  0
 11 12  1  0  0  0  0
 11 32  1  0  0  0  0
 12 13  2  0  0  0  0
 12 33  1  0  0  0  0
 13 14  1  0  0  0  0
 13 16  1  0  0  0  0
 14 15  3  0  0  0  0
 16 17  2  0  0  0  0
 17 34  1  0  0  0  0
M  END
> <s_m_source_file>
AV-unprocessed.smi

> <i_m_source_file_index>
3067

> <i_lp_mmshare_version>
43012

> <i_f3d_flags>
0

> <s_epik_input>
W0NIM11PW0NAQEhdMVtDSDJdW0NIMl1bQ0gyXVtDSDJdW0NASF0xW05IXWMyW2NIXVtjSF1jKEMjTiluW2NIXTI=

> <s_epik_cmdline>
J2VwaWtfcHl0aG9uJywgJy1waCcsICc3LjAnLCAnLXRuJywgJzgnLCAnLW1hJywgJzIwMCcsICctbWV0YWxfYmluZGluZycsICctaW1hZScsICc8aW5maWxlLm1hZT4nLCAnLW9tYWUnLCAnPG91dGZpbGUubWFlPic=

> <r_lp_tautomer_probability>
1

> <r_epik_Ionization_Penalty>
2.01011e-07

> <r_epik_Ionization_Penalty_Charging>
0

> <r_epik_Ionization_Penalty_Neutral>
2.01011e-07

> <r_epik_State_Penalty>
-0

> <r_epik_Charging_Adjusted_Penalty>
0

> <i_epik_Tot_Q>
0

> <i_epik_Tot_abs_Q>
0

> <r_epik_Metal_State_Penalty>
-0

> <b_epik_Metal_Only>
0

> <s_lp_Force_Field>
OPLS_2005

> <r_lp_Energy>
16.9027

> <b_lp_Chiralities_Consistent>
1

> <s_lp_Variant>
AV-unprocessed.smi:3067-4

> <Gold.Version>
5.8.1

> <Gold.Id.Protein>
6NUR|6NUR_protein|mol2

> <Gold.PLP.Fitness>
36.7383

> <Gold.PLP.PLP>
-31.2145

> <Gold.PLP.part.hbond>
-2.0000

> <Gold.PLP.part.metal>
0.0000

> <Gold.PLP.part.buried>
-4.3701

> <Gold.PLP.part.nonpolar>
-25.8631

> <Gold.PLP.part.repulsive>
0.1984

> <Gold.PLP.ligand.clash>
0.0000

> <Gold.PLP.ligand.torsion>
0.2400

> <Gold.PLP.Chemscore.Hbond>
2.0000

> <Gold.PLP.Chemscore.CHOScore>
0.0000

> <Gold.PLP.Chemscore.Metal>
0.0000

> <Gold.Chemscore.Hbonds>
donor molecule, donor type, donor heavy atom, donor atom, acceptor molecule, acceptor atom, score
      L1  H     9    31       P1 10747  1.00
      P1  H  6896  6908       L1    15  1.00

> <Gold.PLP.Chemscore.Internal.Correction>
0.0039

> <Gold.Rescore>
     Score         DG    S(hbond)    S(metal)    S(lipo)     H(rot)  DE(clash)    DE(int)     intcor
     19.71     -19.96       2.00        0.00      93.07       1.20       0.09       0.16       ----

> <Gold.Chemscore.Fitness>
19.7087

> <Gold.Chemscore.DG>
-19.9585

> <Gold.Chemscore.ZeroCoef>
-5.4800

> <Gold.Chemscore.Hbond>
1.9952

> <Gold.Chemscore.Metal>
0.0000

> <Gold.Chemscore.Lipo>
93.0724

> <Gold.Chemscore.Internal_Hbond>
0.0000

> <Gold.Chemscore.DEClash>
0.0865

> <Gold.Chemscore.DEInternal>
0.1633

> <Gold.Chemscore.Rot>
1.2012

> <Gold.Chemscore.Internal.Correction>
   9.000000E+99

> <Gold.Chemscore.Hbonds>
donor molecule, donor type, donor heavy atom, donor atom, acceptor molecule, acceptor atom, score
      L1  H     9    31       P1 10747  1.00
      P1  H  6896  6908       L1    15  0.99

> <Gold.Chemscore.Hbond.Weighted>
-6.6640

> <Gold.Chemscore.Metal.Weighted>
-0.0000

> <Gold.Chemscore.Lipo.Weighted>
-10.8895

> <Gold.Chemscore.Internal_Hbond.Weighted>
0.0000

> <Gold.Chemscore.DEClash.Weighted>
0.0865

> <Gold.Chemscore.DEInternal.Weighted>
0.1633

> <Gold.Chemscore.Rot.Weighted>
3.0750

> <Gold.Chemscore.Internal.Correction.Weighted>
   9.000000E+99

> <Gold.Protein.RotatedTorsions>
[ 6907 6896 6895 6894 ] final  123.98 input  -60.11 | X-H torsion
[ 7974 7965 7964 7962 ] final   70.16 input  175.53 | X-H torsion
[ 8008 7997 7996 7995 ] final  -28.27 input   59.86 | X-H torsion
[ 10167 10162 10161 10158 ] final -142.59 input  -65.29 | X-H torsion
[ 10718 10713 10712 10709 ] final  -48.05 input   66.30 | X-H torsion
[ 10763 10752 10751 10750 ] final    9.85 input  -60.55 | X-H torsion
[ 11005 11000 10999 10996 ] final   50.76 input  -57.11 | X-H torsion

> <Gold.Protein.ActiveResidues>
 VAL166  LYS551  ARG553  GLY616  TRP617  ASP618  TYR619  PRO620  LYS621  CYS622 
 ASP623  PHE694  ASN695  SER759  ASP760  ASP761  ALA762  ILE779  LEU786  VAL792 
 PHE793  MET794  SER795  GLU796  ALA797  LYS798  CYS799  TRP800  GLU811  SER814 

> <Gold.Protein.RotatedAtoms>
  152.4116  133.6973  159.6402 H   0  0  0  0  0  0  0  0  0  0  0  0  # atno 6907 bound_to 6896
  150.7996  133.8613  159.3241 H   0  0  0  0  0  0  0  0  0  0  0  0  # atno 6908 bound_to 6896
  151.6354  135.1020  160.0182 H   0  0  0  0  0  0  0  0  0  0  0  0  # atno 6909 bound_to 6896
  145.7816  139.2890  143.1262 H   0  0  0  0  0  0  0  0  0  0  0  0  # atno 7974 bound_to 7965
  154.4339  140.1850  156.1063 H   0  0  0  0  0  0  0  0  0  0  0  0  # atno 8008 bound_to 7997
  156.0252  140.3336  155.7055 H   0  0  0  0  0  0  0  0  0  0  0  0  # atno 8009 bound_to 7997
  155.5918  140.0631  157.2747 H   0  0  0  0  0  0  0  0  0  0  0  0  # atno 8010 bound_to 7997
  139.8074  143.7750  152.2662 H   0  0  0  0  0  0  0  0  0  0  0  0  # atno 10167 bound_to 10162
  156.2025  130.4157  149.9222 H   0  0  0  0  0  0  0  0  0  0  0  0  # atno 10718 bound_to 10713
  153.2095  135.6867  153.8131 H   0  0  0  0  0  0  0  0  0  0  0  0  # atno 10763 bound_to 10752
  153.7368  135.3244  155.3297 H   0  0  0  0  0  0  0  0  0  0  0  0  # atno 10764 bound_to 10752
  154.8215  135.4649  154.0897 H   0  0  0  0  0  0  0  0  0  0  0  0  # atno 10765 bound_to 10752
  140.0990  134.5107  155.8780 H   0  0  0  0  0  0  0  0  0  0  0  0  # atno 11005 bound_to 11000
  146.0068  140.8471  142.9991 LP  0  0  0  0  0  0  0  0  0  0  0  0  # atno 17320 bound_to 7965
  144.6795  140.2432  143.7341 LP  0  0  0  0  0  0  0  0  0  0  0  0  # atno 17321 bound_to 7965
  139.7888  144.7418  150.9984 LP  0  0  0  0  0  0  0  0  0  0  0  0  # atno 17342 bound_to 10162
  140.7819  143.4464  151.0477 LP  0  0  0  0  0  0  0  0  0  0  0  0  # atno 17343 bound_to 10162
  156.6926  130.8902  151.3590 LP  0  0  0  0  0  0  0  0  0  0  0  0  # atno 17370 bound_to 10713
  157.6994  130.9316  150.0739 LP  0  0  0  0  0  0  0  0  0  0  0  0  # atno 17371 bound_to 10713
  141.2100  133.6690  156.6480 LP  0  0  0  0  0  0  0  0  0  0  0  0  # atno 17394 bound_to 11000
  140.3246  134.7979  157.4279 LP  0  0  0  0  0  0  0  0  0  0  0  0  # atno 17395 bound_to 11000

$$$$
