AV-unprocessed.smi:2220|AV-procd|sdf|8979|dock3
  -GOLD-   2272012193D 1   1.00000     0.00000
 Structure written by MMmdl.
 38 39  0  0  0  0  0  0  0  0  1 V2000
  146.9323  138.7984  153.0958 C   0  0  0  0  0  0  0  0  0  0  0  0
  147.4447  140.0772  153.5467 N   0  0  0  0  0  0  0  0  0  0  0  0
  146.8584  141.2730  153.3975 C   0  0  0  0  0  0  0  0  0  0  0  0
  147.5434  142.2895  153.9038 N   0  0  0  0  0  0  0  0  0  0  0  0
  148.6835  141.6898  154.4314 C   0  0  0  0  0  0  0  0  0  0  0  0
  148.6380  140.3292  154.2199 C   0  0  0  0  0  0  0  0  0  0  0  0
  149.6202  139.2707  154.6084 C   0  0  0  0  0  0  0  0  0  0  0  0
  151.0072  139.8353  154.9560 C   0  0  0  0  0  0  0  0  0  0  0  0
  150.9538  140.7048  156.1251 N   0  0  0  0  0  0  0  0  0  0  0  0
  151.7974  140.6490  157.1675 C   0  0  0  0  0  0  0  0  0  0  0  0
  152.7248  139.8423  157.2417 O   0  0  0  0  0  0  0  0  0  0  0  0
  151.5547  141.6560  158.2998 C   0  0  0  0  0  0  0  0  0  0  0  0
  150.7462  142.8696  157.7954 C   0  0  0  0  0  0  0  0  0  0  0  0
  150.4969  143.8795  158.9273 C   0  0  0  0  0  0  0  0  0  0  0  0
  151.8153  144.3279  159.5806 C   0  0  0  0  0  0  0  0  0  0  0  0
  152.5256  145.0369  158.7017 F   0  0  0  0  0  0  0  0  0  0  0  0
  151.5415  145.1125  160.6227 F   0  0  0  0  0  0  0  0  0  0  0  0
  152.6490  143.1271  160.0598 C   0  0  0  0  0  0  0  0  0  0  0  0
  152.8879  142.1201  158.9231 C   0  0  0  0  0  0  0  0  0  0  0  0
  146.0205  138.9408  152.5147 H   0  0  0  0  0  0  0  0  0  0  0  0
  146.7076  138.1672  153.9554 H   0  0  0  0  0  0  0  0  0  0  0  0
  147.6735  138.3022  152.4692 H   0  0  0  0  0  0  0  0  0  0  0  0
  145.9053  141.4029  152.9060 H   0  0  0  0  0  0  0  0  0  0  0  0
  149.4447  142.2786  154.9218 H   0  0  0  0  0  0  0  0  0  0  0  0
  149.2318  138.7023  155.4539 H   0  0  0  0  0  0  0  0  0  0  0  0
  149.7114  138.5570  153.7888 H   0  0  0  0  0  0  0  0  0  0  0  0
  151.7189  139.0246  155.1220 H   0  0  0  0  0  0  0  0  0  0  0  0
  151.3941  140.4196  154.1214 H   0  0  0  0  0  0  0  0  0  0  0  0
  150.2208  141.3990  156.1442 H   0  0  0  0  0  0  0  0  0  0  0  0
  150.9717  141.1604  159.0783 H   0  0  0  0  0  0  0  0  0  0  0  0
  151.2779  143.3658  156.9821 H   0  0  0  0  0  0  0  0  0  0  0  0
  149.7909  142.5414  157.3835 H   0  0  0  0  0  0  0  0  0  0  0  0
  149.9549  144.7442  158.5431 H   0  0  0  0  0  0  0  0  0  0  0  0
  149.8539  143.4226  159.6808 H   0  0  0  0  0  0  0  0  0  0  0  0
  153.6031  143.4691  160.4619 H   0  0  0  0  0  0  0  0  0  0  0  0
  152.1307  142.6274  160.8793 H   0  0  0  0  0  0  0  0  0  0  0  0
  153.4435  141.2632  159.3067 H   0  0  0  0  0  0  0  0  0  0  0  0
  153.5198  142.5813  158.1627 H   0  0  0  0  0  0  0  0  0  0  0  0
  1  2  1  0  0  0  0
  1 20  1  0  0  0  0
  1 21  1  0  0  0  0
  1 22  1  0  0  0  0
  2  6  1  0  0  0  0
  2  3  1  0  0  0  0
  3  4  2  0  0  0  0
  3 23  1  0  0  0  0
  4  5  1  0  0  0  0
  5  6  2  0  0  0  0
  5 24  1  0  0  0  0
  6  7  1  0  0  0  0
  7  8  1  0  0  0  0
  7 25  1  0  0  0  0
  7 26  1  0  0  0  0
  8  9  1  0  0  0  0
  8 27  1  0  0  0  0
  8 28  1  0  0  0  0
  9 10  1  0  0  0  0
  9 29  1  0  0  0  0
 10 11  2  0  0  0  0
 10 12  1  0  0  0  0
 12 19  1  0  0  0  0
 12 13  1  0  0  0  0
 12 30  1  0  0  0  0
 13 14  1  0  0  0  0
 13 31  1  0  0  0  0
 13 32  1  0  0  0  0
 14 15  1  0  0  0  0
 14 33  1  0  0  0  0
 14 34  1  0  0  0  0
 15 16  1  0  0  0  0
 15 17  1  0  0  0  0
 15 18  1  0  0  0  0
 18 19  1  0  0  0  0
 18 35  1  0  0  0  0
 18 36  1  0  0  0  0
 19 37  1  0  0  0  0
 19 38  1  0  0  0  0
M  END
> <s_m_source_file>
AV-unprocessed.smi

> <i_m_source_file_index>
2220

> <i_lp_mmshare_version>
43012

> <i_f3d_flags>
0

> <s_epik_input>
W0NIM11uMVtjSF1uW2NIXWMxW0NIMl1bQ0gyXVtOSF1DKD1PKVtDSF0oW0NIMl1bQ0gyXTIpW0NIMl1bQ0gyXUMyKEYpRg==

> <s_epik_cmdline>
J2VwaWtfcHl0aG9uJywgJy1waCcsICc3LjAnLCAnLXRuJywgJzgnLCAnLW1hJywgJzIwMCcsICctbWV0YWxfYmluZGluZycsICctaW1hZScsICc8aW5maWxlLm1hZT4nLCAnLW9tYWUnLCAnPG91dGZpbGUubWFlPic=

> <r_lp_tautomer_probability>
1

> <r_epik_Ionization_Penalty>
0.872556

> <r_epik_Ionization_Penalty_Charging>
0.872556

> <r_epik_Ionization_Penalty_Neutral>
1.72153e-08

> <r_epik_State_Penalty>
0.910028

> <r_epik_Charging_Adjusted_Penalty>
1.78258

> <i_epik_Tot_Q>
0

> <i_epik_Tot_abs_Q>
0

> <r_epik_Metal_State_Penalty>
0.360885

> <b_epik_Metal_Only>
0

> <s_lp_Force_Field>
OPLS_2005

> <r_lp_Energy>
9.62652

> <b_lp_Chiralities_Consistent>
1

> <s_lp_Variant>
AV-unprocessed.smi:2220-2

> <Gold.Version>
5.8.1

> <Gold.Id.Protein>
6NUR|6NUR_protein|mol2

> <Gold.PLP.Fitness>
48.0747

> <Gold.PLP.PLP>
-42.9940

> <Gold.PLP.part.hbond>
-1.0000

> <Gold.PLP.part.metal>
0.0000

> <Gold.PLP.part.buried>
-1.0187

> <Gold.PLP.part.nonpolar>
-39.9119

> <Gold.PLP.part.repulsive>
0.2783

> <Gold.PLP.ligand.clash>
0.3240

> <Gold.PLP.ligand.torsion>
0.9631

> <Gold.PLP.Chemscore.Hbond>
1.0000

> <Gold.PLP.Chemscore.CHOScore>
1.4254

> <Gold.PLP.Chemscore.Metal>
0.0000

> <Gold.Chemscore.Hbonds>
donor molecule, donor type, donor heavy atom, donor atom, acceptor molecule, acceptor atom, score
      P1  H  7997  8008       L1    11  1.00
      L1  C     3    23       P1 10175  0.63
      L1  C     5    24       P1  8028  0.64

> <Gold.PLP.Chemscore.Internal.Correction>
0.0548

> <Gold.Rescore>
     Score         DG    S(hbond)    S(metal)    S(lipo)     H(rot)  DE(clash)    DE(int)     intcor
     13.71     -14.82       0.99        0.00      90.90       1.80       0.08       1.03       ----

> <Gold.Chemscore.Fitness>
13.7082

> <Gold.Chemscore.DG>
-14.8181

> <Gold.Chemscore.ZeroCoef>
-5.4800

> <Gold.Chemscore.Hbond>
0.9934

> <Gold.Chemscore.Metal>
0.0000

> <Gold.Chemscore.Lipo>
90.9028

> <Gold.Chemscore.Internal_Hbond>
0.0000

> <Gold.Chemscore.DEClash>
0.0766

> <Gold.Chemscore.DEInternal>
1.0333

> <Gold.Chemscore.Rot>
1.8029

> <Gold.Chemscore.Internal.Correction>
   9.000000E+99

> <Gold.Chemscore.Hbonds>
donor molecule, donor type, donor heavy atom, donor atom, acceptor molecule, acceptor atom, score
      P1  H  7997  8008       L1    11  1.00

> <Gold.Chemscore.Hbond.Weighted>
-3.3180

> <Gold.Chemscore.Metal.Weighted>
-0.0000

> <Gold.Chemscore.Lipo.Weighted>
-10.6356

> <Gold.Chemscore.Internal_Hbond.Weighted>
0.0000

> <Gold.Chemscore.DEClash.Weighted>
0.0766

> <Gold.Chemscore.DEInternal.Weighted>
1.0333

> <Gold.Chemscore.Rot.Weighted>
4.6155

> <Gold.Chemscore.Internal.Correction.Weighted>
   9.000000E+99

> <Gold.Protein.RotatedTorsions>
[ 6907 6896 6895 6894 ] final -147.93 input  -60.11 | X-H torsion
[ 7974 7965 7964 7962 ] final  -78.10 input  175.53 | X-H torsion
[ 8008 7997 7996 7995 ] final  -62.58 input   59.86 | X-H torsion
[ 10167 10162 10161 10158 ] final   58.86 input  -65.29 | X-H torsion
[ 10718 10713 10712 10709 ] final -138.52 input   66.30 | X-H torsion
[ 10763 10752 10751 10750 ] final  -34.91 input  -60.55 | X-H torsion
[ 11005 11000 10999 10996 ] final   83.08 input  -57.11 | X-H torsion

> <Gold.Protein.ActiveResidues>
 VAL166  LYS551  ARG553  GLY616  TRP617  ASP618  TYR619  PRO620  LYS621  CYS622 
 ASP623  PHE694  ASN695  SER759  ASP760  ASP761  ALA762  ILE779  LEU786  VAL792 
 PHE793  MET794  SER795  GLU796  ALA797  LYS798  CYS799  TRP800  GLU811  SER814 

> <Gold.Protein.RotatedAtoms>
  151.1626  133.4835  159.2593 H   0  0  0  0  0  0  0  0  0  0  0  0  # atno 6907 bound_to 6896
  151.1438  135.0193  159.8647 H   0  0  0  0  0  0  0  0  0  0  0  0  # atno 6908 bound_to 6896
  152.5463  134.1517  159.8574 H   0  0  0  0  0  0  0  0  0  0  0  0  # atno 6909 bound_to 6896
  145.5910  140.9429  143.1292 H   0  0  0  0  0  0  0  0  0  0  0  0  # atno 7974 bound_to 7965
  154.4507  140.0993  156.6609 H   0  0  0  0  0  0  0  0  0  0  0  0  # atno 8008 bound_to 7997
  155.5294  140.3481  155.4404 H   0  0  0  0  0  0  0  0  0  0  0  0  # atno 8009 bound_to 7997
  156.0675  140.1341  156.9857 H   0  0  0  0  0  0  0  0  0  0  0  0  # atno 8010 bound_to 7997
  140.1827  144.4166  150.6608 H   0  0  0  0  0  0  0  0  0  0  0  0  # atno 10167 bound_to 10162
  156.3003  130.7425  151.1474 H   0  0  0  0  0  0  0  0  0  0  0  0  # atno 10718 bound_to 10713
  153.8544  135.6846  153.4789 H   0  0  0  0  0  0  0  0  0  0  0  0  # atno 10763 bound_to 10752
  153.1378  135.4670  154.9447 H   0  0  0  0  0  0  0  0  0  0  0  0  # atno 10764 bound_to 10752
  154.7787  135.3262  154.7984 H   0  0  0  0  0  0  0  0  0  0  0  0  # atno 10765 bound_to 10752
  139.9042  134.8119  156.2261 H   0  0  0  0  0  0  0  0  0  0  0  0  # atno 11005 bound_to 11000
  144.7351  139.7609  143.7332 LP  0  0  0  0  0  0  0  0  0  0  0  0  # atno 17320 bound_to 7965
  146.1647  139.4774  142.9966 LP  0  0  0  0  0  0  0  0  0  0  0  0  # atno 17321 bound_to 7965
  140.6509  143.2225  151.6080 LP  0  0  0  0  0  0  0  0  0  0  0  0  # atno 17342 bound_to 10162
  139.5289  144.2975  152.1101 LP  0  0  0  0  0  0  0  0  0  0  0  0  # atno 17343 bound_to 10162
  157.7366  131.0560  150.5404 LP  0  0  0  0  0  0  0  0  0  0  0  0  # atno 17370 bound_to 10713
  156.5531  130.4236  149.6098 LP  0  0  0  0  0  0  0  0  0  0  0  0  # atno 17371 bound_to 10713
  141.0375  133.6955  156.1538 LP  0  0  0  0  0  0  0  0  0  0  0  0  # atno 17394 bound_to 11000
  140.7005  134.4569  157.5586 LP  0  0  0  0  0  0  0  0  0  0  0  0  # atno 17395 bound_to 11000

$$$$
