AV-unprocessed.smi:848|AV-procd|sdf|3941|dock4
  -GOLD-   22720 1413D 1   1.00000     0.00000
 Structure written by MMmdl.
 47 49  0  0  0  0  0  0  0  0  2 V2000
  147.3807  136.6950  163.3326 C   0  0  0  0  0  0  0  0  0  0  0  0
  147.6164  135.9982  162.0083 C   0  0  0  0  0  0  0  0  0  0  0  0
  147.2591  134.6453  161.8431 C   0  0  0  0  0  0  0  0  0  0  0  0
  147.4819  134.0018  160.6106 C   0  0  0  0  0  0  0  0  0  0  0  0
  147.0950  132.5470  160.4409 C   0  0  0  0  0  0  0  0  0  0  0  0
  148.0644  134.7162  159.5437 C   0  0  0  0  0  0  0  0  0  0  0  0
  148.4281  136.0704  159.6921 C   0  0  0  0  0  0  0  0  0  0  0  0
  148.9940  136.6888  158.5975 O   0  0  0  0  0  0  0  0  0  0  0  0
  149.8811  137.7768  158.8218 C   0  0  0  0  0  0  0  0  0  0  0  0
  149.8543  138.7052  157.5987 C   0  0  2  0  0  0  0  0  0  0  0  0
  149.5375  137.9327  156.4578 O   0  0  0  0  0  0  0  0  0  0  0  0
  151.1918  139.4433  157.3861 C   0  0  0  0  0  0  0  0  0  0  0  0
  151.0341  140.9059  157.3420 N   0  0  0  0  0  0  0  0  0  0  0  0
  150.3333  141.6836  156.4672 C   0  0  0  0  0  0  0  0  0  0  0  0
  149.5207  141.2169  155.3050 C   0  0  0  0  0  0  0  0  0  0  0  0
  148.9716  142.2891  154.5717 O   0  0  0  0  0  0  0  0  0  0  0  0
  150.4988  142.9792  156.8555 N   0  3  0  0  0  0  0  0  0  0  0  0
  151.3145  143.0330  157.9863 C   0  0  0  0  0  0  0  0  0  0  0  0
  151.7624  144.1173  158.7346 C   0  0  0  0  0  0  0  0  0  0  0  0
  152.5907  143.8259  159.8381 C   0  0  0  0  0  0  0  0  0  0  0  0
  152.9422  142.4994  160.1618 C   0  0  0  0  0  0  0  0  0  0  0  0
  152.4801  141.4080  159.3971 C   0  0  0  0  0  0  0  0  0  0  0  0
  151.6622  141.7040  158.3063 C   0  0  0  0  0  0  0  0  0  0  0  0
  148.1973  136.7079  160.9373 C   0  0  0  0  0  0  0  0  0  0  0  0
  146.9266  136.0229  164.0614 H   0  0  0  0  0  0  0  0  0  0  0  0
  146.7169  137.5491  163.1972 H   0  0  0  0  0  0  0  0  0  0  0  0
  148.3242  137.0549  163.7433 H   0  0  0  0  0  0  0  0  0  0  0  0
  146.8137  134.0978  162.6612 H   0  0  0  0  0  0  0  0  0  0  0  0
  147.3215  132.1880  159.4365 H   0  0  0  0  0  0  0  0  0  0  0  0
  146.0267  132.4178  160.6159 H   0  0  0  0  0  0  0  0  0  0  0  0
  147.6371  131.9264  161.1548 H   0  0  0  0  0  0  0  0  0  0  0  0
  148.2367  134.2235  158.5979 H   0  0  0  0  0  0  0  0  0  0  0  0
  149.5956  138.3285  159.7192 H   0  0  0  0  0  0  0  0  0  0  0  0
  150.8937  137.3952  158.9654 H   0  0  0  0  0  0  0  0  0  0  0  0
  149.0532  139.4337  157.7275 H   0  0  0  0  0  0  0  0  0  0  0  0
  148.8495  138.3705  155.9805 H   0  0  0  0  0  0  0  0  0  0  0  0
  151.8744  139.2210  158.2071 H   0  0  0  0  0  0  0  0  0  0  0  0
  151.6937  139.1043  156.4800 H   0  0  0  0  0  0  0  0  0  0  0  0
  150.1452  140.6162  154.6433 H   0  0  0  0  0  0  0  0  0  0  0  0
  148.7137  140.5731  155.6547 H   0  0  0  0  0  0  0  0  0  0  0  0
  148.8962  143.0379  155.1437 H   0  0  0  0  0  0  0  0  0  0  0  0
  151.4945  145.1344  158.4883 H   0  0  0  0  0  0  0  0  0  0  0  0
  152.9650  144.6359  160.4475 H   0  0  0  0  0  0  0  0  0  0  0  0
  153.5802  142.3148  161.0138 H   0  0  0  0  0  0  0  0  0  0  0  0
  152.7594  140.3974  159.6546 H   0  0  0  0  0  0  0  0  0  0  0  0
  148.4600  137.7429  161.0961 H   0  0  0  0  0  0  0  0  0  0  0  0
  150.0792  143.7676  156.3801 H   0  0  0  0  0  0  0  0  0  0  0  0
  1  2  1  0  0  0  0
  1 25  1  0  0  0  0
  1 26  1  0  0  0  0
  1 27  1  0  0  0  0
  2 24  1  0  0  0  0
  2  3  2  0  0  0  0
  3  4  1  0  0  0  0
  3 28  1  0  0  0  0
  4  5  1  0  0  0  0
  4  6  2  0  0  0  0
  5 29  1  0  0  0  0
  5 30  1  0  0  0  0
  5 31  1  0  0  0  0
  6  7  1  0  0  0  0
  6 32  1  0  0  0  0
  7  8  1  0  0  0  0
  7 24  2  0  0  0  0
  8  9  1  0  0  0  0
  9 10  1  0  0  0  0
  9 33  1  0  0  0  0
  9 34  1  0  0  0  0
 10 11  1  0  0  0  0
 10 12  1  0  0  0  0
 10 35  1  0  0  0  0
 11 36  1  0  0  0  0
 12 13  1  0  0  0  0
 12 37  1  0  0  0  0
 12 38  1  0  0  0  0
 13 23  1  0  0  0  0
 13 14  1  0  0  0  0
 14 15  1  0  0  0  0
 14 17  2  0  0  0  0
 15 16  1  0  0  0  0
 15 39  1  0  0  0  0
 15 40  1  0  0  0  0
 16 41  1  0  0  0  0
 17 18  1  0  0  0  0
 17 47  1  0  0  0  0
 18 23  2  0  0  0  0
 18 19  1  0  0  0  0
 19 20  2  0  0  0  0
 19 42  1  0  0  0  0
 20 21  1  0  0  0  0
 20 43  1  0  0  0  0
 21 22  2  0  0  0  0
 21 44  1  0  0  0  0
 22 23  1  0  0  0  0
 22 45  1  0  0  0  0
 24 46  1  0  0  0  0
M  CHG  1  17   1
M  END
> <s_m_source_file>
AV-unprocessed.smi

> <i_m_source_file_index>
848

> <i_lp_mmshare_version>
43012

> <i_f3d_flags>
0

> <s_epik_input>
W0NIM11jMVtjSF1jKFtDSDNdKVtjSF1jKFtjSF0xKU9bQ0gyXVtDQEhdKFtPSF0pW0NIMl1uKGMobjIpW0NIMl1bT0hdKWMoYzIzKVtjSF1bY0hdW2NIXVtjSF0z

> <s_epik_cmdline>
J2VwaWtfcHl0aG9uJywgJy1waCcsICc3LjAnLCAnLXRuJywgJzgnLCAnLW1hJywgJzIwMCcsICctbWV0YWxfYmluZGluZycsICctaW1hZScsICc8aW5maWxlLm1hZT4nLCAnLW9tYWUnLCAnPG91dGZpbGUubWFlPic=

> <r_lp_tautomer_probability>
1

> <r_epik_Ionization_Penalty>
1.43292

> <r_epik_Ionization_Penalty_Charging>
1.43206

> <r_epik_Ionization_Penalty_Neutral>
0.000858184

> <r_epik_State_Penalty>
1.51673

> <r_epik_Charging_Adjusted_Penalty>
2.94879

> <i_epik_Tot_Q>
1

> <i_epik_Tot_abs_Q>
1

> <r_epik_Metal_State_Penalty>
5.56186

> <b_epik_Metal_Only>
0

> <s_lp_Force_Field>
OPLS_2005

> <r_lp_Energy>
18.3298

> <b_lp_Chiralities_Consistent>
1

> <s_lp_Variant>
AV-unprocessed.smi:848-3

> <Gold.Version>
5.8.1

> <Gold.Id.Protein>
6NUR|6NUR_protein|mol2

> <Gold.PLP.Fitness>
57.7561

> <Gold.PLP.PLP>
-51.0954

> <Gold.PLP.part.hbond>
-3.1445

> <Gold.PLP.part.metal>
0.0000

> <Gold.PLP.part.buried>
-3.5403

> <Gold.PLP.part.nonpolar>
-44.6956

> <Gold.PLP.part.repulsive>
0.0650

> <Gold.PLP.ligand.clash>
0.0000

> <Gold.PLP.ligand.torsion>
1.6621

> <Gold.PLP.Chemscore.Hbond>
3.3058

> <Gold.PLP.Chemscore.CHOScore>
0.0000

> <Gold.PLP.Chemscore.Metal>
0.0000

> <Gold.Chemscore.Hbonds>
donor molecule, donor type, donor heavy atom, donor atom, acceptor molecule, acceptor atom, score
      L1  H    16    41       P1  8028  1.00
      L1  H    17    47       P1  8028  2.00
      P1  H  8011  8017       L1    16  0.03

> <Gold.PLP.Chemscore.Internal.Correction>
0.0677

> <Gold.Rescore>
     Score         DG    S(hbond)    S(metal)    S(lipo)     H(rot)  DE(clash)    DE(int)     intcor
     18.68     -20.80       2.21        0.00     134.51       3.05       0.60       1.52       ----

> <Gold.Chemscore.Fitness>
18.6770

> <Gold.Chemscore.DG>
-20.8017

> <Gold.Chemscore.ZeroCoef>
-5.4800

> <Gold.Chemscore.Hbond>
2.2113

> <Gold.Chemscore.Metal>
0.0000

> <Gold.Chemscore.Lipo>
134.5104

> <Gold.Chemscore.Internal_Hbond>
0.0000

> <Gold.Chemscore.DEClash>
0.6009

> <Gold.Chemscore.DEInternal>
1.5238

> <Gold.Chemscore.Rot>
3.0476

> <Gold.Chemscore.Internal.Correction>
   9.000000E+99

> <Gold.Chemscore.Hbonds>
donor molecule, donor type, donor heavy atom, donor atom, acceptor molecule, acceptor atom, score
      L1  H    16    41       P1  8028  0.99
      L1  H    17    47       P1  8028  0.99
      P1  H  8011  8017       L1    16  0.03

> <Gold.Chemscore.Hbond.Weighted>
-7.3857

> <Gold.Chemscore.Metal.Weighted>
-0.0000

> <Gold.Chemscore.Lipo.Weighted>
-15.7377

> <Gold.Chemscore.Internal_Hbond.Weighted>
0.0000

> <Gold.Chemscore.DEClash.Weighted>
0.6009

> <Gold.Chemscore.DEInternal.Weighted>
1.5238

> <Gold.Chemscore.Rot.Weighted>
7.8018

> <Gold.Chemscore.Internal.Correction.Weighted>
   9.000000E+99

> <Gold.Protein.RotatedTorsions>
[ 6907 6896 6895 6894 ] final  154.22 input  -60.11 | X-H torsion
[ 7974 7965 7964 7962 ] final   88.60 input  175.53 | X-H torsion
[ 8008 7997 7996 7995 ] final  148.51 input   59.86 | X-H torsion
[ 10167 10162 10161 10158 ] final  -42.04 input  -65.29 | X-H torsion
[ 10718 10713 10712 10709 ] final  -19.83 input   66.30 | X-H torsion
[ 10763 10752 10751 10750 ] final   12.62 input  -60.55 | X-H torsion
[ 11005 11000 10999 10996 ] final  -91.17 input  -57.11 | X-H torsion

> <Gold.Protein.ActiveResidues>
 VAL166  LYS551  ARG553  GLY616  TRP617  ASP618  TYR619  PRO620  LYS621  CYS622 
 ASP623  PHE694  ASN695  SER759  ASP760  ASP761  ALA762  ILE779  LEU786  VAL792 
 PHE793  MET794  SER795  GLU796  ALA797  LYS798  CYS799  TRP800  GLU811  SER814 

> <Gold.Protein.RotatedAtoms>
  152.0615  133.4064  159.4419 H   0  0  0  0  0  0  0  0  0  0  0  0  # atno 6907 bound_to 6896
  150.6866  134.3194  159.4789 H   0  0  0  0  0  0  0  0  0  0  0  0  # atno 6908 bound_to 6896
  152.1016  134.9337  160.0620 H   0  0  0  0  0  0  0  0  0  0  0  0  # atno 6909 bound_to 6896
  145.5435  139.2290  143.2552 H   0  0  0  0  0  0  0  0  0  0  0  0  # atno 7974 bound_to 7965
  156.2788  140.2126  156.5710 H   0  0  0  0  0  0  0  0  0  0  0  0  # atno 8008 bound_to 7997
  154.7135  140.0510  157.0596 H   0  0  0  0  0  0  0  0  0  0  0  0  # atno 8009 bound_to 7997
  155.0573  140.3163  155.4675 H   0  0  0  0  0  0  0  0  0  0  0  0  # atno 8010 bound_to 7997
  140.6983  143.3060  151.3152 H   0  0  0  0  0  0  0  0  0  0  0  0  # atno 10167 bound_to 10162
  156.5402  130.4676  149.6503 H   0  0  0  0  0  0  0  0  0  0  0  0  # atno 10718 bound_to 10713
  153.1804  135.6827  153.8485 H   0  0  0  0  0  0  0  0  0  0  0  0  # atno 10763 bound_to 10752
  153.7819  135.3181  155.3368 H   0  0  0  0  0  0  0  0  0  0  0  0  # atno 10764 bound_to 10752
  154.8056  135.4750  154.0479 H   0  0  0  0  0  0  0  0  0  0  0  0  # atno 10765 bound_to 10752
  141.1550  133.7738  156.9841 H   0  0  0  0  0  0  0  0  0  0  0  0  # atno 11005 bound_to 11000
  146.1965  140.6256  142.9122 LP  0  0  0  0  0  0  0  0  0  0  0  0  # atno 17320 bound_to 7965
  144.7565  140.5319  143.6765 LP  0  0  0  0  0  0  0  0  0  0  0  0  # atno 17321 bound_to 7965
  139.6466  144.0440  152.2595 LP  0  0  0  0  0  0  0  0  0  0  0  0  # atno 17342 bound_to 10162
  139.9962  144.6326  150.7770 LP  0  0  0  0  0  0  0  0  0  0  0  0  # atno 17343 bound_to 10162
  156.2979  130.7160  151.2025 LP  0  0  0  0  0  0  0  0  0  0  0  0  # atno 17370 bound_to 10713
  157.7406  131.0514  150.5151 LP  0  0  0  0  0  0  0  0  0  0  0  0  # atno 17371 bound_to 10713
  140.1046  134.9514  157.1975 LP  0  0  0  0  0  0  0  0  0  0  0  0  # atno 17394 bound_to 11000
  140.3273  134.2849  155.7234 LP  0  0  0  0  0  0  0  0  0  0  0  0  # atno 17395 bound_to 11000

$$$$
