AV-unprocessed.smi:1362|AV-procd|sdf|5561|dock5
  -GOLD-   22720 5153D 1   1.00000     0.00000
 Structure written by MMmdl.
 39 39  0  0  0  0  0  0  0  0  1 V2000
  146.3640  138.2631  152.1599 C   0  0  0  0  0  0  0  0  0  0  0  0
  147.2207  139.2266  152.9524 C   0  0  0  0  0  0  0  0  0  0  0  0
  148.4222  138.6835  153.3763 N   0  0  0  0  0  0  0  0  0  0  0  0
  149.2766  139.4917  154.1051 C   0  0  0  0  0  0  0  0  0  0  0  0
  150.5727  138.8215  154.5277 C   0  0  0  0  0  0  0  0  0  0  0  0
  148.9511  140.7771  154.3951 C   0  0  0  0  0  0  0  0  0  0  0  0
  149.8714  141.7016  155.1910 C   0  0  0  0  0  0  0  0  0  0  0  0
  150.1932  141.2549  156.6194 C   0  0  0  0  0  0  0  0  0  0  0  0
  149.6942  140.2273  157.0787 O   0  0  0  0  0  0  0  0  0  0  0  0
  151.0285  142.0442  157.3121 N   0  0  0  0  0  0  0  0  0  0  0  0
  151.4456  141.8355  158.6983 C   0  0  1  0  0  0  0  0  0  0  0  0
  151.9111  140.3760  158.8627 C   0  0  0  0  0  0  0  0  0  0  0  0
  152.5296  142.8737  159.0922 C   0  0  0  0  0  0  0  0  0  0  0  0
  152.9677  142.7363  160.5617 C   0  0  0  0  0  0  0  0  0  0  0  0
  152.0752  144.3226  158.8262 C   0  0  0  0  0  0  0  0  0  0  0  0
  147.6528  141.3033  153.9113 C   0  0  0  0  0  0  0  0  0  0  0  0
  147.3047  142.4626  154.1319 O   0  0  0  0  0  0  0  0  0  0  0  0
  146.8201  140.4404  153.1801 N   0  0  0  0  0  0  0  0  0  0  0  0
  148.7059  137.7349  153.1781 H   0  0  0  0  0  0  0  0  0  0  0  0
  145.3649  138.6703  152.0004 H   0  0  0  0  0  0  0  0  0  0  0  0
  146.2633  137.3145  152.6885 H   0  0  0  0  0  0  0  0  0  0  0  0
  146.8142  138.0715  151.1856 H   0  0  0  0  0  0  0  0  0  0  0  0
  150.6478  138.7879  155.6148 H   0  0  0  0  0  0  0  0  0  0  0  0
  151.4309  139.3700  154.1389 H   0  0  0  0  0  0  0  0  0  0  0  0
  150.6350  137.7979  154.1560 H   0  0  0  0  0  0  0  0  0  0  0  0
  149.4072  142.6878  155.2325 H   0  0  0  0  0  0  0  0  0  0  0  0
  150.8123  141.8603  154.6634 H   0  0  0  0  0  0  0  0  0  0  0  0
  151.3919  142.8649  156.8498 H   0  0  0  0  0  0  0  0  0  0  0  0
  150.5833  141.9929  159.3493 H   0  0  0  0  0  0  0  0  0  0  0  0
  152.1085  140.1304  159.9054 H   0  0  0  0  0  0  0  0  0  0  0  0
  152.8207  140.1825  158.2930 H   0  0  0  0  0  0  0  0  0  0  0  0
  151.1492  139.6772  158.5156 H   0  0  0  0  0  0  0  0  0  0  0  0
  153.4099  142.6937  158.4732 H   0  0  0  0  0  0  0  0  0  0  0  0
  152.1197  142.8419  161.2393 H   0  0  0  0  0  0  0  0  0  0  0  0
  153.6993  143.5004  160.8261 H   0  0  0  0  0  0  0  0  0  0  0  0
  153.4369  141.7727  160.7576 H   0  0  0  0  0  0  0  0  0  0  0  0
  151.1684  144.5597  159.3835 H   0  0  0  0  0  0  0  0  0  0  0  0
  151.8727  144.5013  157.7700 H   0  0  0  0  0  0  0  0  0  0  0  0
  152.8435  145.0360  159.1258 H   0  0  0  0  0  0  0  0  0  0  0  0
  1 20  1  0  0  0  0
  1 21  1  0  0  0  0
  1 22  1  0  0  0  0
  1  2  1  0  0  0  0
  2  3  1  0  0  0  0
  2 18  2  0  0  0  0
  3  4  1  0  0  0  0
  3 19  1  0  0  0  0
  4  6  2  0  0  0  0
  4  5  1  0  0  0  0
  5 23  1  0  0  0  0
  5 24  1  0  0  0  0
  5 25  1  0  0  0  0
  6 16  1  0  0  0  0
  6  7  1  0  0  0  0
  7  8  1  0  0  0  0
  7 26  1  0  0  0  0
  7 27  1  0  0  0  0
  8  9  2  0  0  0  0
  8 10  1  0  0  0  0
 10 11  1  0  0  0  0
 10 28  1  0  0  0  0
 11 12  1  0  0  0  0
 11 13  1  0  0  0  0
 11 29  1  0  0  0  0
 12 30  1  0  0  0  0
 12 31  1  0  0  0  0
 12 32  1  0  0  0  0
 13 14  1  0  0  0  0
 13 15  1  0  0  0  0
 13 33  1  0  0  0  0
 14 34  1  0  0  0  0
 14 35  1  0  0  0  0
 14 36  1  0  0  0  0
 15 37  1  0  0  0  0
 15 38  1  0  0  0  0
 15 39  1  0  0  0  0
 16 17  2  0  0  0  0
 16 18  1  0  0  0  0
M  END
> <s_m_source_file>
AV-unprocessed.smi

> <i_m_source_file_index>
1362

> <i_lp_mmshare_version>
43012

> <i_f3d_flags>
0

> <s_epik_input>
W0NIM11jMW5jKFtDSDNdKWMoYyg9TylbbkhdMSlbQ0gyXUMoPU8pW05IXVtDQEhdKFtDSDNdKVtDSF0oW0NIM10pW0NIM10=

> <s_epik_cmdline>
J2VwaWtfcHl0aG9uJywgJy1waCcsICc3LjAnLCAnLXRuJywgJzgnLCAnLW1hJywgJzIwMCcsICctbWV0YWxfYmluZGluZycsICctaW1hZScsICc8aW5maWxlLm1hZT4nLCAnLW9tYWUnLCAnPG91dGZpbGUubWFlPic=

> <r_lp_tautomer_probability>
0.156392

> <r_epik_Ionization_Penalty>
0.0140737

> <r_epik_Ionization_Penalty_Charging>
0.0139511

> <r_epik_Ionization_Penalty_Neutral>
0.000122633

> <r_epik_State_Penalty>
1.53034

> <r_epik_Charging_Adjusted_Penalty>
1.54429

> <i_epik_Tot_Q>
0

> <i_epik_Tot_abs_Q>
0

> <r_epik_Metal_State_Penalty>
1.70655

> <b_epik_Metal_Only>
0

> <s_lp_Force_Field>
OPLS_2005

> <r_lp_Energy>
10.7391

> <b_lp_Chiralities_Consistent>
1

> <s_lp_Variant>
AV-unprocessed.smi:1362-4

> <Gold.Version>
5.8.1

> <Gold.Id.Protein>
6NUR|6NUR_protein|mol2

> <Gold.PLP.Fitness>
42.0772

> <Gold.PLP.PLP>
-39.2360

> <Gold.PLP.part.hbond>
-2.0000

> <Gold.PLP.part.metal>
0.0000

> <Gold.PLP.part.buried>
-2.2892

> <Gold.PLP.part.nonpolar>
-36.1460

> <Gold.PLP.part.repulsive>
0.5807

> <Gold.PLP.ligand.clash>
0.0000

> <Gold.PLP.ligand.torsion>
0.0913

> <Gold.PLP.Chemscore.Hbond>
1.0000

> <Gold.PLP.Chemscore.CHOScore>
0.0000

> <Gold.PLP.Chemscore.Metal>
0.0000

> <Gold.Chemscore.Hbonds>
donor molecule, donor type, donor heavy atom, donor atom, acceptor molecule, acceptor atom, score
      L1  H     3    19       P1  7948  0.99

> <Gold.PLP.Chemscore.Internal.Correction>
0.0239

> <Gold.Rescore>
     Score         DG    S(hbond)    S(metal)    S(lipo)     H(rot)  DE(clash)    DE(int)     intcor
     13.29     -14.66       0.91        0.00      89.33       1.69       0.07       1.29       ----

> <Gold.Chemscore.Fitness>
13.2884

> <Gold.Chemscore.DG>
-14.6551

> <Gold.Chemscore.ZeroCoef>
-5.4800

> <Gold.Chemscore.Hbond>
0.9145

> <Gold.Chemscore.Metal>
0.0000

> <Gold.Chemscore.Lipo>
89.3275

> <Gold.Chemscore.Internal_Hbond>
0.0000

> <Gold.Chemscore.DEClash>
0.0727

> <Gold.Chemscore.DEInternal>
1.2940

> <Gold.Chemscore.Rot>
1.6916

> <Gold.Chemscore.Internal.Correction>
   9.000000E+99

> <Gold.Chemscore.Hbonds>
donor molecule, donor type, donor heavy atom, donor atom, acceptor molecule, acceptor atom, score
      L1  H     3    19       P1  7948  0.90

> <Gold.Chemscore.Hbond.Weighted>
-3.0543

> <Gold.Chemscore.Metal.Weighted>
-0.0000

> <Gold.Chemscore.Lipo.Weighted>
-10.4513

> <Gold.Chemscore.Internal_Hbond.Weighted>
0.0000

> <Gold.Chemscore.DEClash.Weighted>
0.0727

> <Gold.Chemscore.DEInternal.Weighted>
1.2940

> <Gold.Chemscore.Rot.Weighted>
4.3305

> <Gold.Chemscore.Internal.Correction.Weighted>
   9.000000E+99

> <Gold.Protein.RotatedTorsions>
[ 6907 6896 6895 6894 ] final   31.34 input  -60.11 | X-H torsion
[ 7974 7965 7964 7962 ] final -134.09 input  175.53 | X-H torsion
[ 8008 7997 7996 7995 ] final -165.07 input   59.86 | X-H torsion
[ 10167 10162 10161 10158 ] final -160.11 input  -65.29 | X-H torsion
[ 10718 10713 10712 10709 ] final -136.11 input   66.30 | X-H torsion
[ 10763 10752 10751 10750 ] final  165.92 input  -60.55 | X-H torsion
[ 11005 11000 10999 10996 ] final   -3.29 input  -57.11 | X-H torsion

> <Gold.Protein.ActiveResidues>
 VAL166  LYS551  ARG553  GLY616  TRP617  ASP618  TYR619  PRO620  LYS621  CYS622 
 ASP623  PHE694  ASN695  SER759  ASP760  ASP761  ALA762  ILE779  LEU786  VAL792 
 PHE793  MET794  SER795  GLU796  ALA797  LYS798  CYS799  TRP800  GLU811  SER814 

> <Gold.Protein.RotatedAtoms>
  152.0588  134.9607  160.0574 H   0  0  0  0  0  0  0  0  0  0  0  0  # atno 6907 bound_to 6896
  152.0978  133.4229  159.4581 H   0  0  0  0  0  0  0  0  0  0  0  0  # atno 6908 bound_to 6896
  150.6838  134.2715  159.4633 H   0  0  0  0  0  0  0  0  0  0  0  0  # atno 6909 bound_to 6896
  144.9134  140.6924  143.5010 H   0  0  0  0  0  0  0  0  0  0  0  0  # atno 7974 bound_to 7965
  155.8446  140.0953  157.1713 H   0  0  0  0  0  0  0  0  0  0  0  0  # atno 8008 bound_to 7997
  154.3983  140.1394  156.3832 H   0  0  0  0  0  0  0  0  0  0  0  0  # atno 8009 bound_to 7997
  155.8027  140.3452  155.5414 H   0  0  0  0  0  0  0  0  0  0  0  0  # atno 8010 bound_to 7997
  139.6564  143.9991  152.2197 H   0  0  0  0  0  0  0  0  0  0  0  0  # atno 10167 bound_to 10162
  156.2735  130.7279  151.1254 H   0  0  0  0  0  0  0  0  0  0  0  0  # atno 10718 bound_to 10713
  154.3313  135.2755  155.2470 H   0  0  0  0  0  0  0  0  0  0  0  0  # atno 10763 bound_to 10752
  154.4781  135.5865  153.6373 H   0  0  0  0  0  0  0  0  0  0  0  0  # atno 10764 bound_to 10752
  152.9866  135.6104  154.3506 H   0  0  0  0  0  0  0  0  0  0  0  0  # atno 10765 bound_to 10752
  140.6677  133.9264  155.8475 H   0  0  0  0  0  0  0  0  0  0  0  0  # atno 11005 bound_to 11000
  145.3416  139.1730  143.4483 LP  0  0  0  0  0  0  0  0  0  0  0  0  # atno 17320 bound_to 7965
  146.3170  140.3458  142.8652 LP  0  0  0  0  0  0  0  0  0  0  0  0  # atno 17321 bound_to 7965
  139.9718  144.6488  150.7982 LP  0  0  0  0  0  0  0  0  0  0  0  0  # atno 17342 bound_to 10162
  140.7561  143.3059  151.2963 LP  0  0  0  0  0  0  0  0  0  0  0  0  # atno 17343 bound_to 10162
  157.7291  131.0626  150.5787 LP  0  0  0  0  0  0  0  0  0  0  0  0  # atno 17370 bound_to 10713
  156.5886  130.4323  149.5946 LP  0  0  0  0  0  0  0  0  0  0  0  0  # atno 17371 bound_to 10713
  141.0416  134.0613  157.3894 LP  0  0  0  0  0  0  0  0  0  0  0  0  # atno 17394 bound_to 11000
  139.8992  135.0157  156.7184 LP  0  0  0  0  0  0  0  0  0  0  0  0  # atno 17395 bound_to 11000

$$$$
