AV-unprocessed.smi:3029|AV-procd|sdf|11529|dock1
  -GOLD-   2272016473D 1   1.00000     0.00000
 Structure written by MMmdl.
 41 42  0  0  0  0  0  0  0  0  3 V2000
  150.5171  136.8762  159.9565 O   0  0  0  0  0  0  0  0  0  0  0  0
  150.8077  137.4632  158.9142 C   0  0  0  0  0  0  0  0  0  0  0  0
  151.9205  138.4158  158.8428 C   0  0  0  0  0  0  0  0  0  0  0  0
  152.2430  139.0437  157.6949 C   0  0  0  0  0  0  0  0  0  0  0  0
  151.4912  138.7893  156.4812 C   0  0  0  0  0  0  0  0  0  0  0  0
  151.8387  139.4462  155.2403 N   0  3  0  0  0  0  0  0  0  0  0  0
  153.0211  139.6621  154.9914 O   0  0  0  0  0  0  0  0  0  0  0  0
  150.9374  139.7680  154.4726 O   0  5  0  0  0  0  0  0  0  0  0  0
  150.4647  137.9189  156.5508 C   0  0  0  0  0  0  0  0  0  0  0  0
  150.1162  137.2688  157.7505 N   0  0  0  0  0  0  0  0  0  0  0  0
  148.9779  136.3427  157.7002 C   0  0  0  0  0  0  0  0  0  0  0  0
  147.9247  136.6993  158.7603 C   0  0  0  0  0  0  0  0  0  0  0  0
  146.8624  135.7064  158.7419 N   0  0  0  0  0  0  0  0  0  0  0  0
  145.7250  136.1349  159.5475 C   0  0  2  0  0  0  0  0  0  0  0  0
  145.2388  137.4668  158.9395 C   0  0  0  0  0  0  0  0  0  0  0  0
  144.0956  138.0829  159.7544 C   0  0  0  0  0  0  0  0  0  0  0  0
  144.5219  138.2833  161.2125 C   0  0  0  0  0  0  0  0  0  0  0  0
  144.9822  136.9570  161.8336 C   0  0  0  0  0  0  0  0  0  0  0  0
  146.1351  136.2959  161.0404 C   0  0  1  0  0  0  0  0  0  0  0  0
  146.5505  134.9635  161.7161 C   0  0  0  0  0  0  0  0  0  0  0  0
  147.1374  135.1962  162.8907 F   0  0  0  0  0  0  0  0  0  0  0  0
  145.5004  134.1659  161.9101 F   0  0  0  0  0  0  0  0  0  0  0  0
  147.4079  134.3060  160.9349 F   0  0  0  0  0  0  0  0  0  0  0  0
  152.4946  138.6192  159.7349 H   0  0  0  0  0  0  0  0  0  0  0  0
  153.0704  139.7380  157.6923 H   0  0  0  0  0  0  0  0  0  0  0  0
  149.8476  137.6566  155.7035 H   0  0  0  0  0  0  0  0  0  0  0  0
  148.5269  136.3489  156.7059 H   0  0  0  0  0  0  0  0  0  0  0  0
  149.3202  135.3171  157.8494 H   0  0  0  0  0  0  0  0  0  0  0  0
  148.3794  136.7302  159.7513 H   0  0  0  0  0  0  0  0  0  0  0  0
  147.5080  137.6870  158.5593 H   0  0  0  0  0  0  0  0  0  0  0  0
  147.2160  134.8273  159.0915 H   0  0  0  0  0  0  0  0  0  0  0  0
  144.9092  135.4126  159.4814 H   0  0  0  0  0  0  0  0  0  0  0  0
  146.0642  138.1794  158.8923 H   0  0  0  0  0  0  0  0  0  0  0  0
  144.9075  137.3107  157.9119 H   0  0  0  0  0  0  0  0  0  0  0  0
  143.7992  139.0372  159.3182 H   0  0  0  0  0  0  0  0  0  0  0  0
  143.2195  137.4346  159.7107 H   0  0  0  0  0  0  0  0  0  0  0  0
  145.3294  139.0148  161.2643 H   0  0  0  0  0  0  0  0  0  0  0  0
  143.6931  138.6954  161.7887 H   0  0  0  0  0  0  0  0  0  0  0  0
  145.2908  137.1398  162.8632 H   0  0  0  0  0  0  0  0  0  0  0  0
  144.1345  136.2728  161.8863 H   0  0  0  0  0  0  0  0  0  0  0  0
  146.9905  136.9722  161.0875 H   0  0  0  0  0  0  0  0  0  0  0  0
  1  2  2  0  0  0  0
  2 10  1  0  0  0  0
  2  3  1  0  0  0  0
  3  4  2  0  0  0  0
  3 24  1  0  0  0  0
  4  5  1  0  0  0  0
  4 25  1  0  0  0  0
  5  6  1  0  0  0  0
  5  9  2  0  0  0  0
  6  7  2  0  0  0  0
  6  8  1  0  0  0  0
  9 10  1  0  0  0  0
  9 26  1  0  0  0  0
 10 11  1  0  0  0  0
 11 12  1  0  0  0  0
 11 27  1  0  0  0  0
 11 28  1  0  0  0  0
 12 13  1  0  0  0  0
 12 29  1  0  0  0  0
 12 30  1  0  0  0  0
 13 14  1  0  0  0  0
 13 31  1  0  0  0  0
 14 19  1  0  0  0  0
 14 15  1  0  0  0  0
 14 32  1  0  0  0  0
 15 16  1  0  0  0  0
 15 33  1  0  0  0  0
 15 34  1  0  0  0  0
 16 17  1  0  0  0  0
 16 35  1  0  0  0  0
 16 36  1  0  0  0  0
 17 18  1  0  0  0  0
 17 37  1  0  0  0  0
 17 38  1  0  0  0  0
 18 19  1  0  0  0  0
 18 39  1  0  0  0  0
 18 40  1  0  0  0  0
 19 20  1  0  0  0  0
 19 41  1  0  0  0  0
 20 21  1  0  0  0  0
 20 22  1  0  0  0  0
 20 23  1  0  0  0  0
M  CHG  1   6   1
M  CHG  1   8  -1
M  END
> <s_m_source_file>
AV-unprocessed.smi

> <i_m_source_file_index>
3029

> <i_lp_mmshare_version>
43012

> <i_f3d_flags>
0

> <s_epik_input>
Tz1jMVtjSF1bY0hdYyhbTitdKD1PKVtPLV0pW2NIXW4xW0NIMl1bQ0gyXVtOSF1bQ0BASF0yW0NIMl1bQ0gyXVtDSDJdW0NIMl1bQ0BIXTJDKEYpKEYpRg==

> <s_epik_cmdline>
J2VwaWtfcHl0aG9uJywgJy1waCcsICc3LjAnLCAnLXRuJywgJzgnLCAnLW1hJywgJzIwMCcsICctbWV0YWxfYmluZGluZycsICctaW1hZScsICc8aW5maWxlLm1hZT4nLCAnLW9tYWUnLCAnPG91dGZpbGUubWFlPic=

> <r_lp_tautomer_probability>
1

> <r_epik_Ionization_Penalty>
1.65565

> <r_epik_Ionization_Penalty_Charging>
3.32684e-10

> <r_epik_Ionization_Penalty_Neutral>
1.65565

> <r_epik_State_Penalty>
1.75811

> <r_epik_Charging_Adjusted_Penalty>
1.75811

> <i_epik_Tot_Q>
0

> <i_epik_Tot_abs_Q>
2

> <r_epik_Metal_State_Penalty>
1.75811

> <b_epik_Metal_Only>
0

> <s_lp_Force_Field>
OPLS_2005

> <r_lp_Energy>
33.0444

> <b_lp_Chiralities_Consistent>
1

> <s_lp_Variant>
AV-unprocessed.smi:3029-5

> <Gold.Version>
5.8.1

> <Gold.Id.Protein>
6NUR|6NUR_protein|mol2

> <Gold.PLP.Fitness>
41.5452

> <Gold.PLP.PLP>
-33.9698

> <Gold.PLP.part.hbond>
-4.7467

> <Gold.PLP.part.metal>
0.0000

> <Gold.PLP.part.buried>
-3.4688

> <Gold.PLP.part.nonpolar>
-25.3176

> <Gold.PLP.part.repulsive>
0.1421

> <Gold.PLP.ligand.clash>
0.0000

> <Gold.PLP.ligand.torsion>
0.7332

> <Gold.PLP.Chemscore.Hbond>
3.0000

> <Gold.PLP.Chemscore.CHOScore>
0.0000

> <Gold.PLP.Chemscore.Metal>
0.0000

> <Gold.Chemscore.Hbonds>
donor molecule, donor type, donor heavy atom, donor atom, acceptor molecule, acceptor atom, score
      P1  H  6896  6908       L1     1  1.00
      P1  H  7989  7998       L1     8  1.00
      P1  H  7997  8009       L1     7  1.00

> <Gold.PLP.Chemscore.Internal.Correction>
0.0417

> <Gold.Rescore>
     Score         DG    S(hbond)    S(metal)    S(lipo)     H(rot)  DE(clash)    DE(int)     intcor
     11.73     -15.52       2.75        0.00      47.84       1.86       0.38       3.41       ----

> <Gold.Chemscore.Fitness>
11.7282

> <Gold.Chemscore.DG>
-15.5156

> <Gold.Chemscore.ZeroCoef>
-5.4800

> <Gold.Chemscore.Hbond>
2.7531

> <Gold.Chemscore.Metal>
0.0000

> <Gold.Chemscore.Lipo>
47.8442

> <Gold.Chemscore.Internal_Hbond>
0.0000

> <Gold.Chemscore.DEClash>
0.3795

> <Gold.Chemscore.DEInternal>
3.4079

> <Gold.Chemscore.Rot>
1.8584

> <Gold.Chemscore.Internal.Correction>
   9.000000E+99

> <Gold.Chemscore.Hbonds>
donor molecule, donor type, donor heavy atom, donor atom, acceptor molecule, acceptor atom, score
      P1  H  6896  6908       L1     1  0.74
      P1  H  7989  7998       L1     8  0.45
      P1  H  7997  8009       L1     7  1.00

> <Gold.Chemscore.Hbond.Weighted>
-9.1954

> <Gold.Chemscore.Metal.Weighted>
-0.0000

> <Gold.Chemscore.Lipo.Weighted>
-5.5978

> <Gold.Chemscore.Internal_Hbond.Weighted>
0.0000

> <Gold.Chemscore.DEClash.Weighted>
0.3795

> <Gold.Chemscore.DEInternal.Weighted>
3.4079

> <Gold.Chemscore.Rot.Weighted>
4.7576

> <Gold.Chemscore.Internal.Correction.Weighted>
   9.000000E+99

> <Gold.Protein.RotatedTorsions>
[ 6907 6896 6895 6894 ] final -145.14 input  -60.11 | X-H torsion
[ 7974 7965 7964 7962 ] final -126.00 input  175.53 | X-H torsion
[ 8008 7997 7996 7995 ] final -130.92 input   59.86 | X-H torsion
[ 10167 10162 10161 10158 ] final  -34.22 input  -65.29 | X-H torsion
[ 10718 10713 10712 10709 ] final  -34.14 input   66.30 | X-H torsion
[ 10763 10752 10751 10750 ] final  147.20 input  -60.55 | X-H torsion
[ 11005 11000 10999 10996 ] final -145.14 input  -57.11 | X-H torsion

> <Gold.Protein.ActiveResidues>
 VAL166  LYS551  ARG553  GLY616  TRP617  ASP618  TYR619  PRO620  LYS621  CYS622 
 ASP623  PHE694  ASN695  SER759  ASP760  ASP761  ALA762  ILE779  LEU786  VAL792 
 PHE793  MET794  SER795  GLU796  ALA797  LYS798  CYS799  TRP800  GLU811  SER814 

> <Gold.Protein.RotatedAtoms>
  151.1236  133.5086  159.2601 H   0  0  0  0  0  0  0  0  0  0  0  0  # atno 6907 bound_to 6896
  151.1834  135.0370  159.8812 H   0  0  0  0  0  0  0  0  0  0  0  0  # atno 6908 bound_to 6896
  152.5457  134.1085  159.8402 H   0  0  0  0  0  0  0  0  0  0  0  0  # atno 6909 bound_to 6896
  144.9918  140.7739  143.4550 H   0  0  0  0  0  0  0  0  0  0  0  0  # atno 7974 bound_to 7965
  155.3037  140.0454  157.3031 H   0  0  0  0  0  0  0  0  0  0  0  0  # atno 8008 bound_to 7997
  154.5472  140.2306  155.8511 H   0  0  0  0  0  0  0  0  0  0  0  0  # atno 8009 bound_to 7997
  156.1934  140.3044  155.9386 H   0  0  0  0  0  0  0  0  0  0  0  0  # atno 8010 bound_to 7997
  140.7190  143.3563  151.2052 H   0  0  0  0  0  0  0  0  0  0  0  0  # atno 10167 bound_to 10162
  156.3542  130.4313  149.7679 H   0  0  0  0  0  0  0  0  0  0  0  0  # atno 10718 bound_to 10713
  154.0344  135.2895  155.3364 H   0  0  0  0  0  0  0  0  0  0  0  0  # atno 10763 bound_to 10752
  154.6968  135.5204  153.8473 H   0  0  0  0  0  0  0  0  0  0  0  0  # atno 10764 bound_to 10752
  153.0626  135.6619  154.0553 H   0  0  0  0  0  0  0  0  0  0  0  0  # atno 10765 bound_to 10752
  140.7953  134.2921  157.4999 H   0  0  0  0  0  0  0  0  0  0  0  0  # atno 11005 bound_to 11000
  145.2275  139.2130  143.5060 LP  0  0  0  0  0  0  0  0  0  0  0  0  # atno 17320 bound_to 7965
  146.3433  140.2146  142.8590 LP  0  0  0  0  0  0  0  0  0  0  0  0  # atno 17321 bound_to 7965
  139.7105  143.9384  152.2945 LP  0  0  0  0  0  0  0  0  0  0  0  0  # atno 17342 bound_to 10162
  139.9107  144.6858  150.8565 LP  0  0  0  0  0  0  0  0  0  0  0  0  # atno 17343 bound_to 10162
  156.4868  130.8066  151.3078 LP  0  0  0  0  0  0  0  0  0  0  0  0  # atno 17370 bound_to 10713
  157.7465  130.9988  150.2866 LP  0  0  0  0  0  0  0  0  0  0  0  0  # atno 17371 bound_to 10713
  139.8727  134.9398  156.3752 LP  0  0  0  0  0  0  0  0  0  0  0  0  # atno 17394 bound_to 11000
  140.9349  133.7554  156.0072 LP  0  0  0  0  0  0  0  0  0  0  0  0  # atno 17395 bound_to 11000

$$$$
