AV-unprocessed.smi:1145|AV-procd|sdf|4882|dock6
  -GOLD-   22720 3453D 1   1.00000     0.00000
 Structure written by MMmdl.
 36 37  0  0  0  0  0  0  0  0  1 V2000
  153.6220  139.5396  160.5162 C   0  0  0  0  0  0  0  0  0  0  0  0
  153.4772  140.9528  159.9337 C   0  0  2  0  0  0  0  0  0  0  0  0
  153.1508  141.9917  161.0235 C   0  0  0  0  0  0  0  0  0  0  0  0
  152.9211  143.3149  160.4690 N   0  0  0  0  0  0  0  0  0  0  0  0
  152.4549  144.4422  161.1119 C   0  0  0  0  0  0  0  0  0  0  0  0
  152.4126  145.4480  160.1895 C   0  0  0  0  0  0  0  0  0  0  0  0
  152.8800  144.8313  158.9953 C   0  0  0  0  0  0  0  0  0  0  0  0
  153.1837  143.5547  159.1656 N   0  0  0  0  0  0  0  0  0  0  0  0
  152.4333  140.9575  158.9110 N   0  0  0  0  0  0  0  0  0  0  0  0
  152.3872  140.1547  157.8371 C   0  0  0  0  0  0  0  0  0  0  0  0
  153.2162  139.2713  157.6152 O   0  0  0  0  0  0  0  0  0  0  0  0
  151.2283  140.3927  156.8602 C   0  0  2  0  0  0  0  0  0  0  0  0
  151.3186  139.4507  155.6484 C   0  0  0  0  0  0  0  0  0  0  0  0
  150.1262  139.6569  154.7009 C   0  0  0  0  0  0  0  0  0  0  0  0
  149.8320  141.1349  154.4037 C   0  0  0  0  0  0  0  0  0  0  0  0
  149.1402  141.4299  153.4318 O   0  0  0  0  0  0  0  0  0  0  0  0
  150.3100  142.0752  155.2378 N   0  0  0  0  0  0  0  0  0  0  0  0
  151.2108  141.8560  156.3699 C   0  0  0  0  0  0  0  0  0  0  0  0
  154.4138  139.5038  161.2649 H   0  0  0  0  0  0  0  0  0  0  0  0
  153.8743  138.8181  159.7381 H   0  0  0  0  0  0  0  0  0  0  0  0
  152.6982  139.2082  160.9914 H   0  0  0  0  0  0  0  0  0  0  0  0
  154.4351  141.2289  159.4886 H   0  0  0  0  0  0  0  0  0  0  0  0
  152.2764  141.6857  161.6005 H   0  0  0  0  0  0  0  0  0  0  0  0
  153.9786  142.0659  161.7296 H   0  0  0  0  0  0  0  0  0  0  0  0
  152.1984  144.4347  162.1611 H   0  0  0  0  0  0  0  0  0  0  0  0
  152.0971  146.4694  160.3442 H   0  0  0  0  0  0  0  0  0  0  0  0
  153.0060  145.2704  158.0167 H   0  0  0  0  0  0  0  0  0  0  0  0
  151.7094  141.6548  159.0081 H   0  0  0  0  0  0  0  0  0  0  0  0
  150.2883  140.1902  157.3775 H   0  0  0  0  0  0  0  0  0  0  0  0
  152.2478  139.6244  155.1023 H   0  0  0  0  0  0  0  0  0  0  0  0
  151.3454  138.4111  155.9779 H   0  0  0  0  0  0  0  0  0  0  0  0
  150.2968  139.1243  153.7648 H   0  0  0  0  0  0  0  0  0  0  0  0
  149.2290  139.2257  155.1462 H   0  0  0  0  0  0  0  0  0  0  0  0
  150.0739  143.0356  155.0335 H   0  0  0  0  0  0  0  0  0  0  0  0
  150.9160  142.5198  157.1837 H   0  0  0  0  0  0  0  0  0  0  0  0
  152.2077  142.1704  156.0569 H   0  0  0  0  0  0  0  0  0  0  0  0
  1  2  1  0  0  0  0
  1 19  1  0  0  0  0
  1 20  1  0  0  0  0
  1 21  1  0  0  0  0
  2  3  1  0  0  0  0
  2  9  1  0  0  0  0
  2 22  1  0  0  0  0
  3  4  1  0  0  0  0
  3 23  1  0  0  0  0
  3 24  1  0  0  0  0
  4  8  1  0  0  0  0
  4  5  1  0  0  0  0
  5  6  2  0  0  0  0
  5 25  1  0  0  0  0
  6  7  1  0  0  0  0
  6 26  1  0  0  0  0
  7  8  2  0  0  0  0
  7 27  1  0  0  0  0
  9 10  1  0  0  0  0
  9 28  1  0  0  0  0
 10 11  2  0  0  0  0
 10 12  1  0  0  0  0
 12 18  1  0  0  0  0
 12 13  1  0  0  0  0
 12 29  1  0  0  0  0
 13 14  1  0  0  0  0
 13 30  1  0  0  0  0
 13 31  1  0  0  0  0
 14 15  1  0  0  0  0
 14 32  1  0  0  0  0
 14 33  1  0  0  0  0
 15 16  2  0  0  0  0
 15 17  1  0  0  0  0
 17 18  1  0  0  0  0
 17 34  1  0  0  0  0
 18 35  1  0  0  0  0
 18 36  1  0  0  0  0
M  END
> <s_m_source_file>
AV-unprocessed.smi

> <i_m_source_file_index>
1145

> <i_lp_mmshare_version>
43012

> <i_f3d_flags>
0

> <s_epik_input>
bjFbY0hdW2NIXVtjSF1uMVtDSDJdW0NAQEhdKFtDSDNdKVtOSF1DKD1PKVtDQEBIXTJbQ0gyXVtDSDJdQyg9TylbTkhdW0NIMl0y

> <s_epik_cmdline>
J2VwaWtfcHl0aG9uJywgJy1waCcsICc3LjAnLCAnLXRuJywgJzgnLCAnLW1hJywgJzIwMCcsICctbWV0YWxfYmluZGluZycsICctaW1hZScsICc8aW5maWxlLm1hZT4nLCAnLW9tYWUnLCAnPG91dGZpbGUubWFlPic=

> <r_lp_tautomer_probability>
1

> <r_epik_Ionization_Penalty>
0.000314064

> <r_epik_Ionization_Penalty_Charging>
0

> <r_epik_Ionization_Penalty_Neutral>
0.000314064

> <r_epik_State_Penalty>
-0

> <r_epik_Charging_Adjusted_Penalty>
0

> <i_epik_Tot_Q>
0

> <i_epik_Tot_abs_Q>
0

> <r_epik_Metal_State_Penalty>
-0

> <b_epik_Metal_Only>
0

> <s_lp_Force_Field>
OPLS_2005

> <r_lp_Energy>
12.6815

> <b_lp_Chiralities_Consistent>
1

> <s_lp_Variant>
AV-unprocessed.smi:1145-1

> <Gold.Version>
5.8.1

> <Gold.Id.Protein>
6NUR|6NUR_protein|mol2

> <Gold.PLP.Fitness>
51.6216

> <Gold.PLP.PLP>
-44.4996

> <Gold.PLP.part.hbond>
-2.9278

> <Gold.PLP.part.metal>
0.0000

> <Gold.PLP.part.buried>
-3.8503

> <Gold.PLP.part.nonpolar>
-37.1249

> <Gold.PLP.part.repulsive>
1.0988

> <Gold.PLP.ligand.clash>
0.0000

> <Gold.PLP.ligand.torsion>
0.1227

> <Gold.PLP.Chemscore.Hbond>
2.4487

> <Gold.PLP.Chemscore.CHOScore>
0.0000

> <Gold.PLP.Chemscore.Metal>
0.0000

> <Gold.Chemscore.Hbonds>
donor molecule, donor type, donor heavy atom, donor atom, acceptor molecule, acceptor atom, score
      L1  H    17    34       P1  8028  0.65
      P1  H  7997  8009       L1    11  1.00
      P1  H  8011  8017       L1    16  0.91

> <Gold.PLP.Chemscore.Internal.Correction>
0.0213

> <Gold.Rescore>
     Score         DG    S(hbond)    S(metal)    S(lipo)     H(rot)  DE(clash)    DE(int)     intcor
     16.31     -17.69       1.85        0.00      90.96       1.80       0.34       1.05       ----

> <Gold.Chemscore.Fitness>
16.3052

> <Gold.Chemscore.DG>
-17.6924

> <Gold.Chemscore.ZeroCoef>
-5.4800

> <Gold.Chemscore.Hbond>
1.8484

> <Gold.Chemscore.Metal>
0.0000

> <Gold.Chemscore.Lipo>
90.9582

> <Gold.Chemscore.Internal_Hbond>
0.0000

> <Gold.Chemscore.DEClash>
0.3411

> <Gold.Chemscore.DEInternal>
1.0460

> <Gold.Chemscore.Rot>
1.7982

> <Gold.Chemscore.Internal.Correction>
   9.000000E+99

> <Gold.Chemscore.Hbonds>
donor molecule, donor type, donor heavy atom, donor atom, acceptor molecule, acceptor atom, score
      L1  H    17    34       P1  8028  0.62
      P1  H  7997  8009       L1    11  0.45
      P1  H  8011  8017       L1    16  0.84

> <Gold.Chemscore.Hbond.Weighted>
-6.1738

> <Gold.Chemscore.Metal.Weighted>
-0.0000

> <Gold.Chemscore.Lipo.Weighted>
-10.6421

> <Gold.Chemscore.Internal_Hbond.Weighted>
0.0000

> <Gold.Chemscore.DEClash.Weighted>
0.3411

> <Gold.Chemscore.DEInternal.Weighted>
1.0460

> <Gold.Chemscore.Rot.Weighted>
4.6035

> <Gold.Chemscore.Internal.Correction.Weighted>
   9.000000E+99

> <Gold.Protein.RotatedTorsions>
[ 6907 6896 6895 6894 ] final    6.11 input  -60.11 | X-H torsion
[ 7974 7965 7964 7962 ] final   30.19 input  175.53 | X-H torsion
[ 8008 7997 7996 7995 ] final  170.68 input   59.86 | X-H torsion
[ 10167 10162 10161 10158 ] final  170.82 input  -65.29 | X-H torsion
[ 10718 10713 10712 10709 ] final   22.64 input   66.30 | X-H torsion
[ 10763 10752 10751 10750 ] final -124.44 input  -60.55 | X-H torsion
[ 11005 11000 10999 10996 ] final   84.15 input  -57.11 | X-H torsion

> <Gold.Protein.ActiveResidues>
 VAL166  LYS551  ARG553  GLY616  TRP617  ASP618  TYR619  PRO620  LYS621  CYS622 
 ASP623  PHE694  ASN695  SER759  ASP760  ASP761  ALA762  ILE779  LEU786  VAL792 
 PHE793  MET794  SER795  GLU796  ALA797  LYS798  CYS799  TRP800  GLU811  SER814 

> <Gold.Protein.RotatedAtoms>
  151.6685  135.0979  160.0193 H   0  0  0  0  0  0  0  0  0  0  0  0  # atno 6907 bound_to 6896
  152.3906  133.6669  159.6242 H   0  0  0  0  0  0  0  0  0  0  0  0  # atno 6908 bound_to 6896
  150.7822  133.8878  159.3345 H   0  0  0  0  0  0  0  0  0  0  0  0  # atno 6909 bound_to 6896
  146.1627  139.6822  142.9022 H   0  0  0  0  0  0  0  0  0  0  0  0  # atno 7974 bound_to 7965
  156.1343  140.1531  156.9018 H   0  0  0  0  0  0  0  0  0  0  0  0  # atno 8008 bound_to 7997
  154.4934  140.0845  156.7684 H   0  0  0  0  0  0  0  0  0  0  0  0  # atno 8009 bound_to 7997
  155.4198  140.3422  155.4272 H   0  0  0  0  0  0  0  0  0  0  0  0  # atno 8010 bound_to 7997
  139.5029  144.3554  151.9879 H   0  0  0  0  0  0  0  0  0  0  0  0  # atno 10167 bound_to 10162
  157.1551  130.6692  149.6025 H   0  0  0  0  0  0  0  0  0  0  0  0  # atno 10718 bound_to 10713
  154.8723  135.4063  154.3106 H   0  0  0  0  0  0  0  0  0  0  0  0  # atno 10763 bound_to 10752
  153.3950  135.7016  153.6472 H   0  0  0  0  0  0  0  0  0  0  0  0  # atno 10764 bound_to 10752
  153.5239  135.3681  155.2616 H   0  0  0  0  0  0  0  0  0  0  0  0  # atno 10765 bound_to 10752
  139.9009  134.8196  156.2406 H   0  0  0  0  0  0  0  0  0  0  0  0  # atno 11005 bound_to 11000
  145.4548  141.0430  143.2784 LP  0  0  0  0  0  0  0  0  0  0  0  0  # atno 17320 bound_to 7965
  144.8049  139.6071  143.7055 LP  0  0  0  0  0  0  0  0  0  0  0  0  # atno 17321 bound_to 7965
  140.2991  144.3667  150.6065 LP  0  0  0  0  0  0  0  0  0  0  0  0  # atno 17342 bound_to 10162
  140.5887  143.2169  151.7293 LP  0  0  0  0  0  0  0  0  0  0  0  0  # atno 17343 bound_to 10162
  155.9763  130.4731  150.6522 LP  0  0  0  0  0  0  0  0  0  0  0  0  # atno 17370 bound_to 10713
  157.4184  131.0833  151.1154 LP  0  0  0  0  0  0  0  0  0  0  0  0  # atno 17371 bound_to 10713
  141.0287  133.7001  156.1392 LP  0  0  0  0  0  0  0  0  0  0  0  0  # atno 17394 bound_to 11000
  140.7128  134.4443  157.5580 LP  0  0  0  0  0  0  0  0  0  0  0  0  # atno 17395 bound_to 11000

$$$$
