AV-unprocessed.smi:2224|AV-procd|sdf|8991|dock6
  -GOLD-   2272012203D 1   1.00000     0.00000
 Structure written by MMmdl.
 44 46  0  0  0  0  0  0  0  0  1 V2000
  151.4761  145.4698  159.4953 C   0  0  0  0  0  0  0  0  0  0  0  0
  151.9513  144.0550  159.2391 C   0  0  0  0  0  0  0  0  0  0  0  0
  151.4891  143.3255  158.1270 C   0  0  0  0  0  0  0  0  0  0  0  0
  151.9692  142.0133  157.9469 C   0  0  0  0  0  0  0  0  0  0  0  0
  151.5177  141.1723  156.7712 C   0  0  0  0  0  0  0  0  0  0  0  0
  152.8469  141.4274  158.7896 N   0  0  0  0  0  0  0  0  0  0  0  0
  153.2972  142.1205  159.8646 C   0  0  0  0  0  0  0  0  0  0  0  0
  154.2187  141.5977  160.8099 N   0  0  0  0  0  0  0  0  0  0  0  0
  154.6640  140.3345  160.9269 C   0  0  0  0  0  0  0  0  0  0  0  0
  154.3299  139.3900  160.2110 O   0  0  0  0  0  0  0  0  0  0  0  0
  155.5293  140.2202  161.9434 N   0  0  0  0  0  0  0  0  0  0  0  0
  156.1736  138.9757  162.3459 C   0  0  2  0  0  0  0  0  0  0  0  0
  155.1637  137.9085  162.7689 C   0  0  1  0  0  0  0  0  0  0  0  0
  154.7405  136.5929  162.2198 C   0  0  0  0  0  0  0  0  0  0  0  0
  154.7826  135.7861  163.5454 C   0  0  0  0  0  0  0  0  0  0  0  0
  155.4417  136.6417  164.5111 O   0  0  0  0  0  0  0  0  0  0  0  0
  156.2633  137.4733  163.7175 C   0  0  2  0  0  0  0  0  0  0  0  0
  156.6490  138.9607  163.8481 C   0  0  0  0  0  0  0  0  0  0  0  0
  158.1386  139.2292  164.0648 C   0  0  0  0  0  0  0  0  0  0  0  0
  155.8988  139.8088  164.8955 C   0  0  0  0  0  0  0  0  0  0  0  0
  152.8691  143.4432  160.1161 C   0  0  0  0  0  0  0  0  0  0  0  0
  150.7316  145.7783  158.7607 H   0  0  0  0  0  0  0  0  0  0  0  0
  152.3148  146.1643  159.4443 H   0  0  0  0  0  0  0  0  0  0  0  0
  151.0277  145.5443  160.4864 H   0  0  0  0  0  0  0  0  0  0  0  0
  150.7860  143.7597  157.4310 H   0  0  0  0  0  0  0  0  0  0  0  0
  150.7490  141.6832  156.1907 H   0  0  0  0  0  0  0  0  0  0  0  0
  151.1075  140.2232  157.1174 H   0  0  0  0  0  0  0  0  0  0  0  0
  152.3603  140.9631  156.1117 H   0  0  0  0  0  0  0  0  0  0  0  0
  154.5693  142.2604  161.4851 H   0  0  0  0  0  0  0  0  0  0  0  0
  155.7518  141.0456  162.4801 H   0  0  0  0  0  0  0  0  0  0  0  0
  156.9174  138.6054  161.6343 H   0  0  0  0  0  0  0  0  0  0  0  0
  154.3157  138.3706  163.2798 H   0  0  0  0  0  0  0  0  0  0  0  0
  153.7447  136.6183  161.7764 H   0  0  0  0  0  0  0  0  0  0  0  0
  155.4496  136.2097  161.4845 H   0  0  0  0  0  0  0  0  0  0  0  0
  153.7831  135.5360  163.9022 H   0  0  0  0  0  0  0  0  0  0  0  0
  155.3388  134.8566  163.4168 H   0  0  0  0  0  0  0  0  0  0  0  0
  157.0550  136.8868  163.2371 H   0  0  0  0  0  0  0  0  0  0  0  0
  158.4601  138.9210  165.0601 H   0  0  0  0  0  0  0  0  0  0  0  0
  158.3767  140.2876  163.9535 H   0  0  0  0  0  0  0  0  0  0  0  0
  158.7522  138.6862  163.3452 H   0  0  0  0  0  0  0  0  0  0  0  0
  156.1872  139.5256  165.9083 H   0  0  0  0  0  0  0  0  0  0  0  0
  154.8159  139.7140  164.8440 H   0  0  0  0  0  0  0  0  0  0  0  0
  156.1251  140.8694  164.7815 H   0  0  0  0  0  0  0  0  0  0  0  0
  153.2363  143.9856  160.9757 H   0  0  0  0  0  0  0  0  0  0  0  0
  1  2  1  0  0  0  0
  1 22  1  0  0  0  0
  1 23  1  0  0  0  0
  1 24  1  0  0  0  0
  2 21  1  0  0  0  0
  2  3  2  0  0  0  0
  3  4  1  0  0  0  0
  3 25  1  0  0  0  0
  4  5  1  0  0  0  0
  4  6  2  0  0  0  0
  5 26  1  0  0  0  0
  5 27  1  0  0  0  0
  5 28  1  0  0  0  0
  6  7  1  0  0  0  0
  7  8  1  0  0  0  0
  7 21  2  0  0  0  0
  8  9  1  0  0  0  0
  8 29  1  0  0  0  0
  9 10  2  0  0  0  0
  9 11  1  0  0  0  0
 11 12  1  0  0  0  0
 11 30  1  0  0  0  0
 12 18  1  0  0  0  0
 12 13  1  0  0  0  0
 12 31  1  0  0  0  0
 13 17  1  0  0  0  0
 13 14  1  0  0  0  0
 13 32  1  0  0  0  0
 14 15  1  0  0  0  0
 14 33  1  0  0  0  0
 14 34  1  0  0  0  0
 15 16  1  0  0  0  0
 15 35  1  0  0  0  0
 15 36  1  0  0  0  0
 16 17  1  0  0  0  0
 17 18  1  0  0  0  0
 17 37  1  0  0  0  0
 18 19  1  0  0  0  0
 18 20  1  0  0  0  0
 19 38  1  0  0  0  0
 19 39  1  0  0  0  0
 19 40  1  0  0  0  0
 20 41  1  0  0  0  0
 20 42  1  0  0  0  0
 20 43  1  0  0  0  0
 21 44  1  0  0  0  0
M  END
> <s_m_source_file>
AV-unprocessed.smi

> <i_m_source_file_index>
2224

> <i_lp_mmshare_version>
43012

> <i_f3d_flags>
0

> <s_epik_input>
W0NIM11jMVtjSF1jKFtDSDNdKW5jKFtjSF0xKVtOSF1DKD1PKVtOSF1bQ0BIXTJDKFtDSDNdKShbQ0gzXSlbQ0BIXShbQ0BASF0yMylPW0NIMl1bQ0gyXTM=

> <s_epik_cmdline>
J2VwaWtfcHl0aG9uJywgJy1waCcsICc3LjAnLCAnLXRuJywgJzgnLCAnLW1hJywgJzIwMCcsICctbWV0YWxfYmluZGluZycsICctaW1hZScsICc8aW5maWxlLm1hZT4nLCAnLW9tYWUnLCAnPG91dGZpbGUubWFlPic=

> <r_lp_tautomer_probability>
1

> <r_epik_Ionization_Penalty>
0.000276544

> <r_epik_Ionization_Penalty_Charging>
0

> <r_epik_Ionization_Penalty_Neutral>
0.000276544

> <r_epik_State_Penalty>
-0

> <r_epik_Charging_Adjusted_Penalty>
0

> <i_epik_Tot_Q>
0

> <i_epik_Tot_abs_Q>
0

> <r_epik_Metal_State_Penalty>
-0

> <b_epik_Metal_Only>
0

> <s_lp_Force_Field>
OPLS_2005

> <r_lp_Energy>
62.2425

> <b_lp_Chiralities_Consistent>
1

> <s_lp_Variant>
AV-unprocessed.smi:2224-1

> <Gold.Version>
5.8.1

> <Gold.Id.Protein>
6NUR|6NUR_protein|mol2

> <Gold.PLP.Fitness>
40.1028

> <Gold.PLP.PLP>
-40.2109

> <Gold.PLP.part.hbond>
0.0000

> <Gold.PLP.part.metal>
0.0000

> <Gold.PLP.part.buried>
-5.5889

> <Gold.PLP.part.nonpolar>
-35.1518

> <Gold.PLP.part.repulsive>
0.7451

> <Gold.PLP.ligand.clash>
0.0000

> <Gold.PLP.ligand.torsion>
0.1873

> <Gold.PLP.Chemscore.Hbond>
0.0000

> <Gold.PLP.Chemscore.CHOScore>
0.0000

> <Gold.PLP.Chemscore.Metal>
0.0000

> <Gold.PLP.Chemscore.Internal.Correction>
0.2664

> <Gold.Rescore>
     Score         DG    S(hbond)    S(metal)    S(lipo)     H(rot)  DE(clash)    DE(int)     intcor
     14.24     -15.71       0.00        0.00     109.34       1.00       0.04       1.43       ----

> <Gold.Chemscore.Fitness>
14.2365

> <Gold.Chemscore.DG>
-15.7123

> <Gold.Chemscore.ZeroCoef>
-5.4800

> <Gold.Chemscore.Hbond>
0.0000

> <Gold.Chemscore.Metal>
0.0000

> <Gold.Chemscore.Lipo>
109.3363

> <Gold.Chemscore.Internal_Hbond>
0.0000

> <Gold.Chemscore.DEClash>
0.0424

> <Gold.Chemscore.DEInternal>
1.4335

> <Gold.Chemscore.Rot>
1.0000

> <Gold.Chemscore.Internal.Correction>
   9.000000E+99

> <Gold.Chemscore.Hbond.Weighted>
-0.0000

> <Gold.Chemscore.Metal.Weighted>
-0.0000

> <Gold.Chemscore.Lipo.Weighted>
-12.7923

> <Gold.Chemscore.Internal_Hbond.Weighted>
0.0000

> <Gold.Chemscore.DEClash.Weighted>
0.0424

> <Gold.Chemscore.DEInternal.Weighted>
1.4335

> <Gold.Chemscore.Rot.Weighted>
2.5600

> <Gold.Chemscore.Internal.Correction.Weighted>
   9.000000E+99

> <Gold.Protein.RotatedTorsions>
[ 6907 6896 6895 6894 ] final  101.31 input  -60.11 | X-H torsion
[ 7974 7965 7964 7962 ] final  146.98 input  175.53 | X-H torsion
[ 8008 7997 7996 7995 ] final   22.13 input   59.86 | X-H torsion
[ 10167 10162 10161 10158 ] final -133.11 input  -65.29 | X-H torsion
[ 10718 10713 10712 10709 ] final   76.13 input   66.30 | X-H torsion
[ 10763 10752 10751 10750 ] final  141.98 input  -60.55 | X-H torsion
[ 11005 11000 10999 10996 ] final  -76.43 input  -57.11 | X-H torsion

> <Gold.Protein.ActiveResidues>
 VAL166  LYS551  ARG553  GLY616  TRP617  ASP618  TYR619  PRO620  LYS621  CYS622 
 ASP623  PHE694  ASN695  SER759  ASP760  ASP761  ALA762  ILE779  LEU786  VAL792 
 PHE793  MET794  SER795  GLU796  ALA797  LYS798  CYS799  TRP800  GLU811  SER814 

> <Gold.Protein.RotatedAtoms>
  152.5352  134.0145  159.7953 H   0  0  0  0  0  0  0  0  0  0  0  0  # atno 6907 bound_to 6896
  151.0341  133.5756  159.2665 H   0  0  0  0  0  0  0  0  0  0  0  0  # atno 6908 bound_to 6896
  151.2750  135.0703  159.9201 H   0  0  0  0  0  0  0  0  0  0  0  0  # atno 6909 bound_to 6896
  144.8628  139.5972  143.5923 H   0  0  0  0  0  0  0  0  0  0  0  0  # atno 7974 bound_to 7965
  154.9611  140.3078  155.5030 H   0  0  0  0  0  0  0  0  0  0  0  0  # atno 8008 bound_to 7997
  156.2977  140.2301  156.4635 H   0  0  0  0  0  0  0  0  0  0  0  0  # atno 8009 bound_to 7997
  154.7964  140.0436  157.1228 H   0  0  0  0  0  0  0  0  0  0  0  0  # atno 8010 bound_to 7997
  139.9016  143.6600  152.2593 H   0  0  0  0  0  0  0  0  0  0  0  0  # atno 10167 bound_to 10162
  157.6661  130.9759  150.1452 H   0  0  0  0  0  0  0  0  0  0  0  0  # atno 10718 bound_to 10713
  153.9482  135.2973  155.3440 H   0  0  0  0  0  0  0  0  0  0  0  0  # atno 10763 bound_to 10752
  154.7441  135.5011  153.9176 H   0  0  0  0  0  0  0  0  0  0  0  0  # atno 10764 bound_to 10752
  153.1008  135.6733  153.9785 H   0  0  0  0  0  0  0  0  0  0  0  0  # atno 10765 bound_to 10752
  141.1654  133.6983  156.7667 H   0  0  0  0  0  0  0  0  0  0  0  0  # atno 11005 bound_to 11000
  146.2873  139.7040  142.9186 LP  0  0  0  0  0  0  0  0  0  0  0  0  # atno 17320 bound_to 7965
  145.4280  141.0412  143.2927 LP  0  0  0  0  0  0  0  0  0  0  0  0  # atno 17321 bound_to 7965
  139.7020  144.7633  151.1257 LP  0  0  0  0  0  0  0  0  0  0  0  0  # atno 17342 bound_to 10162
  140.7705  143.5445  150.9274 LP  0  0  0  0  0  0  0  0  0  0  0  0  # atno 17343 bound_to 10162
  156.2265  130.3678  149.8495 LP  0  0  0  0  0  0  0  0  0  0  0  0  # atno 17370 bound_to 10713
  156.6333  130.8675  151.3500 LP  0  0  0  0  0  0  0  0  0  0  0  0  # atno 17371 bound_to 10713
  140.2494  134.8552  157.3652 LP  0  0  0  0  0  0  0  0  0  0  0  0  # atno 17394 bound_to 11000
  140.1718  134.4599  155.7827 LP  0  0  0  0  0  0  0  0  0  0  0  0  # atno 17395 bound_to 11000

$$$$
