AV-unprocessed.smi:1611|AV-procd|sdf|6474|dock4
  -GOLD-   22720 7133D 1   1.00000     0.00000
 Structure written by MMmdl.
 48 49  0  0  0  0  0  0  0  0  1 V2000
  154.7956  131.5896  162.0828 C   0  0  0  0  0  0  0  0  0  0  0  0
  154.7552  132.9406  162.7761 C   0  0  0  0  0  0  0  0  0  0  0  0
  154.4201  132.9957  164.1443 C   0  0  0  0  0  0  0  0  0  0  0  0
  154.3799  134.2285  164.8185 C   0  0  0  0  0  0  0  0  0  0  0  0
  154.6671  135.4222  164.1289 C   0  0  0  0  0  0  0  0  0  0  0  0
  154.6265  136.7452  164.8714 C   0  0  0  0  0  0  0  0  0  0  0  0
  154.9873  135.3795  162.7523 C   0  0  0  0  0  0  0  0  0  0  0  0
  155.2575  136.5490  162.0895 O   0  0  0  0  0  0  0  0  0  0  0  0
  154.1090  137.3550  161.8678 C   0  0  0  0  0  0  0  0  0  0  0  0
  154.3538  138.2415  160.6361 C   0  0  2  0  0  0  0  0  0  0  0  0
  155.2222  137.5307  159.7755 O   0  0  0  0  0  0  0  0  0  0  0  0
  155.0451  139.5707  161.0119 C   0  0  0  0  0  0  0  0  0  0  0  0
  154.1164  140.7072  160.9656 N   0  0  0  0  0  0  0  0  0  0  0  0
  154.1532  141.5064  162.0909 N   0  0  0  0  0  0  0  0  0  0  0  0
  153.3987  142.5502  162.2006 C   0  0  0  0  0  0  0  0  0  0  0  0
  153.5239  143.3450  163.4726 C   0  0  0  0  0  0  0  0  0  0  0  0
  152.4858  142.8997  161.1168 C   0  0  0  0  0  0  0  0  0  0  0  0
  151.6221  144.1400  161.3017 C   0  0  0  0  0  0  0  0  0  0  0  0
  152.4565  142.1047  160.0180 C   0  0  0  0  0  0  0  0  0  0  0  0
  151.5927  142.3637  158.9116 C   0  0  0  0  0  0  0  0  0  0  0  0
  150.8993  142.5566  158.0049 N   0  0  0  0  0  0  0  0  0  0  0  0
  153.3101  140.9217  159.8868 C   0  0  0  0  0  0  0  0  0  0  0  0
  153.3136  140.1841  158.9000 O   0  0  0  0  0  0  0  0  0  0  0  0
  155.0502  134.1361  162.0741 C   0  0  0  0  0  0  0  0  0  0  0  0
  155.4298  134.0853  160.6002 C   0  0  0  0  0  0  0  0  0  0  0  0
  154.4043  130.8012  162.7263 H   0  0  0  0  0  0  0  0  0  0  0  0
  155.8211  131.3296  161.8193 H   0  0  0  0  0  0  0  0  0  0  0  0
  154.1953  131.6037  161.1729 H   0  0  0  0  0  0  0  0  0  0  0  0
  154.1960  132.0888  164.6868 H   0  0  0  0  0  0  0  0  0  0  0  0
  154.1278  134.2534  165.8685 H   0  0  0  0  0  0  0  0  0  0  0  0
  155.4723  137.3731  164.5897 H   0  0  0  0  0  0  0  0  0  0  0  0
  154.6685  136.5936  165.9502 H   0  0  0  0  0  0  0  0  0  0  0  0
  153.7067  137.2814  164.6378 H   0  0  0  0  0  0  0  0  0  0  0  0
  153.2635  136.6905  161.6839 H   0  0  0  0  0  0  0  0  0  0  0  0
  153.8542  137.9551  162.7435 H   0  0  0  0  0  0  0  0  0  0  0  0
  153.4048  138.4327  160.1335 H   0  0  0  0  0  0  0  0  0  0  0  0
  154.6984  137.0540  159.1500 H   0  0  0  0  0  0  0  0  0  0  0  0
  155.4571  139.5038  162.0204 H   0  0  0  0  0  0  0  0  0  0  0  0
  155.9112  139.7461  160.3702 H   0  0  0  0  0  0  0  0  0  0  0  0
  152.5612  143.4212  163.9783 H   0  0  0  0  0  0  0  0  0  0  0  0
  153.8775  144.3549  163.2639 H   0  0  0  0  0  0  0  0  0  0  0  0
  154.2265  142.8874  164.1708 H   0  0  0  0  0  0  0  0  0  0  0  0
  151.0142  144.3546  160.4231 H   0  0  0  0  0  0  0  0  0  0  0  0
  152.2429  145.0168  161.4890 H   0  0  0  0  0  0  0  0  0  0  0  0
  150.9449  144.0109  162.1466 H   0  0  0  0  0  0  0  0  0  0  0  0
  155.8789  135.0168  160.2563 H   0  0  0  0  0  0  0  0  0  0  0  0
  154.5455  133.8923  159.9927 H   0  0  0  0  0  0  0  0  0  0  0  0
  156.1561  133.2949  160.4118 H   0  0  0  0  0  0  0  0  0  0  0  0
  1  2  1  0  0  0  0
  1 26  1  0  0  0  0
  1 27  1  0  0  0  0
  1 28  1  0  0  0  0
  2 24  1  0  0  0  0
  2  3  2  0  0  0  0
  3  4  1  0  0  0  0
  3 29  1  0  0  0  0
  4  5  2  0  0  0  0
  4 30  1  0  0  0  0
  5  6  1  0  0  0  0
  5  7  1  0  0  0  0
  6 31  1  0  0  0  0
  6 32  1  0  0  0  0
  6 33  1  0  0  0  0
  7  8  1  0  0  0  0
  7 24  2  0  0  0  0
  8  9  1  0  0  0  0
  9 10  1  0  0  0  0
  9 34  1  0  0  0  0
  9 35  1  0  0  0  0
 10 11  1  0  0  0  0
 10 12  1  0  0  0  0
 10 36  1  0  0  0  0
 11 37  1  0  0  0  0
 12 13  1  0  0  0  0
 12 38  1  0  0  0  0
 12 39  1  0  0  0  0
 13 22  1  0  0  0  0
 13 14  1  0  0  0  0
 14 15  2  0  0  0  0
 15 16  1  0  0  0  0
 15 17  1  0  0  0  0
 16 40  1  0  0  0  0
 16 41  1  0  0  0  0
 16 42  1  0  0  0  0
 17 18  1  0  0  0  0
 17 19  2  0  0  0  0
 18 43  1  0  0  0  0
 18 44  1  0  0  0  0
 18 45  1  0  0  0  0
 19 20  1  0  0  0  0
 19 22  1  0  0  0  0
 20 21  3  0  0  0  0
 22 23  2  0  0  0  0
 24 25  1  0  0  0  0
 25 46  1  0  0  0  0
 25 47  1  0  0  0  0
 25 48  1  0  0  0  0
M  END
> <s_m_source_file>
AV-unprocessed.smi

> <i_m_source_file_index>
1611

> <i_lp_mmshare_version>
43012

> <i_f3d_flags>
0

> <s_epik_input>
W0NIM11jMVtjSF1bY0hdYyhbQ0gzXSljKGMxW0NIM10pT1tDSDJdW0NASF0oW09IXSlbQ0gyXW4ybmMoW0NIM10pYyhbQ0gzXSljKEMjTiljMj1P

> <s_epik_cmdline>
J2VwaWtfcHl0aG9uJywgJy1waCcsICc3LjAnLCAnLXRuJywgJzgnLCAnLW1hJywgJzIwMCcsICctbWV0YWxfYmluZGluZycsICctaW1hZScsICc8aW5maWxlLm1hZT4nLCAnLW9tYWUnLCAnPG91dGZpbGUubWFlPic=

> <r_lp_tautomer_probability>
1

> <r_epik_Ionization_Penalty>
1.17331e-07

> <r_epik_Ionization_Penalty_Charging>
1.57223e-10

> <r_epik_Ionization_Penalty_Neutral>
1.17174e-07

> <r_epik_State_Penalty>
-0

> <r_epik_Charging_Adjusted_Penalty>
1.57223e-10

> <i_epik_Tot_Q>
0

> <i_epik_Tot_abs_Q>
0

> <r_epik_Metal_State_Penalty>
-0

> <b_epik_Metal_Only>
0

> <s_lp_Force_Field>
OPLS_2005

> <r_lp_Energy>
36.6232

> <b_lp_Chiralities_Consistent>
1

> <s_lp_Variant>
AV-unprocessed.smi:1611-1

> <Gold.Version>
5.8.1

> <Gold.Id.Protein>
6NUR|6NUR_protein|mol2

> <Gold.PLP.Fitness>
51.9351

> <Gold.PLP.PLP>
-51.7248

> <Gold.PLP.part.hbond>
-1.8701

> <Gold.PLP.part.metal>
0.0000

> <Gold.PLP.part.buried>
-2.9353

> <Gold.PLP.part.nonpolar>
-46.5127

> <Gold.PLP.part.repulsive>
0.0624

> <Gold.PLP.ligand.clash>
0.0000

> <Gold.PLP.ligand.torsion>
1.3633

> <Gold.PLP.Chemscore.Hbond>
0.9440

> <Gold.PLP.Chemscore.CHOScore>
0.0000

> <Gold.PLP.Chemscore.Metal>
0.0000

> <Gold.Chemscore.Hbonds>
donor molecule, donor type, donor heavy atom, donor atom, acceptor molecule, acceptor atom, score
      P1  H  7997  8009       L1    23  0.41

> <Gold.PLP.Chemscore.Internal.Correction>
0.1049

> <Gold.Rescore>
     Score         DG    S(hbond)    S(metal)    S(lipo)     H(rot)  DE(clash)    DE(int)     intcor
     14.09     -17.76       0.86        0.00     130.15       2.27       0.09       3.58       ----

> <Gold.Chemscore.Fitness>
14.0899

> <Gold.Chemscore.DG>
-17.7576

> <Gold.Chemscore.ZeroCoef>
-5.4800

> <Gold.Chemscore.Hbond>
0.8572

> <Gold.Chemscore.Metal>
0.0000

> <Gold.Chemscore.Lipo>
130.1463

> <Gold.Chemscore.Internal_Hbond>
0.0000

> <Gold.Chemscore.DEClash>
0.0922

> <Gold.Chemscore.DEInternal>
3.5755

> <Gold.Chemscore.Rot>
2.2706

> <Gold.Chemscore.Internal.Correction>
   9.000000E+99

> <Gold.Chemscore.Hbonds>
donor molecule, donor type, donor heavy atom, donor atom, acceptor molecule, acceptor atom, score
      P1  H  7997  8009       L1    23  0.40

> <Gold.Chemscore.Hbond.Weighted>
-2.8632

> <Gold.Chemscore.Metal.Weighted>
-0.0000

> <Gold.Chemscore.Lipo.Weighted>
-15.2271

> <Gold.Chemscore.Internal_Hbond.Weighted>
0.0000

> <Gold.Chemscore.DEClash.Weighted>
0.0922

> <Gold.Chemscore.DEInternal.Weighted>
3.5755

> <Gold.Chemscore.Rot.Weighted>
5.8127

> <Gold.Chemscore.Internal.Correction.Weighted>
   9.000000E+99

> <Gold.Protein.RotatedTorsions>
[ 6907 6896 6895 6894 ] final -130.55 input  -60.11 | X-H torsion
[ 7974 7965 7964 7962 ] final   -6.53 input  175.53 | X-H torsion
[ 8008 7997 7996 7995 ] final  139.08 input   59.86 | X-H torsion
[ 10167 10162 10161 10158 ] final   72.75 input  -65.29 | X-H torsion
[ 10718 10713 10712 10709 ] final   36.84 input   66.30 | X-H torsion
[ 10763 10752 10751 10750 ] final  120.71 input  -60.55 | X-H torsion
[ 11005 11000 10999 10996 ] final -117.29 input  -57.11 | X-H torsion

> <Gold.Protein.ActiveResidues>
 VAL166  LYS551  ARG553  GLY616  TRP617  ASP618  TYR619  PRO620  LYS621  CYS622 
 ASP623  PHE694  ASN695  SER759  ASP760  ASP761  ALA762  ILE779  LEU786  VAL792 
 PHE793  MET794  SER795  GLU796  ALA797  LYS798  CYS799  TRP800  GLU811  SER814 

> <Gold.Protein.RotatedAtoms>
  150.9410  133.6657  159.2790 H   0  0  0  0  0  0  0  0  0  0  0  0  # atno 6907 bound_to 6896
  151.4046  135.0975  159.9576 H   0  0  0  0  0  0  0  0  0  0  0  0  # atno 6908 bound_to 6896
  152.5069  133.8896  159.7442 H   0  0  0  0  0  0  0  0  0  0  0  0  # atno 6909 bound_to 6896
  146.2329  140.2184  142.8337 H   0  0  0  0  0  0  0  0  0  0  0  0  # atno 7974 bound_to 7965
  156.2992  140.2377  156.4179 H   0  0  0  0  0  0  0  0  0  0  0  0  # atno 8008 bound_to 7997
  154.8382  140.0429  157.1543 H   0  0  0  0  0  0  0  0  0  0  0  0  # atno 8009 bound_to 7997
  154.9132  140.2993  155.5258 H   0  0  0  0  0  0  0  0  0  0  0  0  # atno 8010 bound_to 7997
  140.0319  144.5459  150.7501 H   0  0  0  0  0  0  0  0  0  0  0  0  # atno 10167 bound_to 10162
  157.3397  130.7541  149.6903 H   0  0  0  0  0  0  0  0  0  0  0  0  # atno 10718 bound_to 10713
  153.6027  135.3445  155.2951 H   0  0  0  0  0  0  0  0  0  0  0  0  # atno 10763 bound_to 10752
  154.8633  135.4231  154.2395 H   0  0  0  0  0  0  0  0  0  0  0  0  # atno 10764 bound_to 10752
  153.3227  135.7039  153.7087 H   0  0  0  0  0  0  0  0  0  0  0  0  # atno 10765 bound_to 10752
  141.0364  133.9902  157.3063 H   0  0  0  0  0  0  0  0  0  0  0  0  # atno 11005 bound_to 11000
  144.9651  140.8314  143.5489 LP  0  0  0  0  0  0  0  0  0  0  0  0  # atno 17320 bound_to 7965
  145.2159  139.2182  143.5118 LP  0  0  0  0  0  0  0  0  0  0  0  0  # atno 17321 bound_to 7965
  140.7298  143.2677  151.3991 LP  0  0  0  0  0  0  0  0  0  0  0  0  # atno 17342 bound_to 10162
  139.6071  144.1175  152.2260 LP  0  0  0  0  0  0  0  0  0  0  0  0  # atno 17343 bound_to 10162
  155.9706  130.4171  150.4263 LP  0  0  0  0  0  0  0  0  0  0  0  0  # atno 17370 bound_to 10713
  157.2309  131.0504  151.2493 LP  0  0  0  0  0  0  0  0  0  0  0  0  # atno 17371 bound_to 10713
  139.9244  135.0201  156.8181 LP  0  0  0  0  0  0  0  0  0  0  0  0  # atno 17394 bound_to 11000
  140.6313  133.9903  155.7663 LP  0  0  0  0  0  0  0  0  0  0  0  0  # atno 17395 bound_to 11000

$$$$
