AV-unprocessed.smi:310|AV-procd|sdf|2296|dock6
  -GOLD-   2262022193D 1   1.00000     0.00000
 Structure written by MMmdl.
 40 42  0  0  0  0  0  0  0  0  2 V2000
  151.3197  131.0013  155.8700 C   0  0  0  0  0  0  0  0  0  0  0  0
  150.3774  132.0808  155.4599 C   0  0  0  0  0  0  0  0  0  0  0  0
  150.3343  133.4213  155.7187 C   0  0  0  0  0  0  0  0  0  0  0  0
  149.1691  133.8492  155.0255 C   0  0  0  0  0  0  0  0  0  0  0  0
  148.7019  135.1059  154.9680 N   0  5  0  0  0  0  0  0  0  0  0  0
  149.4890  136.1424  155.3387 C   0  0  0  0  0  0  0  0  0  0  0  0
  149.8871  136.3851  156.4805 O   0  0  0  0  0  0  0  0  0  0  0  0
  149.8355  136.9477  154.3236 N   0  0  0  0  0  0  0  0  0  0  0  0
  150.6720  138.1412  154.4201 C   0  0  0  0  0  0  0  0  0  0  0  0
  152.0119  137.8140  155.1203 C   0  0  0  0  0  0  0  0  0  0  0  0
  152.8113  139.0959  155.4110 C   0  0  0  0  0  0  0  0  0  0  0  0
  151.9797  140.0010  156.2161 N   0  0  0  0  0  0  0  0  0  0  0  0
  152.1754  140.3192  157.5204 C   0  0  0  0  0  0  0  0  0  0  0  0
  153.0699  139.8034  158.1929 O   0  0  0  0  0  0  0  0  0  0  0  0
  151.2689  141.3544  158.1163 C   0  0  0  0  0  0  0  0  0  0  0  0
  151.1772  142.7106  157.4395 C   0  0  0  0  0  0  0  0  0  0  0  0
  151.9293  142.5673  158.7366 C   0  0  0  0  0  0  0  0  0  0  0  0
  150.8127  140.4644  155.4556 C   0  0  0  0  0  0  0  0  0  0  0  0
  149.9046  139.2553  155.1643 C   0  0  0  0  0  0  0  0  0  0  0  0
  148.5678  132.8585  154.3883 N   0  0  0  0  0  0  0  0  0  0  0  0
  149.3326  131.7195  154.6674 O   0  0  0  0  0  0  0  0  0  0  0  0
  152.3278  131.2156  155.5156 H   0  0  0  0  0  0  0  0  0  0  0  0
  151.0159  130.0370  155.4621 H   0  0  0  0  0  0  0  0  0  0  0  0
  151.3540  130.9127  156.9559 H   0  0  0  0  0  0  0  0  0  0  0  0
  151.0225  134.0035  156.3129 H   0  0  0  0  0  0  0  0  0  0  0  0
  149.4864  136.7097  153.4068 H   0  0  0  0  0  0  0  0  0  0  0  0
  150.8883  138.5083  153.4149 H   0  0  0  0  0  0  0  0  0  0  0  0
  151.8232  137.2875  156.0570 H   0  0  0  0  0  0  0  0  0  0  0  0
  152.6056  137.1404  154.5015 H   0  0  0  0  0  0  0  0  0  0  0  0
  153.7695  138.8530  155.8683 H   0  0  0  0  0  0  0  0  0  0  0  0
  153.0663  139.5889  154.4719 H   0  0  0  0  0  0  0  0  0  0  0  0
  150.3452  140.9953  158.5662 H   0  0  0  0  0  0  0  0  0  0  0  0
  151.7670  142.9028  156.5450 H   0  0  0  0  0  0  0  0  0  0  0  0
  150.2097  143.2077  157.4636 H   0  0  0  0  0  0  0  0  0  0  0  0
  151.4748  142.9685  159.6400 H   0  0  0  0  0  0  0  0  0  0  0  0
  153.0150  142.6382  158.6957 H   0  0  0  0  0  0  0  0  0  0  0  0
  150.2432  141.2353  155.9760 H   0  0  0  0  0  0  0  0  0  0  0  0
  151.1431  140.9202  154.5211 H   0  0  0  0  0  0  0  0  0  0  0  0
  149.0408  139.5706  154.5782 H   0  0  0  0  0  0  0  0  0  0  0  0
  149.5139  138.8690  156.1073 H   0  0  0  0  0  0  0  0  0  0  0  0
  1  2  1  0  0  0  0
  1 22  1  0  0  0  0
  1 23  1  0  0  0  0
  1 24  1  0  0  0  0
  2 21  1  0  0  0  0
  2  3  2  0  0  0  0
  3  4  1  0  0  0  0
  3 25  1  0  0  0  0
  4  5  1  0  0  0  0
  4 20  2  0  0  0  0
  5  6  1  0  0  0  0
  6  7  2  0  0  0  0
  6  8  1  0  0  0  0
  8  9  1  0  0  0  0
  8 26  1  0  0  0  0
  9 19  1  0  0  0  0
  9 10  1  0  0  0  0
  9 27  1  0  0  0  0
 10 11  1  0  0  0  0
 10 28  1  0  0  0  0
 10 29  1  0  0  0  0
 11 12  1  0  0  0  0
 11 30  1  0  0  0  0
 11 31  1  0  0  0  0
 12 13  1  0  0  0  0
 12 18  1  0  0  0  0
 13 14  2  0  0  0  0
 13 15  1  0  0  0  0
 15 17  1  0  0  0  0
 15 16  1  0  0  0  0
 15 32  1  0  0  0  0
 16 17  1  0  0  0  0
 16 33  1  0  0  0  0
 16 34  1  0  0  0  0
 17 35  1  0  0  0  0
 17 36  1  0  0  0  0
 18 19  1  0  0  0  0
 18 37  1  0  0  0  0
 18 38  1  0  0  0  0
 19 39  1  0  0  0  0
 19 40  1  0  0  0  0
 20 21  1  0  0  0  0
M  CHG  1   5  -1
M  END
> <s_m_source_file>
AV-unprocessed.smi

> <i_m_source_file_index>
310

> <i_lp_mmshare_version>
43012

> <i_f3d_flags>
0

> <s_epik_input>
W0NIM11jMVtjSF1jKG5vMSlbTkhdQyg9TylbTkhdW0NIXTJbQ0gyXVtDSDJdTihbQ0gyXVtDSDJdMilDKD1PKVtDSF0zW0NIMl1bQ0gyXTM=

> <s_epik_cmdline>
J2VwaWtfcHl0aG9uJywgJy1waCcsICc3LjAnLCAnLXRuJywgJzgnLCAnLW1hJywgJzIwMCcsICctbWV0YWxfYmluZGluZycsICctaW1hZScsICc8aW5maWxlLm1hZT4nLCAnLW9tYWUnLCAnPG91dGZpbGUubWFlPic=

> <r_lp_tautomer_probability>
1

> <r_epik_Ionization_Penalty>
6.54503

> <r_epik_Ionization_Penalty_Charging>
6.5449

> <r_epik_Ionization_Penalty_Neutral>
0.000132868

> <r_epik_State_Penalty>
6.54489

> <r_epik_Charging_Adjusted_Penalty>
13.0898

> <i_epik_Tot_Q>
-1

> <i_epik_Tot_abs_Q>
1

> <r_epik_Metal_State_Penalty>
2.47073

> <b_epik_Metal_Only>
1

> <s_lp_Force_Field>
OPLS_2005

> <r_lp_Energy>
23.2172

> <b_lp_Chiralities_Consistent>
1

> <s_lp_Variant>
AV-unprocessed.smi:310-2

> <Gold.Version>
5.8.1

> <Gold.Id.Protein>
6NUR|6NUR_protein|mol2

> <Gold.PLP.Fitness>
38.8626

> <Gold.PLP.PLP>
-34.3823

> <Gold.PLP.part.hbond>
-2.0795

> <Gold.PLP.part.metal>
0.0000

> <Gold.PLP.part.buried>
-2.3501

> <Gold.PLP.part.nonpolar>
-30.0863

> <Gold.PLP.part.repulsive>
0.2601

> <Gold.PLP.ligand.clash>
0.0000

> <Gold.PLP.ligand.torsion>
0.8245

> <Gold.PLP.Chemscore.Hbond>
2.0000

> <Gold.PLP.Chemscore.CHOScore>
0.0000

> <Gold.PLP.Chemscore.Metal>
0.0000

> <Gold.Chemscore.Hbonds>
donor molecule, donor type, donor heavy atom, donor atom, acceptor molecule, acceptor atom, score
      L1  H     8    26       P1  7948  1.00
      P1  H  7997  8008       L1    14  0.65

> <Gold.PLP.Chemscore.Internal.Correction>
0.1293

> <Gold.Rescore>
     Score         DG    S(hbond)    S(metal)    S(lipo)     H(rot)  DE(clash)    DE(int)     intcor
     14.98     -17.73       1.92        0.00      77.15       1.25       0.09       2.66       ----

> <Gold.Chemscore.Fitness>
14.9804

> <Gold.Chemscore.DG>
-17.7309

> <Gold.Chemscore.ZeroCoef>
-5.4800

> <Gold.Chemscore.Hbond>
1.9231

> <Gold.Chemscore.Metal>
0.0000

> <Gold.Chemscore.Lipo>
77.1450

> <Gold.Chemscore.Internal_Hbond>
0.0000

> <Gold.Chemscore.DEClash>
0.0865

> <Gold.Chemscore.DEInternal>
2.6640

> <Gold.Chemscore.Rot>
1.2493

> <Gold.Chemscore.Internal.Correction>
   9.000000E+99

> <Gold.Chemscore.Hbonds>
donor molecule, donor type, donor heavy atom, donor atom, acceptor molecule, acceptor atom, score
      L1  H     8    26       P1  7948  0.78
      P1  H  7997  8008       L1    14  0.05

> <Gold.Chemscore.Hbond.Weighted>
-6.4231

> <Gold.Chemscore.Metal.Weighted>
-0.0000

> <Gold.Chemscore.Lipo.Weighted>
-9.0260

> <Gold.Chemscore.Internal_Hbond.Weighted>
0.0000

> <Gold.Chemscore.DEClash.Weighted>
0.0865

> <Gold.Chemscore.DEInternal.Weighted>
2.6640

> <Gold.Chemscore.Rot.Weighted>
3.1981

> <Gold.Chemscore.Internal.Correction.Weighted>
   9.000000E+99

> <Gold.Protein.RotatedTorsions>
[ 6907 6896 6895 6894 ] final -106.66 input  -60.11 | X-H torsion
[ 7974 7965 7964 7962 ] final  -55.99 input  175.53 | X-H torsion
[ 8008 7997 7996 7995 ] final  -68.08 input   59.86 | X-H torsion
[ 10167 10162 10161 10158 ] final  -76.69 input  -65.29 | X-H torsion
[ 10718 10713 10712 10709 ] final -176.30 input   66.30 | X-H torsion
[ 10763 10752 10751 10750 ] final -141.05 input  -60.55 | X-H torsion
[ 11005 11000 10999 10996 ] final  -26.93 input  -57.11 | X-H torsion

> <Gold.Protein.ActiveResidues>
 VAL166  LYS551  ARG553  GLY616  TRP617  ASP618  TYR619  PRO620  LYS621  CYS622 
 ASP623  PHE694  ASN695  SER759  ASP760  ASP761  ALA762  ILE779  LEU786  VAL792 
 PHE793  MET794  SER795  GLU796  ALA797  LYS798  CYS799  TRP800  GLU811  SER814 

> <Gold.Protein.RotatedAtoms>
  150.7401  133.9942  159.3616 H   0  0  0  0  0  0  0  0  0  0  0  0  # atno 6907 bound_to 6896
  151.7892  135.0738  160.0394 H   0  0  0  0  0  0  0  0  0  0  0  0  # atno 6908 bound_to 6896
  152.3220  133.5827  159.5787 H   0  0  0  0  0  0  0  0  0  0  0  0  # atno 6909 bound_to 6896
  145.8678  140.8238  142.9904 H   0  0  0  0  0  0  0  0  0  0  0  0  # atno 7974 bound_to 7965
  154.4843  140.0880  156.7451 H   0  0  0  0  0  0  0  0  0  0  0  0  # atno 8008 bound_to 7997
  155.4389  140.3453  155.4269 H   0  0  0  0  0  0  0  0  0  0  0  0  # atno 8009 bound_to 7997
  156.1239  140.1482  156.9153 H   0  0  0  0  0  0  0  0  0  0  0  0  # atno 8010 bound_to 7997
  140.4835  143.2396  151.8020 H   0  0  0  0  0  0  0  0  0  0  0  0  # atno 10167 bound_to 10162
  156.8126  130.9591  151.3115 H   0  0  0  0  0  0  0  0  0  0  0  0  # atno 10718 bound_to 10713
  154.8558  135.3535  154.5805 H   0  0  0  0  0  0  0  0  0  0  0  0  # atno 10763 bound_to 10752
  153.6416  135.6998  153.5244 H   0  0  0  0  0  0  0  0  0  0  0  0  # atno 10764 bound_to 10752
  153.2966  135.4218  155.1174 H   0  0  0  0  0  0  0  0  0  0  0  0  # atno 10765 bound_to 10752
  140.9073  133.7484  156.0623 H   0  0  0  0  0  0  0  0  0  0  0  0  # atno 11005 bound_to 11000
  144.6726  140.1193  143.7451 LP  0  0  0  0  0  0  0  0  0  0  0  0  # atno 17320 bound_to 7965
  145.9173  139.2523  143.1402 LP  0  0  0  0  0  0  0  0  0  0  0  0  # atno 17321 bound_to 7965
  139.4838  144.4742  151.9388 LP  0  0  0  0  0  0  0  0  0  0  0  0  # atno 17342 bound_to 10162
  140.3827  144.2715  150.5907 LP  0  0  0  0  0  0  0  0  0  0  0  0  # atno 17343 bound_to 10162
  157.6498  130.8875  149.9610 LP  0  0  0  0  0  0  0  0  0  0  0  0  # atno 17370 bound_to 10713
  156.1035  130.3654  150.0174 LP  0  0  0  0  0  0  0  0  0  0  0  0  # atno 17371 bound_to 10713
  140.8154  134.3350  157.5398 LP  0  0  0  0  0  0  0  0  0  0  0  0  # atno 17394 bound_to 11000
  139.8751  134.9278  156.3436 LP  0  0  0  0  0  0  0  0  0  0  0  0  # atno 17395 bound_to 11000

$$$$
