AV-unprocessed.smi:2865|AV-procd|sdf|11015|dock3
  -GOLD-   2272015473D 1   1.00000     0.00000
 Structure written by MMmdl.
 38 41  0  0  0  0  0  0  0  0  1 V2000
  146.1592  136.4379  153.1655 O   0  0  0  0  0  0  0  0  0  0  0  0
  145.5943  137.3194  152.5224 C   0  0  0  0  0  0  0  0  0  0  0  0
  145.8839  138.6331  152.5993 N   0  0  0  0  0  0  0  0  0  0  0  0
  146.9055  139.2785  153.3463 C   0  0  0  0  0  0  0  0  0  0  0  0
  148.0447  138.6415  153.8981 C   0  0  0  0  0  0  0  0  0  0  0  0
  148.9826  139.3332  154.5812 N   0  0  0  0  0  0  0  0  0  0  0  0
  148.7867  140.6472  154.7204 C   0  0  0  0  0  0  0  0  0  0  0  0
  149.8509  141.4129  155.4442 C   0  0  0  0  0  0  0  0  0  0  0  0
  151.1518  140.7464  155.8424 C   0  0  0  0  0  0  0  0  0  0  0  0
  150.1559  141.1295  156.9011 C   0  0  0  0  0  0  0  0  0  0  0  0
  147.7673  141.3561  154.2279 N   0  0  0  0  0  0  0  0  0  0  0  0
  146.8251  140.6729  153.5433 C   0  0  0  0  0  0  0  0  0  0  0  0
  144.5847  137.0284  151.6832 N   0  0  0  0  0  0  0  0  0  0  0  0
  144.0231  135.7133  151.3701 C   0  0  2  0  0  0  0  0  0  0  0  0
  143.6181  134.9233  152.6216 C   0  0  0  0  0  0  0  0  0  0  0  0
  144.4713  133.6553  152.4852 C   0  0  1  0  0  0  0  0  0  0  0  0
  144.0037  132.7642  151.3250 C   0  0  0  0  0  0  0  0  0  0  0  0
  144.4715  133.5606  150.1066 C   0  0  0  0  0  0  0  0  0  0  0  0
  145.0997  134.7949  150.7667 C   0  0  2  0  0  0  0  0  0  0  0  0
  145.6529  134.2053  151.9319 O   0  0  0  0  0  0  0  0  0  0  0  0
  145.2813  139.2474  152.0715 H   0  0  0  0  0  0  0  0  0  0  0  0
  148.2378  137.5862  153.7888 H   0  0  0  0  0  0  0  0  0  0  0  0
  149.8928  142.4471  155.1076 H   0  0  0  0  0  0  0  0  0  0  0  0
  151.2676  139.6863  155.6247 H   0  0  0  0  0  0  0  0  0  0  0  0
  152.0610  141.3396  155.7686 H   0  0  0  0  0  0  0  0  0  0  0  0
  150.3986  141.9787  157.5366 H   0  0  0  0  0  0  0  0  0  0  0  0
  149.6094  140.3240  157.3877 H   0  0  0  0  0  0  0  0  0  0  0  0
  146.0004  141.2474  153.1474 H   0  0  0  0  0  0  0  0  0  0  0  0
  144.1386  137.8116  151.2276 H   0  0  0  0  0  0  0  0  0  0  0  0
  143.1913  135.8222  150.6716 H   0  0  0  0  0  0  0  0  0  0  0  0
  143.8799  135.4574  153.5364 H   0  0  0  0  0  0  0  0  0  0  0  0
  142.5504  134.7036  152.6539 H   0  0  0  0  0  0  0  0  0  0  0  0
  144.6207  133.1203  153.4234 H   0  0  0  0  0  0  0  0  0  0  0  0
  144.4971  131.7923  151.3572 H   0  0  0  0  0  0  0  0  0  0  0  0
  142.9256  132.6014  151.3370 H   0  0  0  0  0  0  0  0  0  0  0  0
  145.2198  132.9985  149.5466 H   0  0  0  0  0  0  0  0  0  0  0  0
  143.6576  133.8166  149.4272 H   0  0  0  0  0  0  0  0  0  0  0  0
  145.8249  135.3056  150.1319 H   0  0  0  0  0  0  0  0  0  0  0  0
  1  2  2  0  0  0  0
  2  3  1  0  0  0  0
  2 13  1  0  0  0  0
  3  4  1  0  0  0  0
  3 21  1  0  0  0  0
  4 12  1  0  0  0  0
  4  5  2  0  0  0  0
  5  6  1  0  0  0  0
  5 22  1  0  0  0  0
  6  7  2  0  0  0  0
  7  8  1  0  0  0  0
  7 11  1  0  0  0  0
  8 10  1  0  0  0  0
  8  9  1  0  0  0  0
  8 23  1  0  0  0  0
  9 10  1  0  0  0  0
  9 24  1  0  0  0  0
  9 25  1  0  0  0  0
 10 26  1  0  0  0  0
 10 27  1  0  0  0  0
 11 12  2  0  0  0  0
 12 28  1  0  0  0  0
 13 14  1  0  0  0  0
 13 29  1  0  0  0  0
 14 19  1  0  0  0  0
 14 15  1  0  0  0  0
 14 30  1  0  0  0  0
 15 16  1  0  0  0  0
 15 31  1  0  0  0  0
 15 32  1  0  0  0  0
 16 20  1  0  0  0  0
 16 17  1  0  0  0  0
 16 33  1  0  0  0  0
 17 18  1  0  0  0  0
 17 34  1  0  0  0  0
 17 35  1  0  0  0  0
 18 19  1  0  0  0  0
 18 36  1  0  0  0  0
 18 37  1  0  0  0  0
 19 20  1  0  0  0  0
 19 38  1  0  0  0  0
M  END
> <s_m_source_file>
AV-unprocessed.smi

> <i_m_source_file_index>
2865

> <i_lp_mmshare_version>
43012

> <i_f3d_flags>
0

> <s_epik_input>
W0NIMl0xW0NIMl1bQ0BIXShPMilbQ0BASF0oW0NIMl1bQ0BASF0xMilbTkhdQyg9TylbTkhdYzNbY0hdbmMobltjSF0zKVtDSF00W0NIMl1bQ0gyXTQ=

> <s_epik_cmdline>
J2VwaWtfcHl0aG9uJywgJy1waCcsICc3LjAnLCAnLXRuJywgJzgnLCAnLW1hJywgJzIwMCcsICctbWV0YWxfYmluZGluZycsICctaW1hZScsICc8aW5maWxlLm1hZT4nLCAnLW9tYWUnLCAnPG91dGZpbGUubWFlPic=

> <r_lp_tautomer_probability>
1

> <r_epik_Ionization_Penalty>
2.43104e-05

> <r_epik_Ionization_Penalty_Charging>
0

> <r_epik_Ionization_Penalty_Neutral>
2.43104e-05

> <r_epik_State_Penalty>
-0

> <r_epik_Charging_Adjusted_Penalty>
0

> <i_epik_Tot_Q>
0

> <i_epik_Tot_abs_Q>
0

> <r_epik_Metal_State_Penalty>
-0

> <b_epik_Metal_Only>
0

> <s_lp_Force_Field>
OPLS_2005

> <r_lp_Energy>
45.9934

> <b_lp_Chiralities_Consistent>
1

> <s_lp_Variant>
AV-unprocessed.smi:2865-1

> <Gold.Version>
5.8.1

> <Gold.Id.Protein>
6NUR|6NUR_protein|mol2

> <Gold.PLP.Fitness>
42.5730

> <Gold.PLP.PLP>
-31.9671

> <Gold.PLP.part.hbond>
-2.0000

> <Gold.PLP.part.metal>
0.0000

> <Gold.PLP.part.buried>
-6.3729

> <Gold.PLP.part.nonpolar>
-26.5695

> <Gold.PLP.part.repulsive>
0.7891

> <Gold.PLP.ligand.clash>
0.0000

> <Gold.PLP.ligand.torsion>
0.1638

> <Gold.PLP.Chemscore.Hbond>
1.6650

> <Gold.PLP.Chemscore.CHOScore>
1.9306

> <Gold.PLP.Chemscore.Metal>
0.0000

> <Gold.Chemscore.Hbonds>
donor molecule, donor type, donor heavy atom, donor atom, acceptor molecule, acceptor atom, score
      L1  H     3    21       P1 10175  0.73
      L1  H    13    29       P1 10171  0.93
      L1  C     5    22       P1  7948  1.00
      L1  C    12    28       P1 10175  0.94

> <Gold.PLP.Chemscore.Internal.Correction>
0.1467

> <Gold.Rescore>
     Score         DG    S(hbond)    S(metal)    S(lipo)     H(rot)  DE(clash)    DE(int)     intcor
     11.99     -16.27       1.67        0.00      70.88       1.20       0.47       3.81       ----

> <Gold.Chemscore.Fitness>
11.9891

> <Gold.Chemscore.DG>
-16.2726

> <Gold.Chemscore.ZeroCoef>
-5.4800

> <Gold.Chemscore.Hbond>
1.6691

> <Gold.Chemscore.Metal>
0.0000

> <Gold.Chemscore.Lipo>
70.8808

> <Gold.Chemscore.Internal_Hbond>
0.0000

> <Gold.Chemscore.DEClash>
0.4690

> <Gold.Chemscore.DEInternal>
3.8144

> <Gold.Chemscore.Rot>
1.2012

> <Gold.Chemscore.Internal.Correction>
   9.000000E+99

> <Gold.Chemscore.Hbonds>
donor molecule, donor type, donor heavy atom, donor atom, acceptor molecule, acceptor atom, score
      L1  H     3    21       P1 10175  0.69
      L1  H    13    29       P1 10171  0.91

> <Gold.Chemscore.Hbond.Weighted>
-5.5746

> <Gold.Chemscore.Metal.Weighted>
-0.0000

> <Gold.Chemscore.Lipo.Weighted>
-8.2931

> <Gold.Chemscore.Internal_Hbond.Weighted>
0.0000

> <Gold.Chemscore.DEClash.Weighted>
0.4690

> <Gold.Chemscore.DEInternal.Weighted>
3.8144

> <Gold.Chemscore.Rot.Weighted>
3.0752

> <Gold.Chemscore.Internal.Correction.Weighted>
   9.000000E+99

> <Gold.Protein.RotatedTorsions>
[ 6907 6896 6895 6894 ] final  -79.15 input  -60.11 | X-H torsion
[ 7974 7965 7964 7962 ] final  -60.05 input  175.53 | X-H torsion
[ 8008 7997 7996 7995 ] final   48.09 input   59.86 | X-H torsion
[ 10167 10162 10161 10158 ] final   65.86 input  -65.29 | X-H torsion
[ 10718 10713 10712 10709 ] final  139.56 input   66.30 | X-H torsion
[ 10763 10752 10751 10750 ] final   87.36 input  -60.55 | X-H torsion
[ 11005 11000 10999 10996 ] final  115.16 input  -57.11 | X-H torsion

> <Gold.Protein.ActiveResidues>
 VAL166  LYS551  ARG553  GLY616  TRP617  ASP618  TYR619  PRO620  LYS621  CYS622 
 ASP623  PHE694  ASN695  SER759  ASP760  ASP761  ALA762  ILE779  LEU786  VAL792 
 PHE793  MET794  SER795  GLU796  ALA797  LYS798  CYS799  TRP800  GLU811  SER814 

> <Gold.Protein.RotatedAtoms>
  150.6956  134.4165  159.5185 H   0  0  0  0  0  0  0  0  0  0  0  0  # atno 6907 bound_to 6896
  152.1915  134.8665  160.0526 H   0  0  0  0  0  0  0  0  0  0  0  0  # atno 6908 bound_to 6896
  151.9619  133.3663  159.4075 H   0  0  0  0  0  0  0  0  0  0  0  0  # atno 6909 bound_to 6896
  145.8202  140.8545  143.0136 H   0  0  0  0  0  0  0  0  0  0  0  0  # atno 7974 bound_to 7965
  155.3799  140.3428  155.4246 H   0  0  0  0  0  0  0  0  0  0  0  0  # atno 8008 bound_to 7997
  156.1616  140.1602  156.8636 H   0  0  0  0  0  0  0  0  0  0  0  0  # atno 8009 bound_to 7997
  154.5145  140.0782  156.8036 H   0  0  0  0  0  0  0  0  0  0  0  0  # atno 8010 bound_to 7997
  140.1067  144.4855  150.7003 H   0  0  0  0  0  0  0  0  0  0  0  0  # atno 10167 bound_to 10162
  157.4130  131.1030  151.0434 H   0  0  0  0  0  0  0  0  0  0  0  0  # atno 10718 bound_to 10713
  153.1660  135.4546  154.9838 H   0  0  0  0  0  0  0  0  0  0  0  0  # atno 10763 bound_to 10752
  154.7932  135.3228  154.7730 H   0  0  0  0  0  0  0  0  0  0  0  0  # atno 10764 bound_to 10752
  153.8213  135.6946  153.4881 H   0  0  0  0  0  0  0  0  0  0  0  0  # atno 10765 bound_to 10752
  139.9001  134.9579  156.7003 H   0  0  0  0  0  0  0  0  0  0  0  0  # atno 11005 bound_to 11000
  144.6748  140.0522  143.7478 LP  0  0  0  0  0  0  0  0  0  0  0  0  # atno 17320 bound_to 7965
  145.9683  139.2851  143.1114 LP  0  0  0  0  0  0  0  0  0  0  0  0  # atno 17321 bound_to 7965
  140.6948  143.2397  151.5030 LP  0  0  0  0  0  0  0  0  0  0  0  0  # atno 17342 bound_to 10162
  139.5642  144.2083  152.1738 LP  0  0  0  0  0  0  0  0  0  0  0  0  # atno 17343 bound_to 10162
  157.1391  130.6135  149.5550 LP  0  0  0  0  0  0  0  0  0  0  0  0  # atno 17370 bound_to 10713
  155.9856  130.4887  150.7042 LP  0  0  0  0  0  0  0  0  0  0  0  0  # atno 17371 bound_to 10713
  140.7156  133.9185  155.8113 LP  0  0  0  0  0  0  0  0  0  0  0  0  # atno 17394 bound_to 11000
  141.0267  134.0813  157.4060 LP  0  0  0  0  0  0  0  0  0  0  0  0  # atno 17395 bound_to 11000

$$$$
