AV-unprocessed.smi:77|AV-procd|sdf|772|dock7
  -GOLD-   2262017123D 1   1.00000     0.00000
 Structure written by MMmdl.
 57 61  0  0  0  0  0  0  0  0  1 V2000
  153.9226  139.9624  158.3433 O   0  0  0  0  0  0  0  0  0  0  0  0
  152.7506  140.2351  158.6050 C   0  0  0  0  0  0  0  0  0  0  0  0
  151.6096  139.4202  157.9846 C   0  0  0  0  0  0  0  0  0  0  0  0
  151.2437  139.8952  156.6460 N   0  0  0  0  0  0  0  0  0  0  0  0
  151.1725  138.9097  155.7224 C   0  0  0  0  0  0  0  0  0  0  0  0
  151.5611  139.1523  154.4429 N   0  0  0  0  0  0  0  0  0  0  0  0
  151.4493  138.1914  153.5204 C   0  0  0  0  0  0  0  0  0  0  0  0
  150.9748  136.9510  153.6594 N   0  0  0  0  0  0  0  0  0  0  0  0
  150.5900  136.7084  154.9453 C   0  0  0  0  0  0  0  0  0  0  0  0
  150.6680  137.6204  156.0331 C   0  0  0  0  0  0  0  0  0  0  0  0
  150.2026  137.0205  157.1959 N   0  0  0  0  0  0  0  0  0  0  0  0
  149.8471  135.8248  156.8131 C   0  0  0  0  0  0  0  0  0  0  0  0
  150.0151  135.5649  155.4710 N   0  0  0  0  0  0  0  0  0  0  0  0
  149.6787  134.3363  154.7764 C   0  0  0  0  0  0  0  0  0  0  0  0
  148.6841  134.5113  153.5939 C   0  0  1  0  0  0  0  0  0  0  0  0
  148.5414  133.1604  152.8511 C   0  0  0  0  0  0  0  0  0  0  0  0
  147.7865  133.3008  151.6653 O   0  0  0  0  0  0  0  0  0  0  0  0
  147.2973  135.0765  154.0310 C   0  0  2  0  0  0  0  0  0  0  0  0
  147.3459  136.4019  154.7782 C   0  0  0  0  0  0  0  0  0  0  0  0
  145.9878  136.4428  155.4609 C   0  0  0  0  0  0  0  0  0  0  0  0
  145.7763  135.1062  155.8806 O   0  0  0  0  0  0  0  0  0  0  0  0
  146.5094  134.2198  155.0410 C   0  0  0  0  0  0  0  0  0  0  0  0
  150.1389  140.8417  156.5719 C   0  0  0  0  0  0  0  0  0  0  0  0
  150.1498  141.9009  155.4936 C   0  0  0  0  0  0  0  0  0  0  0  0
  150.4058  142.2824  156.9340 C   0  0  0  0  0  0  0  0  0  0  0  0
  152.3879  141.2450  159.4092 N   0  0  0  0  0  0  0  0  0  0  0  0
  153.2818  142.1225  160.0929 C   0  0  0  0  0  0  0  0  0  0  0  0
  153.6807  141.7573  161.5061 C   0  0  0  0  0  0  0  0  0  0  0  0
  152.7364  142.9031  161.2693 C   0  0  0  0  0  0  0  0  0  0  0  0
  151.8691  138.3599  157.9580 H   0  0  0  0  0  0  0  0  0  0  0  0
  150.7464  139.5055  158.6462 H   0  0  0  0  0  0  0  0  0  0  0  0
  151.7773  138.4572  152.5263 H   0  0  0  0  0  0  0  0  0  0  0  0
  149.4278  135.1040  157.4997 H   0  0  0  0  0  0  0  0  0  0  0  0
  150.6171  133.9035  154.4285 H   0  0  0  0  0  0  0  0  0  0  0  0
  149.2696  133.6321  155.5021 H   0  0  0  0  0  0  0  0  0  0  0  0
  149.1142  135.2181  152.8832 H   0  0  0  0  0  0  0  0  0  0  0  0
  149.5204  132.7456  152.6093 H   0  0  0  0  0  0  0  0  0  0  0  0
  148.0210  132.4215  153.4588 H   0  0  0  0  0  0  0  0  0  0  0  0
  148.1175  132.6907  151.0240 H   0  0  0  0  0  0  0  0  0  0  0  0
  146.6785  135.2219  153.1439 H   0  0  0  0  0  0  0  0  0  0  0  0
  148.1384  136.3910  155.5280 H   0  0  0  0  0  0  0  0  0  0  0  0
  147.5009  137.2606  154.1242 H   0  0  0  0  0  0  0  0  0  0  0  0
  145.9552  137.1376  156.3005 H   0  0  0  0  0  0  0  0  0  0  0  0
  145.2083  136.7233  154.7509 H   0  0  0  0  0  0  0  0  0  0  0  0
  145.8226  133.5329  154.5480 H   0  0  0  0  0  0  0  0  0  0  0  0
  147.1749  133.6348  155.6764 H   0  0  0  0  0  0  0  0  0  0  0  0
  149.1610  140.4538  156.8526 H   0  0  0  0  0  0  0  0  0  0  0  0
  150.9974  141.9257  154.8112 H   0  0  0  0  0  0  0  0  0  0  0  0
  149.1931  142.1844  155.0596 H   0  0  0  0  0  0  0  0  0  0  0  0
  149.6201  142.8218  157.4593 H   0  0  0  0  0  0  0  0  0  0  0  0
  151.4232  142.5554  157.2077 H   0  0  0  0  0  0  0  0  0  0  0  0
  151.4007  141.3990  159.5565 H   0  0  0  0  0  0  0  0  0  0  0  0
  154.0439  142.6238  159.4978 H   0  0  0  0  0  0  0  0  0  0  0  0
  153.2687  140.8438  161.9311 H   0  0  0  0  0  0  0  0  0  0  0  0
  154.6946  141.9992  161.8185 H   0  0  0  0  0  0  0  0  0  0  0  0
  153.1198  143.9095  161.4245 H   0  0  0  0  0  0  0  0  0  0  0  0
  151.6922  142.7559  161.5393 H   0  0  0  0  0  0  0  0  0  0  0  0
  1  2  2  0  0  0  0
  2  3  1  0  0  0  0
  2 26  1  0  0  0  0
  3  4  1  0  0  0  0
  3 30  1  0  0  0  0
  3 31  1  0  0  0  0
  4  5  1  0  0  0  0
  4 23  1  0  0  0  0
  5 10  1  0  0  0  0
  5  6  2  0  0  0  0
  6  7  1  0  0  0  0
  7  8  2  0  0  0  0
  7 32  1  0  0  0  0
  8  9  1  0  0  0  0
  9 13  1  0  0  0  0
  9 10  2  0  0  0  0
 10 11  1  0  0  0  0
 11 12  2  0  0  0  0
 12 13  1  0  0  0  0
 12 33  1  0  0  0  0
 13 14  1  0  0  0  0
 14 15  1  0  0  0  0
 14 34  1  0  0  0  0
 14 35  1  0  0  0  0
 15 16  1  0  0  0  0
 15 18  1  0  0  0  0
 15 36  1  0  0  0  0
 16 17  1  0  0  0  0
 16 37  1  0  0  0  0
 16 38  1  0  0  0  0
 17 39  1  0  0  0  0
 18 22  1  0  0  0  0
 18 19  1  0  0  0  0
 18 40  1  0  0  0  0
 19 20  1  0  0  0  0
 19 41  1  0  0  0  0
 19 42  1  0  0  0  0
 20 21  1  0  0  0  0
 20 43  1  0  0  0  0
 20 44  1  0  0  0  0
 21 22  1  0  0  0  0
 22 45  1  0  0  0  0
 22 46  1  0  0  0  0
 23 25  1  0  0  0  0
 23 24  1  0  0  0  0
 23 47  1  0  0  0  0
 24 25  1  0  0  0  0
 24 48  1  0  0  0  0
 24 49  1  0  0  0  0
 25 50  1  0  0  0  0
 25 51  1  0  0  0  0
 26 27  1  0  0  0  0
 26 52  1  0  0  0  0
 27 29  1  0  0  0  0
 27 28  1  0  0  0  0
 27 53  1  0  0  0  0
 28 29  1  0  0  0  0
 28 54  1  0  0  0  0
 28 55  1  0  0  0  0
 29 56  1  0  0  0  0
 29 57  1  0  0  0  0
M  END
> <s_m_source_file>
AV-unprocessed.smi

> <i_m_source_file_index>
77

> <i_lp_mmshare_version>
43012

> <i_f3d_flags>
0

> <s_epik_input>
W0NIMl0xW0NIMl1bQ0hdMVtOSF1DKD1PKVtDSDJdTihbQ0hdMltDSDJdW0NIMl0yKWMobltjSF1uMyljKGMzNCluW2NIXW40W0NIMl1bQ0BIXShbQ0gyXVtPSF0pW0NAQEhdNVtDSDJdW0NIMl1PW0NIMl01

> <s_epik_cmdline>
J2VwaWtfcHl0aG9uJywgJy1waCcsICc3LjAnLCAnLXRuJywgJzgnLCAnLW1hJywgJzIwMCcsICctbWV0YWxfYmluZGluZycsICctaW1hZScsICc8aW5maWxlLm1hZT4nLCAnLW9tYWUnLCAnPG91dGZpbGUubWFlPic=

> <r_lp_tautomer_probability>
1

> <r_epik_Ionization_Penalty>
0.000703847

> <r_epik_Ionization_Penalty_Charging>
0

> <r_epik_Ionization_Penalty_Neutral>
0.000703847

> <r_epik_State_Penalty>
0.00034025

> <r_epik_Charging_Adjusted_Penalty>
0.00034025

> <i_epik_Tot_Q>
0

> <i_epik_Tot_abs_Q>
0

> <r_epik_Metal_State_Penalty>
-0

> <b_epik_Metal_Only>
0

> <s_lp_Force_Field>
OPLS_2005

> <r_lp_Energy>
54.5586

> <b_lp_Chiralities_Consistent>
1

> <s_lp_Variant>
AV-unprocessed.smi:77-2

> <Gold.Version>
5.8.1

> <Gold.Id.Protein>
6NUR|6NUR_protein|mol2

> <Gold.PLP.Fitness>
47.7812

> <Gold.PLP.PLP>
-41.0028

> <Gold.PLP.part.hbond>
-3.0000

> <Gold.PLP.part.metal>
0.0000

> <Gold.PLP.part.buried>
-6.4728

> <Gold.PLP.part.nonpolar>
-33.7138

> <Gold.PLP.part.repulsive>
1.6086

> <Gold.PLP.ligand.clash>
0.0000

> <Gold.PLP.ligand.torsion>
2.4750

> <Gold.PLP.Chemscore.Hbond>
3.0000

> <Gold.PLP.Chemscore.CHOScore>
0.2617

> <Gold.PLP.Chemscore.Metal>
0.0000

> <Gold.Chemscore.Hbonds>
donor molecule, donor type, donor heavy atom, donor atom, acceptor molecule, acceptor atom, score
      L1  H    17    39       P1 10747  0.71
      P1  H  7989  7998       L1     6  1.00
      P1  H  7997  8008       L1     1  0.82
      L1  C     7    32       P1  7949  0.14

> <Gold.PLP.Chemscore.Internal.Correction>
1.9432

> <Gold.Rescore>
     Score         DG    S(hbond)    S(metal)    S(lipo)     H(rot)  DE(clash)    DE(int)     intcor
      5.89     -12.08       1.93        0.00      83.68       3.77       0.95       5.23       ----

> <Gold.Chemscore.Fitness>
5.8896

> <Gold.Chemscore.DG>
-12.0775

> <Gold.Chemscore.ZeroCoef>
-5.4800

> <Gold.Chemscore.Hbond>
1.9346

> <Gold.Chemscore.Metal>
0.0000

> <Gold.Chemscore.Lipo>
83.6829

> <Gold.Chemscore.Internal_Hbond>
0.0000

> <Gold.Chemscore.DEClash>
0.9530

> <Gold.Chemscore.DEInternal>
5.2350

> <Gold.Chemscore.Rot>
3.7714

> <Gold.Chemscore.Internal.Correction>
   9.000000E+99

> <Gold.Chemscore.Hbonds>
donor molecule, donor type, donor heavy atom, donor atom, acceptor molecule, acceptor atom, score
      L1  H    17    39       P1 10747  0.70
      P1  H  7989  7998       L1     6  0.59
      P1  H  7997  8008       L1     1  0.76

> <Gold.Chemscore.Hbond.Weighted>
-6.4614

> <Gold.Chemscore.Metal.Weighted>
-0.0000

> <Gold.Chemscore.Lipo.Weighted>
-9.7909

> <Gold.Chemscore.Internal_Hbond.Weighted>
0.0000

> <Gold.Chemscore.DEClash.Weighted>
0.9530

> <Gold.Chemscore.DEInternal.Weighted>
5.2350

> <Gold.Chemscore.Rot.Weighted>
9.6548

> <Gold.Chemscore.Internal.Correction.Weighted>
   9.000000E+99

> <Gold.Protein.RotatedTorsions>
[ 6907 6896 6895 6894 ] final  -97.57 input  -60.11 | X-H torsion
[ 7974 7965 7964 7962 ] final -132.63 input  175.53 | X-H torsion
[ 8008 7997 7996 7995 ] final -110.10 input   59.86 | X-H torsion
[ 10167 10162 10161 10158 ] final  107.49 input  -65.29 | X-H torsion
[ 10718 10713 10712 10709 ] final -144.06 input   66.30 | X-H torsion
[ 10763 10752 10751 10750 ] final  178.59 input  -60.55 | X-H torsion
[ 11005 11000 10999 10996 ] final -148.09 input  -57.11 | X-H torsion

> <Gold.Protein.ActiveResidues>
 VAL166  LYS551  ARG553  GLY616  TRP617  ASP618  TYR619  PRO620  LYS621  CYS622 
 ASP623  PHE694  ASN695  SER759  ASP760  ASP761  ALA762  ILE779  LEU786  VAL792 
 PHE793  MET794  SER795  GLU796  ALA797  LYS798  CYS799  TRP800  GLU811  SER814 

> <Gold.Protein.RotatedAtoms>
  150.7020  134.1328  159.4075 H   0  0  0  0  0  0  0  0  0  0  0  0  # atno 6907 bound_to 6896
  151.9314  135.0252  160.0538 H   0  0  0  0  0  0  0  0  0  0  0  0  # atno 6908 bound_to 6896
  152.2172  133.4921  159.5179 H   0  0  0  0  0  0  0  0  0  0  0  0  # atno 6909 bound_to 6896
  144.9267  140.7080  143.4931 H   0  0  0  0  0  0  0  0  0  0  0  0  # atno 7974 bound_to 7965
  154.9694  140.0398  157.2227 H   0  0  0  0  0  0  0  0  0  0  0  0  # atno 8008 bound_to 7997
  154.7815  140.2819  155.6038 H   0  0  0  0  0  0  0  0  0  0  0  0  # atno 8009 bound_to 7997
  156.2937  140.2591  156.2641 H   0  0  0  0  0  0  0  0  0  0  0  0  # atno 8010 bound_to 7997
  139.6923  144.7106  151.1327 H   0  0  0  0  0  0  0  0  0  0  0  0  # atno 10167 bound_to 10162
  156.3655  130.7760  151.1934 H   0  0  0  0  0  0  0  0  0  0  0  0  # atno 10718 bound_to 10713
  154.5096  135.2788  155.1353 H   0  0  0  0  0  0  0  0  0  0  0  0  # atno 10763 bound_to 10752
  154.2954  135.6258  153.5406 H   0  0  0  0  0  0  0  0  0  0  0  0  # atno 10764 bound_to 10752
  152.9916  135.5684  154.5559 H   0  0  0  0  0  0  0  0  0  0  0  0  # atno 10765 bound_to 10752
  140.7649  134.3256  157.5091 H   0  0  0  0  0  0  0  0  0  0  0  0  # atno 11005 bound_to 11000
  145.3207  139.1789  143.4589 LP  0  0  0  0  0  0  0  0  0  0  0  0  # atno 17320 bound_to 7965
  146.3229  140.3224  142.8634 LP  0  0  0  0  0  0  0  0  0  0  0  0  # atno 17321 bound_to 7965
  140.7686  143.5541  150.9171 LP  0  0  0  0  0  0  0  0  0  0  0  0  # atno 17342 bound_to 10162
  139.9219  143.6595  152.3095 LP  0  0  0  0  0  0  0  0  0  0  0  0  # atno 17343 bound_to 10162
  157.7478  131.0388  150.4518 LP  0  0  0  0  0  0  0  0  0  0  0  0  # atno 17370 bound_to 10713
  156.4736  130.4058  149.6503 LP  0  0  0  0  0  0  0  0  0  0  0  0  # atno 17371 bound_to 10713
  139.8765  134.9225  156.3301 LP  0  0  0  0  0  0  0  0  0  0  0  0  # atno 17394 bound_to 11000
  140.9629  133.7377  156.0426 LP  0  0  0  0  0  0  0  0  0  0  0  0  # atno 17395 bound_to 11000

$$$$
