AV-unprocessed.smi:1803|AV-procd|sdf|7289|dock1
  -GOLD-   22720 8543D 1   1.00000     0.00000
 Structure written by MMmdl.
 35 37  0  0  0  0  0  0  0  0  3 V2000
  147.3492  135.4358  157.9352 O   0  0  0  0  0  0  0  0  0  0  0  0
  148.5059  135.7781  158.1766 C   0  0  0  0  0  0  0  0  0  0  0  0
  149.0457  135.7638  159.4231 N   0  5  0  0  0  0  0  0  0  0  0  0
  148.2946  135.8074  160.5395 C   0  0  0  0  0  0  0  0  0  0  0  0
  148.2647  136.8795  161.3476 N   0  0  0  0  0  0  0  0  0  0  0  0
  147.4201  136.7179  162.4374 N   0  0  0  0  0  0  0  0  0  0  0  0
  146.8397  135.5181  162.4289 C   0  0  0  0  0  0  0  0  0  0  0  0
  147.2678  134.4793  161.0859 S   0  0  0  0  0  0  0  0  0  0  0  0
  149.2873  136.1882  157.1602 N   0  0  0  0  0  0  0  0  0  0  0  0
  148.8916  136.2780  155.7604 C   0  0  2  0  0  0  0  0  0  0  0  0
  147.6678  137.1803  155.5098 C   0  0  0  0  0  0  0  0  0  0  0  0
  146.8501  136.4638  154.4171 C   0  0  0  0  0  0  0  0  0  0  0  0
  147.6576  135.2899  154.0327 N   0  3  2  0  0  0  0  0  0  0  0  0
  146.9407  134.1407  153.4389 C   0  0  0  0  0  0  0  0  0  0  0  0
  147.9614  133.0555  153.0393 C   0  0  0  0  0  0  0  0  0  0  0  0
  148.8783  132.6683  154.2182 C   0  0  0  0  0  0  0  0  0  0  0  0
  149.5247  133.9149  154.8526 C   0  0  0  0  0  0  0  0  0  0  0  0
  148.4283  134.9239  155.2299 C   0  0  1  0  0  0  0  0  0  0  0  0
  146.1564  135.2428  163.2183 H   0  0  0  0  0  0  0  0  0  0  0  0
  150.2338  136.4578  157.3854 H   0  0  0  0  0  0  0  0  0  0  0  0
  149.7318  136.6301  155.1582 H   0  0  0  0  0  0  0  0  0  0  0  0
  147.0632  137.2894  156.4115 H   0  0  0  0  0  0  0  0  0  0  0  0
  147.9753  138.1796  155.1997 H   0  0  0  0  0  0  0  0  0  0  0  0
  145.8883  136.1435  154.8204 H   0  0  0  0  0  0  0  0  0  0  0  0
  146.6602  137.1018  153.5537 H   0  0  0  0  0  0  0  0  0  0  0  0
  146.2197  133.7422  154.1545 H   0  0  0  0  0  0  0  0  0  0  0  0
  146.3797  134.4713  152.5642 H   0  0  0  0  0  0  0  0  0  0  0  0
  147.4416  132.1734  152.6645 H   0  0  0  0  0  0  0  0  0  0  0  0
  148.5742  133.4240  152.2155 H   0  0  0  0  0  0  0  0  0  0  0  0
  148.2942  132.1395  154.9726 H   0  0  0  0  0  0  0  0  0  0  0  0
  149.6498  131.9747  153.8825 H   0  0  0  0  0  0  0  0  0  0  0  0
  150.0995  133.6332  155.7355 H   0  0  0  0  0  0  0  0  0  0  0  0
  150.2274  134.3666  154.1509 H   0  0  0  0  0  0  0  0  0  0  0  0
  147.7486  134.4683  155.9543 H   0  0  0  0  0  0  0  0  0  0  0  0
  148.3288  135.6142  153.3513 H   0  0  0  0  0  0  0  0  0  0  0  0
  1  2  2  0  0  0  0
  2  3  1  0  0  0  0
  2  9  1  0  0  0  0
  3  4  1  0  0  0  0
  4  8  1  0  0  0  0
  4  5  2  0  0  0  0
  5  6  1  0  0  0  0
  6  7  2  0  0  0  0
  7  8  1  0  0  0  0
  7 19  1  0  0  0  0
  9 10  1  0  0  0  0
  9 20  1  0  0  0  0
 10 18  1  0  0  0  0
 10 11  1  0  0  0  0
 10 21  1  0  0  0  0
 11 12  1  0  0  0  0
 11 22  1  0  0  0  0
 11 23  1  0  0  0  0
 12 13  1  0  0  0  0
 12 24  1  0  0  0  0
 12 25  1  0  0  0  0
 13 18  1  0  0  0  0
 13 14  1  0  0  0  0
 13 35  1  0  0  0  0
 14 15  1  0  0  0  0
 14 26  1  0  0  0  0
 14 27  1  0  0  0  0
 15 16  1  0  0  0  0
 15 28  1  0  0  0  0
 15 29  1  0  0  0  0
 16 17  1  0  0  0  0
 16 30  1  0  0  0  0
 16 31  1  0  0  0  0
 17 18  1  0  0  0  0
 17 32  1  0  0  0  0
 17 33  1  0  0  0  0
 18 34  1  0  0  0  0
M  CHG  1   3  -1
M  CHG  1  13   1
M  END
> <s_m_source_file>
AV-unprocessed.smi

> <i_m_source_file_index>
1803

> <i_lp_mmshare_version>
43012

> <i_f3d_flags>
0

> <s_epik_input>
czFbY0hdbm5jMVtOSF1DKD1PKVtOSF1bQ0BIXShbQ0gyXVtDSDJdMilbQ0BASF0oTjIzKVtDSDJdW0NIMl1bQ0gyXVtDSDJdMw==

> <s_epik_cmdline>
J2VwaWtfcHl0aG9uJywgJy1waCcsICc3LjAnLCAnLXRuJywgJzgnLCAnLW1hJywgJzIwMCcsICctbWV0YWxfYmluZGluZycsICctaW1hZScsICc8aW5maWxlLm1hZT4nLCAnLW9tYWUnLCAnPG91dGZpbGUubWFlPic=

> <r_lp_tautomer_probability>
1

> <r_epik_Ionization_Penalty>
3.78828

> <r_epik_Ionization_Penalty_Charging>
3.7591

> <r_epik_Ionization_Penalty_Neutral>
0.0291838

> <r_epik_State_Penalty>
3.757

> <r_epik_Charging_Adjusted_Penalty>
7.51609

> <i_epik_Tot_Q>
0

> <i_epik_Tot_abs_Q>
2

> <r_epik_Metal_State_Penalty>
0.558016

> <b_epik_Metal_Only>
1

> <s_lp_Force_Field>
OPLS_2005

> <r_lp_Energy>
28.5802

> <b_lp_Chiralities_Consistent>
1

> <s_lp_Variant>
AV-unprocessed.smi:1803-11

> <Gold.Version>
5.8.1

> <Gold.Id.Protein>
6NUR|6NUR_protein|mol2

> <Gold.PLP.Fitness>
40.0166

> <Gold.PLP.PLP>
-25.9196

> <Gold.PLP.part.hbond>
-4.5191

> <Gold.PLP.part.metal>
0.0000

> <Gold.PLP.part.buried>
-3.8431

> <Gold.PLP.part.nonpolar>
-18.4230

> <Gold.PLP.part.repulsive>
0.0437

> <Gold.PLP.ligand.clash>
0.0000

> <Gold.PLP.ligand.torsion>
0.7753

> <Gold.PLP.Chemscore.Hbond>
5.2111

> <Gold.PLP.Chemscore.CHOScore>
0.0000

> <Gold.PLP.Chemscore.Metal>
0.0000

> <Gold.Chemscore.Hbonds>
donor molecule, donor type, donor heavy atom, donor atom, acceptor molecule, acceptor atom, score
      L1  H    13    35       P1  7948  2.00
      P1  H  6896  6908       L1     3  2.00
      P1  H  6931  6943       L1     5  0.85

> <Gold.PLP.Chemscore.Internal.Correction>
0.0142

> <Gold.Rescore>
     Score         DG    S(hbond)    S(metal)    S(lipo)     H(rot)  DE(clash)    DE(int)     intcor
     13.69     -16.57       2.52        0.00      44.71       1.00       0.01       2.86       ----

> <Gold.Chemscore.Fitness>
13.6939

> <Gold.Chemscore.DG>
-16.5681

> <Gold.Chemscore.ZeroCoef>
-5.4800

> <Gold.Chemscore.Hbond>
2.5199

> <Gold.Chemscore.Metal>
0.0000

> <Gold.Chemscore.Lipo>
44.7146

> <Gold.Chemscore.Internal_Hbond>
0.0000

> <Gold.Chemscore.DEClash>
0.0111

> <Gold.Chemscore.DEInternal>
2.8631

> <Gold.Chemscore.Rot>
1.0000

> <Gold.Chemscore.Internal.Correction>
   9.000000E+99

> <Gold.Chemscore.Hbonds>
donor molecule, donor type, donor heavy atom, donor atom, acceptor molecule, acceptor atom, score
      L1  H    13    35       P1  7948  1.00
      P1  H  6896  6908       L1     3  0.78
      P1  H  6931  6943       L1     5  0.15

> <Gold.Chemscore.Hbond.Weighted>
-8.4165

> <Gold.Chemscore.Metal.Weighted>
-0.0000

> <Gold.Chemscore.Lipo.Weighted>
-5.2316

> <Gold.Chemscore.Internal_Hbond.Weighted>
0.0000

> <Gold.Chemscore.DEClash.Weighted>
0.0111

> <Gold.Chemscore.DEInternal.Weighted>
2.8631

> <Gold.Chemscore.Rot.Weighted>
2.5600

> <Gold.Chemscore.Internal.Correction.Weighted>
   9.000000E+99

> <Gold.Protein.RotatedTorsions>
[ 6907 6896 6895 6894 ] final -176.61 input  -60.11 | X-H torsion
[ 7974 7965 7964 7962 ] final -105.01 input  175.53 | X-H torsion
[ 8008 7997 7996 7995 ] final  -96.79 input   59.86 | X-H torsion
[ 10167 10162 10161 10158 ] final -157.25 input  -65.29 | X-H torsion
[ 10718 10713 10712 10709 ] final   22.48 input   66.30 | X-H torsion
[ 10763 10752 10751 10750 ] final  -86.22 input  -60.55 | X-H torsion
[ 11005 11000 10999 10996 ] final  -24.20 input  -57.11 | X-H torsion

> <Gold.Protein.ActiveResidues>
 VAL166  LYS551  ARG553  GLY616  TRP617  ASP618  TYR619  PRO620  LYS621  CYS622 
 ASP623  PHE694  ASN695  SER759  ASP760  ASP761  ALA762  ILE779  LEU786  VAL792 
 PHE793  MET794  SER795  GLU796  ALA797  LYS798  CYS799  TRP800  GLU811  SER814 

> <Gold.Protein.RotatedAtoms>
  151.6076  133.3350  159.3060 H   0  0  0  0  0  0  0  0  0  0  0  0  # atno 6907 bound_to 6896
  150.8174  134.7366  159.6753 H   0  0  0  0  0  0  0  0  0  0  0  0  # atno 6908 bound_to 6896
  152.4269  134.5857  160.0012 H   0  0  0  0  0  0  0  0  0  0  0  0  # atno 6909 bound_to 6896
  145.2359  140.9187  143.3178 H   0  0  0  0  0  0  0  0  0  0  0  0  # atno 7974 bound_to 7965
  154.7791  140.0468  157.1113 H   0  0  0  0  0  0  0  0  0  0  0  0  # atno 8008 bound_to 7997
  154.9726  140.3091  155.4961 H   0  0  0  0  0  0  0  0  0  0  0  0  # atno 8009 bound_to 7997
  156.2933  140.2250  156.4820 H   0  0  0  0  0  0  0  0  0  0  0  0  # atno 8010 bound_to 7997
  139.6786  143.9621  152.2324 H   0  0  0  0  0  0  0  0  0  0  0  0  # atno 10167 bound_to 10162
  157.1528  130.6682  149.6017 H   0  0  0  0  0  0  0  0  0  0  0  0  # atno 10718 bound_to 10713
  154.6199  135.5457  153.7564 H   0  0  0  0  0  0  0  0  0  0  0  0  # atno 10763 bound_to 10752
  153.0233  135.6410  154.1455 H   0  0  0  0  0  0  0  0  0  0  0  0  # atno 10764 bound_to 10752
  154.1390  135.2909  155.3146 H   0  0  0  0  0  0  0  0  0  0  0  0  # atno 10765 bound_to 10752
  140.8823  133.7645  156.0318 H   0  0  0  0  0  0  0  0  0  0  0  0  # atno 11005 bound_to 11000
  144.9633  139.3956  143.6345 LP  0  0  0  0  0  0  0  0  0  0  0  0  # atno 17320 bound_to 7965
  146.3341  139.8697  142.8842 LP  0  0  0  0  0  0  0  0  0  0  0  0  # atno 17321 bound_to 7965
  139.9404  144.6685  150.8272 LP  0  0  0  0  0  0  0  0  0  0  0  0  # atno 17342 bound_to 10162
  140.7644  143.3248  151.2541 LP  0  0  0  0  0  0  0  0  0  0  0  0  # atno 17343 bound_to 10162
  155.9767  130.4738  150.6547 LP  0  0  0  0  0  0  0  0  0  0  0  0  # atno 17370 bound_to 10713
  157.4204  131.0836  151.1136 LP  0  0  0  0  0  0  0  0  0  0  0  0  # atno 17371 bound_to 10713
  140.8446  134.3026  157.5300 LP  0  0  0  0  0  0  0  0  0  0  0  0  # atno 17394 bound_to 11000
  139.8721  134.9435  156.3854 LP  0  0  0  0  0  0  0  0  0  0  0  0  # atno 17395 bound_to 11000

$$$$
