AV-unprocessed.smi:2775|AV-procd|sdf|10688|dock4
  -GOLD-   2272015133D 1   1.00000     0.00000
 Structure written by MMmdl.
 42 45  0  0  0  0  0  0  0  0  1 V2000
  148.5659  134.5485  157.4970 C   0  0  0  0  0  0  0  0  0  0  0  0
  149.4985  135.6407  157.0077 C   0  0  0  0  0  0  0  0  0  0  0  0
  149.9212  135.5191  155.7305 N   0  0  0  0  0  0  0  0  0  0  0  0
  150.7552  136.4614  155.2456 C   0  0  0  0  0  0  0  0  0  0  0  0
  151.1978  137.5656  155.9981 C   0  0  0  0  0  0  0  0  0  0  0  0
  150.7429  137.7058  157.3312 C   0  0  0  0  0  0  0  0  0  0  0  0
  151.1331  138.7736  158.1858 N   0  0  0  0  0  0  0  0  0  0  0  0
  151.9630  139.8045  157.9330 C   0  0  0  0  0  0  0  0  0  0  0  0
  152.5936  139.9639  156.8903 O   0  0  0  0  0  0  0  0  0  0  0  0
  152.0435  140.6941  158.9370 N   0  0  0  0  0  0  0  0  0  0  0  0
  152.8529  141.9201  158.9776 C   0  0  2  0  0  0  0  0  0  0  0  0
  153.5382  142.1751  160.3275 C   0  0  2  0  0  0  0  0  0  0  0  0
  153.9719  141.3326  161.4720 C   0  0  0  0  0  0  0  0  0  0  0  0
  153.5575  142.3125  162.5989 C   0  0  0  0  0  0  0  0  0  0  0  0
  152.8055  143.3681  161.9484 O   0  0  0  0  0  0  0  0  0  0  0  0
  152.2179  142.7443  160.8212 C   0  0  1  0  0  0  0  0  0  0  0  0
  152.0397  143.2009  159.3633 C   0  0  0  0  0  0  0  0  0  0  0  0
  152.4745  144.6021  158.9032 C   0  0  0  0  0  0  0  0  0  0  0  0
  151.3090  144.5815  157.9097 C   0  0  0  0  0  0  0  0  0  0  0  0
  150.6558  143.4919  158.7663 C   0  0  0  0  0  0  0  0  0  0  0  0
  149.8852  136.7082  157.8513 C   0  0  0  0  0  0  0  0  0  0  0  0
  149.3145  136.7935  159.4847 Cl  0  0  0  0  0  0  0  0  0  0  0  0
  147.6098  134.9757  157.8005 H   0  0  0  0  0  0  0  0  0  0  0  0
  149.0009  134.0322  158.3530 H   0  0  0  0  0  0  0  0  0  0  0  0
  148.3718  133.8086  156.7194 H   0  0  0  0  0  0  0  0  0  0  0  0
  151.0850  136.3290  154.2257 H   0  0  0  0  0  0  0  0  0  0  0  0
  151.8790  138.2681  155.5438 H   0  0  0  0  0  0  0  0  0  0  0  0
  150.6408  138.8174  159.0663 H   0  0  0  0  0  0  0  0  0  0  0  0
  151.4857  140.5050  159.7572 H   0  0  0  0  0  0  0  0  0  0  0  0
  153.5003  142.0634  158.1112 H   0  0  0  0  0  0  0  0  0  0  0  0
  154.2856  142.9611  160.1683 H   0  0  0  0  0  0  0  0  0  0  0  0
  153.4230  140.3917  161.5269 H   0  0  0  0  0  0  0  0  0  0  0  0
  155.0421  141.1265  161.4678 H   0  0  0  0  0  0  0  0  0  0  0  0
  152.9397  141.8080  163.3428 H   0  0  0  0  0  0  0  0  0  0  0  0
  154.4222  142.7385  163.1083 H   0  0  0  0  0  0  0  0  0  0  0  0
  151.4872  141.9865  161.1193 H   0  0  0  0  0  0  0  0  0  0  0  0
  152.3520  145.3572  159.6813 H   0  0  0  0  0  0  0  0  0  0  0  0
  153.4620  144.6519  158.4436 H   0  0  0  0  0  0  0  0  0  0  0  0
  150.7449  145.5127  157.8480 H   0  0  0  0  0  0  0  0  0  0  0  0
  151.6043  144.2204  156.9233 H   0  0  0  0  0  0  0  0  0  0  0  0
  150.2124  142.6750  158.1967 H   0  0  0  0  0  0  0  0  0  0  0  0
  149.9581  143.8963  159.5011 H   0  0  0  0  0  0  0  0  0  0  0  0
  1  2  1  0  0  0  0
  1 23  1  0  0  0  0
  1 24  1  0  0  0  0
  1 25  1  0  0  0  0
  2 21  1  0  0  0  0
  2  3  2  0  0  0  0
  3  4  1  0  0  0  0
  4  5  2  0  0  0  0
  4 26  1  0  0  0  0
  5  6  1  0  0  0  0
  5 27  1  0  0  0  0
  6  7  1  0  0  0  0
  6 21  2  0  0  0  0
  7  8  1  0  0  0  0
  7 28  1  0  0  0  0
  8  9  2  0  0  0  0
  8 10  1  0  0  0  0
 10 11  1  0  0  0  0
 10 29  1  0  0  0  0
 11 17  1  0  0  0  0
 11 12  1  0  0  0  0
 11 30  1  0  0  0  0
 12 16  1  0  0  0  0
 12 13  1  0  0  0  0
 12 31  1  0  0  0  0
 13 14  1  0  0  0  0
 13 32  1  0  0  0  0
 13 33  1  0  0  0  0
 14 15  1  0  0  0  0
 14 34  1  0  0  0  0
 14 35  1  0  0  0  0
 15 16  1  0  0  0  0
 16 17  1  0  0  0  0
 16 36  1  0  0  0  0
 17 20  1  0  0  0  0
 17 18  1  0  0  0  0
 18 19  1  0  0  0  0
 18 37  1  0  0  0  0
 18 38  1  0  0  0  0
 19 20  1  0  0  0  0
 19 39  1  0  0  0  0
 19 40  1  0  0  0  0
 20 41  1  0  0  0  0
 20 42  1  0  0  0  0
 21 22  1  0  0  0  0
M  END
> <s_m_source_file>
AV-unprocessed.smi

> <i_m_source_file_index>
2775

> <i_lp_mmshare_version>
43012

> <i_f3d_flags>
0

> <s_epik_input>
W0NIM11jMW5bY0hdW2NIXWMoYzFDbClbTkhdQyg9TylbTkhdW0NAQEhdMltDQEhdKFtDSDJdW0NIMl1PMylbQ0BASF0zQzI0W0NIMl1bQ0gyXVtDSDJdNA==

> <s_epik_cmdline>
J2VwaWtfcHl0aG9uJywgJy1waCcsICc3LjAnLCAnLXRuJywgJzgnLCAnLW1hJywgJzIwMCcsICctbWV0YWxfYmluZGluZycsICctaW1hZScsICc8aW5maWxlLm1hZT4nLCAnLW9tYWUnLCAnPG91dGZpbGUubWFlPic=

> <r_epik_Ionization_Penalty>
0.01026

> <r_epik_Ionization_Penalty_Charging>
0

> <r_epik_Ionization_Penalty_Neutral>
0.01026

> <r_epik_State_Penalty>
0.00780685

> <r_epik_Charging_Adjusted_Penalty>
0.00780685

> <i_epik_Tot_Q>
0

> <i_epik_Tot_abs_Q>
0

> <r_epik_Metal_State_Penalty>
0.00767411

> <b_epik_Metal_Only>
0

> <s_lp_Force_Field>
OPLS_2005

> <r_lp_Energy>
81.865

> <b_lp_Chiralities_Consistent>
1

> <s_lp_Variant>
AV-unprocessed.smi:2775-1

> <Gold.Version>
5.8.1

> <Gold.Id.Protein>
6NUR|6NUR_protein|mol2

> <Gold.PLP.Fitness>
45.3320

> <Gold.PLP.PLP>
-39.3226

> <Gold.PLP.part.hbond>
-1.0000

> <Gold.PLP.part.metal>
0.0000

> <Gold.PLP.part.buried>
-4.2169

> <Gold.PLP.part.nonpolar>
-33.7558

> <Gold.PLP.part.repulsive>
0.4044

> <Gold.PLP.ligand.clash>
0.0000

> <Gold.PLP.ligand.torsion>
0.1628

> <Gold.PLP.Chemscore.Hbond>
1.0000

> <Gold.PLP.Chemscore.CHOScore>
1.0062

> <Gold.PLP.Chemscore.Metal>
0.0000

> <Gold.Chemscore.Hbonds>
donor molecule, donor type, donor heavy atom, donor atom, acceptor molecule, acceptor atom, score
      P1  H  7997  8009       L1     9  1.00
      L1  C     4    26       P1  7949  0.45

> <Gold.PLP.Chemscore.Internal.Correction>
0.3163

> <Gold.Rescore>
     Score         DG    S(hbond)    S(metal)    S(lipo)     H(rot)  DE(clash)    DE(int)     intcor
     19.63     -21.06       1.00        0.00     126.56       1.00       0.03       1.40       ----

> <Gold.Chemscore.Fitness>
19.6308

> <Gold.Chemscore.DG>
-21.0565

> <Gold.Chemscore.ZeroCoef>
-5.4800

> <Gold.Chemscore.Hbond>
0.9968

> <Gold.Chemscore.Metal>
0.0000

> <Gold.Chemscore.Lipo>
126.5575

> <Gold.Chemscore.Internal_Hbond>
0.0000

> <Gold.Chemscore.DEClash>
0.0295

> <Gold.Chemscore.DEInternal>
1.3962

> <Gold.Chemscore.Rot>
1.0000

> <Gold.Chemscore.Internal.Correction>
   9.000000E+99

> <Gold.Chemscore.Hbonds>
donor molecule, donor type, donor heavy atom, donor atom, acceptor molecule, acceptor atom, score
      P1  H  7997  8009       L1     9  1.00

> <Gold.Chemscore.Hbond.Weighted>
-3.3293

> <Gold.Chemscore.Metal.Weighted>
-0.0000

> <Gold.Chemscore.Lipo.Weighted>
-14.8072

> <Gold.Chemscore.Internal_Hbond.Weighted>
0.0000

> <Gold.Chemscore.DEClash.Weighted>
0.0295

> <Gold.Chemscore.DEInternal.Weighted>
1.3962

> <Gold.Chemscore.Rot.Weighted>
2.5600

> <Gold.Chemscore.Internal.Correction.Weighted>
   9.000000E+99

> <Gold.Protein.RotatedTorsions>
[ 6907 6896 6895 6894 ] final   27.05 input  -60.11 | X-H torsion
[ 7974 7965 7964 7962 ] final  -87.76 input  175.53 | X-H torsion
[ 8008 7997 7996 7995 ] final -174.66 input   59.86 | X-H torsion
[ 10167 10162 10161 10158 ] final  -93.02 input  -65.29 | X-H torsion
[ 10718 10713 10712 10709 ] final  -38.89 input   66.30 | X-H torsion
[ 10763 10752 10751 10750 ] final  -60.94 input  -60.55 | X-H torsion
[ 11005 11000 10999 10996 ] final    2.36 input  -57.11 | X-H torsion

> <Gold.Protein.ActiveResidues>
 VAL166  LYS551  ARG553  GLY616  TRP617  ASP618  TYR619  PRO620  LYS621  CYS622 
 ASP623  PHE694  ASN695  SER759  ASP760  ASP761  ALA762  ILE779  LEU786  VAL792 
 PHE793  MET794  SER795  GLU796  ALA797  LYS798  CYS799  TRP800  GLU811  SER814 

> <Gold.Protein.RotatedAtoms>
  151.9965  134.9951  160.0563 H   0  0  0  0  0  0  0  0  0  0  0  0  # atno 6907 bound_to 6896
  152.1559  133.4546  159.4845 H   0  0  0  0  0  0  0  0  0  0  0  0  # atno 6908 bound_to 6896
  150.6881  134.2049  159.4379 H   0  0  0  0  0  0  0  0  0  0  0  0  # atno 6909 bound_to 6896
  145.4622  140.9561  143.1963 H   0  0  0  0  0  0  0  0  0  0  0  0  # atno 7974 bound_to 7965
  155.9729  140.1166  157.0796 H   0  0  0  0  0  0  0  0  0  0  0  0  # atno 8008 bound_to 7997
  154.4161  140.1160  156.5398 H   0  0  0  0  0  0  0  0  0  0  0  0  # atno 8009 bound_to 7997
  155.6573  140.3473  155.4772 H   0  0  0  0  0  0  0  0  0  0  0  0  # atno 8010 bound_to 7997
  140.3289  143.3006  151.9964 H   0  0  0  0  0  0  0  0  0  0  0  0  # atno 10167 bound_to 10162
  156.2986  130.4237  149.8166 H   0  0  0  0  0  0  0  0  0  0  0  0  # atno 10718 bound_to 10713
  154.2770  135.6279  153.5332 H   0  0  0  0  0  0  0  0  0  0  0  0  # atno 10763 bound_to 10752
  152.9871  135.5624  154.5538 H   0  0  0  0  0  0  0  0  0  0  0  0  # atno 10764 bound_to 10752
  154.5120  135.2877  155.1310 H   0  0  0  0  0  0  0  0  0  0  0  0  # atno 10765 bound_to 10752
  140.6052  133.9799  155.8151 H   0  0  0  0  0  0  0  0  0  0  0  0  # atno 11005 bound_to 11000
  144.7996  139.6167  143.7077 LP  0  0  0  0  0  0  0  0  0  0  0  0  # atno 17320 bound_to 7965
  146.2445  139.6069  142.9469 LP  0  0  0  0  0  0  0  0  0  0  0  0  # atno 17321 bound_to 7965
  139.4860  144.6251  151.7180 LP  0  0  0  0  0  0  0  0  0  0  0  0  # atno 17342 bound_to 10162
  140.5415  144.0571  150.6090 LP  0  0  0  0  0  0  0  0  0  0  0  0  # atno 17343 bound_to 10162
  156.5552  130.8359  151.3312 LP  0  0  0  0  0  0  0  0  0  0  0  0  # atno 17370 bound_to 10713
  157.7362  130.9775  150.2123 LP  0  0  0  0  0  0  0  0  0  0  0  0  # atno 17371 bound_to 10713
  141.0845  134.0011  157.3334 LP  0  0  0  0  0  0  0  0  0  0  0  0  # atno 17394 bound_to 11000
  139.9215  135.0200  156.8082 LP  0  0  0  0  0  0  0  0  0  0  0  0  # atno 17395 bound_to 11000

$$$$
