AV-unprocessed.smi:21|AV-procd|sdf|140|dock8
  -GOLD-   2262015343D 1   1.00000     0.00000
 Structure written by MMmdl.
 62 65  0  0  0  0  0  0  0  0  2 V2000
  144.5351  135.4482  150.9216 C   0  0  0  0  0  0  0  0  0  0  0  0
  144.8011  134.2118  150.2796 O   0  0  0  0  0  0  0  0  0  0  0  0
  145.1012  133.1587  151.1832 C   0  0  2  0  0  0  0  0  0  0  0  0
  146.3413  133.4934  151.9996 C   0  0  0  0  0  0  0  0  0  0  0  0
  146.8267  132.1178  152.4662 C   0  0  2  0  0  0  0  0  0  0  0  0
  148.3203  132.0725  152.8461 C   0  0  0  0  0  0  0  0  0  0  0  0
  148.5533  131.4170  154.1363 N   0  0  0  0  0  0  0  0  0  0  0  0
  148.0137  130.0748  154.3189 C   0  0  0  0  0  0  0  0  0  0  0  0
  149.0292  132.1184  155.2080 C   0  0  0  0  0  0  0  0  0  0  0  0
  148.8921  131.5735  156.4472 N   0  0  0  0  0  0  0  0  0  0  0  0
  149.3375  132.2075  157.5343 C   0  0  0  0  0  0  0  0  0  0  0  0
  149.9456  133.3896  157.6164 N   0  0  0  0  0  0  0  0  0  0  0  0
  150.0894  133.9538  156.3844 C   0  0  0  0  0  0  0  0  0  0  0  0
  149.6686  133.3971  155.1401 C   0  0  0  0  0  0  0  0  0  0  0  0
  150.0067  134.2736  154.1120 N   0  0  0  0  0  0  0  0  0  0  0  0
  150.5819  135.2800  154.7095 C   0  0  0  0  0  0  0  0  0  0  0  0
  150.6658  135.1730  156.0773 N   0  0  0  0  0  0  0  0  0  0  0  0
  151.2507  136.1351  156.9940 C   0  0  0  0  0  0  0  0  0  0  0  0
  152.0635  137.2515  156.2820 C   0  0  2  0  0  0  0  0  0  0  0  0
  153.5089  137.3742  156.8230 C   0  0  0  0  0  0  0  0  0  0  0  0
  154.1977  136.1415  156.7832 O   0  0  0  0  0  0  0  0  0  0  0  0
  151.3639  138.6368  156.3101 C   0  0  2  0  0  0  0  0  0  0  0  0
  152.0937  139.7894  155.6444 C   0  0  0  0  0  0  0  0  0  0  0  0
  151.3108  140.9856  156.1756 C   0  0  0  0  0  0  0  0  0  0  0  0
  150.9025  140.6247  157.4924 O   0  0  0  0  0  0  0  0  0  0  0  0
  151.0622  139.2220  157.6935 C   0  0  0  0  0  0  0  0  0  0  0  0
  146.5251  131.2067  151.3363 N   0  3  1  0  0  0  0  0  0  0  0  0
  146.1798  129.8274  151.7446 C   0  0  0  0  0  0  0  0  0  0  0  0
  145.4985  131.8525  150.4834 C   0  0  0  0  0  0  0  0  0  0  0  0
  144.2686  132.9826  151.8672 H   0  0  0  0  0  0  0  0  0  0  0  0
  146.2176  131.8171  153.3210 H   0  0  0  0  0  0  0  0  0  0  0  0
  144.3334  136.2123  150.1708 H   0  0  0  0  0  0  0  0  0  0  0  0
  145.3907  135.7774  151.5127 H   0  0  0  0  0  0  0  0  0  0  0  0
  143.6634  135.3829  151.5735 H   0  0  0  0  0  0  0  0  0  0  0  0
  147.0890  133.9598  151.3562 H   0  0  0  0  0  0  0  0  0  0  0  0
  146.1345  134.1753  152.8249 H   0  0  0  0  0  0  0  0  0  0  0  0
  148.8628  131.5028  152.0913 H   0  0  0  0  0  0  0  0  0  0  0  0
  148.7548  133.0712  152.8035 H   0  0  0  0  0  0  0  0  0  0  0  0
  147.1158  130.1005  154.9368 H   0  0  0  0  0  0  0  0  0  0  0  0
  148.7501  129.4218  154.7881 H   0  0  0  0  0  0  0  0  0  0  0  0
  147.7437  129.6279  153.3618 H   0  0  0  0  0  0  0  0  0  0  0  0
  149.1834  131.6948  158.4725 H   0  0  0  0  0  0  0  0  0  0  0  0
  150.9555  136.1359  154.1663 H   0  0  0  0  0  0  0  0  0  0  0  0
  150.4330  136.5522  157.5790 H   0  0  0  0  0  0  0  0  0  0  0  0
  151.8830  135.5915  157.6961 H   0  0  0  0  0  0  0  0  0  0  0  0
  152.1386  136.9875  155.2258 H   0  0  0  0  0  0  0  0  0  0  0  0
  154.0871  138.0743  156.2196 H   0  0  0  0  0  0  0  0  0  0  0  0
  153.5112  137.7613  157.8425 H   0  0  0  0  0  0  0  0  0  0  0  0
  154.3296  135.8412  157.6695 H   0  0  0  0  0  0  0  0  0  0  0  0
  150.3985  138.5336  155.8112 H   0  0  0  0  0  0  0  0  0  0  0  0
  153.1277  139.8566  155.9817 H   0  0  0  0  0  0  0  0  0  0  0  0
  152.0900  139.7308  154.5556 H   0  0  0  0  0  0  0  0  0  0  0  0
  151.8989  141.9037  156.1765 H   0  0  0  0  0  0  0  0  0  0  0  0
  150.4198  141.1554  155.5696 H   0  0  0  0  0  0  0  0  0  0  0  0
  150.1686  138.7845  158.1391 H   0  0  0  0  0  0  0  0  0  0  0  0
  151.8842  139.0789  158.3925 H   0  0  0  0  0  0  0  0  0  0  0  0
  145.2623  129.8097  152.3345 H   0  0  0  0  0  0  0  0  0  0  0  0
  146.9801  129.3899  152.3420 H   0  0  0  0  0  0  0  0  0  0  0  0
  146.0344  129.1966  150.8670 H   0  0  0  0  0  0  0  0  0  0  0  0
  144.6322  131.2148  150.3006 H   0  0  0  0  0  0  0  0  0  0  0  0
  145.9589  132.0643  149.5175 H   0  0  0  0  0  0  0  0  0  0  0  0
  147.3630  131.1532  150.7745 H   0  0  0  0  0  0  0  0  0  0  0  0
  1  2  1  0  0  0  0
  1 32  1  0  0  0  0
  1 33  1  0  0  0  0
  1 34  1  0  0  0  0
  2  3  1  0  0  0  0
  3 30  1  0  0  0  0
  3 29  1  0  0  0  0
  3  4  1  0  0  0  0
  4  5  1  0  0  0  0
  4 35  1  0  0  0  0
  4 36  1  0  0  0  0
  5 31  1  0  0  0  0
  5  6  1  0  0  0  0
  5 27  1  0  0  0  0
  6  7  1  0  0  0  0
  6 37  1  0  0  0  0
  6 38  1  0  0  0  0
  7  8  1  0  0  0  0
  7  9  1  0  0  0  0
  8 39  1  0  0  0  0
  8 40  1  0  0  0  0
  8 41  1  0  0  0  0
  9 14  1  0  0  0  0
  9 10  2  0  0  0  0
 10 11  1  0  0  0  0
 11 12  2  0  0  0  0
 11 42  1  0  0  0  0
 12 13  1  0  0  0  0
 13 17  1  0  0  0  0
 13 14  2  0  0  0  0
 14 15  1  0  0  0  0
 15 16  2  0  0  0  0
 16 17  1  0  0  0  0
 16 43  1  0  0  0  0
 17 18  1  0  0  0  0
 18 19  1  0  0  0  0
 18 44  1  0  0  0  0
 18 45  1  0  0  0  0
 19 20  1  0  0  0  0
 19 22  1  0  0  0  0
 19 46  1  0  0  0  0
 20 21  1  0  0  0  0
 20 47  1  0  0  0  0
 20 48  1  0  0  0  0
 21 49  1  0  0  0  0
 22 26  1  0  0  0  0
 22 23  1  0  0  0  0
 22 50  1  0  0  0  0
 23 24  1  0  0  0  0
 23 51  1  0  0  0  0
 23 52  1  0  0  0  0
 24 25  1  0  0  0  0
 24 53  1  0  0  0  0
 24 54  1  0  0  0  0
 25 26  1  0  0  0  0
 26 55  1  0  0  0  0
 26 56  1  0  0  0  0
 27 28  1  0  0  0  0
 27 29  1  0  0  0  0
 27 62  1  0  0  0  0
 28 57  1  0  0  0  0
 28 58  1  0  0  0  0
 28 59  1  0  0  0  0
 29 60  1  0  0  0  0
 29 61  1  0  0  0  0
M  CHG  1  27   1
M  END
> <s_m_source_file>
AV-unprocessed.smi

> <i_m_source_file_index>
21

> <i_lp_mmshare_version>
43012

> <i_f3d_flags>
0

> <s_epik_input>
W0NIM11PW0NASF0xW0NIMl1bQ0BIXShOKFtDSDNdKVtDSDJdMSlbQ0gyXU4oW0NIM10pYyhuW2NIXW4yKWMoYzIzKW5bY0hdbjNbQ0gyXVtDQEhdKFtDSDJdW09IXSlbQ0BASF00W0NIMl1bQ0gyXU9bQ0gyXTQ=

> <s_epik_cmdline>
J2VwaWtfcHl0aG9uJywgJy1waCcsICc3LjAnLCAnLXRuJywgJzgnLCAnLW1hJywgJzIwMCcsICctbWV0YWxfYmluZGluZycsICctaW1hZScsICc8aW5maWxlLm1hZT4nLCAnLW9tYWUnLCAnPG91dGZpbGUubWFlPic=

> <r_lp_tautomer_probability>
1

> <r_epik_Ionization_Penalty>
0.0157465

> <r_epik_Ionization_Penalty_Charging>
0.015354

> <r_epik_Ionization_Penalty_Neutral>
0.000392529

> <r_epik_State_Penalty>
0.0120612

> <r_epik_Charging_Adjusted_Penalty>
0.0274152

> <i_epik_Tot_Q>
1

> <i_epik_Tot_abs_Q>
1

> <r_epik_Metal_State_Penalty>
0.0121253

> <b_epik_Metal_Only>
0

> <s_lp_Force_Field>
OPLS_2005

> <r_lp_Energy>
59.0143

> <b_lp_Chiralities_Consistent>
1

> <s_lp_Variant>
AV-unprocessed.smi:21-20

> <Gold.Version>
5.8.1

> <Gold.Id.Protein>
6NUR|6NUR_protein|mol2

> <Gold.PLP.Fitness>
47.7420

> <Gold.PLP.PLP>
-40.1615

> <Gold.PLP.part.hbond>
-3.0000

> <Gold.PLP.part.metal>
0.0000

> <Gold.PLP.part.buried>
-2.6302

> <Gold.PLP.part.nonpolar>
-34.8353

> <Gold.PLP.part.repulsive>
1.4395

> <Gold.PLP.ligand.clash>
0.0000

> <Gold.PLP.ligand.torsion>
1.6728

> <Gold.PLP.Chemscore.Hbond>
3.0000

> <Gold.PLP.Chemscore.CHOScore>
0.4258

> <Gold.PLP.Chemscore.Metal>
0.0000

> <Gold.Chemscore.Hbonds>
donor molecule, donor type, donor heavy atom, donor atom, acceptor molecule, acceptor atom, score
      L1  H    27    62       P1 10747  1.00
      P1  H  6896  6907       L1    12  1.00
      P1  H 10752 10765       L1    21  1.00
      L1  C    16    43       P1  7949  0.44

> <Gold.PLP.Chemscore.Internal.Correction>
0.6488

> <Gold.Rescore>
     Score         DG    S(hbond)    S(metal)    S(lipo)     H(rot)  DE(clash)    DE(int)     intcor
     15.67     -18.13       2.89        0.00      93.04       3.08       0.04       2.43       ----

> <Gold.Chemscore.Fitness>
15.6659

> <Gold.Chemscore.DG>
-18.1311

> <Gold.Chemscore.ZeroCoef>
-5.4800

> <Gold.Chemscore.Hbond>
2.8861

> <Gold.Chemscore.Metal>
0.0000

> <Gold.Chemscore.Lipo>
93.0400

> <Gold.Chemscore.Internal_Hbond>
0.0000

> <Gold.Chemscore.DEClash>
0.0358

> <Gold.Chemscore.DEInternal>
2.4294

> <Gold.Chemscore.Rot>
3.0758

> <Gold.Chemscore.Internal.Correction>
   9.000000E+99

> <Gold.Chemscore.Hbonds>
donor molecule, donor type, donor heavy atom, donor atom, acceptor molecule, acceptor atom, score
      L1  H    27    62       P1 10747  1.00
      P1  H  6896  6907       L1    12  0.84
      P1  H 10752 10765       L1    21  0.67

> <Gold.Chemscore.Hbond.Weighted>
-9.6395

> <Gold.Chemscore.Metal.Weighted>
-0.0000

> <Gold.Chemscore.Lipo.Weighted>
-10.8857

> <Gold.Chemscore.Internal_Hbond.Weighted>
0.0000

> <Gold.Chemscore.DEClash.Weighted>
0.0358

> <Gold.Chemscore.DEInternal.Weighted>
2.4294

> <Gold.Chemscore.Rot.Weighted>
7.8741

> <Gold.Chemscore.Internal.Correction.Weighted>
   9.000000E+99

> <Gold.Protein.RotatedTorsions>
[ 6907 6896 6895 6894 ] final -136.94 input  -60.11 | X-H torsion
[ 7974 7965 7964 7962 ] final  151.92 input  175.53 | X-H torsion
[ 8008 7997 7996 7995 ] final   -8.14 input   59.86 | X-H torsion
[ 10167 10162 10161 10158 ] final  167.50 input  -65.29 | X-H torsion
[ 10718 10713 10712 10709 ] final  -53.00 input   66.30 | X-H torsion
[ 10763 10752 10751 10750 ] final -108.10 input  -60.55 | X-H torsion
[ 11005 11000 10999 10996 ] final  161.71 input  -57.11 | X-H torsion

> <Gold.Protein.ActiveResidues>
 VAL166  LYS551  ARG553  GLY616  TRP617  ASP618  TYR619  PRO620  LYS621  CYS622 
 ASP623  PHE694  ASN695  SER759  ASP760  ASP761  ALA762  ILE779  LEU786  VAL792 
 PHE793  MET794  SER795  GLU796  ALA797  LYS798  CYS799  TRP800  GLU811  SER814 

> <Gold.Protein.RotatedAtoms>
  151.0163  133.5918  159.2676 H   0  0  0  0  0  0  0  0  0  0  0  0  # atno 6907 bound_to 6896
  151.3052  135.0778  159.9262 H   0  0  0  0  0  0  0  0  0  0  0  0  # atno 6908 bound_to 6896
  152.5312  133.9837  159.7873 H   0  0  0  0  0  0  0  0  0  0  0  0  # atno 6909 bound_to 6896
  144.8259  139.6600  143.6080 H   0  0  0  0  0  0  0  0  0  0  0  0  # atno 7974 bound_to 7965
  154.5770  140.2389  155.8108 H   0  0  0  0  0  0  0  0  0  0  0  0  # atno 8008 bound_to 7997
  156.2151  140.3015  155.9777 H   0  0  0  0  0  0  0  0  0  0  0  0  # atno 8009 bound_to 7997
  155.2609  140.0414  157.2987 H   0  0  0  0  0  0  0  0  0  0  0  0  # atno 8010 bound_to 7997
  139.4947  144.3915  151.9512 H   0  0  0  0  0  0  0  0  0  0  0  0  # atno 10167 bound_to 10162
  156.1572  130.4150  149.9850 H   0  0  0  0  0  0  0  0  0  0  0  0  # atno 10718 bound_to 10713
  154.8115  135.4650  154.0530 H   0  0  0  0  0  0  0  0  0  0  0  0  # atno 10763 bound_to 10752
  153.1957  135.6861  153.8302 H   0  0  0  0  0  0  0  0  0  0  0  0  # atno 10764 bound_to 10752
  153.7804  135.3257  155.3342 H   0  0  0  0  0  0  0  0  0  0  0  0  # atno 10765 bound_to 10752
  140.2185  134.8214  157.3195 H   0  0  0  0  0  0  0  0  0  0  0  0  # atno 11005 bound_to 11000
  146.2564  139.6311  142.9392 LP  0  0  0  0  0  0  0  0  0  0  0  0  # atno 17320 bound_to 7965
  145.5002  141.0437  143.2544 LP  0  0  0  0  0  0  0  0  0  0  0  0  # atno 17321 bound_to 7965
  140.3353  144.3268  150.5978 LP  0  0  0  0  0  0  0  0  0  0  0  0  # atno 17342 bound_to 10162
  140.5611  143.2192  151.7763 LP  0  0  0  0  0  0  0  0  0  0  0  0  # atno 17343 bound_to 10162
  156.7690  130.9179  151.3644 LP  0  0  0  0  0  0  0  0  0  0  0  0  # atno 17370 bound_to 10713
  157.6704  130.9046  150.0028 LP  0  0  0  0  0  0  0  0  0  0  0  0  # atno 17371 bound_to 10713
  140.1875  134.4413  155.7735 LP  0  0  0  0  0  0  0  0  0  0  0  0  # atno 17394 bound_to 11000
  141.2224  133.7011  156.7971 LP  0  0  0  0  0  0  0  0  0  0  0  0  # atno 17395 bound_to 11000

$$$$
