AV-unprocessed.smi:1217|AV-procd|sdf|5103|dock4
  -GOLD-   22720 4153D 1   1.00000     0.00000
 Structure written by MMmdl.
 34 35  0  0  0  0  0  0  0  0  1 V2000
  148.5693  140.5553  153.9628 C   0  0  0  0  0  0  0  0  0  0  0  0
  147.7613  140.9954  155.1925 C   0  0  1  0  0  0  0  0  0  0  0  0
  148.5501  141.9664  155.9500 N   0  0  0  0  0  0  0  0  0  0  0  0
  149.5843  141.6822  156.7562 C   0  0  0  0  0  0  0  0  0  0  0  0
  149.9956  140.5397  156.9601 O   0  0  0  0  0  0  0  0  0  0  0  0
  150.0933  142.8002  157.3030 N   0  0  0  0  0  0  0  0  0  0  0  0
  151.1778  142.9184  158.2128 C   0  0  0  0  0  0  0  0  0  0  0  0
  151.5175  144.2428  158.5712 C   0  0  0  0  0  0  0  0  0  0  0  0
  152.5798  144.4671  159.4684 C   0  0  0  0  0  0  0  0  0  0  0  0
  153.2756  143.3600  159.9855 C   0  0  0  0  0  0  0  0  0  0  0  0
  152.8729  142.0747  159.5781 C   0  0  0  0  0  0  0  0  0  0  0  0
  151.8558  141.8575  158.7182 N   0  0  0  0  0  0  0  0  0  0  0  0
  146.3968  141.5976  154.7975 C   0  0  2  0  0  0  0  0  0  0  0  0
  146.4703  142.8866  153.9750 C   0  0  0  0  0  0  0  0  0  0  0  0
  145.1287  143.5153  154.2703 C   0  0  0  0  0  0  0  0  0  0  0  0
  144.9489  143.1782  155.7468 C   0  0  0  0  0  0  0  0  0  0  0  0
  145.6527  141.9571  155.9600 O   0  0  0  0  0  0  0  0  0  0  0  0
  148.0336  139.7987  153.3890 H   0  0  0  0  0  0  0  0  0  0  0  0
  149.5267  140.1240  154.2568 H   0  0  0  0  0  0  0  0  0  0  0  0
  148.7716  141.3951  153.2972 H   0  0  0  0  0  0  0  0  0  0  0  0
  147.5822  140.1071  155.8009 H   0  0  0  0  0  0  0  0  0  0  0  0
  148.2839  142.9347  155.8494 H   0  0  0  0  0  0  0  0  0  0  0  0
  149.6501  143.6683  157.0410 H   0  0  0  0  0  0  0  0  0  0  0  0
  150.9720  145.0823  158.1653 H   0  0  0  0  0  0  0  0  0  0  0  0
  152.8548  145.4716  159.7545 H   0  0  0  0  0  0  0  0  0  0  0  0
  154.0954  143.4918  160.6759 H   0  0  0  0  0  0  0  0  0  0  0  0
  153.3805  141.1981  159.9521 H   0  0  0  0  0  0  0  0  0  0  0  0
  145.8088  140.8621  154.2456 H   0  0  0  0  0  0  0  0  0  0  0  0
  147.2709  143.5320  154.3398 H   0  0  0  0  0  0  0  0  0  0  0  0
  146.6331  142.7063  152.9121 H   0  0  0  0  0  0  0  0  0  0  0  0
  145.1010  144.5867  154.0703 H   0  0  0  0  0  0  0  0  0  0  0  0
  144.3510  143.0341  153.6753 H   0  0  0  0  0  0  0  0  0  0  0  0
  145.4006  143.9496  156.3714 H   0  0  0  0  0  0  0  0  0  0  0  0
  143.8993  143.0874  156.0271 H   0  0  0  0  0  0  0  0  0  0  0  0
  1  2  1  0  0  0  0
  1 18  1  0  0  0  0
  1 19  1  0  0  0  0
  1 20  1  0  0  0  0
  2  3  1  0  0  0  0
  2 13  1  0  0  0  0
  2 21  1  0  0  0  0
  3  4  1  0  0  0  0
  3 22  1  0  0  0  0
  4  5  2  0  0  0  0
  4  6  1  0  0  0  0
  6  7  1  0  0  0  0
  6 23  1  0  0  0  0
  7 12  1  0  0  0  0
  7  8  2  0  0  0  0
  8  9  1  0  0  0  0
  8 24  1  0  0  0  0
  9 10  2  0  0  0  0
  9 25  1  0  0  0  0
 10 11  1  0  0  0  0
 10 26  1  0  0  0  0
 11 12  2  0  0  0  0
 11 27  1  0  0  0  0
 13 17  1  0  0  0  0
 13 14  1  0  0  0  0
 13 28  1  0  0  0  0
 14 15  1  0  0  0  0
 14 29  1  0  0  0  0
 14 30  1  0  0  0  0
 15 16  1  0  0  0  0
 15 31  1  0  0  0  0
 15 32  1  0  0  0  0
 16 17  1  0  0  0  0
 16 33  1  0  0  0  0
 16 34  1  0  0  0  0
M  END
> <s_m_source_file>
AV-unprocessed.smi

> <i_m_source_file_index>
1217

> <i_lp_mmshare_version>
43012

> <i_f3d_flags>
0

> <s_epik_input>
TzFbQ0gyXVtDSDJdW0NIMl1bQ0BIXTFbQ0BIXShbQ0gzXSlbTkhdQyg9TylbTkhdYzJbY0hdW2NIXVtjSF1bY0hdbjI=

> <s_epik_cmdline>
J2VwaWtfcHl0aG9uJywgJy1waCcsICc3LjAnLCAnLXRuJywgJzgnLCAnLW1hJywgJzIwMCcsICctbWV0YWxfYmluZGluZycsICctaW1hZScsICc8aW5maWxlLm1hZT4nLCAnLW9tYWUnLCAnPG91dGZpbGUubWFlPic=

> <r_lp_tautomer_probability>
1

> <r_epik_Ionization_Penalty>
4.51768e-05

> <r_epik_Ionization_Penalty_Charging>
0

> <r_epik_Ionization_Penalty_Neutral>
4.51768e-05

> <r_epik_State_Penalty>
-0

> <r_epik_Charging_Adjusted_Penalty>
0

> <i_epik_Tot_Q>
0

> <i_epik_Tot_abs_Q>
0

> <r_epik_Metal_State_Penalty>
-0

> <b_epik_Metal_Only>
0

> <s_lp_Force_Field>
OPLS_2005

> <r_lp_Energy>
19.7673

> <b_lp_Chiralities_Consistent>
1

> <s_lp_Variant>
AV-unprocessed.smi:1217-2

> <Gold.Version>
5.8.1

> <Gold.Id.Protein>
6NUR|6NUR_protein|mol2

> <Gold.PLP.Fitness>
40.5990

> <Gold.PLP.PLP>
-35.1124

> <Gold.PLP.part.hbond>
-2.0000

> <Gold.PLP.part.metal>
0.0000

> <Gold.PLP.part.buried>
-4.4520

> <Gold.PLP.part.nonpolar>
-28.7862

> <Gold.PLP.part.repulsive>
0.2231

> <Gold.PLP.ligand.clash>
0.0000

> <Gold.PLP.ligand.torsion>
0.2627

> <Gold.PLP.Chemscore.Hbond>
2.0000

> <Gold.PLP.Chemscore.CHOScore>
0.0000

> <Gold.PLP.Chemscore.Metal>
0.0000

> <Gold.Chemscore.Hbonds>
donor molecule, donor type, donor heavy atom, donor atom, acceptor molecule, acceptor atom, score
      L1  H     3    22       P1  8028  0.94
      L1  H     6    23       P1  8028  0.98

> <Gold.PLP.Chemscore.Internal.Correction>
0.0120

> <Gold.Rescore>
     Score         DG    S(hbond)    S(metal)    S(lipo)     H(rot)  DE(clash)    DE(int)     intcor
     16.73     -18.32       1.89        0.00      83.28       1.25       0.08       1.51       ----

> <Gold.Chemscore.Fitness>
16.7312

> <Gold.Chemscore.DG>
-18.3189

> <Gold.Chemscore.ZeroCoef>
-5.4800

> <Gold.Chemscore.Hbond>
1.8852

> <Gold.Chemscore.Metal>
0.0000

> <Gold.Chemscore.Lipo>
83.2818

> <Gold.Chemscore.Internal_Hbond>
0.0000

> <Gold.Chemscore.DEClash>
0.0786

> <Gold.Chemscore.DEInternal>
1.5091

> <Gold.Chemscore.Rot>
1.2506

> <Gold.Chemscore.Internal.Correction>
   9.000000E+99

> <Gold.Chemscore.Hbonds>
donor molecule, donor type, donor heavy atom, donor atom, acceptor molecule, acceptor atom, score
      L1  H     3    22       P1  8028  0.84
      L1  H     6    23       P1  8028  0.86

> <Gold.Chemscore.Hbond.Weighted>
-6.2965

> <Gold.Chemscore.Metal.Weighted>
-0.0000

> <Gold.Chemscore.Lipo.Weighted>
-9.7440

> <Gold.Chemscore.Internal_Hbond.Weighted>
0.0000

> <Gold.Chemscore.DEClash.Weighted>
0.0786

> <Gold.Chemscore.DEInternal.Weighted>
1.5091

> <Gold.Chemscore.Rot.Weighted>
3.2016

> <Gold.Chemscore.Internal.Correction.Weighted>
   9.000000E+99

> <Gold.Protein.RotatedTorsions>
[ 6907 6896 6895 6894 ] final  127.16 input  -60.11 | X-H torsion
[ 7974 7965 7964 7962 ] final  -26.70 input  175.53 | X-H torsion
[ 8008 7997 7996 7995 ] final  141.80 input   59.86 | X-H torsion
[ 10167 10162 10161 10158 ] final -136.60 input  -65.29 | X-H torsion
[ 10718 10713 10712 10709 ] final   86.82 input   66.30 | X-H torsion
[ 10763 10752 10751 10750 ] final -105.52 input  -60.55 | X-H torsion
[ 11005 11000 10999 10996 ] final -119.38 input  -57.11 | X-H torsion

> <Gold.Protein.ActiveResidues>
 VAL166  LYS551  ARG553  GLY616  TRP617  ASP618  TYR619  PRO620  LYS621  CYS622 
 ASP623  PHE694  ASN695  SER759  ASP760  ASP761  ALA762  ILE779  LEU786  VAL792 
 PHE793  MET794  SER795  GLU796  ALA797  LYS798  CYS799  TRP800  GLU811  SER814 

> <Gold.Protein.RotatedAtoms>
  152.3838  133.6582  159.6181 H   0  0  0  0  0  0  0  0  0  0  0  0  # atno 6907 bound_to 6896
  150.7762  133.9070  159.3367 H   0  0  0  0  0  0  0  0  0  0  0  0  # atno 6908 bound_to 6896
  151.6870  135.0954  160.0278 H   0  0  0  0  0  0  0  0  0  0  0  0  # atno 6909 bound_to 6896
  146.1408  140.5054  142.8653 H   0  0  0  0  0  0  0  0  0  0  0  0  # atno 7974 bound_to 7965
  156.2960  140.2305  156.4624 H   0  0  0  0  0  0  0  0  0  0  0  0  # atno 8008 bound_to 7997
  154.8007  140.0448  157.1291 H   0  0  0  0  0  0  0  0  0  0  0  0  # atno 8009 bound_to 7997
  154.9537  140.3045  155.5066 H   0  0  0  0  0  0  0  0  0  0  0  0  # atno 8010 bound_to 7997
  139.8661  143.7015  152.2645 H   0  0  0  0  0  0  0  0  0  0  0  0  # atno 10167 bound_to 10162
  157.6933  131.0231  150.3030 H   0  0  0  0  0  0  0  0  0  0  0  0  # atno 10718 bound_to 10713
  154.7952  135.4746  154.0144 H   0  0  0  0  0  0  0  0  0  0  0  0  # atno 10763 bound_to 10752
  153.1692  135.6822  153.8638 H   0  0  0  0  0  0  0  0  0  0  0  0  # atno 10764 bound_to 10752
  153.8226  135.3202  155.3389 H   0  0  0  0  0  0  0  0  0  0  0  0  # atno 10765 bound_to 10752
  141.0219  134.0111  157.3270 H   0  0  0  0  0  0  0  0  0  0  0  0  # atno 11005 bound_to 11000
  144.7790  140.5800  143.6618 LP  0  0  0  0  0  0  0  0  0  0  0  0  # atno 17320 bound_to 7965
  145.5052  139.1481  143.3635 LP  0  0  0  0  0  0  0  0  0  0  0  0  # atno 17321 bound_to 7965
  139.7327  144.7578  151.0776 LP  0  0  0  0  0  0  0  0  0  0  0  0  # atno 17342 bound_to 10162
  140.7768  143.5068  150.9702 LP  0  0  0  0  0  0  0  0  0  0  0  0  # atno 17343 bound_to 10162
  156.3543  130.3836  149.7303 LP  0  0  0  0  0  0  0  0  0  0  0  0  # atno 17370 bound_to 10713
  156.4771  130.8023  151.3039 LP  0  0  0  0  0  0  0  0  0  0  0  0  # atno 17371 bound_to 10713
  139.9151  135.0196  156.7850 LP  0  0  0  0  0  0  0  0  0  0  0  0  # atno 17394 bound_to 11000
  140.6558  133.9690  155.7779 LP  0  0  0  0  0  0  0  0  0  0  0  0  # atno 17395 bound_to 11000

$$$$
