AV-unprocessed.smi:580|AV-procd|sdf|2989|dock9
  -GOLD-   2262023493D 1   1.00000     0.00000
 Structure written by MMmdl.
 36 37  0  0  0  0  0  0  0  0  1 V2000
  141.8094  145.2015  160.8778 C   0  0  0  0  0  0  0  0  0  0  0  0
  142.9788  144.8453  160.0252 C   0  0  0  0  0  0  0  0  0  0  0  0
  144.3263  145.0161  160.1751 C   0  0  0  0  0  0  0  0  0  0  0  0
  144.8554  144.4420  158.9887 C   0  0  0  0  0  0  0  0  0  0  0  0
  146.2538  144.4166  158.7526 N   0  0  0  0  0  0  0  0  0  0  0  0
  147.1756  143.6660  159.3796 C   0  0  0  0  0  0  0  0  0  0  0  0
  146.9409  142.8639  160.2840 O   0  0  0  0  0  0  0  0  0  0  0  0
  148.4057  143.9028  158.9002 N   0  0  0  0  0  0  0  0  0  0  0  0
  149.6307  143.2671  159.3766 C   0  0  2  0  0  0  0  0  0  0  0  0
  150.6130  144.3233  159.9204 C   0  0  0  0  0  0  0  0  0  0  0  0
  151.9397  143.6839  160.3608 C   0  0  0  0  0  0  0  0  0  0  0  0
  152.5886  142.8758  159.2208 C   0  0  1  0  0  0  0  0  0  0  0  0
  153.9080  142.2320  159.6703 C   0  0  0  0  0  0  0  0  0  0  0  0
  151.6021  141.8222  158.6814 C   0  0  0  0  0  0  0  0  0  0  0  0
  150.2778  142.4627  158.2347 C   0  0  0  0  0  0  0  0  0  0  0  0
  143.9157  143.9658  158.1863 N   0  0  0  0  0  0  0  0  0  0  0  0
  142.7081  144.2222  158.8462 O   0  0  0  0  0  0  0  0  0  0  0  0
  142.1306  145.4924  161.8780 H   0  0  0  0  0  0  0  0  0  0  0  0
  141.1284  144.3556  160.9748 H   0  0  0  0  0  0  0  0  0  0  0  0
  141.2555  146.0343  160.4442 H   0  0  0  0  0  0  0  0  0  0  0  0
  144.8464  145.4764  161.0020 H   0  0  0  0  0  0  0  0  0  0  0  0
  146.5886  145.0415  158.0341 H   0  0  0  0  0  0  0  0  0  0  0  0
  148.5052  144.5781  158.1564 H   0  0  0  0  0  0  0  0  0  0  0  0
  149.3814  142.5705  160.1798 H   0  0  0  0  0  0  0  0  0  0  0  0
  150.8107  145.0740  159.1540 H   0  0  0  0  0  0  0  0  0  0  0  0
  150.1678  144.8534  160.7633 H   0  0  0  0  0  0  0  0  0  0  0  0
  152.6228  144.4627  160.7015 H   0  0  0  0  0  0  0  0  0  0  0  0
  151.7606  143.0344  161.2187 H   0  0  0  0  0  0  0  0  0  0  0  0
  152.8201  143.5663  158.4085 H   0  0  0  0  0  0  0  0  0  0  0  0
  153.7476  141.5281  160.4876 H   0  0  0  0  0  0  0  0  0  0  0  0
  154.6154  142.9868  160.0151 H   0  0  0  0  0  0  0  0  0  0  0  0
  154.3792  141.6890  158.8505 H   0  0  0  0  0  0  0  0  0  0  0  0
  152.0492  141.2869  157.8429 H   0  0  0  0  0  0  0  0  0  0  0  0
  151.4015  141.0760  159.4515 H   0  0  0  0  0  0  0  0  0  0  0  0
  149.5935  141.6863  157.8904 H   0  0  0  0  0  0  0  0  0  0  0  0
  150.4623  143.1142  157.3790 H   0  0  0  0  0  0  0  0  0  0  0  0
  1  2  1  0  0  0  0
  1 18  1  0  0  0  0
  1 19  1  0  0  0  0
  1 20  1  0  0  0  0
  2 17  1  0  0  0  0
  2  3  2  0  0  0  0
  3  4  1  0  0  0  0
  3 21  1  0  0  0  0
  4  5  1  0  0  0  0
  4 16  2  0  0  0  0
  5  6  1  0  0  0  0
  5 22  1  0  0  0  0
  6  7  2  0  0  0  0
  6  8  1  0  0  0  0
  8  9  1  0  0  0  0
  8 23  1  0  0  0  0
  9 15  1  0  0  0  0
  9 10  1  0  0  0  0
  9 24  1  0  0  0  0
 10 11  1  0  0  0  0
 10 25  1  0  0  0  0
 10 26  1  0  0  0  0
 11 12  1  0  0  0  0
 11 27  1  0  0  0  0
 11 28  1  0  0  0  0
 12 13  1  0  0  0  0
 12 14  1  0  0  0  0
 12 29  1  0  0  0  0
 13 30  1  0  0  0  0
 13 31  1  0  0  0  0
 13 32  1  0  0  0  0
 14 15  1  0  0  0  0
 14 33  1  0  0  0  0
 14 34  1  0  0  0  0
 15 35  1  0  0  0  0
 15 36  1  0  0  0  0
 16 17  1  0  0  0  0
M  END
> <s_m_source_file>
AV-unprocessed.smi

> <i_m_source_file_index>
580

> <i_lp_mmshare_version>
43012

> <i_f3d_flags>
0

> <s_epik_input>
W0NIM11jMVtjSF1jKG5vMSlbTkhdQyg9TylbTkhdW0NAQEhdMltDSDJdW0NIMl1bQ0BASF0oW0NIM10pW0NIMl1bQ0gyXTI=

> <s_epik_cmdline>
J2VwaWtfcHl0aG9uJywgJy1waCcsICc3LjAnLCAnLXRuJywgJzgnLCAnLW1hJywgJzIwMCcsICctbWV0YWxfYmluZGluZycsICctaW1hZScsICc8aW5maWxlLm1hZT4nLCAnLW9tYWUnLCAnPG91dGZpbGUubWFlPic=

> <r_lp_tautomer_probability>
1

> <r_epik_Ionization_Penalty>
2.357e-05

> <r_epik_Ionization_Penalty_Charging>
0

> <r_epik_Ionization_Penalty_Neutral>
2.357e-05

> <r_epik_State_Penalty>
-0

> <r_epik_Charging_Adjusted_Penalty>
0

> <i_epik_Tot_Q>
0

> <i_epik_Tot_abs_Q>
0

> <r_epik_Metal_State_Penalty>
-0

> <b_epik_Metal_Only>
0

> <s_lp_Force_Field>
OPLS_2005

> <r_lp_Energy>
6.68451

> <b_lp_Chiralities_Consistent>
1

> <s_lp_Variant>
AV-unprocessed.smi:580-1

> <Gold.Version>
5.8.1

> <Gold.Id.Protein>
6NUR|6NUR_protein|mol2

> <Gold.PLP.Fitness>
33.4439

> <Gold.PLP.PLP>
-23.6009

> <Gold.PLP.part.hbond>
-4.0000

> <Gold.PLP.part.metal>
0.0000

> <Gold.PLP.part.buried>
-1.3392

> <Gold.PLP.part.nonpolar>
-19.4054

> <Gold.PLP.part.repulsive>
0.1629

> <Gold.PLP.ligand.clash>
0.0000

> <Gold.PLP.ligand.torsion>
0.6731

> <Gold.PLP.Chemscore.Hbond>
3.7288

> <Gold.PLP.Chemscore.CHOScore>
0.0000

> <Gold.PLP.Chemscore.Metal>
0.0000

> <Gold.Chemscore.Hbonds>
donor molecule, donor type, donor heavy atom, donor atom, acceptor molecule, acceptor atom, score
      L1  H     5    22       P1  8029  1.00
      L1  H     8    23       P1  8029  1.00
      P1  H  6933  6944       L1     7  0.90
      P1  H  6934  6946       L1     7  0.86

> <Gold.PLP.Chemscore.Internal.Correction>
0.0029

> <Gold.Rescore>
     Score         DG    S(hbond)    S(metal)    S(lipo)     H(rot)  DE(clash)    DE(int)     intcor
     23.49     -24.21       3.46        0.00      83.19       1.00       0.10       0.61       ----

> <Gold.Chemscore.Fitness>
23.4927

> <Gold.Chemscore.DG>
-24.2075

> <Gold.Chemscore.ZeroCoef>
-5.4800

> <Gold.Chemscore.Hbond>
3.4592

> <Gold.Chemscore.Metal>
0.0000

> <Gold.Chemscore.Lipo>
83.1943

> <Gold.Chemscore.Internal_Hbond>
0.0000

> <Gold.Chemscore.DEClash>
0.1008

> <Gold.Chemscore.DEInternal>
0.6140

> <Gold.Chemscore.Rot>
1.0000

> <Gold.Chemscore.Internal.Correction>
   9.000000E+99

> <Gold.Chemscore.Hbonds>
donor molecule, donor type, donor heavy atom, donor atom, acceptor molecule, acceptor atom, score
      L1  H     5    22       P1  8029  0.85
      L1  H     8    23       P1  8029  0.42
      P1  H  6933  6944       L1     7  0.80
      P1  H  6934  6946       L1     7  0.79

> <Gold.Chemscore.Hbond.Weighted>
-11.5538

> <Gold.Chemscore.Metal.Weighted>
-0.0000

> <Gold.Chemscore.Lipo.Weighted>
-9.7337

> <Gold.Chemscore.Internal_Hbond.Weighted>
0.0000

> <Gold.Chemscore.DEClash.Weighted>
0.1008

> <Gold.Chemscore.DEInternal.Weighted>
0.6140

> <Gold.Chemscore.Rot.Weighted>
2.5600

> <Gold.Chemscore.Internal.Correction.Weighted>
   9.000000E+99

> <Gold.Protein.RotatedTorsions>
[ 6907 6896 6895 6894 ] final   57.87 input  -60.11 | X-H torsion
[ 7974 7965 7964 7962 ] final -133.01 input  175.53 | X-H torsion
[ 8008 7997 7996 7995 ] final  -34.05 input   59.86 | X-H torsion
[ 10167 10162 10161 10158 ] final -140.53 input  -65.29 | X-H torsion
[ 10718 10713 10712 10709 ] final  -61.48 input   66.30 | X-H torsion
[ 10763 10752 10751 10750 ] final   76.38 input  -60.55 | X-H torsion
[ 11005 11000 10999 10996 ] final  126.12 input  -57.11 | X-H torsion

> <Gold.Protein.ActiveResidues>
 VAL166  LYS551  ARG553  GLY616  TRP617  ASP618  TYR619  PRO620  LYS621  CYS622 
 ASP623  PHE694  ASN695  SER759  ASP760  ASP761  ALA762  ILE779  LEU786  VAL792 
 PHE793  MET794  SER795  GLU796  ALA797  LYS798  CYS799  TRP800  GLU811  SER814 

> <Gold.Protein.RotatedAtoms>
  152.3772  134.6646  160.0155 H   0  0  0  0  0  0  0  0  0  0  0  0  # atno 6907 bound_to 6896
  151.6921  133.3305  159.3253 H   0  0  0  0  0  0  0  0  0  0  0  0  # atno 6908 bound_to 6896
  150.7718  134.6625  159.6392 H   0  0  0  0  0  0  0  0  0  0  0  0  # atno 6909 bound_to 6896
  144.9233  140.7040  143.4952 H   0  0  0  0  0  0  0  0  0  0  0  0  # atno 7974 bound_to 7965
  154.4131  140.1694  156.1988 H   0  0  0  0  0  0  0  0  0  0  0  0  # atno 8008 bound_to 7997
  155.9542  140.3398  155.6410 H   0  0  0  0  0  0  0  0  0  0  0  0  # atno 8009 bound_to 7997
  155.6831  140.0725  157.2467 H   0  0  0  0  0  0  0  0  0  0  0  0  # atno 8010 bound_to 7997
  139.8273  143.7494  152.2666 H   0  0  0  0  0  0  0  0  0  0  0  0  # atno 10167 bound_to 10162
  156.0919  130.4199  150.1000 H   0  0  0  0  0  0  0  0  0  0  0  0  # atno 10718 bound_to 10713
  153.0722  135.4953  154.8328 H   0  0  0  0  0  0  0  0  0  0  0  0  # atno 10763 bound_to 10752
  154.7038  135.3006  154.9304 H   0  0  0  0  0  0  0  0  0  0  0  0  # atno 10764 bound_to 10752
  154.0019  135.6765  153.4812 H   0  0  0  0  0  0  0  0  0  0  0  0  # atno 10765 bound_to 10752
  139.9440  134.9632  156.8660 H   0  0  0  0  0  0  0  0  0  0  0  0  # atno 11005 bound_to 11000
  145.3261  139.1773  143.4562 LP  0  0  0  0  0  0  0  0  0  0  0  0  # atno 17320 bound_to 7965
  146.3214  140.3284  142.8638 LP  0  0  0  0  0  0  0  0  0  0  0  0  # atno 17321 bound_to 7965
  139.7690  144.7482  151.0252 LP  0  0  0  0  0  0  0  0  0  0  0  0  # atno 17342 bound_to 10162
  140.7809  143.4666  151.0204 LP  0  0  0  0  0  0  0  0  0  0  0  0  # atno 17343 bound_to 10162
  156.9008  130.9620  151.3576 LP  0  0  0  0  0  0  0  0  0  0  0  0  # atno 17370 bound_to 10713
  157.6070  130.8554  149.8891 LP  0  0  0  0  0  0  0  0  0  0  0  0  # atno 17371 bound_to 10713
  140.5880  134.0289  155.7489 LP  0  0  0  0  0  0  0  0  0  0  0  0  # atno 17394 bound_to 11000
  141.1085  133.9655  157.2954 LP  0  0  0  0  0  0  0  0  0  0  0  0  # atno 17395 bound_to 11000

$$$$
