AV-unprocessed.smi:160|AV-procd|sdf|1353|dock6
  -GOLD-   2262019 53D 1   1.00000     0.00000
 Structure written by MMmdl.
 29 30  0  0  0  0  0  0  0  0  1 V2000
  153.9414  138.2542  159.6534 N   0  0  0  0  0  0  0  0  0  0  0  0
  153.1895  137.6227  158.7457 C   0  0  0  0  0  0  0  0  0  0  0  0
  152.9678  136.4140  158.7995 O   0  0  0  0  0  0  0  0  0  0  0  0
  152.6224  138.4753  157.6445 C   0  0  0  0  0  0  0  0  0  0  0  0
  152.7497  139.8351  157.6679 N   0  0  0  0  0  0  0  0  0  0  0  0
  152.1168  140.1232  156.5381 C   0  0  0  0  0  0  0  0  0  0  0  0
  151.6521  139.0550  155.8822 N   0  0  0  0  0  0  0  0  0  0  0  0
  150.8967  138.9808  154.5881 C   0  0  2  0  0  0  0  0  0  0  0  0
  150.3527  140.2387  154.3202 O   0  0  0  0  0  0  0  0  0  0  0  0
  148.9616  140.2361  154.6227 C   0  0  1  0  0  0  0  0  0  0  0  0
  148.2329  141.3878  153.9084 C   0  0  0  0  0  0  0  0  0  0  0  0
  147.5954  142.2197  154.8544 O   0  0  0  0  0  0  0  0  0  0  0  0
  148.5335  138.8212  154.2086 C   0  0  1  0  0  0  0  0  0  0  0  0
  148.3211  138.7423  152.8103 O   0  0  0  0  0  0  0  0  0  0  0  0
  149.7289  137.9636  154.6109 C   0  0  2  0  0  0  0  0  0  0  0  0
  149.4966  137.3633  155.8737 O   0  0  0  0  0  0  0  0  0  0  0  0
  151.9757  137.9510  156.6021 N   0  0  0  0  0  0  0  0  0  0  0  0
  151.6584  138.7433  153.8446 H   0  0  0  0  0  0  0  0  0  0  0  0
  148.8289  140.3269  155.7022 H   0  0  0  0  0  0  0  0  0  0  0  0
  147.6111  138.5159  154.7048 H   0  0  0  0  0  0  0  0  0  0  0  0
  149.9247  137.1700  153.8885 H   0  0  0  0  0  0  0  0  0  0  0  0
  154.3508  137.7362  160.4170 H   0  0  0  0  0  0  0  0  0  0  0  0
  154.0949  139.2488  159.5674 H   0  0  0  0  0  0  0  0  0  0  0  0
  151.9924  141.1341  156.1790 H   0  0  0  0  0  0  0  0  0  0  0  0
  148.9175  141.9722  153.2925 H   0  0  0  0  0  0  0  0  0  0  0  0
  147.4586  140.9917  153.2510 H   0  0  0  0  0  0  0  0  0  0  0  0
  148.2349  142.8195  155.2071 H   0  0  0  0  0  0  0  0  0  0  0  0
  148.9284  139.3249  152.3805 H   0  0  0  0  0  0  0  0  0  0  0  0
  149.8212  136.4762  155.8498 H   0  0  0  0  0  0  0  0  0  0  0  0
  1  2  1  0  0  0  0
  1 22  1  0  0  0  0
  1 23  1  0  0  0  0
  2  3  2  0  0  0  0
  2  4  1  0  0  0  0
  4 17  2  0  0  0  0
  4  5  1  0  0  0  0
  5  6  2  0  0  0  0
  6  7  1  0  0  0  0
  6 24  1  0  0  0  0
  7  8  1  0  0  0  0
  7 17  1  0  0  0  0
  8 18  1  0  0  0  0
  8 15  1  0  0  0  0
  8  9  1  0  0  0  0
  9 10  1  0  0  0  0
 10 19  1  0  0  0  0
 10 11  1  0  0  0  0
 10 13  1  0  0  0  0
 11 12  1  0  0  0  0
 11 25  1  0  0  0  0
 11 26  1  0  0  0  0
 12 27  1  0  0  0  0
 13 20  1  0  0  0  0
 13 14  1  0  0  0  0
 13 15  1  0  0  0  0
 14 28  1  0  0  0  0
 15 21  1  0  0  0  0
 15 16  1  0  0  0  0
 16 29  1  0  0  0  0
M  END
> <s_m_source_file>
AV-unprocessed.smi

> <i_m_source_file_index>
160

> <i_lp_mmshare_version>
43012

> <i_f3d_flags>
0

> <s_epik_input>
W05IMl1DKD1PKWMxbltjSF1uKG4xKVtDQEBIXTJPW0NASF0oW0NIMl1bT0hdKVtDQEBIXShbT0hdKVtDQEhdMltPSF0=

> <s_epik_cmdline>
J2VwaWtfcHl0aG9uJywgJy1waCcsICc3LjAnLCAnLXRuJywgJzgnLCAnLW1hJywgJzIwMCcsICctbWV0YWxfYmluZGluZycsICctaW1hZScsICc8aW5maWxlLm1hZT4nLCAnLW9tYWUnLCAnPG91dGZpbGUubWFlPic=

> <r_lp_tautomer_probability>
1

> <r_epik_Ionization_Penalty>
1.06932e-05

> <r_epik_Ionization_Penalty_Charging>
0

> <r_epik_Ionization_Penalty_Neutral>
1.06932e-05

> <r_epik_State_Penalty>
-0

> <r_epik_Charging_Adjusted_Penalty>
0

> <i_epik_Tot_Q>
0

> <i_epik_Tot_abs_Q>
0

> <r_epik_Metal_State_Penalty>
0.0142097

> <b_epik_Metal_Only>
0

> <s_epik_Chemistry_Notes>
This compound contains an acetal/aminal-like group ( X-CH(R)-Y where X, Y are N, S, or O) that may be acid/base labile, releasing an aldehyde.

> <s_lp_Force_Field>
OPLS_2005

> <r_lp_Energy>
42.6693

> <b_lp_Chiralities_Consistent>
1

> <s_lp_Variant>
AV-unprocessed.smi:160-11

> <Gold.Version>
5.8.1

> <Gold.Id.Protein>
6NUR|6NUR_protein|mol2

> <Gold.PLP.Fitness>
37.1552

> <Gold.PLP.PLP>
-25.2779

> <Gold.PLP.part.hbond>
-6.0000

> <Gold.PLP.part.metal>
0.0000

> <Gold.PLP.part.buried>
-3.6614

> <Gold.PLP.part.nonpolar>
-15.8265

> <Gold.PLP.part.repulsive>
0.1663

> <Gold.PLP.ligand.clash>
0.0000

> <Gold.PLP.ligand.torsion>
1.2753

> <Gold.PLP.Chemscore.Hbond>
4.8080

> <Gold.PLP.Chemscore.CHOScore>
0.0000

> <Gold.PLP.Chemscore.Metal>
0.0000

> <Gold.Chemscore.Hbonds>
donor molecule, donor type, donor heavy atom, donor atom, acceptor molecule, acceptor atom, score
      L1  H    12    27       P1  8028  0.98
      L1  H    14    28       P1  7957  1.00
      P1  H  6896  6909       L1     3  0.68
      P1  H  7989  7998       L1     9  0.95
      P1  H  7997  8009       L1     5  0.90

> <Gold.PLP.Chemscore.Internal.Correction>
0.0038

> <Gold.Rescore>
     Score         DG    S(hbond)    S(metal)    S(lipo)     H(rot)  DE(clash)    DE(int)     intcor
      7.56     -10.29       3.73        0.00      23.38       4.06       0.11       2.63       ----

> <Gold.Chemscore.Fitness>
7.5576

> <Gold.Chemscore.DG>
-10.2931

> <Gold.Chemscore.ZeroCoef>
-5.4800

> <Gold.Chemscore.Hbond>
3.7340

> <Gold.Chemscore.Metal>
0.0000

> <Gold.Chemscore.Lipo>
23.3773

> <Gold.Chemscore.Internal_Hbond>
0.0000

> <Gold.Chemscore.DEClash>
0.1071

> <Gold.Chemscore.DEInternal>
2.6283

> <Gold.Chemscore.Rot>
4.0600

> <Gold.Chemscore.Internal.Correction>
   9.000000E+99

> <Gold.Chemscore.Hbonds>
donor molecule, donor type, donor heavy atom, donor atom, acceptor molecule, acceptor atom, score
      L1  H    12    27       P1  8028  0.86
      L1  H    14    28       P1  7957  0.94
      P1  H  6896  6909       L1     3  0.64
      P1  H  7989  7998       L1     9  0.21
      P1  H  7997  8009       L1     5  0.05

> <Gold.Chemscore.Hbond.Weighted>
-12.4715

> <Gold.Chemscore.Metal.Weighted>
-0.0000

> <Gold.Chemscore.Lipo.Weighted>
-2.7351

> <Gold.Chemscore.Internal_Hbond.Weighted>
0.0000

> <Gold.Chemscore.DEClash.Weighted>
0.1071

> <Gold.Chemscore.DEInternal.Weighted>
2.6283

> <Gold.Chemscore.Rot.Weighted>
10.3936

> <Gold.Chemscore.Internal.Correction.Weighted>
   9.000000E+99

> <Gold.Protein.RotatedTorsions>
[ 6907 6896 6895 6894 ] final  144.94 input  -60.11 | X-H torsion
[ 7974 7965 7964 7962 ] final  -61.25 input  175.53 | X-H torsion
[ 8008 7997 7996 7995 ] final  153.96 input   59.86 | X-H torsion
[ 10167 10162 10161 10158 ] final -130.66 input  -65.29 | X-H torsion
[ 10718 10713 10712 10709 ] final  -72.17 input   66.30 | X-H torsion
[ 10763 10752 10751 10750 ] final  126.31 input  -60.55 | X-H torsion
[ 11005 11000 10999 10996 ] final  -12.08 input  -57.11 | X-H torsion

> <Gold.Protein.ActiveResidues>
 VAL166  LYS551  ARG553  GLY616  TRP617  ASP618  TYR619  PRO620  LYS621  CYS622 
 ASP623  PHE694  ASN695  SER759  ASP760  ASP761  ALA762  ILE779  LEU786  VAL792 
 PHE793  MET794  SER795  GLU796  ALA797  LYS798  CYS799  TRP800  GLU811  SER814 

> <Gold.Protein.RotatedAtoms>
  152.1872  133.4748  159.4988 H   0  0  0  0  0  0  0  0  0  0  0  0  # atno 6907 bound_to 6896
  150.6944  134.1758  159.4239 H   0  0  0  0  0  0  0  0  0  0  0  0  # atno 6908 bound_to 6896
  151.9671  135.0094  160.0601 H   0  0  0  0  0  0  0  0  0  0  0  0  # atno 6909 bound_to 6896
  145.8057  140.8628  143.0208 H   0  0  0  0  0  0  0  0  0  0  0  0  # atno 7974 bound_to 7965
  156.2555  140.1979  156.6571 H   0  0  0  0  0  0  0  0  0  0  0  0  # atno 8008 bound_to 7997
  154.6492  140.0574  156.9961 H   0  0  0  0  0  0  0  0  0  0  0  0  # atno 8009 bound_to 7997
  155.1444  140.3245  155.4448 H   0  0  0  0  0  0  0  0  0  0  0  0  # atno 8010 bound_to 7997
  139.9270  143.6316  152.2539 H   0  0  0  0  0  0  0  0  0  0  0  0  # atno 10167 bound_to 10162
  156.0331  130.4366  150.2553 H   0  0  0  0  0  0  0  0  0  0  0  0  # atno 10718 bound_to 10713
  153.6913  135.3298  155.3202 H   0  0  0  0  0  0  0  0  0  0  0  0  # atno 10763 bound_to 10752
  154.8439  135.4432  154.1506 H   0  0  0  0  0  0  0  0  0  0  0  0  # atno 10764 bound_to 10752
  153.2548  135.6985  153.7718 H   0  0  0  0  0  0  0  0  0  0  0  0  # atno 10765 bound_to 10752
  140.7620  133.8507  155.9133 H   0  0  0  0  0  0  0  0  0  0  0  0  # atno 11005 bound_to 11000
  144.6763  140.0323  143.7482 LP  0  0  0  0  0  0  0  0  0  0  0  0  # atno 17320 bound_to 7965
  145.9830  139.2956  143.1030 LP  0  0  0  0  0  0  0  0  0  0  0  0  # atno 17321 bound_to 7965
  139.6814  144.7655  151.1602 LP  0  0  0  0  0  0  0  0  0  0  0  0  # atno 17342 bound_to 10162
  140.7647  143.5720  150.8986 LP  0  0  0  0  0  0  0  0  0  0  0  0  # atno 17343 bound_to 10162
  157.0654  131.0102  151.3208 LP  0  0  0  0  0  0  0  0  0  0  0  0  # atno 17370 bound_to 10713
  157.5039  130.7897  149.7633 LP  0  0  0  0  0  0  0  0  0  0  0  0  # atno 17371 bound_to 10713
  140.9654  134.1601  157.4620 LP  0  0  0  0  0  0  0  0  0  0  0  0  # atno 17394 bound_to 11000
  139.8769  134.9960  156.5771 LP  0  0  0  0  0  0  0  0  0  0  0  0  # atno 17395 bound_to 11000

$$$$
