AV-unprocessed.smi:408|AV-procd|sdf|2504|dock1
  -GOLD-   2262022453D 1   1.00000     0.00000
 Structure written by MMmdl.
 40 41  0  0  0  0  0  0  0  0  2 V2000
  145.5930  130.8268  151.6606 C   0  0  0  0  0  0  0  0  0  0  0  0
  145.3776  132.3380  151.8457 C   0  0  0  0  0  0  0  0  0  0  0  0
  144.5075  132.8974  150.7107 C   0  0  0  0  0  0  0  0  0  0  0  0
  146.7147  133.1067  151.9421 C   0  0  0  0  0  0  0  0  0  0  0  0
  147.6355  132.6911  153.1064 C   0  0  0  0  0  0  0  0  0  0  0  0
  148.5749  133.7541  153.4441 N   0  0  0  0  0  0  0  0  0  0  0  0
  149.4210  133.7564  154.4865 C   0  0  0  0  0  0  0  0  0  0  0  0
  149.5777  132.7963  155.2404 O   0  0  0  0  0  0  0  0  0  0  0  0
  150.1875  135.0581  154.7290 C   0  0  0  0  0  0  0  0  0  0  0  0
  149.6178  135.7540  155.9310 C   0  0  0  0  0  0  0  0  0  0  0  0
  148.9921  136.9741  155.9601 C   0  0  0  0  0  0  0  0  0  0  0  0
  148.4021  137.3566  157.5510 S   0  0  0  0  0  0  0  0  0  0  0  0
  149.0461  135.8267  158.1462 C   0  0  0  0  0  0  0  0  0  0  0  0
  148.9347  135.3959  159.4157 N   0  5  0  0  0  0  0  0  0  0  0  0
  148.1507  136.0097  160.3455 C   0  0  0  0  0  0  0  0  0  0  0  0
  148.1527  137.2156  160.5879 O   0  0  0  0  0  0  0  0  0  0  0  0
  147.2385  135.0928  161.1126 C   0  0  0  0  0  0  0  0  0  0  0  0
  147.4448  134.9484  162.6086 C   0  0  0  0  0  0  0  0  0  0  0  0
  147.8633  133.8354  161.6834 C   0  0  0  0  0  0  0  0  0  0  0  0
  149.6726  135.1393  157.1840 N   0  0  0  0  0  0  0  0  0  0  0  0
  146.1945  130.6170  150.7756 H   0  0  0  0  0  0  0  0  0  0  0  0
  144.6424  130.3065  151.5430 H   0  0  0  0  0  0  0  0  0  0  0  0
  146.0956  130.3854  152.5208 H   0  0  0  0  0  0  0  0  0  0  0  0
  144.8177  132.4878  152.7691 H   0  0  0  0  0  0  0  0  0  0  0  0
  145.0050  132.8031  149.7452 H   0  0  0  0  0  0  0  0  0  0  0  0
  144.2841  133.9524  150.8709 H   0  0  0  0  0  0  0  0  0  0  0  0
  143.5555  132.3691  150.6481 H   0  0  0  0  0  0  0  0  0  0  0  0
  147.2589  132.9970  151.0032 H   0  0  0  0  0  0  0  0  0  0  0  0
  146.5067  134.1735  152.0376 H   0  0  0  0  0  0  0  0  0  0  0  0
  147.0533  132.3731  153.9719 H   0  0  0  0  0  0  0  0  0  0  0  0
  148.2207  131.8218  152.8062 H   0  0  0  0  0  0  0  0  0  0  0  0
  148.5249  134.5925  152.8837 H   0  0  0  0  0  0  0  0  0  0  0  0
  151.2461  134.8367  154.8712 H   0  0  0  0  0  0  0  0  0  0  0  0
  150.1179  135.6914  153.8440 H   0  0  0  0  0  0  0  0  0  0  0  0
  148.8194  137.6564  155.1415 H   0  0  0  0  0  0  0  0  0  0  0  0
  146.2078  135.0341  160.7667 H   0  0  0  0  0  0  0  0  0  0  0  0
  148.2389  135.5174  163.0885 H   0  0  0  0  0  0  0  0  0  0  0  0
  146.5545  134.7997  163.2161 H   0  0  0  0  0  0  0  0  0  0  0  0
  147.2628  132.9301  161.6473 H   0  0  0  0  0  0  0  0  0  0  0  0
  148.9307  133.6829  161.5328 H   0  0  0  0  0  0  0  0  0  0  0  0
  1  2  1  0  0  0  0
  1 21  1  0  0  0  0
  1 22  1  0  0  0  0
  1 23  1  0  0  0  0
  2  3  1  0  0  0  0
  2  4  1  0  0  0  0
  2 24  1  0  0  0  0
  3 25  1  0  0  0  0
  3 26  1  0  0  0  0
  3 27  1  0  0  0  0
  4  5  1  0  0  0  0
  4 28  1  0  0  0  0
  4 29  1  0  0  0  0
  5  6  1  0  0  0  0
  5 30  1  0  0  0  0
  5 31  1  0  0  0  0
  6  7  1  0  0  0  0
  6 32  1  0  0  0  0
  7  8  2  0  0  0  0
  7  9  1  0  0  0  0
  9 10  1  0  0  0  0
  9 33  1  0  0  0  0
  9 34  1  0  0  0  0
 10 20  1  0  0  0  0
 10 11  2  0  0  0  0
 11 12  1  0  0  0  0
 11 35  1  0  0  0  0
 12 13  1  0  0  0  0
 13 14  1  0  0  0  0
 13 20  2  0  0  0  0
 14 15  1  0  0  0  0
 15 16  2  0  0  0  0
 15 17  1  0  0  0  0
 17 19  1  0  0  0  0
 17 18  1  0  0  0  0
 17 36  1  0  0  0  0
 18 19  1  0  0  0  0
 18 37  1  0  0  0  0
 18 38  1  0  0  0  0
 19 39  1  0  0  0  0
 19 40  1  0  0  0  0
M  CHG  1  14  -1
M  END
> <s_m_source_file>
AV-unprocessed.smi

> <i_m_source_file_index>
408

> <i_lp_mmshare_version>
43012

> <i_f3d_flags>
0

> <s_epik_input>
W0NIM11bQ0hdKFtDSDNdKVtDSDJdW0NIMl1bTkhdQyg9TylbQ0gyXWMxW2NIXXNjKG4xKVtOSF1DKD1PKVtDSF0yW0NIMl1bQ0gyXTI=

> <s_epik_cmdline>
J2VwaWtfcHl0aG9uJywgJy1waCcsICc3LjAnLCAnLXRuJywgJzgnLCAnLW1hJywgJzIwMCcsICctbWV0YWxfYmluZGluZycsICctaW1hZScsICc8aW5maWxlLm1hZT4nLCAnLW9tYWUnLCAnPG91dGZpbGUubWFlPic=

> <r_lp_tautomer_probability>
1

> <r_epik_Ionization_Penalty>
5.55111

> <r_epik_Ionization_Penalty_Charging>
5.01898

> <r_epik_Ionization_Penalty_Neutral>
0.532133

> <r_epik_State_Penalty>
5.01885

> <r_epik_Charging_Adjusted_Penalty>
10.0378

> <i_epik_Tot_Q>
-1

> <i_epik_Tot_abs_Q>
1

> <r_epik_Metal_State_Penalty>
1.13336

> <b_epik_Metal_Only>
1

> <s_lp_Force_Field>
OPLS_2005

> <r_lp_Energy>
8.36317

> <b_lp_Chiralities_Consistent>
1

> <s_lp_Variant>
AV-unprocessed.smi:408-2

> <Gold.Version>
5.8.1

> <Gold.Id.Protein>
6NUR|6NUR_protein|mol2

> <Gold.PLP.Fitness>
47.4273

> <Gold.PLP.PLP>
-35.3023

> <Gold.PLP.part.hbond>
-4.0000

> <Gold.PLP.part.metal>
0.0000

> <Gold.PLP.part.buried>
-4.6706

> <Gold.PLP.part.nonpolar>
-25.7804

> <Gold.PLP.part.repulsive>
0.0099

> <Gold.PLP.ligand.clash>
0.0000

> <Gold.PLP.ligand.torsion>
0.8929

> <Gold.PLP.Chemscore.Hbond>
4.4793

> <Gold.PLP.Chemscore.CHOScore>
0.0000

> <Gold.PLP.Chemscore.Metal>
0.0000

> <Gold.Chemscore.Hbonds>
donor molecule, donor type, donor heavy atom, donor atom, acceptor molecule, acceptor atom, score
      L1  H     6    32       P1  7948  1.00
      P1  H  6896  6908       L1    14  1.80
      P1  H  6931  6943       L1    16  0.78
      P1  H  6934  6947       L1    16  0.61

> <Gold.PLP.Chemscore.Internal.Correction>
0.4731

> <Gold.Rescore>
     Score         DG    S(hbond)    S(metal)    S(lipo)     H(rot)  DE(clash)    DE(int)     intcor
     15.04     -16.83       2.64        0.00      63.77       1.92       0.00       1.80       ----

> <Gold.Chemscore.Fitness>
15.0361

> <Gold.Chemscore.DG>
-16.8331

> <Gold.Chemscore.ZeroCoef>
-5.4800

> <Gold.Chemscore.Hbond>
2.6368

> <Gold.Chemscore.Metal>
0.0000

> <Gold.Chemscore.Lipo>
63.7676

> <Gold.Chemscore.Internal_Hbond>
0.0000

> <Gold.Chemscore.DEClash>
0.0009

> <Gold.Chemscore.DEInternal>
1.7960

> <Gold.Chemscore.Rot>
1.9198

> <Gold.Chemscore.Internal.Correction>
   9.000000E+99

> <Gold.Chemscore.Hbonds>
donor molecule, donor type, donor heavy atom, donor atom, acceptor molecule, acceptor atom, score
      L1  H     6    32       P1  7948  0.25
      P1  H  6896  6908       L1    14  0.18
      P1  H  6931  6943       L1    16  0.78
      P1  H  6934  6947       L1    16  0.59

> <Gold.Chemscore.Hbond.Weighted>
-8.8070

> <Gold.Chemscore.Metal.Weighted>
-0.0000

> <Gold.Chemscore.Lipo.Weighted>
-7.4608

> <Gold.Chemscore.Internal_Hbond.Weighted>
0.0000

> <Gold.Chemscore.DEClash.Weighted>
0.0009

> <Gold.Chemscore.DEInternal.Weighted>
1.7960

> <Gold.Chemscore.Rot.Weighted>
4.9148

> <Gold.Chemscore.Internal.Correction.Weighted>
   9.000000E+99

> <Gold.Protein.RotatedTorsions>
[ 6907 6896 6895 6894 ] final  166.99 input  -60.11 | X-H torsion
[ 7974 7965 7964 7962 ] final  146.66 input  175.53 | X-H torsion
[ 8008 7997 7996 7995 ] final  -30.50 input   59.86 | X-H torsion
[ 10167 10162 10161 10158 ] final -168.00 input  -65.29 | X-H torsion
[ 10718 10713 10712 10709 ] final -173.22 input   66.30 | X-H torsion
[ 10763 10752 10751 10750 ] final  165.27 input  -60.55 | X-H torsion
[ 11005 11000 10999 10996 ] final  136.67 input  -57.11 | X-H torsion

> <Gold.Protein.ActiveResidues>
 VAL166  LYS551  ARG553  GLY616  TRP617  ASP618  TYR619  PRO620  LYS621  CYS622 
 ASP623  PHE694  ASN695  SER759  ASP760  ASP761  ALA762  ILE779  LEU786  VAL792 
 PHE793  MET794  SER795  GLU796  ALA797  LYS798  CYS799  TRP800  GLU811  SER814 

> <Gold.Protein.RotatedAtoms>
  151.8703  133.3474  159.3732 H   0  0  0  0  0  0  0  0  0  0  0  0  # atno 6907 bound_to 6896
  150.7154  134.5119  159.5621 H   0  0  0  0  0  0  0  0  0  0  0  0  # atno 6908 bound_to 6896
  152.2651  134.7994  160.0475 H   0  0  0  0  0  0  0  0  0  0  0  0  # atno 6909 bound_to 6896
  144.8653  139.5932  143.5911 H   0  0  0  0  0  0  0  0  0  0  0  0  # atno 7974 bound_to 7965
  154.4248  140.1789  156.1417 H   0  0  0  0  0  0  0  0  0  0  0  0  # atno 8008 bound_to 7997
  155.9986  140.3362  155.6799 H   0  0  0  0  0  0  0  0  0  0  0  0  # atno 8009 bound_to 7997
  155.6273  140.0666  157.2650 H   0  0  0  0  0  0  0  0  0  0  0  0  # atno 8010 bound_to 7997
  139.6013  144.1005  152.1746 H   0  0  0  0  0  0  0  0  0  0  0  0  # atno 10167 bound_to 10162
  156.7671  130.9435  151.3119 H   0  0  0  0  0  0  0  0  0  0  0  0  # atno 10718 bound_to 10713
  154.3214  135.2756  155.2517 H   0  0  0  0  0  0  0  0  0  0  0  0  # atno 10763 bound_to 10752
  154.4869  135.5844  153.6434 H   0  0  0  0  0  0  0  0  0  0  0  0  # atno 10764 bound_to 10752
  152.9876  135.6125  154.3399 H   0  0  0  0  0  0  0  0  0  0  0  0  # atno 10765 bound_to 10752
  140.0062  134.9458  157.0179 H   0  0  0  0  0  0  0  0  0  0  0  0  # atno 11005 bound_to 11000
  146.2891  139.7089  142.9174 LP  0  0  0  0  0  0  0  0  0  0  0  0  # atno 17320 bound_to 7965
  145.4233  141.0408  143.2952 LP  0  0  0  0  0  0  0  0  0  0  0  0  # atno 17321 bound_to 7965
  140.0602  144.5863  150.7269 LP  0  0  0  0  0  0  0  0  0  0  0  0  # atno 17342 bound_to 10162
  140.7252  143.2628  151.4146 LP  0  0  0  0  0  0  0  0  0  0  0  0  # atno 17343 bound_to 10162
  157.6708  130.9049  150.0036 LP  0  0  0  0  0  0  0  0  0  0  0  0  # atno 17370 bound_to 10713
  156.1302  130.3643  149.9745 LP  0  0  0  0  0  0  0  0  0  0  0  0  # atno 17371 bound_to 10713
  140.4637  134.1457  155.7194 LP  0  0  0  0  0  0  0  0  0  0  0  0  # atno 17394 bound_to 11000
  141.1678  133.8668  157.1662 LP  0  0  0  0  0  0  0  0  0  0  0  0  # atno 17395 bound_to 11000

$$$$
