AV-unprocessed.smi:3348|AV-procd|sdf|12916|dock8
  -GOLD-   2272019333D 1   1.00000     0.00000
 Structure written by MMmdl.
 47 48  0  0  0  0  0  0  0  0  2 V2000
  144.1737  136.2911  152.3038 C   0  0  0  0  0  0  0  0  0  0  0  0
  145.4754  135.8756  151.5995 C   0  0  1  0  0  0  0  0  0  0  0  0
  145.1713  135.0755  150.3162 C   0  0  0  0  0  0  0  0  0  0  0  0
  145.1038  133.6415  150.5440 N   0  0  0  0  0  0  0  0  0  0  0  0
  143.9835  132.8459  150.6649 C   0  0  0  0  0  0  0  0  0  0  0  0
  144.4131  131.5687  150.8851 C   0  0  0  0  0  0  0  0  0  0  0  0
  145.8309  131.6855  150.8954 C   0  0  0  0  0  0  0  0  0  0  0  0
  146.2407  132.9277  150.6955 N   0  0  0  0  0  0  0  0  0  0  0  0
  146.3060  137.0586  151.2781 N   0  3  0  0  0  0  0  0  0  0  0  0
  146.1408  138.2120  152.1866 C   0  0  0  0  0  0  0  0  0  0  0  0
  146.4402  137.8111  153.6341 C   0  0  0  0  0  0  0  0  0  0  0  0
  146.7468  138.9844  154.3729 O   0  0  0  0  0  0  0  0  0  0  0  0
  148.0525  139.5041  154.1484 C   0  0  2  0  0  0  0  0  0  0  0  0
  149.1126  138.5292  154.7056 C   0  0  0  0  0  0  0  0  0  0  0  0
  150.5282  139.1155  154.6037 C   0  0  0  0  0  0  0  0  0  0  0  0
  150.6139  140.4758  155.3090 C   0  0  0  0  0  0  0  0  0  0  0  0
  149.5676  141.4518  154.7507 C   0  0  0  0  0  0  0  0  0  0  0  0
  148.1396  140.8784  154.8509 C   0  0  1  0  0  0  0  0  0  0  0  0
  147.1147  141.8755  154.2855 C   0  0  0  0  0  0  0  0  0  0  0  0
  143.5504  135.4217  152.5142 H   0  0  0  0  0  0  0  0  0  0  0  0
  143.5896  136.9753  151.6874 H   0  0  0  0  0  0  0  0  0  0  0  0
  144.3687  136.7837  153.2563 H   0  0  0  0  0  0  0  0  0  0  0  0
  146.0387  135.2314  152.2764 H   0  0  0  0  0  0  0  0  0  0  0  0
  144.2174  135.3925  149.8920 H   0  0  0  0  0  0  0  0  0  0  0  0
  145.9299  135.2713  149.5569 H   0  0  0  0  0  0  0  0  0  0  0  0
  142.9846  133.2490  150.5830 H   0  0  0  0  0  0  0  0  0  0  0  0
  143.8068  130.6858  151.0233 H   0  0  0  0  0  0  0  0  0  0  0  0
  146.5690  130.9108  151.0426 H   0  0  0  0  0  0  0  0  0  0  0  0
  147.2731  136.7725  151.3342 H   0  0  0  0  0  0  0  0  0  0  0  0
  146.7892  139.0348  151.8850 H   0  0  0  0  0  0  0  0  0  0  0  0
  145.1125  138.5691  152.1176 H   0  0  0  0  0  0  0  0  0  0  0  0
  145.5683  137.3147  154.0597 H   0  0  0  0  0  0  0  0  0  0  0  0
  147.2691  137.1021  153.6651 H   0  0  0  0  0  0  0  0  0  0  0  0
  148.2178  139.6531  153.0795 H   0  0  0  0  0  0  0  0  0  0  0  0
  148.8886  138.3024  155.7488 H   0  0  0  0  0  0  0  0  0  0  0  0
  149.0842  137.5803  154.1709 H   0  0  0  0  0  0  0  0  0  0  0  0
  151.2502  138.4242  155.0395 H   0  0  0  0  0  0  0  0  0  0  0  0
  150.8024  139.2294  153.5541 H   0  0  0  0  0  0  0  0  0  0  0  0
  150.4579  140.3442  156.3805 H   0  0  0  0  0  0  0  0  0  0  0  0
  151.6142  140.8938  155.1907 H   0  0  0  0  0  0  0  0  0  0  0  0
  149.6296  142.3973  155.2908 H   0  0  0  0  0  0  0  0  0  0  0  0
  149.8025  141.6768  153.7094 H   0  0  0  0  0  0  0  0  0  0  0  0
  147.9124  140.7336  155.9083 H   0  0  0  0  0  0  0  0  0  0  0  0
  147.2768  142.0506  153.2216 H   0  0  0  0  0  0  0  0  0  0  0  0
  147.1829  142.8374  154.7946 H   0  0  0  0  0  0  0  0  0  0  0  0
  146.0943  141.5132  154.4123 H   0  0  0  0  0  0  0  0  0  0  0  0
  146.1130  137.3506  150.3306 H   0  0  0  0  0  0  0  0  0  0  0  0
  1  2  1  0  0  0  0
  1 20  1  0  0  0  0
  1 21  1  0  0  0  0
  1 22  1  0  0  0  0
  2  3  1  0  0  0  0
  2  9  1  0  0  0  0
  2 23  1  0  0  0  0
  3  4  1  0  0  0  0
  3 24  1  0  0  0  0
  3 25  1  0  0  0  0
  4  8  1  0  0  0  0
  4  5  1  0  0  0  0
  5  6  2  0  0  0  0
  5 26  1  0  0  0  0
  6  7  1  0  0  0  0
  6 27  1  0  0  0  0
  7  8  2  0  0  0  0
  7 28  1  0  0  0  0
  9 10  1  0  0  0  0
  9 29  1  0  0  0  0
  9 47  1  0  0  0  0
 10 11  1  0  0  0  0
 10 30  1  0  0  0  0
 10 31  1  0  0  0  0
 11 12  1  0  0  0  0
 11 32  1  0  0  0  0
 11 33  1  0  0  0  0
 12 13  1  0  0  0  0
 13 18  1  0  0  0  0
 13 14  1  0  0  0  0
 13 34  1  0  0  0  0
 14 15  1  0  0  0  0
 14 35  1  0  0  0  0
 14 36  1  0  0  0  0
 15 16  1  0  0  0  0
 15 37  1  0  0  0  0
 15 38  1  0  0  0  0
 16 17  1  0  0  0  0
 16 39  1  0  0  0  0
 16 40  1  0  0  0  0
 17 18  1  0  0  0  0
 17 41  1  0  0  0  0
 17 42  1  0  0  0  0
 18 19  1  0  0  0  0
 18 43  1  0  0  0  0
 19 44  1  0  0  0  0
 19 45  1  0  0  0  0
 19 46  1  0  0  0  0
M  CHG  1   9   1
M  END
> <s_m_source_file>
AV-unprocessed.smi

> <i_m_source_file_index>
3348

> <i_lp_mmshare_version>
43012

> <i_f3d_flags>
0

> <s_epik_input>
bjFbY0hdW2NIXVtjSF1uMVtDSDJdW0NAQEhdKFtDSDNdKVtOSF1bQ0gyXVtDSDJdT1tDQEBIXTJbQ0gyXVtDSDJdW0NIMl1bQ0gyXVtDQEhdMltDSDNd

> <s_epik_cmdline>
J2VwaWtfcHl0aG9uJywgJy1waCcsICc3LjAnLCAnLXRuJywgJzgnLCAnLW1hJywgJzIwMCcsICctbWV0YWxfYmluZGluZycsICctaW1hZScsICc8aW5maWxlLm1hZT4nLCAnLW9tYWUnLCAnPG91dGZpbGUubWFlPic=

> <r_lp_tautomer_probability>
1

> <r_epik_Ionization_Penalty>
0.00925088

> <r_epik_Ionization_Penalty_Charging>
0.00924645

> <r_epik_Ionization_Penalty_Neutral>
4.42413e-06

> <r_epik_State_Penalty>
0.0070118

> <r_epik_Charging_Adjusted_Penalty>
0.0162583

> <i_epik_Tot_Q>
1

> <i_epik_Tot_abs_Q>
1

> <r_epik_Metal_State_Penalty>
0.00701222

> <b_epik_Metal_Only>
0

> <s_lp_Force_Field>
OPLS_2005

> <r_lp_Energy>
16.0091

> <b_lp_Chiralities_Consistent>
1

> <s_lp_Variant>
AV-unprocessed.smi:3348-2

> <Gold.Version>
5.8.1

> <Gold.Id.Protein>
6NUR|6NUR_protein|mol2

> <Gold.PLP.Fitness>
47.6607

> <Gold.PLP.PLP>
-38.0656

> <Gold.PLP.part.hbond>
-1.5335

> <Gold.PLP.part.metal>
0.0000

> <Gold.PLP.part.buried>
-0.8516

> <Gold.PLP.part.nonpolar>
-36.1199

> <Gold.PLP.part.repulsive>
0.4149

> <Gold.PLP.ligand.clash>
0.0000

> <Gold.PLP.ligand.torsion>
1.2430

> <Gold.PLP.Chemscore.Hbond>
2.0000

> <Gold.PLP.Chemscore.CHOScore>
2.0000

> <Gold.PLP.Chemscore.Metal>
0.0000

> <Gold.Chemscore.Hbonds>
donor molecule, donor type, donor heavy atom, donor atom, acceptor molecule, acceptor atom, score
      L1  H     9    29       P1  7948  2.00
      L1  C     5    26       P1 10186  1.00
      L1  C     7    28       P1 10747  0.98

> <Gold.PLP.Chemscore.Internal.Correction>
0.0811

> <Gold.Rescore>
     Score         DG    S(hbond)    S(metal)    S(lipo)     H(rot)  DE(clash)    DE(int)     intcor
     14.38     -16.11       1.11        0.00      98.86       1.82       0.69       1.04       ----

> <Gold.Chemscore.Fitness>
14.3830

> <Gold.Chemscore.DG>
-16.1143

> <Gold.Chemscore.ZeroCoef>
-5.4800

> <Gold.Chemscore.Hbond>
1.1132

> <Gold.Chemscore.Metal>
0.0000

> <Gold.Chemscore.Lipo>
98.8554

> <Gold.Chemscore.Internal_Hbond>
0.0000

> <Gold.Chemscore.DEClash>
0.6928

> <Gold.Chemscore.DEInternal>
1.0385

> <Gold.Chemscore.Rot>
1.8163

> <Gold.Chemscore.Internal.Correction>
   9.000000E+99

> <Gold.Chemscore.Hbonds>
donor molecule, donor type, donor heavy atom, donor atom, acceptor molecule, acceptor atom, score
      L1  H     9    29       P1  7948  1.00

> <Gold.Chemscore.Hbond.Weighted>
-3.7180

> <Gold.Chemscore.Metal.Weighted>
-0.0000

> <Gold.Chemscore.Lipo.Weighted>
-11.5661

> <Gold.Chemscore.Internal_Hbond.Weighted>
0.0000

> <Gold.Chemscore.DEClash.Weighted>
0.6928

> <Gold.Chemscore.DEInternal.Weighted>
1.0385

> <Gold.Chemscore.Rot.Weighted>
4.6497

> <Gold.Chemscore.Internal.Correction.Weighted>
   9.000000E+99

> <Gold.Protein.RotatedTorsions>
[ 6907 6896 6895 6894 ] final -148.43 input  -60.11 | X-H torsion
[ 7974 7965 7964 7962 ] final   27.08 input  175.53 | X-H torsion
[ 8008 7997 7996 7995 ] final  119.13 input   59.86 | X-H torsion
[ 10167 10162 10161 10158 ] final -105.55 input  -65.29 | X-H torsion
[ 10718 10713 10712 10709 ] final   39.31 input   66.30 | X-H torsion
[ 10763 10752 10751 10750 ] final  -95.10 input  -60.55 | X-H torsion
[ 11005 11000 10999 10996 ] final   45.85 input  -57.11 | X-H torsion

> <Gold.Protein.ActiveResidues>
 VAL166  LYS551  ARG553  GLY616  TRP617  ASP618  TYR619  PRO620  LYS621  CYS622 
 ASP623  PHE694  ASN695  SER759  ASP760  ASP761  ALA762  ILE779  LEU786  VAL792 
 PHE793  MET794  SER795  GLU796  ALA797  LYS798  CYS799  TRP800  GLU811  SER814 

> <Gold.Protein.RotatedAtoms>
  151.1697  133.4792  159.2593 H   0  0  0  0  0  0  0  0  0  0  0  0  # atno 6907 bound_to 6896
  151.1368  135.0159  159.8618 H   0  0  0  0  0  0  0  0  0  0  0  0  # atno 6908 bound_to 6896
  152.5461  134.1595  159.8605 H   0  0  0  0  0  0  0  0  0  0  0  0  # atno 6909 bound_to 6896
  146.1803  139.7240  142.8905 H   0  0  0  0  0  0  0  0  0  0  0  0  # atno 7974 bound_to 7965
  156.2581  140.2859  156.0943 H   0  0  0  0  0  0  0  0  0  0  0  0  # atno 8008 bound_to 7997
  155.1429  140.0396  157.2820 H   0  0  0  0  0  0  0  0  0  0  0  0  # atno 8009 bound_to 7997
  154.6517  140.2546  155.7213 H   0  0  0  0  0  0  0  0  0  0  0  0  # atno 8010 bound_to 7997
  140.1973  143.3845  152.1158 H   0  0  0  0  0  0  0  0  0  0  0  0  # atno 10167 bound_to 10162
  157.3690  130.7691  149.7105 H   0  0  0  0  0  0  0  0  0  0  0  0  # atno 10718 bound_to 10713
  154.7117  135.5133  153.8676 H   0  0  0  0  0  0  0  0  0  0  0  0  # atno 10763 bound_to 10752
  153.0786  135.6624  154.0102 H   0  0  0  0  0  0  0  0  0  0  0  0  # atno 10764 bound_to 10752
  153.9943  135.3017  155.3388 H   0  0  0  0  0  0  0  0  0  0  0  0  # atno 10765 bound_to 10752
  140.1422  134.4569  155.8441 H   0  0  0  0  0  0  0  0  0  0  0  0  # atno 11005 bound_to 11000
  145.4094  141.0395  143.3025 LP  0  0  0  0  0  0  0  0  0  0  0  0  # atno 17320 bound_to 7965
  144.8304  139.5638  143.6946 LP  0  0  0  0  0  0  0  0  0  0  0  0  # atno 17321 bound_to 7965
  139.5231  144.7067  151.5331 LP  0  0  0  0  0  0  0  0  0  0  0  0  # atno 17342 bound_to 10162
  140.6414  143.8881  150.6696 LP  0  0  0  0  0  0  0  0  0  0  0  0  # atno 17343 bound_to 10162
  155.9752  130.4092  150.3868 LP  0  0  0  0  0  0  0  0  0  0  0  0  # atno 17370 bound_to 10713
  157.1957  131.0426  151.2677 LP  0  0  0  0  0  0  0  0  0  0  0  0  # atno 17371 bound_to 10713
  141.2187  133.6838  156.7267 LP  0  0  0  0  0  0  0  0  0  0  0  0  # atno 17394 bound_to 11000
  140.2708  134.8393  157.3845 LP  0  0  0  0  0  0  0  0  0  0  0  0  # atno 17395 bound_to 11000

$$$$
