AV-unprocessed.smi:1643|AV-procd|sdf|6581|dock4
  -GOLD-   22720 7273D 1   1.00000     0.00000
 Structure written by MMmdl.
 55 57  0  0  0  0  0  0  0  0  3 V2000
  143.0504  142.6272  157.5185 C   0  0  0  0  0  0  0  0  0  0  0  0
  143.7656  143.5485  156.5257 C   0  0  0  0  0  0  0  0  0  0  0  0
  143.5817  144.7615  156.6264 O   0  0  0  0  0  0  0  0  0  0  0  0
  144.5741  143.0031  155.5836 N   0  0  0  0  0  0  0  0  0  0  0  0
  144.7219  141.5441  155.4665 C   0  0  0  0  0  0  0  0  0  0  0  0
  146.0136  141.0546  156.1455 C   0  0  0  0  0  0  0  0  0  0  0  0
  147.2053  142.0297  156.0356 C   0  0  0  0  0  0  0  0  0  0  0  0
  147.5523  142.4188  154.6414 N   0  3  1  0  0  0  0  0  0  0  0  0
  148.2257  141.3216  153.8949 C   0  0  0  0  0  0  0  0  0  0  0  0
  149.2142  140.5182  154.7635 C   0  0  1  0  0  0  0  0  0  0  0  0
  150.0239  139.7196  153.9221 O   0  0  0  0  0  0  0  0  0  0  0  0
  150.1156  141.4396  155.6090 C   0  0  0  0  0  0  0  0  0  0  0  0
  150.7749  140.7317  156.7141 N   0  0  0  0  0  0  0  0  0  0  0  0
  150.9159  139.3971  156.9416 C   0  0  0  0  0  0  0  0  0  0  0  0
  151.5999  139.2502  158.1101 N   0  3  0  0  0  0  0  0  0  0  0  0
  151.9031  140.5086  158.6344 C   0  0  0  0  0  0  0  0  0  0  0  0
  152.5776  140.8749  159.7928 C   0  0  0  0  0  0  0  0  0  0  0  0
  152.7209  142.2579  160.0460 C   0  0  0  0  0  0  0  0  0  0  0  0
  153.4513  142.6923  161.3051 C   0  0  0  0  0  0  0  0  0  0  0  0
  152.1963  143.2233  159.1476 C   0  0  0  0  0  0  0  0  0  0  0  0
  152.3556  144.7076  159.4305 C   0  0  0  0  0  0  0  0  0  0  0  0
  151.5148  142.8303  157.9733 C   0  0  0  0  0  0  0  0  0  0  0  0
  151.3800  141.4636  157.7416 C   0  0  0  0  0  0  0  0  0  0  0  0
  146.4778  143.0979  153.8513 C   0  0  0  0  0  0  0  0  0  0  0  0
  145.3788  143.8343  154.6632 C   0  0  0  0  0  0  0  0  0  0  0  0
  143.7521  141.9460  158.0008 H   0  0  0  0  0  0  0  0  0  0  0  0
  142.2772  142.0442  157.0177 H   0  0  0  0  0  0  0  0  0  0  0  0
  142.5690  143.2123  158.3033 H   0  0  0  0  0  0  0  0  0  0  0  0
  143.8703  141.0095  155.8901 H   0  0  0  0  0  0  0  0  0  0  0  0
  144.7036  141.2496  154.4186 H   0  0  0  0  0  0  0  0  0  0  0  0
  145.8100  140.8951  157.2050 H   0  0  0  0  0  0  0  0  0  0  0  0
  146.2845  140.0766  155.7468 H   0  0  0  0  0  0  0  0  0  0  0  0
  147.0123  142.9310  156.6183 H   0  0  0  0  0  0  0  0  0  0  0  0
  148.0793  141.5833  156.5113 H   0  0  0  0  0  0  0  0  0  0  0  0
  147.4794  140.6359  153.4907 H   0  0  0  0  0  0  0  0  0  0  0  0
  148.7437  141.7466  153.0337 H   0  0  0  0  0  0  0  0  0  0  0  0
  148.6704  139.8565  155.4368 H   0  0  0  0  0  0  0  0  0  0  0  0
  149.6181  139.6672  153.0699 H   0  0  0  0  0  0  0  0  0  0  0  0
  150.8971  141.8825  154.9896 H   0  0  0  0  0  0  0  0  0  0  0  0
  149.5445  142.2696  156.0274 H   0  0  0  0  0  0  0  0  0  0  0  0
  150.5479  138.5987  156.3134 H   0  0  0  0  0  0  0  0  0  0  0  0
  152.9747  140.1348  160.4723 H   0  0  0  0  0  0  0  0  0  0  0  0
  152.7926  143.2782  161.9466 H   0  0  0  0  0  0  0  0  0  0  0  0
  154.3220  143.2985  161.0539 H   0  0  0  0  0  0  0  0  0  0  0  0
  153.7985  141.8336  161.8809 H   0  0  0  0  0  0  0  0  0  0  0  0
  151.8865  145.3150  158.6557 H   0  0  0  0  0  0  0  0  0  0  0  0
  153.4109  144.9785  159.4727 H   0  0  0  0  0  0  0  0  0  0  0  0
  151.8923  144.9679  160.3825 H   0  0  0  0  0  0  0  0  0  0  0  0
  151.1166  143.5641  157.2887 H   0  0  0  0  0  0  0  0  0  0  0  0
  146.9677  143.8334  153.2128 H   0  0  0  0  0  0  0  0  0  0  0  0
  146.0161  142.3950  153.1576 H   0  0  0  0  0  0  0  0  0  0  0  0
  144.6986  144.3183  153.9612 H   0  0  0  0  0  0  0  0  0  0  0  0
  145.8644  144.6357  155.2216 H   0  0  0  0  0  0  0  0  0  0  0  0
  148.2662  143.1232  154.7643 H   0  0  0  0  0  0  0  0  0  0  0  0
  151.8400  138.3556  158.5180 H   0  0  0  0  0  0  0  0  0  0  0  0
  1  2  1  0  0  0  0
  1 26  1  0  0  0  0
  1 27  1  0  0  0  0
  1 28  1  0  0  0  0
  2  3  2  0  0  0  0
  2  4  1  0  0  0  0
  4 25  1  0  0  0  0
  4  5  1  0  0  0  0
  5  6  1  0  0  0  0
  5 29  1  0  0  0  0
  5 30  1  0  0  0  0
  6  7  1  0  0  0  0
  6 31  1  0  0  0  0
  6 32  1  0  0  0  0
  7  8  1  0  0  0  0
  7 33  1  0  0  0  0
  7 34  1  0  0  0  0
  8  9  1  0  0  0  0
  8 24  1  0  0  0  0
  8 54  1  0  0  0  0
  9 10  1  0  0  0  0
  9 35  1  0  0  0  0
  9 36  1  0  0  0  0
 10 11  1  0  0  0  0
 10 12  1  0  0  0  0
 10 37  1  0  0  0  0
 11 38  1  0  0  0  0
 12 13  1  0  0  0  0
 12 39  1  0  0  0  0
 12 40  1  0  0  0  0
 13 23  1  0  0  0  0
 13 14  1  0  0  0  0
 14 15  2  0  0  0  0
 14 41  1  0  0  0  0
 15 16  1  0  0  0  0
 15 55  1  0  0  0  0
 16 23  2  0  0  0  0
 16 17  1  0  0  0  0
 17 18  2  0  0  0  0
 17 42  1  0  0  0  0
 18 19  1  0  0  0  0
 18 20  1  0  0  0  0
 19 43  1  0  0  0  0
 19 44  1  0  0  0  0
 19 45  1  0  0  0  0
 20 21  1  0  0  0  0
 20 22  2  0  0  0  0
 21 46  1  0  0  0  0
 21 47  1  0  0  0  0
 21 48  1  0  0  0  0
 22 23  1  0  0  0  0
 22 49  1  0  0  0  0
 24 25  1  0  0  0  0
 24 50  1  0  0  0  0
 24 51  1  0  0  0  0
 25 52  1  0  0  0  0
 25 53  1  0  0  0  0
M  CHG  1   8   1
M  CHG  1  15   1
M  END
> <s_m_source_file>
AV-unprocessed.smi

> <i_m_source_file_index>
1643

> <i_lp_mmshare_version>
43012

> <i_f3d_flags>
0

> <s_epik_input>
W0NIM11DKD1PKU4xW0NIMl1bQ0gyXVtDSDJdTihbQ0gyXVtDSDJdMSlbQ0gyXVtDQEhdKFtPSF0pW0NIMl1uKFtjSF1uMiljKGMyMylbY0hdYyhbQ0gzXSljKFtjSF0zKVtDSDNd

> <s_epik_cmdline>
J2VwaWtfcHl0aG9uJywgJy1waCcsICc3LjAnLCAnLXRuJywgJzgnLCAnLW1hJywgJzIwMCcsICctbWV0YWxfYmluZGluZycsICctaW1hZScsICc8aW5maWxlLm1hZT4nLCAnLW9tYWUnLCAnPG91dGZpbGUubWFlPic=

> <r_epik_Ionization_Penalty>
1.2865

> <r_epik_Ionization_Penalty_Charging>
1.2865

> <r_epik_Ionization_Penalty_Neutral>
2.89706e-06

> <r_epik_State_Penalty>
1.3566

> <r_epik_Charging_Adjusted_Penalty>
2.6431

> <i_epik_Tot_Q>
2

> <i_epik_Tot_abs_Q>
2

> <r_epik_Metal_State_Penalty>
5.37339

> <b_epik_Metal_Only>
0

> <s_lp_Force_Field>
OPLS_2005

> <r_lp_Energy>
56.7844

> <b_lp_Chiralities_Consistent>
1

> <s_lp_Variant>
AV-unprocessed.smi:1643-10

> <Gold.Version>
5.8.1

> <Gold.Id.Protein>
6NUR|6NUR_protein|mol2

> <Gold.PLP.Fitness>
59.1150

> <Gold.PLP.PLP>
-48.3512

> <Gold.PLP.part.hbond>
-3.0000

> <Gold.PLP.part.metal>
0.0000

> <Gold.PLP.part.buried>
-6.6948

> <Gold.PLP.part.nonpolar>
-39.2089

> <Gold.PLP.part.repulsive>
0.2043

> <Gold.PLP.ligand.clash>
0.0000

> <Gold.PLP.ligand.torsion>
0.5239

> <Gold.PLP.Chemscore.Hbond>
3.8960

> <Gold.PLP.Chemscore.CHOScore>
0.0000

> <Gold.PLP.Chemscore.Metal>
0.0000

> <Gold.Chemscore.Hbonds>
donor molecule, donor type, donor heavy atom, donor atom, acceptor molecule, acceptor atom, score
      L1  H     8    54       P1  8028  1.95
      L1  H    11    38       P1  7957  1.00
      P1  H  7989  7998       L1    11  0.90

> <Gold.PLP.Chemscore.Internal.Correction>
0.1235

> <Gold.Rescore>
     Score         DG    S(hbond)    S(metal)    S(lipo)     H(rot)  DE(clash)    DE(int)     intcor
     20.02     -20.48       2.12        0.00     115.18       2.17       0.10       0.36       ----

> <Gold.Chemscore.Fitness>
20.0235

> <Gold.Chemscore.DG>
-20.4802

> <Gold.Chemscore.ZeroCoef>
-5.4800

> <Gold.Chemscore.Hbond>
2.1230

> <Gold.Chemscore.Metal>
0.0000

> <Gold.Chemscore.Lipo>
115.1796

> <Gold.Chemscore.Internal_Hbond>
0.0000

> <Gold.Chemscore.DEClash>
0.1010

> <Gold.Chemscore.DEInternal>
0.3556

> <Gold.Chemscore.Rot>
2.1744

> <Gold.Chemscore.Internal.Correction>
   9.000000E+99

> <Gold.Chemscore.Hbonds>
donor molecule, donor type, donor heavy atom, donor atom, acceptor molecule, acceptor atom, score
      L1  H     8    54       P1  8028  0.92
      L1  H    11    38       P1  7957  0.95
      P1  H  7989  7998       L1    11  0.09

> <Gold.Chemscore.Hbond.Weighted>
-7.0908

> <Gold.Chemscore.Metal.Weighted>
-0.0000

> <Gold.Chemscore.Lipo.Weighted>
-13.4760

> <Gold.Chemscore.Internal_Hbond.Weighted>
0.0000

> <Gold.Chemscore.DEClash.Weighted>
0.1010

> <Gold.Chemscore.DEInternal.Weighted>
0.3556

> <Gold.Chemscore.Rot.Weighted>
5.5666

> <Gold.Chemscore.Internal.Correction.Weighted>
   9.000000E+99

> <Gold.Protein.RotatedTorsions>
[ 6907 6896 6895 6894 ] final  132.74 input  -60.11 | X-H torsion
[ 7974 7965 7964 7962 ] final  -56.77 input  175.53 | X-H torsion
[ 8008 7997 7996 7995 ] final   62.40 input   59.86 | X-H torsion
[ 10167 10162 10161 10158 ] final   65.14 input  -65.29 | X-H torsion
[ 10718 10713 10712 10709 ] final   23.47 input   66.30 | X-H torsion
[ 10763 10752 10751 10750 ] final   78.27 input  -60.55 | X-H torsion
[ 11005 11000 10999 10996 ] final  160.99 input  -57.11 | X-H torsion

> <Gold.Protein.ActiveResidues>
 VAL166  LYS551  ARG553  GLY616  TRP617  ASP618  TYR619  PRO620  LYS621  CYS622 
 ASP623  PHE694  ASN695  SER759  ASP760  ASP761  ALA762  ILE779  LEU786  VAL792 
 PHE793  MET794  SER795  GLU796  ALA797  LYS798  CYS799  TRP800  GLU811  SER814 

> <Gold.Protein.RotatedAtoms>
  152.3292  133.5939  159.5797 H   0  0  0  0  0  0  0  0  0  0  0  0  # atno 6907 bound_to 6896
  150.7414  133.9893  159.3611 H   0  0  0  0  0  0  0  0  0  0  0  0  # atno 6908 bound_to 6896
  151.7770  135.0772  160.0419 H   0  0  0  0  0  0  0  0  0  0  0  0  # atno 6909 bound_to 6896
  145.8588  140.8300  142.9947 H   0  0  0  0  0  0  0  0  0  0  0  0  # atno 7974 bound_to 7965
  155.6137  140.3495  155.4630 H   0  0  0  0  0  0  0  0  0  0  0  0  # atno 8008 bound_to 7997
  156.0134  140.1238  157.0455 H   0  0  0  0  0  0  0  0  0  0  0  0  # atno 8009 bound_to 7997
  154.4289  140.1077  156.5848 H   0  0  0  0  0  0  0  0  0  0  0  0  # atno 8010 bound_to 7997
  140.1145  144.4788  150.6957 H   0  0  0  0  0  0  0  0  0  0  0  0  # atno 10167 bound_to 10162
  157.1666  130.6741  149.6063 H   0  0  0  0  0  0  0  0  0  0  0  0  # atno 10718 bound_to 10713
  153.0861  135.4883  154.8600 H   0  0  0  0  0  0  0  0  0  0  0  0  # atno 10763 bound_to 10752
  154.7212  135.3040  154.9046 H   0  0  0  0  0  0  0  0  0  0  0  0  # atno 10764 bound_to 10752
  153.9709  135.6801  153.4800 H   0  0  0  0  0  0  0  0  0  0  0  0  # atno 10765 bound_to 10752
  140.2114  134.8265  157.3124 H   0  0  0  0  0  0  0  0  0  0  0  0  # atno 11005 bound_to 11000
  144.6727  140.1065  143.7458 LP  0  0  0  0  0  0  0  0  0  0  0  0  # atno 17320 bound_to 7965
  145.9272  139.2583  143.1346 LP  0  0  0  0  0  0  0  0  0  0  0  0  # atno 17321 bound_to 7965
  140.6907  143.2374  151.5139 LP  0  0  0  0  0  0  0  0  0  0  0  0  # atno 17342 bound_to 10162
  139.5601  144.2177  152.1678 LP  0  0  0  0  0  0  0  0  0  0  0  0  # atno 17343 bound_to 10162
  155.9745  130.4693  150.6391 LP  0  0  0  0  0  0  0  0  0  0  0  0  # atno 17370 bound_to 10713
  157.4083  131.0820  151.1245 LP  0  0  0  0  0  0  0  0  0  0  0  0  # atno 17371 bound_to 10713
  140.1947  134.4328  155.7696 LP  0  0  0  0  0  0  0  0  0  0  0  0  # atno 17394 bound_to 11000
  141.2226  133.7043  156.8085 LP  0  0  0  0  0  0  0  0  0  0  0  0  # atno 17395 bound_to 11000

$$$$
