AV-unprocessed.smi:728|AV-procd|sdf|3518|dock6
  -GOLD-   22720 0513D 1   1.00000     0.00000
 Structure written by MMmdl.
 39 40  0  0  0  0  0  0  0  0  1 V2000
  145.4196  145.2030  153.4544 C   0  0  0  0  0  0  0  0  0  0  0  0
  144.9664  144.4862  154.7355 C   0  0  0  0  0  0  0  0  0  0  0  0
  144.4563  145.4686  155.7995 C   0  0  0  0  0  0  0  0  0  0  0  0
  146.0322  143.5919  155.2866 C   0  0  0  0  0  0  0  0  0  0  0  0
  146.7461  142.6864  154.6205 N   0  0  0  0  0  0  0  0  0  0  0  0
  147.6298  142.2893  155.5783 C   0  0  0  0  0  0  0  0  0  0  0  0
  148.6774  141.2502  155.3339 C   0  0  0  0  0  0  0  0  0  0  0  0
  149.7954  141.3634  156.3716 C   0  0  0  0  0  0  0  0  0  0  0  0
  150.2725  140.3476  156.8772 O   0  0  0  0  0  0  0  0  0  0  0  0
  150.1982  142.6060  156.6825 N   0  0  0  0  0  0  0  0  0  0  0  0
  151.2101  142.9442  157.6778 C   0  0  0  0  0  0  0  0  0  0  0  0
  150.7781  142.4463  159.0730 C   0  0  0  0  0  0  0  0  0  0  0  0
  151.7836  142.8655  160.1577 C   0  0  0  0  0  0  0  0  0  0  0  0
  152.0049  144.3863  160.1572 C   0  0  0  0  0  0  0  0  0  0  0  0
  152.4436  144.8821  158.7703 C   0  0  0  0  0  0  0  0  0  0  0  0
  151.4352  144.4682  157.6863 C   0  0  0  0  0  0  0  0  0  0  0  0
  147.5148  142.8915  156.7560 N   0  0  0  0  0  0  0  0  0  0  0  0
  146.4583  143.7917  156.5576 O   0  0  0  0  0  0  0  0  0  0  0  0
  145.7245  144.4866  152.6908 H   0  0  0  0  0  0  0  0  0  0  0  0
  146.2644  145.8655  153.6464 H   0  0  0  0  0  0  0  0  0  0  0  0
  144.6136  145.8066  153.0365 H   0  0  0  0  0  0  0  0  0  0  0  0
  144.1274  143.8454  154.4598 H   0  0  0  0  0  0  0  0  0  0  0  0
  144.0718  144.9374  156.6709 H   0  0  0  0  0  0  0  0  0  0  0  0
  143.6495  146.0888  155.4083 H   0  0  0  0  0  0  0  0  0  0  0  0
  145.2523  146.1323  156.1394 H   0  0  0  0  0  0  0  0  0  0  0  0
  148.2313  140.2552  155.3765 H   0  0  0  0  0  0  0  0  0  0  0  0
  149.0883  141.3713  154.3307 H   0  0  0  0  0  0  0  0  0  0  0  0
  149.7458  143.3785  156.2153 H   0  0  0  0  0  0  0  0  0  0  0  0
  152.1529  142.4646  157.4074 H   0  0  0  0  0  0  0  0  0  0  0  0
  149.7934  142.8467  159.3193 H   0  0  0  0  0  0  0  0  0  0  0  0
  150.6770  141.3602  159.0709 H   0  0  0  0  0  0  0  0  0  0  0  0
  151.4304  142.5413  161.1370 H   0  0  0  0  0  0  0  0  0  0  0  0
  152.7342  142.3581  159.9885 H   0  0  0  0  0  0  0  0  0  0  0  0
  151.0835  144.8904  160.4511 H   0  0  0  0  0  0  0  0  0  0  0  0
  152.7551  144.6531  160.9021 H   0  0  0  0  0  0  0  0  0  0  0  0
  152.5537  145.9669  158.7810 H   0  0  0  0  0  0  0  0  0  0  0  0
  153.4261  144.4739  158.5302 H   0  0  0  0  0  0  0  0  0  0  0  0
  151.7899  144.7992  156.7096 H   0  0  0  0  0  0  0  0  0  0  0  0
  150.4882  144.9813  157.8611 H   0  0  0  0  0  0  0  0  0  0  0  0
  1  2  1  0  0  0  0
  1 19  1  0  0  0  0
  1 20  1  0  0  0  0
  1 21  1  0  0  0  0
  2  3  1  0  0  0  0
  2  4  1  0  0  0  0
  2 22  1  0  0  0  0
  3 23  1  0  0  0  0
  3 24  1  0  0  0  0
  3 25  1  0  0  0  0
  4 18  1  0  0  0  0
  4  5  2  0  0  0  0
  5  6  1  0  0  0  0
  6  7  1  0  0  0  0
  6 17  2  0  0  0  0
  7  8  1  0  0  0  0
  7 26  1  0  0  0  0
  7 27  1  0  0  0  0
  8  9  2  0  0  0  0
  8 10  1  0  0  0  0
 10 11  1  0  0  0  0
 10 28  1  0  0  0  0
 11 16  1  0  0  0  0
 11 12  1  0  0  0  0
 11 29  1  0  0  0  0
 12 13  1  0  0  0  0
 12 30  1  0  0  0  0
 12 31  1  0  0  0  0
 13 14  1  0  0  0  0
 13 32  1  0  0  0  0
 13 33  1  0  0  0  0
 14 15  1  0  0  0  0
 14 34  1  0  0  0  0
 14 35  1  0  0  0  0
 15 16  1  0  0  0  0
 15 36  1  0  0  0  0
 15 37  1  0  0  0  0
 16 38  1  0  0  0  0
 16 39  1  0  0  0  0
 17 18  1  0  0  0  0
M  END
> <s_m_source_file>
AV-unprocessed.smi

> <i_m_source_file_index>
728

> <i_lp_mmshare_version>
43012

> <i_f3d_flags>
0

> <s_epik_input>
W0NIM11bQ0hdKFtDSDNdKWMxbmMobm8xKVtDSDJdQyg9TylbTkhdW0NIXTJbQ0gyXVtDSDJdW0NIMl1bQ0gyXVtDSDJdMg==

> <s_epik_cmdline>
J2VwaWtfcHl0aG9uJywgJy1waCcsICc3LjAnLCAnLXRuJywgJzgnLCAnLW1hJywgJzIwMCcsICctbWV0YWxfYmluZGluZycsICctaW1hZScsICc8aW5maWxlLm1hZT4nLCAnLW9tYWUnLCAnPG91dGZpbGUubWFlPic=

> <r_lp_tautomer_probability>
1

> <r_epik_Ionization_Penalty>
6.23623e-08

> <r_epik_Ionization_Penalty_Charging>
0

> <r_epik_Ionization_Penalty_Neutral>
6.23623e-08

> <r_epik_State_Penalty>
-0

> <r_epik_Charging_Adjusted_Penalty>
0

> <i_epik_Tot_Q>
0

> <i_epik_Tot_abs_Q>
0

> <r_epik_Metal_State_Penalty>
-0

> <b_epik_Metal_Only>
0

> <s_lp_Force_Field>
OPLS_2005

> <r_lp_Energy>
7.21718

> <b_lp_Chiralities_Consistent>
1

> <s_lp_Variant>
AV-unprocessed.smi:728-1

> <Gold.Version>
5.8.1

> <Gold.Id.Protein>
6NUR|6NUR_protein|mol2

> <Gold.PLP.Fitness>
40.6509

> <Gold.PLP.PLP>
-38.7480

> <Gold.PLP.part.hbond>
-1.0000

> <Gold.PLP.part.metal>
0.0000

> <Gold.PLP.part.buried>
-4.9532

> <Gold.PLP.part.nonpolar>
-34.2346

> <Gold.PLP.part.repulsive>
2.0778

> <Gold.PLP.ligand.clash>
0.0000

> <Gold.PLP.ligand.torsion>
0.6060

> <Gold.PLP.Chemscore.Hbond>
1.0000

> <Gold.PLP.Chemscore.CHOScore>
0.0000

> <Gold.PLP.Chemscore.Metal>
0.0000

> <Gold.Chemscore.Hbonds>
donor molecule, donor type, donor heavy atom, donor atom, acceptor molecule, acceptor atom, score
      L1  H    10    28       P1  8028  1.00

> <Gold.PLP.Chemscore.Internal.Correction>
0.1148

> <Gold.Rescore>
     Score         DG    S(hbond)    S(metal)    S(lipo)     H(rot)  DE(clash)    DE(int)     intcor
     13.16     -15.16       1.00        0.00      89.89       1.63       0.04       1.96       ----

> <Gold.Chemscore.Fitness>
13.1570

> <Gold.Chemscore.DG>
-15.1568

> <Gold.Chemscore.ZeroCoef>
-5.4800

> <Gold.Chemscore.Hbond>
0.9999

> <Gold.Chemscore.Metal>
0.0000

> <Gold.Chemscore.Lipo>
89.8909

> <Gold.Chemscore.Internal_Hbond>
0.0000

> <Gold.Chemscore.DEClash>
0.0412

> <Gold.Chemscore.DEInternal>
1.9586

> <Gold.Chemscore.Rot>
1.6329

> <Gold.Chemscore.Internal.Correction>
   9.000000E+99

> <Gold.Chemscore.Hbonds>
donor molecule, donor type, donor heavy atom, donor atom, acceptor molecule, acceptor atom, score
      L1  H    10    28       P1  8028  1.00

> <Gold.Chemscore.Hbond.Weighted>
-3.3397

> <Gold.Chemscore.Metal.Weighted>
-0.0000

> <Gold.Chemscore.Lipo.Weighted>
-10.5172

> <Gold.Chemscore.Internal_Hbond.Weighted>
0.0000

> <Gold.Chemscore.DEClash.Weighted>
0.0412

> <Gold.Chemscore.DEInternal.Weighted>
1.9586

> <Gold.Chemscore.Rot.Weighted>
4.1802

> <Gold.Chemscore.Internal.Correction.Weighted>
   9.000000E+99

> <Gold.Protein.RotatedTorsions>
[ 6907 6896 6895 6894 ] final -138.44 input  -60.11 | X-H torsion
[ 7974 7965 7964 7962 ] final  169.37 input  175.53 | X-H torsion
[ 8008 7997 7996 7995 ] final -137.75 input   59.86 | X-H torsion
[ 10167 10162 10161 10158 ] final   31.31 input  -65.29 | X-H torsion
[ 10718 10713 10712 10709 ] final -107.27 input   66.30 | X-H torsion
[ 10763 10752 10751 10750 ] final  -54.49 input  -60.55 | X-H torsion
[ 11005 11000 10999 10996 ] final -138.49 input  -57.11 | X-H torsion

> <Gold.Protein.ActiveResidues>
 VAL166  LYS551  ARG553  GLY616  TRP617  ASP618  TYR619  PRO620  LYS621  CYS622 
 ASP623  PHE694  ASN695  SER759  ASP760  ASP761  ALA762  ILE779  LEU786  VAL792 
 PHE793  MET794  SER795  GLU796  ALA797  LYS798  CYS799  TRP800  GLU811  SER814 

> <Gold.Protein.RotatedAtoms>
  151.0351  133.5756  159.2656 H   0  0  0  0  0  0  0  0  0  0  0  0  # atno 6907 bound_to 6896
  151.2823  135.0717  159.9184 H   0  0  0  0  0  0  0  0  0  0  0  0  # atno 6908 bound_to 6896
  152.5353  134.0063  159.7972 H   0  0  0  0  0  0  0  0  0  0  0  0  # atno 6909 bound_to 6896
  144.7357  139.9044  143.6411 H   0  0  0  0  0  0  0  0  0  0  0  0  # atno 7974 bound_to 7965
  155.4170  140.0516  157.3028 H   0  0  0  0  0  0  0  0  0  0  0  0  # atno 8008 bound_to 7997
  154.4920  140.2123  155.9488 H   0  0  0  0  0  0  0  0  0  0  0  0  # atno 8009 bound_to 7997
  156.1355  140.3164  155.8419 H   0  0  0  0  0  0  0  0  0  0  0  0  # atno 8010 bound_to 7997
  140.4600  144.0921  150.6210 H   0  0  0  0  0  0  0  0  0  0  0  0  # atno 10167 bound_to 10162
  156.0429  130.5654  150.7798 H   0  0  0  0  0  0  0  0  0  0  0  0  # atno 10718 bound_to 10713
  154.1757  135.6451  153.5021 H   0  0  0  0  0  0  0  0  0  0  0  0  # atno 10763 bound_to 10752
  153.0072  135.5394  154.6566 H   0  0  0  0  0  0  0  0  0  0  0  0  # atno 10764 bound_to 10752
  154.5917  135.2935  155.0601 H   0  0  0  0  0  0  0  0  0  0  0  0  # atno 10765 bound_to 10752
  140.8611  134.2168  157.4707 H   0  0  0  0  0  0  0  0  0  0  0  0  # atno 11005 bound_to 11000
  146.1047  139.4046  143.0325 LP  0  0  0  0  0  0  0  0  0  0  0  0  # atno 17320 bound_to 7965
  145.7528  140.9966  143.1241 LP  0  0  0  0  0  0  0  0  0  0  0  0  # atno 17321 bound_to 7965
  140.4105  143.2659  151.9838 LP  0  0  0  0  0  0  0  0  0  0  0  0  # atno 17342 bound_to 10162
  139.4805  144.5919  151.7756 LP  0  0  0  0  0  0  0  0  0  0  0  0  # atno 17343 bound_to 10162
  157.5268  131.0934  151.0007 LP  0  0  0  0  0  0  0  0  0  0  0  0  # atno 17370 bound_to 10713
  157.0323  130.5716  149.5345 LP  0  0  0  0  0  0  0  0  0  0  0  0  # atno 17371 bound_to 10713
  139.8707  134.9730  156.4792 LP  0  0  0  0  0  0  0  0  0  0  0  0  # atno 17394 bound_to 11000
  140.8682  133.8008  155.9336 LP  0  0  0  0  0  0  0  0  0  0  0  0  # atno 17395 bound_to 11000

$$$$
