AV-unprocessed.smi:2061|AV-procd|sdf|8389|dock3
  -GOLD-   2272011 73D 1   1.00000     0.00000
 Structure written by MMmdl.
 45 46  0  0  0  0  0  0  0  0  3 V2000
  147.2261  135.3474  162.2930 C   0  0  0  0  0  0  0  0  0  0  0  0
  147.7395  135.7360  160.9493 C   0  0  0  0  0  0  0  0  0  0  0  0
  148.0356  135.0198  159.8238 C   0  0  0  0  0  0  0  0  0  0  0  0
  148.4822  136.0173  158.9165 C   0  0  0  0  0  0  0  0  0  0  0  0
  148.8977  135.6684  157.6042 N   0  0  0  0  0  0  0  0  0  0  0  0
  149.3826  134.4950  157.1587 C   0  0  0  0  0  0  0  0  0  0  0  0
  149.5304  133.5438  157.9357 O   0  0  0  0  0  0  0  0  0  0  0  0
  149.6514  134.5210  155.8240 N   0  5  0  0  0  0  0  0  0  0  0  0
  148.6726  134.8310  154.7802 C   0  0  0  0  0  0  0  0  0  0  0  0
  148.5137  133.6413  153.7921 C   0  0  1  0  0  0  0  0  0  0  0  0
  148.2204  132.2834  154.4790 C   0  0  0  0  0  0  0  0  0  0  0  0
  147.5268  133.9749  152.7181 N   0  3  1  0  0  0  0  0  0  0  0  0
  147.2407  132.8420  151.8030 C   0  0  0  0  0  0  0  0  0  0  0  0
  146.3736  133.3138  150.6199 C   0  0  1  0  0  0  0  0  0  0  0  0
  145.9792  132.1569  149.6949 C   0  0  0  0  0  0  0  0  0  0  0  0
  145.1794  133.9089  151.1170 O   0  0  0  0  0  0  0  0  0  0  0  0
  145.4314  135.0483  151.9326 C   0  0  1  0  0  0  0  0  0  0  0  0
  144.0832  135.6591  152.3303 C   0  0  0  0  0  0  0  0  0  0  0  0
  146.2536  134.6103  153.1575 C   0  0  0  0  0  0  0  0  0  0  0  0
  148.4565  137.2336  159.4414 N   0  0  0  0  0  0  0  0  0  0  0  0
  147.9798  137.0595  160.7461 O   0  0  0  0  0  0  0  0  0  0  0  0
  147.2000  134.2630  162.4015 H   0  0  0  0  0  0  0  0  0  0  0  0
  146.2157  135.7274  162.4442 H   0  0  0  0  0  0  0  0  0  0  0  0
  147.8621  135.7502  163.0813 H   0  0  0  0  0  0  0  0  0  0  0  0
  147.9496  133.9535  159.6761 H   0  0  0  0  0  0  0  0  0  0  0  0
  148.8015  136.3939  156.9091 H   0  0  0  0  0  0  0  0  0  0  0  0
  147.6987  135.0674  155.2094 H   0  0  0  0  0  0  0  0  0  0  0  0
  148.9561  135.7221  154.2180 H   0  0  0  0  0  0  0  0  0  0  0  0
  149.4793  133.5357  153.2948 H   0  0  0  0  0  0  0  0  0  0  0  0
  149.0358  131.9781  155.1370 H   0  0  0  0  0  0  0  0  0  0  0  0
  148.1073  131.4896  153.7405 H   0  0  0  0  0  0  0  0  0  0  0  0
  147.3095  132.3025  155.0799 H   0  0  0  0  0  0  0  0  0  0  0  0
  148.1741  132.4267  151.4206 H   0  0  0  0  0  0  0  0  0  0  0  0
  146.7355  132.0460  152.3523 H   0  0  0  0  0  0  0  0  0  0  0  0
  146.9242  134.0526  150.0346 H   0  0  0  0  0  0  0  0  0  0  0  0
  146.8605  131.6691  149.2780 H   0  0  0  0  0  0  0  0  0  0  0  0
  145.3722  132.5141  148.8625 H   0  0  0  0  0  0  0  0  0  0  0  0
  145.4004  131.4030  150.2294 H   0  0  0  0  0  0  0  0  0  0  0  0
  145.9917  135.7877  151.3573 H   0  0  0  0  0  0  0  0  0  0  0  0
  144.2211  136.5444  152.9517 H   0  0  0  0  0  0  0  0  0  0  0  0
  143.4771  134.9475  152.8919 H   0  0  0  0  0  0  0  0  0  0  0  0
  143.5155  135.9576  151.4487 H   0  0  0  0  0  0  0  0  0  0  0  0
  145.6697  133.9070  153.7528 H   0  0  0  0  0  0  0  0  0  0  0  0
  146.4553  135.4759  153.7892 H   0  0  0  0  0  0  0  0  0  0  0  0
  147.9995  134.6612  152.1468 H   0  0  0  0  0  0  0  0  0  0  0  0
  1  2  1  0  0  0  0
  1 22  1  0  0  0  0
  1 23  1  0  0  0  0
  1 24  1  0  0  0  0
  2 21  1  0  0  0  0
  2  3  2  0  0  0  0
  3  4  1  0  0  0  0
  3 25  1  0  0  0  0
  4  5  1  0  0  0  0
  4 20  2  0  0  0  0
  5  6  1  0  0  0  0
  5 26  1  0  0  0  0
  6  7  2  0  0  0  0
  6  8  1  0  0  0  0
  8  9  1  0  0  0  0
  9 10  1  0  0  0  0
  9 27  1  0  0  0  0
  9 28  1  0  0  0  0
 10 11  1  0  0  0  0
 10 12  1  0  0  0  0
 10 29  1  0  0  0  0
 11 30  1  0  0  0  0
 11 31  1  0  0  0  0
 11 32  1  0  0  0  0
 12 19  1  0  0  0  0
 12 13  1  0  0  0  0
 12 45  1  0  0  0  0
 13 14  1  0  0  0  0
 13 33  1  0  0  0  0
 13 34  1  0  0  0  0
 14 15  1  0  0  0  0
 14 16  1  0  0  0  0
 14 35  1  0  0  0  0
 15 36  1  0  0  0  0
 15 37  1  0  0  0  0
 15 38  1  0  0  0  0
 16 17  1  0  0  0  0
 17 18  1  0  0  0  0
 17 19  1  0  0  0  0
 17 39  1  0  0  0  0
 18 40  1  0  0  0  0
 18 41  1  0  0  0  0
 18 42  1  0  0  0  0
 19 43  1  0  0  0  0
 19 44  1  0  0  0  0
 20 21  1  0  0  0  0
M  CHG  1   8  -1
M  CHG  1  12   1
M  END
> <s_m_source_file>
AV-unprocessed.smi

> <i_m_source_file_index>
2061

> <i_lp_mmshare_version>
43012

> <i_f3d_flags>
0

> <s_epik_input>
W0NIM11jMVtjSF1jKG5vMSlbTkhdQyg9TylbTkhdW0NIMl1bQ0BIXShbQ0gzXSlOMltDSDJdW0NAQEhdKFtDSDNdKU9bQ0BASF0oW0NIM10pW0NIMl0y

> <s_epik_cmdline>
J2VwaWtfcHl0aG9uJywgJy1waCcsICc3LjAnLCAnLXRuJywgJzgnLCAnLW1hJywgJzIwMCcsICctbWV0YWxfYmluZGluZycsICctaW1hZScsICc8aW5maWxlLm1hZT4nLCAnLW9tYWUnLCAnPG91dGZpbGUubWFlPic=

> <r_epik_Ionization_Penalty>
6.8073

> <r_epik_Ionization_Penalty_Charging>
6.80729

> <r_epik_Ionization_Penalty_Neutral>
5.65391e-06

> <r_epik_State_Penalty>
7.47323

> <r_epik_Charging_Adjusted_Penalty>
14.2805

> <i_epik_Tot_Q>
0

> <i_epik_Tot_abs_Q>
2

> <r_epik_Metal_State_Penalty>
3.40035

> <b_epik_Metal_Only>
1

> <s_lp_Force_Field>
OPLS_2005

> <r_lp_Energy>
16.6672

> <b_lp_Chiralities_Consistent>
1

> <s_lp_Variant>
AV-unprocessed.smi:2061-30

> <Gold.Version>
5.8.1

> <Gold.Id.Protein>
6NUR|6NUR_protein|mol2

> <Gold.PLP.Fitness>
44.3547

> <Gold.PLP.PLP>
-32.3146

> <Gold.PLP.part.hbond>
-4.2274

> <Gold.PLP.part.metal>
0.0000

> <Gold.PLP.part.buried>
-2.8182

> <Gold.PLP.part.nonpolar>
-24.9523

> <Gold.PLP.part.repulsive>
0.2225

> <Gold.PLP.ligand.clash>
0.0000

> <Gold.PLP.ligand.torsion>
0.9210

> <Gold.PLP.Chemscore.Hbond>
4.5680

> <Gold.PLP.Chemscore.CHOScore>
0.0000

> <Gold.PLP.Chemscore.Metal>
0.0000

> <Gold.Chemscore.Hbonds>
donor molecule, donor type, donor heavy atom, donor atom, acceptor molecule, acceptor atom, score
      L1  H    12    45       P1  7948  2.00
      P1  H  6896  6909       L1     7  1.00
      P1  H  6931  6943       L1    21  0.90
      P1  H  6934  6947       L1    21  0.47

> <Gold.PLP.Chemscore.Internal.Correction>
0.1781

> <Gold.Rescore>
     Score         DG    S(hbond)    S(metal)    S(lipo)     H(rot)  DE(clash)    DE(int)     intcor
     16.21     -18.31       2.66        0.00      67.62       1.56       0.01       2.08       ----

> <Gold.Chemscore.Fitness>
16.2144

> <Gold.Chemscore.DG>
-18.3063

> <Gold.Chemscore.ZeroCoef>
-5.4800

> <Gold.Chemscore.Hbond>
2.6635

> <Gold.Chemscore.Metal>
0.0000

> <Gold.Chemscore.Lipo>
67.6172

> <Gold.Chemscore.Internal_Hbond>
0.0000

> <Gold.Chemscore.DEClash>
0.0106

> <Gold.Chemscore.DEInternal>
2.0813

> <Gold.Chemscore.Rot>
1.5550

> <Gold.Chemscore.Internal.Correction>
   9.000000E+99

> <Gold.Chemscore.Hbonds>
donor molecule, donor type, donor heavy atom, donor atom, acceptor molecule, acceptor atom, score
      L1  H    12    45       P1  7948  0.34
      P1  H  6896  6909       L1     7  0.94
      P1  H  6931  6943       L1    21  0.48
      P1  H  6934  6947       L1    21  0.06

> <Gold.Chemscore.Hbond.Weighted>
-8.8960

> <Gold.Chemscore.Metal.Weighted>
-0.0000

> <Gold.Chemscore.Lipo.Weighted>
-7.9112

> <Gold.Chemscore.Internal_Hbond.Weighted>
0.0000

> <Gold.Chemscore.DEClash.Weighted>
0.0106

> <Gold.Chemscore.DEInternal.Weighted>
2.0813

> <Gold.Chemscore.Rot.Weighted>
3.9809

> <Gold.Chemscore.Internal.Correction.Weighted>
   9.000000E+99

> <Gold.Protein.RotatedTorsions>
[ 6907 6896 6895 6894 ] final  -11.55 input  -60.11 | X-H torsion
[ 7974 7965 7964 7962 ] final   71.51 input  175.53 | X-H torsion
[ 8008 7997 7996 7995 ] final  110.67 input   59.86 | X-H torsion
[ 10167 10162 10161 10158 ] final  151.15 input  -65.29 | X-H torsion
[ 10718 10713 10712 10709 ] final  -45.41 input   66.30 | X-H torsion
[ 10763 10752 10751 10750 ] final -121.20 input  -60.55 | X-H torsion
[ 11005 11000 10999 10996 ] final   17.77 input  -57.11 | X-H torsion

> <Gold.Protein.ActiveResidues>
 VAL166  LYS551  ARG553  GLY616  TRP617  ASP618  TYR619  PRO620  LYS621  CYS622 
 ASP623  PHE694  ASN695  SER759  ASP760  ASP761  ALA762  ILE779  LEU786  VAL792 
 PHE793  MET794  SER795  GLU796  ALA797  LYS798  CYS799  TRP800  GLU811  SER814 

> <Gold.Protein.RotatedAtoms>
  151.3844  135.0945  159.9506 H   0  0  0  0  0  0  0  0  0  0  0  0  # atno 6907 bound_to 6896
  152.5098  133.9040  159.7465 H   0  0  0  0  0  0  0  0  0  0  0  0  # atno 6908 bound_to 6896
  150.9480  133.6525  159.2806 H   0  0  0  0  0  0  0  0  0  0  0  0  # atno 6909 bound_to 6896
  145.7650  139.2817  143.1354 H   0  0  0  0  0  0  0  0  0  0  0  0  # atno 7974 bound_to 7965
  156.2069  140.3034  155.9647 H   0  0  0  0  0  0  0  0  0  0  0  0  # atno 8008 bound_to 7997
  155.2818  140.0438  157.3033 H   0  0  0  0  0  0  0  0  0  0  0  0  # atno 8009 bound_to 7997
  154.5646  140.2330  155.8292 H   0  0  0  0  0  0  0  0  0  0  0  0  # atno 8010 bound_to 7997
  139.4843  144.5464  151.7476 H   0  0  0  0  0  0  0  0  0  0  0  0  # atno 10167 bound_to 10162
  156.2286  130.4171  149.8903 H   0  0  0  0  0  0  0  0  0  0  0  0  # atno 10718 bound_to 10713
  154.8663  135.4176  154.2583 H   0  0  0  0  0  0  0  0  0  0  0  0  # atno 10763 bound_to 10752
  153.3516  135.6999  153.6790 H   0  0  0  0  0  0  0  0  0  0  0  0  # atno 10764 bound_to 10752
  153.5727  135.3588  155.2817 H   0  0  0  0  0  0  0  0  0  0  0  0  # atno 10765 bound_to 10752
  140.4323  134.1407  155.7682 H   0  0  0  0  0  0  0  0  0  0  0  0  # atno 11005 bound_to 11000
  146.0227  140.8333  142.9915 LP  0  0  0  0  0  0  0  0  0  0  0  0  # atno 17320 bound_to 7965
  144.6823  140.2652  143.7313 LP  0  0  0  0  0  0  0  0  0  0  0  0  # atno 17321 bound_to 7965
  140.5012  144.1166  150.5971 LP  0  0  0  0  0  0  0  0  0  0  0  0  # atno 17342 bound_to 10162
  140.4060  143.2680  151.9890 LP  0  0  0  0  0  0  0  0  0  0  0  0  # atno 17343 bound_to 10162
  156.6525  130.8749  151.3533 LP  0  0  0  0  0  0  0  0  0  0  0  0  # atno 17370 bound_to 10713
  157.7122  130.9454  150.1129 LP  0  0  0  0  0  0  0  0  0  0  0  0  # atno 17371 bound_to 10713
  141.1740  133.8551  157.1480 LP  0  0  0  0  0  0  0  0  0  0  0  0  # atno 17394 bound_to 11000
  140.0126  134.9981  157.0426 LP  0  0  0  0  0  0  0  0  0  0  0  0  # atno 17395 bound_to 11000

$$$$
