AV-unprocessed.smi:1389|AV-procd|sdf|5648|dock7
  -GOLD-   22720 5263D 1   1.00000     0.00000
 Structure written by MMmdl.
 52 54  0  0  0  0  0  0  0  0  2 V2000
  149.5117  131.2934  154.1187 C   0  0  0  0  0  0  0  0  0  0  0  0
  148.8202  132.4997  153.4379 C   0  0  2  0  0  0  0  0  0  0  0  0
  148.2081  133.4381  154.5107 C   0  0  0  0  0  0  0  0  0  0  0  0
  148.5222  134.8452  154.2830 N   0  0  0  0  0  0  0  0  0  0  0  0
  149.4996  135.5211  154.9025 C   0  0  0  0  0  0  0  0  0  0  0  0
  150.2486  135.0147  155.7376 O   0  0  0  0  0  0  0  0  0  0  0  0
  149.5479  136.7958  154.4814 N   0  0  0  0  0  0  0  0  0  0  0  0
  150.4923  137.8062  154.8199 C   0  0  0  0  0  0  0  0  0  0  0  0
  151.7810  137.4895  155.3161 C   0  0  0  0  0  0  0  0  0  0  0  0
  152.6488  138.5279  155.6956 C   0  0  0  0  0  0  0  0  0  0  0  0
  152.1922  139.8511  155.5813 C   0  0  0  0  0  0  0  0  0  0  0  0
  150.9644  140.1692  155.1255 N   0  0  0  0  0  0  0  0  0  0  0  0
  150.1208  139.1795  154.7419 C   0  0  0  0  0  0  0  0  0  0  0  0
  148.8518  139.5736  154.2588 N   0  0  0  0  0  0  0  0  0  0  0  0
  147.6333  139.0774  154.8890 C   0  0  0  0  0  0  0  0  0  0  0  0
  146.5238  139.9866  154.3694 C   0  0  0  0  0  0  0  0  0  0  0  0
  147.2270  141.3374  154.2759 C   0  0  0  0  0  0  0  0  0  0  0  0
  148.6646  140.9736  153.8886 C   0  0  0  0  0  0  0  0  0  0  0  0
  147.7722  132.1060  152.4400 N   0  3  0  0  0  0  0  0  0  0  0  0
  146.7989  131.1258  152.9939 C   0  0  0  0  0  0  0  0  0  0  0  0
  145.8031  130.6665  151.9167 C   0  0  0  0  0  0  0  0  0  0  0  0
  145.1201  131.7959  151.3927 O   0  0  0  0  0  0  0  0  0  0  0  0
  146.0164  132.7036  150.7691 C   0  0  0  0  0  0  0  0  0  0  0  0
  147.0335  133.2283  151.7979 C   0  0  0  0  0  0  0  0  0  0  0  0
  150.2511  131.6132  154.8527 H   0  0  0  0  0  0  0  0  0  0  0  0
  150.0570  130.6768  153.4040 H   0  0  0  0  0  0  0  0  0  0  0  0
  148.7907  130.6607  154.6376 H   0  0  0  0  0  0  0  0  0  0  0  0
  149.5990  133.0417  152.8983 H   0  0  0  0  0  0  0  0  0  0  0  0
  147.1250  133.3377  154.5726 H   0  0  0  0  0  0  0  0  0  0  0  0
  148.5897  133.1673  155.4958 H   0  0  0  0  0  0  0  0  0  0  0  0
  147.9561  135.3376  153.6072 H   0  0  0  0  0  0  0  0  0  0  0  0
  148.9083  137.0412  153.7396 H   0  0  0  0  0  0  0  0  0  0  0  0
  152.1117  136.4694  155.4350 H   0  0  0  0  0  0  0  0  0  0  0  0
  153.6362  138.3136  156.0772 H   0  0  0  0  0  0  0  0  0  0  0  0
  152.8265  140.6766  155.8689 H   0  0  0  0  0  0  0  0  0  0  0  0
  147.4527  138.0318  154.6378 H   0  0  0  0  0  0  0  0  0  0  0  0
  147.6947  139.1647  155.9745 H   0  0  0  0  0  0  0  0  0  0  0  0
  146.2072  139.6614  153.3773 H   0  0  0  0  0  0  0  0  0  0  0  0
  145.6482  140.0025  155.0191 H   0  0  0  0  0  0  0  0  0  0  0  0
  146.7553  142.0149  153.5637 H   0  0  0  0  0  0  0  0  0  0  0  0
  147.2212  141.8207  155.2539 H   0  0  0  0  0  0  0  0  0  0  0  0
  149.3869  141.6288  154.3783 H   0  0  0  0  0  0  0  0  0  0  0  0
  148.7936  141.0726  152.8106 H   0  0  0  0  0  0  0  0  0  0  0  0
  147.3049  130.2494  153.3944 H   0  0  0  0  0  0  0  0  0  0  0  0
  146.2566  131.5811  153.8244 H   0  0  0  0  0  0  0  0  0  0  0  0
  146.3121  130.1249  151.1174 H   0  0  0  0  0  0  0  0  0  0  0  0
  145.0720  129.9828  152.3484 H   0  0  0  0  0  0  0  0  0  0  0  0
  146.5230  132.2165  149.9342 H   0  0  0  0  0  0  0  0  0  0  0  0
  145.4443  133.5325  150.3518 H   0  0  0  0  0  0  0  0  0  0  0  0
  146.5245  133.8182  152.5618 H   0  0  0  0  0  0  0  0  0  0  0  0
  147.7172  133.8925  151.2700 H   0  0  0  0  0  0  0  0  0  0  0  0
  148.2619  131.6402  151.6895 H   0  0  0  0  0  0  0  0  0  0  0  0
  1  2  1  0  0  0  0
  1 25  1  0  0  0  0
  1 26  1  0  0  0  0
  1 27  1  0  0  0  0
  2  3  1  0  0  0  0
  2 19  1  0  0  0  0
  2 28  1  0  0  0  0
  3  4  1  0  0  0  0
  3 29  1  0  0  0  0
  3 30  1  0  0  0  0
  4  5  1  0  0  0  0
  4 31  1  0  0  0  0
  5  6  2  0  0  0  0
  5  7  1  0  0  0  0
  7  8  1  0  0  0  0
  7 32  1  0  0  0  0
  8 13  1  0  0  0  0
  8  9  2  0  0  0  0
  9 10  1  0  0  0  0
  9 33  1  0  0  0  0
 10 11  2  0  0  0  0
 10 34  1  0  0  0  0
 11 12  1  0  0  0  0
 11 35  1  0  0  0  0
 12 13  2  0  0  0  0
 13 14  1  0  0  0  0
 14 18  1  0  0  0  0
 14 15  1  0  0  0  0
 15 16  1  0  0  0  0
 15 36  1  0  0  0  0
 15 37  1  0  0  0  0
 16 17  1  0  0  0  0
 16 38  1  0  0  0  0
 16 39  1  0  0  0  0
 17 18  1  0  0  0  0
 17 40  1  0  0  0  0
 17 41  1  0  0  0  0
 18 42  1  0  0  0  0
 18 43  1  0  0  0  0
 19 24  1  0  0  0  0
 19 20  1  0  0  0  0
 19 52  1  0  0  0  0
 20 21  1  0  0  0  0
 20 44  1  0  0  0  0
 20 45  1  0  0  0  0
 21 22  1  0  0  0  0
 21 46  1  0  0  0  0
 21 47  1  0  0  0  0
 22 23  1  0  0  0  0
 23 24  1  0  0  0  0
 23 48  1  0  0  0  0
 23 49  1  0  0  0  0
 24 50  1  0  0  0  0
 24 51  1  0  0  0  0
M  CHG  1  19   1
M  END
> <s_m_source_file>
AV-unprocessed.smi

> <i_m_source_file_index>
1389

> <i_lp_mmshare_version>
43012

> <i_f3d_flags>
0

> <s_epik_input>
W0NIMl0xW0NIMl1PW0NIMl1bQ0gyXU4xW0NASF0oW0NIM10pW0NIMl1bTkhdQyg9TylbTkhdYzJbY0hdW2NIXVtjSF1uYzJOM1tDSDJdW0NIMl1bQ0gyXVtDSDJdMw==

> <s_epik_cmdline>
J2VwaWtfcHl0aG9uJywgJy1waCcsICc3LjAnLCAnLXRuJywgJzgnLCAnLW1hJywgJzIwMCcsICctbWV0YWxfYmluZGluZycsICctaW1hZScsICc8aW5maWxlLm1hZT4nLCAnLW9tYWUnLCAnPG91dGZpbGUubWFlPic=

> <r_lp_tautomer_probability>
1

> <r_epik_Ionization_Penalty>
0.686

> <r_epik_Ionization_Penalty_Charging>
0.602531

> <r_epik_Ionization_Penalty_Neutral>
0.08347

> <r_epik_State_Penalty>
0.679975

> <r_epik_Charging_Adjusted_Penalty>
1.28251

> <i_epik_Tot_Q>
1

> <i_epik_Tot_abs_Q>
1

> <r_epik_Metal_State_Penalty>
0.679055

> <b_epik_Metal_Only>
0

> <s_lp_Force_Field>
OPLS_2005

> <r_lp_Energy>
48.7477

> <b_lp_Chiralities_Consistent>
1

> <s_lp_Variant>
AV-unprocessed.smi:1389-3

> <Gold.Version>
5.8.1

> <Gold.Id.Protein>
6NUR|6NUR_protein|mol2

> <Gold.PLP.Fitness>
46.3868

> <Gold.PLP.PLP>
-40.4461

> <Gold.PLP.part.hbond>
-4.0000

> <Gold.PLP.part.metal>
0.0000

> <Gold.PLP.part.buried>
-2.7088

> <Gold.PLP.part.nonpolar>
-33.6840

> <Gold.PLP.part.repulsive>
0.3859

> <Gold.PLP.ligand.clash>
0.0000

> <Gold.PLP.ligand.torsion>
1.1749

> <Gold.PLP.Chemscore.Hbond>
2.6392

> <Gold.PLP.Chemscore.CHOScore>
0.0000

> <Gold.PLP.Chemscore.Metal>
0.0000

> <Gold.Chemscore.Hbonds>
donor molecule, donor type, donor heavy atom, donor atom, acceptor molecule, acceptor atom, score
      L1  H     4    31       P1  7948  0.22
      L1  H     7    32       P1  7948  0.46
      L1  H    19    52       P1 10747  1.00
      P1  H  7989  7998       L1    12  0.65

> <Gold.PLP.Chemscore.Internal.Correction>
0.3730

> <Gold.Rescore>
     Score         DG    S(hbond)    S(metal)    S(lipo)     H(rot)  DE(clash)    DE(int)     intcor
     15.81     -19.36       2.07        0.00      95.31       1.63       0.18       3.38       ----

> <Gold.Chemscore.Fitness>
15.8081

> <Gold.Chemscore.DG>
-19.3645

> <Gold.Chemscore.ZeroCoef>
-5.4800

> <Gold.Chemscore.Hbond>
2.0681

> <Gold.Chemscore.Metal>
0.0000

> <Gold.Chemscore.Lipo>
95.3118

> <Gold.Chemscore.Internal_Hbond>
0.0000

> <Gold.Chemscore.DEClash>
0.1765

> <Gold.Chemscore.DEInternal>
3.3799

> <Gold.Chemscore.Rot>
1.6307

> <Gold.Chemscore.Internal.Correction>
   9.000000E+99

> <Gold.Chemscore.Hbonds>
donor molecule, donor type, donor heavy atom, donor atom, acceptor molecule, acceptor atom, score
      L1  H     4    31       P1  7948  0.22
      L1  H     7    32       P1  7948  0.44
      L1  H    19    52       P1 10747  1.00
      P1  H  7989  7998       L1    12  0.03

> <Gold.Chemscore.Hbond.Weighted>
-6.9076

> <Gold.Chemscore.Metal.Weighted>
-0.0000

> <Gold.Chemscore.Lipo.Weighted>
-11.1515

> <Gold.Chemscore.Internal_Hbond.Weighted>
0.0000

> <Gold.Chemscore.DEClash.Weighted>
0.1765

> <Gold.Chemscore.DEInternal.Weighted>
3.3799

> <Gold.Chemscore.Rot.Weighted>
4.1746

> <Gold.Chemscore.Internal.Correction.Weighted>
   9.000000E+99

> <Gold.Protein.RotatedTorsions>
[ 6907 6896 6895 6894 ] final  179.28 input  -60.11 | X-H torsion
[ 7974 7965 7964 7962 ] final  149.54 input  175.53 | X-H torsion
[ 8008 7997 7996 7995 ] final -155.25 input   59.86 | X-H torsion
[ 10167 10162 10161 10158 ] final   37.37 input  -65.29 | X-H torsion
[ 10718 10713 10712 10709 ] final -160.91 input   66.30 | X-H torsion
[ 10763 10752 10751 10750 ] final   32.91 input  -60.55 | X-H torsion
[ 11005 11000 10999 10996 ] final  -72.21 input  -57.11 | X-H torsion

> <Gold.Protein.ActiveResidues>
 VAL166  LYS551  ARG553  GLY616  TRP617  ASP618  TYR619  PRO620  LYS621  CYS622 
 ASP623  PHE694  ASN695  SER759  ASP760  ASP761  ALA762  ILE779  LEU786  VAL792 
 PHE793  MET794  SER795  GLU796  ALA797  LYS798  CYS799  TRP800  GLU811  SER814 

> <Gold.Protein.RotatedAtoms>
  151.6741  133.3313  159.3203 H   0  0  0  0  0  0  0  0  0  0  0  0  # atno 6907 bound_to 6896
  150.7853  134.6837  159.6467 H   0  0  0  0  0  0  0  0  0  0  0  0  # atno 6908 bound_to 6896
  152.3922  134.6427  160.0155 H   0  0  0  0  0  0  0  0  0  0  0  0  # atno 6909 bound_to 6896
  144.8430  139.6294  143.6008 H   0  0  0  0  0  0  0  0  0  0  0  0  # atno 7974 bound_to 7965
  155.6989  140.0764  157.2418 H   0  0  0  0  0  0  0  0  0  0  0  0  # atno 8008 bound_to 7997
  154.4076  140.1651  156.2222 H   0  0  0  0  0  0  0  0  0  0  0  0  # atno 8009 bound_to 7997
  155.9385  140.3386  155.6311 H   0  0  0  0  0  0  0  0  0  0  0  0  # atno 8010 bound_to 7997
  140.4039  144.1686  150.6135 H   0  0  0  0  0  0  0  0  0  0  0  0  # atno 10167 bound_to 10162
  156.5888  130.8761  151.2884 H   0  0  0  0  0  0  0  0  0  0  0  0  # atno 10718 bound_to 10713
  153.0238  135.6401  154.1429 H   0  0  0  0  0  0  0  0  0  0  0  0  # atno 10763 bound_to 10752
  154.1161  135.2850  155.3221 H   0  0  0  0  0  0  0  0  0  0  0  0  # atno 10764 bound_to 10752
  154.6297  135.5497  153.7729 H   0  0  0  0  0  0  0  0  0  0  0  0  # atno 10765 bound_to 10752
  141.1605  133.6840  156.7024 H   0  0  0  0  0  0  0  0  0  0  0  0  # atno 11005 bound_to 11000
  146.2720  139.6658  142.9289 LP  0  0  0  0  0  0  0  0  0  0  0  0  # atno 17320 bound_to 7965
  145.4654  141.0434  143.2728 LP  0  0  0  0  0  0  0  0  0  0  0  0  # atno 17321 bound_to 7965
  140.4711  143.2413  151.9088 LP  0  0  0  0  0  0  0  0  0  0  0  0  # atno 17342 bound_to 10162
  139.4784  144.5369  151.8585 LP  0  0  0  0  0  0  0  0  0  0  0  0  # atno 17343 bound_to 10162
  157.7309  130.9692  150.1853 LP  0  0  0  0  0  0  0  0  0  0  0  0  # atno 17370 bound_to 10713
  156.2568  130.3706  149.8173 LP  0  0  0  0  0  0  0  0  0  0  0  0  # atno 17371 bound_to 10713
  140.2949  134.8211  157.4048 LP  0  0  0  0  0  0  0  0  0  0  0  0  # atno 17394 bound_to 11000
  140.1314  134.5090  155.8103 LP  0  0  0  0  0  0  0  0  0  0  0  0  # atno 17395 bound_to 11000

$$$$
