AV-unprocessed.smi:867|AV-procd|sdf|3994|dock4
  -GOLD-   22720 1473D 1   1.00000     0.00000
 Structure written by MMmdl.
 53 56  0  0  0  0  0  0  0  0  2 V2000
  149.1108  138.2414  156.3643 O   0  0  0  0  0  0  0  0  0  0  0  0
  148.4944  139.0854  157.0157 C   0  0  0  0  0  0  0  0  0  0  0  0
  147.6569  138.7546  158.0144 N   0  0  0  0  0  0  0  0  0  0  0  0
  147.3510  137.3965  158.4583 C   0  0  0  0  0  0  0  0  0  0  0  0
  148.4549  136.8188  159.3642 C   0  0  0  0  0  0  0  0  0  0  0  0
  147.9350  135.8546  160.4160 C   0  0  0  0  0  0  0  0  0  0  0  0
  147.8003  136.2515  161.7625 C   0  0  0  0  0  0  0  0  0  0  0  0
  147.2895  135.3279  162.6942 C   0  0  0  0  0  0  0  0  0  0  0  0
  146.9384  134.0414  162.2389 C   0  0  0  0  0  0  0  0  0  0  0  0
  147.0662  133.6491  160.9531 N   0  0  0  0  0  0  0  0  0  0  0  0
  147.5553  134.5414  160.0657 C   0  0  0  0  0  0  0  0  0  0  0  0
  148.5317  140.4101  156.7301 N   0  0  0  0  0  0  0  0  0  0  0  0
  148.1698  141.4985  157.6473 C   0  0  0  0  0  0  0  0  0  0  0  0
  149.4579  142.1719  158.1556 C   0  0  0  0  0  0  0  0  0  0  0  0
  150.3106  142.6560  157.0315 N   0  3  0  0  0  0  0  0  0  0  0  0
  151.5608  143.3176  157.5046 C   0  0  2  0  0  0  0  0  0  0  0  0
  152.2345  142.6212  158.7127 C   0  0  0  0  0  0  0  0  0  0  0  0
  152.4787  143.7821  159.6957 C   0  0  2  0  0  0  0  0  0  0  0  0
  151.1420  144.1645  160.3532 C   0  0  0  0  0  0  0  0  0  0  0  0
  150.3797  144.8323  159.1950 C   0  0  0  0  0  0  0  0  0  0  0  0
  151.3905  144.7658  158.0290 C   0  0  1  0  0  0  0  0  0  0  0  0
  152.7129  144.9639  158.7624 C   0  0  0  0  0  0  0  0  0  0  0  0
  150.5555  141.5915  156.0163 C   0  0  0  0  0  0  0  0  0  0  0  0
  149.2422  140.9311  155.5606 C   0  0  0  0  0  0  0  0  0  0  0  0
  147.1648  139.5020  158.4814 H   0  0  0  0  0  0  0  0  0  0  0  0
  146.3891  137.3651  158.9726 H   0  0  0  0  0  0  0  0  0  0  0  0
  147.2406  136.7682  157.5744 H   0  0  0  0  0  0  0  0  0  0  0  0
  149.1956  136.3017  158.7535 H   0  0  0  0  0  0  0  0  0  0  0  0
  148.9862  137.6330  159.8587 H   0  0  0  0  0  0  0  0  0  0  0  0
  148.0738  137.2480  162.0762 H   0  0  0  0  0  0  0  0  0  0  0  0
  147.1690  135.5986  163.7325 H   0  0  0  0  0  0  0  0  0  0  0  0
  146.5439  133.3078  162.9261 H   0  0  0  0  0  0  0  0  0  0  0  0
  147.6382  134.2007  159.0442 H   0  0  0  0  0  0  0  0  0  0  0  0
  147.5539  142.2242  157.1139 H   0  0  0  0  0  0  0  0  0  0  0  0
  147.5694  141.1763  158.4981 H   0  0  0  0  0  0  0  0  0  0  0  0
  149.1866  142.9955  158.8151 H   0  0  0  0  0  0  0  0  0  0  0  0
  150.0278  141.4632  158.7590 H   0  0  0  0  0  0  0  0  0  0  0  0
  152.2645  143.3378  156.6700 H   0  0  0  0  0  0  0  0  0  0  0  0
  151.6167  141.8488  159.1718 H   0  0  0  0  0  0  0  0  0  0  0  0
  153.1744  142.1580  158.4098 H   0  0  0  0  0  0  0  0  0  0  0  0
  153.2786  143.5912  160.4119 H   0  0  0  0  0  0  0  0  0  0  0  0
  150.6132  143.3014  160.7600 H   0  0  0  0  0  0  0  0  0  0  0  0
  151.2993  144.8732  161.1675 H   0  0  0  0  0  0  0  0  0  0  0  0
  149.4386  144.3291  158.9734 H   0  0  0  0  0  0  0  0  0  0  0  0
  150.1470  145.8687  159.4428 H   0  0  0  0  0  0  0  0  0  0  0  0
  151.2066  145.5014  157.2453 H   0  0  0  0  0  0  0  0  0  0  0  0
  152.7806  145.9203  159.2844 H   0  0  0  0  0  0  0  0  0  0  0  0
  153.5892  144.8435  158.1227 H   0  0  0  0  0  0  0  0  0  0  0  0
  151.0545  142.0058  155.1410 H   0  0  0  0  0  0  0  0  0  0  0  0
  151.2235  140.8376  156.4361 H   0  0  0  0  0  0  0  0  0  0  0  0
  149.4477  140.1592  154.8172 H   0  0  0  0  0  0  0  0  0  0  0  0
  148.6111  141.6635  155.0551 H   0  0  0  0  0  0  0  0  0  0  0  0
  149.7748  143.3695  156.5585 H   0  0  0  0  0  0  0  0  0  0  0  0
  1  2  2  0  0  0  0
  2  3  1  0  0  0  0
  2 12  1  0  0  0  0
  3  4  1  0  0  0  0
  3 25  1  0  0  0  0
  4  5  1  0  0  0  0
  4 26  1  0  0  0  0
  4 27  1  0  0  0  0
  5  6  1  0  0  0  0
  5 28  1  0  0  0  0
  5 29  1  0  0  0  0
  6 11  1  0  0  0  0
  6  7  2  0  0  0  0
  7  8  1  0  0  0  0
  7 30  1  0  0  0  0
  8  9  2  0  0  0  0
  8 31  1  0  0  0  0
  9 10  1  0  0  0  0
  9 32  1  0  0  0  0
 10 11  2  0  0  0  0
 11 33  1  0  0  0  0
 12 24  1  0  0  0  0
 12 13  1  0  0  0  0
 13 14  1  0  0  0  0
 13 34  1  0  0  0  0
 13 35  1  0  0  0  0
 14 15  1  0  0  0  0
 14 36  1  0  0  0  0
 14 37  1  0  0  0  0
 15 16  1  0  0  0  0
 15 23  1  0  0  0  0
 15 53  1  0  0  0  0
 16 21  1  0  0  0  0
 16 17  1  0  0  0  0
 16 38  1  0  0  0  0
 17 18  1  0  0  0  0
 17 39  1  0  0  0  0
 17 40  1  0  0  0  0
 18 22  1  0  0  0  0
 18 19  1  0  0  0  0
 18 41  1  0  0  0  0
 19 20  1  0  0  0  0
 19 42  1  0  0  0  0
 19 43  1  0  0  0  0
 20 21  1  0  0  0  0
 20 44  1  0  0  0  0
 20 45  1  0  0  0  0
 21 22  1  0  0  0  0
 21 46  1  0  0  0  0
 22 47  1  0  0  0  0
 22 48  1  0  0  0  0
 23 24  1  0  0  0  0
 23 49  1  0  0  0  0
 23 50  1  0  0  0  0
 24 51  1  0  0  0  0
 24 52  1  0  0  0  0
M  CHG  1  15   1
M  END
> <s_m_source_file>
AV-unprocessed.smi

> <i_m_source_file_index>
867

> <i_lp_mmshare_version>
43012

> <i_f3d_flags>
0

> <s_epik_input>
W0NIMl0xW0NIMl1bQ0BASF0oW0NIMl0yKVtDQEBIXShbQ0gyXVtDQEhdMTIpTihbQ0gyXVtDSDJdMylbQ0gyXVtDSDJdTjNDKD1PKVtOSF1bQ0gyXVtDSDJdYzRbY0hdW2NIXVtjSF1uW2NIXTQ=

> <s_epik_cmdline>
J2VwaWtfcHl0aG9uJywgJy1waCcsICc3LjAnLCAnLXRuJywgJzgnLCAnLW1hJywgJzIwMCcsICctbWV0YWxfYmluZGluZycsICctaW1hZScsICc8aW5maWxlLm1hZT4nLCAnLW9tYWUnLCAnPG91dGZpbGUubWFlPic=

> <r_epik_Ionization_Penalty>
0.0161279

> <r_epik_Ionization_Penalty_Charging>
0.00262064

> <r_epik_Ionization_Penalty_Neutral>
0.0135072

> <r_epik_State_Penalty>
0.0104914

> <r_epik_Charging_Adjusted_Penalty>
0.013112

> <i_epik_Tot_Q>
1

> <i_epik_Tot_abs_Q>
1

> <r_epik_Metal_State_Penalty>
0.0102536

> <b_epik_Metal_Only>
0

> <s_lp_Force_Field>
OPLS_2005

> <r_lp_Energy>
96.6143

> <b_lp_Chiralities_Consistent>
1

> <s_lp_Variant>
AV-unprocessed.smi:867-1

> <Gold.Version>
5.8.1

> <Gold.Id.Protein>
6NUR|6NUR_protein|mol2

> <Gold.PLP.Fitness>
52.2754

> <Gold.PLP.PLP>
-48.4474

> <Gold.PLP.part.hbond>
-1.0000

> <Gold.PLP.part.metal>
0.0000

> <Gold.PLP.part.buried>
-7.7093

> <Gold.PLP.part.nonpolar>
-39.5940

> <Gold.PLP.part.repulsive>
0.1588

> <Gold.PLP.ligand.clash>
0.0000

> <Gold.PLP.ligand.torsion>
1.1478

> <Gold.PLP.Chemscore.Hbond>
2.0000

> <Gold.PLP.Chemscore.CHOScore>
0.0000

> <Gold.PLP.Chemscore.Metal>
0.0000

> <Gold.Chemscore.Hbonds>
donor molecule, donor type, donor heavy atom, donor atom, acceptor molecule, acceptor atom, score
      L1  H    15    53       P1  8028  2.00

> <Gold.PLP.Chemscore.Internal.Correction>
0.1235

> <Gold.Rescore>
     Score         DG    S(hbond)    S(metal)    S(lipo)     H(rot)  DE(clash)    DE(int)     intcor
     20.11     -22.65       1.00        0.00     148.23       1.37       0.40       2.15       ----

> <Gold.Chemscore.Fitness>
20.1055

> <Gold.Chemscore.DG>
-22.6473

> <Gold.Chemscore.ZeroCoef>
-5.4800

> <Gold.Chemscore.Hbond>
1.0000

> <Gold.Chemscore.Metal>
0.0000

> <Gold.Chemscore.Lipo>
148.2264

> <Gold.Chemscore.Internal_Hbond>
0.0000

> <Gold.Chemscore.DEClash>
0.3952

> <Gold.Chemscore.DEInternal>
2.1467

> <Gold.Chemscore.Rot>
1.3731

> <Gold.Chemscore.Internal.Correction>
   9.000000E+99

> <Gold.Chemscore.Hbonds>
donor molecule, donor type, donor heavy atom, donor atom, acceptor molecule, acceptor atom, score
      L1  H    15    53       P1  8028  1.00

> <Gold.Chemscore.Hbond.Weighted>
-3.3400

> <Gold.Chemscore.Metal.Weighted>
-0.0000

> <Gold.Chemscore.Lipo.Weighted>
-17.3425

> <Gold.Chemscore.Internal_Hbond.Weighted>
0.0000

> <Gold.Chemscore.DEClash.Weighted>
0.3952

> <Gold.Chemscore.DEInternal.Weighted>
2.1467

> <Gold.Chemscore.Rot.Weighted>
3.5152

> <Gold.Chemscore.Internal.Correction.Weighted>
   9.000000E+99

> <Gold.Protein.RotatedTorsions>
[ 6907 6896 6895 6894 ] final  126.96 input  -60.11 | X-H torsion
[ 7974 7965 7964 7962 ] final  -98.56 input  175.53 | X-H torsion
[ 8008 7997 7996 7995 ] final  -75.98 input   59.86 | X-H torsion
[ 10167 10162 10161 10158 ] final   67.77 input  -65.29 | X-H torsion
[ 10718 10713 10712 10709 ] final  -95.36 input   66.30 | X-H torsion
[ 10763 10752 10751 10750 ] final   38.36 input  -60.55 | X-H torsion
[ 11005 11000 10999 10996 ] final -126.12 input  -57.11 | X-H torsion

> <Gold.Protein.ActiveResidues>
 VAL166  LYS551  ARG553  GLY616  TRP617  ASP618  TYR619  PRO620  LYS621  CYS622 
 ASP623  PHE694  ASN695  SER759  ASP760  ASP761  ALA762  ILE779  LEU786  VAL792 
 PHE793  MET794  SER795  GLU796  ALA797  LYS798  CYS799  TRP800  GLU811  SER814 

> <Gold.Protein.RotatedAtoms>
  152.3856  133.6606  159.6195 H   0  0  0  0  0  0  0  0  0  0  0  0  # atno 6907 bound_to 6896
  150.7776  133.9041  159.3359 H   0  0  0  0  0  0  0  0  0  0  0  0  # atno 6908 bound_to 6896
  151.6838  135.0959  160.0272 H   0  0  0  0  0  0  0  0  0  0  0  0  # atno 6909 bound_to 6896
  145.3190  140.9417  143.2726 H   0  0  0  0  0  0  0  0  0  0  0  0  # atno 7974 bound_to 7965
  154.5464  140.0735  156.8596 H   0  0  0  0  0  0  0  0  0  0  0  0  # atno 8008 bound_to 7997
  155.3079  140.3388  155.4227 H   0  0  0  0  0  0  0  0  0  0  0  0  # atno 8009 bound_to 7997
  156.1922  140.1690  156.8056 H   0  0  0  0  0  0  0  0  0  0  0  0  # atno 8010 bound_to 7997
  140.0860  144.5030  150.7130 H   0  0  0  0  0  0  0  0  0  0  0  0  # atno 10167 bound_to 10162
  156.0042  130.5106  150.6065 H   0  0  0  0  0  0  0  0  0  0  0  0  # atno 10718 bound_to 10713
  153.0004  135.6251  154.2292 H   0  0  0  0  0  0  0  0  0  0  0  0  # atno 10763 bound_to 10752
  154.2035  135.2803  155.2984 H   0  0  0  0  0  0  0  0  0  0  0  0  # atno 10764 bound_to 10752
  154.5665  135.5689  153.7114 H   0  0  0  0  0  0  0  0  0  0  0  0  # atno 10765 bound_to 10752
  140.9707  134.0809  157.3872 H   0  0  0  0  0  0  0  0  0  0  0  0  # atno 11005 bound_to 11000
  144.8954  139.4719  143.6658 LP  0  0  0  0  0  0  0  0  0  0  0  0  # atno 17320 bound_to 7965
  146.3089  139.7677  142.9035 LP  0  0  0  0  0  0  0  0  0  0  0  0  # atno 17321 bound_to 7965
  140.7053  143.2464  151.4743 LP  0  0  0  0  0  0  0  0  0  0  0  0  # atno 17342 bound_to 10162
  139.5752  144.1835  152.1893 LP  0  0  0  0  0  0  0  0  0  0  0  0  # atno 17343 bound_to 10162
  157.3905  131.0795  151.1398 LP  0  0  0  0  0  0  0  0  0  0  0  0  # atno 17370 bound_to 10713
  157.2092  130.6430  149.5767 LP  0  0  0  0  0  0  0  0  0  0  0  0  # atno 17371 bound_to 10713
  139.8911  135.0116  156.6773 LP  0  0  0  0  0  0  0  0  0  0  0  0  # atno 17394 bound_to 11000
  140.7333  133.9040  155.8226 LP  0  0  0  0  0  0  0  0  0  0  0  0  # atno 17395 bound_to 11000

$$$$
