AV-unprocessed.smi:1757|AV-procd|sdf|7077|dock3
  -GOLD-   22720 8293D 1   1.00000     0.00000
 Structure written by MMmdl.
 39 40  0  0  0  0  0  0  0  0  3 V2000
  143.3013  132.7535  148.4195 C   0  0  0  0  0  0  0  0  0  0  0  0
  144.4320  133.1820  149.2704 N   0  3  2  0  0  0  0  0  0  0  0  0
  144.9195  132.0925  150.1526 C   0  0  0  0  0  0  0  0  0  0  0  0
  146.1732  132.5292  150.9291 C   0  0  0  0  0  0  0  0  0  0  0  0
  145.9090  133.8116  151.7356 C   0  0  1  0  0  0  0  0  0  0  0  0
  147.1438  134.2646  152.3709 N   0  0  0  0  0  0  0  0  0  0  0  0
  147.7906  133.6418  153.3671 C   0  0  0  0  0  0  0  0  0  0  0  0
  147.4036  132.5877  153.8711 O   0  0  0  0  0  0  0  0  0  0  0  0
  148.8831  134.3367  153.7321 N   0  0  0  0  0  0  0  0  0  0  0  0
  149.8501  134.0291  154.7041 C   0  0  0  0  0  0  0  0  0  0  0  0
  150.1644  132.7690  155.1141 C   0  0  0  0  0  0  0  0  0  0  0  0
  151.1902  132.5104  156.1170 C   0  0  0  0  0  0  0  0  0  0  0  0
  151.5636  131.1291  156.6230 C   0  0  0  0  0  0  0  0  0  0  0  0
  151.3372  131.0425  157.9333 F   0  0  0  0  0  0  0  0  0  0  0  0
  150.8261  130.2005  156.0151 F   0  0  0  0  0  0  0  0  0  0  0  0
  152.8496  130.8583  156.3994 F   0  0  0  0  0  0  0  0  0  0  0  0
  151.7876  133.6698  156.5696 C   0  0  0  0  0  0  0  0  0  0  0  0
  151.5459  134.9490  156.2077 N   0  5  0  0  0  0  0  0  0  0  0  0
  150.5810  135.1807  155.2732 C   0  0  0  0  0  0  0  0  0  0  0  0
  150.3088  136.3215  154.8970 O   0  0  0  0  0  0  0  0  0  0  0  0
  145.3641  134.9090  150.8060 C   0  0  0  0  0  0  0  0  0  0  0  0
  144.1290  134.4198  150.0310 C   0  0  0  0  0  0  0  0  0  0  0  0
  142.4331  132.4907  149.0256 H   0  0  0  0  0  0  0  0  0  0  0  0
  143.5772  131.8847  147.8212 H   0  0  0  0  0  0  0  0  0  0  0  0
  143.0116  133.5505  147.7338 H   0  0  0  0  0  0  0  0  0  0  0  0
  144.1291  131.8032  150.8471 H   0  0  0  0  0  0  0  0  0  0  0  0
  145.1525  131.2124  149.5522 H   0  0  0  0  0  0  0  0  0  0  0  0
  146.4917  131.7272  151.5965 H   0  0  0  0  0  0  0  0  0  0  0  0
  146.9932  132.6925  150.2284 H   0  0  0  0  0  0  0  0  0  0  0  0
  145.1491  133.5907  152.4873 H   0  0  0  0  0  0  0  0  0  0  0  0
  147.5394  135.1278  152.0275 H   0  0  0  0  0  0  0  0  0  0  0  0
  149.0244  135.2268  153.2772 H   0  0  0  0  0  0  0  0  0  0  0  0
  149.6701  131.9123  154.6869 H   0  0  0  0  0  0  0  0  0  0  0  0
  152.5795  133.5487  157.3396 H   0  0  0  0  0  0  0  0  0  0  0  0
  145.1081  135.7969  151.3856 H   0  0  0  0  0  0  0  0  0  0  0  0
  146.1366  135.2142  150.0984 H   0  0  0  0  0  0  0  0  0  0  0  0
  143.7995  135.1998  149.3434 H   0  0  0  0  0  0  0  0  0  0  0  0
  143.3027  134.2337  150.7191 H   0  0  0  0  0  0  0  0  0  0  0  0
  145.1917  133.4071  148.6441 H   0  0  0  0  0  0  0  0  0  0  0  0
  1  2  1  0  0  0  0
  1 23  1  0  0  0  0
  1 24  1  0  0  0  0
  1 25  1  0  0  0  0
  2 22  1  0  0  0  0
  2  3  1  0  0  0  0
  2 39  1  0  0  0  0
  3  4  1  0  0  0  0
  3 26  1  0  0  0  0
  3 27  1  0  0  0  0
  4  5  1  0  0  0  0
  4 28  1  0  0  0  0
  4 29  1  0  0  0  0
  5  6  1  0  0  0  0
  5 21  1  0  0  0  0
  5 30  1  0  0  0  0
  6  7  1  0  0  0  0
  6 31  1  0  0  0  0
  7  8  2  0  0  0  0
  7  9  1  0  0  0  0
  9 10  1  0  0  0  0
  9 32  1  0  0  0  0
 10 19  1  0  0  0  0
 10 11  2  0  0  0  0
 11 12  1  0  0  0  0
 11 33  1  0  0  0  0
 12 13  1  0  0  0  0
 12 17  2  0  0  0  0
 13 14  1  0  0  0  0
 13 15  1  0  0  0  0
 13 16  1  0  0  0  0
 17 18  1  0  0  0  0
 17 34  1  0  0  0  0
 18 19  1  0  0  0  0
 19 20  2  0  0  0  0
 21 22  1  0  0  0  0
 21 35  1  0  0  0  0
 21 36  1  0  0  0  0
 22 37  1  0  0  0  0
 22 38  1  0  0  0  0
M  CHG  1   2   1
M  CHG  1  18  -1
M  END
> <s_m_source_file>
AV-unprocessed.smi

> <i_m_source_file_index>
1757

> <i_lp_mmshare_version>
43012

> <i_f3d_flags>
0

> <s_epik_input>
W0NIM11OMVtDSDJdW0NIMl1bQ0hdKFtDSDJdW0NIMl0xKVtOSF1DKD1PKVtOSF1jMltjSF1jKEMoRikoRilGKVtjSF1bbkhdYzI9Tw==

> <s_epik_cmdline>
J2VwaWtfcHl0aG9uJywgJy1waCcsICc3LjAnLCAnLXRuJywgJzgnLCAnLW1hJywgJzIwMCcsICctbWV0YWxfYmluZGluZycsICctaW1hZScsICc8aW5maWxlLm1hZT4nLCAnLW9tYWUnLCAnPG91dGZpbGUubWFlPic=

> <r_lp_tautomer_probability>
1

> <r_epik_Ionization_Penalty>
3.04759

> <r_epik_Ionization_Penalty_Charging>
0.155898

> <r_epik_Ionization_Penalty_Neutral>
2.89169

> <r_epik_State_Penalty>
2.88714

> <r_epik_Charging_Adjusted_Penalty>
3.04304

> <i_epik_Tot_Q>
0

> <i_epik_Tot_abs_Q>
2

> <r_epik_Metal_State_Penalty>
0.445786

> <b_epik_Metal_Only>
1

> <s_lp_Force_Field>
OPLS_2005

> <r_lp_Energy>
29.3736

> <b_lp_Chiralities_Consistent>
1

> <s_lp_Variant>
AV-unprocessed.smi:1757-3

> <Gold.Version>
5.8.1

> <Gold.Id.Protein>
6NUR|6NUR_protein|mol2

> <Gold.PLP.Fitness>
47.9058

> <Gold.PLP.PLP>
-33.7394

> <Gold.PLP.part.hbond>
-4.0000

> <Gold.PLP.part.metal>
0.0000

> <Gold.PLP.part.buried>
0.7412

> <Gold.PLP.part.nonpolar>
-29.3596

> <Gold.PLP.part.repulsive>
0.4140

> <Gold.PLP.ligand.clash>
0.0000

> <Gold.PLP.ligand.torsion>
0.2154

> <Gold.PLP.Chemscore.Hbond>
4.8640

> <Gold.PLP.Chemscore.CHOScore>
0.0000

> <Gold.PLP.Chemscore.Metal>
0.0000

> <Gold.Chemscore.Hbonds>
donor molecule, donor type, donor heavy atom, donor atom, acceptor molecule, acceptor atom, score
      L1  H     2    39       P1  7921  0.96
      L1  H     6    31       P1  7948  0.99
      L1  H     9    32       P1  7948  0.99
      P1  H 10752 10763       L1    18  1.90

> <Gold.PLP.Chemscore.Internal.Correction>
0.0053

> <Gold.Rescore>
     Score         DG    S(hbond)    S(metal)    S(lipo)     H(rot)  DE(clash)    DE(int)     intcor
     17.72     -19.87       2.40        0.00      76.31       1.00       1.79       0.36       ----

> <Gold.Chemscore.Fitness>
17.7219

> <Gold.Chemscore.DG>
-19.8657

> <Gold.Chemscore.ZeroCoef>
-5.4800

> <Gold.Chemscore.Hbond>
2.4003

> <Gold.Chemscore.Metal>
0.0000

> <Gold.Chemscore.Lipo>
76.3145

> <Gold.Chemscore.Internal_Hbond>
0.0000

> <Gold.Chemscore.DEClash>
1.7865

> <Gold.Chemscore.DEInternal>
0.3573

> <Gold.Chemscore.Rot>
1.0000

> <Gold.Chemscore.Internal.Correction>
   9.000000E+99

> <Gold.Chemscore.Hbonds>
donor molecule, donor type, donor heavy atom, donor atom, acceptor molecule, acceptor atom, score
      L1  H     2    39       P1  7921  0.45
      L1  H     6    31       P1  7948  0.88
      L1  H     9    32       P1  7948  0.33
      P1  H 10752 10763       L1    18  0.08

> <Gold.Chemscore.Hbond.Weighted>
-8.0169

> <Gold.Chemscore.Metal.Weighted>
-0.0000

> <Gold.Chemscore.Lipo.Weighted>
-8.9288

> <Gold.Chemscore.Internal_Hbond.Weighted>
0.0000

> <Gold.Chemscore.DEClash.Weighted>
1.7865

> <Gold.Chemscore.DEInternal.Weighted>
0.3573

> <Gold.Chemscore.Rot.Weighted>
2.5600

> <Gold.Chemscore.Internal.Correction.Weighted>
   9.000000E+99

> <Gold.Protein.RotatedTorsions>
[ 6907 6896 6895 6894 ] final   -9.69 input  -60.11 | X-H torsion
[ 7974 7965 7964 7962 ] final  -53.34 input  175.53 | X-H torsion
[ 8008 7997 7996 7995 ] final -163.38 input   59.86 | X-H torsion
[ 10167 10162 10161 10158 ] final -108.59 input  -65.29 | X-H torsion
[ 10718 10713 10712 10709 ] final   14.56 input   66.30 | X-H torsion
[ 10763 10752 10751 10750 ] final   95.82 input  -60.55 | X-H torsion
[ 11005 11000 10999 10996 ] final  107.24 input  -57.11 | X-H torsion

> <Gold.Protein.ActiveResidues>
 VAL166  LYS551  ARG553  GLY616  TRP617  ASP618  TYR619  PRO620  LYS621  CYS622 
 ASP623  PHE694  ASN695  SER759  ASP760  ASP761  ALA762  ILE779  LEU786  VAL792 
 PHE793  MET794  SER795  GLU796  ALA797  LYS798  CYS799  TRP800  GLU811  SER814 

> <Gold.Protein.RotatedAtoms>
  151.4137  135.0988  159.9592 H   0  0  0  0  0  0  0  0  0  0  0  0  # atno 6907 bound_to 6896
  152.5011  133.8773  159.7339 H   0  0  0  0  0  0  0  0  0  0  0  0  # atno 6908 bound_to 6896
  150.9273  133.6751  159.2846 H   0  0  0  0  0  0  0  0  0  0  0  0  # atno 6909 bound_to 6896
  145.8979  140.8018  142.9758 H   0  0  0  0  0  0  0  0  0  0  0  0  # atno 7974 bound_to 7965
  155.8205  140.0919  157.1852 H   0  0  0  0  0  0  0  0  0  0  0  0  # atno 8008 bound_to 7997
  154.3979  140.1438  156.3554 H   0  0  0  0  0  0  0  0  0  0  0  0  # atno 8009 bound_to 7997
  155.8271  140.3444  155.5552 H   0  0  0  0  0  0  0  0  0  0  0  0  # atno 8010 bound_to 7997
  140.1645  143.4093  152.1401 H   0  0  0  0  0  0  0  0  0  0  0  0  # atno 10167 bound_to 10162
  157.0409  130.6231  149.5751 H   0  0  0  0  0  0  0  0  0  0  0  0  # atno 10718 bound_to 10713
  153.2577  135.4240  155.0862 H   0  0  0  0  0  0  0  0  0  0  0  0  # atno 10763 bound_to 10752
  154.8407  135.3441  154.6423 H   0  0  0  0  0  0  0  0  0  0  0  0  # atno 10764 bound_to 10752
  153.6843  135.7037  153.5165 H   0  0  0  0  0  0  0  0  0  0  0  0  # atno 10765 bound_to 10752
  139.8825  134.9394  156.5789 H   0  0  0  0  0  0  0  0  0  0  0  0  # atno 11005 bound_to 11000
  144.6734  140.1631  143.7421 LP  0  0  0  0  0  0  0  0  0  0  0  0  # atno 17320 bound_to 7965
  145.8828  139.2332  143.1595 LP  0  0  0  0  0  0  0  0  0  0  0  0  # atno 17321 bound_to 7965
  139.5366  144.7215  151.4873 LP  0  0  0  0  0  0  0  0  0  0  0  0  # atno 17342 bound_to 10162
  140.6622  143.8474  150.6901 LP  0  0  0  0  0  0  0  0  0  0  0  0  # atno 17343 bound_to 10162
  156.0038  130.5122  150.7759 LP  0  0  0  0  0  0  0  0  0  0  0  0  # atno 17370 bound_to 10713
  157.5105  131.0925  151.0204 LP  0  0  0  0  0  0  0  0  0  0  0  0  # atno 17371 bound_to 10713
  140.8042  133.8481  155.8753 LP  0  0  0  0  0  0  0  0  0  0  0  0  # atno 17394 bound_to 11000
  140.9565  134.1711  157.4688 LP  0  0  0  0  0  0  0  0  0  0  0  0  # atno 17395 bound_to 11000

$$$$
