AV-unprocessed.smi:2252|AV-procd|sdf|9104|dock10
  -GOLD-   2272012303D 1   1.00000     0.00000
 Structure written by MMmdl.
 46 48  0  0  0  0  0  0  0  0  3 V2000
  152.8092  141.1648  158.5578 C   0  0  0  0  0  0  0  0  0  0  0  0
  152.2563  142.5016  158.3290 N   0  0  0  0  0  0  0  0  0  0  0  0
  152.7460  143.6806  158.8297 C   0  0  0  0  0  0  0  0  0  0  0  0
  151.9221  144.6747  158.3710 C   0  0  0  0  0  0  0  0  0  0  0  0
  150.9653  144.0623  157.6085 N   0  3  0  0  0  0  0  0  0  0  0  0
  151.1666  142.7395  157.5790 C   0  0  0  0  0  0  0  0  0  0  0  0
  150.3051  141.7503  156.8502 C   0  0  0  0  0  0  0  0  0  0  0  0
  148.9039  141.5851  157.4611 C   0  0  0  0  0  0  0  0  0  0  0  0
  147.8553  141.7639  156.4608 N   0  0  0  0  0  0  0  0  0  0  0  0
  146.5384  141.6615  156.6986 C   0  0  0  0  0  0  0  0  0  0  0  0
  146.0708  141.3995  157.8070 O   0  0  0  0  0  0  0  0  0  0  0  0
  145.6021  141.8642  155.4964 C   0  0  1  0  0  0  0  0  0  0  0  0
  145.7474  143.3211  155.0038 C   0  0  0  0  0  0  0  0  0  0  0  0
  144.5269  144.1663  154.7063 C   0  0  0  0  0  0  0  0  0  0  0  0
  145.4161  143.7112  153.5791 C   0  0  0  0  0  0  0  0  0  0  0  0
  145.8861  140.8928  154.4010 N   0  3  0  0  0  0  0  0  0  0  0  0
  147.0972  141.1730  153.5987 C   0  0  0  0  0  0  0  0  0  0  0  0
  147.3921  139.8658  152.8727 C   0  0  0  0  0  0  0  0  0  0  0  0
  147.0047  138.7966  153.8911 C   0  0  0  0  0  0  0  0  0  0  0  0
  145.9840  139.4726  154.8187 C   0  0  0  0  0  0  0  0  0  0  0  0
  153.6037  141.2212  159.3028 H   0  0  0  0  0  0  0  0  0  0  0  0
  153.2166  140.7798  157.6224 H   0  0  0  0  0  0  0  0  0  0  0  0
  152.0237  140.5020  158.9220 H   0  0  0  0  0  0  0  0  0  0  0  0
  153.6220  143.7253  159.4607 H   0  0  0  0  0  0  0  0  0  0  0  0
  151.9447  145.7438  158.5258 H   0  0  0  0  0  0  0  0  0  0  0  0
  150.2307  142.0990  155.8197 H   0  0  0  0  0  0  0  0  0  0  0  0
  150.8299  140.7954  156.8222 H   0  0  0  0  0  0  0  0  0  0  0  0
  148.8316  140.5960  157.9170 H   0  0  0  0  0  0  0  0  0  0  0  0
  148.7574  142.3110  158.2613 H   0  0  0  0  0  0  0  0  0  0  0  0
  148.1534  141.9842  155.5214 H   0  0  0  0  0  0  0  0  0  0  0  0
  144.5745  141.7026  155.8286 H   0  0  0  0  0  0  0  0  0  0  0  0
  146.5775  143.8557  155.4634 H   0  0  0  0  0  0  0  0  0  0  0  0
  143.5493  143.6972  154.7832 H   0  0  0  0  0  0  0  0  0  0  0  0
  144.5630  145.2176  154.9853 H   0  0  0  0  0  0  0  0  0  0  0  0
  146.0488  144.4581  153.1040 H   0  0  0  0  0  0  0  0  0  0  0  0
  145.0244  142.9425  152.9156 H   0  0  0  0  0  0  0  0  0  0  0  0
  146.9521  142.0008  152.9039 H   0  0  0  0  0  0  0  0  0  0  0  0
  147.9282  141.4251  154.2599 H   0  0  0  0  0  0  0  0  0  0  0  0
  146.7556  139.7830  151.9906 H   0  0  0  0  0  0  0  0  0  0  0  0
  148.4297  139.7864  152.5465 H   0  0  0  0  0  0  0  0  0  0  0  0
  146.6021  137.9041  153.4108 H   0  0  0  0  0  0  0  0  0  0  0  0
  147.8813  138.4944  154.4654 H   0  0  0  0  0  0  0  0  0  0  0  0
  146.3298  139.3911  155.8499 H   0  0  0  0  0  0  0  0  0  0  0  0
  145.0038  138.9986  154.7570 H   0  0  0  0  0  0  0  0  0  0  0  0
  145.1102  140.9407  153.7555 H   0  0  0  0  0  0  0  0  0  0  0  0
  150.2110  144.5407  157.1315 H   0  0  0  0  0  0  0  0  0  0  0  0
  1  2  1  0  0  0  0
  1 21  1  0  0  0  0
  1 22  1  0  0  0  0
  1 23  1  0  0  0  0
  2  6  1  0  0  0  0
  2  3  1  0  0  0  0
  3  4  2  0  0  0  0
  3 24  1  0  0  0  0
  4  5  1  0  0  0  0
  4 25  1  0  0  0  0
  5  6  2  0  0  0  0
  5 46  1  0  0  0  0
  6  7  1  0  0  0  0
  7  8  1  0  0  0  0
  7 26  1  0  0  0  0
  7 27  1  0  0  0  0
  8  9  1  0  0  0  0
  8 28  1  0  0  0  0
  8 29  1  0  0  0  0
  9 10  1  0  0  0  0
  9 30  1  0  0  0  0
 10 11  2  0  0  0  0
 10 12  1  0  0  0  0
 12 13  1  0  0  0  0
 12 16  1  0  0  0  0
 12 31  1  0  0  0  0
 13 15  1  0  0  0  0
 13 14  1  0  0  0  0
 13 32  1  0  0  0  0
 14 15  1  0  0  0  0
 14 33  1  0  0  0  0
 14 34  1  0  0  0  0
 15 35  1  0  0  0  0
 15 36  1  0  0  0  0
 16 20  1  0  0  0  0
 16 17  1  0  0  0  0
 16 45  1  0  0  0  0
 17 18  1  0  0  0  0
 17 37  1  0  0  0  0
 17 38  1  0  0  0  0
 18 19  1  0  0  0  0
 18 39  1  0  0  0  0
 18 40  1  0  0  0  0
 19 20  1  0  0  0  0
 19 41  1  0  0  0  0
 19 42  1  0  0  0  0
 20 43  1  0  0  0  0
 20 44  1  0  0  0  0
M  CHG  1   5   1
M  CHG  1  16   1
M  END
> <s_m_source_file>
AV-unprocessed.smi

> <i_m_source_file_index>
2252

> <i_lp_mmshare_version>
43012

> <i_f3d_flags>
0

> <s_epik_input>
W0NIM11uMVtjSF1bY0hdbmMxW0NIMl1bQ0gyXVtOSF1DKD1PKVtDQEhdKFtDSF0yW0NIMl1bQ0gyXTIpTjNbQ0gyXVtDSDJdW0NIMl1bQ0gyXTM=

> <s_epik_cmdline>
J2VwaWtfcHl0aG9uJywgJy1waCcsICc3LjAnLCAnLXRuJywgJzgnLCAnLW1hJywgJzIwMCcsICctbWV0YWxfYmluZGluZycsICctaW1hZScsICc8aW5maWxlLm1hZT4nLCAnLW9tYWUnLCAnPG91dGZpbGUubWFlPic=

> <r_lp_tautomer_probability>
1

> <r_epik_Ionization_Penalty>
0.116886

> <r_epik_Ionization_Penalty_Charging>
0.00955009

> <r_epik_Ionization_Penalty_Neutral>
0.107336

> <r_epik_State_Penalty>
0.0956868

> <r_epik_Charging_Adjusted_Penalty>
0.105237

> <i_epik_Tot_Q>
2

> <i_epik_Tot_abs_Q>
2

> <r_epik_Metal_State_Penalty>
0.438836

> <b_epik_Metal_Only>
0

> <s_lp_Force_Field>
OPLS_2005

> <r_lp_Energy>
43.7014

> <b_lp_Chiralities_Consistent>
1

> <s_lp_Variant>
AV-unprocessed.smi:2252-2

> <Gold.Version>
5.8.1

> <Gold.Id.Protein>
6NUR|6NUR_protein|mol2

> <Gold.PLP.Fitness>
47.5644

> <Gold.PLP.PLP>
-37.5380

> <Gold.PLP.part.hbond>
-2.7388

> <Gold.PLP.part.metal>
0.0000

> <Gold.PLP.part.buried>
-4.8997

> <Gold.PLP.part.nonpolar>
-29.8129

> <Gold.PLP.part.repulsive>
0.0586

> <Gold.PLP.ligand.clash>
0.0000

> <Gold.PLP.ligand.torsion>
1.5569

> <Gold.PLP.Chemscore.Hbond>
4.0000

> <Gold.PLP.Chemscore.CHOScore>
0.0000

> <Gold.PLP.Chemscore.Metal>
0.0000

> <Gold.Chemscore.Hbonds>
donor molecule, donor type, donor heavy atom, donor atom, acceptor molecule, acceptor atom, score
      L1  H     5    46       P1  8028  2.00
      L1  H    16    45       P1 10175  2.00

> <Gold.PLP.Chemscore.Internal.Correction>
1.1402

> <Gold.Rescore>
     Score         DG    S(hbond)    S(metal)    S(lipo)     H(rot)  DE(clash)    DE(int)     intcor
     14.41     -16.73       1.96        0.00      85.06       2.05       0.05       2.27       ----

> <Gold.Chemscore.Fitness>
14.4131

> <Gold.Chemscore.DG>
-16.7272

> <Gold.Chemscore.ZeroCoef>
-5.4800

> <Gold.Chemscore.Hbond>
1.9558

> <Gold.Chemscore.Metal>
0.0000

> <Gold.Chemscore.Lipo>
85.0559

> <Gold.Chemscore.Internal_Hbond>
0.0000

> <Gold.Chemscore.DEClash>
0.0462

> <Gold.Chemscore.DEInternal>
2.2679

> <Gold.Chemscore.Rot>
2.0456

> <Gold.Chemscore.Internal.Correction>
   9.000000E+99

> <Gold.Chemscore.Hbonds>
donor molecule, donor type, donor heavy atom, donor atom, acceptor molecule, acceptor atom, score
      L1  H     5    46       P1  8028  0.58
      L1  H    16    45       P1 10175  0.81

> <Gold.Chemscore.Hbond.Weighted>
-6.5325

> <Gold.Chemscore.Metal.Weighted>
-0.0000

> <Gold.Chemscore.Lipo.Weighted>
-9.9515

> <Gold.Chemscore.Internal_Hbond.Weighted>
0.0000

> <Gold.Chemscore.DEClash.Weighted>
0.0462

> <Gold.Chemscore.DEInternal.Weighted>
2.2679

> <Gold.Chemscore.Rot.Weighted>
5.2368

> <Gold.Chemscore.Internal.Correction.Weighted>
   9.000000E+99

> <Gold.Protein.RotatedTorsions>
[ 6907 6896 6895 6894 ] final -147.20 input  -60.11 | X-H torsion
[ 7974 7965 7964 7962 ] final  120.48 input  175.53 | X-H torsion
[ 8008 7997 7996 7995 ] final   97.02 input   59.86 | X-H torsion
[ 10167 10162 10161 10158 ] final  134.93 input  -65.29 | X-H torsion
[ 10718 10713 10712 10709 ] final -100.86 input   66.30 | X-H torsion
[ 10763 10752 10751 10750 ] final   60.45 input  -60.55 | X-H torsion
[ 11005 11000 10999 10996 ] final  133.64 input  -57.11 | X-H torsion

> <Gold.Protein.ActiveResidues>
 VAL166  LYS551  ARG553  GLY616  TRP617  ASP618  TYR619  PRO620  LYS621  CYS622 
 ASP623  PHE694  ASN695  SER759  ASP760  ASP761  ALA762  ILE779  LEU786  VAL792 
 PHE793  MET794  SER795  GLU796  ALA797  LYS798  CYS799  TRP800  GLU811  SER814 

> <Gold.Protein.RotatedAtoms>
  151.1523  133.4899  159.2594 H   0  0  0  0  0  0  0  0  0  0  0  0  # atno 6907 bound_to 6896
  151.1540  135.0241  159.8691 H   0  0  0  0  0  0  0  0  0  0  0  0  # atno 6908 bound_to 6896
  152.5463  134.1404  159.8530 H   0  0  0  0  0  0  0  0  0  0  0  0  # atno 6909 bound_to 6896
  145.1306  139.3330  143.4667 H   0  0  0  0  0  0  0  0  0  0  0  0  # atno 7974 bound_to 7965
  156.0858  140.3264  155.7752 H   0  0  0  0  0  0  0  0  0  0  0  0  # atno 8008 bound_to 7997
  155.5078  140.0574  157.2946 H   0  0  0  0  0  0  0  0  0  0  0  0  # atno 8009 bound_to 7997
  154.4608  140.1965  156.0266 H   0  0  0  0  0  0  0  0  0  0  0  0  # atno 8010 bound_to 7997
  139.5237  144.6542  151.5211 H   0  0  0  0  0  0  0  0  0  0  0  0  # atno 10167 bound_to 10162
  156.0176  130.5347  150.6878 H   0  0  0  0  0  0  0  0  0  0  0  0  # atno 10718 bound_to 10713
  152.9921  135.5536  154.5876 H   0  0  0  0  0  0  0  0  0  0  0  0  # atno 10763 bound_to 10752
  154.5244  135.2809  155.1236 H   0  0  0  0  0  0  0  0  0  0  0  0  # atno 10764 bound_to 10752
  154.2577  135.6387  153.5316 H   0  0  0  0  0  0  0  0  0  0  0  0  # atno 10765 bound_to 10752
  139.9864  134.9530  156.9753 H   0  0  0  0  0  0  0  0  0  0  0  0  # atno 11005 bound_to 11000
  146.3514  140.1304  142.8597 LP  0  0  0  0  0  0  0  0  0  0  0  0  # atno 17320 bound_to 7965
  145.0639  140.9107  143.4922 LP  0  0  0  0  0  0  0  0  0  0  0  0  # atno 17321 bound_to 7965
  140.6361  143.8982  150.6648 LP  0  0  0  0  0  0  0  0  0  0  0  0  # atno 17342 bound_to 10162
  140.2301  143.3742  152.1572 LP  0  0  0  0  0  0  0  0  0  0  0  0  # atno 17343 bound_to 10162
  157.4566  131.0878  151.0790 LP  0  0  0  0  0  0  0  0  0  0  0  0  # atno 17370 bound_to 10713
  157.1290  130.6094  149.5524 LP  0  0  0  0  0  0  0  0  0  0  0  0  # atno 17371 bound_to 10713
  140.4994  134.1113  155.7247 LP  0  0  0  0  0  0  0  0  0  0  0  0  # atno 17394 bound_to 11000
  141.1528  133.8937  157.2054 LP  0  0  0  0  0  0  0  0  0  0  0  0  # atno 17395 bound_to 11000

$$$$
