AV-unprocessed.smi:3328|AV-procd|sdf|12791|dock6
  -GOLD-   2272019143D 1   1.00000     0.00000
 Structure written by MMmdl.
 41 42  0  0  0  0  0  0  0  0  2 V2000
  148.8943  136.6253  155.6599 C   0  0  0  0  0  0  0  0  0  0  0  0
  149.3914  137.9876  155.2714 C   0  0  0  0  0  0  0  0  0  0  0  0
  150.2379  138.3305  154.1792 C   0  0  0  0  0  0  0  0  0  0  0  0
  150.4988  139.6261  154.1183 N   0  0  0  0  0  0  0  0  0  0  0  0
  149.8287  140.1542  155.1646 N   0  0  0  0  0  0  0  0  0  0  0  0
  149.9103  141.5798  155.4264 C   0  0  0  0  0  0  0  0  0  0  0  0
  150.2387  141.9024  156.9006 C   0  0  2  0  0  0  0  0  0  0  0  0
  148.9515  142.0243  157.7273 C   0  0  0  0  0  0  0  0  0  0  0  0
  151.0174  143.1570  157.0136 N   0  3  0  0  0  0  0  0  0  0  0  0
  151.3987  143.5331  158.3909 C   0  0  0  0  0  0  0  0  0  0  0  0
  152.4512  142.5650  158.9509 C   0  0  0  0  0  0  0  0  0  0  0  0
  152.6195  142.7248  160.3926 N   0  0  0  0  0  0  0  0  0  0  0  0
  152.2170  143.9529  161.0573 C   0  0  0  0  0  0  0  0  0  0  0  0
  152.4141  143.6806  162.5559 C   0  0  0  0  0  0  0  0  0  0  0  0
  153.2366  142.3900  162.6434 C   0  0  0  0  0  0  0  0  0  0  0  0
  153.1982  141.8498  161.2242 C   0  0  0  0  0  0  0  0  0  0  0  0
  153.6527  140.7490  160.9158 O   0  0  0  0  0  0  0  0  0  0  0  0
  149.1464  139.1889  155.8741 C   0  0  0  0  0  0  0  0  0  0  0  0
  149.4199  135.8343  155.1245 H   0  0  0  0  0  0  0  0  0  0  0  0
  147.8321  136.5092  155.4440 H   0  0  0  0  0  0  0  0  0  0  0  0
  149.0297  136.4358  156.7248 H   0  0  0  0  0  0  0  0  0  0  0  0
  150.6739  137.6778  153.4371 H   0  0  0  0  0  0  0  0  0  0  0  0
  150.6561  142.0201  154.7620 H   0  0  0  0  0  0  0  0  0  0  0  0
  148.9527  142.0240  155.1517 H   0  0  0  0  0  0  0  0  0  0  0  0
  150.8191  141.0810  157.3248 H   0  0  0  0  0  0  0  0  0  0  0  0
  148.3707  141.1020  157.6879 H   0  0  0  0  0  0  0  0  0  0  0  0
  148.3170  142.8318  157.3596 H   0  0  0  0  0  0  0  0  0  0  0  0
  149.1747  142.2261  158.7756 H   0  0  0  0  0  0  0  0  0  0  0  0
  151.8554  143.0560  156.4582 H   0  0  0  0  0  0  0  0  0  0  0  0
  151.7844  144.5532  158.3878 H   0  0  0  0  0  0  0  0  0  0  0  0
  150.5171  143.5314  159.0309 H   0  0  0  0  0  0  0  0  0  0  0  0
  152.1624  141.5339  158.7391 H   0  0  0  0  0  0  0  0  0  0  0  0
  153.4084  142.7258  158.4529 H   0  0  0  0  0  0  0  0  0  0  0  0
  152.8550  144.7715  160.7214 H   0  0  0  0  0  0  0  0  0  0  0  0
  151.1819  144.2083  160.8258 H   0  0  0  0  0  0  0  0  0  0  0  0
  152.9110  144.5141  163.0535 H   0  0  0  0  0  0  0  0  0  0  0  0
  151.4480  143.5389  163.0423 H   0  0  0  0  0  0  0  0  0  0  0  0
  154.2694  142.5939  162.9271 H   0  0  0  0  0  0  0  0  0  0  0  0
  152.8123  141.6782  163.3521 H   0  0  0  0  0  0  0  0  0  0  0  0
  148.5570  139.4325  156.7458 H   0  0  0  0  0  0  0  0  0  0  0  0
  150.4673  143.9123  156.6300 H   0  0  0  0  0  0  0  0  0  0  0  0
  1  2  1  0  0  0  0
  1 19  1  0  0  0  0
  1 20  1  0  0  0  0
  1 21  1  0  0  0  0
  2 18  2  0  0  0  0
  2  3  1  0  0  0  0
  3  4  2  0  0  0  0
  3 22  1  0  0  0  0
  4  5  1  0  0  0  0
  5  6  1  0  0  0  0
  5 18  1  0  0  0  0
  6  7  1  0  0  0  0
  6 23  1  0  0  0  0
  6 24  1  0  0  0  0
  7  8  1  0  0  0  0
  7  9  1  0  0  0  0
  7 25  1  0  0  0  0
  8 26  1  0  0  0  0
  8 27  1  0  0  0  0
  8 28  1  0  0  0  0
  9 10  1  0  0  0  0
  9 29  1  0  0  0  0
  9 41  1  0  0  0  0
 10 11  1  0  0  0  0
 10 30  1  0  0  0  0
 10 31  1  0  0  0  0
 11 12  1  0  0  0  0
 11 32  1  0  0  0  0
 11 33  1  0  0  0  0
 12 16  1  0  0  0  0
 12 13  1  0  0  0  0
 13 14  1  0  0  0  0
 13 34  1  0  0  0  0
 13 35  1  0  0  0  0
 14 15  1  0  0  0  0
 14 36  1  0  0  0  0
 14 37  1  0  0  0  0
 15 16  1  0  0  0  0
 15 38  1  0  0  0  0
 15 39  1  0  0  0  0
 16 17  2  0  0  0  0
 18 40  1  0  0  0  0
M  CHG  1   9   1
M  END
> <s_m_source_file>
AV-unprocessed.smi

> <i_m_source_file_index>
3328

> <i_lp_mmshare_version>
43012

> <i_f3d_flags>
0

> <s_epik_input>
W0NIM11jMVtjSF1ubihbY0hdMSlbQ0gyXVtDQEhdKFtDSDNdKVtOSF1bQ0gyXVtDSDJdTjJbQ0gyXVtDSDJdW0NIMl1DMj1P

> <s_epik_cmdline>
J2VwaWtfcHl0aG9uJywgJy1waCcsICc3LjAnLCAnLXRuJywgJzgnLCAnLW1hJywgJzIwMCcsICctbWV0YWxfYmluZGluZycsICctaW1hZScsICc8aW5maWxlLm1hZT4nLCAnLW9tYWUnLCAnPG91dGZpbGUubWFlPic=

> <r_lp_tautomer_probability>
1

> <r_epik_Ionization_Penalty>
0.00826719

> <r_epik_Ionization_Penalty_Charging>
0.00825899

> <r_epik_Ionization_Penalty_Neutral>
8.19932e-06

> <r_epik_State_Penalty>
0.00621436

> <r_epik_Charging_Adjusted_Penalty>
0.0144734

> <i_epik_Tot_Q>
1

> <i_epik_Tot_abs_Q>
1

> <r_epik_Metal_State_Penalty>
0.00621509

> <b_epik_Metal_Only>
0

> <s_lp_Force_Field>
OPLS_2005

> <r_lp_Energy>
18.6505

> <b_lp_Chiralities_Consistent>
1

> <s_lp_Variant>
AV-unprocessed.smi:3328-1

> <Gold.Version>
5.8.1

> <Gold.Id.Protein>
6NUR|6NUR_protein|mol2

> <Gold.PLP.Fitness>
51.3413

> <Gold.PLP.PLP>
-41.2865

> <Gold.PLP.part.hbond>
-2.0000

> <Gold.PLP.part.metal>
0.0000

> <Gold.PLP.part.buried>
-3.9485

> <Gold.PLP.part.nonpolar>
-35.5882

> <Gold.PLP.part.repulsive>
0.1933

> <Gold.PLP.ligand.clash>
0.0000

> <Gold.PLP.ligand.torsion>
0.8258

> <Gold.PLP.Chemscore.Hbond>
3.0000

> <Gold.PLP.Chemscore.CHOScore>
0.8759

> <Gold.PLP.Chemscore.Metal>
0.0000

> <Gold.Chemscore.Hbonds>
donor molecule, donor type, donor heavy atom, donor atom, acceptor molecule, acceptor atom, score
      L1  H     9    41       P1  8028  2.00
      P1  H  7989  7998       L1     4  1.00
      L1  C     3    22       P1  7948  0.27
      L1  C     3    22       P1  7949  0.57

> <Gold.PLP.Chemscore.Internal.Correction>
0.0787

> <Gold.Rescore>
     Score         DG    S(hbond)    S(metal)    S(lipo)     H(rot)  DE(clash)    DE(int)     intcor
     16.79     -17.77       1.96        0.00      92.24       1.97       0.19       0.78       ----

> <Gold.Chemscore.Fitness>
16.7892

> <Gold.Chemscore.DG>
-17.7670

> <Gold.Chemscore.ZeroCoef>
-5.4800

> <Gold.Chemscore.Hbond>
1.9586

> <Gold.Chemscore.Metal>
0.0000

> <Gold.Chemscore.Lipo>
92.2406

> <Gold.Chemscore.Internal_Hbond>
0.0000

> <Gold.Chemscore.DEClash>
0.1947

> <Gold.Chemscore.DEInternal>
0.7831

> <Gold.Chemscore.Rot>
1.9714

> <Gold.Chemscore.Internal.Correction>
   9.000000E+99

> <Gold.Chemscore.Hbonds>
donor molecule, donor type, donor heavy atom, donor atom, acceptor molecule, acceptor atom, score
      L1  H     9    41       P1  8028  0.94
      P1  H  7989  7998       L1     4  0.70

> <Gold.Chemscore.Hbond.Weighted>
-6.5417

> <Gold.Chemscore.Metal.Weighted>
-0.0000

> <Gold.Chemscore.Lipo.Weighted>
-10.7921

> <Gold.Chemscore.Internal_Hbond.Weighted>
0.0000

> <Gold.Chemscore.DEClash.Weighted>
0.1947

> <Gold.Chemscore.DEInternal.Weighted>
0.7831

> <Gold.Chemscore.Rot.Weighted>
5.0468

> <Gold.Chemscore.Internal.Correction.Weighted>
   9.000000E+99

> <Gold.Protein.RotatedTorsions>
[ 6907 6896 6895 6894 ] final   80.78 input  -60.11 | X-H torsion
[ 7974 7965 7964 7962 ] final  135.92 input  175.53 | X-H torsion
[ 8008 7997 7996 7995 ] final -168.26 input   59.86 | X-H torsion
[ 10167 10162 10161 10158 ] final  -87.55 input  -65.29 | X-H torsion
[ 10718 10713 10712 10709 ] final   19.63 input   66.30 | X-H torsion
[ 10763 10752 10751 10750 ] final  -43.80 input  -60.55 | X-H torsion
[ 11005 11000 10999 10996 ] final   10.82 input  -57.11 | X-H torsion

> <Gold.Protein.ActiveResidues>
 VAL166  LYS551  ARG553  GLY616  TRP617  ASP618  TYR619  PRO620  LYS621  CYS622 
 ASP623  PHE694  ASN695  SER759  ASP760  ASP761  ALA762  ILE779  LEU786  VAL792 
 PHE793  MET794  SER795  GLU796  ALA797  LYS798  CYS799  TRP800  GLU811  SER814 

> <Gold.Protein.RotatedAtoms>
  152.5246  134.3305  159.9180 H   0  0  0  0  0  0  0  0  0  0  0  0  # atno 6907 bound_to 6896
  151.3254  133.4016  159.2665 H   0  0  0  0  0  0  0  0  0  0  0  0  # atno 6908 bound_to 6896
  150.9925  134.9273  159.7965 H   0  0  0  0  0  0  0  0  0  0  0  0  # atno 6909 bound_to 6896
  144.9616  139.4704  143.5477 H   0  0  0  0  0  0  0  0  0  0  0  0  # atno 7974 bound_to 7965
  155.8890  140.1021  157.1432 H   0  0  0  0  0  0  0  0  0  0  0  0  # atno 8008 bound_to 7997
  154.4013  140.1314  156.4355 H   0  0  0  0  0  0  0  0  0  0  0  0  # atno 8009 bound_to 7997
  155.7556  140.3464  155.5174 H   0  0  0  0  0  0  0  0  0  0  0  0  # atno 8010 bound_to 7997
  140.3833  143.2738  151.9356 H   0  0  0  0  0  0  0  0  0  0  0  0  # atno 10167 bound_to 10162
  157.1131  130.6517  149.5903 H   0  0  0  0  0  0  0  0  0  0  0  0  # atno 10718 bound_to 10713
  154.0016  135.6693  153.4759 H   0  0  0  0  0  0  0  0  0  0  0  0  # atno 10763 bound_to 10752
  153.0660  135.5001  154.8196 H   0  0  0  0  0  0  0  0  0  0  0  0  # atno 10764 bound_to 10752
  154.7049  135.3086  154.9248 H   0  0  0  0  0  0  0  0  0  0  0  0  # atno 10765 bound_to 10752
  140.5101  134.0660  155.7816 H   0  0  0  0  0  0  0  0  0  0  0  0  # atno 11005 bound_to 11000
  146.3355  139.8769  142.8831 LP  0  0  0  0  0  0  0  0  0  0  0  0  # atno 17320 bound_to 7965
  145.2692  141.0103  143.3782 LP  0  0  0  0  0  0  0  0  0  0  0  0  # atno 17321 bound_to 7965
  139.4794  144.5797  151.7952 LP  0  0  0  0  0  0  0  0  0  0  0  0  # atno 17342 bound_to 10162
  140.4915  144.1304  150.5951 LP  0  0  0  0  0  0  0  0  0  0  0  0  # atno 17343 bound_to 10162
  155.9846  130.4871  150.6989 LP  0  0  0  0  0  0  0  0  0  0  0  0  # atno 17370 bound_to 10713
  157.4542  131.0876  151.0814 LP  0  0  0  0  0  0  0  0  0  0  0  0  # atno 17371 bound_to 10713
  141.1390  133.9172  157.2369 LP  0  0  0  0  0  0  0  0  0  0  0  0  # atno 17394 bound_to 11000
  139.9663  135.0141  156.9397 LP  0  0  0  0  0  0  0  0  0  0  0  0  # atno 17395 bound_to 11000

$$$$
