AV-unprocessed.smi:1120|AV-procd|sdf|4819|dock1
  -GOLD-   22720 3373D 1   1.00000     0.00000
 Structure written by MMmdl.
 48 49  0  0  0  0  0  0  0  0  1 V2000
  152.3205  145.0928  158.5864 C   0  0  0  0  0  0  0  0  0  0  0  0
  151.7389  143.7235  158.9651 C   0  0  2  0  0  0  0  0  0  0  0  0
  152.8318  142.7715  159.4832 C   0  0  0  0  0  0  0  0  0  0  0  0
  152.2567  141.4030  159.8859 C   0  0  0  0  0  0  0  0  0  0  0  0
  151.4280  140.7552  158.7599 C   0  0  2  0  0  0  0  0  0  0  0  0
  152.3002  140.2146  157.7131 N   0  0  0  0  0  0  0  0  0  0  0  0
  151.6900  139.4590  156.2853 S   0  0  0  0  0  0  0  0  0  0  0  0
  150.2428  139.7187  156.2576 O   0  0  0  0  0  0  0  0  0  0  0  0
  152.5405  139.8666  155.1557 O   0  0  0  0  0  0  0  0  0  0  0  0
  151.9321  137.6599  156.6443 C   0  0  0  0  0  0  0  0  0  0  0  0
  151.2894  136.7866  155.5670 C   0  0  0  0  0  0  0  0  0  0  0  0
  151.5646  136.9663  154.3811 O   0  0  0  0  0  0  0  0  0  0  0  0
  150.4277  135.8494  155.9915 N   0  0  0  0  0  0  0  0  0  0  0  0
  149.7095  134.9195  155.1276 C   0  0  0  0  0  0  0  0  0  0  0  0
  150.1856  133.4719  155.3323 C   0  0  0  0  0  0  0  0  0  0  0  0
  149.3317  132.4719  154.5762 C   0  0  0  0  0  0  0  0  0  0  0  0
  149.5907  131.0879  154.6685 C   0  0  0  0  0  0  0  0  0  0  0  0
  148.7692  130.2018  153.9447 C   0  0  0  0  0  0  0  0  0  0  0  0
  147.7265  130.7309  153.1597 C   0  0  0  0  0  0  0  0  0  0  0  0
  147.5517  132.1290  153.1332 C   0  0  0  0  0  0  0  0  0  0  0  0
  148.3336  132.9873  153.8234 N   0  0  0  0  0  0  0  0  0  0  0  0
  150.3893  141.7194  158.1568 C   0  0  0  0  0  0  0  0  0  0  0  0
  150.9954  143.0815  157.7800 C   0  0  0  0  0  0  0  0  0  0  0  0
  153.0490  145.0056  157.7799 H   0  0  0  0  0  0  0  0  0  0  0  0
  152.8198  145.5562  159.4377 H   0  0  0  0  0  0  0  0  0  0  0  0
  151.5364  145.7741  158.2548 H   0  0  0  0  0  0  0  0  0  0  0  0
  151.0197  143.8833  159.7698 H   0  0  0  0  0  0  0  0  0  0  0  0
  153.5944  142.6331  158.7156 H   0  0  0  0  0  0  0  0  0  0  0  0
  153.3384  143.2166  160.3402 H   0  0  0  0  0  0  0  0  0  0  0  0
  153.0589  140.7362  160.2045 H   0  0  0  0  0  0  0  0  0  0  0  0
  151.6155  141.5384  160.7576 H   0  0  0  0  0  0  0  0  0  0  0  0
  150.8843  139.9150  159.1910 H   0  0  0  0  0  0  0  0  0  0  0  0
  153.2670  140.0065  157.9628 H   0  0  0  0  0  0  0  0  0  0  0  0
  152.9984  137.4592  156.7510 H   0  0  0  0  0  0  0  0  0  0  0  0
  151.4575  137.4436  157.6016 H   0  0  0  0  0  0  0  0  0  0  0  0
  150.2572  135.7729  156.9838 H   0  0  0  0  0  0  0  0  0  0  0  0
  148.6469  134.9982  155.3593 H   0  0  0  0  0  0  0  0  0  0  0  0
  149.8216  135.2143  154.0827 H   0  0  0  0  0  0  0  0  0  0  0  0
  151.2241  133.3671  155.0153 H   0  0  0  0  0  0  0  0  0  0  0  0
  150.1623  133.2181  156.3921 H   0  0  0  0  0  0  0  0  0  0  0  0
  150.3993  130.7124  155.2782 H   0  0  0  0  0  0  0  0  0  0  0  0
  148.9362  129.1358  153.9909 H   0  0  0  0  0  0  0  0  0  0  0  0
  147.0770  130.0816  152.5916 H   0  0  0  0  0  0  0  0  0  0  0  0
  146.7626  132.5698  152.5421 H   0  0  0  0  0  0  0  0  0  0  0  0
  149.9059  141.2662  157.2905 H   0  0  0  0  0  0  0  0  0  0  0  0
  149.5989  141.8852  158.8895 H   0  0  0  0  0  0  0  0  0  0  0  0
  150.2035  143.7459  157.4326 H   0  0  0  0  0  0  0  0  0  0  0  0
  151.6799  142.9558  156.9403 H   0  0  0  0  0  0  0  0  0  0  0  0
  1  2  1  0  0  0  0
  1 24  1  0  0  0  0
  1 25  1  0  0  0  0
  1 26  1  0  0  0  0
  2 23  1  0  0  0  0
  2  3  1  0  0  0  0
  2 27  1  0  0  0  0
  3  4  1  0  0  0  0
  3 28  1  0  0  0  0
  3 29  1  0  0  0  0
  4  5  1  0  0  0  0
  4 30  1  0  0  0  0
  4 31  1  0  0  0  0
  5  6  1  0  0  0  0
  5 22  1  0  0  0  0
  5 32  1  0  0  0  0
  6  7  1  0  0  0  0
  6 33  1  0  0  0  0
  7  8  2  0  0  0  0
  7  9  2  0  0  0  0
  7 10  1  0  0  0  0
 10 11  1  0  0  0  0
 10 34  1  0  0  0  0
 10 35  1  0  0  0  0
 11 12  2  0  0  0  0
 11 13  1  0  0  0  0
 13 14  1  0  0  0  0
 13 36  1  0  0  0  0
 14 15  1  0  0  0  0
 14 37  1  0  0  0  0
 14 38  1  0  0  0  0
 15 16  1  0  0  0  0
 15 39  1  0  0  0  0
 15 40  1  0  0  0  0
 16 21  1  0  0  0  0
 16 17  2  0  0  0  0
 17 18  1  0  0  0  0
 17 41  1  0  0  0  0
 18 19  2  0  0  0  0
 18 42  1  0  0  0  0
 19 20  1  0  0  0  0
 19 43  1  0  0  0  0
 20 21  2  0  0  0  0
 20 44  1  0  0  0  0
 22 23  1  0  0  0  0
 22 45  1  0  0  0  0
 22 46  1  0  0  0  0
 23 47  1  0  0  0  0
 23 48  1  0  0  0  0
M  END
> <s_m_source_file>
AV-unprocessed.smi

> <i_m_source_file_index>
1120

> <i_lp_mmshare_version>
43012

> <i_f3d_flags>
0

> <s_epik_input>
W0NIM11bQ0BASF0xW0NIMl1bQ0gyXVtDQEhdKFtDSDJdW0NIMl0xKVtOSF1TKD1PKSg9TylbQ0gyXUMoPU8pW05IXVtDSDJdW0NIMl1jMltjSF1bY0hdW2NIXVtjSF1uMg==

> <s_epik_cmdline>
J2VwaWtfcHl0aG9uJywgJy1waCcsICc3LjAnLCAnLXRuJywgJzgnLCAnLW1hJywgJzIwMCcsICctbWV0YWxfYmluZGluZycsICctaW1hZScsICc8aW5maWxlLm1hZT4nLCAnLW9tYWUnLCAnPG91dGZpbGUubWFlPic=

> <r_epik_Ionization_Penalty>
0.0216068

> <r_epik_Ionization_Penalty_Charging>
0

> <r_epik_Ionization_Penalty_Neutral>
0.0216068

> <r_epik_State_Penalty>
0.01735

> <r_epik_Charging_Adjusted_Penalty>
0.01735

> <i_epik_Tot_Q>
0

> <i_epik_Tot_abs_Q>
0

> <r_epik_Metal_State_Penalty>
0.0535325

> <b_epik_Metal_Only>
0

> <s_lp_Force_Field>
OPLS_2005

> <r_lp_Energy>
6.87343

> <b_lp_Chiralities_Consistent>
1

> <s_lp_Variant>
AV-unprocessed.smi:1120-2

> <Gold.Version>
5.8.1

> <Gold.Id.Protein>
6NUR|6NUR_protein|mol2

> <Gold.PLP.Fitness>
49.5830

> <Gold.PLP.PLP>
-42.2417

> <Gold.PLP.part.hbond>
-3.0000

> <Gold.PLP.part.metal>
0.0000

> <Gold.PLP.part.buried>
-4.4169

> <Gold.PLP.part.nonpolar>
-35.3789

> <Gold.PLP.part.repulsive>
1.4488

> <Gold.PLP.ligand.clash>
0.0000

> <Gold.PLP.ligand.torsion>
0.7289

> <Gold.PLP.Chemscore.Hbond>
2.4914

> <Gold.PLP.Chemscore.CHOScore>
0.0000

> <Gold.PLP.Chemscore.Metal>
0.0000

> <Gold.Chemscore.Hbonds>
donor molecule, donor type, donor heavy atom, donor atom, acceptor molecule, acceptor atom, score
      P1  H  7989  7998       L1     9  0.48
      P1  H  7997  8008       L1     9  0.89
      P1  H 10752 10763       L1    12  1.00

> <Gold.PLP.Chemscore.Internal.Correction>
1.3248

> <Gold.Rescore>
     Score         DG    S(hbond)    S(metal)    S(lipo)     H(rot)  DE(clash)    DE(int)     intcor
     16.74     -19.11       1.78        0.00     107.67       1.92       0.19       2.18       ----

> <Gold.Chemscore.Fitness>
16.7385

> <Gold.Chemscore.DG>
-19.1057

> <Gold.Chemscore.ZeroCoef>
-5.4800

> <Gold.Chemscore.Hbond>
1.7825

> <Gold.Chemscore.Metal>
0.0000

> <Gold.Chemscore.Lipo>
107.6731

> <Gold.Chemscore.Internal_Hbond>
0.0000

> <Gold.Chemscore.DEClash>
0.1907

> <Gold.Chemscore.DEInternal>
2.1765

> <Gold.Chemscore.Rot>
1.9241

> <Gold.Chemscore.Internal.Correction>
   9.000000E+99

> <Gold.Chemscore.Hbonds>
donor molecule, donor type, donor heavy atom, donor atom, acceptor molecule, acceptor atom, score
      P1  H  7989  7998       L1     9  0.46
      P1  H  7997  8008       L1     9  0.57
      P1  H 10752 10763       L1    12  0.42

> <Gold.Chemscore.Hbond.Weighted>
-5.9535

> <Gold.Chemscore.Metal.Weighted>
-0.0000

> <Gold.Chemscore.Lipo.Weighted>
-12.5978

> <Gold.Chemscore.Internal_Hbond.Weighted>
0.0000

> <Gold.Chemscore.DEClash.Weighted>
0.1907

> <Gold.Chemscore.DEInternal.Weighted>
2.1765

> <Gold.Chemscore.Rot.Weighted>
4.9256

> <Gold.Chemscore.Internal.Correction.Weighted>
   9.000000E+99

> <Gold.Protein.RotatedTorsions>
[ 6907 6896 6895 6894 ] final -138.05 input  -60.11 | X-H torsion
[ 7974 7965 7964 7962 ] final  112.16 input  175.53 | X-H torsion
[ 8008 7997 7996 7995 ] final  -15.38 input   59.86 | X-H torsion
[ 10167 10162 10161 10158 ] final -115.36 input  -65.29 | X-H torsion
[ 10718 10713 10712 10709 ] final  145.01 input   66.30 | X-H torsion
[ 10763 10752 10751 10750 ] final   25.78 input  -60.55 | X-H torsion
[ 11005 11000 10999 10996 ] final   80.14 input  -57.11 | X-H torsion

> <Gold.Protein.ActiveResidues>
 VAL166  LYS551  ARG553  GLY616  TRP617  ASP618  TYR619  PRO620  LYS621  CYS622 
 ASP623  PHE694  ASN695  SER759  ASP760  ASP761  ALA762  ILE779  LEU786  VAL792 
 PHE793  MET794  SER795  GLU796  ALA797  LYS798  CYS799  TRP800  GLU811  SER814 

> <Gold.Protein.RotatedAtoms>
  151.0301  133.5798  159.2661 H   0  0  0  0  0  0  0  0  0  0  0  0  # atno 6907 bound_to 6896
  151.2882  135.0733  159.9204 H   0  0  0  0  0  0  0  0  0  0  0  0  # atno 6908 bound_to 6896
  152.5343  134.0004  159.7946 H   0  0  0  0  0  0  0  0  0  0  0  0  # atno 6909 bound_to 6896
  145.2330  139.2811  143.4158 H   0  0  0  0  0  0  0  0  0  0  0  0  # atno 7974 bound_to 7965
  154.5135  140.2198  155.9111 H   0  0  0  0  0  0  0  0  0  0  0  0  # atno 8008 bound_to 7997
  156.1580  140.3148  155.8724 H   0  0  0  0  0  0  0  0  0  0  0  0  # atno 8009 bound_to 7997
  155.3808  140.0472  157.3034 H   0  0  0  0  0  0  0  0  0  0  0  0  # atno 8010 bound_to 7997
  140.0909  143.4700  152.1870 H   0  0  0  0  0  0  0  0  0  0  0  0  # atno 10167 bound_to 10162
  157.3504  131.0950  151.1005 H   0  0  0  0  0  0  0  0  0  0  0  0  # atno 10718 bound_to 10713
  153.0668  135.6575  154.0337 H   0  0  0  0  0  0  0  0  0  0  0  0  # atno 10763 bound_to 10752
  153.9992  135.2938  155.3406 H   0  0  0  0  0  0  0  0  0  0  0  0  # atno 10764 bound_to 10752
  154.7028  135.5237  153.8621 H   0  0  0  0  0  0  0  0  0  0  0  0  # atno 10765 bound_to 10752
  139.9145  134.7898  156.1871 H   0  0  0  0  0  0  0  0  0  0  0  0  # atno 11005 bound_to 11000
  146.3348  140.2671  142.8604 LP  0  0  0  0  0  0  0  0  0  0  0  0  # atno 17320 bound_to 7965
  144.9659  140.8321  143.5485 LP  0  0  0  0  0  0  0  0  0  0  0  0  # atno 17321 bound_to 7965
  139.5725  144.7470  151.3852 LP  0  0  0  0  0  0  0  0  0  0  0  0  # atno 17342 bound_to 10162
  140.7029  143.7587  150.7432 LP  0  0  0  0  0  0  0  0  0  0  0  0  # atno 17343 bound_to 10162
  157.2183  130.6469  149.5801 LP  0  0  0  0  0  0  0  0  0  0  0  0  # atno 17370 bound_to 10713
  155.9720  130.4637  150.6193 LP  0  0  0  0  0  0  0  0  0  0  0  0  # atno 17371 bound_to 10713
  141.0607  133.6843  156.1946 LP  0  0  0  0  0  0  0  0  0  0  0  0  # atno 17394 bound_to 11000
  140.6666  134.4912  157.5585 LP  0  0  0  0  0  0  0  0  0  0  0  0  # atno 17395 bound_to 11000

$$$$
