AV-unprocessed.smi:1800|AV-procd|sdf|7263|dock10
  -GOLD-   22720 8513D 1   1.00000     0.00000
 Structure written by MMmdl.
 36 37  0  0  0  0  0  0  0  0  1 V2000
  149.2996  142.7684  158.1670 C   0  0  0  0  0  0  0  0  0  0  0  0
  150.6644  142.5151  157.5144 C   0  0  2  0  0  0  0  0  0  0  0  0
  151.6779  143.6334  157.8240 C   0  0  0  0  0  0  0  0  0  0  0  0
  152.0624  143.6597  159.2248 N   0  0  0  0  0  0  0  0  0  0  0  0
  152.7189  142.6878  159.9502 C   0  0  0  0  0  0  0  0  0  0  0  0
  152.8729  143.1630  161.2209 C   0  0  0  0  0  0  0  0  0  0  0  0
  152.2658  144.4489  161.1762 C   0  0  0  0  0  0  0  0  0  0  0  0
  151.7789  144.7423  159.9812 N   0  0  0  0  0  0  0  0  0  0  0  0
  150.4882  142.3806  156.0651 N   0  0  0  0  0  0  0  0  0  0  0  0
  149.7429  140.9551  155.4434 S   0  0  0  0  0  0  0  0  0  0  0  0
  150.7658  140.2197  154.6832 O   0  0  0  0  0  0  0  0  0  0  0  0
  149.0552  140.3025  156.5679 O   0  0  0  0  0  0  0  0  0  0  0  0
  148.4878  141.6561  154.2684 C   0  0  0  0  0  0  0  0  0  0  0  0
  147.3575  142.3601  155.0241 C   0  0  0  0  0  0  0  0  0  0  0  0
  146.4214  141.2295  155.4576 C   0  0  0  0  0  0  0  0  0  0  0  0
  146.5613  140.1397  154.3837 C   0  0  0  0  0  0  0  0  0  0  0  0
  147.7524  140.5491  153.5034 C   0  0  0  0  0  0  0  0  0  0  0  0
  149.3920  142.8421  159.2508 H   0  0  0  0  0  0  0  0  0  0  0  0
  148.6043  141.9565  157.9510 H   0  0  0  0  0  0  0  0  0  0  0  0
  148.8531  143.6962  157.8076 H   0  0  0  0  0  0  0  0  0  0  0  0
  151.0516  141.5763  157.9132 H   0  0  0  0  0  0  0  0  0  0  0  0
  152.5711  143.5259  157.2061 H   0  0  0  0  0  0  0  0  0  0  0  0
  151.2468  144.6051  157.5799 H   0  0  0  0  0  0  0  0  0  0  0  0
  153.0245  141.7528  159.5043 H   0  0  0  0  0  0  0  0  0  0  0  0
  153.3482  142.6681  162.0546 H   0  0  0  0  0  0  0  0  0  0  0  0
  152.1660  145.1736  161.9707 H   0  0  0  0  0  0  0  0  0  0  0  0
  150.0775  143.2217  155.6608 H   0  0  0  0  0  0  0  0  0  0  0  0
  149.0034  142.3478  153.6016 H   0  0  0  0  0  0  0  0  0  0  0  0
  147.7026  142.9667  155.8613 H   0  0  0  0  0  0  0  0  0  0  0  0
  146.8276  143.0250  154.3406 H   0  0  0  0  0  0  0  0  0  0  0  0
  146.7445  140.8355  156.4221 H   0  0  0  0  0  0  0  0  0  0  0  0
  145.3920  141.5706  155.5718 H   0  0  0  0  0  0  0  0  0  0  0  0
  146.7338  139.1682  154.8485 H   0  0  0  0  0  0  0  0  0  0  0  0
  145.6545  140.0561  153.7838 H   0  0  0  0  0  0  0  0  0  0  0  0
  147.3793  140.9534  152.5617 H   0  0  0  0  0  0  0  0  0  0  0  0
  148.3981  139.7075  153.2538 H   0  0  0  0  0  0  0  0  0  0  0  0
  1  2  1  0  0  0  0
  1 18  1  0  0  0  0
  1 19  1  0  0  0  0
  1 20  1  0  0  0  0
  2  3  1  0  0  0  0
  2  9  1  0  0  0  0
  2 21  1  0  0  0  0
  3  4  1  0  0  0  0
  3 22  1  0  0  0  0
  3 23  1  0  0  0  0
  4  8  1  0  0  0  0
  4  5  1  0  0  0  0
  5  6  2  0  0  0  0
  5 24  1  0  0  0  0
  6  7  1  0  0  0  0
  6 25  1  0  0  0  0
  7  8  2  0  0  0  0
  7 26  1  0  0  0  0
  9 10  1  0  0  0  0
  9 27  1  0  0  0  0
 10 11  2  0  0  0  0
 10 12  2  0  0  0  0
 10 13  1  0  0  0  0
 13 17  1  0  0  0  0
 13 14  1  0  0  0  0
 13 28  1  0  0  0  0
 14 15  1  0  0  0  0
 14 29  1  0  0  0  0
 14 30  1  0  0  0  0
 15 16  1  0  0  0  0
 15 31  1  0  0  0  0
 15 32  1  0  0  0  0
 16 17  1  0  0  0  0
 16 33  1  0  0  0  0
 16 34  1  0  0  0  0
 17 35  1  0  0  0  0
 17 36  1  0  0  0  0
M  END
> <s_m_source_file>
AV-unprocessed.smi

> <i_m_source_file_index>
1800

> <i_lp_mmshare_version>
43012

> <i_f3d_flags>
0

> <s_epik_input>
bjFbY0hdW2NIXVtjSF1uMVtDSDJdW0NAQEhdKFtDSDNdKVtOSF1TKD1PKSg9TylbQ0hdMltDSDJdW0NIMl1bQ0gyXVtDSDJdMg==

> <s_epik_cmdline>
J2VwaWtfcHl0aG9uJywgJy1waCcsICc3LjAnLCAnLXRuJywgJzgnLCAnLW1hJywgJzIwMCcsICctbWV0YWxfYmluZGluZycsICctaW1hZScsICc8aW5maWxlLm1hZT4nLCAnLW9tYWUnLCAnPG91dGZpbGUubWFlPic=

> <r_lp_tautomer_probability>
1

> <r_epik_Ionization_Penalty>
1.44925e-05

> <r_epik_Ionization_Penalty_Charging>
0

> <r_epik_Ionization_Penalty_Neutral>
1.44925e-05

> <r_epik_State_Penalty>
-0

> <r_epik_Charging_Adjusted_Penalty>
0

> <i_epik_Tot_Q>
0

> <i_epik_Tot_abs_Q>
0

> <r_epik_Metal_State_Penalty>
0.00862991

> <b_epik_Metal_Only>
0

> <s_lp_Force_Field>
OPLS_2005

> <r_lp_Energy>
14.2601

> <b_lp_Chiralities_Consistent>
1

> <s_lp_Variant>
AV-unprocessed.smi:1800-1

> <Gold.Version>
5.8.1

> <Gold.Id.Protein>
6NUR|6NUR_protein|mol2

> <Gold.PLP.Fitness>
40.8153

> <Gold.PLP.PLP>
-35.6691

> <Gold.PLP.part.hbond>
-1.9287

> <Gold.PLP.part.metal>
0.0000

> <Gold.PLP.part.buried>
-2.7295

> <Gold.PLP.part.nonpolar>
-31.6446

> <Gold.PLP.part.repulsive>
0.1886

> <Gold.PLP.ligand.clash>
0.0000

> <Gold.PLP.ligand.torsion>
0.5711

> <Gold.PLP.Chemscore.Hbond>
2.0000

> <Gold.PLP.Chemscore.CHOScore>
0.0000

> <Gold.PLP.Chemscore.Metal>
0.0000

> <Gold.Chemscore.Hbonds>
donor molecule, donor type, donor heavy atom, donor atom, acceptor molecule, acceptor atom, score
      L1  H     9    27       P1  8028  1.00
      P1  H  7989  7998       L1    11  1.00

> <Gold.PLP.Chemscore.Internal.Correction>
0.2884

> <Gold.Rescore>
     Score         DG    S(hbond)    S(metal)    S(lipo)     H(rot)  DE(clash)    DE(int)     intcor
     14.47     -17.52       1.99        0.00      84.57       1.76       0.04       3.01       ----

> <Gold.Chemscore.Fitness>
14.4678

> <Gold.Chemscore.DG>
-17.5239

> <Gold.Chemscore.ZeroCoef>
-5.4800

> <Gold.Chemscore.Hbond>
1.9915

> <Gold.Chemscore.Metal>
0.0000

> <Gold.Chemscore.Lipo>
84.5656

> <Gold.Chemscore.Internal_Hbond>
0.0000

> <Gold.Chemscore.DEClash>
0.0444

> <Gold.Chemscore.DEInternal>
3.0118

> <Gold.Chemscore.Rot>
1.7585

> <Gold.Chemscore.Internal.Correction>
   9.000000E+99

> <Gold.Chemscore.Hbonds>
donor molecule, donor type, donor heavy atom, donor atom, acceptor molecule, acceptor atom, score
      L1  H     9    27       P1  8028  0.97
      P1  H  7989  7998       L1    11  0.98

> <Gold.Chemscore.Hbond.Weighted>
-6.6516

> <Gold.Chemscore.Metal.Weighted>
-0.0000

> <Gold.Chemscore.Lipo.Weighted>
-9.8942

> <Gold.Chemscore.Internal_Hbond.Weighted>
0.0000

> <Gold.Chemscore.DEClash.Weighted>
0.0444

> <Gold.Chemscore.DEInternal.Weighted>
3.0118

> <Gold.Chemscore.Rot.Weighted>
4.5019

> <Gold.Chemscore.Internal.Correction.Weighted>
   9.000000E+99

> <Gold.Protein.RotatedTorsions>
[ 6907 6896 6895 6894 ] final  158.00 input  -60.11 | X-H torsion
[ 7974 7965 7964 7962 ] final    7.68 input  175.53 | X-H torsion
[ 8008 7997 7996 7995 ] final  -36.05 input   59.86 | X-H torsion
[ 10167 10162 10161 10158 ] final  -67.30 input  -65.29 | X-H torsion
[ 10718 10713 10712 10709 ] final  145.64 input   66.30 | X-H torsion
[ 10763 10752 10751 10750 ] final  -25.79 input  -60.55 | X-H torsion
[ 11005 11000 10999 10996 ] final  -46.83 input  -57.11 | X-H torsion

> <Gold.Protein.ActiveResidues>
 VAL166  LYS551  ARG553  GLY616  TRP617  ASP618  TYR619  PRO620  LYS621  CYS622 
 ASP623  PHE694  ASN695  SER759  ASP760  ASP761  ALA762  ILE779  LEU786  VAL792 
 PHE793  MET794  SER795  GLU796  ALA797  LYS798  CYS799  TRP800  GLU811  SER814 

> <Gold.Protein.RotatedAtoms>
  152.0069  133.3846  159.4203 H   0  0  0  0  0  0  0  0  0  0  0  0  # atno 6907 bound_to 6896
  150.6904  134.3773  159.5028 H   0  0  0  0  0  0  0  0  0  0  0  0  # atno 6908 bound_to 6896
  152.1528  134.8974  160.0597 H   0  0  0  0  0  0  0  0  0  0  0  0  # atno 6909 bound_to 6896
  146.2424  140.0047  142.8412 H   0  0  0  0  0  0  0  0  0  0  0  0  # atno 7974 bound_to 7965
  154.4081  140.1641  156.2310 H   0  0  0  0  0  0  0  0  0  0  0  0  # atno 8008 bound_to 7997
  155.9282  140.3416  155.6205 H   0  0  0  0  0  0  0  0  0  0  0  0  # atno 8009 bound_to 7997
  155.7139  140.0760  157.2350 H   0  0  0  0  0  0  0  0  0  0  0  0  # atno 8010 bound_to 7997
  140.5593  143.2312  151.6759 H   0  0  0  0  0  0  0  0  0  0  0  0  # atno 10167 bound_to 10162
  157.3428  131.0938  151.1068 H   0  0  0  0  0  0  0  0  0  0  0  0  # atno 10718 bound_to 10713
  153.7055  135.6954  153.5051 H   0  0  0  0  0  0  0  0  0  0  0  0  # atno 10763 bound_to 10752
  153.2310  135.4337  155.0594 H   0  0  0  0  0  0  0  0  0  0  0  0  # atno 10764 bound_to 10752
  154.8331  135.3484  154.6594 H   0  0  0  0  0  0  0  0  0  0  0  0  # atno 10765 bound_to 10752
  141.0603  133.6711  156.3211 H   0  0  0  0  0  0  0  0  0  0  0  0  # atno 11005 bound_to 11000
  145.1382  140.9557  143.4504 LP  0  0  0  0  0  0  0  0  0  0  0  0  # atno 17320 bound_to 7965
  145.0321  139.3332  143.6019 LP  0  0  0  0  0  0  0  0  0  0  0  0  # atno 17321 bound_to 7965
  139.5062  144.3688  152.0490 LP  0  0  0  0  0  0  0  0  0  0  0  0  # atno 17342 bound_to 10162
  140.2813  144.3856  150.6118 LP  0  0  0  0  0  0  0  0  0  0  0  0  # atno 17343 bound_to 10162
  157.2273  130.6509  149.5835 LP  0  0  0  0  0  0  0  0  0  0  0  0  # atno 17370 bound_to 10713
  155.9710  130.4610  150.6093 LP  0  0  0  0  0  0  0  0  0  0  0  0  # atno 17371 bound_to 10713
  140.5881  134.5678  157.5494 LP  0  0  0  0  0  0  0  0  0  0  0  0  # atno 17394 bound_to 11000
  139.9427  134.7758  156.0638 LP  0  0  0  0  0  0  0  0  0  0  0  0  # atno 17395 bound_to 11000

$$$$
