AV-unprocessed.smi:957|AV-procd|sdf|4265|dock5
  -GOLD-   22720 2173D 1   1.00000     0.00000
 Structure written by MMmdl.
 30 31  0  0  0  0  0  0  0  0  2 V2000
  151.8951  145.5953  159.8503 C   0  0  0  0  0  0  0  0  0  0  0  0
  152.2179  144.6845  158.6595 C   0  0  0  0  0  0  0  0  0  0  0  0
  152.2879  143.2875  159.0515 N   0  0  0  0  0  0  0  0  0  0  0  0
  153.1412  142.7173  159.9163 C   0  0  0  0  0  0  0  0  0  0  0  0
  152.9783  141.4073  160.0911 N   0  0  0  0  0  0  0  0  0  0  0  0
  151.9210  141.0774  159.2695 N   0  0  0  0  0  0  0  0  0  0  0  0
  151.5507  142.2191  158.6744 C   0  0  0  0  0  0  0  0  0  0  0  0
  150.4140  142.3009  157.6933 C   0  0  2  0  0  0  0  0  0  0  0  0
  149.2390  141.3890  158.0959 C   0  0  0  0  0  0  0  0  0  0  0  0
  148.1046  141.4856  157.0644 C   0  0  0  0  0  0  0  0  0  0  0  0
  148.6241  141.1875  155.6483 C   0  0  0  0  0  0  0  0  0  0  0  0
  149.7452  142.0882  155.3022 N   0  3  0  0  0  0  0  0  0  0  0  0
  150.8754  141.9963  156.2529 C   0  0  0  0  0  0  0  0  0  0  0  0
  151.8594  146.6396  159.5397 H   0  0  0  0  0  0  0  0  0  0  0  0
  152.6532  145.5067  160.6290 H   0  0  0  0  0  0  0  0  0  0  0  0
  150.9304  145.3486  160.2939 H   0  0  0  0  0  0  0  0  0  0  0  0
  151.4751  144.7978  157.8697 H   0  0  0  0  0  0  0  0  0  0  0  0
  153.1762  144.9711  158.2247 H   0  0  0  0  0  0  0  0  0  0  0  0
  153.9053  143.2771  160.4354 H   0  0  0  0  0  0  0  0  0  0  0  0
  150.0351  143.3221  157.6924 H   0  0  0  0  0  0  0  0  0  0  0  0
  149.5761  140.3539  158.1671 H   0  0  0  0  0  0  0  0  0  0  0  0
  148.8674  141.6641  159.0835 H   0  0  0  0  0  0  0  0  0  0  0  0
  147.3052  140.7904  157.3230 H   0  0  0  0  0  0  0  0  0  0  0  0
  147.6668  142.4843  157.0926 H   0  0  0  0  0  0  0  0  0  0  0  0
  148.9601  140.1521  155.5770 H   0  0  0  0  0  0  0  0  0  0  0  0
  147.8256  141.3152  154.9170 H   0  0  0  0  0  0  0  0  0  0  0  0
  150.0772  141.8575  154.3765 H   0  0  0  0  0  0  0  0  0  0  0  0
  151.6507  142.6992  155.9462 H   0  0  0  0  0  0  0  0  0  0  0  0
  151.3084  140.9970  156.1897 H   0  0  0  0  0  0  0  0  0  0  0  0
  149.4042  143.0387  155.2986 H   0  0  0  0  0  0  0  0  0  0  0  0
  1  2  1  0  0  0  0
  1 14  1  0  0  0  0
  1 15  1  0  0  0  0
  1 16  1  0  0  0  0
  2  3  1  0  0  0  0
  2 17  1  0  0  0  0
  2 18  1  0  0  0  0
  3  7  1  0  0  0  0
  3  4  1  0  0  0  0
  4  5  2  0  0  0  0
  4 19  1  0  0  0  0
  5  6  1  0  0  0  0
  6  7  2  0  0  0  0
  7  8  1  0  0  0  0
  8 13  1  0  0  0  0
  8  9  1  0  0  0  0
  8 20  1  0  0  0  0
  9 10  1  0  0  0  0
  9 21  1  0  0  0  0
  9 22  1  0  0  0  0
 10 11  1  0  0  0  0
 10 23  1  0  0  0  0
 10 24  1  0  0  0  0
 11 12  1  0  0  0  0
 11 25  1  0  0  0  0
 11 26  1  0  0  0  0
 12 13  1  0  0  0  0
 12 27  1  0  0  0  0
 12 30  1  0  0  0  0
 13 28  1  0  0  0  0
 13 29  1  0  0  0  0
M  CHG  1  12   1
M  END
> <s_m_source_file>
AV-unprocessed.smi

> <i_m_source_file_index>
957

> <i_lp_mmshare_version>
43012

> <i_f3d_flags>
0

> <s_epik_input>
W0NIM11bQ0gyXW4xW2NIXW5uYzFbQ0BASF0yW0NIMl1bQ0gyXVtDSDJdW05IXVtDSDJdMg==

> <s_epik_cmdline>
J2VwaWtfcHl0aG9uJywgJy1waCcsICc3LjAnLCAnLXRuJywgJzgnLCAnLW1hJywgJzIwMCcsICctbWV0YWxfYmluZGluZycsICctaW1hZScsICc8aW5maWxlLm1hZT4nLCAnLW9tYWUnLCAnPG91dGZpbGUubWFlPic=

> <r_lp_tautomer_probability>
1

> <r_epik_Ionization_Penalty>
0.000442722

> <r_epik_Ionization_Penalty_Charging>
0.000426856

> <r_epik_Ionization_Penalty_Neutral>
1.58656e-05

> <r_epik_State_Penalty>
-0

> <r_epik_Charging_Adjusted_Penalty>
0.000426856

> <i_epik_Tot_Q>
1

> <i_epik_Tot_abs_Q>
1

> <r_epik_Metal_State_Penalty>
-0

> <b_epik_Metal_Only>
0

> <s_lp_Force_Field>
OPLS_2005

> <r_lp_Energy>
16.0383

> <b_lp_Chiralities_Consistent>
1

> <s_lp_Variant>
AV-unprocessed.smi:957-1

> <Gold.Version>
5.8.1

> <Gold.Id.Protein>
6NUR|6NUR_protein|mol2

> <Gold.PLP.Fitness>
35.0124

> <Gold.PLP.PLP>
-30.3388

> <Gold.PLP.part.hbond>
-1.0000

> <Gold.PLP.part.metal>
0.0000

> <Gold.PLP.part.buried>
-5.0362

> <Gold.PLP.part.nonpolar>
-24.2919

> <Gold.PLP.part.repulsive>
0.1996

> <Gold.PLP.ligand.clash>
0.0000

> <Gold.PLP.ligand.torsion>
0.6765

> <Gold.PLP.Chemscore.Hbond>
2.0000

> <Gold.PLP.Chemscore.CHOScore>
0.0000

> <Gold.PLP.Chemscore.Metal>
0.0000

> <Gold.Chemscore.Hbonds>
donor molecule, donor type, donor heavy atom, donor atom, acceptor molecule, acceptor atom, score
      L1  H    12    30       P1  8028  2.00

> <Gold.PLP.Chemscore.Internal.Correction>
0.0267

> <Gold.Rescore>
     Score         DG    S(hbond)    S(metal)    S(lipo)     H(rot)  DE(clash)    DE(int)     intcor
     11.02     -11.76       1.00        0.00      52.67       1.26       0.03       0.71       ----

> <Gold.Chemscore.Fitness>
11.0159

> <Gold.Chemscore.DG>
-11.7579

> <Gold.Chemscore.ZeroCoef>
-5.4800

> <Gold.Chemscore.Hbond>
0.9983

> <Gold.Chemscore.Metal>
0.0000

> <Gold.Chemscore.Lipo>
52.6705

> <Gold.Chemscore.Internal_Hbond>
0.0000

> <Gold.Chemscore.DEClash>
0.0343

> <Gold.Chemscore.DEInternal>
0.7077

> <Gold.Chemscore.Rot>
1.2573

> <Gold.Chemscore.Internal.Correction>
   9.000000E+99

> <Gold.Chemscore.Hbonds>
donor molecule, donor type, donor heavy atom, donor atom, acceptor molecule, acceptor atom, score
      L1  H    12    30       P1  8028  1.00

> <Gold.Chemscore.Hbond.Weighted>
-3.3342

> <Gold.Chemscore.Metal.Weighted>
-0.0000

> <Gold.Chemscore.Lipo.Weighted>
-6.1624

> <Gold.Chemscore.Internal_Hbond.Weighted>
0.0000

> <Gold.Chemscore.DEClash.Weighted>
0.0343

> <Gold.Chemscore.DEInternal.Weighted>
0.7077

> <Gold.Chemscore.Rot.Weighted>
3.2188

> <Gold.Chemscore.Internal.Correction.Weighted>
   9.000000E+99

> <Gold.Protein.RotatedTorsions>
[ 6907 6896 6895 6894 ] final -150.11 input  -60.11 | X-H torsion
[ 7974 7965 7964 7962 ] final   65.43 input  175.53 | X-H torsion
[ 8008 7997 7996 7995 ] final   41.10 input   59.86 | X-H torsion
[ 10167 10162 10161 10158 ] final -119.29 input  -65.29 | X-H torsion
[ 10718 10713 10712 10709 ] final  178.50 input   66.30 | X-H torsion
[ 10763 10752 10751 10750 ] final  -49.77 input  -60.55 | X-H torsion
[ 11005 11000 10999 10996 ] final  -17.51 input  -57.11 | X-H torsion

> <Gold.Protein.ActiveResidues>
 VAL166  LYS551  ARG553  GLY616  TRP617  ASP618  TYR619  PRO620  LYS621  CYS622 
 ASP623  PHE694  ASN695  SER759  ASP760  ASP761  ALA762  ILE779  LEU786  VAL792 
 PHE793  MET794  SER795  GLU796  ALA797  LYS798  CYS799  TRP800  GLU811  SER814 

> <Gold.Protein.RotatedAtoms>
  151.1939  133.4651  159.2595 H   0  0  0  0  0  0  0  0  0  0  0  0  # atno 6907 bound_to 6896
  151.1137  135.0040  159.8516 H   0  0  0  0  0  0  0  0  0  0  0  0  # atno 6908 bound_to 6896
  152.5452  134.1856  159.8706 H   0  0  0  0  0  0  0  0  0  0  0  0  # atno 6909 bound_to 6896
  145.8385  139.3181  143.0945 H   0  0  0  0  0  0  0  0  0  0  0  0  # atno 7974 bound_to 7965
  155.2641  140.3361  155.4270 H   0  0  0  0  0  0  0  0  0  0  0  0  # atno 8008 bound_to 7997
  156.2161  140.1790  156.7627 H   0  0  0  0  0  0  0  0  0  0  0  0  # atno 8009 bound_to 7997
  154.5756  140.0662  156.9014 H   0  0  0  0  0  0  0  0  0  0  0  0  # atno 8010 bound_to 7997
  140.0483  143.5085  152.2095 H   0  0  0  0  0  0  0  0  0  0  0  0  # atno 10167 bound_to 10162
  156.8896  130.9843  151.3051 H   0  0  0  0  0  0  0  0  0  0  0  0  # atno 10718 bound_to 10713
  154.0996  135.6565  153.4866 H   0  0  0  0  0  0  0  0  0  0  0  0  # atno 10763 bound_to 10752
  153.0293  135.5222  154.7300 H   0  0  0  0  0  0  0  0  0  0  0  0  # atno 10764 bound_to 10752
  154.6448  135.2993  155.0029 H   0  0  0  0  0  0  0  0  0  0  0  0  # atno 10765 bound_to 10752
  140.8175  133.8093  155.9626 H   0  0  0  0  0  0  0  0  0  0  0  0  # atno 11005 bound_to 11000
  145.9492  140.8922  143.0268 LP  0  0  0  0  0  0  0  0  0  0  0  0  # atno 17320 bound_to 7965
  144.6735  140.1656  143.7419 LP  0  0  0  0  0  0  0  0  0  0  0  0  # atno 17321 bound_to 7965
  139.5969  144.7570  151.3264 LP  0  0  0  0  0  0  0  0  0  0  0  0  # atno 17342 bound_to 10162
  140.7229  143.7086  150.7787 LP  0  0  0  0  0  0  0  0  0  0  0  0  # atno 17343 bound_to 10162
  157.6091  130.8570  149.8923 LP  0  0  0  0  0  0  0  0  0  0  0  0  # atno 17370 bound_to 10713
  156.0635  130.3696  150.0929 LP  0  0  0  0  0  0  0  0  0  0  0  0  # atno 17371 bound_to 10713
  140.9133  134.2233  157.4972 LP  0  0  0  0  0  0  0  0  0  0  0  0  # atno 17394 bound_to 11000
  139.8710  134.9760  156.4904 LP  0  0  0  0  0  0  0  0  0  0  0  0  # atno 17395 bound_to 11000

$$$$
