AV-unprocessed.smi:2532|AV-procd|sdf|9971|dock6
  -GOLD-   2272014 13D 1   1.00000     0.00000
 Structure written by MMmdl.
 37 39  0  0  0  0  0  0  0  0  2 V2000
  151.1341  137.1684  158.5027 O   0  0  0  0  0  0  0  0  0  0  0  0
  150.6299  138.4089  158.0487 C   0  0  1  0  0  0  0  0  0  0  0  0
  149.1192  138.4455  158.3261 C   0  0  0  0  0  0  0  0  0  0  0  0
  148.8518  137.6827  159.4904 O   0  0  0  0  0  0  0  0  0  0  0  0
  147.7182  136.8419  159.3513 C   0  0  0  0  0  0  0  0  0  0  0  0
  147.5833  136.0571  160.6164 C   0  0  0  0  0  0  0  0  0  0  0  0
  147.4729  136.5527  161.8908 C   0  0  0  0  0  0  0  0  0  0  0  0
  147.3406  135.5358  162.8817 C   0  0  0  0  0  0  0  0  0  0  0  0
  147.3408  134.2737  162.3506 C   0  0  0  0  0  0  0  0  0  0  0  0
  147.5054  134.3101  160.6167 S   0  0  0  0  0  0  0  0  0  0  0  0
  151.3762  139.5544  158.7607 C   0  0  0  0  0  0  0  0  0  0  0  0
  151.0499  140.8770  158.2074 N   0  0  0  0  0  0  0  0  0  0  0  0
  150.2624  141.2021  157.1465 C   0  0  0  0  0  0  0  0  0  0  0  0
  150.2721  142.5586  157.0262 N   0  3  0  0  0  0  0  0  0  0  0  0
  151.0785  143.1094  158.0243 C   0  0  0  0  0  0  0  0  0  0  0  0
  151.3967  144.4337  158.3095 C   0  0  0  0  0  0  0  0  0  0  0  0
  152.2572  144.6561  159.4045 C   0  0  0  0  0  0  0  0  0  0  0  0
  152.7666  143.5854  160.1676 C   0  0  0  0  0  0  0  0  0  0  0  0
  152.4368  142.2470  159.8697 C   0  0  0  0  0  0  0  0  0  0  0  0
  151.5836  142.0348  158.7868 C   0  0  0  0  0  0  0  0  0  0  0  0
  151.4821  136.6996  157.7591 H   0  0  0  0  0  0  0  0  0  0  0  0
  150.8061  138.4886  156.9749 H   0  0  0  0  0  0  0  0  0  0  0  0
  148.7600  139.4716  158.4265 H   0  0  0  0  0  0  0  0  0  0  0  0
  148.5793  137.9941  157.4921 H   0  0  0  0  0  0  0  0  0  0  0  0
  146.8220  137.4392  159.1759 H   0  0  0  0  0  0  0  0  0  0  0  0
  147.8431  136.1653  158.5048 H   0  0  0  0  0  0  0  0  0  0  0  0
  147.4846  137.6025  162.1446 H   0  0  0  0  0  0  0  0  0  0  0  0
  147.2485  135.7627  163.9336 H   0  0  0  0  0  0  0  0  0  0  0  0
  147.2516  133.3298  162.8680 H   0  0  0  0  0  0  0  0  0  0  0  0
  151.1003  139.5759  159.8156 H   0  0  0  0  0  0  0  0  0  0  0  0
  152.4557  139.4047  158.7321 H   0  0  0  0  0  0  0  0  0  0  0  0
  149.7272  140.5089  156.5136 H   0  0  0  0  0  0  0  0  0  0  0  0
  151.0091  145.2558  157.7257 H   0  0  0  0  0  0  0  0  0  0  0  0
  152.5332  145.6681  159.6631 H   0  0  0  0  0  0  0  0  0  0  0  0
  153.4248  143.7941  160.9986 H   0  0  0  0  0  0  0  0  0  0  0  0
  152.8384  141.4350  160.4572 H   0  0  0  0  0  0  0  0  0  0  0  0
  149.7661  143.0683  156.3134 H   0  0  0  0  0  0  0  0  0  0  0  0
  1  2  1  0  0  0  0
  1 21  1  0  0  0  0
  2  3  1  0  0  0  0
  2 11  1  0  0  0  0
  2 22  1  0  0  0  0
  3  4  1  0  0  0  0
  3 23  1  0  0  0  0
  3 24  1  0  0  0  0
  4  5  1  0  0  0  0
  5  6  1  0  0  0  0
  5 25  1  0  0  0  0
  5 26  1  0  0  0  0
  6 10  1  0  0  0  0
  6  7  2  0  0  0  0
  7  8  1  0  0  0  0
  7 27  1  0  0  0  0
  8  9  2  0  0  0  0
  8 28  1  0  0  0  0
  9 10  1  0  0  0  0
  9 29  1  0  0  0  0
 11 12  1  0  0  0  0
 11 30  1  0  0  0  0
 11 31  1  0  0  0  0
 12 20  1  0  0  0  0
 12 13  1  0  0  0  0
 13 14  2  0  0  0  0
 13 32  1  0  0  0  0
 14 15  1  0  0  0  0
 14 37  1  0  0  0  0
 15 20  2  0  0  0  0
 15 16  1  0  0  0  0
 16 17  2  0  0  0  0
 16 33  1  0  0  0  0
 17 18  1  0  0  0  0
 17 34  1  0  0  0  0
 18 19  2  0  0  0  0
 18 35  1  0  0  0  0
 19 20  1  0  0  0  0
 19 36  1  0  0  0  0
M  CHG  1  14   1
M  END
> <s_m_source_file>
AV-unprocessed.smi

> <i_m_source_file_index>
2532

> <i_lp_mmshare_version>
43012

> <i_f3d_flags>
0

> <s_epik_input>
W2NIXTFbY0hdW2NIXVtjSF1jKGMxMiluKFtjSF1uMilbQ0gyXVtDQEhdKFtPSF0pW0NIMl1PW0NIMl1jM1tjSF1bY0hdW2NIXXMz

> <s_epik_cmdline>
J2VwaWtfcHl0aG9uJywgJy1waCcsICc3LjAnLCAnLXRuJywgJzgnLCAnLW1hJywgJzIwMCcsICctbWV0YWxfYmluZGluZycsICctaW1hZScsICc8aW5maWxlLm1hZT4nLCAnLW9tYWUnLCAnPG91dGZpbGUubWFlPic=

> <r_epik_Ionization_Penalty>
1.31758

> <r_epik_Ionization_Penalty_Charging>
1.31758

> <r_epik_Ionization_Penalty_Neutral>
1.26231e-06

> <r_epik_State_Penalty>
1.39289

> <r_epik_Charging_Adjusted_Penalty>
2.71047

> <i_epik_Tot_Q>
1

> <i_epik_Tot_abs_Q>
1

> <r_epik_Metal_State_Penalty>
5.42637

> <b_epik_Metal_Only>
0

> <s_lp_Force_Field>
OPLS_2005

> <r_lp_Energy>
15.1458

> <b_lp_Chiralities_Consistent>
1

> <s_lp_Variant>
AV-unprocessed.smi:2532-4

> <Gold.Version>
5.8.1

> <Gold.Id.Protein>
6NUR|6NUR_protein|mol2

> <Gold.PLP.Fitness>
52.4570

> <Gold.PLP.PLP>
-47.8568

> <Gold.PLP.part.hbond>
-2.8646

> <Gold.PLP.part.metal>
0.0000

> <Gold.PLP.part.buried>
-5.7151

> <Gold.PLP.part.nonpolar>
-39.8590

> <Gold.PLP.part.repulsive>
0.0191

> <Gold.PLP.ligand.clash>
0.0000

> <Gold.PLP.ligand.torsion>
0.7436

> <Gold.PLP.Chemscore.Hbond>
1.9934

> <Gold.PLP.Chemscore.CHOScore>
0.0000

> <Gold.PLP.Chemscore.Metal>
0.0000

> <Gold.Chemscore.Hbonds>
donor molecule, donor type, donor heavy atom, donor atom, acceptor molecule, acceptor atom, score
      L1  H    14    37       P1  8028  2.00

> <Gold.PLP.Chemscore.Internal.Correction>
0.1075

> <Gold.Rescore>
     Score         DG    S(hbond)    S(metal)    S(lipo)     H(rot)  DE(clash)    DE(int)     intcor
     16.57     -17.34       0.96        0.00     127.68       2.46       0.06       0.71       ----

> <Gold.Chemscore.Fitness>
16.5672

> <Gold.Chemscore.DG>
-17.3377

> <Gold.Chemscore.ZeroCoef>
-5.4800

> <Gold.Chemscore.Hbond>
0.9637

> <Gold.Chemscore.Metal>
0.0000

> <Gold.Chemscore.Lipo>
127.6806

> <Gold.Chemscore.Internal_Hbond>
0.0000

> <Gold.Chemscore.DEClash>
0.0588

> <Gold.Chemscore.DEInternal>
0.7116

> <Gold.Chemscore.Rot>
2.4608

> <Gold.Chemscore.Internal.Correction>
   9.000000E+99

> <Gold.Chemscore.Hbonds>
donor molecule, donor type, donor heavy atom, donor atom, acceptor molecule, acceptor atom, score
      L1  H    14    37       P1  8028  0.93
      P1  H  6931  6943       L1     4  0.01

> <Gold.Chemscore.Hbond.Weighted>
-3.2187

> <Gold.Chemscore.Metal.Weighted>
-0.0000

> <Gold.Chemscore.Lipo.Weighted>
-14.9386

> <Gold.Chemscore.Internal_Hbond.Weighted>
0.0000

> <Gold.Chemscore.DEClash.Weighted>
0.0588

> <Gold.Chemscore.DEInternal.Weighted>
0.7116

> <Gold.Chemscore.Rot.Weighted>
6.2996

> <Gold.Chemscore.Internal.Correction.Weighted>
   9.000000E+99

> <Gold.Protein.RotatedTorsions>
[ 6907 6896 6895 6894 ] final -136.88 input  -60.11 | X-H torsion
[ 7974 7965 7964 7962 ] final  139.61 input  175.53 | X-H torsion
[ 8008 7997 7996 7995 ] final  140.18 input   59.86 | X-H torsion
[ 10167 10162 10161 10158 ] final -155.35 input  -65.29 | X-H torsion
[ 10718 10713 10712 10709 ] final   63.52 input   66.30 | X-H torsion
[ 10763 10752 10751 10750 ] final -148.59 input  -60.55 | X-H torsion
[ 11005 11000 10999 10996 ] final  145.23 input  -57.11 | X-H torsion

> <Gold.Protein.ActiveResidues>
 VAL166  LYS551  ARG553  GLY616  TRP617  ASP618  TYR619  PRO620  LYS621  CYS622 
 ASP623  PHE694  ASN695  SER759  ASP760  ASP761  ALA762  ILE779  LEU786  VAL792 
 PHE793  MET794  SER795  GLU796  ALA797  LYS798  CYS799  TRP800  GLU811  SER814 

> <Gold.Protein.RotatedAtoms>
  151.0155  133.5925  159.2677 H   0  0  0  0  0  0  0  0  0  0  0  0  # atno 6907 bound_to 6896
  151.3061  135.0781  159.9265 H   0  0  0  0  0  0  0  0  0  0  0  0  # atno 6908 bound_to 6896
  152.5310  133.9828  159.7869 H   0  0  0  0  0  0  0  0  0  0  0  0  # atno 6909 bound_to 6896
  144.9263  139.5103  143.5639 H   0  0  0  0  0  0  0  0  0  0  0  0  # atno 7974 bound_to 7965
  156.2982  140.2348  156.4358 H   0  0  0  0  0  0  0  0  0  0  0  0  # atno 8008 bound_to 7997
  154.8229  140.0437  157.1444 H   0  0  0  0  0  0  0  0  0  0  0  0  # atno 8009 bound_to 7997
  154.9294  140.3014  155.5179 H   0  0  0  0  0  0  0  0  0  0  0  0  # atno 8010 bound_to 7997
  139.6939  143.9375  152.2398 H   0  0  0  0  0  0  0  0  0  0  0  0  # atno 10167 bound_to 10162
  157.5977  130.9109  149.9726 H   0  0  0  0  0  0  0  0  0  0  0  0  # atno 10718 bound_to 10713
  154.8225  135.3331  154.6997 H   0  0  0  0  0  0  0  0  0  0  0  0  # atno 10763 bound_to 10752
  153.7627  135.6931  153.4926 H   0  0  0  0  0  0  0  0  0  0  0  0  # atno 10764 bound_to 10752
  153.2099  135.4486  155.0316 H   0  0  0  0  0  0  0  0  0  0  0  0  # atno 10765 bound_to 10752
  140.0696  134.9159  157.1322 H   0  0  0  0  0  0  0  0  0  0  0  0  # atno 11005 bound_to 11000
  146.3227  139.8180  142.8932 LP  0  0  0  0  0  0  0  0  0  0  0  0  # atno 17320 bound_to 7965
  145.3214  141.0245  143.3498 LP  0  0  0  0  0  0  0  0  0  0  0  0  # atno 17321 bound_to 7965
  139.9199  144.6806  150.8473 LP  0  0  0  0  0  0  0  0  0  0  0  0  # atno 17342 bound_to 10162
  140.7690  143.3383  151.2263 LP  0  0  0  0  0  0  0  0  0  0  0  0  # atno 17343 bound_to 10162
  156.1042  130.3654  150.0163 LP  0  0  0  0  0  0  0  0  0  0  0  0  # atno 17370 bound_to 10713
  156.8272  130.9380  151.3639 LP  0  0  0  0  0  0  0  0  0  0  0  0  # atno 17371 bound_to 10713
  140.3647  134.2455  155.7183 LP  0  0  0  0  0  0  0  0  0  0  0  0  # atno 17394 bound_to 11000
  141.2006  133.7982  157.0479 LP  0  0  0  0  0  0  0  0  0  0  0  0  # atno 17395 bound_to 11000

$$$$
