AV-unprocessed.smi:1596|AV-procd|sdf|6417|dock5
  -GOLD-   22720 7 53D 1   1.00000     0.00000
 Structure written by MMmdl.
 49 50  0  0  0  0  0  0  0  0  2 V2000
  150.6995  141.9158  157.3709 C   0  0  0  0  0  0  0  0  0  0  0  0
  151.8449  142.8551  157.7774 C   0  0  0  0  0  0  0  0  0  0  0  0
  151.6668  143.4417  159.1081 N   0  0  0  0  0  0  0  0  0  0  0  0
  150.8713  144.6609  159.2544 C   0  0  0  0  0  0  0  0  0  0  0  0
  151.7092  145.8918  159.6318 C   0  0  0  0  0  0  0  0  0  0  0  0
  152.4047  142.9362  160.2068 C   0  0  0  0  0  0  0  0  0  0  0  0
  153.2845  141.8279  160.1182 C   0  0  0  0  0  0  0  0  0  0  0  0
  153.9830  141.3879  161.2614 C   0  0  0  0  0  0  0  0  0  0  0  0
  153.8136  142.0587  162.4898 C   0  0  0  0  0  0  0  0  0  0  0  0
  154.5258  141.5714  163.6192 N   0  0  0  0  0  0  0  0  0  0  0  0
  154.6150  142.1121  164.8467 C   0  0  0  0  0  0  0  0  0  0  0  0
  154.1112  143.1814  165.1900 O   0  0  0  0  0  0  0  0  0  0  0  0
  155.3467  141.3422  165.6650 N   0  0  0  0  0  0  0  0  0  0  0  0
  155.6488  141.6453  167.0610 C   0  0  2  0  0  0  0  0  0  0  0  0
  156.3317  140.4305  167.7155 C   0  0  0  0  0  0  0  0  0  0  0  0
  156.6301  140.6823  169.2040 C   0  0  0  0  0  0  0  0  0  0  0  0
  155.3722  141.1004  169.9886 C   0  0  2  0  0  0  0  0  0  0  0  0
  154.4884  140.0030  170.1072 O   0  0  0  0  0  0  0  0  0  0  0  0
  154.6545  142.2861  169.3168 C   0  0  0  0  0  0  0  0  0  0  0  0
  154.3659  142.0264  167.8280 C   0  0  0  0  0  0  0  0  0  0  0  0
  152.9184  143.1528  162.5335 C   0  0  0  0  0  0  0  0  0  0  0  0
  152.2687  143.5381  161.4142 N   0  3  0  0  0  0  0  0  0  0  0  0
  150.8613  141.5309  156.3640 H   0  0  0  0  0  0  0  0  0  0  0  0
  149.7375  142.4285  157.3754 H   0  0  0  0  0  0  0  0  0  0  0  0
  150.6255  141.0576  158.0373 H   0  0  0  0  0  0  0  0  0  0  0  0
  152.7821  142.2982  157.7593 H   0  0  0  0  0  0  0  0  0  0  0  0
  151.9657  143.6430  157.0334 H   0  0  0  0  0  0  0  0  0  0  0  0
  150.3605  144.8601  158.3119 H   0  0  0  0  0  0  0  0  0  0  0  0
  150.0738  144.5035  159.9802 H   0  0  0  0  0  0  0  0  0  0  0  0
  151.0683  146.7634  159.7643 H   0  0  0  0  0  0  0  0  0  0  0  0
  152.4330  146.1381  158.8563 H   0  0  0  0  0  0  0  0  0  0  0  0
  152.2548  145.7408  160.5632 H   0  0  0  0  0  0  0  0  0  0  0  0
  153.4369  141.2962  159.1917 H   0  0  0  0  0  0  0  0  0  0  0  0
  154.6493  140.5406  161.1890 H   0  0  0  0  0  0  0  0  0  0  0  0
  155.0629  140.7305  163.4651 H   0  0  0  0  0  0  0  0  0  0  0  0
  155.7254  140.4813  165.2982 H   0  0  0  0  0  0  0  0  0  0  0  0
  156.3450  142.4857  167.0965 H   0  0  0  0  0  0  0  0  0  0  0  0
  155.6951  139.5500  167.6171 H   0  0  0  0  0  0  0  0  0  0  0  0
  157.2600  140.1974  167.1928 H   0  0  0  0  0  0  0  0  0  0  0  0
  157.0775  139.7946  169.6525 H   0  0  0  0  0  0  0  0  0  0  0  0
  157.3776  141.4724  169.2849 H   0  0  0  0  0  0  0  0  0  0  0  0
  155.6621  141.3855  171.0005 H   0  0  0  0  0  0  0  0  0  0  0  0
  154.6058  139.6141  170.9605 H   0  0  0  0  0  0  0  0  0  0  0  0
  153.7279  142.5167  169.8437 H   0  0  0  0  0  0  0  0  0  0  0  0
  155.2813  143.1746  169.4032 H   0  0  0  0  0  0  0  0  0  0  0  0
  153.9133  142.9158  167.3884 H   0  0  0  0  0  0  0  0  0  0  0  0
  153.6274  141.2290  167.7333 H   0  0  0  0  0  0  0  0  0  0  0  0
  152.6821  143.7300  163.4146 H   0  0  0  0  0  0  0  0  0  0  0  0
  151.6318  144.3321  161.4842 H   0  0  0  0  0  0  0  0  0  0  0  0
  1  2  1  0  0  0  0
  1 23  1  0  0  0  0
  1 24  1  0  0  0  0
  1 25  1  0  0  0  0
  2  3  1  0  0  0  0
  2 26  1  0  0  0  0
  2 27  1  0  0  0  0
  3  4  1  0  0  0  0
  3  6  1  0  0  0  0
  4  5  1  0  0  0  0
  4 28  1  0  0  0  0
  4 29  1  0  0  0  0
  5 30  1  0  0  0  0
  5 31  1  0  0  0  0
  5 32  1  0  0  0  0
  6 22  1  0  0  0  0
  6  7  2  0  0  0  0
  7  8  1  0  0  0  0
  7 33  1  0  0  0  0
  8  9  2  0  0  0  0
  8 34  1  0  0  0  0
  9 10  1  0  0  0  0
  9 21  1  0  0  0  0
 10 11  1  0  0  0  0
 10 35  1  0  0  0  0
 11 12  2  0  0  0  0
 11 13  1  0  0  0  0
 13 14  1  0  0  0  0
 13 36  1  0  0  0  0
 14 20  1  0  0  0  0
 14 15  1  0  0  0  0
 14 37  1  0  0  0  0
 15 16  1  0  0  0  0
 15 38  1  0  0  0  0
 15 39  1  0  0  0  0
 16 17  1  0  0  0  0
 16 40  1  0  0  0  0
 16 41  1  0  0  0  0
 17 18  1  0  0  0  0
 17 19  1  0  0  0  0
 17 42  1  0  0  0  0
 18 43  1  0  0  0  0
 19 20  1  0  0  0  0
 19 44  1  0  0  0  0
 19 45  1  0  0  0  0
 20 46  1  0  0  0  0
 20 47  1  0  0  0  0
 21 22  2  0  0  0  0
 21 48  1  0  0  0  0
 22 49  1  0  0  0  0
M  CHG  1  22   1
M  END
> <s_m_source_file>
AV-unprocessed.smi

> <i_m_source_file_index>
1596

> <i_lp_mmshare_version>
43012

> <i_f3d_flags>
0

> <s_epik_input>
W0NIM11bQ0gyXU4oW0NIMl1bQ0gzXSljMVtjSF1bY0hdYyhbY0hdbjEpW05IXUMoPU8pW05IXVtDQEBIXTJbQ0gyXVtDSDJdW0NAQEhdKFtPSF0pW0NIMl1bQ0gyXTI=

> <s_epik_cmdline>
J2VwaWtfcHl0aG9uJywgJy1waCcsICc3LjAnLCAnLXRuJywgJzgnLCAnLW1hJywgJzIwMCcsICctbWV0YWxfYmluZGluZycsICctaW1hZScsICc8aW5maWxlLm1hZT4nLCAnLW9tYWUnLCAnPG91dGZpbGUubWFlPic=

> <r_lp_tautomer_probability>
0.999994

> <r_epik_Ionization_Penalty>
0.224167

> <r_epik_Ionization_Penalty_Charging>
0.224146

> <r_epik_Ionization_Penalty_Neutral>
2.1696e-05

> <r_epik_State_Penalty>
0.0144855

> <r_epik_Charging_Adjusted_Penalty>
0.238631

> <i_epik_Tot_Q>
1

> <i_epik_Tot_abs_Q>
1

> <r_epik_Metal_State_Penalty>
0.0446449

> <b_epik_Metal_Only>
0

> <s_lp_Force_Field>
OPLS_2005

> <r_lp_Energy>
23.6459

> <b_lp_Chiralities_Consistent>
1

> <s_lp_Variant>
AV-unprocessed.smi:1596-2

> <Gold.Version>
5.8.1

> <Gold.Id.Protein>
6NUR|6NUR_protein|mol2

> <Gold.PLP.Fitness>
48.0654

> <Gold.PLP.PLP>
-48.8269

> <Gold.PLP.part.hbond>
-3.4416

> <Gold.PLP.part.metal>
0.0000

> <Gold.PLP.part.buried>
-5.5092

> <Gold.PLP.part.nonpolar>
-38.9688

> <Gold.PLP.part.repulsive>
0.1763

> <Gold.PLP.ligand.clash>
0.0000

> <Gold.PLP.ligand.torsion>
0.4365

> <Gold.PLP.Chemscore.Hbond>
0.0000

> <Gold.PLP.Chemscore.CHOScore>
0.0000

> <Gold.PLP.Chemscore.Metal>
0.0000

> <Gold.PLP.Chemscore.Internal.Correction>
0.1115

> <Gold.Rescore>
     Score         DG    S(hbond)    S(metal)    S(lipo)     H(rot)  DE(clash)    DE(int)     intcor
      9.43     -12.88       0.00        0.00     103.36       1.83       0.23       3.23       ----

> <Gold.Chemscore.Fitness>
9.4261

> <Gold.Chemscore.DG>
-12.8835

> <Gold.Chemscore.ZeroCoef>
-5.4800

> <Gold.Chemscore.Hbond>
0.0000

> <Gold.Chemscore.Metal>
0.0000

> <Gold.Chemscore.Lipo>
103.3558

> <Gold.Chemscore.Internal_Hbond>
0.0000

> <Gold.Chemscore.DEClash>
0.2259

> <Gold.Chemscore.DEInternal>
3.2315

> <Gold.Chemscore.Rot>
1.8317

> <Gold.Chemscore.Internal.Correction>
   9.000000E+99

> <Gold.Chemscore.Hbond.Weighted>
-0.0000

> <Gold.Chemscore.Metal.Weighted>
-0.0000

> <Gold.Chemscore.Lipo.Weighted>
-12.0926

> <Gold.Chemscore.Internal_Hbond.Weighted>
0.0000

> <Gold.Chemscore.DEClash.Weighted>
0.2259

> <Gold.Chemscore.DEInternal.Weighted>
3.2315

> <Gold.Chemscore.Rot.Weighted>
4.6892

> <Gold.Chemscore.Internal.Correction.Weighted>
   9.000000E+99

> <Gold.Protein.RotatedTorsions>
[ 6907 6896 6895 6894 ] final   -5.43 input  -60.11 | X-H torsion
[ 7974 7965 7964 7962 ] final -174.36 input  175.53 | X-H torsion
[ 8008 7997 7996 7995 ] final   37.74 input   59.86 | X-H torsion
[ 10167 10162 10161 10158 ] final -157.53 input  -65.29 | X-H torsion
[ 10718 10713 10712 10709 ] final   37.63 input   66.30 | X-H torsion
[ 10763 10752 10751 10750 ] final  176.79 input  -60.55 | X-H torsion
[ 11005 11000 10999 10996 ] final   73.17 input  -57.11 | X-H torsion

> <Gold.Protein.ActiveResidues>
 VAL166  LYS551  ARG553  GLY616  TRP617  ASP618  TYR619  PRO620  LYS621  CYS622 
 ASP623  PHE694  ASN695  SER759  ASP760  ASP761  ALA762  ILE779  LEU786  VAL792 
 PHE793  MET794  SER795  GLU796  ALA797  LYS798  CYS799  TRP800  GLU811  SER814 

> <Gold.Protein.RotatedAtoms>
  151.4817  135.1052  159.9779 H   0  0  0  0  0  0  0  0  0  0  0  0  # atno 6907 bound_to 6896
  152.4776  133.8172  159.7045 H   0  0  0  0  0  0  0  0  0  0  0  0  # atno 6908 bound_to 6896
  150.8825  133.7291  159.2954 H   0  0  0  0  0  0  0  0  0  0  0  0  # atno 6909 bound_to 6896
  144.7132  140.1483  143.6386 H   0  0  0  0  0  0  0  0  0  0  0  0  # atno 7974 bound_to 7965
  155.2087  140.3321  155.4332 H   0  0  0  0  0  0  0  0  0  0  0  0  # atno 8008 bound_to 7997
  156.2379  140.1881  156.7118 H   0  0  0  0  0  0  0  0  0  0  0  0  # atno 8009 bound_to 7997
  154.6092  140.0611  156.9457 H   0  0  0  0  0  0  0  0  0  0  0  0  # atno 8010 bound_to 7997
  139.6763  143.9657  152.2312 H   0  0  0  0  0  0  0  0  0  0  0  0  # atno 10167 bound_to 10162
  157.3493  130.7589  149.6967 H   0  0  0  0  0  0  0  0  0  0  0  0  # atno 10718 bound_to 10713
  154.4859  135.2777  155.1535 H   0  0  0  0  0  0  0  0  0  0  0  0  # atno 10763 bound_to 10752
  154.3226  135.6206  153.5518 H   0  0  0  0  0  0  0  0  0  0  0  0  # atno 10764 bound_to 10752
  152.9881  135.5746  154.5270 H   0  0  0  0  0  0  0  0  0  0  0  0  # atno 10765 bound_to 10752
  139.9453  134.7324  156.0995 H   0  0  0  0  0  0  0  0  0  0  0  0  # atno 11005 bound_to 11000
  145.9140  139.2504  143.1421 LP  0  0  0  0  0  0  0  0  0  0  0  0  # atno 17320 bound_to 7965
  145.9688  140.8777  143.0173 LP  0  0  0  0  0  0  0  0  0  0  0  0  # atno 17321 bound_to 7965
  139.9435  144.6666  150.8242 LP  0  0  0  0  0  0  0  0  0  0  0  0  # atno 17342 bound_to 10162
  140.7636  143.3228  151.2582 LP  0  0  0  0  0  0  0  0  0  0  0  0  # atno 17343 bound_to 10162
  155.9719  130.4145  150.4136 LP  0  0  0  0  0  0  0  0  0  0  0  0  # atno 17370 bound_to 10713
  157.2196  131.0479  151.2554 LP  0  0  0  0  0  0  0  0  0  0  0  0  # atno 17371 bound_to 10713
  141.1101  133.6646  156.2959 LP  0  0  0  0  0  0  0  0  0  0  0  0  # atno 17394 bound_to 11000
  140.5850  134.5708  157.5487 LP  0  0  0  0  0  0  0  0  0  0  0  0  # atno 17395 bound_to 11000

$$$$
