AV-unprocessed.smi:2829|AV-procd|sdf|10898|dock7
  -GOLD-   2272015343D 1   1.00000     0.00000
 Structure written by MMmdl.
 50 53  0  0  0  0  0  0  0  0  1 V2000
  144.0557  132.6683  149.1013 C   0  0  0  0  0  0  0  0  0  0  0  0
  144.9384  132.7827  150.3648 C   0  0  0  0  0  0  0  0  0  0  0  0
  144.4375  131.7309  151.3767 C   0  0  0  0  0  0  0  0  0  0  0  0
  146.3887  132.4614  149.9477 C   0  0  0  0  0  0  0  0  0  0  0  0
  144.8780  134.1843  150.9986 C   0  0  0  0  0  0  0  0  0  0  0  0
  144.1475  135.2561  150.4374 C   0  0  0  0  0  0  0  0  0  0  0  0
  144.1719  136.4885  151.1115 C   0  0  0  0  0  0  0  0  0  0  0  0
  144.9181  136.5880  152.3028 C   0  0  0  0  0  0  0  0  0  0  0  0
  144.8981  137.8618  152.9274 N   0  0  0  0  0  0  0  0  0  0  0  0
  145.6982  138.3222  153.9093 C   0  0  0  0  0  0  0  0  0  0  0  0
  146.5898  137.6720  154.4517 O   0  0  0  0  0  0  0  0  0  0  0  0
  145.4472  139.5938  154.2657 N   0  0  0  0  0  0  0  0  0  0  0  0
  146.1368  140.3826  155.2960 C   0  0  2  0  0  0  0  0  0  0  0  0
  145.3531  141.6138  155.7713 C   0  0  2  0  0  0  0  0  0  0  0  0
  143.9211  142.0076  155.8096 C   0  0  0  0  0  0  0  0  0  0  0  0
  144.1226  143.4949  155.4216 C   0  0  0  0  0  0  0  0  0  0  0  0
  145.5156  143.6186  155.0371 O   0  0  0  0  0  0  0  0  0  0  0  0
  145.8622  142.3400  154.5366 C   0  0  1  0  0  0  0  0  0  0  0  0
  147.1124  141.4624  154.7189 C   0  0  0  0  0  0  0  0  0  0  0  0
  148.3303  141.9568  155.5165 C   0  0  0  0  0  0  0  0  0  0  0  0
  149.2169  141.1460  154.5664 C   0  0  0  0  0  0  0  0  0  0  0  0
  148.0654  141.1542  153.5558 C   0  0  0  0  0  0  0  0  0  0  0  0
  145.5971  135.5171  152.7850 N   0  0  0  0  0  0  0  0  0  0  0  0
  145.5782  134.3423  152.1485 N   0  0  0  0  0  0  0  0  0  0  0  0
  144.1116  131.6684  148.6694 H   0  0  0  0  0  0  0  0  0  0  0  0
  144.3694  133.3678  148.3254 H   0  0  0  0  0  0  0  0  0  0  0  0
  143.0055  132.8599  149.3249 H   0  0  0  0  0  0  0  0  0  0  0  0
  143.4139  131.9400  151.6901 H   0  0  0  0  0  0  0  0  0  0  0  0
  145.0563  131.7042  152.2742 H   0  0  0  0  0  0  0  0  0  0  0  0
  144.4515  130.7281  150.9484 H   0  0  0  0  0  0  0  0  0  0  0  0
  146.4593  131.4805  149.4762 H   0  0  0  0  0  0  0  0  0  0  0  0
  147.0652  132.4548  150.8032 H   0  0  0  0  0  0  0  0  0  0  0  0
  146.7670  133.1960  149.2359 H   0  0  0  0  0  0  0  0  0  0  0  0
  143.5809  135.1638  149.5239 H   0  0  0  0  0  0  0  0  0  0  0  0
  143.6287  137.3362  150.7195 H   0  0  0  0  0  0  0  0  0  0  0  0
  144.2046  138.5069  152.5787 H   0  0  0  0  0  0  0  0  0  0  0  0
  144.7066  140.0670  153.7681 H   0  0  0  0  0  0  0  0  0  0  0  0
  146.5749  139.7903  156.1009 H   0  0  0  0  0  0  0  0  0  0  0  0
  145.8402  141.9758  156.6844 H   0  0  0  0  0  0  0  0  0  0  0  0
  143.3229  141.4715  155.0718 H   0  0  0  0  0  0  0  0  0  0  0  0
  143.4729  141.8851  156.7957 H   0  0  0  0  0  0  0  0  0  0  0  0
  143.4737  143.7693  154.5889 H   0  0  0  0  0  0  0  0  0  0  0  0
  143.9098  144.1667  156.2535 H   0  0  0  0  0  0  0  0  0  0  0  0
  145.3112  142.1063  153.6208 H   0  0  0  0  0  0  0  0  0  0  0  0
  148.4856  143.0328  155.4236 H   0  0  0  0  0  0  0  0  0  0  0  0
  148.3639  141.6316  156.5568 H   0  0  0  0  0  0  0  0  0  0  0  0
  150.1194  141.6599  154.2342 H   0  0  0  0  0  0  0  0  0  0  0  0
  149.4360  140.1469  154.9457 H   0  0  0  0  0  0  0  0  0  0  0  0
  147.8972  140.2003  153.0554 H   0  0  0  0  0  0  0  0  0  0  0  0
  148.1379  141.9767  152.8425 H   0  0  0  0  0  0  0  0  0  0  0  0
  1  2  1  0  0  0  0
  1 25  1  0  0  0  0
  1 26  1  0  0  0  0
  1 27  1  0  0  0  0
  2  3  1  0  0  0  0
  2  4  1  0  0  0  0
  2  5  1  0  0  0  0
  3 28  1  0  0  0  0
  3 29  1  0  0  0  0
  3 30  1  0  0  0  0
  4 31  1  0  0  0  0
  4 32  1  0  0  0  0
  4 33  1  0  0  0  0
  5 24  1  0  0  0  0
  5  6  2  0  0  0  0
  6  7  1  0  0  0  0
  6 34  1  0  0  0  0
  7  8  2  0  0  0  0
  7 35  1  0  0  0  0
  8  9  1  0  0  0  0
  8 23  1  0  0  0  0
  9 10  1  0  0  0  0
  9 36  1  0  0  0  0
 10 11  2  0  0  0  0
 10 12  1  0  0  0  0
 12 13  1  0  0  0  0
 12 37  1  0  0  0  0
 13 19  1  0  0  0  0
 13 14  1  0  0  0  0
 13 38  1  0  0  0  0
 14 18  1  0  0  0  0
 14 15  1  0  0  0  0
 14 39  1  0  0  0  0
 15 16  1  0  0  0  0
 15 40  1  0  0  0  0
 15 41  1  0  0  0  0
 16 17  1  0  0  0  0
 16 42  1  0  0  0  0
 16 43  1  0  0  0  0
 17 18  1  0  0  0  0
 18 19  1  0  0  0  0
 18 44  1  0  0  0  0
 19 22  1  0  0  0  0
 19 20  1  0  0  0  0
 20 21  1  0  0  0  0
 20 45  1  0  0  0  0
 20 46  1  0  0  0  0
 21 22  1  0  0  0  0
 21 47  1  0  0  0  0
 21 48  1  0  0  0  0
 22 49  1  0  0  0  0
 22 50  1  0  0  0  0
 23 24  2  0  0  0  0
M  END
> <s_m_source_file>
AV-unprocessed.smi

> <i_m_source_file_index>
2829

> <i_lp_mmshare_version>
43012

> <i_f3d_flags>
0

> <s_epik_input>
W0NIM11DKFtDSDNdKShbQ0gzXSljMVtjSF1bY0hdYyhubjEpW05IXUMoPU8pW05IXVtDQEBIXTJbQ0BIXShbQ0gyXVtDSDJdTzMpW0NAQEhdM0MyNFtDSDJdW0NIMl1bQ0gyXTQ=

> <s_epik_cmdline>
J2VwaWtfcHl0aG9uJywgJy1waCcsICc3LjAnLCAnLXRuJywgJzgnLCAnLW1hJywgJzIwMCcsICctbWV0YWxfYmluZGluZycsICctaW1hZScsICc8aW5maWxlLm1hZT4nLCAnLW9tYWUnLCAnPG91dGZpbGUubWFlPic=

> <r_lp_tautomer_probability>
1

> <r_epik_Ionization_Penalty>
0.011915

> <r_epik_Ionization_Penalty_Charging>
0

> <r_epik_Ionization_Penalty_Neutral>
0.011915

> <r_epik_State_Penalty>
0.00486223

> <r_epik_Charging_Adjusted_Penalty>
0.00486223

> <i_epik_Tot_Q>
0

> <i_epik_Tot_abs_Q>
0

> <r_epik_Metal_State_Penalty>
-0

> <b_epik_Metal_Only>
0

> <s_lp_Force_Field>
OPLS_2005

> <r_lp_Energy>
85.5181

> <b_lp_Chiralities_Consistent>
1

> <s_lp_Variant>
AV-unprocessed.smi:2829-1

> <Gold.Version>
5.8.1

> <Gold.Id.Protein>
6NUR|6NUR_protein|mol2

> <Gold.PLP.Fitness>
37.7315

> <Gold.PLP.PLP>
-32.2237

> <Gold.PLP.part.hbond>
-2.0000

> <Gold.PLP.part.metal>
0.0000

> <Gold.PLP.part.buried>
3.9328

> <Gold.PLP.part.nonpolar>
-34.4846

> <Gold.PLP.part.repulsive>
0.4789

> <Gold.PLP.ligand.clash>
0.0000

> <Gold.PLP.ligand.torsion>
0.2859

> <Gold.PLP.Chemscore.Hbond>
1.9204

> <Gold.PLP.Chemscore.CHOScore>
0.0000

> <Gold.PLP.Chemscore.Metal>
0.0000

> <Gold.Chemscore.Hbonds>
donor molecule, donor type, donor heavy atom, donor atom, acceptor molecule, acceptor atom, score
      L1  H     9    36       P1 10175  0.91
      L1  H    12    37       P1 10175  1.00

> <Gold.PLP.Chemscore.Internal.Correction>
0.3184

> <Gold.Rescore>
     Score         DG    S(hbond)    S(metal)    S(lipo)     H(rot)  DE(clash)    DE(int)     intcor
     16.34     -20.87       1.90        0.00     102.76       1.16       3.00       1.52       ----

> <Gold.Chemscore.Fitness>
16.3450

> <Gold.Chemscore.DG>
-20.8678

> <Gold.Chemscore.ZeroCoef>
-5.4800

> <Gold.Chemscore.Hbond>
1.8980

> <Gold.Chemscore.Metal>
0.0000

> <Gold.Chemscore.Lipo>
102.7556

> <Gold.Chemscore.Internal_Hbond>
0.0000

> <Gold.Chemscore.DEClash>
3.0007

> <Gold.Chemscore.DEInternal>
1.5221

> <Gold.Chemscore.Rot>
1.1618

> <Gold.Chemscore.Internal.Correction>
   9.000000E+99

> <Gold.Chemscore.Hbonds>
donor molecule, donor type, donor heavy atom, donor atom, acceptor molecule, acceptor atom, score
      L1  H     9    36       P1 10175  0.85
      L1  H    12    37       P1 10175  0.99

> <Gold.Chemscore.Hbond.Weighted>
-6.3395

> <Gold.Chemscore.Metal.Weighted>
-0.0000

> <Gold.Chemscore.Lipo.Weighted>
-12.0224

> <Gold.Chemscore.Internal_Hbond.Weighted>
0.0000

> <Gold.Chemscore.DEClash.Weighted>
3.0007

> <Gold.Chemscore.DEInternal.Weighted>
1.5221

> <Gold.Chemscore.Rot.Weighted>
2.9741

> <Gold.Chemscore.Internal.Correction.Weighted>
   9.000000E+99

> <Gold.Protein.RotatedTorsions>
[ 6907 6896 6895 6894 ] final  149.13 input  -60.11 | X-H torsion
[ 7974 7965 7964 7962 ] final   48.19 input  175.53 | X-H torsion
[ 8008 7997 7996 7995 ] final -160.31 input   59.86 | X-H torsion
[ 10167 10162 10161 10158 ] final  -89.09 input  -65.29 | X-H torsion
[ 10718 10713 10712 10709 ] final  -36.42 input   66.30 | X-H torsion
[ 10763 10752 10751 10750 ] final  -73.50 input  -60.55 | X-H torsion
[ 11005 11000 10999 10996 ] final  -62.53 input  -57.11 | X-H torsion

> <Gold.Protein.ActiveResidues>
 VAL166  LYS551  ARG553  GLY616  TRP617  ASP618  TYR619  PRO620  LYS621  CYS622 
 ASP623  PHE694  ASN695  SER759  ASP760  ASP761  ALA762  ILE779  LEU786  VAL792 
 PHE793  MET794  SER795  GLU796  ALA797  LYS798  CYS799  TRP800  GLU811  SER814 

> <Gold.Protein.RotatedAtoms>
  152.1322  133.4414  159.4725 H   0  0  0  0  0  0  0  0  0  0  0  0  # atno 6907 bound_to 6896
  150.6879  134.2407  159.4480 H   0  0  0  0  0  0  0  0  0  0  0  0  # atno 6908 bound_to 6896
  152.0292  134.9777  160.0623 H   0  0  0  0  0  0  0  0  0  0  0  0  # atno 6909 bound_to 6896
  146.0228  139.4671  142.9886 H   0  0  0  0  0  0  0  0  0  0  0  0  # atno 7974 bound_to 7965
  155.7756  140.0858  157.2085 H   0  0  0  0  0  0  0  0  0  0  0  0  # atno 8008 bound_to 7997
  154.3993  140.1517  156.3050 H   0  0  0  0  0  0  0  0  0  0  0  0  # atno 8009 bound_to 7997
  155.8704  140.3426  155.5820 H   0  0  0  0  0  0  0  0  0  0  0  0  # atno 8010 bound_to 7997
  140.3682  143.2807  151.9532 H   0  0  0  0  0  0  0  0  0  0  0  0  # atno 10167 bound_to 10162
  156.3271  130.4274  149.7906 H   0  0  0  0  0  0  0  0  0  0  0  0  # atno 10718 bound_to 10713
  154.4603  135.5895  153.6251 H   0  0  0  0  0  0  0  0  0  0  0  0  # atno 10763 bound_to 10752
  152.9822  135.6042  154.3494 H   0  0  0  0  0  0  0  0  0  0  0  0  # atno 10764 bound_to 10752
  154.3365  135.2842  155.2424 H   0  0  0  0  0  0  0  0  0  0  0  0  # atno 10765 bound_to 10752
  141.1363  133.6641  156.5542 H   0  0  0  0  0  0  0  0  0  0  0  0  # atno 11005 bound_to 11000
  145.7166  141.0089  143.1425 LP  0  0  0  0  0  0  0  0  0  0  0  0  # atno 17320 bound_to 7965
  144.6997  139.8821  143.7448 LP  0  0  0  0  0  0  0  0  0  0  0  0  # atno 17321 bound_to 7965
  139.4806  144.5931  151.7738 LP  0  0  0  0  0  0  0  0  0  0  0  0  # atno 17342 bound_to 10162
  140.5059  144.1098  150.5982 LP  0  0  0  0  0  0  0  0  0  0  0  0  # atno 17343 bound_to 10162
  156.5193  130.8207  151.3197 LP  0  0  0  0  0  0  0  0  0  0  0  0  # atno 17370 bound_to 10713
  157.7423  130.9888  150.2509 LP  0  0  0  0  0  0  0  0  0  0  0  0  # atno 17371 bound_to 10713
  140.4039  134.7332  157.4796 LP  0  0  0  0  0  0  0  0  0  0  0  0  # atno 17394 bound_to 11000
  140.0476  134.6177  155.8902 LP  0  0  0  0  0  0  0  0  0  0  0  0  # atno 17395 bound_to 11000

$$$$
