AV-unprocessed.smi:2969|AV-procd|sdf|11329|dock10
  -GOLD-   2272016243D 1   1.00000     0.00000
 Structure written by MMmdl.
 40 40  0  0  0  0  0  0  0  0  1 V2000
  146.0232  133.2149  151.6193 C   0  0  0  0  0  0  0  0  0  0  0  0
  146.7778  132.8341  152.8995 C   0  0  0  0  0  0  0  0  0  0  0  0
  148.2571  133.2692  152.9233 C   0  0  0  0  0  0  0  0  0  0  0  0
  148.8266  133.3545  154.2565 N   0  0  0  0  0  0  0  0  0  0  0  0
  149.1973  134.5645  154.8507 C   0  0  0  0  0  0  0  0  0  0  0  0
  149.0196  135.7278  154.1155 N   0  0  0  0  0  0  0  0  0  0  0  0
  149.7449  134.6151  156.1022 C   0  0  0  0  0  0  0  0  0  0  0  0
  150.0772  135.8389  156.7130 N   0  0  0  0  0  0  0  0  0  0  0  0
  149.3655  136.1729  157.9590 C   0  0  0  0  0  0  0  0  0  0  0  0
  147.8421  136.0253  157.8153 C   0  0  0  0  0  0  0  0  0  0  0  0
  147.2194  136.4258  159.0242 O   0  0  0  0  0  0  0  0  0  0  0  0
  147.5900  135.6142  160.1237 C   0  0  0  0  0  0  0  0  0  0  0  0
  150.9856  136.7029  156.1827 C   0  0  0  0  0  0  0  0  0  0  0  0
  151.4864  136.5103  155.0728 O   0  0  0  0  0  0  0  0  0  0  0  0
  151.4590  137.9346  156.9846 C   0  0  0  0  0  0  0  0  0  0  0  0
  152.0077  137.5590  158.1405 F   0  0  0  0  0  0  0  0  0  0  0  0
  152.3787  138.5978  156.2820 F   0  0  0  0  0  0  0  0  0  0  0  0
  150.4349  138.7548  157.2136 F   0  0  0  0  0  0  0  0  0  0  0  0
  149.9200  133.3854  156.8879 C   0  0  0  0  0  0  0  0  0  0  0  0
  150.3573  133.3216  158.0362 O   0  0  0  0  0  0  0  0  0  0  0  0
  149.5413  132.2146  156.2372 N   0  0  0  0  0  0  0  0  0  0  0  0
  149.0131  132.1356  154.9540 C   0  0  0  0  0  0  0  0  0  0  0  0
  148.7368  131.0303  154.4866 O   0  0  0  0  0  0  0  0  0  0  0  0
  149.6611  131.3476  156.7404 H   0  0  0  0  0  0  0  0  0  0  0  0
  145.0073  132.8202  151.6380 H   0  0  0  0  0  0  0  0  0  0  0  0
  146.5198  132.8135  150.7356 H   0  0  0  0  0  0  0  0  0  0  0  0
  145.9522  134.2967  151.5052 H   0  0  0  0  0  0  0  0  0  0  0  0
  146.2540  133.2508  153.7601 H   0  0  0  0  0  0  0  0  0  0  0  0
  146.7345  131.7514  153.0198 H   0  0  0  0  0  0  0  0  0  0  0  0
  148.8785  132.5575  152.3794 H   0  0  0  0  0  0  0  0  0  0  0  0
  148.4078  134.2177  152.4066 H   0  0  0  0  0  0  0  0  0  0  0  0
  148.6362  135.7151  153.1812 H   0  0  0  0  0  0  0  0  0  0  0  0
  149.2353  136.6369  154.4990 H   0  0  0  0  0  0  0  0  0  0  0  0
  149.7200  135.5363  158.7714 H   0  0  0  0  0  0  0  0  0  0  0  0
  149.5956  137.1915  158.2742 H   0  0  0  0  0  0  0  0  0  0  0  0
  147.4722  136.6133  156.9740 H   0  0  0  0  0  0  0  0  0  0  0  0
  147.5938  134.9821  157.6152 H   0  0  0  0  0  0  0  0  0  0  0  0
  147.0886  135.9677  161.0244 H   0  0  0  0  0  0  0  0  0  0  0  0
  148.6659  135.6531  160.2985 H   0  0  0  0  0  0  0  0  0  0  0  0
  147.2974  134.5759  159.9623 H   0  0  0  0  0  0  0  0  0  0  0  0
  1  2  1  0  0  0  0
  1 25  1  0  0  0  0
  1 26  1  0  0  0  0
  1 27  1  0  0  0  0
  2  3  1  0  0  0  0
  2 28  1  0  0  0  0
  2 29  1  0  0  0  0
  3  4  1  0  0  0  0
  3 30  1  0  0  0  0
  3 31  1  0  0  0  0
  4 22  1  0  0  0  0
  4  5  1  0  0  0  0
  5  6  1  0  0  0  0
  5  7  2  0  0  0  0
  6 32  1  0  0  0  0
  6 33  1  0  0  0  0
  7  8  1  0  0  0  0
  7 19  1  0  0  0  0
  8  9  1  0  0  0  0
  8 13  1  0  0  0  0
  9 10  1  0  0  0  0
  9 34  1  0  0  0  0
  9 35  1  0  0  0  0
 10 11  1  0  0  0  0
 10 36  1  0  0  0  0
 10 37  1  0  0  0  0
 11 12  1  0  0  0  0
 12 38  1  0  0  0  0
 12 39  1  0  0  0  0
 12 40  1  0  0  0  0
 13 14  2  0  0  0  0
 13 15  1  0  0  0  0
 15 16  1  0  0  0  0
 15 17  1  0  0  0  0
 15 18  1  0  0  0  0
 19 20  2  0  0  0  0
 19 21  1  0  0  0  0
 21 24  1  0  0  0  0
 21 22  1  0  0  0  0
 22 23  2  0  0  0  0
M  END
> <s_m_source_file>
AV-unprocessed.smi

> <i_m_source_file_index>
2969

> <i_lp_mmshare_version>
43012

> <i_f3d_flags>
0

> <s_epik_input>
W0NIM11bQ0gyXVtDSDJdbjFjKFtOSDJdKWMoYyg9TylbbkhdYzE9TylOKEMoPU8pQyhGKShGKUYpW0NIMl1bQ0gyXU9bQ0gzXQ==

> <s_epik_cmdline>
J2VwaWtfcHl0aG9uJywgJy1waCcsICc3LjAnLCAnLXRuJywgJzgnLCAnLW1hJywgJzIwMCcsICctbWV0YWxfYmluZGluZycsICctaW1hZScsICc8aW5maWxlLm1hZT4nLCAnLW9tYWUnLCAnPG91dGZpbGUubWFlPic=

> <r_lp_tautomer_probability>
1

> <r_epik_Ionization_Penalty>
0.000513649

> <r_epik_Ionization_Penalty_Charging>
0.000443136

> <r_epik_Ionization_Penalty_Neutral>
7.05129e-05

> <r_epik_State_Penalty>
-0

> <r_epik_Charging_Adjusted_Penalty>
0.000443136

> <i_epik_Tot_Q>
0

> <i_epik_Tot_abs_Q>
0

> <r_epik_Metal_State_Penalty>
0.330936

> <b_epik_Metal_Only>
0

> <s_epik_Chemistry_Notes>
This compound has an imine and may undergo hydrolysis.

> <s_lp_Force_Field>
OPLS_2005

> <r_lp_Energy>
31.7287

> <b_lp_Chiralities_Consistent>
1

> <s_lp_Variant>
AV-unprocessed.smi:2969-1

> <Gold.Version>
5.8.1

> <Gold.Id.Protein>
6NUR|6NUR_protein|mol2

> <Gold.PLP.Fitness>
33.6911

> <Gold.PLP.PLP>
-27.4540

> <Gold.PLP.part.hbond>
-2.4085

> <Gold.PLP.part.metal>
0.0000

> <Gold.PLP.part.buried>
-2.4681

> <Gold.PLP.part.nonpolar>
-22.5689

> <Gold.PLP.part.repulsive>
0.2301

> <Gold.PLP.ligand.clash>
3.8880

> <Gold.PLP.ligand.torsion>
1.4081

> <Gold.PLP.Chemscore.Hbond>
2.6240

> <Gold.PLP.Chemscore.CHOScore>
0.0000

> <Gold.PLP.Chemscore.Metal>
0.0000

> <Gold.Chemscore.Hbonds>
donor molecule, donor type, donor heavy atom, donor atom, acceptor molecule, acceptor atom, score
      L1  H     6    32       P1  7948  0.59
      P1  H  6896  6907       L1    20  0.66
      P1  H 10752 10764       L1    14  1.00

> <Gold.PLP.Chemscore.Internal.Correction>
5.0693

> <Gold.Rescore>
     Score         DG    S(hbond)    S(metal)    S(lipo)     H(rot)  DE(clash)    DE(int)     intcor
      8.88     -12.55       2.65        0.00      34.43       2.27       0.10       3.57       ----

> <Gold.Chemscore.Fitness>
8.8757

> <Gold.Chemscore.DG>
-12.5489

> <Gold.Chemscore.ZeroCoef>
-5.4800

> <Gold.Chemscore.Hbond>
2.6469

> <Gold.Chemscore.Metal>
0.0000

> <Gold.Chemscore.Lipo>
34.4338

> <Gold.Chemscore.Internal_Hbond>
0.0000

> <Gold.Chemscore.DEClash>
0.1015

> <Gold.Chemscore.DEInternal>
3.5717

> <Gold.Chemscore.Rot>
2.2658

> <Gold.Chemscore.Internal.Correction>
   9.000000E+99

> <Gold.Chemscore.Hbonds>
donor molecule, donor type, donor heavy atom, donor atom, acceptor molecule, acceptor atom, score
      L1  H     6    32       P1  7948  0.56
      P1  H  6896  6907       L1    20  0.63
      P1  H 10752 10764       L1    14  1.00

> <Gold.Chemscore.Hbond.Weighted>
-8.8406

> <Gold.Chemscore.Metal.Weighted>
-0.0000

> <Gold.Chemscore.Lipo.Weighted>
-4.0288

> <Gold.Chemscore.Internal_Hbond.Weighted>
0.0000

> <Gold.Chemscore.DEClash.Weighted>
0.1015

> <Gold.Chemscore.DEInternal.Weighted>
3.5717

> <Gold.Chemscore.Rot.Weighted>
5.8005

> <Gold.Chemscore.Internal.Correction.Weighted>
   9.000000E+99

> <Gold.Protein.RotatedTorsions>
[ 6907 6896 6895 6894 ] final -147.03 input  -60.11 | X-H torsion
[ 7974 7965 7964 7962 ] final -137.47 input  175.53 | X-H torsion
[ 8008 7997 7996 7995 ] final   74.93 input   59.86 | X-H torsion
[ 10167 10162 10161 10158 ] final   47.28 input  -65.29 | X-H torsion
[ 10718 10713 10712 10709 ] final   -2.89 input   66.30 | X-H torsion
[ 10763 10752 10751 10750 ] final  -65.65 input  -60.55 | X-H torsion
[ 11005 11000 10999 10996 ] final   -5.40 input  -57.11 | X-H torsion

> <Gold.Protein.ActiveResidues>
 VAL166  LYS551  ARG553  GLY616  TRP617  ASP618  TYR619  PRO620  LYS621  CYS622 
 ASP623  PHE694  ASN695  SER759  ASP760  ASP761  ALA762  ILE779  LEU786  VAL792 
 PHE793  MET794  SER795  GLU796  ALA797  LYS798  CYS799  TRP800  GLU811  SER814 

> <Gold.Protein.RotatedAtoms>
  151.1499  133.4914  159.2595 H   0  0  0  0  0  0  0  0  0  0  0  0  # atno 6907 bound_to 6896
  151.1565  135.0252  159.8701 H   0  0  0  0  0  0  0  0  0  0  0  0  # atno 6908 bound_to 6896
  152.5463  134.1377  159.8519 H   0  0  0  0  0  0  0  0  0  0  0  0  # atno 6909 bound_to 6896
  144.8839  140.6547  143.5188 H   0  0  0  0  0  0  0  0  0  0  0  0  # atno 7974 bound_to 7965
  155.8055  140.3475  155.5427 H   0  0  0  0  0  0  0  0  0  0  0  0  # atno 8008 bound_to 7997
  155.8494  140.0954  157.1704 H   0  0  0  0  0  0  0  0  0  0  0  0  # atno 8009 bound_to 7997
  154.4007  140.1379  156.3813 H   0  0  0  0  0  0  0  0  0  0  0  0  # atno 8010 bound_to 7997
  140.3053  144.2885  150.6210 H   0  0  0  0  0  0  0  0  0  0  0  0  # atno 10167 bound_to 10162
  156.7841  130.5340  149.5746 H   0  0  0  0  0  0  0  0  0  0  0  0  # atno 10718 bound_to 10713
  154.3482  135.6142  153.5629 H   0  0  0  0  0  0  0  0  0  0  0  0  # atno 10763 bound_to 10752
  152.9800  135.5786  154.4774 H   0  0  0  0  0  0  0  0  0  0  0  0  # atno 10764 bound_to 10752
  154.4491  135.2852  155.1771 H   0  0  0  0  0  0  0  0  0  0  0  0  # atno 10765 bound_to 10752
  140.6907  133.9073  155.8616 H   0  0  0  0  0  0  0  0  0  0  0  0  # atno 11005 bound_to 11000
  145.3904  139.1618  143.4232 LP  0  0  0  0  0  0  0  0  0  0  0  0  # atno 17320 bound_to 7965
  146.3012  140.3993  142.8703 LP  0  0  0  0  0  0  0  0  0  0  0  0  # atno 17321 bound_to 7965
  140.5616  143.2191  151.7756 LP  0  0  0  0  0  0  0  0  0  0  0  0  # atno 17342 bound_to 10162
  139.4906  144.4341  151.9839 LP  0  0  0  0  0  0  0  0  0  0  0  0  # atno 17343 bound_to 10162
  156.1199  130.6102  151.0178 LP  0  0  0  0  0  0  0  0  0  0  0  0  # atno 17370 bound_to 10713
  157.6632  131.0877  150.7790 LP  0  0  0  0  0  0  0  0  0  0  0  0  # atno 17371 bound_to 10713
  141.0243  134.0845  157.4086 LP  0  0  0  0  0  0  0  0  0  0  0  0  # atno 17394 bound_to 11000
  139.8924  135.0124  156.6845 LP  0  0  0  0  0  0  0  0  0  0  0  0  # atno 17395 bound_to 11000

$$$$
