AV-unprocessed.smi:2886|AV-procd|sdf|11091|dock2
  -GOLD-   2272015563D 1   1.00000     0.00000
 Structure written by MMmdl.
 28 30  0  0  0  0  0  0  0  0  3 V2000
  153.4029  136.5715  160.1745 O   0  0  0  0  0  0  0  0  0  0  0  0
  153.6896  137.7357  160.4460 C   0  0  0  0  0  0  0  0  0  0  0  0
  154.6638  138.0776  161.3411 N   0  5  0  0  0  0  0  0  0  0  0  0
  154.9497  139.3317  161.6121 N   0  3  0  0  0  0  0  0  0  0  0  0
  154.3299  140.3656  161.0519 C   0  0  0  0  0  0  0  0  0  0  0  0
  153.2982  140.1478  160.0966 C   0  0  0  0  0  0  0  0  0  0  0  0
  152.6207  141.1965  159.4872 N   0  0  0  0  0  0  0  0  0  0  0  0
  152.8024  142.6292  159.6763 C   0  0  2  0  0  0  0  0  0  0  0  0
  152.4994  143.0781  161.1081 C   0  0  0  0  0  0  0  0  0  0  0  0
  151.4334  144.1570  160.8778 C   0  0  1  0  0  0  0  0  0  0  0  0
  152.0072  145.4074  160.1961 C   0  0  0  0  0  0  0  0  0  0  0  0
  152.2142  144.9162  158.7634 C   0  0  0  0  0  0  0  0  0  0  0  0
  151.7822  143.4475  158.8680 C   0  0  2  0  0  0  0  0  0  0  0  0
  150.7209  143.5737  159.8012 O   0  0  0  0  0  0  0  0  0  0  0  0
  152.9779  138.8549  159.8014 C   0  0  0  0  0  0  0  0  0  0  0  0
  151.7311  138.4888  158.6552 Cl  0  0  0  0  0  0  0  0  0  0  0  0
  155.6859  139.5659  162.2965 H   0  0  0  0  0  0  0  0  0  0  0  0
  154.6452  141.3541  161.3608 H   0  0  0  0  0  0  0  0  0  0  0  0
  152.0248  140.9527  158.7082 H   0  0  0  0  0  0  0  0  0  0  0  0
  153.8097  142.9182  159.3766 H   0  0  0  0  0  0  0  0  0  0  0  0
  152.0882  142.2625  161.7050 H   0  0  0  0  0  0  0  0  0  0  0  0
  153.3797  143.4639  161.6232 H   0  0  0  0  0  0  0  0  0  0  0  0
  150.8243  144.3706  161.7565 H   0  0  0  0  0  0  0  0  0  0  0  0
  151.2897  146.2287  160.2188 H   0  0  0  0  0  0  0  0  0  0  0  0
  152.9313  145.7465  160.6655 H   0  0  0  0  0  0  0  0  0  0  0  0
  151.5648  145.4597  158.0763 H   0  0  0  0  0  0  0  0  0  0  0  0
  153.2431  145.0271  158.4197 H   0  0  0  0  0  0  0  0  0  0  0  0
  151.5000  143.0047  157.9120 H   0  0  0  0  0  0  0  0  0  0  0  0
  1  2  2  0  0  0  0
  2  3  1  0  0  0  0
  2 15  1  0  0  0  0
  3  4  1  0  0  0  0
  4  5  2  0  0  0  0
  4 17  1  0  0  0  0
  5  6  1  0  0  0  0
  5 18  1  0  0  0  0
  6 15  2  0  0  0  0
  6  7  1  0  0  0  0
  7  8  1  0  0  0  0
  7 19  1  0  0  0  0
  8 13  1  0  0  0  0
  8  9  1  0  0  0  0
  8 20  1  0  0  0  0
  9 10  1  0  0  0  0
  9 21  1  0  0  0  0
  9 22  1  0  0  0  0
 10 14  1  0  0  0  0
 10 11  1  0  0  0  0
 10 23  1  0  0  0  0
 11 12  1  0  0  0  0
 11 24  1  0  0  0  0
 11 25  1  0  0  0  0
 12 13  1  0  0  0  0
 12 26  1  0  0  0  0
 12 27  1  0  0  0  0
 13 14  1  0  0  0  0
 13 28  1  0  0  0  0
 15 16  1  0  0  0  0
M  CHG  1   3  -1
M  CHG  1   4   1
M  END
> <s_m_source_file>
AV-unprocessed.smi

> <i_m_source_file_index>
2886

> <i_lp_mmshare_version>
43012

> <i_f3d_flags>
0

> <s_epik_input>
Tz1jMVtuSF1uW2NIXWMoYzFDbClbTkhdW0NASF0oW0NIMl1bQ0BASF0yMylbQ0BASF0oTzMpW0NIMl1bQ0gyXTI=

> <s_epik_cmdline>
J2VwaWtfcHl0aG9uJywgJy1waCcsICc3LjAnLCAnLXRuJywgJzgnLCAnLW1hJywgJzIwMCcsICctbWV0YWxfYmluZGluZycsICctaW1hZScsICc8aW5maWxlLm1hZT4nLCAnLW9tYWUnLCAnPG91dGZpbGUubWFlPic=

> <r_lp_tautomer_probability>
0.0138196

> <r_epik_Ionization_Penalty>
2.43027

> <r_epik_Ionization_Penalty_Charging>
2.43027

> <r_epik_Ionization_Penalty_Neutral>
1.33267e-06

> <r_epik_State_Penalty>
2.7044

> <r_epik_Charging_Adjusted_Penalty>
5.13467

> <i_epik_Tot_Q>
0

> <i_epik_Tot_abs_Q>
2

> <r_epik_Metal_State_Penalty>
2.98589

> <b_epik_Metal_Only>
0

> <s_lp_Force_Field>
OPLS_2005

> <r_lp_Energy>
57.4961

> <b_lp_Chiralities_Consistent>
1

> <s_lp_Variant>
AV-unprocessed.smi:2886-5

> <Gold.Version>
5.8.1

> <Gold.Id.Protein>
6NUR|6NUR_protein|mol2

> <Gold.PLP.Fitness>
38.3578

> <Gold.PLP.PLP>
-35.3585

> <Gold.PLP.part.hbond>
-1.3869

> <Gold.PLP.part.metal>
0.0000

> <Gold.PLP.part.buried>
-5.7764

> <Gold.PLP.part.nonpolar>
-29.1901

> <Gold.PLP.part.repulsive>
0.1987

> <Gold.PLP.ligand.clash>
0.0000

> <Gold.PLP.ligand.torsion>
0.0097

> <Gold.PLP.Chemscore.Hbond>
1.0000

> <Gold.PLP.Chemscore.CHOScore>
0.0000

> <Gold.PLP.Chemscore.Metal>
0.0000

> <Gold.Chemscore.Hbonds>
donor molecule, donor type, donor heavy atom, donor atom, acceptor molecule, acceptor atom, score
      P1  H  6896  6907       L1     1  1.00

> <Gold.PLP.Chemscore.Internal.Correction>
0.0187

> <Gold.Rescore>
     Score         DG    S(hbond)    S(metal)    S(lipo)     H(rot)  DE(clash)    DE(int)     intcor
     17.99     -18.03       0.97        0.00     101.32       1.00       0.02       0.02       ----

> <Gold.Chemscore.Fitness>
17.9921

> <Gold.Chemscore.DG>
-18.0259

> <Gold.Chemscore.ZeroCoef>
-5.4800

> <Gold.Chemscore.Hbond>
0.9734

> <Gold.Chemscore.Metal>
0.0000

> <Gold.Chemscore.Lipo>
101.3232

> <Gold.Chemscore.Internal_Hbond>
0.0000

> <Gold.Chemscore.DEClash>
0.0174

> <Gold.Chemscore.DEInternal>
0.0164

> <Gold.Chemscore.Rot>
1.0000

> <Gold.Chemscore.Internal.Correction>
   9.000000E+99

> <Gold.Chemscore.Hbonds>
donor molecule, donor type, donor heavy atom, donor atom, acceptor molecule, acceptor atom, score
      P1  H  6896  6907       L1     1  0.93

> <Gold.Chemscore.Hbond.Weighted>
-3.2510

> <Gold.Chemscore.Metal.Weighted>
-0.0000

> <Gold.Chemscore.Lipo.Weighted>
-11.8548

> <Gold.Chemscore.Internal_Hbond.Weighted>
0.0000

> <Gold.Chemscore.DEClash.Weighted>
0.0174

> <Gold.Chemscore.DEInternal.Weighted>
0.0164

> <Gold.Chemscore.Rot.Weighted>
2.5600

> <Gold.Chemscore.Internal.Correction.Weighted>
   9.000000E+99

> <Gold.Protein.RotatedTorsions>
[ 6907 6896 6895 6894 ] final   38.35 input  -60.11 | X-H torsion
[ 7974 7965 7964 7962 ] final   32.80 input  175.53 | X-H torsion
[ 8008 7997 7996 7995 ] final  -42.99 input   59.86 | X-H torsion
[ 10167 10162 10161 10158 ] final  136.80 input  -65.29 | X-H torsion
[ 10718 10713 10712 10709 ] final   51.17 input   66.30 | X-H torsion
[ 10763 10752 10751 10750 ] final -149.80 input  -60.55 | X-H torsion
[ 11005 11000 10999 10996 ] final -179.36 input  -57.11 | X-H torsion

> <Gold.Protein.ActiveResidues>
 VAL166  LYS551  ARG553  GLY616  TRP617  ASP618  TYR619  PRO620  LYS621  CYS622 
 ASP623  PHE694  ASN695  SER759  ASP760  ASP761  ALA762  ILE779  LEU786  VAL792 
 PHE793  MET794  SER795  GLU796  ALA797  LYS798  CYS799  TRP800  GLU811  SER814 

> <Gold.Protein.RotatedAtoms>
  152.1553  134.8956  160.0545 H   0  0  0  0  0  0  0  0  0  0  0  0  # atno 6907 bound_to 6896
  151.9972  133.3807  159.4176 H   0  0  0  0  0  0  0  0  0  0  0  0  # atno 6908 bound_to 6896
  150.6880  134.3795  159.5071 H   0  0  0  0  0  0  0  0  0  0  0  0  # atno 6909 bound_to 6896
  146.1462  139.6479  142.9129 H   0  0  0  0  0  0  0  0  0  0  0  0  # atno 7974 bound_to 7965
  154.3997  140.1459  156.3446 H   0  0  0  0  0  0  0  0  0  0  0  0  # atno 8008 bound_to 7997
  155.8325  140.3465  155.5560 H   0  0  0  0  0  0  0  0  0  0  0  0  # atno 8009 bound_to 7997
  155.8173  140.0893  157.1860 H   0  0  0  0  0  0  0  0  0  0  0  0  # atno 8010 bound_to 7997
  139.5167  144.6445  151.5479 H   0  0  0  0  0  0  0  0  0  0  0  0  # atno 10167 bound_to 10162
  157.4955  130.8404  149.8254 H   0  0  0  0  0  0  0  0  0  0  0  0  # atno 10718 bound_to 10713
  154.8156  135.3300  154.7185 H   0  0  0  0  0  0  0  0  0  0  0  0  # atno 10763 bound_to 10752
  153.7826  135.6917  153.4890 H   0  0  0  0  0  0  0  0  0  0  0  0  # atno 10764 bound_to 10752
  153.1970  135.4530  155.0167 H   0  0  0  0  0  0  0  0  0  0  0  0  # atno 10765 bound_to 10752
  140.4195  134.6619  157.4656 H   0  0  0  0  0  0  0  0  0  0  0  0  # atno 11005 bound_to 11000
  145.4931  141.0438  143.2582 LP  0  0  0  0  0  0  0  0  0  0  0  0  # atno 17320 bound_to 7965
  144.7850  139.6447  143.7138 LP  0  0  0  0  0  0  0  0  0  0  0  0  # atno 17321 bound_to 7965
  140.6224  143.9233  150.6537 LP  0  0  0  0  0  0  0  0  0  0  0  0  # atno 17342 bound_to 10162
  140.2511  143.3593  152.1405 LP  0  0  0  0  0  0  0  0  0  0  0  0  # atno 17343 bound_to 10162
  156.0198  130.3800  150.1997 LP  0  0  0  0  0  0  0  0  0  0  0  0  # atno 17370 bound_to 10713
  157.0186  130.9972  151.3346 LP  0  0  0  0  0  0  0  0  0  0  0  0  # atno 17371 bound_to 10713
  140.0210  134.6547  155.9239 LP  0  0  0  0  0  0  0  0  0  0  0  0  # atno 17394 bound_to 11000
  141.1790  133.6544  156.4942 LP  0  0  0  0  0  0  0  0  0  0  0  0  # atno 17395 bound_to 11000

$$$$
