AV-unprocessed.smi:527|AV-procd|sdf|2822|dock10
  -GOLD-   2262023303D 1   1.00000     0.00000
 Structure written by MMmdl.
 42 43  0  0  0  0  0  0  0  0  1 V2000
  149.4426  141.1503  154.5235 C   0  0  0  0  0  0  0  0  0  0  0  0
  149.4865  139.6146  154.4320 C   0  0  1  0  0  0  0  0  0  0  0  0
  150.9481  139.1294  154.5260 C   0  0  0  0  0  0  0  0  0  0  0  0
  151.0596  137.6023  154.4279 C   0  0  0  0  0  0  0  0  0  0  0  0
  150.2013  136.9200  155.5021 C   0  0  0  0  0  0  0  0  0  0  0  0
  148.7292  137.3727  155.4311 C   0  0  2  0  0  0  0  0  0  0  0  0
  148.0809  136.8486  154.2274 N   0  0  0  0  0  0  0  0  0  0  0  0
  146.7999  136.4626  154.1357 C   0  0  0  0  0  0  0  0  0  0  0  0
  146.0100  136.5052  155.0815 O   0  0  0  0  0  0  0  0  0  0  0  0
  146.5154  136.0296  152.8927 N   0  0  0  0  0  0  0  0  0  0  0  0
  145.3336  135.5673  152.4343 C   0  0  0  0  0  0  0  0  0  0  0  0
  144.2982  135.4803  153.0972 O   0  0  0  0  0  0  0  0  0  0  0  0
  145.3202  135.1229  150.9712 C   0  0  0  0  0  0  0  0  0  0  0  0
  144.9335  133.7295  150.8545 N   0  0  0  0  0  0  0  0  0  0  0  0
  143.7615  133.2271  150.3033 C   0  0  0  0  0  0  0  0  0  0  0  0
  143.8294  131.8569  150.4170 C   0  0  0  0  0  0  0  0  0  0  0  0
  145.0255  131.4962  151.0331 N   0  0  0  0  0  0  0  0  0  0  0  0
  145.6256  132.6567  151.2630 C   0  0  0  0  0  0  0  0  0  0  0  0
  148.6065  138.9172  155.5073 C   0  0  2  0  0  0  0  0  0  0  0  0
  147.1304  139.3624  155.4645 C   0  0  0  0  0  0  0  0  0  0  0  0
  149.7419  141.4979  155.5126 H   0  0  0  0  0  0  0  0  0  0  0  0
  148.4462  141.5401  154.3170 H   0  0  0  0  0  0  0  0  0  0  0  0
  150.1159  141.6040  153.7959 H   0  0  0  0  0  0  0  0  0  0  0  0
  149.1076  139.3382  153.4470 H   0  0  0  0  0  0  0  0  0  0  0  0
  151.5443  139.5848  153.7343 H   0  0  0  0  0  0  0  0  0  0  0  0
  151.3853  139.4625  155.4683 H   0  0  0  0  0  0  0  0  0  0  0  0
  150.7474  137.2722  153.4364 H   0  0  0  0  0  0  0  0  0  0  0  0
  152.1009  137.2988  154.5388 H   0  0  0  0  0  0  0  0  0  0  0  0
  150.2747  135.8360  155.4059 H   0  0  0  0  0  0  0  0  0  0  0  0
  150.6033  137.1620  156.4867 H   0  0  0  0  0  0  0  0  0  0  0  0
  148.2116  136.9603  156.2994 H   0  0  0  0  0  0  0  0  0  0  0  0
  148.6589  136.7739  153.4033 H   0  0  0  0  0  0  0  0  0  0  0  0
  147.2747  136.0467  152.2282 H   0  0  0  0  0  0  0  0  0  0  0  0
  144.6185  135.7341  150.4020 H   0  0  0  0  0  0  0  0  0  0  0  0
  146.3048  135.2603  150.5213 H   0  0  0  0  0  0  0  0  0  0  0  0
  142.9966  133.8680  149.8895 H   0  0  0  0  0  0  0  0  0  0  0  0
  143.1145  131.1091  150.1069 H   0  0  0  0  0  0  0  0  0  0  0  0
  146.5911  132.7284  151.7422 H   0  0  0  0  0  0  0  0  0  0  0  0
  148.9930  139.2144  156.4836 H   0  0  0  0  0  0  0  0  0  0  0  0
  146.6941  139.2200  154.4755 H   0  0  0  0  0  0  0  0  0  0  0  0
  147.0197  140.4138  155.7285 H   0  0  0  0  0  0  0  0  0  0  0  0
  146.5315  138.7934  156.1762 H   0  0  0  0  0  0  0  0  0  0  0  0
  1  2  1  0  0  0  0
  1 21  1  0  0  0  0
  1 22  1  0  0  0  0
  1 23  1  0  0  0  0
  2 19  1  0  0  0  0
  2  3  1  0  0  0  0
  2 24  1  0  0  0  0
  3  4  1  0  0  0  0
  3 25  1  0  0  0  0
  3 26  1  0  0  0  0
  4  5  1  0  0  0  0
  4 27  1  0  0  0  0
  4 28  1  0  0  0  0
  5  6  1  0  0  0  0
  5 29  1  0  0  0  0
  5 30  1  0  0  0  0
  6  7  1  0  0  0  0
  6 19  1  0  0  0  0
  6 31  1  0  0  0  0
  7  8  1  0  0  0  0
  7 32  1  0  0  0  0
  8  9  2  0  0  0  0
  8 10  1  0  0  0  0
 10 11  1  0  0  0  0
 10 33  1  0  0  0  0
 11 12  2  0  0  0  0
 11 13  1  0  0  0  0
 13 14  1  0  0  0  0
 13 34  1  0  0  0  0
 13 35  1  0  0  0  0
 14 18  1  0  0  0  0
 14 15  1  0  0  0  0
 15 16  2  0  0  0  0
 15 36  1  0  0  0  0
 16 17  1  0  0  0  0
 16 37  1  0  0  0  0
 17 18  2  0  0  0  0
 18 38  1  0  0  0  0
 19 20  1  0  0  0  0
 19 39  1  0  0  0  0
 20 40  1  0  0  0  0
 20 41  1  0  0  0  0
 20 42  1  0  0  0  0
M  END
> <s_m_source_file>
AV-unprocessed.smi

> <i_m_source_file_index>
527

> <i_lp_mmshare_version>
43012

> <i_f3d_flags>
0

> <s_epik_input>
W0NIM11bQ0BASF0xW0NIMl1bQ0gyXVtDSDJdW0NASF0oW0NASF0xW0NIM10pW05IXUMoPU8pW05IXUMoPU8pW0NIMl1uMltjSF1bY0hdbltjSF0y

> <s_epik_cmdline>
J2VwaWtfcHl0aG9uJywgJy1waCcsICc3LjAnLCAnLXRuJywgJzgnLCAnLW1hJywgJzIwMCcsICctbWV0YWxfYmluZGluZycsICctaW1hZScsICc8aW5maWxlLm1hZT4nLCAnLW9tYWUnLCAnPG91dGZpbGUubWFlPic=

> <r_lp_tautomer_probability>
1

> <r_epik_Ionization_Penalty>
0.172132

> <r_epik_Ionization_Penalty_Charging>
0.172105

> <r_epik_Ionization_Penalty_Neutral>
2.71747e-05

> <r_epik_State_Penalty>
0.161503

> <r_epik_Charging_Adjusted_Penalty>
0.333607

> <i_epik_Tot_Q>
0

> <i_epik_Tot_abs_Q>
0

> <r_epik_Metal_State_Penalty>
0.124763

> <b_epik_Metal_Only>
0

> <s_lp_Force_Field>
OPLS_2005

> <r_lp_Energy>
14.576

> <b_lp_Chiralities_Consistent>
1

> <s_lp_Variant>
AV-unprocessed.smi:527-8

> <Gold.Version>
5.8.1

> <Gold.Id.Protein>
6NUR|6NUR_protein|mol2

> <Gold.PLP.Fitness>
41.0823

> <Gold.PLP.PLP>
-29.9164

> <Gold.PLP.part.hbond>
-2.0000

> <Gold.PLP.part.metal>
0.0000

> <Gold.PLP.part.buried>
-1.7321

> <Gold.PLP.part.nonpolar>
-25.7783

> <Gold.PLP.part.repulsive>
0.2127

> <Gold.PLP.ligand.clash>
0.0000

> <Gold.PLP.ligand.torsion>
0.4280

> <Gold.PLP.Chemscore.Hbond>
2.0000

> <Gold.PLP.Chemscore.CHOScore>
2.0000

> <Gold.PLP.Chemscore.Metal>
0.0000

> <Gold.Chemscore.Hbonds>
donor molecule, donor type, donor heavy atom, donor atom, acceptor molecule, acceptor atom, score
      L1  H     7    32       P1  7948  1.00
      L1  H    10    33       P1  7948  1.00
      L1  C    15    36       P1 10186  1.00
      L1  C    16    37       P1 10952  1.00

> <Gold.PLP.Chemscore.Internal.Correction>
0.0219

> <Gold.Rescore>
     Score         DG    S(hbond)    S(metal)    S(lipo)     H(rot)  DE(clash)    DE(int)     intcor
     13.43     -15.18       1.91        0.00      64.78       1.66       0.04       1.72       ----

> <Gold.Chemscore.Fitness>
13.4266

> <Gold.Chemscore.DG>
-15.1844

> <Gold.Chemscore.ZeroCoef>
-5.4800

> <Gold.Chemscore.Hbond>
1.9107

> <Gold.Chemscore.Metal>
0.0000

> <Gold.Chemscore.Lipo>
64.7819

> <Gold.Chemscore.Internal_Hbond>
0.0000

> <Gold.Chemscore.DEClash>
0.0391

> <Gold.Chemscore.DEInternal>
1.7187

> <Gold.Chemscore.Rot>
1.6629

> <Gold.Chemscore.Internal.Correction>
   9.000000E+99

> <Gold.Chemscore.Hbonds>
donor molecule, donor type, donor heavy atom, donor atom, acceptor molecule, acceptor atom, score
      L1  H     7    32       P1  7948  0.97
      L1  H    10    33       P1  7948  0.96

> <Gold.Chemscore.Hbond.Weighted>
-6.3819

> <Gold.Chemscore.Metal.Weighted>
-0.0000

> <Gold.Chemscore.Lipo.Weighted>
-7.5795

> <Gold.Chemscore.Internal_Hbond.Weighted>
0.0000

> <Gold.Chemscore.DEClash.Weighted>
0.0391

> <Gold.Chemscore.DEInternal.Weighted>
1.7187

> <Gold.Chemscore.Rot.Weighted>
4.2569

> <Gold.Chemscore.Internal.Correction.Weighted>
   9.000000E+99

> <Gold.Protein.RotatedTorsions>
[ 6907 6896 6895 6894 ] final  -86.68 input  -60.11 | X-H torsion
[ 7974 7965 7964 7962 ] final  171.76 input  175.53 | X-H torsion
[ 8008 7997 7996 7995 ] final  -18.33 input   59.86 | X-H torsion
[ 10167 10162 10161 10158 ] final  117.82 input  -65.29 | X-H torsion
[ 10718 10713 10712 10709 ] final -106.88 input   66.30 | X-H torsion
[ 10763 10752 10751 10750 ] final -119.66 input  -60.55 | X-H torsion
[ 11005 11000 10999 10996 ] final  -99.94 input  -57.11 | X-H torsion

> <Gold.Protein.ActiveResidues>
 VAL166  LYS551  ARG553  GLY616  TRP617  ASP618  TYR619  PRO620  LYS621  CYS622 
 ASP623  PHE694  ASN695  SER759  ASP760  ASP761  ALA762  ILE779  LEU786  VAL792 
 PHE793  MET794  SER795  GLU796  ALA797  LYS798  CYS799  TRP800  GLU811  SER814 

> <Gold.Protein.RotatedAtoms>
  150.6866  134.3013  159.4707 H   0  0  0  0  0  0  0  0  0  0  0  0  # atno 6907 bound_to 6896
  152.0908  134.9406  160.0581 H   0  0  0  0  0  0  0  0  0  0  0  0  # atno 6908 bound_to 6896
  152.0722  133.4077  159.4501 H   0  0  0  0  0  0  0  0  0  0  0  0  # atno 6909 bound_to 6896
  144.7286  139.9398  143.6428 H   0  0  0  0  0  0  0  0  0  0  0  0  # atno 7974 bound_to 7965
  154.4913  140.2118  155.9541 H   0  0  0  0  0  0  0  0  0  0  0  0  # atno 8008 bound_to 7997
  156.1310  140.3197  155.8317 H   0  0  0  0  0  0  0  0  0  0  0  0  # atno 8009 bound_to 7997
  155.4297  140.0502  157.3010 H   0  0  0  0  0  0  0  0  0  0  0  0  # atno 8010 bound_to 7997
  139.6153  144.7090  151.2754 H   0  0  0  0  0  0  0  0  0  0  0  0  # atno 10167 bound_to 10162
  156.0410  130.5635  150.7743 H   0  0  0  0  0  0  0  0  0  0  0  0  # atno 10718 bound_to 10713
  154.8623  135.4230  154.2334 H   0  0  0  0  0  0  0  0  0  0  0  0  # atno 10763 bound_to 10752
  153.3314  135.6988  153.6950 H   0  0  0  0  0  0  0  0  0  0  0  0  # atno 10764 bound_to 10752
  153.5965  135.3545  155.2903 H   0  0  0  0  0  0  0  0  0  0  0  0  # atno 10765 bound_to 10752
  141.1290  133.8360  157.1037 H   0  0  0  0  0  0  0  0  0  0  0  0  # atno 11005 bound_to 11000
  146.0793  139.3781  143.0474 LP  0  0  0  0  0  0  0  0  0  0  0  0  # atno 17320 bound_to 7965
  145.7862  140.9834  143.1073 LP  0  0  0  0  0  0  0  0  0  0  0  0  # atno 17321 bound_to 7965
  140.7346  143.6760  150.8041 LP  0  0  0  0  0  0  0  0  0  0  0  0  # atno 17342 bound_to 10162
  140.0361  143.5393  152.2738 LP  0  0  0  0  0  0  0  0  0  0  0  0  # atno 17343 bound_to 10162
  157.5228  131.0932  151.0056 LP  0  0  0  0  0  0  0  0  0  0  0  0  # atno 17370 bound_to 10713
  157.0382  130.5738  149.5352 LP  0  0  0  0  0  0  0  0  0  0  0  0  # atno 17371 bound_to 10713
  140.0317  134.9898  157.0794 LP  0  0  0  0  0  0  0  0  0  0  0  0  # atno 17394 bound_to 11000
  140.4274  134.1816  155.7166 LP  0  0  0  0  0  0  0  0  0  0  0  0  # atno 17395 bound_to 11000

$$$$
