AV-unprocessed.smi:72|AV-procd|sdf|694|dock5
  -GOLD-   2262017 13D 1   1.00000     0.00000
 Structure written by MMmdl.
 29 30  0  0  0  0  0  0  0  0  1 V2000
  153.3103  136.6382  158.8491 N   0  0  0  0  0  0  0  0  0  0  0  0
  152.7802  137.6306  158.2290 C   0  0  0  0  0  0  0  0  0  0  0  0
  151.8115  138.4960  158.7595 N   0  0  0  0  0  0  0  0  0  0  0  0
  151.3557  139.4521  158.0098 C   0  0  0  0  0  0  0  0  0  0  0  0
  151.8084  139.6465  156.6409 N   0  0  0  0  0  0  0  0  0  0  0  0
  151.2717  140.7740  155.7897 C   0  0  1  0  0  0  0  0  0  0  0  0
  150.5264  140.2363  154.7364 O   0  0  0  0  0  0  0  0  0  0  0  0
  149.3037  140.9521  154.5940 C   0  0  1  0  0  0  0  0  0  0  0  0
  148.2456  140.0497  153.9408 C   0  0  0  0  0  0  0  0  0  0  0  0
  148.8723  139.0129  153.2164 O   0  0  0  0  0  0  0  0  0  0  0  0
  148.9774  141.3313  156.0392 C   0  0  2  0  0  0  0  0  0  0  0  0
  148.0388  142.3856  156.1408 O   0  0  0  0  0  0  0  0  0  0  0  0
  150.3458  141.6813  156.6154 C   0  0  2  0  0  0  0  0  0  0  0  0
  150.6832  143.0443  156.4332 O   0  0  0  0  0  0  0  0  0  0  0  0
  152.8100  138.8030  156.1024 C   0  0  0  0  0  0  0  0  0  0  0  0
  153.2628  138.9540  154.9679 O   0  0  0  0  0  0  0  0  0  0  0  0
  153.2455  137.8213  156.9214 N   0  0  0  0  0  0  0  0  0  0  0  0
  152.1389  141.2898  155.3733 H   0  0  0  0  0  0  0  0  0  0  0  0
  149.4775  141.8553  154.0053 H   0  0  0  0  0  0  0  0  0  0  0  0
  148.5846  140.4593  156.5643 H   0  0  0  0  0  0  0  0  0  0  0  0
  150.4075  141.4488  157.6796 H   0  0  0  0  0  0  0  0  0  0  0  0
  153.9807  136.1750  158.2523 H   0  0  0  0  0  0  0  0  0  0  0  0
  150.6116  140.1694  158.3581 H   0  0  0  0  0  0  0  0  0  0  0  0
  147.5630  139.6363  154.6840 H   0  0  0  0  0  0  0  0  0  0  0  0
  147.6461  140.6247  153.2347 H   0  0  0  0  0  0  0  0  0  0  0  0
  149.2042  139.3694  152.4067 H   0  0  0  0  0  0  0  0  0  0  0  0
  148.3797  143.1361  155.6788 H   0  0  0  0  0  0  0  0  0  0  0  0
  150.0045  143.4557  155.9201 H   0  0  0  0  0  0  0  0  0  0  0  0
  153.9541  137.1954  156.5676 H   0  0  0  0  0  0  0  0  0  0  0  0
  1  2  2  0  0  0  0
  1 22  1  0  0  0  0
  2 17  1  0  0  0  0
  2  3  1  0  0  0  0
  3  4  2  0  0  0  0
  4  5  1  0  0  0  0
  4 23  1  0  0  0  0
  5  6  1  0  0  0  0
  5 15  1  0  0  0  0
  6 18  1  0  0  0  0
  6 13  1  0  0  0  0
  6  7  1  0  0  0  0
  7  8  1  0  0  0  0
  8 19  1  0  0  0  0
  8  9  1  0  0  0  0
  8 11  1  0  0  0  0
  9 10  1  0  0  0  0
  9 24  1  0  0  0  0
  9 25  1  0  0  0  0
 10 26  1  0  0  0  0
 11 20  1  0  0  0  0
 11 12  1  0  0  0  0
 11 13  1  0  0  0  0
 12 27  1  0  0  0  0
 13 21  1  0  0  0  0
 13 14  1  0  0  0  0
 14 28  1  0  0  0  0
 15 16  2  0  0  0  0
 15 17  1  0  0  0  0
 17 29  1  0  0  0  0
M  END
> <s_m_source_file>
AV-unprocessed.smi

> <i_m_source_file_index>
72

> <i_lp_mmshare_version>
43012

> <i_f3d_flags>
0

> <s_epik_input>
W05IMl1jMW5bY0hdbihjKD1PKW4xKVtDQEBIXTJPW0NASF0oW0NIMl1bT0hdKVtDQEBIXShbT0hdKVtDQEhdMltPSF0=

> <s_epik_cmdline>
J2VwaWtfcHl0aG9uJywgJy1waCcsICc3LjAnLCAnLXRuJywgJzgnLCAnLW1hJywgJzIwMCcsICctbWV0YWxfYmluZGluZycsICctaW1hZScsICc8aW5maWxlLm1hZT4nLCAnLW9tYWUnLCAnPG91dGZpbGUubWFlPic=

> <r_lp_tautomer_probability>
7.17554e-07

> <r_epik_Ionization_Penalty>
0.0066451

> <r_epik_Ionization_Penalty_Charging>
0.00663793

> <r_epik_Ionization_Penalty_Neutral>
7.17052e-06

> <r_epik_State_Penalty>
0.419231

> <r_epik_Charging_Adjusted_Penalty>
0.425868

> <i_epik_Tot_Q>
0

> <i_epik_Tot_abs_Q>
0

> <r_epik_Metal_State_Penalty>
1.44144

> <b_epik_Metal_Only>
0

> <s_epik_Chemistry_Notes>
This compound contains an acetal/aminal-like group ( X-CH(R)-Y where X, Y are N, S, or O) that may be acid/base labile, releasing an aldehyde.

> <s_lp_Force_Field>
OPLS_2005

> <r_lp_Energy>
41.633

> <b_lp_Chiralities_Consistent>
1

> <s_lp_Variant>
AV-unprocessed.smi:72-32

> <Gold.Version>
5.8.1

> <Gold.Id.Protein>
6NUR|6NUR_protein|mol2

> <Gold.PLP.Fitness>
41.5647

> <Gold.PLP.PLP>
-24.8914

> <Gold.PLP.part.hbond>
-6.5417

> <Gold.PLP.part.metal>
0.0000

> <Gold.PLP.part.buried>
-3.4289

> <Gold.PLP.part.nonpolar>
-15.4951

> <Gold.PLP.part.repulsive>
0.1985

> <Gold.PLP.ligand.clash>
0.0000

> <Gold.PLP.ligand.torsion>
0.6724

> <Gold.PLP.Chemscore.Hbond>
6.0000

> <Gold.PLP.Chemscore.CHOScore>
0.0000

> <Gold.PLP.Chemscore.Metal>
0.0000

> <Gold.Chemscore.Hbonds>
donor molecule, donor type, donor heavy atom, donor atom, acceptor molecule, acceptor atom, score
      L1  H    10    26       P1  7957  0.83
      L1  H    12    27       P1  8028  1.00
      L1  H    14    28       P1  8028  1.00
      P1  H  6896  6908       L1     1  0.06
      P1  H  7989  7998       L1     7  0.65
      P1  H  7997  8008       L1    16  0.20

> <Gold.PLP.Chemscore.Internal.Correction>
0.0180

> <Gold.Rescore>
     Score         DG    S(hbond)    S(metal)    S(lipo)     H(rot)  DE(clash)    DE(int)     intcor
     11.38     -12.35       4.38        0.00      22.36       4.06       0.01       0.96       ----

> <Gold.Chemscore.Fitness>
11.3781

> <Gold.Chemscore.DG>
-12.3459

> <Gold.Chemscore.ZeroCoef>
-5.4800

> <Gold.Chemscore.Hbond>
4.3843

> <Gold.Chemscore.Metal>
0.0000

> <Gold.Chemscore.Lipo>
22.3598

> <Gold.Chemscore.Internal_Hbond>
0.0000

> <Gold.Chemscore.DEClash>
0.0106

> <Gold.Chemscore.DEInternal>
0.9571

> <Gold.Chemscore.Rot>
4.0600

> <Gold.Chemscore.Internal.Correction>
   9.000000E+99

> <Gold.Chemscore.Hbonds>
donor molecule, donor type, donor heavy atom, donor atom, acceptor molecule, acceptor atom, score
      L1  H    10    26       P1  7957  0.82
      L1  H    12    27       P1  8028  0.92
      L1  H    14    28       P1  8028  0.95
      P1  H  6896  6908       L1     1  0.08
      P1  H  7989  7998       L1     7  0.03

> <Gold.Chemscore.Hbond.Weighted>
-14.6434

> <Gold.Chemscore.Metal.Weighted>
-0.0000

> <Gold.Chemscore.Lipo.Weighted>
-2.6161

> <Gold.Chemscore.Internal_Hbond.Weighted>
0.0000

> <Gold.Chemscore.DEClash.Weighted>
0.0106

> <Gold.Chemscore.DEInternal.Weighted>
0.9571

> <Gold.Chemscore.Rot.Weighted>
10.3936

> <Gold.Chemscore.Internal.Correction.Weighted>
   9.000000E+99

> <Gold.Protein.RotatedTorsions>
[ 6907 6896 6895 6894 ] final -102.93 input  -60.11 | X-H torsion
[ 7974 7965 7964 7962 ] final   76.64 input  175.53 | X-H torsion
[ 8008 7997 7996 7995 ] final  -13.36 input   59.86 | X-H torsion
[ 10167 10162 10161 10158 ] final  -11.52 input  -65.29 | X-H torsion
[ 10718 10713 10712 10709 ] final  -36.95 input   66.30 | X-H torsion
[ 10763 10752 10751 10750 ] final   76.85 input  -60.55 | X-H torsion
[ 11005 11000 10999 10996 ] final -170.87 input  -57.11 | X-H torsion

> <Gold.Protein.ActiveResidues>
 VAL166  LYS551  ARG553  GLY616  TRP617  ASP618  TYR619  PRO620  LYS621  CYS622 
 ASP623  PHE694  ASN695  SER759  ASP760  ASP761  ALA762  ILE779  LEU786  VAL792 
 PHE793  MET794  SER795  GLU796  ALA797  LYS798  CYS799  TRP800  GLU811  SER814 

> <Gold.Protein.RotatedAtoms>
  150.7217  134.0507  159.3797 H   0  0  0  0  0  0  0  0  0  0  0  0  # atno 6907 bound_to 6896
  151.8484  135.0564  160.0465 H   0  0  0  0  0  0  0  0  0  0  0  0  # atno 6908 bound_to 6896
  152.2809  133.5434  159.5534 H   0  0  0  0  0  0  0  0  0  0  0  0  # atno 6909 bound_to 6896
  145.7003  139.2580  143.1709 H   0  0  0  0  0  0  0  0  0  0  0  0  # atno 7974 bound_to 7965
  154.5299  140.2252  155.8823 H   0  0  0  0  0  0  0  0  0  0  0  0  # atno 8008 bound_to 7997
  156.1753  140.3112  155.9011 H   0  0  0  0  0  0  0  0  0  0  0  0  # atno 8009 bound_to 7997
  155.3473  140.0453  157.3036 H   0  0  0  0  0  0  0  0  0  0  0  0  # atno 8010 bound_to 7997
  140.7140  143.5631  150.9174 H   0  0  0  0  0  0  0  0  0  0  0  0  # atno 10167 bound_to 10162
  156.3209  130.4265  149.7961 H   0  0  0  0  0  0  0  0  0  0  0  0  # atno 10718 bound_to 10713
  153.0755  135.4936  154.8395 H   0  0  0  0  0  0  0  0  0  0  0  0  # atno 10763 bound_to 10752
  154.7081  135.3014  154.9241 H   0  0  0  0  0  0  0  0  0  0  0  0  # atno 10764 bound_to 10752
  153.9943  135.6774  153.4808 H   0  0  0  0  0  0  0  0  0  0  0  0  # atno 10765 bound_to 10752
  140.5147  134.5768  157.5029 H   0  0  0  0  0  0  0  0  0  0  0  0  # atno 11005 bound_to 11000
  146.0803  140.7771  142.9644 LP  0  0  0  0  0  0  0  0  0  0  0  0  # atno 17320 bound_to 7965
  144.6970  140.3479  143.7187 LP  0  0  0  0  0  0  0  0  0  0  0  0  # atno 17321 bound_to 7965
  139.9356  143.6441  152.3066 LP  0  0  0  0  0  0  0  0  0  0  0  0  # atno 17342 bound_to 10162
  139.6908  144.7647  151.1442 LP  0  0  0  0  0  0  0  0  0  0  0  0  # atno 17343 bound_to 10162
  156.5270  130.8240  151.3223 LP  0  0  0  0  0  0  0  0  0  0  0  0  # atno 17370 bound_to 10713
  157.7411  130.9864  150.2425 LP  0  0  0  0  0  0  0  0  0  0  0  0  # atno 17371 bound_to 10713
  139.9639  134.7405  156.0178 LP  0  0  0  0  0  0  0  0  0  0  0  0  # atno 17394 bound_to 11000
  141.1367  133.6573  156.3613 LP  0  0  0  0  0  0  0  0  0  0  0  0  # atno 17395 bound_to 11000

$$$$
