AV-unprocessed.smi:2919|AV-procd|sdf|11194|dock3
  -GOLD-   2272016 83D 1   1.00000     0.00000
 Structure written by MMmdl.
 34 36  0  0  0  0  0  0  0  0  1 V2000
  151.7193  145.2674  160.2090 C   0  0  0  0  0  0  0  0  0  0  0  0
  151.8368  143.9097  159.5392 C   0  0  0  0  0  0  0  0  0  0  0  0
  151.3204  143.8425  158.2926 N   0  0  0  0  0  0  0  0  0  0  0  0
  151.3628  142.7013  157.6037 N   0  0  0  0  0  0  0  0  0  0  0  0
  151.9242  141.5880  158.1336 C   0  0  0  0  0  0  0  0  0  0  0  0
  151.9299  140.4222  157.3460 N   0  0  0  0  0  0  0  0  0  0  0  0
  151.6099  140.4786  155.9226 C   0  0  2  0  0  0  0  0  0  0  0  0
  150.2511  141.1246  155.6423 C   0  0  0  0  0  0  0  0  0  0  0  0
  149.5602  140.0506  154.7904 C   0  0  2  0  0  0  0  0  0  0  0  0
  149.1049  138.8604  155.6447 C   0  0  0  0  0  0  0  0  0  0  0  0
  150.4350  138.1806  155.9631 C   0  0  0  0  0  0  0  0  0  0  0  0
  151.4415  139.1006  155.2506 C   0  0  1  0  0  0  0  0  0  0  0  0
  150.6721  139.4786  154.1216 O   0  0  0  0  0  0  0  0  0  0  0  0
  152.4835  141.5860  159.4379 C   0  0  0  0  0  0  0  0  0  0  0  0
  153.0883  140.3817  160.0036 C   0  0  0  0  0  0  0  0  0  0  0  0
  153.5674  139.4282  160.4512 N   0  0  0  0  0  0  0  0  0  0  0  0
  152.4412  142.7971  160.1734 C   0  0  0  0  0  0  0  0  0  0  0  0
  153.0216  142.8895  161.5825 C   0  0  0  0  0  0  0  0  0  0  0  0
  151.1474  145.1883  161.1338 H   0  0  0  0  0  0  0  0  0  0  0  0
  151.2138  145.9889  159.5657 H   0  0  0  0  0  0  0  0  0  0  0  0
  152.7077  145.6646  160.4414 H   0  0  0  0  0  0  0  0  0  0  0  0
  152.4731  139.6342  157.6682 H   0  0  0  0  0  0  0  0  0  0  0  0
  152.3779  141.0500  155.3992 H   0  0  0  0  0  0  0  0  0  0  0  0
  149.6806  141.3606  156.5418 H   0  0  0  0  0  0  0  0  0  0  0  0
  150.3821  142.0468  155.0750 H   0  0  0  0  0  0  0  0  0  0  0  0
  148.7870  140.4405  154.1278 H   0  0  0  0  0  0  0  0  0  0  0  0
  148.5636  139.1729  156.5383 H   0  0  0  0  0  0  0  0  0  0  0  0
  148.4617  138.1923  155.0710 H   0  0  0  0  0  0  0  0  0  0  0  0
  150.6209  138.0868  157.0331 H   0  0  0  0  0  0  0  0  0  0  0  0
  150.4604  137.1798  155.5304 H   0  0  0  0  0  0  0  0  0  0  0  0
  152.3835  138.6113  155.0010 H   0  0  0  0  0  0  0  0  0  0  0  0
  154.0764  142.6128  161.5750 H   0  0  0  0  0  0  0  0  0  0  0  0
  152.4946  142.2080  162.2510 H   0  0  0  0  0  0  0  0  0  0  0  0
  152.9536  143.8865  162.0136 H   0  0  0  0  0  0  0  0  0  0  0  0
  1  2  1  0  0  0  0
  1 19  1  0  0  0  0
  1 20  1  0  0  0  0
  1 21  1  0  0  0  0
  2 17  1  0  0  0  0
  2  3  2  0  0  0  0
  3  4  1  0  0  0  0
  4  5  2  0  0  0  0
  5  6  1  0  0  0  0
  5 14  1  0  0  0  0
  6  7  1  0  0  0  0
  6 22  1  0  0  0  0
  7 12  1  0  0  0  0
  7  8  1  0  0  0  0
  7 23  1  0  0  0  0
  8  9  1  0  0  0  0
  8 24  1  0  0  0  0
  8 25  1  0  0  0  0
  9 13  1  0  0  0  0
  9 10  1  0  0  0  0
  9 26  1  0  0  0  0
 10 11  1  0  0  0  0
 10 27  1  0  0  0  0
 10 28  1  0  0  0  0
 11 12  1  0  0  0  0
 11 29  1  0  0  0  0
 11 30  1  0  0  0  0
 12 13  1  0  0  0  0
 12 31  1  0  0  0  0
 14 15  1  0  0  0  0
 14 17  2  0  0  0  0
 15 16  3  0  0  0  0
 17 18  1  0  0  0  0
 18 32  1  0  0  0  0
 18 33  1  0  0  0  0
 18 34  1  0  0  0  0
M  END
> <s_m_source_file>
AV-unprocessed.smi

> <i_m_source_file_index>
2919

> <i_lp_mmshare_version>
43012

> <i_f3d_flags>
0

> <s_epik_input>
W0NIM11jMW5uYyhjKEMjTiljMVtDSDNdKVtOSF1bQ0BIXShbQ0gyXVtDQEBIXTIzKVtDQEBIXShPMylbQ0gyXVtDSDJdMg==

> <s_epik_cmdline>
J2VwaWtfcHl0aG9uJywgJy1waCcsICc3LjAnLCAnLXRuJywgJzgnLCAnLW1hJywgJzIwMCcsICctbWV0YWxfYmluZGluZycsICctaW1hZScsICc8aW5maWxlLm1hZT4nLCAnLW9tYWUnLCAnPG91dGZpbGUubWFlPic=

> <r_lp_tautomer_probability>
1

> <r_epik_Ionization_Penalty>
0.00143865

> <r_epik_Ionization_Penalty_Charging>
0

> <r_epik_Ionization_Penalty_Neutral>
0.00143865

> <r_epik_State_Penalty>
-0

> <r_epik_Charging_Adjusted_Penalty>
0

> <i_epik_Tot_Q>
0

> <i_epik_Tot_abs_Q>
0

> <r_epik_Metal_State_Penalty>
-0

> <b_epik_Metal_Only>
0

> <s_lp_Force_Field>
OPLS_2005

> <r_lp_Energy>
49.1594

> <b_lp_Chiralities_Consistent>
1

> <s_lp_Variant>
AV-unprocessed.smi:2919-3

> <Gold.Version>
5.8.1

> <Gold.Id.Protein>
6NUR|6NUR_protein|mol2

> <Gold.PLP.Fitness>
38.8414

> <Gold.PLP.PLP>
-36.0051

> <Gold.PLP.part.hbond>
-1.0000

> <Gold.PLP.part.metal>
0.0000

> <Gold.PLP.part.buried>
-5.4143

> <Gold.PLP.part.nonpolar>
-29.3907

> <Gold.PLP.part.repulsive>
0.4784

> <Gold.PLP.ligand.clash>
0.0000

> <Gold.PLP.ligand.torsion>
0.0870

> <Gold.PLP.Chemscore.Hbond>
1.0000

> <Gold.PLP.Chemscore.CHOScore>
0.0000

> <Gold.PLP.Chemscore.Metal>
0.0000

> <Gold.Chemscore.Hbonds>
donor molecule, donor type, donor heavy atom, donor atom, acceptor molecule, acceptor atom, score
      P1  H  7989  7998       L1    13  1.00

> <Gold.PLP.Chemscore.Internal.Correction>
0.0103

> <Gold.Rescore>
     Score         DG    S(hbond)    S(metal)    S(lipo)     H(rot)  DE(clash)    DE(int)     intcor
     14.08     -15.82       0.71        0.00      89.97       1.00       0.38       1.36       ----

> <Gold.Chemscore.Fitness>
14.0822

> <Gold.Chemscore.DG>
-15.8184

> <Gold.Chemscore.ZeroCoef>
-5.4800

> <Gold.Chemscore.Hbond>
0.7101

> <Gold.Chemscore.Metal>
0.0000

> <Gold.Chemscore.Lipo>
89.9714

> <Gold.Chemscore.Internal_Hbond>
0.0000

> <Gold.Chemscore.DEClash>
0.3778

> <Gold.Chemscore.DEInternal>
1.3583

> <Gold.Chemscore.Rot>
1.0000

> <Gold.Chemscore.Internal.Correction>
   9.000000E+99

> <Gold.Chemscore.Hbonds>
donor molecule, donor type, donor heavy atom, donor atom, acceptor molecule, acceptor atom, score
      P1  H  7989  7998       L1    13  0.19

> <Gold.Chemscore.Hbond.Weighted>
-2.3717

> <Gold.Chemscore.Metal.Weighted>
-0.0000

> <Gold.Chemscore.Lipo.Weighted>
-10.5266

> <Gold.Chemscore.Internal_Hbond.Weighted>
0.0000

> <Gold.Chemscore.DEClash.Weighted>
0.3778

> <Gold.Chemscore.DEInternal.Weighted>
1.3583

> <Gold.Chemscore.Rot.Weighted>
2.5600

> <Gold.Chemscore.Internal.Correction.Weighted>
   9.000000E+99

> <Gold.Protein.RotatedTorsions>
[ 6907 6896 6895 6894 ] final   89.04 input  -60.11 | X-H torsion
[ 7974 7965 7964 7962 ] final -118.61 input  175.53 | X-H torsion
[ 8008 7997 7996 7995 ] final -109.22 input   59.86 | X-H torsion
[ 10167 10162 10161 10158 ] final   31.72 input  -65.29 | X-H torsion
[ 10718 10713 10712 10709 ] final   -0.76 input   66.30 | X-H torsion
[ 10763 10752 10751 10750 ] final   16.68 input  -60.55 | X-H torsion
[ 11005 11000 10999 10996 ] final  -12.93 input  -57.11 | X-H torsion

> <Gold.Protein.ActiveResidues>
 VAL166  LYS551  ARG553  GLY616  TRP617  ASP618  TYR619  PRO620  LYS621  CYS622 
 ASP623  PHE694  ASN695  SER759  ASP760  ASP761  ALA762  ILE779  LEU786  VAL792 
 PHE793  MET794  SER795  GLU796  ALA797  LYS798  CYS799  TRP800  GLU811  SER814 

> <Gold.Protein.RotatedAtoms>
  152.5432  134.2027  159.8718 H   0  0  0  0  0  0  0  0  0  0  0  0  # atno 6907 bound_to 6896
  151.2015  133.4601  159.2604 H   0  0  0  0  0  0  0  0  0  0  0  0  # atno 6908 bound_to 6896
  151.0984  134.9970  159.8492 H   0  0  0  0  0  0  0  0  0  0  0  0  # atno 6909 bound_to 6896
  145.0719  140.8365  143.4090 H   0  0  0  0  0  0  0  0  0  0  0  0  # atno 7974 bound_to 7965
  154.9561  140.0400  157.2167 H   0  0  0  0  0  0  0  0  0  0  0  0  # atno 8008 bound_to 7997
  154.7933  140.2839  155.5953 H   0  0  0  0  0  0  0  0  0  0  0  0  # atno 8009 bound_to 7997
  156.2952  140.2569  156.2785 H   0  0  0  0  0  0  0  0  0  0  0  0  # atno 8010 bound_to 7997
  140.4563  144.0973  150.6202 H   0  0  0  0  0  0  0  0  0  0  0  0  # atno 10167 bound_to 10162
  156.8157  130.5439  149.5703 H   0  0  0  0  0  0  0  0  0  0  0  0  # atno 10718 bound_to 10713
  153.1408  135.6759  153.9030 H   0  0  0  0  0  0  0  0  0  0  0  0  # atno 10763 bound_to 10752
  153.8487  135.3096  155.3432 H   0  0  0  0  0  0  0  0  0  0  0  0  # atno 10764 bound_to 10752
  154.7786  135.4901  153.9880 H   0  0  0  0  0  0  0  0  0  0  0  0  # atno 10765 bound_to 10752
  140.7708  133.8440  155.9206 H   0  0  0  0  0  0  0  0  0  0  0  0  # atno 11005 bound_to 11000
  145.1282  139.2649  143.5553 LP  0  0  0  0  0  0  0  0  0  0  0  0  # atno 17320 bound_to 7965
  146.3529  140.0925  142.8612 LP  0  0  0  0  0  0  0  0  0  0  0  0  # atno 17321 bound_to 7965
  140.4146  143.2640  151.9790 LP  0  0  0  0  0  0  0  0  0  0  0  0  # atno 17342 bound_to 10162
  139.4801  144.5885  151.7813 LP  0  0  0  0  0  0  0  0  0  0  0  0  # atno 17343 bound_to 10162
  156.1018  130.5975  150.9907 LP  0  0  0  0  0  0  0  0  0  0  0  0  # atno 17370 bound_to 10713
  157.6483  131.0901  150.8106 LP  0  0  0  0  0  0  0  0  0  0  0  0  # atno 17371 bound_to 10713
  140.9575  134.1699  157.4680 LP  0  0  0  0  0  0  0  0  0  0  0  0  # atno 17394 bound_to 11000
  139.8756  134.9932  156.5635 LP  0  0  0  0  0  0  0  0  0  0  0  0  # atno 17395 bound_to 11000

$$$$
