AV-unprocessed.smi:1717|AV-procd|sdf|6918|dock2
  -GOLD-   22720 8123D 1   1.00000     0.00000
 Structure written by MMmdl.
 41 42  0  0  0  0  0  0  0  0  2 V2000
  151.5419  143.5907  157.5922 C   0  0  0  0  0  0  0  0  0  0  0  0
  150.1831  143.1765  157.2768 N   0  0  0  0  0  0  0  0  0  0  0  0
  149.7104  141.9369  157.4668 C   0  0  0  0  0  0  0  0  0  0  0  0
  150.3906  141.0184  157.9256 O   0  0  0  0  0  0  0  0  0  0  0  0
  148.2533  141.6979  157.0582 C   0  0  0  0  0  0  0  0  0  0  0  0
  148.0945  140.5663  156.1088 N   0  3  2  0  0  0  0  0  0  0  0  0
  148.2570  140.9859  154.6935 C   0  0  0  0  0  0  0  0  0  0  0  0
  148.2374  139.7717  153.7497 C   0  0  0  0  0  0  0  0  0  0  0  0
  146.9483  138.9531  153.9231 C   0  0  1  0  0  0  0  0  0  0  0  0
  146.9976  137.7656  153.0752 N   0  0  0  0  0  0  0  0  0  0  0  0
  145.9277  137.0956  152.6232 C   0  0  0  0  0  0  0  0  0  0  0  0
  144.7677  137.4070  152.8925 O   0  0  0  0  0  0  0  0  0  0  0  0
  146.2911  136.0581  151.8522 N   0  0  0  0  0  0  0  0  0  0  0  0
  145.4372  135.1382  151.1942 C   0  0  0  0  0  0  0  0  0  0  0  0
  145.6897  133.7894  150.8058 C   0  0  0  0  0  0  0  0  0  0  0  0
  144.6320  133.2559  150.2112 N   0  0  0  0  0  0  0  0  0  0  0  0
  143.7110  134.2456  150.2163 N   0  0  0  0  0  0  0  0  0  0  0  0
  144.1591  135.4073  150.8050 C   0  0  0  0  0  0  0  0  0  0  0  0
  146.7790  138.5664  155.4040 C   0  0  0  0  0  0  0  0  0  0  0  0
  146.8316  139.8068  156.3112 C   0  0  0  0  0  0  0  0  0  0  0  0
  142.7913  134.1134  149.8200 H   0  0  0  0  0  0  0  0  0  0  0  0
  151.6698  144.6491  157.3660 H   0  0  0  0  0  0  0  0  0  0  0  0
  152.2663  143.0267  157.0032 H   0  0  0  0  0  0  0  0  0  0  0  0
  151.7600  143.4398  158.6501 H   0  0  0  0  0  0  0  0  0  0  0  0
  149.5670  143.8756  156.8871 H   0  0  0  0  0  0  0  0  0  0  0  0
  147.6282  141.5394  157.9387 H   0  0  0  0  0  0  0  0  0  0  0  0
  147.9078  142.6209  156.5908 H   0  0  0  0  0  0  0  0  0  0  0  0
  147.4636  141.6860  154.4266 H   0  0  0  0  0  0  0  0  0  0  0  0
  149.2026  141.5156  154.5721 H   0  0  0  0  0  0  0  0  0  0  0  0
  148.3317  140.1076  152.7161 H   0  0  0  0  0  0  0  0  0  0  0  0
  149.1066  139.1436  153.9515 H   0  0  0  0  0  0  0  0  0  0  0  0
  146.1046  139.5755  153.6177 H   0  0  0  0  0  0  0  0  0  0  0  0
  147.9125  137.4360  152.8038 H   0  0  0  0  0  0  0  0  0  0  0  0
  147.2808  135.9139  151.7161 H   0  0  0  0  0  0  0  0  0  0  0  0
  146.5773  133.1868  150.9284 H   0  0  0  0  0  0  0  0  0  0  0  0
  143.5473  136.2931  150.8915 H   0  0  0  0  0  0  0  0  0  0  0  0
  145.8323  138.0459  155.5527 H   0  0  0  0  0  0  0  0  0  0  0  0
  147.5644  137.8689  155.6990 H   0  0  0  0  0  0  0  0  0  0  0  0
  146.7450  139.4916  157.3514 H   0  0  0  0  0  0  0  0  0  0  0  0
  145.9788  140.4561  156.1073 H   0  0  0  0  0  0  0  0  0  0  0  0
  148.8545  139.9302  156.3051 H   0  0  0  0  0  0  0  0  0  0  0  0
  1  2  1  0  0  0  0
  1 22  1  0  0  0  0
  1 23  1  0  0  0  0
  1 24  1  0  0  0  0
  2  3  1  0  0  0  0
  2 25  1  0  0  0  0
  3  4  2  0  0  0  0
  3  5  1  0  0  0  0
  5  6  1  0  0  0  0
  5 26  1  0  0  0  0
  5 27  1  0  0  0  0
  6 20  1  0  0  0  0
  6  7  1  0  0  0  0
  6 41  1  0  0  0  0
  7  8  1  0  0  0  0
  7 28  1  0  0  0  0
  7 29  1  0  0  0  0
  8  9  1  0  0  0  0
  8 30  1  0  0  0  0
  8 31  1  0  0  0  0
  9 10  1  0  0  0  0
  9 19  1  0  0  0  0
  9 32  1  0  0  0  0
 10 11  1  0  0  0  0
 10 33  1  0  0  0  0
 11 12  2  0  0  0  0
 11 13  1  0  0  0  0
 13 14  1  0  0  0  0
 13 34  1  0  0  0  0
 14 18  2  0  0  0  0
 14 15  1  0  0  0  0
 15 16  2  0  0  0  0
 15 35  1  0  0  0  0
 16 17  1  0  0  0  0
 17 21  1  0  0  0  0
 17 18  1  0  0  0  0
 18 36  1  0  0  0  0
 19 20  1  0  0  0  0
 19 37  1  0  0  0  0
 19 38  1  0  0  0  0
 20 39  1  0  0  0  0
 20 40  1  0  0  0  0
M  CHG  1   6   1
M  END
> <s_m_source_file>
AV-unprocessed.smi

> <i_m_source_file_index>
1717

> <i_lp_mmshare_version>
43012

> <i_f3d_flags>
0

> <s_epik_input>
W0NIM11bTkhdQyg9TylbQ0gyXU4xW0NIMl1bQ0gyXVtDSF0oW0NIMl1bQ0gyXTEpW05IXUMoPU8pW05IXWMyW2NIXW5bbkhdW2NIXTI=

> <s_epik_cmdline>
J2VwaWtfcHl0aG9uJywgJy1waCcsICc3LjAnLCAnLXRuJywgJzgnLCAnLW1hJywgJzIwMCcsICctbWV0YWxfYmluZGluZycsICctaW1hZScsICc8aW5maWxlLm1hZT4nLCAnLW9tYWUnLCAnPG91dGZpbGUubWFlPic=

> <r_lp_tautomer_probability>
0.5

> <r_epik_Ionization_Penalty>
0.838906

> <r_epik_Ionization_Penalty_Charging>
0.838844

> <r_epik_Ionization_Penalty_Neutral>
6.24243e-05

> <r_epik_State_Penalty>
0.8734

> <r_epik_Charging_Adjusted_Penalty>
1.71224

> <i_epik_Tot_Q>
1

> <i_epik_Tot_abs_Q>
1

> <r_epik_Metal_State_Penalty>
0.877921

> <b_epik_Metal_Only>
0

> <s_lp_Force_Field>
OPLS_2005

> <r_lp_Energy>
17.0094

> <b_lp_Chiralities_Consistent>
1

> <s_lp_Variant>
AV-unprocessed.smi:1717-2

> <Gold.Version>
5.8.1

> <Gold.Id.Protein>
6NUR|6NUR_protein|mol2

> <Gold.PLP.Fitness>
37.8735

> <Gold.PLP.PLP>
-24.6439

> <Gold.PLP.part.hbond>
-4.0000

> <Gold.PLP.part.metal>
0.0000

> <Gold.PLP.part.buried>
-3.9868

> <Gold.PLP.part.nonpolar>
-18.0202

> <Gold.PLP.part.repulsive>
0.5000

> <Gold.PLP.ligand.clash>
0.0000

> <Gold.PLP.ligand.torsion>
0.9034

> <Gold.PLP.Chemscore.Hbond>
4.0000

> <Gold.PLP.Chemscore.CHOScore>
1.0000

> <Gold.PLP.Chemscore.Metal>
0.0000

> <Gold.Chemscore.Hbonds>
donor molecule, donor type, donor heavy atom, donor atom, acceptor molecule, acceptor atom, score
      L1  H     2    25       P1  8028  1.00
      L1  H    10    33       P1  7948  0.99
      L1  H    13    34       P1  7948  1.00
      L1  H    17    21       P1 10186  1.00
      L1  C    18    36       P1 10171  0.97

> <Gold.PLP.Chemscore.Internal.Correction>
0.0363

> <Gold.Rescore>
     Score         DG    S(hbond)    S(metal)    S(lipo)     H(rot)  DE(clash)    DE(int)     intcor
     17.14     -19.89       3.93        0.00      50.49       1.81       0.71       2.04       ----

> <Gold.Chemscore.Fitness>
17.1354

> <Gold.Chemscore.DG>
-19.8865

> <Gold.Chemscore.ZeroCoef>
-5.4800

> <Gold.Chemscore.Hbond>
3.9318

> <Gold.Chemscore.Metal>
0.0000

> <Gold.Chemscore.Lipo>
50.4864

> <Gold.Chemscore.Internal_Hbond>
0.0000

> <Gold.Chemscore.DEClash>
0.7093

> <Gold.Chemscore.DEInternal>
2.0417

> <Gold.Chemscore.Rot>
1.8096

> <Gold.Chemscore.Internal.Correction>
   9.000000E+99

> <Gold.Chemscore.Hbonds>
donor molecule, donor type, donor heavy atom, donor atom, acceptor molecule, acceptor atom, score
      L1  H     2    25       P1  8028  0.88
      L1  H    10    33       P1  7948  0.94
      L1  H    13    34       P1  7948  0.99
      L1  H    17    21       P1 10186  0.99

> <Gold.Chemscore.Hbond.Weighted>
-13.1321

> <Gold.Chemscore.Metal.Weighted>
-0.0000

> <Gold.Chemscore.Lipo.Weighted>
-5.9069

> <Gold.Chemscore.Internal_Hbond.Weighted>
0.0000

> <Gold.Chemscore.DEClash.Weighted>
0.7093

> <Gold.Chemscore.DEInternal.Weighted>
2.0417

> <Gold.Chemscore.Rot.Weighted>
4.6325

> <Gold.Chemscore.Internal.Correction.Weighted>
   9.000000E+99

> <Gold.Protein.RotatedTorsions>
[ 6907 6896 6895 6894 ] final   -5.54 input  -60.11 | X-H torsion
[ 7974 7965 7964 7962 ] final   13.91 input  175.53 | X-H torsion
[ 8008 7997 7996 7995 ] final   -2.41 input   59.86 | X-H torsion
[ 10167 10162 10161 10158 ] final  116.78 input  -65.29 | X-H torsion
[ 10718 10713 10712 10709 ] final  125.28 input   66.30 | X-H torsion
[ 10763 10752 10751 10750 ] final  110.12 input  -60.55 | X-H torsion
[ 11005 11000 10999 10996 ] final -115.09 input  -57.11 | X-H torsion

> <Gold.Protein.ActiveResidues>
 VAL166  LYS551  ARG553  GLY616  TRP617  ASP618  TYR619  PRO620  LYS621  CYS622 
 ASP623  PHE694  ASN695  SER759  ASP760  ASP761  ALA762  ILE779  LEU786  VAL792 
 PHE793  MET794  SER795  GLU796  ALA797  LYS798  CYS799  TRP800  GLU811  SER814 

> <Gold.Protein.RotatedAtoms>
  151.4799  135.1051  159.9774 H   0  0  0  0  0  0  0  0  0  0  0  0  # atno 6907 bound_to 6896
  152.4783  133.8188  159.7053 H   0  0  0  0  0  0  0  0  0  0  0  0  # atno 6908 bound_to 6896
  150.8837  133.7276  159.2951 H   0  0  0  0  0  0  0  0  0  0  0  0  # atno 6909 bound_to 6896
  146.2318  139.9118  142.8523 H   0  0  0  0  0  0  0  0  0  0  0  0  # atno 7974 bound_to 7965
  154.6360  140.2535  155.7377 H   0  0  0  0  0  0  0  0  0  0  0  0  # atno 8008 bound_to 7997
  156.2504  140.2897  156.0653 H   0  0  0  0  0  0  0  0  0  0  0  0  # atno 8009 bound_to 7997
  155.1670  140.0385  157.2845 H   0  0  0  0  0  0  0  0  0  0  0  0  # atno 8010 bound_to 7997
  139.6223  144.7103  151.2607 H   0  0  0  0  0  0  0  0  0  0  0  0  # atno 10167 bound_to 10162
  157.5516  131.1094  150.8693 H   0  0  0  0  0  0  0  0  0  0  0  0  # atno 10718 bound_to 10713
  153.4445  135.3758  155.2247 H   0  0  0  0  0  0  0  0  0  0  0  0  # atno 10763 bound_to 10752
  154.8755  135.3871  154.4113 H   0  0  0  0  0  0  0  0  0  0  0  0  # atno 10764 bound_to 10752
  153.4663  135.7087  153.6084 H   0  0  0  0  0  0  0  0  0  0  0  0  # atno 10765 bound_to 10752
  141.0510  133.9687  157.2836 H   0  0  0  0  0  0  0  0  0  0  0  0  # atno 11005 bound_to 11000
  145.2222  140.9939  143.4039 LP  0  0  0  0  0  0  0  0  0  0  0  0  # atno 17320 bound_to 7965
  144.9601  139.3989  143.6360 LP  0  0  0  0  0  0  0  0  0  0  0  0  # atno 17321 bound_to 7965
  140.7390  143.6632  150.8146 LP  0  0  0  0  0  0  0  0  0  0  0  0  # atno 17342 bound_to 10162
  140.0245  143.5508  152.2786 LP  0  0  0  0  0  0  0  0  0  0  0  0  # atno 17343 bound_to 10162
  156.9216  130.5317  149.5279 LP  0  0  0  0  0  0  0  0  0  0  0  0  # atno 17370 bound_to 10713
  156.0581  130.5639  150.9135 LP  0  0  0  0  0  0  0  0  0  0  0  0  # atno 17371 bound_to 10713
  139.9350  135.0197  156.8528 LP  0  0  0  0  0  0  0  0  0  0  0  0  # atno 17394 bound_to 11000
  140.6055  134.0132  155.7555 LP  0  0  0  0  0  0  0  0  0  0  0  0  # atno 17395 bound_to 11000

$$$$
