AV-unprocessed.smi:2737|AV-procd|sdf|10547|dock7
  -GOLD-   2272014593D 1   1.00000     0.00000
 Structure written by MMmdl.
 43 44  0  0  0  0  0  0  0  0  1 V2000
  146.8605  136.6888  162.5118 C   0  0  0  0  0  0  0  0  0  0  0  0
  147.7453  137.0959  161.4720 O   0  0  0  0  0  0  0  0  0  0  0  0
  147.5768  136.5021  160.1788 C   0  0  0  0  0  0  0  0  0  0  0  0
  147.5205  134.9615  160.2725 C   0  0  0  0  0  0  0  0  0  0  0  0
  146.2360  137.0471  159.6622 C   0  0  0  0  0  0  0  0  0  0  0  0
  148.6987  136.9797  159.2948 C   0  0  0  0  0  0  0  0  0  0  0  0
  148.5959  137.7956  158.2460 N   0  0  0  0  0  0  0  0  0  0  0  0
  149.9061  138.0062  157.9400 C   0  0  0  0  0  0  0  0  0  0  0  0
  150.3439  138.8519  156.7875 C   0  0  0  0  0  0  0  0  0  0  0  0
  151.3791  139.8820  157.2415 C   0  0  0  0  0  0  0  0  0  0  0  0
  152.5782  139.6060  157.2073 O   0  0  0  0  0  0  0  0  0  0  0  0
  150.9033  141.0642  157.6643 N   0  0  0  0  0  0  0  0  0  0  0  0
  151.7139  142.1724  158.1601 C   0  0  0  0  0  0  0  0  0  0  0  0
  152.2404  141.8362  159.5683 C   0  0  0  0  0  0  0  0  0  0  0  0
  153.0611  142.9972  160.1536 C   0  0  0  0  0  0  0  0  0  0  0  0
  152.2483  144.3016  160.1696 C   0  0  0  0  0  0  0  0  0  0  0  0
  151.7214  144.6439  158.7673 C   0  0  0  0  0  0  0  0  0  0  0  0
  150.9006  143.4841  158.1804 C   0  0  0  0  0  0  0  0  0  0  0  0
  150.7876  137.4135  158.7355 N   0  0  0  0  0  0  0  0  0  0  0  0
  149.9821  136.7562  159.6755 O   0  0  0  0  0  0  0  0  0  0  0  0
  147.2011  137.1154  163.4551 H   0  0  0  0  0  0  0  0  0  0  0  0
  146.8290  135.6060  162.6336 H   0  0  0  0  0  0  0  0  0  0  0  0
  145.8471  137.0524  162.3420 H   0  0  0  0  0  0  0  0  0  0  0  0
  147.2856  134.5186  159.3040 H   0  0  0  0  0  0  0  0  0  0  0  0
  146.7518  134.6377  160.9744 H   0  0  0  0  0  0  0  0  0  0  0  0
  148.4704  134.5337  160.5936 H   0  0  0  0  0  0  0  0  0  0  0  0
  146.0198  136.6820  158.6576 H   0  0  0  0  0  0  0  0  0  0  0  0
  146.2417  138.1372  159.6232 H   0  0  0  0  0  0  0  0  0  0  0  0
  145.4118  136.7450  160.3091 H   0  0  0  0  0  0  0  0  0  0  0  0
  150.7717  138.2214  156.0065 H   0  0  0  0  0  0  0  0  0  0  0  0
  149.4794  139.3536  156.3502 H   0  0  0  0  0  0  0  0  0  0  0  0
  149.9028  141.2007  157.6581 H   0  0  0  0  0  0  0  0  0  0  0  0
  152.5741  142.3008  157.4998 H   0  0  0  0  0  0  0  0  0  0  0  0
  151.4041  141.6150  160.2333 H   0  0  0  0  0  0  0  0  0  0  0  0
  152.8536  140.9345  159.5335 H   0  0  0  0  0  0  0  0  0  0  0  0
  153.3875  142.7495  161.1641 H   0  0  0  0  0  0  0  0  0  0  0  0
  153.9668  143.1382  159.5622 H   0  0  0  0  0  0  0  0  0  0  0  0
  151.4102  144.2018  160.8605 H   0  0  0  0  0  0  0  0  0  0  0  0
  152.8637  145.1192  160.5457 H   0  0  0  0  0  0  0  0  0  0  0  0
  151.1116  145.5469  158.8092 H   0  0  0  0  0  0  0  0  0  0  0  0
  152.5597  144.8680  158.1067 H   0  0  0  0  0  0  0  0  0  0  0  0
  150.5753  143.7441  157.1725 H   0  0  0  0  0  0  0  0  0  0  0  0
  149.9939  143.3478  158.7716 H   0  0  0  0  0  0  0  0  0  0  0  0
  1  2  1  0  0  0  0
  1 21  1  0  0  0  0
  1 22  1  0  0  0  0
  1 23  1  0  0  0  0
  2  3  1  0  0  0  0
  3  4  1  0  0  0  0
  3  5  1  0  0  0  0
  3  6  1  0  0  0  0
  4 24  1  0  0  0  0
  4 25  1  0  0  0  0
  4 26  1  0  0  0  0
  5 27  1  0  0  0  0
  5 28  1  0  0  0  0
  5 29  1  0  0  0  0
  6 20  1  0  0  0  0
  6  7  2  0  0  0  0
  7  8  1  0  0  0  0
  8  9  1  0  0  0  0
  8 19  2  0  0  0  0
  9 10  1  0  0  0  0
  9 30  1  0  0  0  0
  9 31  1  0  0  0  0
 10 11  2  0  0  0  0
 10 12  1  0  0  0  0
 12 13  1  0  0  0  0
 12 32  1  0  0  0  0
 13 18  1  0  0  0  0
 13 14  1  0  0  0  0
 13 33  1  0  0  0  0
 14 15  1  0  0  0  0
 14 34  1  0  0  0  0
 14 35  1  0  0  0  0
 15 16  1  0  0  0  0
 15 36  1  0  0  0  0
 15 37  1  0  0  0  0
 16 17  1  0  0  0  0
 16 38  1  0  0  0  0
 16 39  1  0  0  0  0
 17 18  1  0  0  0  0
 17 40  1  0  0  0  0
 17 41  1  0  0  0  0
 18 42  1  0  0  0  0
 18 43  1  0  0  0  0
 19 20  1  0  0  0  0
M  END
> <s_m_source_file>
AV-unprocessed.smi

> <i_m_source_file_index>
2737

> <i_lp_mmshare_version>
43012

> <i_f3d_flags>
0

> <s_epik_input>
W0NIM11PQyhbQ0gzXSkoW0NIM10pYzFuYyhubzEpW0NIMl1DKD1PKVtOSF1bQ0hdMltDSDJdW0NIMl1bQ0gyXVtDSDJdW0NIMl0y

> <s_epik_cmdline>
J2VwaWtfcHl0aG9uJywgJy1waCcsICc3LjAnLCAnLXRuJywgJzgnLCAnLW1hJywgJzIwMCcsICctbWV0YWxfYmluZGluZycsICctaW1hZScsICc8aW5maWxlLm1hZT4nLCAnLW9tYWUnLCAnPG91dGZpbGUubWFlPic=

> <r_lp_tautomer_probability>
1

> <r_epik_Ionization_Penalty>
6.23621e-08

> <r_epik_Ionization_Penalty_Charging>
0

> <r_epik_Ionization_Penalty_Neutral>
6.23621e-08

> <r_epik_State_Penalty>
-0

> <r_epik_Charging_Adjusted_Penalty>
0

> <i_epik_Tot_Q>
0

> <i_epik_Tot_abs_Q>
0

> <r_epik_Metal_State_Penalty>
-0

> <b_epik_Metal_Only>
0

> <s_lp_Force_Field>
OPLS_2005

> <r_lp_Energy>
12.1287

> <b_lp_Chiralities_Consistent>
1

> <s_lp_Variant>
AV-unprocessed.smi:2737-1

> <Gold.Version>
5.8.1

> <Gold.Id.Protein>
6NUR|6NUR_protein|mol2

> <Gold.PLP.Fitness>
46.5116

> <Gold.PLP.PLP>
-36.7233

> <Gold.PLP.part.hbond>
-4.1673

> <Gold.PLP.part.metal>
0.0000

> <Gold.PLP.part.buried>
-5.1642

> <Gold.PLP.part.nonpolar>
-27.3141

> <Gold.PLP.part.repulsive>
0.0528

> <Gold.PLP.ligand.clash>
0.0000

> <Gold.PLP.ligand.torsion>
0.7981

> <Gold.PLP.Chemscore.Hbond>
3.7200

> <Gold.PLP.Chemscore.CHOScore>
0.0000

> <Gold.PLP.Chemscore.Metal>
0.0000

> <Gold.Chemscore.Hbonds>
donor molecule, donor type, donor heavy atom, donor atom, acceptor molecule, acceptor atom, score
      P1  H  6896  6909       L1    20  1.00
      P1  H  6931  6943       L1     2  1.00
      P1  H  6934  6947       L1     2  0.60
      P1  H  7997  8010       L1    11  1.00

> <Gold.PLP.Chemscore.Internal.Correction>
0.2246

> <Gold.Rescore>
     Score         DG    S(hbond)    S(metal)    S(lipo)     H(rot)  DE(clash)    DE(int)     intcor
     19.96     -20.73       2.76        0.00      92.17       1.86       0.00       0.77       ----

> <Gold.Chemscore.Fitness>
19.9611

> <Gold.Chemscore.DG>
-20.7340

> <Gold.Chemscore.ZeroCoef>
-5.4800

> <Gold.Chemscore.Hbond>
2.7636

> <Gold.Chemscore.Metal>
0.0000

> <Gold.Chemscore.Lipo>
92.1708

> <Gold.Chemscore.Internal_Hbond>
0.0000

> <Gold.Chemscore.DEClash>
0.0004

> <Gold.Chemscore.DEInternal>
0.7725

> <Gold.Chemscore.Rot>
1.8596

> <Gold.Chemscore.Internal.Correction>
   9.000000E+99

> <Gold.Chemscore.Hbonds>
donor molecule, donor type, donor heavy atom, donor atom, acceptor molecule, acceptor atom, score
      P1  H  6896  6909       L1    20  0.24
      P1  H  6931  6943       L1     2  0.91
      P1  H  6934  6947       L1     2  0.06
      P1  H  7997  8010       L1    11  0.99

> <Gold.Chemscore.Hbond.Weighted>
-9.2305

> <Gold.Chemscore.Metal.Weighted>
-0.0000

> <Gold.Chemscore.Lipo.Weighted>
-10.7840

> <Gold.Chemscore.Internal_Hbond.Weighted>
0.0000

> <Gold.Chemscore.DEClash.Weighted>
0.0004

> <Gold.Chemscore.DEInternal.Weighted>
0.7725

> <Gold.Chemscore.Rot.Weighted>
4.7605

> <Gold.Chemscore.Internal.Correction.Weighted>
   9.000000E+99

> <Gold.Protein.RotatedTorsions>
[ 6907 6896 6895 6894 ] final   78.61 input  -60.11 | X-H torsion
[ 7974 7965 7964 7962 ] final -134.27 input  175.53 | X-H torsion
[ 8008 7997 7996 7995 ] final   51.89 input   59.86 | X-H torsion
[ 10167 10162 10161 10158 ] final  -21.46 input  -65.29 | X-H torsion
[ 10718 10713 10712 10709 ] final   -4.13 input   66.30 | X-H torsion
[ 10763 10752 10751 10750 ] final  104.43 input  -60.55 | X-H torsion
[ 11005 11000 10999 10996 ] final -101.06 input  -57.11 | X-H torsion

> <Gold.Protein.ActiveResidues>
 VAL166  LYS551  ARG553  GLY616  TRP617  ASP618  TYR619  PRO620  LYS621  CYS622 
 ASP623  PHE694  ASN695  SER759  ASP760  ASP761  ALA762  ILE779  LEU786  VAL792 
 PHE793  MET794  SER795  GLU796  ALA797  LYS798  CYS799  TRP800  GLU811  SER814 

> <Gold.Protein.RotatedAtoms>
  152.5166  134.3638  159.9293 H   0  0  0  0  0  0  0  0  0  0  0  0  # atno 6907 bound_to 6896
  151.3591  133.3890  159.2695 H   0  0  0  0  0  0  0  0  0  0  0  0  # atno 6908 bound_to 6896
  150.9666  134.9065  159.7821 H   0  0  0  0  0  0  0  0  0  0  0  0  # atno 6909 bound_to 6896
  144.9118  140.6904  143.5020 H   0  0  0  0  0  0  0  0  0  0  0  0  # atno 7974 bound_to 7965
  155.4428  140.3455  155.4292 H   0  0  0  0  0  0  0  0  0  0  0  0  # atno 8008 bound_to 7997
  156.1268  140.1503  156.9154 H   0  0  0  0  0  0  0  0  0  0  0  0  # atno 8009 bound_to 7997
  154.4864  140.0854  156.7476 H   0  0  0  0  0  0  0  0  0  0  0  0  # atno 8010 bound_to 7997
  140.7282  143.4626  151.0359 H   0  0  0  0  0  0  0  0  0  0  0  0  # atno 10167 bound_to 10162
  156.7659  130.5284  149.5776 H   0  0  0  0  0  0  0  0  0  0  0  0  # atno 10718 bound_to 10713
  153.3658  135.3943  155.1752 H   0  0  0  0  0  0  0  0  0  0  0  0  # atno 10763 bound_to 10752
  154.8686  135.3690  154.5041 H   0  0  0  0  0  0  0  0  0  0  0  0  # atno 10764 bound_to 10752
  153.5504  135.7083  153.5654 H   0  0  0  0  0  0  0  0  0  0  0  0  # atno 10765 bound_to 10752
  141.1246  133.8448  157.1182 H   0  0  0  0  0  0  0  0  0  0  0  0  # atno 11005 bound_to 11000
  145.3442  139.1724  143.4469 LP  0  0  0  0  0  0  0  0  0  0  0  0  # atno 17320 bound_to 7965
  146.3162  140.3486  142.8654 LP  0  0  0  0  0  0  0  0  0  0  0  0  # atno 17321 bound_to 7965
  139.8311  143.7689  152.3180 LP  0  0  0  0  0  0  0  0  0  0  0  0  # atno 17342 bound_to 10162
  139.7805  144.7446  151.0095 LP  0  0  0  0  0  0  0  0  0  0  0  0  # atno 17343 bound_to 10162
  156.1309  130.6177  151.0332 LP  0  0  0  0  0  0  0  0  0  0  0  0  # atno 17370 bound_to 10713
  157.6713  131.0860  150.7604 LP  0  0  0  0  0  0  0  0  0  0  0  0  # atno 17371 bound_to 10713
  140.0233  134.9936  157.0635 LP  0  0  0  0  0  0  0  0  0  0  0  0  # atno 17394 bound_to 11000
  140.4404  134.1687  155.7173 LP  0  0  0  0  0  0  0  0  0  0  0  0  # atno 17395 bound_to 11000

$$$$
