AV-unprocessed.smi:610|AV-procd|sdf|3054|dock3
  -GOLD-   2262023573D 1   1.00000     0.00000
 Structure written by MMmdl.
 39 40  0  0  0  0  0  0  0  0  3 V2000
  149.0088  141.3601  157.0751 C   0  0  0  0  0  0  0  0  0  0  0  0
  150.4605  140.8924  157.2454 C   0  0  1  0  0  0  0  0  0  0  0  0
  151.1564  140.7325  155.8765 C   0  0  0  0  0  0  0  0  0  0  0  0
  151.0289  139.3808  155.3203 N   0  0  0  0  0  0  0  0  0  0  0  0
  151.5310  138.2167  155.8434 C   0  0  0  0  0  0  0  0  0  0  0  0
  151.1678  137.2129  154.9831 C   0  0  0  0  0  0  0  0  0  0  0  0
  150.4530  137.8045  153.9764 N   0  3  0  0  0  0  0  0  0  0  0  0
  150.3633  139.1217  154.1870 C   0  0  0  0  0  0  0  0  0  0  0  0
  151.1686  141.8563  158.0872 N   0  0  0  0  0  0  0  0  0  0  0  0
  152.1009  141.5669  159.0119 C   0  0  0  0  0  0  0  0  0  0  0  0
  152.4569  140.4122  159.2493 O   0  0  0  0  0  0  0  0  0  0  0  0
  152.7306  142.7330  159.8107 C   0  0  0  0  0  0  0  0  0  0  0  0
  153.6714  142.1403  160.7792 N   0  3  0  0  0  0  0  0  0  0  0  0
  153.4457  143.7239  158.8726 C   0  0  0  0  0  0  0  0  0  0  0  0
  152.3582  144.6943  158.3871 C   0  0  0  0  0  0  0  0  0  0  0  0
  151.2228  144.6186  159.4200 C   0  0  0  0  0  0  0  0  0  0  0  0
  151.7147  143.6591  160.5113 C   0  0  0  0  0  0  0  0  0  0  0  0
  148.4351  140.6495  156.4794 H   0  0  0  0  0  0  0  0  0  0  0  0
  148.9588  142.3282  156.5752 H   0  0  0  0  0  0  0  0  0  0  0  0
  148.5098  141.4566  158.0399 H   0  0  0  0  0  0  0  0  0  0  0  0
  150.4283  139.9209  157.7424 H   0  0  0  0  0  0  0  0  0  0  0  0
  150.7180  141.4163  155.1485 H   0  0  0  0  0  0  0  0  0  0  0  0
  152.2158  140.9853  155.9470 H   0  0  0  0  0  0  0  0  0  0  0  0
  152.1001  138.1907  156.7616 H   0  0  0  0  0  0  0  0  0  0  0  0
  151.3582  136.1497  155.0122 H   0  0  0  0  0  0  0  0  0  0  0  0
  149.8585  139.8352  153.5603 H   0  0  0  0  0  0  0  0  0  0  0  0
  150.9262  142.8278  157.9553 H   0  0  0  0  0  0  0  0  0  0  0  0
  153.6483  142.6659  161.6413 H   0  0  0  0  0  0  0  0  0  0  0  0
  154.6048  142.1652  160.3936 H   0  0  0  0  0  0  0  0  0  0  0  0
  154.1969  144.2846  159.4312 H   0  0  0  0  0  0  0  0  0  0  0  0
  153.9665  143.2494  158.0397 H   0  0  0  0  0  0  0  0  0  0  0  0
  152.7507  145.7072  158.2897 H   0  0  0  0  0  0  0  0  0  0  0  0
  151.9900  144.3942  157.4058 H   0  0  0  0  0  0  0  0  0  0  0  0
  150.9734  145.5978  159.8303 H   0  0  0  0  0  0  0  0  0  0  0  0
  150.3216  144.2239  158.9487 H   0  0  0  0  0  0  0  0  0  0  0  0
  150.8973  143.1397  161.0130 H   0  0  0  0  0  0  0  0  0  0  0  0
  152.2248  144.2400  161.2817 H   0  0  0  0  0  0  0  0  0  0  0  0
  153.4106  141.1816  160.9603 H   0  0  0  0  0  0  0  0  0  0  0  0
  150.0447  137.3161  153.1889 H   0  0  0  0  0  0  0  0  0  0  0  0
  1  2  1  0  0  0  0
  1 18  1  0  0  0  0
  1 19  1  0  0  0  0
  1 20  1  0  0  0  0
  2  3  1  0  0  0  0
  2  9  1  0  0  0  0
  2 21  1  0  0  0  0
  3  4  1  0  0  0  0
  3 22  1  0  0  0  0
  3 23  1  0  0  0  0
  4  8  1  0  0  0  0
  4  5  1  0  0  0  0
  5  6  2  0  0  0  0
  5 24  1  0  0  0  0
  6  7  1  0  0  0  0
  6 25  1  0  0  0  0
  7  8  2  0  0  0  0
  7 39  1  0  0  0  0
  8 26  1  0  0  0  0
  9 10  1  0  0  0  0
  9 27  1  0  0  0  0
 10 11  2  0  0  0  0
 10 12  1  0  0  0  0
 12 17  1  0  0  0  0
 12 13  1  0  0  0  0
 12 14  1  0  0  0  0
 13 28  1  0  0  0  0
 13 29  1  0  0  0  0
 13 38  1  0  0  0  0
 14 15  1  0  0  0  0
 14 30  1  0  0  0  0
 14 31  1  0  0  0  0
 15 16  1  0  0  0  0
 15 32  1  0  0  0  0
 15 33  1  0  0  0  0
 16 17  1  0  0  0  0
 16 34  1  0  0  0  0
 16 35  1  0  0  0  0
 17 36  1  0  0  0  0
 17 37  1  0  0  0  0
M  CHG  1   7   1
M  CHG  1  13   1
M  END
> <s_m_source_file>
AV-unprocessed.smi

> <i_m_source_file_index>
610

> <i_lp_mmshare_version>
43012

> <i_f3d_flags>
0

> <s_epik_input>
W2NIXTFuW2NIXVtjSF1uMVtDSDJdW0NAQEhdKFtDSDNdKVtOSF1DKD1PKUMyKFtOSDJdKVtDSDJdW0NIMl1bQ0gyXVtDSDJdMg==

> <s_epik_cmdline>
J2VwaWtfcHl0aG9uJywgJy1waCcsICc3LjAnLCAnLXRuJywgJzgnLCAnLW1hJywgJzIwMCcsICctbWV0YWxfYmluZGluZycsICctaW1hZScsICc8aW5maWxlLm1hZT4nLCAnLW9tYWUnLCAnPG91dGZpbGUubWFlPic=

> <r_lp_tautomer_probability>
1

> <r_epik_Ionization_Penalty>
0.349719

> <r_epik_Ionization_Penalty_Charging>
0.0753376

> <r_epik_Ionization_Penalty_Neutral>
0.274381

> <r_epik_State_Penalty>
0.326418

> <r_epik_Charging_Adjusted_Penalty>
0.401755

> <i_epik_Tot_Q>
2

> <i_epik_Tot_abs_Q>
2

> <r_epik_Metal_State_Penalty>
0.608513

> <b_epik_Metal_Only>
0

> <s_lp_Force_Field>
OPLS_2005

> <r_lp_Energy>
30.9651

> <b_lp_Chiralities_Consistent>
1

> <s_lp_Variant>
AV-unprocessed.smi:610-2

> <Gold.Version>
5.8.1

> <Gold.Id.Protein>
6NUR|6NUR_protein|mol2

> <Gold.PLP.Fitness>
44.7389

> <Gold.PLP.PLP>
-37.3383

> <Gold.PLP.part.hbond>
-1.5125

> <Gold.PLP.part.metal>
0.0000

> <Gold.PLP.part.buried>
-5.2291

> <Gold.PLP.part.nonpolar>
-30.6165

> <Gold.PLP.part.repulsive>
0.1554

> <Gold.PLP.ligand.clash>
0.0000

> <Gold.PLP.ligand.torsion>
0.8020

> <Gold.PLP.Chemscore.Hbond>
2.0000

> <Gold.PLP.Chemscore.CHOScore>
0.9811

> <Gold.PLP.Chemscore.Metal>
0.0000

> <Gold.Chemscore.Hbonds>
donor molecule, donor type, donor heavy atom, donor atom, acceptor molecule, acceptor atom, score
      L1  H     7    39       P1  7948  1.90
      L1  C     8    26       P1  7957  1.00

> <Gold.PLP.Chemscore.Internal.Correction>
0.0615

> <Gold.Rescore>
     Score         DG    S(hbond)    S(metal)    S(lipo)     H(rot)  DE(clash)    DE(int)     intcor
     12.24     -14.14       0.96        0.00      91.80       2.06       0.20       1.70       ----

> <Gold.Chemscore.Fitness>
12.2424

> <Gold.Chemscore.DG>
-14.1394

> <Gold.Chemscore.ZeroCoef>
-5.4800

> <Gold.Chemscore.Hbond>
0.9593

> <Gold.Chemscore.Metal>
0.0000

> <Gold.Chemscore.Lipo>
91.7966

> <Gold.Chemscore.Internal_Hbond>
0.0000

> <Gold.Chemscore.DEClash>
0.1957

> <Gold.Chemscore.DEInternal>
1.7013

> <Gold.Chemscore.Rot>
2.0644

> <Gold.Chemscore.Internal.Correction>
   9.000000E+99

> <Gold.Chemscore.Hbonds>
donor molecule, donor type, donor heavy atom, donor atom, acceptor molecule, acceptor atom, score
      L1  H     7    39       P1  7948  0.21

> <Gold.Chemscore.Hbond.Weighted>
-3.2040

> <Gold.Chemscore.Metal.Weighted>
-0.0000

> <Gold.Chemscore.Lipo.Weighted>
-10.7402

> <Gold.Chemscore.Internal_Hbond.Weighted>
0.0000

> <Gold.Chemscore.DEClash.Weighted>
0.1957

> <Gold.Chemscore.DEInternal.Weighted>
1.7013

> <Gold.Chemscore.Rot.Weighted>
5.2848

> <Gold.Chemscore.Internal.Correction.Weighted>
   9.000000E+99

> <Gold.Protein.RotatedTorsions>
[ 6907 6896 6895 6894 ] final  167.49 input  -60.11 | X-H torsion
[ 7974 7965 7964 7962 ] final   82.83 input  175.53 | X-H torsion
[ 8008 7997 7996 7995 ] final  147.96 input   59.86 | X-H torsion
[ 10167 10162 10161 10158 ] final  -73.83 input  -65.29 | X-H torsion
[ 10718 10713 10712 10709 ] final -140.93 input   66.30 | X-H torsion
[ 10763 10752 10751 10750 ] final  125.33 input  -60.55 | X-H torsion
[ 11005 11000 10999 10996 ] final -166.40 input  -57.11 | X-H torsion

> <Gold.Protein.ActiveResidues>
 VAL166  LYS551  ARG553  GLY616  TRP617  ASP618  TYR619  PRO620  LYS621  CYS622 
 ASP623  PHE694  ASN695  SER759  ASP760  ASP761  ALA762  ILE779  LEU786  VAL792 
 PHE793  MET794  SER795  GLU796  ALA797  LYS798  CYS799  TRP800  GLU811  SER814 

> <Gold.Protein.RotatedAtoms>
  151.8624  133.3460  159.3707 H   0  0  0  0  0  0  0  0  0  0  0  0  # atno 6907 bound_to 6896
  150.7175  134.5193  159.5655 H   0  0  0  0  0  0  0  0  0  0  0  0  # atno 6908 bound_to 6896
  152.2709  134.7934  160.0465 H   0  0  0  0  0  0  0  0  0  0  0  0  # atno 6909 bound_to 6896
  145.6199  139.2384  143.2144 H   0  0  0  0  0  0  0  0  0  0  0  0  # atno 7974 bound_to 7965
  156.2807  140.2141  156.5622 H   0  0  0  0  0  0  0  0  0  0  0  0  # atno 8008 bound_to 7997
  154.7204  140.0504  157.0657 H   0  0  0  0  0  0  0  0  0  0  0  0  # atno 8009 bound_to 7997
  155.0486  140.3153  155.4703 H   0  0  0  0  0  0  0  0  0  0  0  0  # atno 8010 bound_to 7997
  140.5077  143.2350  151.7645 H   0  0  0  0  0  0  0  0  0  0  0  0  # atno 10167 bound_to 10162
  156.3281  130.7571  151.1683 H   0  0  0  0  0  0  0  0  0  0  0  0  # atno 10718 bound_to 10713
  153.6755  135.3323  155.3164 H   0  0  0  0  0  0  0  0  0  0  0  0  # atno 10763 bound_to 10752
  154.8479  135.4396  154.1660 H   0  0  0  0  0  0  0  0  0  0  0  0  # atno 10764 bound_to 10752
  153.2663  135.6996  153.7603 H   0  0  0  0  0  0  0  0  0  0  0  0  # atno 10765 bound_to 10752
  140.5649  134.5296  157.5150 H   0  0  0  0  0  0  0  0  0  0  0  0  # atno 11005 bound_to 11000
  146.1439  140.7019  142.9354 LP  0  0  0  0  0  0  0  0  0  0  0  0  # atno 17320 bound_to 7965
  144.7235  140.4451  143.6990 LP  0  0  0  0  0  0  0  0  0  0  0  0  # atno 17321 bound_to 7965
  139.4888  144.4434  151.9738 LP  0  0  0  0  0  0  0  0  0  0  0  0  # atno 17342 bound_to 10162
  140.3525  144.3072  150.5947 LP  0  0  0  0  0  0  0  0  0  0  0  0  # atno 17343 bound_to 10162
  157.7425  131.0489  150.5018 LP  0  0  0  0  0  0  0  0  0  0  0  0  # atno 17370 bound_to 10713
  156.5180  130.4155  149.6265 LP  0  0  0  0  0  0  0  0  0  0  0  0  # atno 17371 bound_to 10713
  139.9390  134.7822  156.0728 LP  0  0  0  0  0  0  0  0  0  0  0  0  # atno 17394 bound_to 11000
  141.1092  133.6649  156.2937 LP  0  0  0  0  0  0  0  0  0  0  0  0  # atno 17395 bound_to 11000

$$$$
