AV-unprocessed.smi:1093|AV-procd|sdf|4740|dock2
  -GOLD-   22720 3273D 1   1.00000     0.00000
 Structure written by MMmdl.
 48 49  0  0  0  0  0  0  0  0  3 V2000
  146.0937  132.1421  151.7262 C   0  0  0  0  0  0  0  0  0  0  0  0
  147.2518  133.1335  151.9103 C   0  0  0  0  0  0  0  0  0  0  0  0
  146.7744  134.5208  152.1331 N   0  3  1  0  0  0  0  0  0  0  0  0
  145.8342  134.9746  151.0756 C   0  0  0  0  0  0  0  0  0  0  0  0
  145.4799  136.4621  151.2473 C   0  0  0  0  0  0  0  0  0  0  0  0
  144.9296  136.7490  152.6543 C   0  0  0  0  0  0  0  0  0  0  0  0
  145.8883  136.2262  153.7390 C   0  0  2  0  0  0  0  0  0  0  0  0
  147.1048  137.0402  153.7673 N   0  0  0  0  0  0  0  0  0  0  0  0
  147.5511  137.7276  154.8288 C   0  0  0  0  0  0  0  0  0  0  0  0
  146.9879  137.7209  155.9227 O   0  0  0  0  0  0  0  0  0  0  0  0
  148.6840  138.3918  154.5404 N   0  0  0  0  0  0  0  0  0  0  0  0
  149.4558  139.2383  155.3832 C   0  0  0  0  0  0  0  0  0  0  0  0
  150.0743  140.3628  154.7973 C   0  0  0  0  0  0  0  0  0  0  0  0
  150.8409  141.2384  155.5934 C   0  0  0  0  0  0  0  0  0  0  0  0
  150.9788  140.9914  156.9812 C   0  0  0  0  0  0  0  0  0  0  0  0
  151.7269  141.8215  157.8439 N   0  0  0  0  0  0  0  0  0  0  0  0
  151.7937  143.2563  157.5893 C   0  0  0  0  0  0  0  0  0  0  0  0
  152.3120  141.2638  159.0566 C   0  0  0  0  0  0  0  0  0  0  0  0
  150.3549  139.9061  157.5009 N   0  3  0  0  0  0  0  0  0  0  0  0
  149.6140  139.0406  156.7758 C   0  0  0  0  0  0  0  0  0  0  0  0
  146.1996  134.7337  153.4882 C   0  0  0  0  0  0  0  0  0  0  0  0
  146.4717  131.1222  151.6514 H   0  0  0  0  0  0  0  0  0  0  0  0
  145.5215  132.3405  150.8204 H   0  0  0  0  0  0  0  0  0  0  0  0
  145.4070  132.1775  152.5725 H   0  0  0  0  0  0  0  0  0  0  0  0
  147.8308  132.8079  152.7756 H   0  0  0  0  0  0  0  0  0  0  0  0
  147.9293  133.1012  151.0560 H   0  0  0  0  0  0  0  0  0  0  0  0
  146.2826  134.8270  150.0922 H   0  0  0  0  0  0  0  0  0  0  0  0
  144.9294  134.3651  151.1060 H   0  0  0  0  0  0  0  0  0  0  0  0
  146.3664  137.0712  151.0657 H   0  0  0  0  0  0  0  0  0  0  0  0
  144.7476  136.7584  150.4958 H   0  0  0  0  0  0  0  0  0  0  0  0
  144.7507  137.8175  152.7812 H   0  0  0  0  0  0  0  0  0  0  0  0
  143.9603  136.2615  152.7658 H   0  0  0  0  0  0  0  0  0  0  0  0
  145.3934  136.3265  154.7068 H   0  0  0  0  0  0  0  0  0  0  0  0
  147.6264  137.1065  152.9052 H   0  0  0  0  0  0  0  0  0  0  0  0
  149.0600  138.2462  153.6148 H   0  0  0  0  0  0  0  0  0  0  0  0
  149.9680  140.5562  153.7399 H   0  0  0  0  0  0  0  0  0  0  0  0
  151.3092  142.0906  155.1236 H   0  0  0  0  0  0  0  0  0  0  0  0
  152.2099  143.4527  156.6007 H   0  0  0  0  0  0  0  0  0  0  0  0
  152.4256  143.7602  158.3208 H   0  0  0  0  0  0  0  0  0  0  0  0
  150.7995  143.7011  157.6426 H   0  0  0  0  0  0  0  0  0  0  0  0
  151.5404  140.8188  159.6859 H   0  0  0  0  0  0  0  0  0  0  0  0
  152.8168  142.0322  159.6426 H   0  0  0  0  0  0  0  0  0  0  0  0
  153.0476  140.4973  158.8105 H   0  0  0  0  0  0  0  0  0  0  0  0
  149.1737  138.2380  157.3475 H   0  0  0  0  0  0  0  0  0  0  0  0
  145.2874  134.1431  153.5888 H   0  0  0  0  0  0  0  0  0  0  0  0
  146.8814  134.3674  154.2545 H   0  0  0  0  0  0  0  0  0  0  0  0
  147.5878  135.1151  152.0617 H   0  0  0  0  0  0  0  0  0  0  0  0
  150.4476  139.7323  158.5018 H   0  0  0  0  0  0  0  0  0  0  0  0
  1  2  1  0  0  0  0
  1 22  1  0  0  0  0
  1 23  1  0  0  0  0
  1 24  1  0  0  0  0
  2  3  1  0  0  0  0
  2 25  1  0  0  0  0
  2 26  1  0  0  0  0
  3 21  1  0  0  0  0
  3  4  1  0  0  0  0
  3 47  1  0  0  0  0
  4  5  1  0  0  0  0
  4 27  1  0  0  0  0
  4 28  1  0  0  0  0
  5  6  1  0  0  0  0
  5 29  1  0  0  0  0
  5 30  1  0  0  0  0
  6  7  1  0  0  0  0
  6 31  1  0  0  0  0
  6 32  1  0  0  0  0
  7  8  1  0  0  0  0
  7 21  1  0  0  0  0
  7 33  1  0  0  0  0
  8  9  1  0  0  0  0
  8 34  1  0  0  0  0
  9 10  2  0  0  0  0
  9 11  1  0  0  0  0
 11 12  1  0  0  0  0
 11 35  1  0  0  0  0
 12 20  1  0  0  0  0
 12 13  2  0  0  0  0
 13 14  1  0  0  0  0
 13 36  1  0  0  0  0
 14 15  2  0  0  0  0
 14 37  1  0  0  0  0
 15 16  1  0  0  0  0
 15 19  1  0  0  0  0
 16 17  1  0  0  0  0
 16 18  1  0  0  0  0
 17 38  1  0  0  0  0
 17 39  1  0  0  0  0
 17 40  1  0  0  0  0
 18 41  1  0  0  0  0
 18 42  1  0  0  0  0
 18 43  1  0  0  0  0
 19 20  2  0  0  0  0
 19 48  1  0  0  0  0
 20 44  1  0  0  0  0
 21 45  1  0  0  0  0
 21 46  1  0  0  0  0
M  CHG  1   3   1
M  CHG  1  19   1
M  END
> <s_m_source_file>
AV-unprocessed.smi

> <i_m_source_file_index>
1093

> <i_lp_mmshare_version>
43012

> <i_f3d_flags>
0

> <s_epik_input>
W0NIM11bQ0gyXU4xW0NIMl1bQ0gyXVtDSDJdW0NASF0oW0NIMl0xKVtOSF1DKD1PKVtOSF1jMltjSF1bY0hdYyhOKFtDSDNdKVtDSDNdKW5bY0hdMg==

> <s_epik_cmdline>
J2VwaWtfcHl0aG9uJywgJy1waCcsICc3LjAnLCAnLXRuJywgJzgnLCAnLW1hJywgJzIwMCcsICctbWV0YWxfYmluZGluZycsICctaW1hZScsICc8aW5maWxlLm1hZT4nLCAnLW9tYWUnLCAnPG91dGZpbGUubWFlPic=

> <r_lp_tautomer_probability>
0.999994

> <r_epik_Ionization_Penalty>
0.346711

> <r_epik_Ionization_Penalty_Charging>
0.346691

> <r_epik_Ionization_Penalty_Neutral>
1.93006e-05

> <r_epik_State_Penalty>
0.339838

> <r_epik_Charging_Adjusted_Penalty>
0.68653

> <i_epik_Tot_Q>
2

> <i_epik_Tot_abs_Q>
2

> <r_epik_Metal_State_Penalty>
0.600835

> <b_epik_Metal_Only>
0

> <s_lp_Force_Field>
OPLS_2005

> <r_lp_Energy>
35.5794

> <b_lp_Chiralities_Consistent>
1

> <s_lp_Variant>
AV-unprocessed.smi:1093-3

> <Gold.Version>
5.8.1

> <Gold.Id.Protein>
6NUR|6NUR_protein|mol2

> <Gold.PLP.Fitness>
36.4566

> <Gold.PLP.PLP>
-28.7706

> <Gold.PLP.part.hbond>
-2.0000

> <Gold.PLP.part.metal>
0.0000

> <Gold.PLP.part.buried>
-2.9858

> <Gold.PLP.part.nonpolar>
-24.1606

> <Gold.PLP.part.repulsive>
0.1260

> <Gold.PLP.ligand.clash>
0.0000

> <Gold.PLP.ligand.torsion>
0.6807

> <Gold.PLP.Chemscore.Hbond>
3.0000

> <Gold.PLP.Chemscore.CHOScore>
0.0000

> <Gold.PLP.Chemscore.Metal>
0.0000

> <Gold.Chemscore.Hbonds>
donor molecule, donor type, donor heavy atom, donor atom, acceptor molecule, acceptor atom, score
      L1  H     3    47       P1  7948  2.00
      L1  H     8    34       P1  7948  0.88

> <Gold.PLP.Chemscore.Internal.Correction>
0.0473

> <Gold.Rescore>
     Score         DG    S(hbond)    S(metal)    S(lipo)     H(rot)  DE(clash)    DE(int)     intcor
     16.04     -17.09       1.88        0.00      71.79       1.19       0.03       1.02       ----

> <Gold.Chemscore.Fitness>
16.0380

> <Gold.Chemscore.DG>
-17.0949

> <Gold.Chemscore.ZeroCoef>
-5.4800

> <Gold.Chemscore.Hbond>
1.8785

> <Gold.Chemscore.Metal>
0.0000

> <Gold.Chemscore.Lipo>
71.7903

> <Gold.Chemscore.Internal_Hbond>
0.0000

> <Gold.Chemscore.DEClash>
0.0327

> <Gold.Chemscore.DEInternal>
1.0242

> <Gold.Chemscore.Rot>
1.1949

> <Gold.Chemscore.Internal.Correction>
   9.000000E+99

> <Gold.Chemscore.Hbonds>
donor molecule, donor type, donor heavy atom, donor atom, acceptor molecule, acceptor atom, score
      L1  H     3    47       P1  7948  0.94
      L1  H     8    34       P1  7948  0.86

> <Gold.Chemscore.Hbond.Weighted>
-6.2744

> <Gold.Chemscore.Metal.Weighted>
-0.0000

> <Gold.Chemscore.Lipo.Weighted>
-8.3995

> <Gold.Chemscore.Internal_Hbond.Weighted>
0.0000

> <Gold.Chemscore.DEClash.Weighted>
0.0327

> <Gold.Chemscore.DEInternal.Weighted>
1.0242

> <Gold.Chemscore.Rot.Weighted>
3.0590

> <Gold.Chemscore.Internal.Correction.Weighted>
   9.000000E+99

> <Gold.Protein.RotatedTorsions>
[ 6907 6896 6895 6894 ] final   14.83 input  -60.11 | X-H torsion
[ 7974 7965 7964 7962 ] final  168.42 input  175.53 | X-H torsion
[ 8008 7997 7996 7995 ] final    4.96 input   59.86 | X-H torsion
[ 10167 10162 10161 10158 ] final   17.74 input  -65.29 | X-H torsion
[ 10718 10713 10712 10709 ] final  107.78 input   66.30 | X-H torsion
[ 10763 10752 10751 10750 ] final  -56.32 input  -60.55 | X-H torsion
[ 11005 11000 10999 10996 ] final  139.09 input  -57.11 | X-H torsion

> <Gold.Protein.ActiveResidues>
 VAL166  LYS551  ARG553  GLY616  TRP617  ASP618  TYR619  PRO620  LYS621  CYS622 
 ASP623  PHE694  ASN695  SER759  ASP760  ASP761  ALA762  ILE779  LEU786  VAL792 
 PHE793  MET794  SER795  GLU796  ALA797  LYS798  CYS799  TRP800  GLU811  SER814 

> <Gold.Protein.RotatedAtoms>
  151.8084  135.0688  160.0409 H   0  0  0  0  0  0  0  0  0  0  0  0  # atno 6907 bound_to 6896
  152.3038  133.5678  159.5644 H   0  0  0  0  0  0  0  0  0  0  0  0  # atno 6908 bound_to 6896
  150.7286  134.0168  159.3730 H   0  0  0  0  0  0  0  0  0  0  0  0  # atno 6909 bound_to 6896
  144.7389  139.8905  143.6403 H   0  0  0  0  0  0  0  0  0  0  0  0  # atno 7974 bound_to 7965
  154.7224  140.2714  155.6529 H   0  0  0  0  0  0  0  0  0  0  0  0  # atno 8008 bound_to 7997
  156.2827  140.2732  156.1824 H   0  0  0  0  0  0  0  0  0  0  0  0  # atno 8009 bound_to 7997
  155.0489  140.0371  157.2526 H   0  0  0  0  0  0  0  0  0  0  0  0  # atno 8010 bound_to 7997
  140.5704  143.9172  150.6708 H   0  0  0  0  0  0  0  0  0  0  0  0  # atno 10167 bound_to 10162
  157.6614  131.0880  150.6208 H   0  0  0  0  0  0  0  0  0  0  0  0  # atno 10718 bound_to 10713
  154.2048  135.6405  153.5097 H   0  0  0  0  0  0  0  0  0  0  0  0  # atno 10763 bound_to 10752
  153.0003  135.5460  154.6278 H   0  0  0  0  0  0  0  0  0  0  0  0  # atno 10764 bound_to 10752
  154.5700  135.2916  155.0810 H   0  0  0  0  0  0  0  0  0  0  0  0  # atno 10765 bound_to 10752
  140.0230  134.9388  157.0511 H   0  0  0  0  0  0  0  0  0  0  0  0  # atno 11005 bound_to 11000
  146.1145  139.4154  143.0267 LP  0  0  0  0  0  0  0  0  0  0  0  0  # atno 17320 bound_to 7965
  145.7395  141.0013  143.1309 LP  0  0  0  0  0  0  0  0  0  0  0  0  # atno 17321 bound_to 7965
  140.2646  143.3499  152.1292 LP  0  0  0  0  0  0  0  0  0  0  0  0  # atno 17342 bound_to 10162
  139.5114  144.6901  151.5784 LP  0  0  0  0  0  0  0  0  0  0  0  0  # atno 17343 bound_to 10162
  156.6510  130.4485  149.5719 LP  0  0  0  0  0  0  0  0  0  0  0  0  # atno 17370 bound_to 10713
  156.2137  130.6695  151.1296 LP  0  0  0  0  0  0  0  0  0  0  0  0  # atno 17371 bound_to 10713
  140.4355  134.1736  155.7170 LP  0  0  0  0  0  0  0  0  0  0  0  0  # atno 17394 bound_to 11000
  141.1785  133.8463  157.1339 LP  0  0  0  0  0  0  0  0  0  0  0  0  # atno 17395 bound_to 11000

$$$$
