AV-unprocessed.smi:788|AV-procd|sdf|3734|dock7
  -GOLD-   22720 1173D 1   1.00000     0.00000
 Structure written by MMmdl.
 35 36  0  0  0  0  0  0  0  0  1 V2000
  144.4389  135.3483  150.2194 C   0  0  0  0  0  0  0  0  0  0  0  0
  144.2513  134.6212  151.5679 C   0  0  1  0  0  0  0  0  0  0  0  0
  143.4715  133.3015  151.4046 C   0  0  0  0  0  0  0  0  0  0  0  0
  144.3230  132.1993  150.7560 C   0  0  0  0  0  0  0  0  0  0  0  0
  145.6219  131.9680  151.5412 C   0  0  0  0  0  0  0  0  0  0  0  0
  146.4399  133.2649  151.6989 C   0  0  2  0  0  0  0  0  0  0  0  0
  147.7341  132.9897  152.4863 C   0  0  0  0  0  0  0  0  0  0  0  0
  145.5736  134.3768  152.3455 C   0  0  1  0  0  0  0  0  0  0  0  0
  146.3436  135.6125  152.4764 N   0  0  0  0  0  0  0  0  0  0  0  0
  145.9338  136.7377  153.0842 C   0  0  0  0  0  0  0  0  0  0  0  0
  144.8295  136.8420  153.6149 O   0  0  0  0  0  0  0  0  0  0  0  0
  146.8058  137.7688  153.0868 N   0  0  0  0  0  0  0  0  0  0  0  0
  146.7184  139.0868  153.6243 C   0  0  0  0  0  0  0  0  0  0  0  0
  146.3550  139.3764  154.8847 N   0  0  0  0  0  0  0  0  0  0  0  0
  146.3626  140.7426  155.1314 N   0  0  0  0  0  0  0  0  0  0  0  0
  146.7346  141.4328  154.0500 C   0  0  0  0  0  0  0  0  0  0  0  0
  147.1100  140.4799  152.6253 S   0  0  0  0  0  0  0  0  0  0  0  0
  145.0827  134.7915  149.5395 H   0  0  0  0  0  0  0  0  0  0  0  0
  144.8786  136.3367  150.3538 H   0  0  0  0  0  0  0  0  0  0  0  0
  143.4808  135.4921  149.7197 H   0  0  0  0  0  0  0  0  0  0  0  0
  143.6295  135.2768  152.1794 H   0  0  0  0  0  0  0  0  0  0  0  0
  143.1390  132.9600  152.3857 H   0  0  0  0  0  0  0  0  0  0  0  0
  142.5654  133.4664  150.8204 H   0  0  0  0  0  0  0  0  0  0  0  0
  143.7515  131.2721  150.7090 H   0  0  0  0  0  0  0  0  0  0  0  0
  144.5576  132.4653  149.7251 H   0  0  0  0  0  0  0  0  0  0  0  0
  145.3814  131.5641  152.5256 H   0  0  0  0  0  0  0  0  0  0  0  0
  146.2198  131.2090  151.0359 H   0  0  0  0  0  0  0  0  0  0  0  0
  146.7368  133.5941  150.7023 H   0  0  0  0  0  0  0  0  0  0  0  0
  147.5169  132.6931  153.5129 H   0  0  0  0  0  0  0  0  0  0  0  0
  148.3802  133.8671  152.5221 H   0  0  0  0  0  0  0  0  0  0  0  0
  148.3093  132.1869  152.0243 H   0  0  0  0  0  0  0  0  0  0  0  0
  145.3121  134.0343  153.3490 H   0  0  0  0  0  0  0  0  0  0  0  0
  147.2666  135.6131  152.0657 H   0  0  0  0  0  0  0  0  0  0  0  0
  147.6857  137.5653  152.6357 H   0  0  0  0  0  0  0  0  0  0  0  0
  146.7882  142.5107  154.0909 H   0  0  0  0  0  0  0  0  0  0  0  0
  1  2  1  0  0  0  0
  1 18  1  0  0  0  0
  1 19  1  0  0  0  0
  1 20  1  0  0  0  0
  2  8  1  0  0  0  0
  2  3  1  0  0  0  0
  2 21  1  0  0  0  0
  3  4  1  0  0  0  0
  3 22  1  0  0  0  0
  3 23  1  0  0  0  0
  4  5  1  0  0  0  0
  4 24  1  0  0  0  0
  4 25  1  0  0  0  0
  5  6  1  0  0  0  0
  5 26  1  0  0  0  0
  5 27  1  0  0  0  0
  6  7  1  0  0  0  0
  6  8  1  0  0  0  0
  6 28  1  0  0  0  0
  7 29  1  0  0  0  0
  7 30  1  0  0  0  0
  7 31  1  0  0  0  0
  8  9  1  0  0  0  0
  8 32  1  0  0  0  0
  9 10  1  0  0  0  0
  9 33  1  0  0  0  0
 10 11  2  0  0  0  0
 10 12  1  0  0  0  0
 12 13  1  0  0  0  0
 12 34  1  0  0  0  0
 13 17  1  0  0  0  0
 13 14  2  0  0  0  0
 14 15  1  0  0  0  0
 15 16  2  0  0  0  0
 16 17  1  0  0  0  0
 16 35  1  0  0  0  0
M  END
> <s_m_source_file>
AV-unprocessed.smi

> <i_m_source_file_index>
788

> <i_lp_mmshare_version>
43012

> <i_f3d_flags>
0

> <s_epik_input>
W0NIM11bQ0BASF0xW0NIMl1bQ0gyXVtDSDJdW0NAQEhdKFtDSDNdKVtDQEhdMVtOSF1DKD1PKVtOSF1jMm5uW2NIXXMy

> <s_epik_cmdline>
J2VwaWtfcHl0aG9uJywgJy1waCcsICc3LjAnLCAnLXRuJywgJzgnLCAnLW1hJywgJzIwMCcsICctbWV0YWxfYmluZGluZycsICctaW1hZScsICc8aW5maWxlLm1hZT4nLCAnLW9tYWUnLCAnPG91dGZpbGUubWFlPic=

> <r_lp_tautomer_probability>
1

> <r_epik_Ionization_Penalty>
0.000304078

> <r_epik_Ionization_Penalty_Charging>
0

> <r_epik_Ionization_Penalty_Neutral>
0.000304078

> <r_epik_State_Penalty>
-0

> <r_epik_Charging_Adjusted_Penalty>
0

> <i_epik_Tot_Q>
0

> <i_epik_Tot_abs_Q>
0

> <r_epik_Metal_State_Penalty>
0.164801

> <b_epik_Metal_Only>
0

> <s_lp_Force_Field>
OPLS_2005

> <r_lp_Energy>
15.5702

> <b_lp_Chiralities_Consistent>
1

> <s_lp_Variant>
AV-unprocessed.smi:788-4

> <Gold.Version>
5.8.1

> <Gold.Id.Protein>
6NUR|6NUR_protein|mol2

> <Gold.PLP.Fitness>
32.3444

> <Gold.PLP.PLP>
-27.2487

> <Gold.PLP.part.hbond>
-2.0000

> <Gold.PLP.part.metal>
0.0000

> <Gold.PLP.part.buried>
-1.4820

> <Gold.PLP.part.nonpolar>
-23.4496

> <Gold.PLP.part.repulsive>
0.2942

> <Gold.PLP.ligand.clash>
0.0000

> <Gold.PLP.ligand.torsion>
0.4594

> <Gold.PLP.Chemscore.Hbond>
2.0000

> <Gold.PLP.Chemscore.CHOScore>
0.0000

> <Gold.PLP.Chemscore.Metal>
0.0000

> <Gold.Chemscore.Hbonds>
donor molecule, donor type, donor heavy atom, donor atom, acceptor molecule, acceptor atom, score
      L1  H     9    33       P1  7948  1.00
      L1  H    12    34       P1  7948  1.00

> <Gold.PLP.Chemscore.Internal.Correction>
0.0145

> <Gold.Rescore>
     Score         DG    S(hbond)    S(metal)    S(lipo)     H(rot)  DE(clash)    DE(int)     intcor
     16.58     -17.25       1.94        0.00      66.98       1.00       0.17       0.50       ----

> <Gold.Chemscore.Fitness>
16.5810

> <Gold.Chemscore.DG>
-17.2477

> <Gold.Chemscore.ZeroCoef>
-5.4800

> <Gold.Chemscore.Hbond>
1.9434

> <Gold.Chemscore.Metal>
0.0000

> <Gold.Chemscore.Lipo>
66.9805

> <Gold.Chemscore.Internal_Hbond>
0.0000

> <Gold.Chemscore.DEClash>
0.1655

> <Gold.Chemscore.DEInternal>
0.5012

> <Gold.Chemscore.Rot>
1.0000

> <Gold.Chemscore.Internal.Correction>
   9.000000E+99

> <Gold.Chemscore.Hbonds>
donor molecule, donor type, donor heavy atom, donor atom, acceptor molecule, acceptor atom, score
      L1  H     9    33       P1  7948  0.99
      L1  H    12    34       P1  7948  0.92

> <Gold.Chemscore.Hbond.Weighted>
-6.4909

> <Gold.Chemscore.Metal.Weighted>
-0.0000

> <Gold.Chemscore.Lipo.Weighted>
-7.8367

> <Gold.Chemscore.Internal_Hbond.Weighted>
0.0000

> <Gold.Chemscore.DEClash.Weighted>
0.1655

> <Gold.Chemscore.DEInternal.Weighted>
0.5012

> <Gold.Chemscore.Rot.Weighted>
2.5600

> <Gold.Chemscore.Internal.Correction.Weighted>
   9.000000E+99

> <Gold.Protein.RotatedTorsions>
[ 6907 6896 6895 6894 ] final  -44.86 input  -60.11 | X-H torsion
[ 7974 7965 7964 7962 ] final   94.73 input  175.53 | X-H torsion
[ 8008 7997 7996 7995 ] final -146.27 input   59.86 | X-H torsion
[ 10167 10162 10161 10158 ] final  -69.92 input  -65.29 | X-H torsion
[ 10718 10713 10712 10709 ] final  -45.12 input   66.30 | X-H torsion
[ 10763 10752 10751 10750 ] final   60.13 input  -60.55 | X-H torsion
[ 11005 11000 10999 10996 ] final   74.11 input  -57.11 | X-H torsion

> <Gold.Protein.ActiveResidues>
 VAL166  LYS551  ARG553  GLY616  TRP617  ASP618  TYR619  PRO620  LYS621  CYS622 
 ASP623  PHE694  ASN695  SER759  ASP760  ASP761  ALA762  ILE779  LEU786  VAL792 
 PHE793  MET794  SER795  GLU796  ALA797  LYS798  CYS799  TRP800  GLU811  SER814 

> <Gold.Protein.RotatedAtoms>
  150.9282  134.8698  159.7533 H   0  0  0  0  0  0  0  0  0  0  0  0  # atno 6907 bound_to 6896
  152.5025  134.4118  159.9461 H   0  0  0  0  0  0  0  0  0  0  0  0  # atno 6908 bound_to 6896
  151.4146  133.3677  159.2783 H   0  0  0  0  0  0  0  0  0  0  0  0  # atno 6909 bound_to 6896
  145.4617  139.2286  143.2984 H   0  0  0  0  0  0  0  0  0  0  0  0  # atno 7974 bound_to 7965
  155.5566  140.0621  157.2838 H   0  0  0  0  0  0  0  0  0  0  0  0  # atno 8008 bound_to 7997
  154.4403  140.1893  156.0785 H   0  0  0  0  0  0  0  0  0  0  0  0  # atno 8009 bound_to 7997
  156.0477  140.3288  155.7319 H   0  0  0  0  0  0  0  0  0  0  0  0  # atno 8010 bound_to 7997
  140.5393  143.2316  151.7119 H   0  0  0  0  0  0  0  0  0  0  0  0  # atno 10167 bound_to 10162
  156.2316  130.4173  149.8868 H   0  0  0  0  0  0  0  0  0  0  0  0  # atno 10718 bound_to 10713
  152.9913  135.5547  154.5825 H   0  0  0  0  0  0  0  0  0  0  0  0  # atno 10763 bound_to 10752
  154.5203  135.2807  155.1270 H   0  0  0  0  0  0  0  0  0  0  0  0  # atno 10764 bound_to 10752
  154.2626  135.6378  153.5333 H   0  0  0  0  0  0  0  0  0  0  0  0  # atno 10765 bound_to 10752
  139.9407  134.7405  156.1108 H   0  0  0  0  0  0  0  0  0  0  0  0  # atno 11005 bound_to 11000
  146.2447  140.5387  142.8919 LP  0  0  0  0  0  0  0  0  0  0  0  0  # atno 17320 bound_to 7965
  144.7999  140.6193  143.6485 LP  0  0  0  0  0  0  0  0  0  0  0  0  # atno 17321 bound_to 7965
  139.4982  144.3994  152.0197 LP  0  0  0  0  0  0  0  0  0  0  0  0  # atno 17342 bound_to 10162
  140.3102  144.3547  150.6036 LP  0  0  0  0  0  0  0  0  0  0  0  0  # atno 17343 bound_to 10162
  156.6480  130.8732  151.3526 LP  0  0  0  0  0  0  0  0  0  0  0  0  # atno 17370 bound_to 10713
  157.7136  130.9469  150.1174 LP  0  0  0  0  0  0  0  0  0  0  0  0  # atno 17371 bound_to 10713
  141.1040  133.6667  156.2820 LP  0  0  0  0  0  0  0  0  0  0  0  0  # atno 17394 bound_to 11000
  140.5960  134.5603  157.5508 LP  0  0  0  0  0  0  0  0  0  0  0  0  # atno 17395 bound_to 11000

$$$$
