AV-unprocessed.smi:2424|AV-procd|sdf|9566|dock5
  -GOLD-   2272013193D 1   1.00000     0.00000
 Structure written by MMmdl.
 50 51  0  0  0  0  0  0  0  0  1 V2000
  146.5998  137.7194  157.8771 C   0  0  0  0  0  0  0  0  0  0  0  0
  147.5164  138.6623  157.0782 C   0  0  0  0  0  0  0  0  0  0  0  0
  147.9017  138.1753  155.6589 C   0  0  0  0  0  0  0  0  0  0  0  0
  148.6041  136.7985  155.7889 C   0  0  0  0  0  0  0  0  0  0  0  0
  149.8164  136.7732  156.7353 C   0  0  0  0  0  0  0  0  0  0  0  0
  146.7405  138.2820  154.6266 C   0  0  2  0  0  0  0  0  0  0  0  0
  146.8480  137.3201  153.5269 N   0  0  0  0  0  0  0  0  0  0  0  0
  145.8747  136.5010  153.1091 C   0  0  0  0  0  0  0  0  0  0  0  0
  144.7511  136.4755  153.6092 O   0  0  0  0  0  0  0  0  0  0  0  0
  146.3109  135.7279  152.0984 N   0  0  0  0  0  0  0  0  0  0  0  0
  145.6267  134.7403  151.3771 C   0  0  0  0  0  0  0  0  0  0  0  0
  144.6804  135.1426  150.5113 C   0  0  0  0  0  0  0  0  0  0  0  0
  143.9512  134.2302  149.7458 N   0  0  0  0  0  0  0  0  0  0  0  0
  144.1182  132.8894  149.7985 C   0  0  0  0  0  0  0  0  0  0  0  0
  143.4407  132.1487  149.0882 O   0  0  0  0  0  0  0  0  0  0  0  0
  145.1406  132.4158  150.7457 C   0  0  0  0  0  0  0  0  0  0  0  0
  145.3671  130.9188  150.8605 C   0  0  0  0  0  0  0  0  0  0  0  0
  145.8466  133.3017  151.4866 C   0  0  0  0  0  0  0  0  0  0  0  0
  147.2570  139.6718  154.2183 C   0  0  2  0  0  0  0  0  0  0  0  0
  147.1474  140.1804  152.7820 C   0  0  0  0  0  0  0  0  0  0  0  0
  148.6190  139.2591  154.8003 C   0  0  2  0  0  0  0  0  0  0  0  0
  149.4613  138.7314  153.7815 O   0  0  0  0  0  0  0  0  0  0  0  0
  150.7397  138.3512  154.2613 C   0  0  0  0  0  0  0  0  0  0  0  0
  143.2615  134.6092  149.1133 H   0  0  0  0  0  0  0  0  0  0  0  0
  146.4991  138.0681  158.9049 H   0  0  0  0  0  0  0  0  0  0  0  0
  146.9952  136.7049  157.9141 H   0  0  0  0  0  0  0  0  0  0  0  0
  145.5952  137.6760  157.4580 H   0  0  0  0  0  0  0  0  0  0  0  0
  147.0628  139.6519  157.0366 H   0  0  0  0  0  0  0  0  0  0  0  0
  148.4171  138.8091  157.6741 H   0  0  0  0  0  0  0  0  0  0  0  0
  147.8997  136.0502  156.1514 H   0  0  0  0  0  0  0  0  0  0  0  0
  148.9084  136.4211  154.8141 H   0  0  0  0  0  0  0  0  0  0  0  0
  150.1718  135.7518  156.8719 H   0  0  0  0  0  0  0  0  0  0  0  0
  149.5668  137.1676  157.7201 H   0  0  0  0  0  0  0  0  0  0  0  0
  150.6515  137.3517  156.3418 H   0  0  0  0  0  0  0  0  0  0  0  0
  145.7560  138.3171  155.0967 H   0  0  0  0  0  0  0  0  0  0  0  0
  147.7397  137.2773  153.0554 H   0  0  0  0  0  0  0  0  0  0  0  0
  147.2717  135.8630  151.8197 H   0  0  0  0  0  0  0  0  0  0  0  0
  144.4155  136.1749  150.3332 H   0  0  0  0  0  0  0  0  0  0  0  0
  146.1365  130.6863  151.5974 H   0  0  0  0  0  0  0  0  0  0  0  0
  145.6839  130.5074  149.9015 H   0  0  0  0  0  0  0  0  0  0  0  0
  144.4481  130.4160  151.1636 H   0  0  0  0  0  0  0  0  0  0  0  0
  146.5771  132.9041  152.1714 H   0  0  0  0  0  0  0  0  0  0  0  0
  146.8084  140.4074  154.8878 H   0  0  0  0  0  0  0  0  0  0  0  0
  147.6212  139.5061  152.0688 H   0  0  0  0  0  0  0  0  0  0  0  0
  147.6247  141.1543  152.6746 H   0  0  0  0  0  0  0  0  0  0  0  0
  146.1044  140.2907  152.4850 H   0  0  0  0  0  0  0  0  0  0  0  0
  149.0814  140.0715  155.3633 H   0  0  0  0  0  0  0  0  0  0  0  0
  151.3199  137.9168  153.4474 H   0  0  0  0  0  0  0  0  0  0  0  0
  150.6680  137.6105  155.0577 H   0  0  0  0  0  0  0  0  0  0  0  0
  151.2870  139.2153  154.6394 H   0  0  0  0  0  0  0  0  0  0  0  0
  1  2  1  0  0  0  0
  1 25  1  0  0  0  0
  1 26  1  0  0  0  0
  1 27  1  0  0  0  0
  2  3  1  0  0  0  0
  2 28  1  0  0  0  0
  2 29  1  0  0  0  0
  3 21  1  0  0  0  0
  3  4  1  0  0  0  0
  3  6  1  0  0  0  0
  4  5  1  0  0  0  0
  4 30  1  0  0  0  0
  4 31  1  0  0  0  0
  5 32  1  0  0  0  0
  5 33  1  0  0  0  0
  5 34  1  0  0  0  0
  6  7  1  0  0  0  0
  6 19  1  0  0  0  0
  6 35  1  0  0  0  0
  7  8  1  0  0  0  0
  7 36  1  0  0  0  0
  8  9  2  0  0  0  0
  8 10  1  0  0  0  0
 10 11  1  0  0  0  0
 10 37  1  0  0  0  0
 11 18  1  0  0  0  0
 11 12  2  0  0  0  0
 12 13  1  0  0  0  0
 12 38  1  0  0  0  0
 13 24  1  0  0  0  0
 13 14  1  0  0  0  0
 14 15  2  0  0  0  0
 14 16  1  0  0  0  0
 16 17  1  0  0  0  0
 16 18  2  0  0  0  0
 17 39  1  0  0  0  0
 17 40  1  0  0  0  0
 17 41  1  0  0  0  0
 18 42  1  0  0  0  0
 19 20  1  0  0  0  0
 19 21  1  0  0  0  0
 19 43  1  0  0  0  0
 20 44  1  0  0  0  0
 20 45  1  0  0  0  0
 20 46  1  0  0  0  0
 21 22  1  0  0  0  0
 21 47  1  0  0  0  0
 22 23  1  0  0  0  0
 23 48  1  0  0  0  0
 23 49  1  0  0  0  0
 23 50  1  0  0  0  0
M  END
> <s_m_source_file>
AV-unprocessed.smi

> <i_m_source_file_index>
2424

> <i_lp_mmshare_version>
43012

> <i_f3d_flags>
0

> <s_epik_input>
W0NIM11PW0NAQEhdMVtDQEhdKFtDSDNdKVtDQEBIXShDMShbQ0gyXVtDSDNdKVtDSDJdW0NIM10pW05IXUMoPU8pW05IXWMyW2NIXVtuSF1jKD1PKWMoW0NIM10pW2NIXTI=

> <s_epik_cmdline>
J2VwaWtfcHl0aG9uJywgJy1waCcsICc3LjAnLCAnLXRuJywgJzgnLCAnLW1hJywgJzIwMCcsICctbWV0YWxfYmluZGluZycsICctaW1hZScsICc8aW5maWxlLm1hZT4nLCAnLW9tYWUnLCAnPG91dGZpbGUubWFlPic=

> <r_lp_tautomer_probability>
1

> <r_epik_Ionization_Penalty>
4.7326e-05

> <r_epik_Ionization_Penalty_Charging>
2.70169e-05

> <r_epik_Ionization_Penalty_Neutral>
2.0309e-05

> <r_epik_State_Penalty>
-0

> <r_epik_Charging_Adjusted_Penalty>
2.70169e-05

> <i_epik_Tot_Q>
0

> <i_epik_Tot_abs_Q>
0

> <r_epik_Metal_State_Penalty>
0.0198736

> <b_epik_Metal_Only>
0

> <s_lp_Force_Field>
OPLS_2005

> <r_lp_Energy>
37.0094

> <b_lp_Chiralities_Consistent>
1

> <s_lp_Variant>
AV-unprocessed.smi:2424-8

> <Gold.Version>
5.8.1

> <Gold.Id.Protein>
6NUR|6NUR_protein|mol2

> <Gold.PLP.Fitness>
40.5794

> <Gold.PLP.PLP>
-29.6639

> <Gold.PLP.part.hbond>
-4.6429

> <Gold.PLP.part.metal>
0.0000

> <Gold.PLP.part.buried>
-6.9140

> <Gold.PLP.part.nonpolar>
-20.4746

> <Gold.PLP.part.repulsive>
1.8370

> <Gold.PLP.ligand.clash>
0.0000

> <Gold.PLP.ligand.torsion>
1.0349

> <Gold.PLP.Chemscore.Hbond>
3.1369

> <Gold.PLP.Chemscore.CHOScore>
0.9578

> <Gold.PLP.Chemscore.Metal>
0.0000

> <Gold.Chemscore.Hbonds>
donor molecule, donor type, donor heavy atom, donor atom, acceptor molecule, acceptor atom, score
      L1  H     7    36       P1  7948  0.94
      L1  H    10    37       P1  7948  1.00
      L1  H    13    24       P1 10186  0.16
      P1  H 10785 10796       L1    15  0.91
      L1  C    12    38       P1 10171  1.00

> <Gold.PLP.Chemscore.Internal.Correction>
0.7012

> <Gold.Rescore>
     Score         DG    S(hbond)    S(metal)    S(lipo)     H(rot)  DE(clash)    DE(int)     intcor
     20.28     -21.39       3.66        0.00      65.45       1.55       0.06       1.05       ----

> <Gold.Chemscore.Fitness>
20.2794

> <Gold.Chemscore.DG>
-21.3862

> <Gold.Chemscore.ZeroCoef>
-5.4800

> <Gold.Chemscore.Hbond>
3.6577

> <Gold.Chemscore.Metal>
0.0000

> <Gold.Chemscore.Lipo>
65.4531

> <Gold.Chemscore.Internal_Hbond>
0.0000

> <Gold.Chemscore.DEClash>
0.0576

> <Gold.Chemscore.DEInternal>
1.0492

> <Gold.Chemscore.Rot>
1.5502

> <Gold.Chemscore.Internal.Correction>
   9.000000E+99

> <Gold.Chemscore.Hbonds>
donor molecule, donor type, donor heavy atom, donor atom, acceptor molecule, acceptor atom, score
      L1  H     7    36       P1  7948  0.88
      L1  H    10    37       P1  7948  1.00
      L1  H    13    24       P1 10186  0.15
      P1  H 10785 10796       L1    15  0.83

> <Gold.Chemscore.Hbond.Weighted>
-12.2167

> <Gold.Chemscore.Metal.Weighted>
-0.0000

> <Gold.Chemscore.Lipo.Weighted>
-7.6580

> <Gold.Chemscore.Internal_Hbond.Weighted>
0.0000

> <Gold.Chemscore.DEClash.Weighted>
0.0576

> <Gold.Chemscore.DEInternal.Weighted>
1.0492

> <Gold.Chemscore.Rot.Weighted>
3.9685

> <Gold.Chemscore.Internal.Correction.Weighted>
   9.000000E+99

> <Gold.Protein.RotatedTorsions>
[ 6907 6896 6895 6894 ] final   60.17 input  -60.11 | X-H torsion
[ 7974 7965 7964 7962 ] final -160.17 input  175.53 | X-H torsion
[ 8008 7997 7996 7995 ] final   52.74 input   59.86 | X-H torsion
[ 10167 10162 10161 10158 ] final -173.58 input  -65.29 | X-H torsion
[ 10718 10713 10712 10709 ] final   28.32 input   66.30 | X-H torsion
[ 10763 10752 10751 10750 ] final  170.14 input  -60.55 | X-H torsion
[ 11005 11000 10999 10996 ] final -151.38 input  -57.11 | X-H torsion

> <Gold.Protein.ActiveResidues>
 VAL166  LYS551  ARG553  GLY616  TRP617  ASP618  TYR619  PRO620  LYS621  CYS622 
 ASP623  PHE694  ASN695  SER759  ASP760  ASP761  ALA762  ILE779  LEU786  VAL792 
 PHE793  MET794  SER795  GLU796  ALA797  LYS798  CYS799  TRP800  GLU811  SER814 

> <Gold.Protein.RotatedAtoms>
  152.3979  134.6334  160.0081 H   0  0  0  0  0  0  0  0  0  0  0  0  # atno 6907 bound_to 6896
  151.6549  133.3314  159.3168 H   0  0  0  0  0  0  0  0  0  0  0  0  # atno 6908 bound_to 6896
  150.7884  134.6931  159.6552 H   0  0  0  0  0  0  0  0  0  0  0  0  # atno 6909 bound_to 6896
  144.7437  140.3580  143.6102 H   0  0  0  0  0  0  0  0  0  0  0  0  # atno 7974 bound_to 7965
  155.4567  140.3460  155.4307 H   0  0  0  0  0  0  0  0  0  0  0  0  # atno 8008 bound_to 7997
  156.1186  140.1481  156.9266 H   0  0  0  0  0  0  0  0  0  0  0  0  # atno 8009 bound_to 7997
  154.4807  140.0870  156.7349 H   0  0  0  0  0  0  0  0  0  0  0  0  # atno 8010 bound_to 7997
  139.5680  144.1708  152.1342 H   0  0  0  0  0  0  0  0  0  0  0  0  # atno 10167 bound_to 10162
  157.2319  130.7028  149.6317 H   0  0  0  0  0  0  0  0  0  0  0  0  # atno 10718 bound_to 10713
  154.3933  135.2754  155.2141 H   0  0  0  0  0  0  0  0  0  0  0  0  # atno 10763 bound_to 10752
  154.4198  135.6002  153.6006 H   0  0  0  0  0  0  0  0  0  0  0  0  # atno 10764 bound_to 10752
  152.9832  135.5970  154.4191 H   0  0  0  0  0  0  0  0  0  0  0  0  # atno 10765 bound_to 10752
  140.7302  134.3630  157.5168 H   0  0  0  0  0  0  0  0  0  0  0  0  # atno 11005 bound_to 11000
  145.7206  139.1709  143.2486 LP  0  0  0  0  0  0  0  0  0  0  0  0  # atno 17320 bound_to 7965
  146.1279  140.7223  142.9426 LP  0  0  0  0  0  0  0  0  0  0  0  0  # atno 17321 bound_to 7965
  140.1235  144.5352  150.6847 LP  0  0  0  0  0  0  0  0  0  0  0  0  # atno 17342 bound_to 10162
  140.6964  143.2407  151.4988 LP  0  0  0  0  0  0  0  0  0  0  0  0  # atno 17343 bound_to 10162
  155.9675  130.4486  150.5626 LP  0  0  0  0  0  0  0  0  0  0  0  0  # atno 17370 bound_to 10713
  157.3469  131.0726  151.1744 LP  0  0  0  0  0  0  0  0  0  0  0  0  # atno 17371 bound_to 10713
  139.8828  134.9013  156.2808 LP  0  0  0  0  0  0  0  0  0  0  0  0  # atno 17394 bound_to 11000
  140.9928  133.7198  156.0839 LP  0  0  0  0  0  0  0  0  0  0  0  0  # atno 17395 bound_to 11000

$$$$
